0:0
     RDKit          3D

 29 31  0  0  0  0  0  0  0  0999 V2000
   56.7210   29.5480   42.9180 O   0  0  0  0  0  0  0  0  0  0  0  0
   56.7590   29.8260   44.1450 C   0  0  0  0  0  0  0  0  0  0  0  0
   56.2530   28.8610   45.0820 N   0  0  0  0  0  0  0  0  0  0  0  0
   56.8980   27.8330   45.5540 C   0  0  0  0  0  0  0  0  0  0  0  0
   58.2620   27.8250   45.6180 N   0  0  0  0  0  0  0  0  0  0  0  0
   58.9540   26.7690   46.1200 C   0  0  0  0  0  0  0  0  0  0  0  0
   58.2720   25.6500   46.5990 C   0  0  0  0  0  0  0  0  0  0  0  0
   56.8770   25.6330   46.5580 C   0  0  0  0  0  0  0  0  0  0  0  0
   56.1810   26.7280   46.0390 C   0  0  0  0  0  0  0  0  0  0  0  0
   54.7910   26.7100   46.0020 O   0  0  0  0  0  0  0  0  0  0  0  0
   57.3890   31.0980   44.5820 C   0  0  0  0  0  0  0  0  0  0  0  0
   57.7540   31.2810   45.9240 C   0  0  0  0  0  0  0  0  0  0  0  0
   58.3550   32.4760   46.3240 C   0  0  0  0  0  0  0  0  0  0  0  0
   58.7240   32.6990   47.6590 C   0  0  0  0  0  0  0  0  0  0  0  0
   59.3240   33.9090   48.0230 C   0  0  0  0  0  0  0  0  0  0  0  0
   59.5580   34.8960   47.0610 C   0  0  0  0  0  0  0  0  0  0  0  0
   59.1930   34.6800   45.7280 C   0  0  0  0  0  0  0  0  0  0  0  0
   59.4300   35.6670   44.7780 O   0  0  0  0  0  0  0  0  0  0  0  0
   58.5910   33.4720   45.3520 C   0  0  0  0  0  0  0  0  0  0  0  0
   58.2440   33.2630   44.0860 O   0  0  0  0  0  0  0  0  0  0  0  0
   57.6660   32.1390   43.6710 C   0  0  0  0  0  0  0  0  0  0  0  0
   57.3600   32.0250   42.4550 O   0  0  0  0  0  0  0  0  0  0  0  0
   60.0533   26.7963   46.1488 H   0  0  0  0  0  0  0  0  0  0  0  0
   58.8273   24.7912   47.0042 H   0  0  0  0  0  0  0  0  0  0  0  0
   56.3259   24.7584   46.9339 H   0  0  0  0  0  0  0  0  0  0  0  0
   57.5671   30.4848   46.6596 H   0  0  0  0  0  0  0  0  0  0  0  0
   58.5419   31.9239   48.4180 H   0  0  0  0  0  0  0  0  0  0  0  0
   59.6127   34.0845   49.0698 H   0  0  0  0  0  0  0  0  0  0  0  0
   60.0306   35.8454   47.3532 H   0  0  0  0  0  0  0  0  0  0  0  0
  1  2  2  0
  2  3  1  0
  3  4  2  3
  4  5  1  0
  5  6  1  0
  6  7  2  0
  7  8  1  0
  8  9  2  0
  9 10  1  0
  2 11  1  0
 11 12  2  0
 12 13  1  0
 13 14  2  0
 14 15  1  0
 15 16  2  0
 16 17  1  0
 17 18  1  0
 17 19  2  0
 19 20  1  0
 20 21  1  0
 21 22  2  0
  9  4  1  0
 21 11  1  0
 19 13  1  0
  6 23  1  0
  7 24  1  0
  8 25  1  0
 12 26  1  0
 14 27  1  0
 15 28  1  0
 16 29  1  0
M  CHG  3   5  -1  10  -1  18  -1
M  END
>  <UniqueID>  (1) 
1

>  <SMILES>  (1) 
O=C(N=c1[n-]cccc1[O-])c1cc2cccc([O-])c2oc1=O

>  <Energy>  (1) 
46.60971689531467

>  <Genealogy>  (1) 
O=C(N=c1[n-]cccc1[O-])c1cc2cccc([O-])c2oc1=O (protonated)
O=C(N=c1[n-]cccc1[O-])c1cc2cccc([O-])c2oc1=O (3D coordinates assigned)
O=C(N=c1[n-]cccc1[O-])c1cc2cccc([O-])c2oc1=O (optimized conformer: 46.60971689531467 kcal/mol)

>  <smiles>  (1) 
O=C(N=c1[nH]cccc1O)c1cc2cccc(O)c2oc1=O

>  <score_type>  (1) 
oracle

>  <origin>  (1) 
adg

>  <m_score__min__energy>  (1) 
-13.66

>  <m_primary>  (1) 
energy

$$$$
1:0
     RDKit          3D

 42 44  0  0  0  0  0  0  0  0999 V2000
   58.9723   35.2938   47.1475 H   0  0  0  0  0  0  0  0  0  0  0  0
   58.6450   34.4930   46.4680 C   0  0  0  0  0  0  0  0  0  0  0  0
   57.9020   33.4170   46.9620 C   0  0  0  0  0  0  0  0  0  0  0  0
   57.6502   33.3694   48.0317 H   0  0  0  0  0  0  0  0  0  0  0  0
   57.4780   32.4010   46.1000 C   0  0  0  0  0  0  0  0  0  0  0  0
   56.8995   31.5526   46.4945 H   0  0  0  0  0  0  0  0  0  0  0  0
   57.7890   32.4610   44.7310 C   0  0  0  0  0  0  0  0  0  0  0  0
   57.3690   31.3530   43.8100 C   0  0  0  0  0  0  0  0  0  0  0  0
   58.2529   30.7723   43.5075 H   0  0  0  0  0  0  0  0  0  0  0  0
   56.8885   31.7795   42.9171 H   0  0  0  0  0  0  0  0  0  0  0  0
   56.4260   30.4800   44.5010 N   0  0  0  0  0  0  0  0  0  0  0  0
   56.7610   29.3910   45.1230 C   0  0  0  0  0  0  0  0  0  0  0  0
   55.8800   28.3640   45.2620 N   0  0  0  0  0  0  0  0  0  0  0  0
   56.2430   27.2320   45.9150 C   0  0  0  0  0  0  0  0  0  0  0  0
   55.3880   26.2620   46.0330 N   0  0  0  0  0  0  0  0  0  0  0  0
   55.7540   24.8520   45.9560 C   0  0  0  0  0  0  0  0  0  0  0  0
   55.6262   24.6072   47.0208 H   0  0  0  0  0  0  0  0  0  0  0  0
   55.3520   24.2110   44.6410 C   0  0  0  0  0  0  0  0  0  0  0  0
   55.0272   23.1603   44.6177 H   0  0  0  0  0  0  0  0  0  0  0  0
   54.6301   24.4515   43.8466 H   0  0  0  0  0  0  0  0  0  0  0  0
   56.8110   24.5510   44.9090 C   0  0  0  0  0  0  0  0  0  0  0  0
   57.5412   23.7462   45.0797 H   0  0  0  0  0  0  0  0  0  0  0  0
   57.5815   25.1392   44.3891 H   0  0  0  0  0  0  0  0  0  0  0  0
   57.4960   27.1270   46.4310 N   0  0  0  0  0  0  0  0  0  0  0  0
   58.3810   28.1460   46.3000 C   0  0  0  0  0  0  0  0  0  0  0  0
   59.5740   28.0230   46.8000 N   0  0  0  0  0  0  0  0  0  0  0  0
   60.3310   29.0990   47.4400 C   0  0  0  0  0  0  0  0  0  0  0  0
   61.2318   28.6765   47.9091 H   0  0  0  0  0  0  0  0  0  0  0  0
   59.6926   29.5766   48.1979 H   0  0  0  0  0  0  0  0  0  0  0  0
   60.7480   30.1550   46.4140 C   0  0  0  0  0  0  0  0  0  0  0  0
   59.9132   30.3386   45.7216 H   0  0  0  0  0  0  0  0  0  0  0  0
   61.6235   29.7891   45.8576 H   0  0  0  0  0  0  0  0  0  0  0  0
   61.0880   31.3640   47.0680 O   0  0  0  0  0  0  0  0  0  0  0  0
   60.3610   31.4950   48.2700 C   0  0  0  0  0  0  0  0  0  0  0  0
   61.0416   31.3724   49.1254 H   0  0  0  0  0  0  0  0  0  0  0  0
   59.8965   32.4913   48.3109 H   0  0  0  0  0  0  0  0  0  0  0  0
   59.5780   30.7235   48.3109 H   0  0  0  0  0  0  0  0  0  0  0  0
   58.0080   29.2770   45.6420 N   0  0  0  0  0  0  0  0  0  0  0  0
   58.5510   33.5370   44.2440 C   0  0  0  0  0  0  0  0  0  0  0  0
   58.8172   33.5816   43.1776 H   0  0  0  0  0  0  0  0  0  0  0  0
   58.9720   34.5510   45.1100 C   0  0  0  0  0  0  0  0  0  0  0  0
   59.5611   35.3952   44.7223 H   0  0  0  0  0  0  0  0  0  0  0  0
  1  2  1  0
  2  3  2  0
  3  4  1  0
  3  5  1  0
  5  6  1  0
  5  7  2  0
  7  8  1  0
  8  9  1  0
  8 10  1  0
  8 11  1  0
 11 12  2  0
 12 13  1  0
 13 14  1  0
 14 15  2  3
 15 16  1  0
 16 17  1  0
 16 18  1  0
 18 19  1  0
 18 20  1  0
 18 21  1  0
 21 22  1  0
 21 23  1  0
 14 24  1  0
 24 25  1  0
 25 26  2  0
 26 27  1  0
 27 28  1  0
 27 29  1  0
 27 30  1  0
 30 31  1  0
 30 32  1  0
 30 33  1  0
 33 34  1  0
 34 35  1  0
 34 36  1  0
 34 37  1  0
 25 38  1  0
  7 39  1  0
 39 40  1  0
 39 41  2  0
 41 42  1  0
 41  2  1  0
 38 12  1  0
 21 16  1  0
M  CHG  3  13  -1  24  -1  38  -1
M  END
>  <UniqueID>  (2) 
2

>  <SMILES>  (2) 
COCC/N=c1/[n-]c(=NC2CC2)[n-]/c(=N\Cc2ccccc2)[n-]1

>  <Energy>  (2) 
306.086957179499

>  <Genealogy>  (2) 
COCCN=c1[n-]c(=NCc2ccccc2)[n-]c(=NC2CC2)[n-]1 (protonated)
COCC/N=c1/[n-]c(=NC2CC2)[n-]/c(=N\Cc2ccccc2)[n-]1 (cis-trans isomerization)
COCC/N=c1/[n-]c(=NC2CC2)[n-]/c(=N\Cc2ccccc2)[n-]1 (3D coordinates assigned)
COCC/N=c1/[n-]c(=NC2CC2)[n-]/c(=N\Cc2ccccc2)[n-]1 (nonaromatic ring conformer: 306.086957179499 kcal/mol)

>  <smiles>  (2) 
COCCN=c1[nH]c(=NCc2ccccc2)[nH]c(=NC2CC2)[nH]1

>  <score_type>  (2) 
oracle

>  <origin>  (2) 
adg

>  <m_score__min__energy>  (2) 
-11.6

>  <m_primary>  (2) 
energy

$$$$
2:0
     RDKit          3D

 44 46  0  0  0  0  0  0  0  0999 V2000
   55.8810   30.7990   44.4970 O   0  0  0  0  0  0  0  0  0  0  0  0
   57.0910   31.1520   44.4650 C   0  0  0  0  0  0  0  0  0  0  0  0
   57.4140   32.5030   43.8840 C   0  0  0  0  0  0  0  0  0  0  0  0
   57.0610   33.6190   44.8740 C   0  0  0  0  0  0  0  0  0  0  0  0
   58.1510   33.7800   45.9000 C   0  0  0  0  0  0  0  0  0  0  0  0
   59.3420   34.4480   45.5710 C   0  0  0  0  0  0  0  0  0  0  0  0
   60.3410   34.6200   46.5340 C   0  0  0  0  0  0  0  0  0  0  0  0
   60.1550   34.1350   47.8320 C   0  0  0  0  0  0  0  0  0  0  0  0
   58.9660   33.4820   48.1710 C   0  0  0  0  0  0  0  0  0  0  0  0
   57.9650   33.3070   47.2110 C   0  0  0  0  0  0  0  0  0  0  0  0
   58.1410   30.2130   44.9590 C   0  0  0  0  0  0  0  0  0  0  0  0
   57.9880   28.8280   44.7570 C   0  0  0  0  0  0  0  0  0  0  0  0
   58.9570   27.9320   45.2080 C   0  0  0  0  0  0  0  0  0  0  0  0
   60.0980   28.3990   45.8600 C   0  0  0  0  0  0  0  0  0  0  0  0
   60.2850   29.7760   46.0580 C   0  0  0  0  0  0  0  0  0  0  0  0
   61.4460   30.2790   46.7410 N   0  0  0  0  0  0  0  0  0  0  0  0
   61.4090   30.8280   48.0690 C   0  0  0  0  0  0  0  0  0  0  0  0
   60.4400   30.5570   48.8310 O   0  0  0  0  0  0  0  0  0  0  0  0
   62.5210   31.6700   48.5770 C   0  0  0  0  0  0  0  0  0  0  0  0
   63.0970   32.6700   47.7700 C   0  0  0  0  0  0  0  0  0  0  0  0
   64.1410   33.4610   48.2620 C   0  0  0  0  0  0  0  0  0  0  0  0
   64.6150   33.2670   49.5610 C   0  0  0  0  0  0  0  0  0  0  0  0
   64.0440   32.2860   50.3750 C   0  0  0  0  0  0  0  0  0  0  0  0
   63.0000   31.4930   49.8890 C   0  0  0  0  0  0  0  0  0  0  0  0
   59.2970   30.6730   45.6240 C   0  0  0  0  0  0  0  0  0  0  0  0
   58.4890   32.5499   43.6558 H   0  0  0  0  0  0  0  0  0  0  0  0
   56.8219   32.6438   42.9677 H   0  0  0  0  0  0  0  0  0  0  0  0
   56.9386   34.5643   44.3249 H   0  0  0  0  0  0  0  0  0  0  0  0
   56.1254   33.3545   45.3884 H   0  0  0  0  0  0  0  0  0  0  0  0
   59.4892   34.8370   44.5527 H   0  0  0  0  0  0  0  0  0  0  0  0
   61.2749   35.1378   46.2699 H   0  0  0  0  0  0  0  0  0  0  0  0
   60.9442   34.2672   48.5867 H   0  0  0  0  0  0  0  0  0  0  0  0
   58.8181   33.1057   49.1940 H   0  0  0  0  0  0  0  0  0  0  0  0
   57.0286   32.7975   47.4822 H   0  0  0  0  0  0  0  0  0  0  0  0
   57.0952   28.4488   44.2382 H   0  0  0  0  0  0  0  0  0  0  0  0
   58.8207   26.8522   45.0487 H   0  0  0  0  0  0  0  0  0  0  0  0
   60.8540   27.6858   46.2203 H   0  0  0  0  0  0  0  0  0  0  0  0
   62.3810   30.1170   46.3020 H   0  0  0  0  0  0  0  0  0  0  0  0
   62.7242   32.8301   46.7475 H   0  0  0  0  0  0  0  0  0  0  0  0
   64.5892   34.2372   47.6243 H   0  0  0  0  0  0  0  0  0  0  0  0
   65.4389   33.8873   49.9437 H   0  0  0  0  0  0  0  0  0  0  0  0
   64.4160   32.1372   51.3994 H   0  0  0  0  0  0  0  0  0  0  0  0
   62.5499   30.7257   50.5361 H   0  0  0  0  0  0  0  0  0  0  0  0
   59.4257   31.7504   45.8049 H   0  0  0  0  0  0  0  0  0  0  0  0
  1  2  2  0
  2  3  1  0
  3  4  1  0
  4  5  1  0
  5  6  2  0
  6  7  1  0
  7  8  2  0
  8  9  1  0
  9 10  2  0
  2 11  1  0
 11 12  2  0
 12 13  1  0
 13 14  2  0
 14 15  1  0
 15 16  1  0
 16 17  1  0
 17 18  2  0
 17 19  1  0
 19 20  2  0
 20 21  1  0
 21 22  2  0
 22 23  1  0
 23 24  2  0
 15 25  2  0
 10  5  1  0
 25 11  1  0
 24 19  1  0
  3 26  1  0
  3 27  1  0
  4 28  1  0
  4 29  1  0
  6 30  1  0
  7 31  1  0
  8 32  1  0
  9 33  1  0
 10 34  1  0
 12 35  1  0
 13 36  1  0
 14 37  1  0
 16 38  1  0
 20 39  1  0
 21 40  1  0
 22 41  1  0
 23 42  1  0
 24 43  1  0
 25 44  1  0
M  END
>  <UniqueID>  (3) 
3

>  <SMILES>  (3) 
O=C(CCc1ccccc1)c1cccc(NC(=O)c2ccccc2)c1

>  <Energy>  (3) 
50.546118988099224

>  <Genealogy>  (3) 
O=C(CCc1ccccc1)c1cccc(NC(=O)c2ccccc2)c1 (3D coordinates assigned)
O=C(CCc1ccccc1)c1cccc(NC(=O)c2ccccc2)c1 (optimized conformer: 50.546118988099224 kcal/mol)

>  <smiles>  (3) 
O=C(CCc1ccccc1)c1cccc(NC(=O)c2ccccc2)c1

>  <score_type>  (3) 
oracle

>  <origin>  (3) 
adg

>  <m_score__min__energy>  (3) 
-9.3100000000000005

>  <m_primary>  (3) 
energy

$$$$
3:0
     RDKit          3D

 32 34  0  0  0  0  0  0  0  0999 V2000
   62.5860   32.5400   47.3090 C   0  0  0  0  0  0  0  0  0  0  0  0
   61.2550   32.1580   46.8460 N   0  0  0  0  0  0  0  0  0  0  0  0
   60.7290   30.9110   46.8640 C   0  0  0  0  0  0  0  0  0  0  0  0
   59.4270   30.9290   46.3680 C   0  0  0  0  0  0  0  0  0  0  0  0
   58.5370   29.7580   46.2220 C   0  0  0  0  0  0  0  0  0  0  0  0
   58.9650   28.4940   46.6510 C   0  0  0  0  0  0  0  0  0  0  0  0
   58.1360   27.3780   46.5080 C   0  0  0  0  0  0  0  0  0  0  0  0
   56.8620   27.4990   45.9240 C   0  0  0  0  0  0  0  0  0  0  0  0
   56.0060   26.2930   45.7920 C   0  0  0  0  0  0  0  0  0  0  0  0
   54.7650   26.3530   46.0000 O   0  0  0  0  0  0  0  0  0  0  0  0
   56.5640   25.0720   45.4330 O   0  0  0  0  0  0  0  0  0  0  0  0
   56.4400   28.7710   45.4760 C   0  0  0  0  0  0  0  0  0  0  0  0
   55.1970   28.9460   44.8760 O   0  0  0  0  0  0  0  0  0  0  0  0
   57.2760   29.8840   45.6220 C   0  0  0  0  0  0  0  0  0  0  0  0
   59.1620   32.2570   46.0590 C   0  0  0  0  0  0  0  0  0  0  0  0
   58.0030   32.8880   45.6000 C   0  0  0  0  0  0  0  0  0  0  0  0
   58.0340   34.2820   45.4140 C   0  0  0  0  0  0  0  0  0  0  0  0
   56.8950   34.9350   44.9490 O   0  0  0  0  0  0  0  0  0  0  0  0
   59.2110   35.0120   45.7060 C   0  0  0  0  0  0  0  0  0  0  0  0
   60.3550   34.3570   46.1920 C   0  0  0  0  0  0  0  0  0  0  0  0
   60.2960   32.9720   46.3620 C   0  0  0  0  0  0  0  0  0  0  0  0
   62.6041   32.5452   48.4088 H   0  0  0  0  0  0  0  0  0  0  0  0
   63.3261   31.8180   46.9335 H   0  0  0  0  0  0  0  0  0  0  0  0
   62.8305   33.5446   46.9335 H   0  0  0  0  0  0  0  0  0  0  0  0
   61.2541   30.0121   47.2193 H   0  0  0  0  0  0  0  0  0  0  0  0
   59.9610   28.3796   47.1037 H   0  0  0  0  0  0  0  0  0  0  0  0
   58.4836   26.3941   46.8560 H   0  0  0  0  0  0  0  0  0  0  0  0
   56.9403   30.8678   45.2623 H   0  0  0  0  0  0  0  0  0  0  0  0
   57.0908   32.3103   45.3897 H   0  0  0  0  0  0  0  0  0  0  0  0
   56.1490   35.2090   45.5760 H   0  0  0  0  0  0  0  0  0  0  0  0
   59.2302   36.1009   45.5512 H   0  0  0  0  0  0  0  0  0  0  0  0
   61.2701   34.9184   46.4315 H   0  0  0  0  0  0  0  0  0  0  0  0
  1  2  1  0
  2  3  1  0
  3  4  2  0
  4  5  1  0
  5  6  2  0
  6  7  1  0
  7  8  2  0
  8  9  1  0
  9 10  2  0
  9 11  1  0
  8 12  1  0
 12 13  1  0
 12 14  2  0
  4 15  1  0
 15 16  2  0
 16 17  1  0
 17 18  1  0
 17 19  2  0
 19 20  1  0
 20 21  2  0
 21  2  1  0
 14  5  1  0
 21 15  1  0
  1 22  1  0
  1 23  1  0
  1 24  1  0
  3 25  1  0
  6 26  1  0
  7 27  1  0
 14 28  1  0
 16 29  1  0
 18 30  1  0
 19 31  1  0
 20 32  1  0
M  CHG  2  11  -1  13  -1
M  END
>  <UniqueID>  (4) 
4

>  <SMILES>  (4) 
Cn1cc(-c2ccc(C(=O)[O-])c([O-])c2)c2cc(O)ccc21

>  <Energy>  (4) 
74.33201726270966

>  <Genealogy>  (4) 
Cn1cc(-c2ccc(C(=O)[O-])c([O-])c2)c2cc(O)ccc21 (protonated)
Cn1cc(-c2ccc(C(=O)[O-])c([O-])c2)c2cc(O)ccc21 (3D coordinates assigned)
Cn1cc(-c2ccc(C(=O)[O-])c([O-])c2)c2cc(O)ccc21 (optimized conformer: 74.33201726270966 kcal/mol)

>  <smiles>  (4) 
Cn1cc(-c2ccc(C(=O)O)c(O)c2)c2cc(O)ccc21

>  <score_type>  (4) 
oracle

>  <origin>  (4) 
adg

>  <m_score__min__energy>  (4) 
-13.039999999999999

>  <m_primary>  (4) 
energy

$$$$
4:0
     RDKit          3D

 55 58  0  0  0  0  0  0  0  0999 V2000
   56.3200   22.3430   48.6010 C   0  0  0  0  0  0  0  0  0  0  0  0
   57.3790   22.4690   47.6570 O   0  0  0  0  0  0  0  0  0  0  0  0
   57.2020   22.6990   46.2840 C   0  0  0  0  0  0  0  0  0  0  0  0
   57.0240   21.6380   45.3720 C   0  0  0  0  0  0  0  0  0  0  0  0
   56.8510   21.8950   44.0110 C   0  0  0  0  0  0  0  0  0  0  0  0
   56.8510   23.2080   43.5410 C   0  0  0  0  0  0  0  0  0  0  0  0
   57.0260   24.2690   44.4310 C   0  0  0  0  0  0  0  0  0  0  0  0
   57.2040   24.0270   45.8040 C   0  0  0  0  0  0  0  0  0  0  0  0
   57.3360   25.1980   46.7520 C   0  0  0  0  0  0  0  0  0  0  0  0
   57.8140   26.3920   46.0320 N   0  0  0  0  0  0  0  0  0  0  0  0
   56.9170   27.3920   45.7620 C   0  0  0  0  0  0  0  0  0  0  0  0
   57.3230   28.5780   45.1340 C   0  0  0  0  0  0  0  0  0  0  0  0
   56.3440   29.6580   44.8690 C   0  0  0  0  0  0  0  0  0  0  0  0
   55.1500   29.3570   44.6040 O   0  0  0  0  0  0  0  0  0  0  0  0
   56.7240   31.0400   44.8600 N   0  0  0  0  0  0  0  0  0  0  0  0
   57.8500   31.6120   45.5440 C   0  0  0  0  0  0  0  0  0  0  0  0
   58.3460   31.0600   46.7370 C   0  0  0  0  0  0  0  0  0  0  0  0
   59.4370   31.6480   47.3830 C   0  0  0  0  0  0  0  0  0  0  0  0
   60.0390   32.8040   46.8580 C   0  0  0  0  0  0  0  0  0  0  0  0
   61.1600   33.4070   47.5330 N   0  0  0  0  0  0  0  0  0  0  0  0
   62.4490   33.5270   46.8460 C   0  0  0  0  0  0  0  0  0  0  0  0
   63.5830   33.5240   47.8770 C   0  0  0  0  0  0  0  0  0  0  0  0
   63.3570   34.5020   48.8740 O   0  0  0  0  0  0  0  0  0  0  0  0
   62.1990   34.1690   49.6180 C   0  0  0  0  0  0  0  0  0  0  0  0
   60.9490   34.2220   48.7330 C   0  0  0  0  0  0  0  0  0  0  0  0
   59.5190   33.3690   45.6820 C   0  0  0  0  0  0  0  0  0  0  0  0
   58.4300   32.7790   45.0340 C   0  0  0  0  0  0  0  0  0  0  0  0
   58.6640   28.7120   44.7550 C   0  0  0  0  0  0  0  0  0  0  0  0
   59.5660   27.6870   45.0180 C   0  0  0  0  0  0  0  0  0  0  0  0
   59.1300   26.5260   45.6620 C   0  0  0  0  0  0  0  0  0  0  0  0
   59.9640   25.6080   45.8860 O   0  0  0  0  0  0  0  0  0  0  0  0
   56.7299   22.3918   49.6206 H   0  0  0  0  0  0  0  0  0  0  0  0
   55.6000   23.1618   48.4557 H   0  0  0  0  0  0  0  0  0  0  0  0
   55.8122   21.3781   48.4557 H   0  0  0  0  0  0  0  0  0  0  0  0
   57.0215   20.6000   45.7361 H   0  0  0  0  0  0  0  0  0  0  0  0
   56.7144   21.0602   43.3078 H   0  0  0  0  0  0  0  0  0  0  0  0
   56.7130   23.4077   42.4681 H   0  0  0  0  0  0  0  0  0  0  0  0
   57.0246   25.3027   44.0548 H   0  0  0  0  0  0  0  0  0  0  0  0
   56.3548   25.4138   47.2000 H   0  0  0  0  0  0  0  0  0  0  0  0
   58.0623   24.9408   47.5371 H   0  0  0  0  0  0  0  0  0  0  0  0
   55.8613   27.2622   46.0425 H   0  0  0  0  0  0  0  0  0  0  0  0
   57.8744   30.1626   47.1638 H   0  0  0  0  0  0  0  0  0  0  0  0
   59.8275   31.2023   48.3098 H   0  0  0  0  0  0  0  0  0  0  0  0
   62.5775   32.6785   46.1579 H   0  0  0  0  0  0  0  0  0  0  0  0
   62.4741   34.4686   46.2780 H   0  0  0  0  0  0  0  0  0  0  0  0
   63.6379   32.5325   48.3501 H   0  0  0  0  0  0  0  0  0  0  0  0
   64.5277   33.7554   47.3633 H   0  0  0  0  0  0  0  0  0  0  0  0
   62.3109   33.1526   50.0234 H   0  0  0  0  0  0  0  0  0  0  0  0
   62.0836   34.8967   50.4347 H   0  0  0  0  0  0  0  0  0  0  0  0
   60.0869   33.8315   49.2936 H   0  0  0  0  0  0  0  0  0  0  0  0
   60.7552   35.2636   48.4372 H   0  0  0  0  0  0  0  0  0  0  0  0
   59.9718   34.2820   45.2681 H   0  0  0  0  0  0  0  0  0  0  0  0
   58.0265   33.2347   44.1177 H   0  0  0  0  0  0  0  0  0  0  0  0
   59.0040   29.6278   44.2493 H   0  0  0  0  0  0  0  0  0  0  0  0
   60.6199   27.7897   44.7200 H   0  0  0  0  0  0  0  0  0  0  0  0
  1  2  1  0
  2  3  1  0
  3  4  2  0
  4  5  1  0
  5  6  2  0
  6  7  1  0
  7  8  2  0
  8  9  1  0
  9 10  1  0
 10 11  1  0
 11 12  2  0
 12 13  1  0
 13 14  2  0
 13 15  1  0
 15 16  1  0
 16 17  2  0
 17 18  1  0
 18 19  2  0
 19 20  1  0
 20 21  1  0
 21 22  1  0
 22 23  1  0
 23 24  1  0
 24 25  1  0
 19 26  1  0
 26 27  2  0
 12 28  1  0
 28 29  2  0
 29 30  1  0
 30 31  2  0
  8  3  1  0
 30 10  1  0
 27 16  1  0
 25 20  1  0
  1 32  1  0
  1 33  1  0
  1 34  1  0
  4 35  1  0
  5 36  1  0
  6 37  1  0
  7 38  1  0
  9 39  1  0
  9 40  1  0
 11 41  1  0
 17 42  1  0
 18 43  1  0
 21 44  1  0
 21 45  1  0
 22 46  1  0
 22 47  1  0
 24 48  1  0
 24 49  1  0
 25 50  1  0
 25 51  1  0
 26 52  1  0
 27 53  1  0
 28 54  1  0
 29 55  1  0
M  CHG  1  15  -1
M  END
>  <UniqueID>  (5) 
5

>  <SMILES>  (5) 
COc1ccccc1Cn1cc(C(=O)[N-]c2ccc(N3CCOCC3)cc2)ccc1=O

>  <Energy>  (5) 
72.12031015195122

>  <Genealogy>  (5) 
COc1ccccc1Cn1cc(C(=O)[N-]c2ccc(N3CCOCC3)cc2)ccc1=O (protonated)
COc1ccccc1Cn1cc(C(=O)[N-]c2ccc(N3CCOCC3)cc2)ccc1=O (3D coordinates assigned)
COc1ccccc1Cn1cc(C(=O)[N-]c2ccc(N3CCOCC3)cc2)ccc1=O (nonaromatic ring conformer: 72.12031015195122 kcal/mol)

>  <smiles>  (5) 
COc1ccccc1Cn1cc(C(=O)Nc2ccc(N3CCOCC3)cc2)ccc1=O

>  <score_type>  (5) 
oracle

>  <origin>  (5) 
adg

>  <m_score__min__energy>  (5) 
-10.57

>  <m_primary>  (5) 
energy

$$$$
5:0
     RDKit          3D

 43 44  0  0  0  0  0  0  0  0999 V2000
   63.3730   31.9880   48.2990 C   0  0  0  0  0  0  0  0  0  0  0  0
   62.4170   31.7040   47.1400 C   0  0  0  0  0  0  0  0  0  0  0  0
   61.3410   30.6590   47.4920 C   0  0  0  0  0  0  0  0  0  0  0  0
   60.4570   30.2230   46.3110 C   0  0  0  0  0  0  0  0  0  0  0  0
   60.2160   28.7050   46.2800 C   0  0  0  0  0  0  0  0  0  0  0  0
   59.4690   28.2560   45.0160 C   0  0  0  0  0  0  0  0  0  0  0  0
   57.6530   28.4570   45.1470 S   0  0  0  0  0  0  0  0  0  0  0  0
   57.6440   30.1820   44.6600 C   0  0  0  0  0  0  0  0  0  0  0  0
   57.4100   31.1400   45.5950 N   0  0  0  0  0  0  0  0  0  0  0  0
   57.4200   32.4590   45.2710 C   0  0  0  0  0  0  0  0  0  0  0  0
   57.1610   33.4890   46.3330 C   0  0  0  0  0  0  0  0  0  0  0  0
   58.2950   33.5230   47.3280 C   0  0  0  0  0  0  0  0  0  0  0  0
   58.2210   32.7210   48.4810 C   0  0  0  0  0  0  0  0  0  0  0  0
   59.2670   32.7090   49.4070 C   0  0  0  0  0  0  0  0  0  0  0  0
   60.4010   33.4930   49.1900 C   0  0  0  0  0  0  0  0  0  0  0  0
   60.4930   34.2870   48.0460 C   0  0  0  0  0  0  0  0  0  0  0  0
   59.4510   34.3050   47.1100 C   0  0  0  0  0  0  0  0  0  0  0  0
   59.6330   35.3190   45.6830 Cl  0  0  0  0  0  0  0  0  0  0  0  0
   57.6650   32.8410   43.9460 C   0  0  0  0  0  0  0  0  0  0  0  0
   57.8930   31.8440   42.9960 C   0  0  0  0  0  0  0  0  0  0  0  0
   58.1160   32.1600   41.7970 O   0  0  0  0  0  0  0  0  0  0  0  0
   57.8780   30.5350   43.3660 N   0  0  0  0  0  0  0  0  0  0  0  0
   62.8487   31.8322   49.2534 H   0  0  0  0  0  0  0  0  0  0  0  0
   64.2348   31.3071   48.2387 H   0  0  0  0  0  0  0  0  0  0  0  0
   63.7233   33.0290   48.2387 H   0  0  0  0  0  0  0  0  0  0  0  0
   61.9163   32.6426   46.8601 H   0  0  0  0  0  0  0  0  0  0  0  0
   63.0148   31.2958   46.3117 H   0  0  0  0  0  0  0  0  0  0  0  0
   61.8471   29.7666   47.8888 H   0  0  0  0  0  0  0  0  0  0  0  0
   60.6708   31.1371   48.2215 H   0  0  0  0  0  0  0  0  0  0  0  0
   59.4853   30.7321   46.3918 H   0  0  0  0  0  0  0  0  0  0  0  0
   60.9826   30.4953   45.3839 H   0  0  0  0  0  0  0  0  0  0  0  0
   61.1885   28.1922   46.3164 H   0  0  0  0  0  0  0  0  0  0  0  0
   59.5913   28.4471   47.1479 H   0  0  0  0  0  0  0  0  0  0  0  0
   59.8274   28.8550   44.1659 H   0  0  0  0  0  0  0  0  0  0  0  0
   59.6718   27.1837   44.8779 H   0  0  0  0  0  0  0  0  0  0  0  0
   57.0642   34.4780   45.8614 H   0  0  0  0  0  0  0  0  0  0  0  0
   56.2328   33.2271   46.8621 H   0  0  0  0  0  0  0  0  0  0  0  0
   57.3316   32.0976   48.6552 H   0  0  0  0  0  0  0  0  0  0  0  0
   59.1967   32.0813   50.3076 H   0  0  0  0  0  0  0  0  0  0  0  0
   61.2228   33.4851   49.9211 H   0  0  0  0  0  0  0  0  0  0  0  0
   61.3892   34.9024   47.8783 H   0  0  0  0  0  0  0  0  0  0  0  0
   57.6775   33.9032   43.6603 H   0  0  0  0  0  0  0  0  0  0  0  0
   58.0520   29.7910   42.6520 H   0  0  0  0  0  0  0  0  0  0  0  0
  1  2  1  0
  2  3  1  0
  3  4  1  0
  4  5  1  0
  5  6  1  0
  6  7  1  0
  7  8  1  0
  8  9  2  0
  9 10  1  0
 10 11  1  0
 11 12  1  0
 12 13  2  0
 13 14  1  0
 14 15  2  0
 15 16  1  0
 16 17  2  0
 17 18  1  0
 10 19  2  0
 19 20  1  0
 20 21  2  0
 20 22  1  0
 22  8  1  0
 17 12  1  0
  1 23  1  0
  1 24  1  0
  1 25  1  0
  2 26  1  0
  2 27  1  0
  3 28  1  0
  3 29  1  0
  4 30  1  0
  4 31  1  0
  5 32  1  0
  5 33  1  0
  6 34  1  0
  6 35  1  0
 11 36  1  0
 11 37  1  0
 13 38  1  0
 14 39  1  0
 15 40  1  0
 16 41  1  0
 19 42  1  0
 22 43  1  0
M  END
>  <UniqueID>  (6) 
6

>  <SMILES>  (6) 
CCCCCCSc1nc(Cc2ccccc2Cl)cc(=O)[nH]1

>  <Energy>  (6) 
29.121440141430536

>  <Genealogy>  (6) 
CCCCCCSc1nc(Cc2ccccc2Cl)cc(=O)[nH]1 (3D coordinates assigned)
CCCCCCSc1nc(Cc2ccccc2Cl)cc(=O)[nH]1 (optimized conformer: 29.121440141430536 kcal/mol)

>  <smiles>  (6) 
CCCCCCSc1nc(Cc2ccccc2Cl)cc(=O)[nH]1

>  <score_type>  (6) 
oracle

>  <origin>  (6) 
adg

>  <m_score__min__energy>  (6) 
-7.5800000000000001

>  <m_primary>  (6) 
energy

$$$$
6:0
     RDKit          3D

 47 49  0  0  0  0  0  0  0  0999 V2000
   60.1588   35.3294   44.9415 H   0  0  0  0  0  0  0  0  0  0  0  0
   59.2990   34.6580   45.0830 C   0  0  0  0  0  0  0  0  0  0  0  0
   58.9140   33.8240   44.0790 N   0  0  0  0  0  0  0  0  0  0  0  0
   57.8550   32.9800   44.2170 C   0  0  0  0  0  0  0  0  0  0  0  0
   57.3930   31.9090   42.8600 S   0  0  0  0  0  0  0  0  0  0  0  0
   57.3270   30.4550   43.9070 C   0  0  0  0  0  0  0  0  0  0  0  0
   58.4840   29.9740   44.5180 C   0  0  0  0  0  0  0  0  0  0  0  0
   59.4444   30.4849   44.3552 H   0  0  0  0  0  0  0  0  0  0  0  0
   58.4250   28.8450   45.3360 C   0  0  0  0  0  0  0  0  0  0  0  0
   59.3380   28.4571   45.8115 H   0  0  0  0  0  0  0  0  0  0  0  0
   57.1850   28.2040   45.5490 C   0  0  0  0  0  0  0  0  0  0  0  0
   57.0560   27.1420   46.3000 N   0  0  0  0  0  0  0  0  0  0  0  0
   56.0800   26.0880   46.2240 C   0  0  0  0  0  0  0  0  0  0  0  0
   54.8690   26.3480   45.9880 O   0  0  0  0  0  0  0  0  0  0  0  0
   56.5250   24.7280   46.3130 N   0  0  0  0  0  0  0  0  0  0  0  0
   57.5520   24.5600   46.4050 H   0  0  0  0  0  0  0  0  0  0  0  0
   55.6410   23.5940   46.3110 C   0  0  0  0  0  0  0  0  0  0  0  0
   54.3990   23.7580   46.4640 O   0  0  0  0  0  0  0  0  0  0  0  0
   56.1810   22.2210   46.1630 C   0  0  0  0  0  0  0  0  0  0  0  0
   56.7490   21.5630   47.2760 C   0  0  0  0  0  0  0  0  0  0  0  0
   56.8070   22.2350   48.5100 O   0  0  0  0  0  0  0  0  0  0  0  0
   56.0940   21.8450   49.6800 C   0  0  0  0  0  0  0  0  0  0  0  0
   56.6578   22.1534   50.5728 H   0  0  0  0  0  0  0  0  0  0  0  0
   55.1058   22.3282   49.6853 H   0  0  0  0  0  0  0  0  0  0  0  0
   55.9679   20.7523   49.6853 H   0  0  0  0  0  0  0  0  0  0  0  0
   57.2580   20.2600   47.1240 C   0  0  0  0  0  0  0  0  0  0  0  0
   57.6977   19.7413   47.9886 H   0  0  0  0  0  0  0  0  0  0  0  0
   57.2090   19.6220   45.8860 C   0  0  0  0  0  0  0  0  0  0  0  0
   57.6172   18.6065   45.7760 H   0  0  0  0  0  0  0  0  0  0  0  0
   56.6440   20.2670   44.7860 C   0  0  0  0  0  0  0  0  0  0  0  0
   56.6096   19.7564   43.8123 H   0  0  0  0  0  0  0  0  0  0  0  0
   56.1180   21.5650   44.9120 C   0  0  0  0  0  0  0  0  0  0  0  0
   55.5110   22.2180   43.8260 O   0  0  0  0  0  0  0  0  0  0  0  0
   56.1420   23.2060   43.0160 C   0  0  0  0  0  0  0  0  0  0  0  0
   56.6217   23.9571   43.6608 H   0  0  0  0  0  0  0  0  0  0  0  0
   56.9027   22.7284   42.3809 H   0  0  0  0  0  0  0  0  0  0  0  0
   55.3888   23.6952   42.3809 H   0  0  0  0  0  0  0  0  0  0  0  0
   56.0740   28.6900   44.9190 N   0  0  0  0  0  0  0  0  0  0  0  0
   55.1530   28.2130   45.0540 H   0  0  0  0  0  0  0  0  0  0  0  0
   56.1190   29.7910   44.1210 C   0  0  0  0  0  0  0  0  0  0  0  0
   55.1993   30.1590   43.6427 H   0  0  0  0  0  0  0  0  0  0  0  0
   57.1290   32.9590   45.4120 C   0  0  0  0  0  0  0  0  0  0  0  0
   56.2680   32.2844   45.5281 H   0  0  0  0  0  0  0  0  0  0  0  0
   57.5100   33.8050   46.4570 C   0  0  0  0  0  0  0  0  0  0  0  0
   56.9523   33.7970   47.4051 H   0  0  0  0  0  0  0  0  0  0  0  0
   58.6020   34.6610   46.2930 C   0  0  0  0  0  0  0  0  0  0  0  0
   58.9098   35.3310   47.1093 H   0  0  0  0  0  0  0  0  0  0  0  0
  1  2  1  0
  2  3  2  0
  3  4  1  0
  4  5  1  0
  5  6  1  0
  6  7  1  0
  7  8  1  0
  7  9  2  0
  9 10  1  0
  9 11  1  0
 11 12  2  0
 12 13  1  0
 13 14  2  0
 13 15  1  0
 15 16  1  0
 15 17  1  0
 17 18  2  0
 17 19  1  0
 19 20  2  0
 20 21  1  0
 21 22  1  0
 22 23  1  0
 22 24  1  0
 22 25  1  0
 20 26  1  0
 26 27  1  0
 26 28  2  0
 28 29  1  0
 28 30  1  0
 30 31  1  0
 30 32  2  0
 32 33  1  0
 33 34  1  0
 34 35  1  0
 34 36  1  0
 34 37  1  0
 11 38  1  0
 38 39  1  0
 38 40  1  0
 40 41  1  0
  4 42  2  0
 42 43  1  0
 42 44  1  0
 44 45  1  0
 44 46  2  0
 46 47  1  0
 46  2  1  0
 40  6  2  0
 32 19  1  0
M  END
>  <UniqueID>  (7) 
7

>  <SMILES>  (7) 
COc1cccc(OC)c1C(=O)NC(=O)/N=c1\ccc(Sc2ccccn2)c[nH]1

>  <Energy>  (7) 
58.367955420897175

>  <Genealogy>  (7) 
COc1cccc(OC)c1C(=O)NC(=O)/N=c1\ccc(Sc2ccccn2)c[nH]1 (cis-trans isomerization)
COc1cccc(OC)c1C(=O)NC(=O)/N=c1\ccc(Sc2ccccn2)c[nH]1 (3D coordinates assigned)
COc1cccc(OC)c1C(=O)NC(=O)/N=c1\ccc(Sc2ccccn2)c[nH]1 (optimized conformer: 58.367955420897175 kcal/mol)

>  <smiles>  (7) 
COc1cccc(OC)c1C(=O)NC(=O)N=c1ccc(Sc2ccccn2)c[nH]1

>  <score_type>  (7) 
oracle

>  <origin>  (7) 
adg

>  <m_score__min__energy>  (7) 
-9.4199999999999999

>  <m_primary>  (7) 
energy

$$$$
7:0
     RDKit          3D

 60 63  0  0  0  0  0  0  0  0999 V2000
   56.4830   25.0370   46.4240 C   0  0  0  0  0  0  0  0  0  0  0  0
   55.5170   26.0880   45.9710 C   0  0  0  0  0  0  0  0  0  0  0  0
   54.2890   25.8140   45.9210 O   0  0  0  0  0  0  0  0  0  0  0  0
   55.9440   27.4110   45.6220 N   0  0  0  0  0  0  0  0  0  0  0  0
   57.5350   27.8160   45.0630 S   0  0  0  0  0  0  0  0  0  0  0  0
   57.9380   26.8490   43.9870 O   0  0  0  0  0  0  0  0  0  0  0  0
   58.5090   27.7010   46.2020 O   0  0  0  0  0  0  0  0  0  0  0  0
   57.5390   29.4430   44.3870 C   0  0  0  0  0  0  0  0  0  0  0  0
   56.9400   29.7070   43.1490 C   0  0  0  0  0  0  0  0  0  0  0  0
   56.9680   30.9990   42.6200 C   0  0  0  0  0  0  0  0  0  0  0  0
   57.5910   32.0340   43.3230 C   0  0  0  0  0  0  0  0  0  0  0  0
   58.1950   31.7860   44.5690 C   0  0  0  0  0  0  0  0  0  0  0  0
   58.8520   32.8830   45.3250 C   0  0  0  0  0  0  0  0  0  0  0  0
   58.6490   34.2230   44.9530 C   0  0  0  0  0  0  0  0  0  0  0  0
   59.2770   35.2540   45.6540 C   0  0  0  0  0  0  0  0  0  0  0  0
   60.1070   34.9620   46.7380 C   0  0  0  0  0  0  0  0  0  0  0  0
   60.3080   33.6350   47.1420 C   0  0  0  0  0  0  0  0  0  0  0  0
   61.1860   33.3610   48.2480 N   0  0  0  0  0  0  0  0  0  0  0  0
   62.6080   33.1930   48.1220 C   0  0  0  0  0  0  0  0  0  0  0  0
   63.0990   32.8340   47.0160 O   0  0  0  0  0  0  0  0  0  0  0  0
   63.4980   33.3760   49.2930 C   0  0  0  0  0  0  0  0  0  0  0  0
   63.1510   34.2790   50.3120 C   0  0  0  0  0  0  0  0  0  0  0  0
   63.9870   34.4520   51.4180 C   0  0  0  0  0  0  0  0  0  0  0  0
   65.1730   33.7240   51.5210 C   0  0  0  0  0  0  0  0  0  0  0  0
   65.5430   32.8210   50.5130 C   0  0  0  0  0  0  0  0  0  0  0  0
   66.8080   31.9960   50.6490 C   0  0  0  0  0  0  0  0  0  0  0  0
   66.6580   30.7450   51.4250 N   0  0  0  0  0  0  0  0  0  0  0  0
   67.4040   29.5930   50.9170 C   0  0  0  0  0  0  0  0  0  0  0  0
   66.7740   28.3720   51.5720 C   0  0  0  0  0  0  0  0  0  0  0  0
   65.3930   28.8230   52.0360 C   0  0  0  0  0  0  0  0  0  0  0  0
   65.2850   30.2830   51.6240 C   0  0  0  0  0  0  0  0  0  0  0  0
   64.6910   32.6390   49.4110 C   0  0  0  0  0  0  0  0  0  0  0  0
   59.6900   32.5960   46.4190 C   0  0  0  0  0  0  0  0  0  0  0  0
   58.1640   30.4790   45.0930 C   0  0  0  0  0  0  0  0  0  0  0  0
   56.5072   25.0106   47.5234 H   0  0  0  0  0  0  0  0  0  0  0  0
   56.1644   24.0564   46.0407 H   0  0  0  0  0  0  0  0  0  0  0  0
   57.4869   25.2720   46.0407 H   0  0  0  0  0  0  0  0  0  0  0  0
   56.4471   28.8960   42.5929 H   0  0  0  0  0  0  0  0  0  0  0  0
   56.4981   31.2029   41.6466 H   0  0  0  0  0  0  0  0  0  0  0  0
   57.6091   33.0489   42.8992 H   0  0  0  0  0  0  0  0  0  0  0  0
   57.9911   34.4609   44.1041 H   0  0  0  0  0  0  0  0  0  0  0  0
   59.1175   36.2995   45.3514 H   0  0  0  0  0  0  0  0  0  0  0  0
   60.6067   35.7792   47.2788 H   0  0  0  0  0  0  0  0  0  0  0  0
   60.7520   33.1740   49.1800 H   0  0  0  0  0  0  0  0  0  0  0  0
   62.2156   34.8531   50.2386 H   0  0  0  0  0  0  0  0  0  0  0  0
   63.7096   35.1638   52.2095 H   0  0  0  0  0  0  0  0  0  0  0  0
   65.8223   33.8590   52.3986 H   0  0  0  0  0  0  0  0  0  0  0  0
   67.1533   31.7316   49.6386 H   0  0  0  0  0  0  0  0  0  0  0  0
   67.5233   32.6193   51.2056 H   0  0  0  0  0  0  0  0  0  0  0  0
   67.3139   29.5303   49.8225 H   0  0  0  0  0  0  0  0  0  0  0  0
   68.4765   29.6698   51.1490 H   0  0  0  0  0  0  0  0  0  0  0  0
   66.6859   27.5496   50.8468 H   0  0  0  0  0  0  0  0  0  0  0  0
   67.3830   27.9989   52.4086 H   0  0  0  0  0  0  0  0  0  0  0  0
   64.6089   28.2262   51.5471 H   0  0  0  0  0  0  0  0  0  0  0  0
   65.2635   28.6935   53.1207 H   0  0  0  0  0  0  0  0  0  0  0  0
   64.7108   30.3758   50.6904 H   0  0  0  0  0  0  0  0  0  0  0  0
   64.7639   30.8807   52.3864 H   0  0  0  0  0  0  0  0  0  0  0  0
   64.9597   31.9116   48.6308 H   0  0  0  0  0  0  0  0  0  0  0  0
   59.8639   31.5502   46.7122 H   0  0  0  0  0  0  0  0  0  0  0  0
   58.6346   30.2700   46.0650 H   0  0  0  0  0  0  0  0  0  0  0  0
  1  2  1  0
  2  3  2  0
  2  4  1  0
  4  5  1  0
  5  6  2  0
  5  7  2  0
  5  8  1  0
  8  9  2  0
  9 10  1  0
 10 11  2  0
 11 12  1  0
 12 13  1  0
 13 14  2  0
 14 15  1  0
 15 16  2  0
 16 17  1  0
 17 18  1  0
 18 19  1  0
 19 20  2  0
 19 21  1  0
 21 22  2  0
 22 23  1  0
 23 24  2  0
 24 25  1  0
 25 26  1  0
 26 27  1  0
 27 28  1  0
 28 29  1  0
 29 30  1  0
 30 31  1  0
 25 32  2  0
 17 33  2  0
 12 34  2  0
 34  8  1  0
 33 13  1  0
 32 21  1  0
 31 27  1  0
  1 35  1  0
  1 36  1  0
  1 37  1  0
  9 38  1  0
 10 39  1  0
 11 40  1  0
 14 41  1  0
 15 42  1  0
 16 43  1  0
 18 44  1  0
 22 45  1  0
 23 46  1  0
 24 47  1  0
 26 48  1  0
 26 49  1  0
 28 50  1  0
 28 51  1  0
 29 52  1  0
 29 53  1  0
 30 54  1  0
 30 55  1  0
 31 56  1  0
 31 57  1  0
 32 58  1  0
 33 59  1  0
 34 60  1  0
M  CHG  1   4  -1
M  END
>  <UniqueID>  (8) 
8

>  <SMILES>  (8) 
CC(=O)[N-]S(=O)(=O)c1cccc(-c2cccc(NC(=O)c3cccc(CN4CCCC4)c3)c2)c1

>  <Energy>  (8) 
80.85062364900729

>  <Genealogy>  (8) 
CC(=O)[N-]S(=O)(=O)c1cccc(-c2cccc(NC(=O)c3cccc(CN4CCCC4)c3)c2)c1 (protonated)
CC(=O)[N-]S(=O)(=O)c1cccc(-c2cccc(NC(=O)c3cccc(CN4CCCC4)c3)c2)c1 (3D coordinates assigned)
CC(=O)[N-]S(=O)(=O)c1cccc(-c2cccc(NC(=O)c3cccc(CN4CCCC4)c3)c2)c1 (nonaromatic ring conformer: 80.85062364900729 kcal/mol)

>  <smiles>  (8) 
CC(=O)NS(=O)(=O)c1cccc(-c2cccc(NC(=O)c3cccc(CN4CCCC4)c3)c2)c1

>  <score_type>  (8) 
oracle

>  <origin>  (8) 
adg

>  <m_score__min__energy>  (8) 
-12.82

>  <m_primary>  (8) 
energy

$$$$
8:0
     RDKit          3D

 62 67  0  0  1  0  0  0  0  0999 V2000
   62.4830   34.1010   51.4890 O   0  0  0  0  0  0  0  0  0  0  0  0
   62.0380   33.1270   50.8050 C   0  0  0  0  0  0  0  0  0  0  0  0
   58.8190   31.0200   49.5900 N   0  0  0  0  0  0  0  0  0  0  0  0
   58.9470   32.0050   48.8380 C   0  0  0  0  0  0  0  0  0  0  0  0
   59.3560   33.1660   49.3690 N   0  0  0  0  0  0  0  0  0  0  0  0
   59.5280   34.1900   48.5230 C   0  0  0  0  0  0  0  0  0  0  0  0
   59.0480   32.1630   54.6710 C   0  0  0  0  0  0  0  0  0  0  0  0
   59.2000   30.9820   53.9560 C   0  0  0  0  0  0  0  0  0  0  0  0
   59.9100   30.9050   52.7750 C   0  0  0  0  0  0  0  0  0  0  0  0
   60.0760   29.8240   52.0780 O   0  0  0  0  0  0  0  0  0  0  0  0
   60.0440   29.2770   50.8590 C   0  0  0  0  0  0  0  0  0  0  0  0
   60.7220   28.0140   50.7760 C   0  0  0  0  0  0  0  0  0  0  0  0
   60.7730   27.3200   49.6020 C   0  0  0  0  0  0  0  0  0  0  0  0
   60.1710   27.8360   48.4990 C   0  0  0  0  0  0  0  0  0  0  0  0
   59.5380   29.0230   48.5800 C   0  0  0  0  0  0  0  0  0  0  0  0
   59.4440   29.8020   49.7650 C   0  0  0  0  0  0  0  0  0  0  0  0
   61.1450   32.1620   51.2700 N   0  0  0  0  0  0  0  0  0  0  0  0
   60.4690   32.1240   52.3500 C   0  0  0  0  0  0  0  0  0  0  0  0
   58.7020   31.8330   47.5140 N   0  0  0  0  0  0  0  0  0  0  0  0
   58.8730   32.8610   46.6430 C   0  0  0  0  0  0  0  0  0  0  0  0
   58.6180   32.6320   45.3300 C   0  0  0  0  0  0  0  0  0  0  0  0
   58.0840   31.3690   44.8210 C   0  0  0  0  0  0  0  0  0  0  0  0
   56.8480   31.2100   44.2530 C   0  0  0  0  0  0  0  0  0  0  0  0
   56.4790   29.9260   43.8630 C   0  0  0  0  0  0  0  0  0  0  0  0
   57.3240   28.8500   44.0380 C   0  0  0  0  0  0  0  0  0  0  0  0
   58.5810   29.0010   44.6120 C   0  0  0  0  0  0  0  0  0  0  0  0
   58.9420   30.2730   44.9990 C   0  0  0  0  0  0  0  0  0  0  0  0
   58.8060   33.6890   44.4150 C   0  0  0  0  0  0  0  0  0  0  0  0
   59.2440   34.9380   44.8980 C   0  0  0  0  0  0  0  0  0  0  0  0
   59.4800   35.0950   46.2680 C   0  0  0  0  0  0  0  0  0  0  0  0
   59.3010   34.0720   47.1710 C   0  0  0  0  0  0  0  0  0  0  0  0
   59.6340   33.3330   54.1810 C   0  0  0  0  0  0  0  0  0  0  0  0
   60.3190   33.2550   53.0380 N   0  0  0  0  0  0  0  0  0  0  0  0
   62.5370   33.0780   49.4280 C   0  0  0  0  0  0  0  0  0  0  0  0
   63.0360   34.1340   48.7330 C   0  0  0  0  0  0  0  0  0  0  0  0
   63.4820   33.9860   47.4150 C   0  0  0  0  0  0  0  0  0  0  0  0
   63.4330   32.7520   46.7640 C   0  0  0  0  0  0  0  0  0  0  0  0
   62.9180   31.6690   47.4830 C   0  0  0  0  0  0  0  0  0  0  0  0
   62.4850   31.8390   48.7790 C   0  0  0  0  0  0  0  0  0  0  0  0
   59.4830   33.2110   50.3900 H   0  0  0  0  0  0  0  0  0  0  0  0
   59.8623   35.1587   48.9228 H   0  0  0  0  0  0  0  0  0  0  0  0
   58.4745   32.1771   55.6096 H   0  0  0  0  0  0  0  0  0  0  0  0
   58.7334   30.0666   54.3488 H   0  0  0  0  0  0  0  0  0  0  0  0
   61.2075   27.5997   51.6719 H   0  0  0  0  0  0  0  0  0  0  0  0
   61.2957   26.3536   49.5495 H   0  0  0  0  0  0  0  0  0  0  0  0
   60.2000   27.2883   47.5455 H   0  0  0  0  0  0  0  0  0  0  0  0
   59.0626   29.4148   47.6687 H   0  0  0  0  0  0  0  0  0  0  0  0
   56.1717   32.0657   44.1103 H   0  0  0  0  0  0  0  0  0  0  0  0
   55.4917   29.7658   43.4051 H   0  0  0  0  0  0  0  0  0  0  0  0
   56.9960   27.8505   43.7163 H   0  0  0  0  0  0  0  0  0  0  0  0
   59.2566   28.1441   44.7509 H   0  0  0  0  0  0  0  0  0  0  0  0
   59.9281   30.4336   45.4593 H   0  0  0  0  0  0  0  0  0  0  0  0
   58.6138   33.5406   43.3421 H   0  0  0  0  0  0  0  0  0  0  0  0
   59.3985   35.7793   44.2064 H   0  0  0  0  0  0  0  0  0  0  0  0
   59.8216   36.0732   46.6374 H   0  0  0  0  0  0  0  0  0  0  0  0
   59.5341   34.2870   54.7195 H   0  0  0  0  0  0  0  0  0  0  0  0
   60.7550   34.1460   52.6820 H   0  0  0  0  0  0  0  0  0  0  0  0
   63.0902   35.1215   49.2146 H   0  0  0  0  0  0  0  0  0  0  0  0
   63.8799   34.8610   46.8802 H   0  0  0  0  0  0  0  0  0  0  0  0
   63.7850   32.6365   45.7283 H   0  0  0  0  0  0  0  0  0  0  0  0
   62.8585   30.6770   47.0113 H   0  0  0  0  0  0  0  0  0  0  0  0
   62.0844   30.9710   49.3231 H   0  0  0  0  0  0  0  0  0  0  0  0
  1  2  2  0
  2  3  1  0
  3  4  2  0
  4  5  1  0
  5  6  1  0
  6  7  2  0
  7  8  1  0
  8  9  2  0
  9 10  1  0
 10 11  1  0
 11 12  2  0
 12 13  1  0
 13 14  2  0
 14 15  1  0
 15 16  2  0
 16 17  1  0
 17 18  2  0
 18 19  1  0
 19 20  2  0
 20 21  1  0
 21 22  1  0
 22 23  2  0
 23 24  1  0
 24 25  2  0
 25 26  1  0
 26 27  2  0
 21 28  2  0
 28 29  1  0
 29 30  2  0
 30 31  1  0
 31 32  2  0
 32 33  1  0
  2 34  1  0
 34 35  2  0
 35 36  1  0
 36 37  2  0
 37 38  1  0
 38 39  2  0
  9  4  1  0
 16 11  1  0
 33 18  1  0
 39 34  1  0
 31 20  1  0
 27 22  1  0
  5 40  1  0
  6 41  1  0
  7 42  1  0
  8 43  1  0
 12 44  1  0
 13 45  1  0
 14 46  1  0
 15 47  1  0
 23 48  1  0
 24 49  1  0
 25 50  1  0
 26 51  1  0
 27 52  1  0
 28 53  1  0
 29 54  1  0
 30 55  1  0
 32 56  1  0
 33 57  1  0
 35 58  1  0
 36 59  1  0
 37 60  1  0
 38 61  1  0
 39 62  1  0
M  END
>  <smiles>  (9) 
O=C(N=c1[nH]cccc1Oc1ccccc1N=c1nc2c(-c3ccccc3)cccc2c[nH]1)c1ccccc1

>  <score_type>  (9) 
oracle

>  <origin>  (9) 
adg

>  <m_score__min__energy>  (9) 
-10.48

>  <m_primary>  (9) 
energy

$$$$
9:0
     RDKit          3D

 56 58  0  0  0  0  0  0  0  0999 V2000
   56.3960   25.2530   47.1500 O   0  0  0  0  0  0  0  0  0  0  0  0
   56.0490   25.7820   46.0620 C   0  0  0  0  0  0  0  0  0  0  0  0
   54.7880   26.3560   45.9470 O   0  0  0  0  0  0  0  0  0  0  0  0
   57.0100   25.8440   44.9160 C   0  0  0  0  0  0  0  0  0  0  0  0
   58.3580   25.8050   45.3850 O   0  0  0  0  0  0  0  0  0  0  0  0
   59.1330   26.9230   45.7380 C   0  0  0  0  0  0  0  0  0  0  0  0
   59.5230   27.8930   44.7920 C   0  0  0  0  0  0  0  0  0  0  0  0
   60.2900   28.9930   45.1820 C   0  0  0  0  0  0  0  0  0  0  0  0
   60.6740   29.1430   46.5120 C   0  0  0  0  0  0  0  0  0  0  0  0
   60.2710   28.2070   47.4730 C   0  0  0  0  0  0  0  0  0  0  0  0
   60.6890   28.4000   48.8720 C   0  0  0  0  0  0  0  0  0  0  0  0
   60.0170   29.1250   49.7770 C   0  0  0  0  0  0  0  0  0  0  0  0
   59.0280   30.5510   49.4340 S   0  0  0  0  0  0  0  0  0  0  0  0
   57.9190   30.6200   50.4450 O   0  0  0  0  0  0  0  0  0  0  0  0
   58.4490   30.5110   48.0490 O   0  0  0  0  0  0  0  0  0  0  0  0
   60.0390   31.9510   49.5630 N   0  0  0  0  0  0  0  0  0  0  0  0
   61.0470   32.3360   48.6160 C   0  0  0  0  0  0  0  0  0  0  0  0
   62.3040   31.7040   48.5770 C   0  0  0  0  0  0  0  0  0  0  0  0
   63.2660   32.1010   47.6460 C   0  0  0  0  0  0  0  0  0  0  0  0
   62.9910   33.1400   46.7560 C   0  0  0  0  0  0  0  0  0  0  0  0
   61.7510   33.7810   46.7900 C   0  0  0  0  0  0  0  0  0  0  0  0
   60.7630   33.3710   47.7050 C   0  0  0  0  0  0  0  0  0  0  0  0
   59.4940   34.0370   47.7980 N   0  0  0  0  0  0  0  0  0  0  0  0
   58.2700   33.6910   47.1390 C   0  0  0  0  0  0  0  0  0  0  0  0
   57.3420   33.1010   47.7550 O   0  0  0  0  0  0  0  0  0  0  0  0
   58.0520   34.1550   45.7310 C   0  0  0  0  0  0  0  0  0  0  0  0
   58.8470   33.3120   44.7240 C   0  0  0  0  0  0  0  0  0  0  0  0
   58.0840   32.0880   44.2830 C   0  0  0  0  0  0  0  0  0  0  0  0
   57.6750   31.9500   42.9450 C   0  0  0  0  0  0  0  0  0  0  0  0
   56.9350   30.8320   42.5480 C   0  0  0  0  0  0  0  0  0  0  0  0
   56.5880   29.8520   43.4840 C   0  0  0  0  0  0  0  0  0  0  0  0
   56.9770   29.9910   44.8180 C   0  0  0  0  0  0  0  0  0  0  0  0
   57.7220   31.1040   45.2190 C   0  0  0  0  0  0  0  0  0  0  0  0
   59.5260   27.0770   47.0830 C   0  0  0  0  0  0  0  0  0  0  0  0
   59.1740   26.1230   48.0390 O   0  0  0  0  0  0  0  0  0  0  0  0
   56.8342   24.9859   44.2506 H   0  0  0  0  0  0  0  0  0  0  0  0
   56.8518   26.7872   44.3725 H   0  0  0  0  0  0  0  0  0  0  0  0
   59.2212   27.7826   43.7400 H   0  0  0  0  0  0  0  0  0  0  0  0
   60.5917   29.7432   44.4362 H   0  0  0  0  0  0  0  0  0  0  0  0
   61.2963   30.0000   46.8092 H   0  0  0  0  0  0  0  0  0  0  0  0
   61.6204   27.9138   49.1978 H   0  0  0  0  0  0  0  0  0  0  0  0
   60.0867   28.8047   50.8270 H   0  0  0  0  0  0  0  0  0  0  0  0
   62.5299   30.8924   49.2842 H   0  0  0  0  0  0  0  0  0  0  0  0
   64.2417   31.5941   47.6141 H   0  0  0  0  0  0  0  0  0  0  0  0
   63.7521   33.4545   46.0267 H   0  0  0  0  0  0  0  0  0  0  0  0
   61.5451   34.6109   46.0980 H   0  0  0  0  0  0  0  0  0  0  0  0
   56.9809   34.0783   45.4925 H   0  0  0  0  0  0  0  0  0  0  0  0
   58.3999   35.1958   45.6560 H   0  0  0  0  0  0  0  0  0  0  0  0
   59.0685   33.9294   43.8410 H   0  0  0  0  0  0  0  0  0  0  0  0
   59.7710   32.9762   45.2174 H   0  0  0  0  0  0  0  0  0  0  0  0
   57.9378   32.7236   42.2085 H   0  0  0  0  0  0  0  0  0  0  0  0
   56.6253   30.7229   41.4982 H   0  0  0  0  0  0  0  0  0  0  0  0
   56.0085   28.9716   43.1691 H   0  0  0  0  0  0  0  0  0  0  0  0
   56.6968   29.2235   45.5545 H   0  0  0  0  0  0  0  0  0  0  0  0
   58.0259   31.2100   46.2709 H   0  0  0  0  0  0  0  0  0  0  0  0
   58.4100   25.4730   47.9010 H   0  0  0  0  0  0  0  0  0  0  0  0
  1  2  2  0
  2  3  1  0
  2  4  1  0
  4  5  1  0
  5  6  1  0
  6  7  2  0
  7  8  1  0
  8  9  2  0
  9 10  1  0
 10 11  1  0
 11 12  2  3
 12 13  1  0
 13 14  2  0
 13 15  2  0
 13 16  1  0
 16 17  1  0
 17 18  2  0
 18 19  1  0
 19 20  2  0
 20 21  1  0
 21 22  2  0
 22 23  1  0
 23 24  1  0
 24 25  2  0
 24 26  1  0
 26 27  1  0
 27 28  1  0
 28 29  2  0
 29 30  1  0
 30 31  2  0
 31 32  1  0
 32 33  2  0
 10 34  2  0
 34 35  1  0
 34  6  1  0
 22 17  1  0
 33 28  1  0
  4 36  1  0
  4 37  1  0
  7 38  1  0
  8 39  1  0
  9 40  1  0
 11 41  1  0
 12 42  1  0
 18 43  1  0
 19 44  1  0
 20 45  1  0
 21 46  1  0
 26 47  1  0
 26 48  1  0
 27 49  1  0
 27 50  1  0
 29 51  1  0
 30 52  1  0
 31 53  1  0
 32 54  1  0
 33 55  1  0
 35 56  1  0
M  CHG  3   3  -1  16  -1  23  -1
M  END
>  <UniqueID>  (10) 
9

>  <SMILES>  (10) 
O=C([O-])COc1cccc(C=CS(=O)(=O)[N-]c2ccccc2[N-]C(=O)CCc2ccccc2)c1O

>  <Energy>  (10) 
69.17677169455446

>  <Genealogy>  (10) 
O=C([O-])COc1cccc(C=CS(=O)(=O)[N-]c2ccccc2[N-]C(=O)CCc2ccccc2)c1O (protonated)
O=C([O-])COc1cccc(C=CS(=O)(=O)[N-]c2ccccc2[N-]C(=O)CCc2ccccc2)c1O (3D coordinates assigned)
O=C([O-])COc1cccc(C=CS(=O)(=O)[N-]c2ccccc2[N-]C(=O)CCc2ccccc2)c1O (optimized conformer: 69.17677169455446 kcal/mol)

>  <smiles>  (10) 
O=C(O)COc1cccc(C=CS(=O)(=O)Nc2ccccc2NC(=O)CCc2ccccc2)c1O

>  <score_type>  (10) 
oracle

>  <origin>  (10) 
adg

>  <m_score__min__energy>  (10) 
-15.02

>  <m_primary>  (10) 
energy

$$$$
10:0
     RDKit          3D

 58 60  0  0  0  0  0  0  0  0999 V2000
   57.0230   24.3830   43.3510 C   0  0  0  0  0  0  0  0  0  0  0  0
   56.7550   22.8800   43.2920 C   0  0  0  0  0  0  0  0  0  0  0  0
   55.6010   22.5270   44.1490 N   0  0  0  0  0  0  0  0  0  0  0  0
   54.7270   23.6960   44.3940 C   0  0  0  0  0  0  0  0  0  0  0  0
   53.9110   23.4880   45.6660 C   0  0  0  0  0  0  0  0  0  0  0  0
   56.0320   21.8820   45.4160 C   0  0  0  0  0  0  0  0  0  0  0  0
   57.5230   22.1210   45.6350 C   0  0  0  0  0  0  0  0  0  0  0  0
   57.7390   22.9080   46.8470 N   0  0  0  0  0  0  0  0  0  0  0  0
   57.0550   24.1250   47.1650 C   0  0  0  0  0  0  0  0  0  0  0  0
   56.0850   24.0820   47.9660 O   0  0  0  0  0  0  0  0  0  0  0  0
   57.4300   25.4190   46.5530 C   0  0  0  0  0  0  0  0  0  0  0  0
   58.7850   25.7520   46.3870 C   0  0  0  0  0  0  0  0  0  0  0  0
   59.1510   26.9810   45.8250 C   0  0  0  0  0  0  0  0  0  0  0  0
   58.1640   27.8910   45.4390 C   0  0  0  0  0  0  0  0  0  0  0  0
   58.5020   29.0870   44.8890 N   0  0  0  0  0  0  0  0  0  0  0  0
   57.5540   29.9900   44.5160 C   0  0  0  0  0  0  0  0  0  0  0  0
   57.9850   31.2820   43.8810 C   0  0  0  0  0  0  0  0  0  0  0  0
   58.1790   32.5500   45.1230 S   0  0  0  0  0  0  0  0  0  0  0  0
   56.8850   33.2960   45.2930 O   0  0  0  0  0  0  0  0  0  0  0  0
   59.2500   33.5140   44.6920 O   0  0  0  0  0  0  0  0  0  0  0  0
   58.6550   31.8180   46.6810 C   0  0  0  0  0  0  0  0  0  0  0  0
   59.7150   32.6430   47.3540 C   0  0  0  0  0  0  0  0  0  0  0  0
   59.3760   33.5110   48.4040 C   0  0  0  0  0  0  0  0  0  0  0  0
   60.3680   34.2530   49.0530 C   0  0  0  0  0  0  0  0  0  0  0  0
   61.7050   34.1280   48.6640 C   0  0  0  0  0  0  0  0  0  0  0  0
   62.0530   33.2600   47.6240 C   0  0  0  0  0  0  0  0  0  0  0  0
   63.7310   33.0950   47.1430 Cl  0  0  0  0  0  0  0  0  0  0  0  0
   61.0620   32.5180   46.9710 C   0  0  0  0  0  0  0  0  0  0  0  0
   56.1940   29.6670   44.6920 C   0  0  0  0  0  0  0  0  0  0  0  0
   55.2880   30.4690   44.3460 O   0  0  0  0  0  0  0  0  0  0  0  0
   55.8570   28.4710   45.2430 N   0  0  0  0  0  0  0  0  0  0  0  0
   56.8050   27.5750   45.6200 C   0  0  0  0  0  0  0  0  0  0  0  0
   56.4410   26.3490   46.1840 C   0  0  0  0  0  0  0  0  0  0  0  0
   57.0803   24.7043   44.4015 H   0  0  0  0  0  0  0  0  0  0  0  0
   57.9750   24.6058   42.8470 H   0  0  0  0  0  0  0  0  0  0  0  0
   56.2066   24.9211   42.8470 H   0  0  0  0  0  0  0  0  0  0  0  0
   56.5366   22.5914   42.2532 H   0  0  0  0  0  0  0  0  0  0  0  0
   57.6451   22.3446   43.6542 H   0  0  0  0  0  0  0  0  0  0  0  0
   55.3482   24.5970   44.5044 H   0  0  0  0  0  0  0  0  0  0  0  0
   54.0402   23.8145   43.5430 H   0  0  0  0  0  0  0  0  0  0  0  0
   54.5528   23.6516   46.5442 H   0  0  0  0  0  0  0  0  0  0  0  0
   53.0740   24.2015   45.6855 H   0  0  0  0  0  0  0  0  0  0  0  0
   53.5177   22.4609   45.6855 H   0  0  0  0  0  0  0  0  0  0  0  0
   55.4659   22.3115   46.2557 H   0  0  0  0  0  0  0  0  0  0  0  0
   55.8419   20.8002   45.3564 H   0  0  0  0  0  0  0  0  0  0  0  0
   58.0346   21.1524   45.7356 H   0  0  0  0  0  0  0  0  0  0  0  0
   57.9266   22.6734   44.7736 H   0  0  0  0  0  0  0  0  0  0  0  0
   59.5641   25.0417   46.7010 H   0  0  0  0  0  0  0  0  0  0  0  0
   60.2137   27.2295   45.6877 H   0  0  0  0  0  0  0  0  0  0  0  0
   58.9444   31.1301   43.3649 H   0  0  0  0  0  0  0  0  0  0  0  0
   57.2160   31.6008   43.1620 H   0  0  0  0  0  0  0  0  0  0  0  0
   57.7735   31.7587   47.3363 H   0  0  0  0  0  0  0  0  0  0  0  0
   59.0577   30.8122   46.4906 H   0  0  0  0  0  0  0  0  0  0  0  0
   58.3261   33.6079   48.7175 H   0  0  0  0  0  0  0  0  0  0  0  0
   60.0958   34.9362   49.8710 H   0  0  0  0  0  0  0  0  0  0  0  0
   62.4835   34.7125   49.1761 H   0  0  0  0  0  0  0  0  0  0  0  0
   61.3382   31.8342   46.1548 H   0  0  0  0  0  0  0  0  0  0  0  0
   55.3785   26.1107   46.3397 H   0  0  0  0  0  0  0  0  0  0  0  0
  1  2  1  0
  2  3  1  0
  3  4  1  0
  4  5  1  0
  3  6  1  0
  6  7  1  0
  7  8  1  0
  8  9  1  0
  9 10  2  0
  9 11  1  0
 11 12  2  0
 12 13  1  0
 13 14  2  0
 14 15  1  0
 15 16  2  0
 16 17  1  0
 17 18  1  0
 18 19  2  0
 18 20  2  0
 18 21  1  0
 21 22  1  0
 22 23  2  0
 23 24  1  0
 24 25  2  0
 25 26  1  0
 26 27  1  0
 26 28  2  0
 16 29  1  0
 29 30  2  0
 29 31  1  0
 31 32  1  0
 32 33  2  0
 33 11  1  0
 32 14  1  0
 28 22  1  0
  1 34  1  0
  1 35  1  0
  1 36  1  0
  2 37  1  0
  2 38  1  0
  4 39  1  0
  4 40  1  0
  5 41  1  0
  5 42  1  0
  5 43  1  0
  6 44  1  0
  6 45  1  0
  7 46  1  0
  7 47  1  0
 12 48  1  0
 13 49  1  0
 17 50  1  0
 17 51  1  0
 21 52  1  0
 21 53  1  0
 23 54  1  0
 24 55  1  0
 25 56  1  0
 28 57  1  0
 33 58  1  0
M  CHG  2   8  -1  31  -1
M  END
>  <UniqueID>  (11) 
10

>  <SMILES>  (11) 
CCN(CC)CC[N-]C(=O)c1ccc2nc(CS(=O)(=O)Cc3cccc(Cl)c3)c(=O)[n-]c2c1

>  <Energy>  (11) 
56.73812451827337

>  <Genealogy>  (11) 
CCN(CC)CC[N-]C(=O)c1ccc2nc(CS(=O)(=O)Cc3cccc(Cl)c3)c(=O)[n-]c2c1 (protonated)
CCN(CC)CC[N-]C(=O)c1ccc2nc(CS(=O)(=O)Cc3cccc(Cl)c3)c(=O)[n-]c2c1 (3D coordinates assigned)
CCN(CC)CC[N-]C(=O)c1ccc2nc(CS(=O)(=O)Cc3cccc(Cl)c3)c(=O)[n-]c2c1 (optimized conformer: 56.73812451827337 kcal/mol)

>  <smiles>  (11) 
CCN(CC)CCNC(=O)c1ccc2nc(CS(=O)(=O)Cc3cccc(Cl)c3)c(=O)[nH]c2c1

>  <score_type>  (11) 
oracle

>  <origin>  (11) 
adg

>  <m_score__min__energy>  (11) 
-14.07

>  <m_primary>  (11) 
energy

$$$$
11:0
     RDKit          3D

 46 48  0  0  0  0  0  0  0  0999 V2000
   59.3190   27.6950   45.3950 O   0  0  0  0  0  0  0  0  0  0  0  0
   58.3200   27.3030   44.7350 C   0  0  0  0  0  0  0  0  0  0  0  0
   57.7220   28.2350   43.8180 N   0  0  0  0  0  0  0  0  0  0  0  0
   56.6160   29.5280   44.1710 S   0  0  0  0  0  0  0  0  0  0  0  0
   55.8770   29.8940   42.9140 O   0  0  0  0  0  0  0  0  0  0  0  0
   55.6220   29.0540   45.1950 O   0  0  0  0  0  0  0  0  0  0  0  0
   57.4710   30.9570   44.7520 C   0  0  0  0  0  0  0  0  0  0  0  0
   57.4560   32.1440   44.0050 C   0  0  0  0  0  0  0  0  0  0  0  0
   58.0900   33.2900   44.4910 C   0  0  0  0  0  0  0  0  0  0  0  0
   58.7520   33.2550   45.7230 C   0  0  0  0  0  0  0  0  0  0  0  0
   59.5310   34.6970   46.3440 Cl  0  0  0  0  0  0  0  0  0  0  0  0
   58.7930   32.0660   46.4600 C   0  0  0  0  0  0  0  0  0  0  0  0
   58.1570   30.9190   45.9730 C   0  0  0  0  0  0  0  0  0  0  0  0
   57.8160   25.9190   44.9460 C   0  0  0  0  0  0  0  0  0  0  0  0
   57.0930   25.2150   43.8110 C   0  0  0  0  0  0  0  0  0  0  0  0
   57.3930   23.7360   43.7640 C   0  0  0  0  0  0  0  0  0  0  0  0
   56.5690   22.8550   43.0490 C   0  0  0  0  0  0  0  0  0  0  0  0
   56.8510   21.4860   43.0550 C   0  0  0  0  0  0  0  0  0  0  0  0
   57.9110   21.0070   43.7630 N   0  0  0  0  0  0  0  0  0  0  0  0
   58.7050   21.8320   44.4920 C   0  0  0  0  0  0  0  0  0  0  0  0
   58.4550   23.2070   44.5150 C   0  0  0  0  0  0  0  0  0  0  0  0
   57.9470   25.3780   46.1270 N   0  0  0  0  0  0  0  0  0  0  0  0
   56.9480   24.8060   46.9880 C   0  0  0  0  0  0  0  0  0  0  0  0
   57.0450   24.8910   48.2400 O   0  0  0  0  0  0  0  0  0  0  0  0
   55.7310   24.2220   46.3920 C   0  0  0  0  0  0  0  0  0  0  0  0
   55.6130   22.8270   46.2750 C   0  0  0  0  0  0  0  0  0  0  0  0
   54.4460   22.2580   45.7530 C   0  0  0  0  0  0  0  0  0  0  0  0
   53.3970   23.0750   45.3280 C   0  0  0  0  0  0  0  0  0  0  0  0
   53.5110   24.4640   45.4190 C   0  0  0  0  0  0  0  0  0  0  0  0
   54.6720   25.0410   45.9470 C   0  0  0  0  0  0  0  0  0  0  0  0
   54.7710   26.4260   45.9980 O   0  0  0  0  0  0  0  0  0  0  0  0
   56.9429   32.1727   43.0324 H   0  0  0  0  0  0  0  0  0  0  0  0
   58.0687   34.2205   43.9047 H   0  0  0  0  0  0  0  0  0  0  0  0
   59.3252   32.0333   47.4221 H   0  0  0  0  0  0  0  0  0  0  0  0
   58.1957   29.9838   46.5509 H   0  0  0  0  0  0  0  0  0  0  0  0
   56.0097   25.3512   43.9445 H   0  0  0  0  0  0  0  0  0  0  0  0
   57.4427   25.6573   42.8665 H   0  0  0  0  0  0  0  0  0  0  0  0
   55.7053   23.2392   42.4864 H   0  0  0  0  0  0  0  0  0  0  0  0
   56.2142   20.7929   42.4856 H   0  0  0  0  0  0  0  0  0  0  0  0
   58.1120   19.9800   43.7590 H   0  0  0  0  0  0  0  0  0  0  0  0
   59.5470   21.4176   45.0659 H   0  0  0  0  0  0  0  0  0  0  0  0
   59.0884   23.8728   45.1197 H   0  0  0  0  0  0  0  0  0  0  0  0
   56.4420   22.1788   46.5953 H   0  0  0  0  0  0  0  0  0  0  0  0
   54.3551   21.1644   45.6774 H   0  0  0  0  0  0  0  0  0  0  0  0
   52.4797   22.6244   44.9210 H   0  0  0  0  0  0  0  0  0  0  0  0
   52.6867   25.1060   45.0750 H   0  0  0  0  0  0  0  0  0  0  0  0
  1  2  2  0
  2  3  1  0
  3  4  1  0
  4  5  2  0
  4  6  2  0
  4  7  1  0
  7  8  2  0
  8  9  1  0
  9 10  2  0
 10 11  1  0
 10 12  1  0
 12 13  2  0
  2 14  1  0
 14 15  1  0
 15 16  1  0
 16 17  2  0
 17 18  1  0
 18 19  2  0
 19 20  1  0
 20 21  2  0
 14 22  2  3
 22 23  1  0
 23 24  2  0
 23 25  1  0
 25 26  2  0
 26 27  1  0
 27 28  2  0
 28 29  1  0
 29 30  2  0
 30 31  1  0
 13  7  1  0
 21 16  1  0
 30 25  1  0
  8 32  1  0
  9 33  1  0
 12 34  1  0
 13 35  1  0
 15 36  1  0
 15 37  1  0
 17 38  1  0
 18 39  1  0
 19 40  1  0
 20 41  1  0
 21 42  1  0
 26 43  1  0
 27 44  1  0
 28 45  1  0
 29 46  1  0
M  CHG  3   3  -1  19   1  31  -1
M  END
>  <UniqueID>  (12) 
11

>  <SMILES>  (12) 
O=C([N-]S(=O)(=O)c1ccc(Cl)cc1)C(Cc1cc[nH+]cc1)=NC(=O)c1ccccc1[O-]

>  <Energy>  (12) 
57.46042138630131

>  <Genealogy>  (12) 
O=C([N-]S(=O)(=O)c1ccc(Cl)cc1)C(Cc1cc[nH+]cc1)=NC(=O)c1ccccc1[O-] (protonated)
O=C([N-]S(=O)(=O)c1ccc(Cl)cc1)C(Cc1cc[nH+]cc1)=NC(=O)c1ccccc1[O-] (3D coordinates assigned)
O=C([N-]S(=O)(=O)c1ccc(Cl)cc1)C(Cc1cc[nH+]cc1)=NC(=O)c1ccccc1[O-] (optimized conformer: 57.46042138630131 kcal/mol)

>  <smiles>  (12) 
O=C(NS(=O)(=O)c1ccc(Cl)cc1)C(Cc1ccncc1)=NC(=O)c1ccccc1O

>  <score_type>  (12) 
oracle

>  <origin>  (12) 
adg

>  <m_score__min__energy>  (12) 
-13.19

>  <m_primary>  (12) 
energy

$$$$
12:0
     RDKit          3D

 65 69  0  0  0  0  0  0  0  0999 V2000
   60.2860   26.1870   47.5890 O   0  0  0  0  0  0  0  0  0  0  0  0
   59.5250   27.1800   47.7440 C   0  0  0  0  0  0  0  0  0  0  0  0
   58.4560   27.4150   46.8170 N   0  0  0  0  0  0  0  0  0  0  0  0
   58.3100   28.6110   46.0430 C   0  0  0  0  0  0  0  0  0  0  0  0
   57.1890   28.8210   45.2210 C   0  0  0  0  0  0  0  0  0  0  0  0
   57.0480   30.0190   44.5150 C   0  0  0  0  0  0  0  0  0  0  0  0
   58.0150   31.0270   44.6390 C   0  0  0  0  0  0  0  0  0  0  0  0
   57.8210   32.3360   43.9880 C   0  0  0  0  0  0  0  0  0  0  0  0
   58.0830   32.4670   42.7630 O   0  0  0  0  0  0  0  0  0  0  0  0
   57.3700   33.4780   44.7340 N   0  0  0  0  0  0  0  0  0  0  0  0
   57.3030   33.5080   46.1950 C   0  0  0  0  0  0  0  0  0  0  0  0
   58.3220   34.5070   46.7460 C   0  0  0  0  0  0  0  0  0  0  0  0
   59.6470   33.8260   46.9860 C   0  0  0  0  0  0  0  0  0  0  0  0
   60.7710   34.2250   46.2420 C   0  0  0  0  0  0  0  0  0  0  0  0
   62.0250   33.6640   46.4950 C   0  0  0  0  0  0  0  0  0  0  0  0
   62.1720   32.6970   47.4920 C   0  0  0  0  0  0  0  0  0  0  0  0
   63.7500   31.9990   47.8120 Cl  0  0  0  0  0  0  0  0  0  0  0  0
   61.0640   32.2930   48.2410 C   0  0  0  0  0  0  0  0  0  0  0  0
   59.8040   32.8520   47.9990 C   0  0  0  0  0  0  0  0  0  0  0  0
   58.4550   32.3240   49.0030 Cl  0  0  0  0  0  0  0  0  0  0  0  0
   59.1550   30.7990   45.4250 C   0  0  0  0  0  0  0  0  0  0  0  0
   59.3070   29.5920   46.1100 C   0  0  0  0  0  0  0  0  0  0  0  0
   59.6600   28.0270   48.8940 N   0  0  0  0  0  0  0  0  0  0  0  0
   60.6670   27.8380   49.9010 C   0  0  0  0  0  0  0  0  0  0  0  0
   61.4700   28.9170   50.3380 C   0  0  0  0  0  0  0  0  0  0  0  0
   62.4700   28.7120   51.3010 C   0  0  0  0  0  0  0  0  0  0  0  0
   62.6330   27.4340   51.8310 C   0  0  0  0  0  0  0  0  0  0  0  0
   61.8200   26.4000   51.4570 C   0  0  0  0  0  0  0  0  0  0  0  0
   60.8260   26.5710   50.4940 C   0  0  0  0  0  0  0  0  0  0  0  0
   62.2070   25.1450   52.1610 C   0  0  0  0  0  0  0  0  0  0  0  0
   63.3710   25.5940   53.0740 C   0  0  0  0  0  0  0  0  0  0  0  0
   63.6050   27.0110   52.7710 N   0  0  0  0  0  0  0  0  0  0  0  0
   64.8160   27.7420   53.1470 C   0  0  0  0  0  0  0  0  0  0  0  0
   65.8670   27.6070   52.0740 C   0  0  0  0  0  0  0  0  0  0  0  0
   66.6420   28.7200   51.7010 C   0  0  0  0  0  0  0  0  0  0  0  0
   67.6520   28.5870   50.7450 C   0  0  0  0  0  0  0  0  0  0  0  0
   67.9030   27.3460   50.1550 C   0  0  0  0  0  0  0  0  0  0  0  0
   67.1310   26.2370   50.5100 C   0  0  0  0  0  0  0  0  0  0  0  0
   66.1130   26.3670   51.4600 C   0  0  0  0  0  0  0  0  0  0  0  0
   56.4199   28.0395   45.1331 H   0  0  0  0  0  0  0  0  0  0  0  0
   56.1769   30.1714   43.8609 H   0  0  0  0  0  0  0  0  0  0  0  0
   56.2922   33.8094   46.5070 H   0  0  0  0  0  0  0  0  0  0  0  0
   57.5318   32.5061   46.5872 H   0  0  0  0  0  0  0  0  0  0  0  0
   58.4594   35.3224   46.0206 H   0  0  0  0  0  0  0  0  0  0  0  0
   57.9489   34.9092   47.6994 H   0  0  0  0  0  0  0  0  0  0  0  0
   60.6622   34.9851   45.4543 H   0  0  0  0  0  0  0  0  0  0  0  0
   62.8983   33.9844   45.9079 H   0  0  0  0  0  0  0  0  0  0  0  0
   61.1827   31.5311   49.0255 H   0  0  0  0  0  0  0  0  0  0  0  0
   59.9317   31.5741   45.5017 H   0  0  0  0  0  0  0  0  0  0  0  0
   60.2142   29.4108   46.7051 H   0  0  0  0  0  0  0  0  0  0  0  0
   58.8910   28.7120   49.0880 H   0  0  0  0  0  0  0  0  0  0  0  0
   61.3099   29.9222   49.9209 H   0  0  0  0  0  0  0  0  0  0  0  0
   63.1115   29.5427   51.6303 H   0  0  0  0  0  0  0  0  0  0  0  0
   60.1779   25.7312   50.2030 H   0  0  0  0  0  0  0  0  0  0  0  0
   61.3689   24.7521   52.7554 H   0  0  0  0  0  0  0  0  0  0  0  0
   62.4879   24.3343   51.4726 H   0  0  0  0  0  0  0  0  0  0  0  0
   63.0956   25.4705   54.1318 H   0  0  0  0  0  0  0  0  0  0  0  0
   64.2744   24.9916   52.8978 H   0  0  0  0  0  0  0  0  0  0  0  0
   64.5701   28.8057   53.2815 H   0  0  0  0  0  0  0  0  0  0  0  0
   65.2085   27.3229   54.0852 H   0  0  0  0  0  0  0  0  0  0  0  0
   66.4520   29.6995   52.1641 H   0  0  0  0  0  0  0  0  0  0  0  0
   68.2517   29.4626   50.4559 H   0  0  0  0  0  0  0  0  0  0  0  0
   68.7074   27.2420   49.4119 H   0  0  0  0  0  0  0  0  0  0  0  0
   67.3241   25.2605   50.0418 H   0  0  0  0  0  0  0  0  0  0  0  0
   65.5010   25.4932   51.7283 H   0  0  0  0  0  0  0  0  0  0  0  0
  1  2  2  0
  2  3  1  0
  3  4  1  0
  4  5  2  0
  5  6  1  0
  6  7  2  0
  7  8  1  0
  8  9  2  0
  8 10  1  0
 10 11  1  0
 11 12  1  0
 12 13  1  0
 13 14  2  0
 14 15  1  0
 15 16  2  0
 16 17  1  0
 16 18  1  0
 18 19  2  0
 19 20  1  0
  7 21  1  0
 21 22  2  0
  2 23  1  0
 23 24  1  0
 24 25  2  0
 25 26  1  0
 26 27  2  0
 27 28  1  0
 28 29  2  0
 28 30  1  0
 30 31  1  0
 31 32  1  0
 32 33  1  0
 33 34  1  0
 34 35  2  0
 35 36  1  0
 36 37  2  0
 37 38  1  0
 38 39  2  0
 22  4  1  0
 29 24  1  0
 39 34  1  0
 19 13  1  0
 32 27  1  0
  5 40  1  0
  6 41  1  0
 11 42  1  0
 11 43  1  0
 12 44  1  0
 12 45  1  0
 14 46  1  0
 15 47  1  0
 18 48  1  0
 21 49  1  0
 22 50  1  0
 23 51  1  0
 25 52  1  0
 26 53  1  0
 29 54  1  0
 30 55  1  0
 30 56  1  0
 31 57  1  0
 31 58  1  0
 33 59  1  0
 33 60  1  0
 35 61  1  0
 36 62  1  0
 37 63  1  0
 38 64  1  0
 39 65  1  0
M  CHG  2   3  -1  10  -1
M  END
>  <UniqueID>  (13) 
12

>  <SMILES>  (13) 
O=C([N-]c1ccc(C(=O)[N-]CCc2ccc(Cl)cc2Cl)cc1)Nc1ccc2c(c1)CCN2Cc1ccccc1

>  <Energy>  (13) 
95.19061889344975

>  <Genealogy>  (13) 
O=C([N-]c1ccc(C(=O)[N-]CCc2ccc(Cl)cc2Cl)cc1)Nc1ccc2c(c1)CCN2Cc1ccccc1 (protonated)
O=C([N-]c1ccc(C(=O)[N-]CCc2ccc(Cl)cc2Cl)cc1)Nc1ccc2c(c1)CCN2Cc1ccccc1 (3D coordinates assigned)
O=C([N-]c1ccc(C(=O)[N-]CCc2ccc(Cl)cc2Cl)cc1)Nc1ccc2c(c1)CCN2Cc1ccccc1 (nonaromatic ring conformer: 95.19061889344975 kcal/mol)

>  <smiles>  (13) 
O=C(Nc1ccc(C(=O)NCCc2ccc(Cl)cc2Cl)cc1)Nc1ccc2c(c1)CCN2Cc1ccccc1

>  <score_type>  (13) 
oracle

>  <origin>  (13) 
adg

>  <m_score__min__energy>  (13) 
-12.68

>  <m_primary>  (13) 
energy

$$$$
13:0
     RDKit          3D

 30 32  0  0  0  0  0  0  0  0999 V2000
   54.8100   26.3340   45.9850 O   0  0  0  0  0  0  0  0  0  0  0  0
   55.8820   25.6860   45.8660 C   0  0  0  0  0  0  0  0  0  0  0  0
   57.1410   26.1800   46.4430 C   0  0  0  0  0  0  0  0  0  0  0  0
   57.8190   25.5990   47.5100 C   0  0  0  0  0  0  0  0  0  0  0  0
   58.9410   26.2980   47.7920 N   0  0  0  0  0  0  0  0  0  0  0  0
   58.9770   27.3150   46.9140 C   0  0  0  0  0  0  0  0  0  0  0  0
   59.9500   28.3050   46.8190 C   0  0  0  0  0  0  0  0  0  0  0  0
   59.8000   29.2860   45.8230 C   0  0  0  0  0  0  0  0  0  0  0  0
   58.6890   29.2580   44.9370 C   0  0  0  0  0  0  0  0  0  0  0  0
   58.5190   30.2480   43.9060 N   0  0  0  0  0  0  0  0  0  0  0  0
   57.4970   31.6410   44.0580 S   0  0  0  0  0  0  0  0  0  0  0  0
   56.1280   31.2080   44.5050 O   0  0  0  0  0  0  0  0  0  0  0  0
   57.3850   32.3240   42.7260 O   0  0  0  0  0  0  0  0  0  0  0  0
   58.1870   32.7650   45.2150 C   0  0  0  0  0  0  0  0  0  0  0  0
   58.7850   33.9760   44.9050 C   0  0  0  0  0  0  0  0  0  0  0  0
   59.2640   34.6520   46.0320 C   0  0  0  0  0  0  0  0  0  0  0  0
   59.0420   33.9710   47.2250 C   0  0  0  0  0  0  0  0  0  0  0  0
   58.2510   32.5280   46.8750 S   0  0  0  0  0  0  0  0  0  0  0  0
   57.7210   28.2400   45.0720 C   0  0  0  0  0  0  0  0  0  0  0  0
   57.8960   27.2800   46.0710 C   0  0  0  0  0  0  0  0  0  0  0  0
   55.8772   24.7313   45.3196 H   0  0  0  0  0  0  0  0  0  0  0  0
   57.4887   24.6982   48.0480 H   0  0  0  0  0  0  0  0  0  0  0  0
   59.6350   26.0870   48.5430 H   0  0  0  0  0  0  0  0  0  0  0  0
   60.8113   28.3198   47.5030 H   0  0  0  0  0  0  0  0  0  0  0  0
   60.5510   30.0842   45.7284 H   0  0  0  0  0  0  0  0  0  0  0  0
   59.0980   30.1790   43.0380 H   0  0  0  0  0  0  0  0  0  0  0  0
   58.8737   34.3650   43.8799 H   0  0  0  0  0  0  0  0  0  0  0  0
   59.7679   35.6284   45.9802 H   0  0  0  0  0  0  0  0  0  0  0  0
   59.3342   34.3175   48.2273 H   0  0  0  0  0  0  0  0  0  0  0  0
   56.8473   28.2035   44.4046 H   0  0  0  0  0  0  0  0  0  0  0  0
  1  2  2  0
  2  3  1  0
  3  4  2  0
  4  5  1  0
  5  6  1  0
  6  7  2  0
  7  8  1  0
  8  9  2  0
  9 10  1  0
 10 11  1  0
 11 12  2  0
 11 13  2  0
 11 14  1  0
 14 15  2  0
 15 16  1  0
 16 17  2  0
 17 18  1  0
  9 19  1  0
 19 20  2  0
 20  3  1  0
 20  6  1  0
 18 14  1  0
  2 21  1  0
  4 22  1  0
  5 23  1  0
  7 24  1  0
  8 25  1  0
 10 26  1  0
 15 27  1  0
 16 28  1  0
 17 29  1  0
 19 30  1  0
M  END
>  <UniqueID>  (14) 
13

>  <SMILES>  (14) 
O=Cc1c[nH]c2ccc(NS(=O)(=O)c3cccs3)cc12

>  <Energy>  (14) 
94.14998689201425

>  <Genealogy>  (14) 
O=Cc1c[nH]c2ccc(NS(=O)(=O)c3cccs3)cc12 (3D coordinates assigned)
O=Cc1c[nH]c2ccc(NS(=O)(=O)c3cccs3)cc12 (optimized conformer: 94.14998689201425 kcal/mol)

>  <smiles>  (14) 
O=Cc1c[nH]c2ccc(NS(=O)(=O)c3cccs3)cc12

>  <score_type>  (14) 
oracle

>  <origin>  (14) 
adg

>  <m_score__min__energy>  (14) 
-8.2300000000000004

>  <m_primary>  (14) 
energy

$$$$
14:0
     RDKit          3D

 51 53  0  0  0  0  0  0  0  0999 V2000
   54.4520   29.3420   45.6430 H   0  0  0  0  0  0  0  0  0  0  0  0
   55.1660   29.3170   44.8830 N   0  0  0  0  0  0  0  0  0  0  0  0
   56.5490   29.4740   45.1840 C   0  0  0  0  0  0  0  0  0  0  0  0
   57.1710   30.4820   44.7520 O   0  0  0  0  0  0  0  0  0  0  0  0
   57.2630   28.4310   45.9990 C   0  0  2  0  0  0  0  0  0  0  0  0
   57.0026   28.6278   47.0495 H   0  0  0  0  0  0  0  0  0  0  0  0
   58.7020   28.4970   45.7680 N   0  0  0  0  0  0  0  0  0  0  0  0
   59.5620   29.5800   46.1790 C   0  0  0  0  0  0  0  0  0  0  0  0
   60.6430   29.7770   45.5580 O   0  0  0  0  0  0  0  0  0  0  0  0
   59.1650   30.5280   47.2850 C   0  0  0  0  0  0  0  0  0  0  0  0
   59.8422   30.3827   48.1396 H   0  0  0  0  0  0  0  0  0  0  0  0
   58.1240   30.3107   47.5663 H   0  0  0  0  0  0  0  0  0  0  0  0
   59.2420   31.9710   46.8380 C   0  0  0  0  0  0  0  0  0  0  0  0
   58.0740   32.6000   46.3710 C   0  0  0  0  0  0  0  0  0  0  0  0
   57.1252   32.0437   46.3547 H   0  0  0  0  0  0  0  0  0  0  0  0
   58.1070   33.9230   45.9280 C   0  0  0  0  0  0  0  0  0  0  0  0
   57.1851   34.4054   45.5710 H   0  0  0  0  0  0  0  0  0  0  0  0
   59.3050   34.6340   45.9370 C   0  0  0  0  0  0  0  0  0  0  0  0
   59.3270   35.6770   45.5882 H   0  0  0  0  0  0  0  0  0  0  0  0
   60.4780   34.0250   46.3880 C   0  0  0  0  0  0  0  0  0  0  0  0
   61.4195   34.5938   46.3955 H   0  0  0  0  0  0  0  0  0  0  0  0
   60.4660   32.6900   46.8330 C   0  0  0  0  0  0  0  0  0  0  0  0
   61.7460   32.0700   47.3260 C   0  0  0  0  0  0  0  0  0  0  0  0
   61.7521   32.0670   48.4260 H   0  0  0  0  0  0  0  0  0  0  0  0
   61.8191   31.0366   46.9561 H   0  0  0  0  0  0  0  0  0  0  0  0
   62.6022   32.6533   46.9561 H   0  0  0  0  0  0  0  0  0  0  0  0
   59.2070   27.3310   45.0570 C   0  0  0  0  0  0  0  0  0  0  0  0
   59.7769   27.6394   44.1681 H   0  0  0  0  0  0  0  0  0  0  0  0
   59.8876   26.7342   45.6820 H   0  0  0  0  0  0  0  0  0  0  0  0
   57.9680   26.5360   44.6480 C   0  0  1  0  0  0  0  0  0  0  0  0
   57.7149   26.6973   43.5897 H   0  0  0  0  0  0  0  0  0  0  0  0
   58.1900   25.0930   44.7880 N   0  0  0  0  0  0  0  0  0  0  0  0
   58.8870   24.7640   45.4940 H   0  0  0  0  0  0  0  0  0  0  0  0
   57.4990   24.1160   43.9970 C   0  0  0  0  0  0  0  0  0  0  0  0
   56.6300   24.4770   43.1570 O   0  0  0  0  0  0  0  0  0  0  0  0
   57.8150   22.6840   44.1710 C   0  0  0  0  0  0  0  0  0  0  0  0
   58.0913   22.0902   43.2872 H   0  0  0  0  0  0  0  0  0  0  0  0
   57.7770   22.0830   45.3670 C   0  0  0  0  0  0  0  0  0  0  0  0
   58.5496   21.3382   45.6088 H   0  0  0  0  0  0  0  0  0  0  0  0
   56.7410   22.3800   46.3720 C   0  0  0  0  0  0  0  0  0  0  0  0
   57.0500   22.2840   47.6940 N   0  0  0  0  0  0  0  0  0  0  0  0
   56.1240   22.5560   48.6510 C   0  0  0  0  0  0  0  0  0  0  0  0
   56.3917   22.4749   49.7148 H   0  0  0  0  0  0  0  0  0  0  0  0
   54.8340   22.9380   48.2830 C   0  0  0  0  0  0  0  0  0  0  0  0
   54.0738   23.1634   49.0454 H   0  0  0  0  0  0  0  0  0  0  0  0
   54.5320   23.0270   46.9250 C   0  0  0  0  0  0  0  0  0  0  0  0
   53.5223   23.3231   46.6044 H   0  0  0  0  0  0  0  0  0  0  0  0
   55.4850   22.7480   45.9970 N   0  0  0  0  0  0  0  0  0  0  0  0
   56.8510   27.0190   45.5730 C   0  0  0  0  0  0  0  0  0  0  0  0
   55.8904   27.0427   45.0376 H   0  0  0  0  0  0  0  0  0  0  0  0
   56.7166   26.3521   46.4374 H   0  0  0  0  0  0  0  0  0  0  0  0
  1  2  1  0
  2  3  1  0
  3  4  2  0
  3  5  1  0
  5  6  1  1
  5  7  1  0
  7  8  1  0
  8  9  2  0
  8 10  1  0
 10 11  1  0
 10 12  1  0
 10 13  1  0
 13 14  2  0
 14 15  1  0
 14 16  1  0
 16 17  1  0
 16 18  2  0
 18 19  1  0
 18 20  1  0
 20 21  1  0
 20 22  2  0
 22 23  1  0
 23 24  1  0
 23 25  1  0
 23 26  1  0
  7 27  1  0
 27 28  1  0
 27 29  1  0
 27 30  1  0
 30 31  1  6
 30 32  1  0
 32 33  1  0
 32 34  1  0
 34 35  2  0
 34 36  1  0
 36 37  1  0
 36 38  2  0
 38 39  1  0
 38 40  1  0
 40 41  2  0
 41 42  1  0
 42 43  1  0
 42 44  2  0
 44 45  1  0
 44 46  1  0
 46 47  1  0
 46 48  2  0
 30 49  1  0
 49 50  1  0
 49 51  1  0
 49  5  1  0
 22 13  1  0
 48 40  1  0
M  CHG  1   2  -1
M  END
>  <UniqueID>  (15) 
14

>  <SMILES>  (15) 
Cc1ccccc1CC(=O)N1C[C@@H](NC(=O)/C=C/c2ncccn2)C[C@@H]1C([NH-])=O

>  <Energy>  (15) 
51.20577870522017

>  <Genealogy>  (15) 
Cc1ccccc1CC(=O)N1CC(NC(=O)C=Cc2ncccn2)CC1C([NH-])=O (protonated)
Cc1ccccc1CC(=O)N1C[C@@H](NC(=O)C=Cc2ncccn2)C[C@@H]1C([NH-])=O (chirality)
Cc1ccccc1CC(=O)N1C[C@@H](NC(=O)/C=C/c2ncccn2)C[C@@H]1C([NH-])=O (cis-trans isomerization)
Cc1ccccc1CC(=O)N1C[C@@H](NC(=O)/C=C/c2ncccn2)C[C@@H]1C([NH-])=O (3D coordinates assigned)
Cc1ccccc1CC(=O)N1C[C@@H](NC(=O)/C=C/c2ncccn2)C[C@@H]1C([NH-])=O (nonaromatic ring conformer: 51.20577870522017 kcal/mol)

>  <smiles>  (15) 
Cc1ccccc1CC(=O)N1CC(NC(=O)C=Cc2ncccn2)CC1C(N)=O

>  <score_type>  (15) 
oracle

>  <origin>  (15) 
adg

>  <m_score__min__energy>  (15) 
-11.18

>  <m_primary>  (15) 
energy

$$$$
15:0
     RDKit          3D

 47 49  0  0  0  0  0  0  0  0999 V2000
   56.3450   30.1600   42.7760 N   0  0  0  0  0  0  0  0  0  0  0  0
   56.2090   30.5000   44.1540 C   0  0  0  0  0  0  0  0  0  0  0  0
   55.7240   29.6640   44.9620 O   0  0  0  0  0  0  0  0  0  0  0  0
   56.6450   31.8460   44.6400 C   0  0  0  0  0  0  0  0  0  0  0  0
   58.0450   31.7960   45.0750 N   0  0  0  0  0  0  0  0  0  0  0  0
   58.8500   33.0250   45.0920 C   0  0  0  0  0  0  0  0  0  0  0  0
   59.6110   33.1190   46.3850 C   0  0  0  0  0  0  0  0  0  0  0  0
   61.0000   33.3270   46.3760 C   0  0  0  0  0  0  0  0  0  0  0  0
   61.7150   33.3590   47.5780 C   0  0  0  0  0  0  0  0  0  0  0  0
   63.4490   33.6230   47.5590 Cl  0  0  0  0  0  0  0  0  0  0  0  0
   61.0480   33.1770   48.7940 C   0  0  0  0  0  0  0  0  0  0  0  0
   59.6670   32.9550   48.8090 C   0  0  0  0  0  0  0  0  0  0  0  0
   58.8340   32.7190   50.3330 Cl  0  0  0  0  0  0  0  0  0  0  0  0
   58.9510   32.9200   47.6080 C   0  0  0  0  0  0  0  0  0  0  0  0
   58.6390   30.5400   45.4480 C   0  0  0  0  0  0  0  0  0  0  0  0
   58.5760   30.0890   46.7750 C   0  0  0  0  0  0  0  0  0  0  0  0
   59.1460   28.8630   47.1300 C   0  0  0  0  0  0  0  0  0  0  0  0
   59.7900   28.0740   46.1640 C   0  0  0  0  0  0  0  0  0  0  0  0
   60.4070   26.7570   46.5570 C   0  0  0  0  0  0  0  0  0  0  0  0
   59.4210   25.8810   47.1040 O   0  0  0  0  0  0  0  0  0  0  0  0
   58.2480   25.4700   46.4490 C   0  0  0  0  0  0  0  0  0  0  0  0
   58.1800   24.2930   45.6770 C   0  0  0  0  0  0  0  0  0  0  0  0
   56.9830   23.9270   45.0550 C   0  0  0  0  0  0  0  0  0  0  0  0
   55.8480   24.7310   45.1890 C   0  0  0  0  0  0  0  0  0  0  0  0
   55.9090   25.9050   45.9450 C   0  0  0  0  0  0  0  0  0  0  0  0
   54.7810   26.7060   46.0740 O   0  0  0  0  0  0  0  0  0  0  0  0
   57.1050   26.2720   46.5710 C   0  0  0  0  0  0  0  0  0  0  0  0
   59.8360   28.5180   44.8330 C   0  0  0  0  0  0  0  0  0  0  0  0
   59.2700   29.7460   44.4790 C   0  0  0  0  0  0  0  0  0  0  0  0
   55.5330   29.7940   42.2330 H   0  0  0  0  0  0  0  0  0  0  0  0
   56.5433   32.5776   43.8249 H   0  0  0  0  0  0  0  0  0  0  0  0
   56.0142   32.1432   45.4907 H   0  0  0  0  0  0  0  0  0  0  0  0
   59.5594   33.0083   44.2514 H   0  0  0  0  0  0  0  0  0  0  0  0
   58.1844   33.8958   44.9989 H   0  0  0  0  0  0  0  0  0  0  0  0
   61.5274   33.4652   45.4206 H   0  0  0  0  0  0  0  0  0  0  0  0
   61.6099   33.2085   49.7391 H   0  0  0  0  0  0  0  0  0  0  0  0
   57.8666   32.7358   47.6218 H   0  0  0  0  0  0  0  0  0  0  0  0
   58.0761   30.7025   47.5390 H   0  0  0  0  0  0  0  0  0  0  0  0
   59.0896   28.5147   48.1719 H   0  0  0  0  0  0  0  0  0  0  0  0
   60.8535   26.2878   45.6679 H   0  0  0  0  0  0  0  0  0  0  0  0
   61.1783   26.9413   47.3193 H   0  0  0  0  0  0  0  0  0  0  0  0
   59.0724   23.6599   45.5635 H   0  0  0  0  0  0  0  0  0  0  0  0
   56.9343   23.0040   44.4587 H   0  0  0  0  0  0  0  0  0  0  0  0
   54.9068   24.4400   44.6996 H   0  0  0  0  0  0  0  0  0  0  0  0
   57.1488   27.1976   47.1638 H   0  0  0  0  0  0  0  0  0  0  0  0
   60.3198   27.8965   44.0650 H   0  0  0  0  0  0  0  0  0  0  0  0
   59.3196   30.0913   43.4358 H   0  0  0  0  0  0  0  0  0  0  0  0
  1  2  1  0
  2  3  2  0
  2  4  1  0
  4  5  1  0
  5  6  1  0
  6  7  1  0
  7  8  2  0
  8  9  1  0
  9 10  1  0
  9 11  2  0
 11 12  1  0
 12 13  1  0
 12 14  2  0
  5 15  1  0
 15 16  2  0
 16 17  1  0
 17 18  2  0
 18 19  1  0
 19 20  1  0
 20 21  1  0
 21 22  2  0
 22 23  1  0
 23 24  2  0
 24 25  1  0
 25 26  1  0
 25 27  2  0
 18 28  1  0
 28 29  2  0
 14  7  1  0
 29 15  1  0
 27 21  1  0
  1 30  1  0
  4 31  1  0
  4 32  1  0
  6 33  1  0
  6 34  1  0
  8 35  1  0
 11 36  1  0
 14 37  1  0
 16 38  1  0
 17 39  1  0
 19 40  1  0
 19 41  1  0
 22 42  1  0
 23 43  1  0
 24 44  1  0
 27 45  1  0
 28 46  1  0
 29 47  1  0
M  CHG  2   1  -1  26  -1
M  END
>  <UniqueID>  (16) 
15

>  <SMILES>  (16) 
[NH-]C(=O)CN(Cc1cc(Cl)cc(Cl)c1)c1ccc(COc2cccc([O-])c2)cc1

>  <Energy>  (16) 
49.146623762892816

>  <Genealogy>  (16) 
[NH-]C(=O)CN(Cc1cc(Cl)cc(Cl)c1)c1ccc(COc2cccc([O-])c2)cc1 (protonated)
[NH-]C(=O)CN(Cc1cc(Cl)cc(Cl)c1)c1ccc(COc2cccc([O-])c2)cc1 (3D coordinates assigned)
[NH-]C(=O)CN(Cc1cc(Cl)cc(Cl)c1)c1ccc(COc2cccc([O-])c2)cc1 (optimized conformer: 49.146623762892816 kcal/mol)

>  <smiles>  (16) 
NC(=O)CN(Cc1cc(Cl)cc(Cl)c1)c1ccc(COc2cccc(O)c2)cc1

>  <score_type>  (16) 
oracle

>  <origin>  (16) 
adg

>  <m_score__min__energy>  (16) 
-15.390000000000001

>  <m_primary>  (16) 
energy

$$$$
16:0
     RDKit          3D

 64 67  0  0  0  0  0  0  0  0999 V2000
   58.1370   32.0870   42.1530 C   0  0  0  0  0  0  0  0  0  0  0  0
   57.0290   31.8130   43.0860 N   0  0  0  0  0  0  0  0  0  0  0  0
   57.3380   32.2950   44.4520 C   0  0  0  0  0  0  0  0  0  0  0  0
   58.0510   31.2210   45.2950 C   0  0  0  0  0  0  0  0  0  0  0  0
   57.2580   29.9670   45.4230 N   0  0  0  0  0  0  0  0  0  0  0  0
   58.1310   28.7700   45.4400 C   0  0  0  0  0  0  0  0  0  0  0  0
   58.4570   28.3400   46.8770 C   0  0  0  0  0  0  0  0  0  0  0  0
   59.5620   29.0860   47.3880 O   0  0  0  0  0  0  0  0  0  0  0  0
   59.6210   29.7110   48.6430 C   0  0  0  0  0  0  0  0  0  0  0  0
   60.0100   28.9400   49.7440 C   0  0  0  0  0  0  0  0  0  0  0  0
   60.0850   29.5050   51.0200 C   0  0  0  0  0  0  0  0  0  0  0  0
   59.7900   30.8640   51.2100 C   0  0  0  0  0  0  0  0  0  0  0  0
   59.8510   31.4750   52.5840 C   0  0  0  0  0  0  0  0  0  0  0  0
   58.5600   32.0910   52.9230 N   0  0  0  0  0  0  0  0  0  0  0  0
   58.5450   33.3440   53.6820 C   0  0  0  0  0  0  0  0  0  0  0  0
   57.3140   31.4040   52.6760 C   0  0  0  0  0  0  0  0  0  0  0  0
   56.4970   31.6470   51.6210 N   0  0  0  0  0  0  0  0  0  0  0  0
   55.4010   30.8470   51.6140 C   0  0  0  0  0  0  0  0  0  0  0  0
   55.3300   29.9540   52.6800 C   0  0  0  0  0  0  0  0  0  0  0  0
   54.2580   28.9360   52.9280 C   0  0  0  0  0  0  0  0  0  0  0  0
   52.9740   29.5940   53.1680 N   0  0  0  0  0  0  0  0  0  0  0  0
   52.3460   30.4420   52.4010 C   0  0  0  0  0  0  0  0  0  0  0  0
   51.7400   31.5560   52.9970 C   0  0  0  0  0  0  0  0  0  0  0  0
   51.0710   32.4940   52.2040 C   0  0  0  0  0  0  0  0  0  0  0  0
   51.0080   32.3270   50.8590 N   0  0  0  0  0  0  0  0  0  0  0  0
   51.5830   31.2600   50.2470 C   0  0  0  0  0  0  0  0  0  0  0  0
   52.2620   30.2970   50.9990 C   0  0  0  0  0  0  0  0  0  0  0  0
   56.6860   30.1810   53.6530 S   0  0  0  0  0  0  0  0  0  0  0  0
   59.4050   31.6410   50.1060 C   0  0  0  0  0  0  0  0  0  0  0  0
   59.3170   31.0710   48.8330 C   0  0  0  0  0  0  0  0  0  0  0  0
   56.1890   29.8460   44.4040 C   0  0  0  0  0  0  0  0  0  0  0  0
   56.6420   30.3810   43.0350 C   0  0  0  0  0  0  0  0  0  0  0  0
   59.0498   32.3127   42.7239 H   0  0  0  0  0  0  0  0  0  0  0  0
   58.3096   31.2045   41.5195 H   0  0  0  0  0  0  0  0  0  0  0  0
   57.8784   32.9482   41.5195 H   0  0  0  0  0  0  0  0  0  0  0  0
   57.9890   33.1786   44.3781 H   0  0  0  0  0  0  0  0  0  0  0  0
   56.3879   32.5414   44.9485 H   0  0  0  0  0  0  0  0  0  0  0  0
   59.0129   30.9814   44.8182 H   0  0  0  0  0  0  0  0  0  0  0  0
   58.1877   31.6310   46.3066 H   0  0  0  0  0  0  0  0  0  0  0  0
   57.6172   27.9441   44.9263 H   0  0  0  0  0  0  0  0  0  0  0  0
   59.0728   29.0190   44.9292 H   0  0  0  0  0  0  0  0  0  0  0  0
   57.5777   28.5144   47.5145 H   0  0  0  0  0  0  0  0  0  0  0  0
   58.7212   27.2722   46.8756 H   0  0  0  0  0  0  0  0  0  0  0  0
   60.2594   27.8779   49.6037 H   0  0  0  0  0  0  0  0  0  0  0  0
   60.3763   28.8823   51.8787 H   0  0  0  0  0  0  0  0  0  0  0  0
   60.0843   30.6916   53.3201 H   0  0  0  0  0  0  0  0  0  0  0  0
   60.6329   32.2486   52.5986 H   0  0  0  0  0  0  0  0  0  0  0  0
   58.5477   33.1203   54.7590 H   0  0  0  0  0  0  0  0  0  0  0  0
   59.4361   33.9370   53.4284 H   0  0  0  0  0  0  0  0  0  0  0  0
   57.6399   33.9155   53.4284 H   0  0  0  0  0  0  0  0  0  0  0  0
   56.6650   32.3710   50.8890 H   0  0  0  0  0  0  0  0  0  0  0  0
   54.6312   30.8997   50.8300 H   0  0  0  0  0  0  0  0  0  0  0  0
   54.1704   28.2807   52.0489 H   0  0  0  0  0  0  0  0  0  0  0  0
   54.5267   28.3447   53.8158 H   0  0  0  0  0  0  0  0  0  0  0  0
   51.7904   31.6927   54.0873 H   0  0  0  0  0  0  0  0  0  0  0  0
   50.5951   33.3686   52.6716 H   0  0  0  0  0  0  0  0  0  0  0  0
   51.5142   31.1529   49.1544 H   0  0  0  0  0  0  0  0  0  0  0  0
   52.7273   29.4328   50.5023 H   0  0  0  0  0  0  0  0  0  0  0  0
   59.1707   32.7069   50.2440 H   0  0  0  0  0  0  0  0  0  0  0  0
   59.0088   31.6884   47.9764 H   0  0  0  0  0  0  0  0  0  0  0  0
   55.9153   28.7858   44.2992 H   0  0  0  0  0  0  0  0  0  0  0  0
   55.3289   30.4451   44.7378 H   0  0  0  0  0  0  0  0  0  0  0  0
   57.5074   29.7933   42.6950 H   0  0  0  0  0  0  0  0  0  0  0  0
   55.7933   30.2878   42.3414 H   0  0  0  0  0  0  0  0  0  0  0  0
  1  2  1  0
  2  3  1  0
  3  4  1  0
  4  5  1  0
  5  6  1  0
  6  7  1  0
  7  8  1  0
  8  9  1  0
  9 10  2  0
 10 11  1  0
 11 12  2  0
 12 13  1  0
 13 14  1  0
 14 15  1  0
 14 16  1  0
 16 17  2  0
 17 18  1  0
 18 19  2  0
 19 20  1  0
 20 21  1  0
 21 22  2  3
 22 23  1  0
 23 24  2  0
 24 25  1  0
 25 26  1  0
 26 27  2  0
 19 28  1  0
 12 29  1  0
 29 30  2  0
  5 31  1  0
 31 32  1  0
 32  2  1  0
 30  9  1  0
 28 16  1  0
 27 22  1  0
  1 33  1  0
  1 34  1  0
  1 35  1  0
  3 36  1  0
  3 37  1  0
  4 38  1  0
  4 39  1  0
  6 40  1  0
  6 41  1  0
  7 42  1  0
  7 43  1  0
 10 44  1  0
 11 45  1  0
 13 46  1  0
 13 47  1  0
 15 48  1  0
 15 49  1  0
 15 50  1  0
 17 51  1  0
 18 52  1  0
 20 53  1  0
 20 54  1  0
 23 55  1  0
 24 56  1  0
 26 57  1  0
 27 58  1  0
 29 59  1  0
 30 60  1  0
 31 61  1  0
 31 62  1  0
 32 63  1  0
 32 64  1  0
M  CHG  2  17   1  25  -1
M  END
>  <UniqueID>  (17) 
16

>  <SMILES>  (17) 
CN1CCN(CCOc2ccc(CN(C)c3[nH+]cc(CN=c4cc[n-]cc4)s3)cc2)CC1

>  <Energy>  (17) 
112.31724306554173

>  <Genealogy>  (17) 
CN1CCN(CCOc2ccc(CN(C)c3[nH+]cc(CN=c4cc[n-]cc4)s3)cc2)CC1 (protonated)
CN1CCN(CCOc2ccc(CN(C)c3[nH+]cc(CN=c4cc[n-]cc4)s3)cc2)CC1 (3D coordinates assigned)
CN1CCN(CCOc2ccc(CN(C)c3[nH+]cc(CN=c4cc[n-]cc4)s3)cc2)CC1 (nonaromatic ring conformer: 112.31724306554173 kcal/mol)

>  <smiles>  (17) 
CN1CCN(CCOc2ccc(CN(C)c3ncc(CN=c4cc[nH]cc4)s3)cc2)CC1

>  <score_type>  (17) 
oracle

>  <origin>  (17) 
adg

>  <m_score__min__energy>  (17) 
-10.42

>  <m_primary>  (17) 
energy

$$$$
17:0
     RDKit          3D

 70 74  0  0  0  0  0  0  0  0999 V2000
   63.0330   26.2310   53.1940 C   0  0  0  0  0  0  0  0  0  0  0  0
   62.8540   27.6340   53.3370 O   0  0  0  0  0  0  0  0  0  0  0  0
   62.6030   28.5110   52.2730 C   0  0  0  0  0  0  0  0  0  0  0  0
   63.3040   29.7340   52.1180 C   0  0  0  0  0  0  0  0  0  0  0  0
   62.9900   30.6030   51.0590 C   0  0  0  0  0  0  0  0  0  0  0  0
   61.9860   30.2340   50.1610 C   0  0  0  0  0  0  0  0  0  0  0  0
   61.3230   29.0370   50.3040 C   0  0  0  0  0  0  0  0  0  0  0  0
   61.6030   28.1600   51.3460 C   0  0  0  0  0  0  0  0  0  0  0  0
   60.3620   28.9420   49.2340 C   0  0  0  0  0  0  0  0  0  0  0  0
   59.6560   27.9270   48.9870 O   0  0  0  0  0  0  0  0  0  0  0  0
   60.3980   30.1370   48.4390 N   0  0  0  0  0  0  0  0  0  0  0  0
   59.4570   30.5560   47.4240 C   0  0  0  0  0  0  0  0  0  0  0  0
   59.0750   31.9100   47.3360 C   0  0  0  0  0  0  0  0  0  0  0  0
   58.0980   32.3070   46.4060 C   0  0  0  0  0  0  0  0  0  0  0  0
   57.6380   33.7140   46.3470 C   0  0  0  0  0  0  0  0  0  0  0  0
   56.5570   34.0930   45.4950 N   0  0  0  0  0  0  0  0  0  0  0  0
   58.1770   34.5920   47.0670 O   0  0  0  0  0  0  0  0  0  0  0  0
   57.5600   31.3790   45.5660 N   0  0  0  0  0  0  0  0  0  0  0  0
   57.9200   30.0690   45.6020 C   0  0  0  0  0  0  0  0  0  0  0  0
   57.3230   29.1070   44.6450 C   0  0  0  0  0  0  0  0  0  0  0  0
   56.8390   29.5320   43.5580 O   0  0  0  0  0  0  0  0  0  0  0  0
   57.2460   27.6990   44.9250 N   0  0  0  0  0  0  0  0  0  0  0  0
   56.6880   27.0800   46.1270 C   0  0  2  0  0  0  0  0  0  0  0  0
   57.8110   26.8580   47.1810 C   0  0  0  0  0  0  0  0  0  0  0  0
   58.8160   25.8700   46.7440 N   0  0  0  0  0  0  0  0  0  0  0  0
   60.0610   26.5070   46.2970 C   0  0  0  0  0  0  0  0  0  0  0  0
   58.2840   24.9770   45.6990 C   0  0  0  0  0  0  0  0  0  0  0  0
   57.3090   23.9500   46.2940 C   0  0  0  0  0  0  0  0  0  0  0  0
   55.9940   24.5860   46.4760 N   0  0  0  0  0  0  0  0  0  0  0  0
   54.8400   23.6790   46.3010 C   0  0  0  0  0  0  0  0  0  0  0  0
   54.8460   22.9840   44.9170 C   0  0  0  0  0  0  0  0  0  0  0  0
   55.8480   21.8280   44.7890 C   0  0  0  0  0  0  0  0  0  0  0  0
   56.6260   22.6240   43.7430 C   0  0  0  0  0  0  0  0  0  0  0  0
   55.6140   23.7590   43.8420 C   0  0  0  0  0  0  0  0  0  0  0  0
   55.7960   25.8590   45.7280 C   0  0  0  0  0  0  0  0  0  0  0  0
   58.8780   29.6390   46.5320 C   0  0  0  0  0  0  0  0  0  0  0  0
   61.4670   30.9990   48.9760 C   0  0  0  0  0  0  0  0  0  0  0  0
   63.0924   25.7656   54.1889 H   0  0  0  0  0  0  0  0  0  0  0  0
   62.1816   25.8072   52.6412 H   0  0  0  0  0  0  0  0  0  0  0  0
   63.9635   26.0345   52.6412 H   0  0  0  0  0  0  0  0  0  0  0  0
   64.0976   30.0039   52.8303 H   0  0  0  0  0  0  0  0  0  0  0  0
   63.5253   31.5565   50.9396 H   0  0  0  0  0  0  0  0  0  0  0  0
   61.0546   27.2115   51.4441 H   0  0  0  0  0  0  0  0  0  0  0  0
   59.5416   32.6566   47.9954 H   0  0  0  0  0  0  0  0  0  0  0  0
   56.1380   35.0450   45.5780 H   0  0  0  0  0  0  0  0  0  0  0  0
   56.0710   33.3940   44.8950 H   0  0  0  0  0  0  0  0  0  0  0  0
   55.9843   27.7406   46.6547 H   0  0  0  0  0  0  0  0  0  0  0  0
   58.3171   27.8175   47.3632 H   0  0  0  0  0  0  0  0  0  0  0  0
   57.3370   26.4678   48.0938 H   0  0  0  0  0  0  0  0  0  0  0  0
   60.6530   26.8099   47.1732 H   0  0  0  0  0  0  0  0  0  0  0  0
   60.6405   25.7946   45.6914 H   0  0  0  0  0  0  0  0  0  0  0  0
   59.8223   27.3937   45.6914 H   0  0  0  0  0  0  0  0  0  0  0  0
   57.7555   25.5799   44.9459 H   0  0  0  0  0  0  0  0  0  0  0  0
   59.1247   24.4360   45.2401 H   0  0  0  0  0  0  0  0  0  0  0  0
   57.2129   23.0937   45.6102 H   0  0  0  0  0  0  0  0  0  0  0  0
   57.6881   23.5968   47.2643 H   0  0  0  0  0  0  0  0  0  0  0  0
   54.8737   22.9078   47.0847 H   0  0  0  0  0  0  0  0  0  0  0  0
   53.9229   24.2823   46.3717 H   0  0  0  0  0  0  0  0  0  0  0  0
   53.7672   22.7948   44.8153 H   0  0  0  0  0  0  0  0  0  0  0  0
   56.4145   21.6199   45.7087 H   0  0  0  0  0  0  0  0  0  0  0  0
   55.4988   20.8085   44.5685 H   0  0  0  0  0  0  0  0  0  0  0  0
   57.6429   22.9020   44.0570 H   0  0  0  0  0  0  0  0  0  0  0  0
   56.8608   22.1747   42.7668 H   0  0  0  0  0  0  0  0  0  0  0  0
   56.0399   24.7105   44.1930 H   0  0  0  0  0  0  0  0  0  0  0  0
   55.0963   24.1222   42.9420 H   0  0  0  0  0  0  0  0  0  0  0  0
   55.9832   25.6483   44.6647 H   0  0  0  0  0  0  0  0  0  0  0  0
   54.7701   26.1706   45.9739 H   0  0  0  0  0  0  0  0  0  0  0  0
   59.1765   28.5807   46.5626 H   0  0  0  0  0  0  0  0  0  0  0  0
   62.2605   31.1498   48.2293 H   0  0  0  0  0  0  0  0  0  0  0  0
   61.1080   32.0038   49.2434 H   0  0  0  0  0  0  0  0  0  0  0  0
  1  2  1  0
  2  3  1  0
  3  4  2  0
  4  5  1  0
  5  6  2  0
  6  7  1  0
  7  8  2  0
  7  9  1  0
  9 10  2  0
  9 11  1  0
 11 12  1  0
 12 13  2  0
 13 14  1  0
 14 15  1  0
 15 16  1  0
 15 17  2  0
 14 18  2  0
 18 19  1  0
 19 20  1  0
 20 21  2  0
 20 22  1  0
 22 23  1  0
 23 24  1  0
 24 25  1  0
 25 26  1  0
 25 27  1  0
 27 28  1  0
 28 29  1  0
 29 30  1  0
 30 31  1  0
 31 32  1  0
 32 33  1  0
 33 34  1  0
 29 35  1  0
 19 36  2  0
 11 37  1  0
  8  3  1  0
 36 12  1  0
 37  6  1  0
 35 23  1  0
 34 31  1  0
  1 38  1  0
  1 39  1  0
  1 40  1  0
  4 41  1  0
  5 42  1  0
  8 43  1  0
 13 44  1  0
 16 45  1  0
 16 46  1  0
 23 47  1  1
 24 48  1  0
 24 49  1  0
 26 50  1  0
 26 51  1  0
 26 52  1  0
 27 53  1  0
 27 54  1  0
 28 55  1  0
 28 56  1  0
 30 57  1  0
 30 58  1  0
 31 59  1  0
 32 60  1  0
 32 61  1  0
 33 62  1  0
 33 63  1  0
 34 64  1  0
 34 65  1  0
 35 66  1  0
 35 67  1  0
 36 68  1  0
 37 69  1  0
 37 70  1  0
M  CHG  1  22  -1
M  END
>  <UniqueID>  (18) 
17

>  <SMILES>  (18) 
COc1ccc2c(c1)C(=O)N(c1cc(C(N)=O)nc(C(=O)[N-][C@@H]3CN(C)CCN(CC4CCC4)C3)c1)C2

>  <Energy>  (18) 
187.08114482225332

>  <Genealogy>  (18) 
COc1ccc2c(c1)C(=O)N(c1cc(C(N)=O)nc(C(=O)[N-]C3CN(C)CCN(CC4CCC4)C3)c1)C2 (protonated)
COc1ccc2c(c1)C(=O)N(c1cc(C(N)=O)nc(C(=O)[N-][C@@H]3CN(C)CCN(CC4CCC4)C3)c1)C2 (chirality)
COc1ccc2c(c1)C(=O)N(c1cc(C(N)=O)nc(C(=O)[N-][C@@H]3CN(C)CCN(CC4CCC4)C3)c1)C2 (3D coordinates assigned)
COc1ccc2c(c1)C(=O)N(c1cc(C(N)=O)nc(C(=O)[N-][C@@H]3CN(C)CCN(CC4CCC4)C3)c1)C2 (nonaromatic ring conformer: 187.08114482225332 kcal/mol)

>  <smiles>  (18) 
COc1ccc2c(c1)C(=O)N(c1cc(C(N)=O)nc(C(=O)NC3CN(C)CCN(CC4CCC4)C3)c1)C2

>  <score_type>  (18) 
oracle

>  <origin>  (18) 
adg

>  <m_score__min__energy>  (18) 
-8.3300000000000001

>  <m_primary>  (18) 
energy

$$$$
18:0
     RDKit          3D

 46 48  0  0  0  0  0  0  0  0999 V2000
   57.1826   31.0608   42.0398 H   0  0  0  0  0  0  0  0  0  0  0  0
   57.3730   31.6060   42.9760 C   0  0  0  0  0  0  0  0  0  0  0  0
   56.7690   31.1970   44.1660 C   0  0  0  0  0  0  0  0  0  0  0  0
   55.6020   29.6870   44.1870 Br  0  0  0  0  0  0  0  0  0  0  0  0
   57.0100   31.8770   45.3200 N   0  0  0  0  0  0  0  0  0  0  0  0
   57.8340   32.9620   45.3600 C   0  0  0  0  0  0  0  0  0  0  0  0
   58.0540   33.6070   46.4700 N   0  0  0  0  0  0  0  0  0  0  0  0
   59.3090   33.7420   47.1560 C   0  0  0  0  0  0  0  0  0  0  0  0
   59.7070   34.8660   47.5680 O   0  0  0  0  0  0  0  0  0  0  0  0
   60.0950   32.5670   47.4020 N   0  0  0  0  0  0  0  0  0  0  0  0
   59.6260   31.6390   47.2980 H   0  0  0  0  0  0  0  0  0  0  0  0
   61.4130   32.6050   47.9700 C   0  0  0  0  0  0  0  0  0  0  0  0
   62.4610   33.1540   47.2170 C   0  0  0  0  0  0  0  0  0  0  0  0
   62.2623   33.5455   46.2084 H   0  0  0  0  0  0  0  0  0  0  0  0
   63.7550   33.2070   47.7390 C   0  0  0  0  0  0  0  0  0  0  0  0
   64.5731   33.6304   47.1378 H   0  0  0  0  0  0  0  0  0  0  0  0
   64.0110   32.7240   49.0210 C   0  0  0  0  0  0  0  0  0  0  0  0
   65.0337   32.7548   49.4249 H   0  0  0  0  0  0  0  0  0  0  0  0
   62.9720   32.2010   49.7940 C   0  0  0  0  0  0  0  0  0  0  0  0
   63.1802   31.8255   50.8068 H   0  0  0  0  0  0  0  0  0  0  0  0
   61.6580   32.1510   49.2850 C   0  0  0  0  0  0  0  0  0  0  0  0
   60.5780   31.6850   50.0550 O   0  0  0  0  0  0  0  0  0  0  0  0
   60.3630   30.3270   50.4410 C   0  0  0  0  0  0  0  0  0  0  0  0
   59.4721   30.2700   51.0837 H   0  0  0  0  0  0  0  0  0  0  0  0
   61.2478   29.9678   50.9869 H   0  0  0  0  0  0  0  0  0  0  0  0
   60.1550   29.4620   49.2290 C   0  0  0  0  0  0  0  0  0  0  0  0
   60.7630   28.3630   49.1490 O   0  0  0  0  0  0  0  0  0  0  0  0
   59.3260   29.8750   48.1340 N   0  0  0  0  0  0  0  0  0  0  0  0
   59.0070   29.1020   46.9690 C   0  0  0  0  0  0  0  0  0  0  0  0
   58.0890   28.0380   47.0270 C   0  0  0  0  0  0  0  0  0  0  0  0
   57.5841   27.8045   47.9760 H   0  0  0  0  0  0  0  0  0  0  0  0
   57.8110   27.2700   45.8820 C   0  0  0  0  0  0  0  0  0  0  0  0
   56.7800   26.1710   45.9400 C   0  0  0  0  0  0  0  0  0  0  0  0
   57.0070   25.3340   47.0190 F   0  0  0  0  0  0  0  0  0  0  0  0
   55.5100   26.7080   46.0700 F   0  0  0  0  0  0  0  0  0  0  0  0
   56.8380   25.4300   44.7750 F   0  0  0  0  0  0  0  0  0  0  0  0
   58.4490   27.5930   44.6710 C   0  0  0  0  0  0  0  0  0  0  0  0
   58.2107   27.0264   43.7587 H   0  0  0  0  0  0  0  0  0  0  0  0
   59.3840   28.6300   44.6210 C   0  0  0  0  0  0  0  0  0  0  0  0
   59.8945   28.8622   43.6747 H   0  0  0  0  0  0  0  0  0  0  0  0
   59.6730   29.3730   45.7680 C   0  0  0  0  0  0  0  0  0  0  0  0
   60.5820   30.3780   45.7040 F   0  0  0  0  0  0  0  0  0  0  0  0
   58.4540   33.3990   44.1830 C   0  0  0  0  0  0  0  0  0  0  0  0
   59.1194   34.2748   44.1994 H   0  0  0  0  0  0  0  0  0  0  0  0
   58.2210   32.7140   42.9870 C   0  0  0  0  0  0  0  0  0  0  0  0
   58.7048   33.0475   42.0571 H   0  0  0  0  0  0  0  0  0  0  0  0
  1  2  1  0
  2  3  2  0
  3  4  1  0
  3  5  1  0
  5  6  1  0
  6  7  2  0
  7  8  1  0
  8  9  2  0
  8 10  1  0
 10 11  1  0
 10 12  1  0
 12 13  2  0
 13 14  1  0
 13 15  1  0
 15 16  1  0
 15 17  2  0
 17 18  1  0
 17 19  1  0
 19 20  1  0
 19 21  2  0
 21 22  1  0
 22 23  1  0
 23 24  1  0
 23 25  1  0
 23 26  1  0
 26 27  2  0
 26 28  1  0
 28 29  1  0
 29 30  2  0
 30 31  1  0
 30 32  1  0
 32 33  1  0
 33 34  1  0
 33 35  1  0
 33 36  1  0
 32 37  2  0
 37 38  1  0
 37 39  1  0
 39 40  1  0
 39 41  2  0
 41 42  1  0
  6 43  1  0
 43 44  1  0
 43 45  2  0
 45 46  1  0
 45  2  1  0
 21 12  1  0
 41 29  1  0
M  CHG  2   5  -1  28  -1
M  END
>  <UniqueID>  (19) 
18

>  <SMILES>  (19) 
O=C(COc1ccccc1NC(=O)/N=c1/cccc(Br)[n-]1)[N-]c1cc(C(F)(F)F)ccc1F

>  <Energy>  (19) 
60.86617438789706

>  <Genealogy>  (19) 
O=C(COc1ccccc1NC(=O)N=c1cccc(Br)[n-]1)[N-]c1cc(C(F)(F)F)ccc1F (protonated)
O=C(COc1ccccc1NC(=O)/N=c1/cccc(Br)[n-]1)[N-]c1cc(C(F)(F)F)ccc1F (cis-trans isomerization)
O=C(COc1ccccc1NC(=O)/N=c1/cccc(Br)[n-]1)[N-]c1cc(C(F)(F)F)ccc1F (3D coordinates assigned)
O=C(COc1ccccc1NC(=O)/N=c1/cccc(Br)[n-]1)[N-]c1cc(C(F)(F)F)ccc1F (optimized conformer: 60.86617438789706 kcal/mol)

>  <smiles>  (19) 
O=C(COc1ccccc1NC(=O)N=c1cccc(Br)[nH]1)Nc1cc(C(F)(F)F)ccc1F

>  <score_type>  (19) 
oracle

>  <origin>  (19) 
adg

>  <m_score__min__energy>  (19) 
-11.449999999999999

>  <m_primary>  (19) 
energy

$$$$
19:0
     RDKit          3D

 54 56  0  0  0  0  0  0  0  0999 V2000
   61.5814   33.8097   50.0411 H   0  0  0  0  0  0  0  0  0  0  0  0
   60.5210   34.0210   49.8390 C   0  0  0  0  0  0  0  0  0  0  0  0
   59.5210   33.6220   50.8510 C   0  0  0  0  0  0  0  0  0  0  0  0
   58.9250   34.5300   51.4900 O   0  0  0  0  0  0  0  0  0  0  0  0
   59.2230   32.2440   51.1310 N   0  0  0  0  0  0  0  0  0  0  0  0
   59.8740   31.4970   50.8080 H   0  0  0  0  0  0  0  0  0  0  0  0
   58.0560   31.8800   51.9370 C   0  0  0  0  0  0  0  0  0  0  0  0
   58.3417   31.8890   52.9992 H   0  0  0  0  0  0  0  0  0  0  0  0
   57.2607   32.6117   51.7315 H   0  0  0  0  0  0  0  0  0  0  0  0
   57.5210   30.4890   51.5810 C   0  0  0  0  0  0  0  0  0  0  0  0
   56.5917   30.3219   52.1453 H   0  0  0  0  0  0  0  0  0  0  0  0
   57.3657   30.4790   50.4921 H   0  0  0  0  0  0  0  0  0  0  0  0
   58.4930   29.3390   51.9000 C   0  0  0  0  0  0  0  0  0  0  0  0
   58.7927   29.4054   52.9563 H   0  0  0  0  0  0  0  0  0  0  0  0
   57.9815   28.3858   51.7005 H   0  0  0  0  0  0  0  0  0  0  0  0
   59.6900   29.4070   51.0590 N   0  0  0  0  0  0  0  0  0  0  0  0
   59.9040   29.5100   49.7710 C   0  0  0  0  0  0  0  0  0  0  0  0
   59.0370   28.7630   48.9610 C   0  0  0  0  0  0  0  0  0  0  0  0
   58.3915   27.9976   49.4164 H   0  0  0  0  0  0  0  0  0  0  0  0
   58.9840   28.9790   47.5880 C   0  0  0  0  0  0  0  0  0  0  0  0
   58.2746   28.4088   46.9703 H   0  0  0  0  0  0  0  0  0  0  0  0
   59.8020   29.8880   47.0100 N   0  0  0  0  0  0  0  0  0  0  0  0
   60.7300   30.5740   47.7260 C   0  0  0  0  0  0  0  0  0  0  0  0
   61.5980   31.4350   47.0470 C   0  0  0  0  0  0  0  0  0  0  0  0
   61.4535   31.6228   45.9728 H   0  0  0  0  0  0  0  0  0  0  0  0
   62.6450   32.0560   47.7250 C   0  0  0  0  0  0  0  0  0  0  0  0
   63.7490   33.1110   46.8630 Cl  0  0  0  0  0  0  0  0  0  0  0  0
   62.8480   31.7890   49.0780 C   0  0  0  0  0  0  0  0  0  0  0  0
   63.6979   32.2473   49.6049 H   0  0  0  0  0  0  0  0  0  0  0  0
   61.9770   30.9420   49.7680 C   0  0  0  0  0  0  0  0  0  0  0  0
   62.1701   30.7153   50.8269 H   0  0  0  0  0  0  0  0  0  0  0  0
   60.8540   30.3720   49.1310 C   0  0  0  0  0  0  0  0  0  0  0  0
   60.2010   34.6280   48.6860 C   0  0  0  0  0  0  0  0  0  0  0  0
   60.4995   35.6780   48.5503 H   0  0  0  0  0  0  0  0  0  0  0  0
   59.4660   33.9590   47.5840 C   0  0  0  0  0  0  0  0  0  0  0  0
   59.7130   34.3720   46.2660 C   0  0  0  0  0  0  0  0  0  0  0  0
   60.4389   35.1761   46.0748 H   0  0  0  0  0  0  0  0  0  0  0  0
   59.0470   33.7730   45.1940 C   0  0  0  0  0  0  0  0  0  0  0  0
   59.2610   34.1017   44.1663 H   0  0  0  0  0  0  0  0  0  0  0  0
   58.1060   32.7540   45.4180 C   0  0  0  0  0  0  0  0  0  0  0  0
   57.3890   32.1140   44.2440 C   0  0  0  0  0  0  0  0  0  0  0  0
   56.3973   32.5824   44.1601 H   0  0  0  0  0  0  0  0  0  0  0  0
   57.1820   30.6130   44.4780 C   0  0  0  0  0  0  0  0  0  0  0  0
   57.1541   30.4108   45.5589 H   0  0  0  0  0  0  0  0  0  0  0  0
   56.2320   30.2983   44.0215 H   0  0  0  0  0  0  0  0  0  0  0  0
   58.0114   30.0529   44.0215 H   0  0  0  0  0  0  0  0  0  0  0  0
   58.1370   32.3700   42.9320 C   0  0  0  0  0  0  0  0  0  0  0  0
   59.1565   32.7189   43.1532 H   0  0  0  0  0  0  0  0  0  0  0  0
   58.1867   31.4377   42.3503 H   0  0  0  0  0  0  0  0  0  0  0  0
   57.6050   33.1372   42.3503 H   0  0  0  0  0  0  0  0  0  0  0  0
   57.8400   32.3550   46.7390 C   0  0  0  0  0  0  0  0  0  0  0  0
   57.0992   31.5647   46.9307 H   0  0  0  0  0  0  0  0  0  0  0  0
   58.5080   32.9530   47.8120 C   0  0  0  0  0  0  0  0  0  0  0  0
   58.2835   32.6353   48.8409 H   0  0  0  0  0  0  0  0  0  0  0  0
  1  2  1  0
  2  3  1  0
  3  4  2  0
  3  5  1  0
  5  6  1  0
  5  7  1  0
  7  8  1  0
  7  9  1  0
  7 10  1  0
 10 11  1  0
 10 12  1  0
 10 13  1  0
 13 14  1  0
 13 15  1  0
 13 16  1  0
 16 17  2  3
 17 18  1  0
 18 19  1  0
 18 20  2  0
 20 21  1  0
 20 22  1  0
 22 23  1  0
 23 24  2  0
 24 25  1  0
 24 26  1  0
 26 27  1  0
 26 28  2  0
 28 29  1  0
 28 30  1  0
 30 31  1  0
 30 32  2  0
  2 33  2  0
 33 34  1  0
 33 35  1  0
 35 36  2  0
 36 37  1  0
 36 38  1  0
 38 39  1  0
 38 40  2  0
 40 41  1  0
 41 42  1  0
 41 43  1  0
 43 44  1  0
 43 45  1  0
 43 46  1  0
 41 47  1  0
 47 48  1  0
 47 49  1  0
 47 50  1  0
 40 51  1  0
 51 52  1  0
 51 53  2  0
 53 54  1  0
 32 17  1  0
 53 35  1  0
 32 23  1  0
M  CHG  1  22  -1
M  END
>  <UniqueID>  (20) 
19

>  <SMILES>  (20) 
CC(C)c1ccc(/C=C/C(=O)NCCCN=c2cc[n-]c3cc(Cl)ccc23)cc1

>  <Energy>  (20) 
71.6882250293507

>  <Genealogy>  (20) 
CC(C)c1ccc(C=CC(=O)NCCCN=c2cc[n-]c3cc(Cl)ccc23)cc1 (protonated)
CC(C)c1ccc(/C=C/C(=O)NCCCN=c2cc[n-]c3cc(Cl)ccc23)cc1 (cis-trans isomerization)
CC(C)c1ccc(/C=C/C(=O)NCCCN=c2cc[n-]c3cc(Cl)ccc23)cc1 (3D coordinates assigned)
CC(C)c1ccc(/C=C/C(=O)NCCCN=c2cc[n-]c3cc(Cl)ccc23)cc1 (optimized conformer: 71.6882250293507 kcal/mol)

>  <smiles>  (20) 
CC(C)c1ccc(C=CC(=O)NCCCN=c2cc[nH]c3cc(Cl)ccc23)cc1

>  <score_type>  (20) 
oracle

>  <origin>  (20) 
adg

>  <m_score__min__energy>  (20) 
-9.2699999999999996

>  <m_primary>  (20) 
energy

$$$$
20:0
     RDKit          3D

 56 58  0  0  0  0  0  0  0  0999 V2000
   54.5450   29.3410   45.0140 H   0  0  0  0  0  0  0  0  0  0  0  0
   55.5150   28.9480   45.0030 N   0  0  0  0  0  0  0  0  0  0  0  0
   56.5910   29.6780   44.4180 C   0  0  0  0  0  0  0  0  0  0  0  0
   56.3560   30.4480   43.4480 O   0  0  0  0  0  0  0  0  0  0  0  0
   57.9740   29.4940   44.9240 C   0  0  0  0  0  0  0  0  0  0  0  0
   58.6170   30.5900   45.5280 C   0  0  0  0  0  0  0  0  0  0  0  0
   58.1000   31.5596   45.5781 H   0  0  0  0  0  0  0  0  0  0  0  0
   59.9100   30.4670   46.0690 C   0  0  0  0  0  0  0  0  0  0  0  0
   60.6210   31.6340   46.7220 C   0  0  0  0  0  0  0  0  0  0  0  0
   59.8845   32.4239   46.9309 H   0  0  0  0  0  0  0  0  0  0  0  0
   61.4004   31.9818   46.0280 H   0  0  0  0  0  0  0  0  0  0  0  0
   61.2820   31.2560   47.9870 N   0  0  0  0  0  0  0  0  0  0  0  0
   62.6080   31.2560   48.3260 C   0  0  0  0  0  0  0  0  0  0  0  0
   63.6500   31.7600   47.6320 C   0  0  0  0  0  0  0  0  0  0  0  0
   64.2809   31.0291   47.1050 H   0  0  0  0  0  0  0  0  0  0  0  0
   64.0510   33.2060   47.4940 C   0  0  0  0  0  0  0  0  0  0  0  0
   64.2752   33.4119   46.4370 H   0  0  0  0  0  0  0  0  0  0  0  0
   64.9321   33.3739   48.1308 H   0  0  0  0  0  0  0  0  0  0  0  0
   62.9440   34.1630   47.9600 C   0  0  0  0  0  0  0  0  0  0  0  0
   61.9836   33.8231   47.5452 H   0  0  0  0  0  0  0  0  0  0  0  0
   63.1977   35.1726   47.6046 H   0  0  0  0  0  0  0  0  0  0  0  0
   62.8320   34.2150   49.4810 C   0  0  0  0  0  0  0  0  0  0  0  0
   63.7426   33.7922   49.9304 H   0  0  0  0  0  0  0  0  0  0  0  0
   62.7145   35.2598   49.8045 H   0  0  0  0  0  0  0  0  0  0  0  0
   61.9581   33.6305   49.8045 H   0  0  0  0  0  0  0  0  0  0  0  0
   62.8170   30.7290   49.5490 N   0  0  0  0  0  0  0  0  0  0  0  0
   61.6010   30.4130   50.0190 C   0  0  0  0  0  0  0  0  0  0  0  0
   61.3954   29.9573   50.9988 H   0  0  0  0  0  0  0  0  0  0  0  0
   60.6490   30.7500   49.0790 C   0  0  0  0  0  0  0  0  0  0  0  0
   59.3080   30.6370   49.2070 C   0  0  0  0  0  0  0  0  0  0  0  0
   58.8745   29.6425   49.0253 H   0  0  0  0  0  0  0  0  0  0  0  0
   58.3440   31.7450   49.5760 C   0  0  1  0  0  0  0  0  0  0  0  0
   57.5018   31.7044   48.8695 H   0  0  0  0  0  0  0  0  0  0  0  0
   57.7430   31.5240   50.9430 C   0  0  0  0  0  0  0  0  0  0  0  0
   57.2910   30.3960   51.2480 O   0  0  0  0  0  0  0  0  0  0  0  0
   57.6450   32.5580   51.8630 O   0  0  0  0  0  0  0  0  0  0  0  0
   58.9580   33.1500   49.3770 C   0  0  0  0  0  0  0  0  0  0  0  0
   58.4941   33.8467   50.0907 H   0  0  0  0  0  0  0  0  0  0  0  0
   60.0426   33.0788   49.5463 H   0  0  0  0  0  0  0  0  0  0  0  0
   58.7330   33.6580   47.9850 C   0  0  0  0  0  0  0  0  0  0  0  0
   59.7720   34.6880   47.1560 S   0  0  0  0  0  0  0  0  0  0  0  0
   58.9110   34.6830   45.7090 C   0  0  0  0  0  0  0  0  0  0  0  0
   59.1763   35.2431   44.8002 H   0  0  0  0  0  0  0  0  0  0  0  0
   57.8110   33.8530   45.8580 C   0  0  0  0  0  0  0  0  0  0  0  0
   57.0883   33.6634   45.0507 H   0  0  0  0  0  0  0  0  0  0  0  0
   57.7040   33.2790   47.1280 C   0  0  0  0  0  0  0  0  0  0  0  0
   56.8907   32.5982   47.4198 H   0  0  0  0  0  0  0  0  0  0  0  0
   60.5740   29.2410   45.9680 C   0  0  0  0  0  0  0  0  0  0  0  0
   61.5900   29.1368   46.3766 H   0  0  0  0  0  0  0  0  0  0  0  0
   59.9610   28.1480   45.3540 C   0  0  0  0  0  0  0  0  0  0  0  0
   60.4970   27.1896   45.2899 H   0  0  0  0  0  0  0  0  0  0  0  0
   58.6680   28.2570   44.8170 C   0  0  0  0  0  0  0  0  0  0  0  0
   58.0580   27.0460   44.1530 C   0  0  0  0  0  0  0  0  0  0  0  0
   57.7047   26.3446   44.9232 H   0  0  0  0  0  0  0  0  0  0  0  0
   57.2103   27.3596   43.5260 H   0  0  0  0  0  0  0  0  0  0  0  0
   58.8146   26.5515   43.5260 H   0  0  0  0  0  0  0  0  0  0  0  0
  1  2  1  0
  2  3  1  0
  3  4  2  0
  3  5  1  0
  5  6  2  0
  6  7  1  0
  6  8  1  0
  8  9  1  0
  9 10  1  0
  9 11  1  0
  9 12  1  0
 12 13  1  0
 13 14  2  3
 14 15  1  0
 14 16  1  0
 16 17  1  0
 16 18  1  0
 16 19  1  0
 19 20  1  0
 19 21  1  0
 19 22  1  0
 22 23  1  0
 22 24  1  0
 22 25  1  0
 13 26  1  0
 26 27  2  0
 27 28  1  0
 27 29  1  0
 29 30  2  0
 30 31  1  0
 30 32  1  0
 32 33  1  6
 32 34  1  0
 34 35  2  0
 34 36  1  0
 32 37  1  0
 37 38  1  0
 37 39  1  0
 37 40  1  0
 40 41  1  0
 41 42  1  0
 42 43  1  0
 42 44  2  0
 44 45  1  0
 44 46  1  0
 46 47  1  0
  8 48  2  0
 48 49  1  0
 48 50  1  0
 50 51  1  0
 50 52  2  0
 52 53  1  0
 53 54  1  0
 53 55  1  0
 53 56  1  0
 52  5  1  0
 29 12  1  0
 46 40  2  0
M  CHG  2   2  -1  36  -1
M  END
>  <UniqueID>  (21) 
20

>  <SMILES>  (21) 
CCCC=c1nc/c(=C\[C@H](Cc2cccs2)C(=O)[O-])n1Cc1ccc(C)c(C([NH-])=O)c1

>  <Energy>  (21) 
122.36591122848098

>  <Genealogy>  (21) 
CCCC=c1ncc(=CC(Cc2cccs2)C(=O)[O-])n1Cc1ccc(C)c(C([NH-])=O)c1 (protonated)
CCCC=c1ncc(=C[C@H](Cc2cccs2)C(=O)[O-])n1Cc1ccc(C)c(C([NH-])=O)c1 (chirality)
CCCC=c1nc/c(=C\[C@H](Cc2cccs2)C(=O)[O-])n1Cc1ccc(C)c(C([NH-])=O)c1 (cis-trans isomerization)
CCCC=c1nc/c(=C\[C@H](Cc2cccs2)C(=O)[O-])n1Cc1ccc(C)c(C([NH-])=O)c1 (3D coordinates assigned)
CCCC=c1nc/c(=C\[C@H](Cc2cccs2)C(=O)[O-])n1Cc1ccc(C)c(C([NH-])=O)c1 (optimized conformer: 122.36591122848098 kcal/mol)

>  <smiles>  (21) 
CCCC=c1ncc(=CC(Cc2cccs2)C(=O)O)n1Cc1ccc(C)c(C(N)=O)c1

>  <score_type>  (21) 
oracle

>  <origin>  (21) 
adg

>  <m_score__min__energy>  (21) 
-13.09

>  <m_primary>  (21) 
energy

$$$$
21:0
     RDKit          3D

 67 71  0  0  1  0  0  0  0  0999 V2000
   63.0130   34.1890   46.3700 O   0  0  0  0  0  0  0  0  0  0  0  0
   63.2400   33.6560   47.4900 C   0  0  0  0  0  0  0  0  0  0  0  0
   64.5070   33.1580   47.7670 O   0  0  0  0  0  0  0  0  0  0  0  0
   62.1830   33.5380   48.5400 C   0  0  0  0  0  0  0  0  0  0  0  0
   61.4490   32.2510   48.3580 C   0  0  0  0  0  0  0  0  0  0  0  0
   61.8690   31.2730   47.4840 C   0  0  0  0  0  0  0  0  0  0  0  0
   61.1340   30.1150   47.3770 C   0  0  0  0  0  0  0  0  0  0  0  0
   59.9750   29.9240   48.1400 C   0  0  0  0  0  0  0  0  0  0  0  0
   59.2510   28.7430   48.0110 O   0  0  0  0  0  0  0  0  0  0  0  0
   58.6180   28.3750   46.8370 C   0  0  0  0  0  0  0  0  0  0  0  0
   58.4960   29.3360   45.8550 C   0  0  0  0  0  0  0  0  0  0  0  0
   57.8740   29.0350   44.6590 C   0  0  0  0  0  0  0  0  0  0  0  0
   57.7280   29.8910   43.7020 N   0  0  0  0  0  0  0  0  0  0  0  0
   57.0860   31.1290   43.9780 C   0  0  0  0  0  0  0  0  0  0  0  0
   55.9550   31.1530   44.5180 O   0  0  0  0  0  0  0  0  0  0  0  0
   57.8040   32.3800   43.6020 C   0  0  0  0  0  0  0  0  0  0  0  0
   58.2260   33.1310   44.8140 C   0  0  0  0  0  0  0  0  0  0  0  0
   57.7230   32.8720   46.0750 C   0  0  0  0  0  0  0  0  0  0  0  0
   58.1500   33.6030   47.1830 C   0  0  0  0  0  0  0  0  0  0  0  0
   59.0780   34.5930   47.0400 C   0  0  0  0  0  0  0  0  0  0  0  0
   59.6000   34.8760   45.7960 C   0  0  0  0  0  0  0  0  0  0  0  0
   59.1630   34.1420   44.7200 C   0  0  0  0  0  0  0  0  0  0  0  0
   57.3930   27.7880   44.4750 N   0  0  0  0  0  0  0  0  0  0  0  0
   57.5050   26.8310   45.4330 C   0  0  0  0  0  0  0  0  0  0  0  0
   57.0020   25.5120   45.2500 N   0  0  0  0  0  0  0  0  0  0  0  0
   57.4670   24.4790   44.3380 C   0  0  0  0  0  0  0  0  0  0  0  0
   56.2450   23.7470   43.8690 C   0  0  0  0  0  0  0  0  0  0  0  0
   55.2470   24.0100   44.9720 C   0  0  0  0  0  0  0  0  0  0  0  0
   55.8920   24.9230   45.9610 C   0  0  0  0  0  0  0  0  0  0  0  0
   58.1230   27.1530   46.6040 N   0  0  0  0  0  0  0  0  0  0  0  0
   59.5710   30.9210   49.0130 C   0  0  0  0  0  0  0  0  0  0  0  0
   58.4030   30.6890   49.7600 O   0  0  0  0  0  0  0  0  0  0  0  0
   58.2250   31.5810   50.8660 C   0  0  0  0  0  0  0  0  0  0  0  0
   57.3880   30.9690   51.9170 C   0  0  0  0  0  0  0  0  0  0  0  0
   57.0760   31.5890   53.1140 C   0  0  0  0  0  0  0  0  0  0  0  0
   56.2980   30.7830   53.8670 N   0  0  0  0  0  0  0  0  0  0  0  0
   56.1280   29.6720   53.1430 C   0  0  0  0  0  0  0  0  0  0  0  0
   56.7830   29.7680   51.9570 N   0  0  0  0  0  0  0  0  0  0  0  0
   60.2970   32.0850   49.1300 C   0  0  0  0  0  0  0  0  0  0  0  0
   64.8770   32.3820   47.1960 H   0  0  0  0  0  0  0  0  0  0  0  0
   62.6503   33.5570   49.5356 H   0  0  0  0  0  0  0  0  0  0  0  0
   61.4798   34.3792   48.4514 H   0  0  0  0  0  0  0  0  0  0  0  0
   62.7779   31.4155   46.8810 H   0  0  0  0  0  0  0  0  0  0  0  0
   61.4613   29.3276   46.6821 H   0  0  0  0  0  0  0  0  0  0  0  0
   58.8958   30.3465   46.0251 H   0  0  0  0  0  0  0  0  0  0  0  0
   58.6942   32.1209   43.0101 H   0  0  0  0  0  0  0  0  0  0  0  0
   57.1241   33.0136   43.0135 H   0  0  0  0  0  0  0  0  0  0  0  0
   56.9743   32.0770   46.2066 H   0  0  0  0  0  0  0  0  0  0  0  0
   57.7365   33.3803   48.1777 H   0  0  0  0  0  0  0  0  0  0  0  0
   59.4099   35.1659   47.9184 H   0  0  0  0  0  0  0  0  0  0  0  0
   60.3492   35.6712   45.6678 H   0  0  0  0  0  0  0  0  0  0  0  0
   59.5821   34.3718   43.7293 H   0  0  0  0  0  0  0  0  0  0  0  0
   56.9070   27.4940   43.5850 H   0  0  0  0  0  0  0  0  0  0  0  0
   57.9898   24.9332   43.4834 H   0  0  0  0  0  0  0  0  0  0  0  0
   58.1741   23.7978   44.8341 H   0  0  0  0  0  0  0  0  0  0  0  0
   55.8880   24.1481   42.9090 H   0  0  0  0  0  0  0  0  0  0  0  0
   56.4227   22.6761   43.6915 H   0  0  0  0  0  0  0  0  0  0  0  0
   54.3460   24.4847   44.5563 H   0  0  0  0  0  0  0  0  0  0  0  0
   54.9502   23.0674   45.4551 H   0  0  0  0  0  0  0  0  0  0  0  0
   55.1858   25.7000   46.2890 H   0  0  0  0  0  0  0  0  0  0  0  0
   56.2152   24.3910   46.8679 H   0  0  0  0  0  0  0  0  0  0  0  0
   59.2096   31.8277   51.2899 H   0  0  0  0  0  0  0  0  0  0  0  0
   57.7200   32.4885   50.5034 H   0  0  0  0  0  0  0  0  0  0  0  0
   57.4132   32.5935   53.4093 H   0  0  0  0  0  0  0  0  0  0  0  0
   55.9000   30.9840   54.8310 H   0  0  0  0  0  0  0  0  0  0  0  0
   55.5388   28.8002   53.4637 H   0  0  0  0  0  0  0  0  0  0  0  0
   59.9734   32.8751   49.8235 H   0  0  0  0  0  0  0  0  0  0  0  0
  1  2  2  0
  2  3  1  0
  2  4  1  0
  4  5  1  0
  5  6  2  0
  6  7  1  0
  7  8  2  0
  8  9  1  0
  9 10  1  0
 10 11  2  0
 11 12  1  0
 12 13  2  0
 13 14  1  0
 14 15  2  0
 14 16  1  0
 16 17  1  0
 17 18  2  0
 18 19  1  0
 19 20  2  0
 20 21  1  0
 21 22  2  0
 12 23  1  0
 23 24  1  0
 24 25  1  0
 25 26  1  0
 26 27  1  0
 27 28  1  0
 28 29  1  0
 24 30  2  0
  8 31  1  0
 31 32  1  0
 32 33  1  0
 33 34  1  0
 34 35  2  0
 35 36  1  0
 36 37  1  0
 37 38  2  0
 31 39  2  0
 39  5  1  0
 30 10  1  0
 38 34  1  0
 22 17  1  0
 29 25  1  0
  3 40  1  0
  4 41  1  0
  4 42  1  0
  6 43  1  0
  7 44  1  0
 11 45  1  0
 16 46  1  0
 16 47  1  0
 18 48  1  0
 19 49  1  0
 20 50  1  0
 21 51  1  0
 22 52  1  0
 23 53  1  0
 26 54  1  0
 26 55  1  0
 27 56  1  0
 27 57  1  0
 28 58  1  0
 28 59  1  0
 29 60  1  0
 29 61  1  0
 33 62  1  0
 33 63  1  0
 35 64  1  0
 36 65  1  0
 37 66  1  0
 39 67  1  0
M  END
>  <smiles>  (22) 
O=C(O)Cc1ccc(Oc2cc(=NC(=O)Cc3ccccc3)[nH]c(N3CCCC3)n2)c(OCc2c[nH]cn2)c1

>  <score_type>  (22) 
oracle

>  <origin>  (22) 
adg

>  <m_score__min__energy>  (22) 
-10.84

>  <m_primary>  (22) 
energy

$$$$
22:0
     RDKit          3D

 41 43  0  0  0  0  0  0  0  0999 V2000
   58.1889   33.1637   42.4680 H   0  0  0  0  0  0  0  0  0  0  0  0
   58.0260   32.9730   43.5390 C   0  0  0  0  0  0  0  0  0  0  0  0
   58.4200   34.0150   44.8010 S   0  0  0  0  0  0  0  0  0  0  0  0
   57.8620   32.9600   45.9950 C   0  0  0  0  0  0  0  0  0  0  0  0
   57.8700   33.1640   47.2810 N   0  0  0  0  0  0  0  0  0  0  0  0
   58.8230   32.6830   48.2430 C   0  0  0  0  0  0  0  0  0  0  0  0
   58.4600   32.3800   49.4120 O   0  0  0  0  0  0  0  0  0  0  0  0
   60.2610   32.5970   47.8860 C   0  0  0  0  0  0  0  0  0  0  0  0
   60.9220   33.7760   47.4890 C   0  0  0  0  0  0  0  0  0  0  0  0
   60.3729   34.7291   47.4783 H   0  0  0  0  0  0  0  0  0  0  0  0
   62.2650   33.7500   47.1090 C   0  0  0  0  0  0  0  0  0  0  0  0
   62.7654   34.6786   46.7972 H   0  0  0  0  0  0  0  0  0  0  0  0
   62.9720   32.5510   47.1240 C   0  0  0  0  0  0  0  0  0  0  0  0
   64.0276   32.5322   46.8152 H   0  0  0  0  0  0  0  0  0  0  0  0
   62.3440   31.3730   47.5300 C   0  0  0  0  0  0  0  0  0  0  0  0
   62.9092   30.4294   47.5360 H   0  0  0  0  0  0  0  0  0  0  0  0
   60.9950   31.3790   47.9320 C   0  0  0  0  0  0  0  0  0  0  0  0
   60.3840   30.0860   48.4050 C   0  0  0  0  0  0  0  0  0  0  0  0
   60.3744   30.0657   49.5048 H   0  0  0  0  0  0  0  0  0  0  0  0
   59.3537   30.0078   48.0278 H   0  0  0  0  0  0  0  0  0  0  0  0
   60.9777   29.2403   48.0278 H   0  0  0  0  0  0  0  0  0  0  0  0
   57.3780   31.8250   45.4490 N   0  0  0  0  0  0  0  0  0  0  0  0
   56.9890   31.0320   46.0090 H   0  0  0  0  0  0  0  0  0  0  0  0
   57.4570   31.8260   44.0900 C   0  0  0  0  0  0  0  0  0  0  0  0
   57.0240   30.6520   43.2620 C   0  0  0  0  0  0  0  0  0  0  0  0
   56.5956   31.0147   42.3160 H   0  0  0  0  0  0  0  0  0  0  0  0
   57.8988   30.0154   43.0632 H   0  0  0  0  0  0  0  0  0  0  0  0
   55.9900   29.8420   43.9950 C   0  0  0  0  0  0  0  0  0  0  0  0
   54.8380   29.7200   43.4990 O   0  0  0  0  0  0  0  0  0  0  0  0
   56.2600   29.2440   45.2690 N   0  0  0  0  0  0  0  0  0  0  0  0
   57.4270   28.4910   45.6250 C   0  0  0  0  0  0  0  0  0  0  0  0
   58.7220   28.9630   45.3450 C   0  0  0  0  0  0  0  0  0  0  0  0
   58.8564   29.9432   44.8642 H   0  0  0  0  0  0  0  0  0  0  0  0
   59.8390   28.1900   45.6760 C   0  0  0  0  0  0  0  0  0  0  0  0
   60.8505   28.5698   45.4696 H   0  0  0  0  0  0  0  0  0  0  0  0
   59.6720   26.9350   46.2690 C   0  0  0  0  0  0  0  0  0  0  0  0
   60.5518   26.3303   46.5340 H   0  0  0  0  0  0  0  0  0  0  0  0
   58.3870   26.4490   46.5250 C   0  0  0  0  0  0  0  0  0  0  0  0
   58.2250   25.2270   47.0890 F   0  0  0  0  0  0  0  0  0  0  0  0
   57.2680   27.2210   46.1950 C   0  0  0  0  0  0  0  0  0  0  0  0
   56.2578   26.8288   46.3840 H   0  0  0  0  0  0  0  0  0  0  0  0
  1  2  1  0
  2  3  1  0
  3  4  1  0
  4  5  2  0
  5  6  1  0
  6  7  2  0
  6  8  1  0
  8  9  2  0
  9 10  1  0
  9 11  1  0
 11 12  1  0
 11 13  2  0
 13 14  1  0
 13 15  1  0
 15 16  1  0
 15 17  2  0
 17 18  1  0
 18 19  1  0
 18 20  1  0
 18 21  1  0
  4 22  1  0
 22 23  1  0
 22 24  1  0
 24 25  1  0
 25 26  1  0
 25 27  1  0
 25 28  1  0
 28 29  2  0
 28 30  1  0
 30 31  1  0
 31 32  2  0
 32 33  1  0
 32 34  1  0
 34 35  1  0
 34 36  2  0
 36 37  1  0
 36 38  1  0
 38 39  1  0
 38 40  2  0
 40 41  1  0
 24  2  2  0
 40 31  1  0
 17  8  1  0
M  CHG  1  30  -1
M  END
>  <UniqueID>  (23) 
21

>  <SMILES>  (23) 
Cc1ccccc1C(=O)/N=c1/[nH]c(CC(=O)[N-]c2cccc(F)c2)cs1

>  <Energy>  (23) 
84.69623090489243

>  <Genealogy>  (23) 
Cc1ccccc1C(=O)N=c1[nH]c(CC(=O)[N-]c2cccc(F)c2)cs1 (protonated)
Cc1ccccc1C(=O)/N=c1/[nH]c(CC(=O)[N-]c2cccc(F)c2)cs1 (cis-trans isomerization)
Cc1ccccc1C(=O)/N=c1/[nH]c(CC(=O)[N-]c2cccc(F)c2)cs1 (3D coordinates assigned)
Cc1ccccc1C(=O)/N=c1/[nH]c(CC(=O)[N-]c2cccc(F)c2)cs1 (optimized conformer: 84.69623090489243 kcal/mol)

>  <smiles>  (23) 
Cc1ccccc1C(=O)N=c1[nH]c(CC(=O)Nc2cccc(F)c2)cs1

>  <score_type>  (23) 
oracle

>  <origin>  (23) 
adg

>  <m_score__min__energy>  (23) 
-10.42

>  <m_primary>  (23) 
energy

$$$$
23:0
     RDKit          3D

 55 58  0  0  0  0  0  0  0  0999 V2000
   59.1460   34.5800   53.9550 C   0  0  0  0  0  0  0  0  0  0  0  0
   58.5450   34.3040   52.6930 O   0  0  0  0  0  0  0  0  0  0  0  0
   58.3320   33.0140   52.1760 C   0  0  0  0  0  0  0  0  0  0  0  0
   57.7230   31.9990   52.9450 C   0  0  0  0  0  0  0  0  0  0  0  0
   57.4780   30.7410   52.3910 C   0  0  0  0  0  0  0  0  0  0  0  0
   57.8320   30.4790   51.0680 C   0  0  0  0  0  0  0  0  0  0  0  0
   58.4400   31.4720   50.2970 C   0  0  0  0  0  0  0  0  0  0  0  0
   58.7140   32.7340   50.8450 C   0  0  0  0  0  0  0  0  0  0  0  0
   59.3210   33.7350   50.0130 N   0  0  0  0  0  0  0  0  0  0  0  0
   59.1740   33.7690   48.5850 C   0  0  0  0  0  0  0  0  0  0  0  0
   58.2300   33.1430   48.0330 O   0  0  0  0  0  0  0  0  0  0  0  0
   60.0750   34.5260   47.7660 N   0  0  0  0  0  0  0  0  0  0  0  0
   60.6520   34.0610   46.5060 C   0  0  0  0  0  0  0  0  0  0  0  0
   61.3260   32.6940   46.6780 C   0  0  0  0  0  0  0  0  0  0  0  0
   60.3260   31.6240   46.6910 N   0  0  0  0  0  0  0  0  0  0  0  0
   59.2880   31.5060   45.8290 C   0  0  0  0  0  0  0  0  0  0  0  0
   58.5480   30.3720   46.1260 C   0  0  0  0  0  0  0  0  0  0  0  0
   57.0630   29.8180   45.2850 S   0  0  0  0  0  0  0  0  0  0  0  0
   57.8890   28.4490   44.3970 C   0  0  0  0  0  0  0  0  0  0  0  0
   57.9250   27.1970   45.2360 C   0  0  0  0  0  0  0  0  0  0  0  0
   59.1540   26.5550   45.4640 C   0  0  0  0  0  0  0  0  0  0  0  0
   59.2180   25.4170   46.2750 C   0  0  0  0  0  0  0  0  0  0  0  0
   58.0560   24.9070   46.8590 C   0  0  0  0  0  0  0  0  0  0  0  0
   56.8280   25.5380   46.6410 C   0  0  0  0  0  0  0  0  0  0  0  0
   56.7550   26.6800   45.8350 C   0  0  0  0  0  0  0  0  0  0  0  0
   55.5220   27.2960   45.6480 O   0  0  0  0  0  0  0  0  0  0  0  0
   59.1700   29.7780   47.2040 C   0  0  0  0  0  0  0  0  0  0  0  0
   58.8460   28.6320   47.9280 C   0  0  0  0  0  0  0  0  0  0  0  0
   59.6650   28.2920   49.0170 C   0  0  0  0  0  0  0  0  0  0  0  0
   60.7800   29.0900   49.3500 C   0  0  0  0  0  0  0  0  0  0  0  0
   61.0870   30.2380   48.5950 C   0  0  0  0  0  0  0  0  0  0  0  0
   60.2510   30.5620   47.5230 C   0  0  0  0  0  0  0  0  0  0  0  0
   58.4659   34.2677   54.7612 H   0  0  0  0  0  0  0  0  0  0  0  0
   60.0929   34.0265   54.0391 H   0  0  0  0  0  0  0  0  0  0  0  0
   59.3432   35.6589   54.0391 H   0  0  0  0  0  0  0  0  0  0  0  0
   57.4393   32.2006   53.9885 H   0  0  0  0  0  0  0  0  0  0  0  0
   57.0051   29.9556   52.9990 H   0  0  0  0  0  0  0  0  0  0  0  0
   57.6322   29.4894   50.6313 H   0  0  0  0  0  0  0  0  0  0  0  0
   58.7065   31.2627   49.2505 H   0  0  0  0  0  0  0  0  0  0  0  0
   59.7750   34.5490   50.4850 H   0  0  0  0  0  0  0  0  0  0  0  0
   59.8529   33.9755   45.7549 H   0  0  0  0  0  0  0  0  0  0  0  0
   61.4122   34.7867   46.1812 H   0  0  0  0  0  0  0  0  0  0  0  0
   62.0231   32.5271   45.8436 H   0  0  0  0  0  0  0  0  0  0  0  0
   61.8684   32.6840   47.6349 H   0  0  0  0  0  0  0  0  0  0  0  0
   59.0646   32.2079   45.0120 H   0  0  0  0  0  0  0  0  0  0  0  0
   57.3396   28.2417   43.4668 H   0  0  0  0  0  0  0  0  0  0  0  0
   58.9238   28.7508   44.1777 H   0  0  0  0  0  0  0  0  0  0  0  0
   60.0710   26.9496   45.0021 H   0  0  0  0  0  0  0  0  0  0  0  0
   60.1846   24.9231   46.4531 H   0  0  0  0  0  0  0  0  0  0  0  0
   58.1075   24.0081   47.4909 H   0  0  0  0  0  0  0  0  0  0  0  0
   55.9153   25.1355   47.1047 H   0  0  0  0  0  0  0  0  0  0  0  0
   57.9776   28.0143   47.6555 H   0  0  0  0  0  0  0  0  0  0  0  0
   59.4357   27.3974   49.6145 H   0  0  0  0  0  0  0  0  0  0  0  0
   61.4138   28.8133   50.2054 H   0  0  0  0  0  0  0  0  0  0  0  0
   61.9591   30.8615   48.8416 H   0  0  0  0  0  0  0  0  0  0  0  0
  1  2  1  0
  2  3  1  0
  3  4  2  0
  4  5  1  0
  5  6  2  0
  6  7  1  0
  7  8  2  0
  8  9  1  0
  9 10  1  0
 10 11  2  0
 10 12  1  0
 12 13  1  0
 13 14  1  0
 14 15  1  0
 15 16  1  0
 16 17  2  0
 17 18  1  0
 18 19  1  0
 19 20  1  0
 20 21  2  0
 21 22  1  0
 22 23  2  0
 23 24  1  0
 24 25  2  0
 25 26  1  0
 17 27  1  0
 27 28  2  0
 28 29  1  0
 29 30  2  0
 30 31  1  0
 31 32  2  0
  8  3  1  0
 32 15  1  0
 25 20  1  0
 32 27  1  0
  1 33  1  0
  1 34  1  0
  1 35  1  0
  4 36  1  0
  5 37  1  0
  6 38  1  0
  7 39  1  0
  9 40  1  0
 13 41  1  0
 13 42  1  0
 14 43  1  0
 14 44  1  0
 16 45  1  0
 19 46  1  0
 19 47  1  0
 21 48  1  0
 22 49  1  0
 23 50  1  0
 24 51  1  0
 28 52  1  0
 29 53  1  0
 30 54  1  0
 31 55  1  0
M  CHG  2  12  -1  26  -1
M  END
>  <UniqueID>  (24) 
22

>  <SMILES>  (24) 
COc1ccccc1NC(=O)[N-]CCn1cc(SCc2ccccc2[O-])c2ccccc21

>  <Energy>  (24) 
86.37466665319675

>  <Genealogy>  (24) 
COc1ccccc1NC(=O)[N-]CCn1cc(SCc2ccccc2[O-])c2ccccc21 (protonated)
COc1ccccc1NC(=O)[N-]CCn1cc(SCc2ccccc2[O-])c2ccccc21 (3D coordinates assigned)
COc1ccccc1NC(=O)[N-]CCn1cc(SCc2ccccc2[O-])c2ccccc21 (optimized conformer: 86.37466665319675 kcal/mol)

>  <smiles>  (24) 
COc1ccccc1NC(=O)NCCn1cc(SCc2ccccc2O)c2ccccc21

>  <score_type>  (24) 
oracle

>  <origin>  (24) 
adg

>  <m_score__min__energy>  (24) 
-14

>  <m_primary>  (24) 
energy

$$$$
24:0
     RDKit          3D

 33 35  0  0  0  0  0  0  0  0999 V2000
   56.2130   30.4720   43.2470 O   0  0  0  0  0  0  0  0  0  0  0  0
   56.6330   30.4200   44.4330 C   0  0  0  0  0  0  0  0  0  0  0  0
   56.3240   29.2640   45.2200 N   0  0  0  0  0  0  0  0  0  0  0  0
   57.4920   28.2240   45.9690 S   0  0  0  0  0  0  0  0  0  0  0  0
   58.6000   27.9240   44.9990 O   0  0  0  0  0  0  0  0  0  0  0  0
   56.8120   26.9410   46.3560 O   0  0  0  0  0  0  0  0  0  0  0  0
   58.1280   29.0000   47.3880 N   0  0  0  0  0  0  0  0  0  0  0  0
   59.2460   29.6630   47.4770 C   0  0  0  0  0  0  0  0  0  0  0  0
   59.6820   30.2500   48.6830 C   0  0  0  0  0  0  0  0  0  0  0  0
   60.8920   30.9430   48.7140 C   0  0  0  0  0  0  0  0  0  0  0  0
   61.6610   31.0530   47.5560 C   0  0  0  0  0  0  0  0  0  0  0  0
   63.3200   32.0000   47.5850 Br  0  0  0  0  0  0  0  0  0  0  0  0
   61.2040   30.4650   46.3760 C   0  0  0  0  0  0  0  0  0  0  0  0
   60.0220   29.7900   46.3600 N   0  0  0  0  0  0  0  0  0  0  0  0
   57.4250   31.5480   44.9570 C   0  0  0  0  0  0  0  0  0  0  0  0
   57.8570   32.6330   44.1960 C   0  0  0  0  0  0  0  0  0  0  0  0
   58.5090   33.4560   45.0870 C   0  0  0  0  0  0  0  0  0  0  0  0
   59.1440   34.6820   44.8940 C   0  0  0  0  0  0  0  0  0  0  0  0
   59.7180   35.3060   46.0170 C   0  0  0  0  0  0  0  0  0  0  0  0
   59.6430   34.6990   47.2900 C   0  0  0  0  0  0  0  0  0  0  0  0
   58.9920   33.4620   47.4520 C   0  0  0  0  0  0  0  0  0  0  0  0
   58.4380   32.8650   46.3210 C   0  0  0  0  0  0  0  0  0  0  0  0
   57.7700   31.7020   46.2580 N   0  0  0  0  0  0  0  0  0  0  0  0
   59.0714   30.1618   49.5937 H   0  0  0  0  0  0  0  0  0  0  0  0
   61.2394   31.4024   49.6512 H   0  0  0  0  0  0  0  0  0  0  0  0
   61.8008   30.5472   45.4557 H   0  0  0  0  0  0  0  0  0  0  0  0
   59.7080   29.3600   45.4610 H   0  0  0  0  0  0  0  0  0  0  0  0
   57.7092   32.7963   43.1183 H   0  0  0  0  0  0  0  0  0  0  0  0
   59.1946   35.1457   43.8978 H   0  0  0  0  0  0  0  0  0  0  0  0
   60.2288   36.2735   45.9026 H   0  0  0  0  0  0  0  0  0  0  0  0
   60.0963   35.1962   48.1602 H   0  0  0  0  0  0  0  0  0  0  0  0
   58.9226   32.9818   48.4392 H   0  0  0  0  0  0  0  0  0  0  0  0
   57.5280   31.0800   47.0590 H   0  0  0  0  0  0  0  0  0  0  0  0
  1  2  2  0
  2  3  1  0
  3  4  1  0
  4  5  2  0
  4  6  2  0
  4  7  1  0
  7  8  2  3
  8  9  1  0
  9 10  2  0
 10 11  1  0
 11 12  1  0
 11 13  2  0
 13 14  1  0
  2 15  1  0
 15 16  2  0
 16 17  1  0
 17 18  2  0
 18 19  1  0
 19 20  2  0
 20 21  1  0
 21 22  2  0
 22 23  1  0
 14  8  1  0
 23 15  1  0
 22 17  1  0
  9 24  1  0
 10 25  1  0
 13 26  1  0
 14 27  1  0
 16 28  1  0
 18 29  1  0
 19 30  1  0
 20 31  1  0
 21 32  1  0
 23 33  1  0
M  CHG  1   3  -1
M  END
>  <UniqueID>  (25) 
23

>  <SMILES>  (25) 
O=C([N-]S(=O)(=O)N=c1ccc(Br)c[nH]1)c1cc2ccccc2[nH]1

>  <Energy>  (25) 
78.68509740742704

>  <Genealogy>  (25) 
O=C([N-]S(=O)(=O)N=c1ccc(Br)c[nH]1)c1cc2ccccc2[nH]1 (protonated)
O=C([N-]S(=O)(=O)N=c1ccc(Br)c[nH]1)c1cc2ccccc2[nH]1 (3D coordinates assigned)
O=C([N-]S(=O)(=O)N=c1ccc(Br)c[nH]1)c1cc2ccccc2[nH]1 (optimized conformer: 78.68509740742704 kcal/mol)

>  <smiles>  (25) 
O=C(NS(=O)(=O)N=c1ccc(Br)c[nH]1)c1cc2ccccc2[nH]1

>  <score_type>  (25) 
oracle

>  <origin>  (25) 
adg

>  <m_score__min__energy>  (25) 
-9.7300000000000004

>  <m_primary>  (25) 
energy

$$$$
25:0
     RDKit          3D

 49 51  0  0  0  0  0  0  0  0999 V2000
   60.9868   29.6168   45.4789 H   0  0  0  0  0  0  0  0  0  0  0  0
   60.4420   29.6480   46.4340 C   0  0  0  0  0  0  0  0  0  0  0  0
   60.3040   30.8590   47.1200 C   0  0  0  0  0  0  0  0  0  0  0  0
   60.7348   31.7795   46.6991 H   0  0  0  0  0  0  0  0  0  0  0  0
   59.6170   30.9040   48.3450 C   0  0  0  0  0  0  0  0  0  0  0  0
   59.4720   32.2030   49.1020 C   0  0  0  0  0  0  0  0  0  0  0  0
   60.3546   32.3446   49.7430 H   0  0  0  0  0  0  0  0  0  0  0  0
   58.5553   32.1513   49.7077 H   0  0  0  0  0  0  0  0  0  0  0  0
   59.3570   33.3570   48.1760 N   0  0  0  0  0  0  0  0  0  0  0  0
   58.2690   33.4090   47.3360 C   0  0  0  0  0  0  0  0  0  0  0  0
   57.2390   32.7260   47.6010 O   0  0  0  0  0  0  0  0  0  0  0  0
   58.3040   34.1630   46.1910 N   0  0  0  0  0  0  0  0  0  0  0  0
   57.1750   34.1370   45.2410 C   0  0  0  0  0  0  0  0  0  0  0  0
   56.2587   33.8423   45.7735 H   0  0  0  0  0  0  0  0  0  0  0  0
   57.0500   35.1390   44.8046 H   0  0  0  0  0  0  0  0  0  0  0  0
   57.4520   33.1340   44.1180 C   0  0  0  0  0  0  0  0  0  0  0  0
   56.8583   33.4083   43.2335 H   0  0  0  0  0  0  0  0  0  0  0  0
   58.5252   33.1576   43.8777 H   0  0  0  0  0  0  0  0  0  0  0  0
   57.0910   31.7760   44.5390 C   0  0  0  0  0  0  0  0  0  0  0  0
   56.8070   30.7050   44.8730 N   0  0  0  0  0  0  0  0  0  0  0  0
   59.4400   34.8600   45.8960 C   0  0  0  0  0  0  0  0  0  0  0  0
   59.5570   35.4780   44.8020 O   0  0  0  0  0  0  0  0  0  0  0  0
   60.4460   34.9250   46.7940 N   0  0  0  0  0  0  0  0  0  0  0  0
   60.3840   34.2570   47.9690 C   0  0  0  0  0  0  0  0  0  0  0  0
   61.2810   34.5600   48.8700 N   0  0  0  0  0  0  0  0  0  0  0  0
   62.4700   33.8570   49.2600 C   0  0  0  0  0  0  0  0  0  0  0  0
   62.9990   32.8830   48.4060 C   0  0  0  0  0  0  0  0  0  0  0  0
   62.4839   32.6426   47.4642 H   0  0  0  0  0  0  0  0  0  0  0  0
   64.1790   32.2140   48.7440 C   0  0  0  0  0  0  0  0  0  0  0  0
   64.5755   31.4358   48.0752 H   0  0  0  0  0  0  0  0  0  0  0  0
   64.8600   32.5260   49.9260 C   0  0  0  0  0  0  0  0  0  0  0  0
   66.0360   31.8220   50.2220 O   0  0  0  0  0  0  0  0  0  0  0  0
   67.0430   32.2790   51.1210 C   0  0  0  0  0  0  0  0  0  0  0  0
   67.7491   31.4611   51.3269 H   0  0  0  0  0  0  0  0  0  0  0  0
   66.5743   32.6046   52.0613 H   0  0  0  0  0  0  0  0  0  0  0  0
   67.7890   33.4470   50.4960 C   0  0  0  0  0  0  0  0  0  0  0  0
   68.1984   34.0880   51.2907 H   0  0  0  0  0  0  0  0  0  0  0  0
   68.6111   33.0656   49.8726 H   0  0  0  0  0  0  0  0  0  0  0  0
   67.0972   34.0325   49.8726 H   0  0  0  0  0  0  0  0  0  0  0  0
   64.3480   33.5330   50.7680 C   0  0  0  0  0  0  0  0  0  0  0  0
   64.8772   33.7926   51.6967 H   0  0  0  0  0  0  0  0  0  0  0  0
   63.1700   34.2030   50.4270 C   0  0  0  0  0  0  0  0  0  0  0  0
   62.7892   35.0054   51.0760 H   0  0  0  0  0  0  0  0  0  0  0  0
   59.0590   29.7230   48.8650 C   0  0  0  0  0  0  0  0  0  0  0  0
   58.5116   29.7494   49.8188 H   0  0  0  0  0  0  0  0  0  0  0  0
   59.1970   28.5160   48.1750 C   0  0  0  0  0  0  0  0  0  0  0  0
   58.7606   27.5948   48.5884 H   0  0  0  0  0  0  0  0  0  0  0  0
   59.8880   28.4760   46.9610 C   0  0  0  0  0  0  0  0  0  0  0  0
   60.0610   26.9590   46.0970 Cl  0  0  0  0  0  0  0  0  0  0  0  0
  1  2  1  0
  2  3  2  0
  3  4  1  0
  3  5  1  0
  5  6  1  0
  6  7  1  0
  6  8  1  0
  6  9  1  0
  9 10  1  0
 10 11  2  0
 10 12  1  0
 12 13  1  0
 13 14  1  0
 13 15  1  0
 13 16  1  0
 16 17  1  0
 16 18  1  0
 16 19  1  0
 19 20  3  0
 12 21  1  0
 21 22  2  0
 21 23  1  0
 23 24  1  0
 24 25  2  0
 25 26  1  0
 26 27  2  0
 27 28  1  0
 27 29  1  0
 29 30  1  0
 29 31  2  0
 31 32  1  0
 32 33  1  0
 33 34  1  0
 33 35  1  0
 33 36  1  0
 36 37  1  0
 36 38  1  0
 36 39  1  0
 31 40  1  0
 40 41  1  0
 40 42  2  0
 42 43  1  0
  5 44  2  0
 44 45  1  0
 44 46  1  0
 46 47  1  0
 46 48  2  0
 48 49  1  0
 48  2  1  0
 24  9  1  0
 42 26  1  0
M  CHG  1  23  -1
M  END
>  <UniqueID>  (26) 
24

>  <SMILES>  (26) 
CCOc1ccc(/N=c2/[n-]c(=O)n(CCC#N)c(=O)n2Cc2ccc(Cl)cc2)cc1

>  <Energy>  (26) 
72.50967166272984

>  <Genealogy>  (26) 
CCOc1ccc(N=c2[n-]c(=O)n(CCC#N)c(=O)n2Cc2ccc(Cl)cc2)cc1 (protonated)
CCOc1ccc(/N=c2/[n-]c(=O)n(CCC#N)c(=O)n2Cc2ccc(Cl)cc2)cc1 (cis-trans isomerization)
CCOc1ccc(/N=c2/[n-]c(=O)n(CCC#N)c(=O)n2Cc2ccc(Cl)cc2)cc1 (3D coordinates assigned)
CCOc1ccc(/N=c2/[n-]c(=O)n(CCC#N)c(=O)n2Cc2ccc(Cl)cc2)cc1 (optimized conformer: 72.50967166272984 kcal/mol)

>  <smiles>  (26) 
CCOc1ccc(N=c2[nH]c(=O)n(CCC#N)c(=O)n2Cc2ccc(Cl)cc2)cc1

>  <score_type>  (26) 
oracle

>  <origin>  (26) 
adg

>  <m_score__min__energy>  (26) 
-9.25

>  <m_primary>  (26) 
energy

$$$$
26:0
     RDKit          3D

 51 54  0  0  0  0  0  0  0  0999 V2000
   53.5336   24.0522   45.7643 H   0  0  0  0  0  0  0  0  0  0  0  0
   54.5320   24.4930   45.9020 C   0  0  0  0  0  0  0  0  0  0  0  0
   54.7230   25.8210   45.6860 N   0  0  0  0  0  0  0  0  0  0  0  0
   55.9430   26.4100   45.8490 C   0  0  0  0  0  0  0  0  0  0  0  0
   56.1090   27.6810   45.6220 N   0  0  0  0  0  0  0  0  0  0  0  0
   57.3740   28.4010   45.7680 C   0  0  0  0  0  0  0  0  0  0  0  0
   58.1989   27.7489   45.4452 H   0  0  0  0  0  0  0  0  0  0  0  0
   57.4981   28.6831   46.8239 H   0  0  0  0  0  0  0  0  0  0  0  0
   57.3790   29.6540   44.9310 C   0  0  0  0  0  0  0  0  0  0  0  0
   56.8500   29.6430   43.6300 C   0  0  0  0  0  0  0  0  0  0  0  0
   56.3905   28.7257   43.2332 H   0  0  0  0  0  0  0  0  0  0  0  0
   56.9050   30.7920   42.8380 C   0  0  0  0  0  0  0  0  0  0  0  0
   56.4903   30.7773   41.8193 H   0  0  0  0  0  0  0  0  0  0  0  0
   57.4860   31.9600   43.3380 C   0  0  0  0  0  0  0  0  0  0  0  0
   57.5429   32.8567   42.7034 H   0  0  0  0  0  0  0  0  0  0  0  0
   57.9970   31.9970   44.6430 C   0  0  0  0  0  0  0  0  0  0  0  0
   58.6390   33.1940   45.1120 N   0  0  0  0  0  0  0  0  0  0  0  0
   59.2340   33.7160   44.4320 H   0  0  0  0  0  0  0  0  0  0  0  0
   58.5190   33.6890   46.4570 C   0  0  0  0  0  0  0  0  0  0  0  0
   57.5360   33.3490   47.1700 O   0  0  0  0  0  0  0  0  0  0  0  0
   59.5270   34.5300   47.0290 N   0  0  0  0  0  0  0  0  0  0  0  0
   60.8480   34.1060   47.3850 C   0  0  0  0  0  0  0  0  0  0  0  0
   61.7980   33.8420   46.3850 C   0  0  0  0  0  0  0  0  0  0  0  0
   61.5024   33.8765   45.3260 H   0  0  0  0  0  0  0  0  0  0  0  0
   63.1160   33.5360   46.7290 C   0  0  0  0  0  0  0  0  0  0  0  0
   63.8517   33.3129   45.9423 H   0  0  0  0  0  0  0  0  0  0  0  0
   63.5010   33.5130   48.0710 C   0  0  0  0  0  0  0  0  0  0  0  0
   64.5412   33.2772   48.3401 H   0  0  0  0  0  0  0  0  0  0  0  0
   62.5670   33.7890   49.0720 C   0  0  0  0  0  0  0  0  0  0  0  0
   62.8791   33.7863   50.1268 H   0  0  0  0  0  0  0  0  0  0  0  0
   61.2360   34.0690   48.7410 C   0  0  0  0  0  0  0  0  0  0  0  0
   60.3270   34.3280   49.7770 O   0  0  0  0  0  0  0  0  0  0  0  0
   59.4820   33.3670   50.3520 C   0  0  0  0  0  0  0  0  0  0  0  0
   58.8950   33.6380   51.5940 C   0  0  0  0  0  0  0  0  0  0  0  0
   59.1174   34.5839   52.1096 H   0  0  0  0  0  0  0  0  0  0  0  0
   58.0280   32.7130   52.1820 C   0  0  0  0  0  0  0  0  0  0  0  0
   57.5590   32.9389   53.1511 H   0  0  0  0  0  0  0  0  0  0  0  0
   57.7560   31.5020   51.5410 C   0  0  0  0  0  0  0  0  0  0  0  0
   57.0644   30.7803   52.0001 H   0  0  0  0  0  0  0  0  0  0  0  0
   58.3620   31.2070   50.3170 C   0  0  0  0  0  0  0  0  0  0  0  0
   58.1581   30.2473   49.8196 H   0  0  0  0  0  0  0  0  0  0  0  0
   59.2280   32.1320   49.7240 C   0  0  0  0  0  0  0  0  0  0  0  0
   59.7117   31.8943   48.7651 H   0  0  0  0  0  0  0  0  0  0  0  0
   57.9480   30.8340   45.4330 C   0  0  0  0  0  0  0  0  0  0  0  0
   58.3594   30.8500   46.4531 H   0  0  0  0  0  0  0  0  0  0  0  0
   57.0340   25.6340   46.2570 C   0  0  0  0  0  0  0  0  0  0  0  0
   58.0210   26.0975   46.4023 H   0  0  0  0  0  0  0  0  0  0  0  0
   56.8590   24.2670   46.4780 C   0  0  0  0  0  0  0  0  0  0  0  0
   57.7108   23.6465   46.7933 H   0  0  0  0  0  0  0  0  0  0  0  0
   55.6000   23.6880   46.2980 C   0  0  0  0  0  0  0  0  0  0  0  0
   55.4531   22.6110   46.4665 H   0  0  0  0  0  0  0  0  0  0  0  0
  1  2  1  0
  2  3  1  0
  3  4  1  0
  4  5  2  0
  5  6  1  0
  6  7  1  0
  6  8  1  0
  6  9  1  0
  9 10  2  0
 10 11  1  0
 10 12  1  0
 12 13  1  0
 12 14  2  0
 14 15  1  0
 14 16  1  0
 16 17  1  0
 17 18  1  0
 17 19  1  0
 19 20  2  0
 19 21  1  0
 21 22  1  0
 22 23  2  0
 23 24  1  0
 23 25  1  0
 25 26  1  0
 25 27  2  0
 27 28  1  0
 27 29  1  0
 29 30  1  0
 29 31  2  0
 31 32  1  0
 32 33  1  0
 33 34  2  0
 34 35  1  0
 34 36  1  0
 36 37  1  0
 36 38  2  0
 38 39  1  0
 38 40  1  0
 40 41  1  0
 40 42  2  0
 42 43  1  0
 16 44  2  0
 44 45  1  0
  4 46  1  0
 46 47  1  0
 46 48  2  0
 48 49  1  0
 48 50  1  0
 50 51  1  0
 50  2  2  0
 44  9  1  0
 31 22  1  0
 42 33  1  0
M  CHG  2   3  -1  21  -1
M  END
>  <UniqueID>  (27) 
25

>  <SMILES>  (27) 
O=C([N-]c1ccccc1Oc1ccccc1)Nc1cccc(C/N=c2/cccc[n-]2)c1

>  <Energy>  (27) 
69.01622816395798

>  <Genealogy>  (27) 
O=C([N-]c1ccccc1Oc1ccccc1)Nc1cccc(CN=c2cccc[n-]2)c1 (protonated)
O=C([N-]c1ccccc1Oc1ccccc1)Nc1cccc(C/N=c2/cccc[n-]2)c1 (cis-trans isomerization)
O=C([N-]c1ccccc1Oc1ccccc1)Nc1cccc(C/N=c2/cccc[n-]2)c1 (3D coordinates assigned)
O=C([N-]c1ccccc1Oc1ccccc1)Nc1cccc(C/N=c2/cccc[n-]2)c1 (optimized conformer: 69.01622816395798 kcal/mol)

>  <smiles>  (27) 
O=C(Nc1cccc(CN=c2cccc[nH]2)c1)Nc1ccccc1Oc1ccccc1

>  <score_type>  (27) 
oracle

>  <origin>  (27) 
adg

>  <m_score__min__energy>  (27) 
-12.27

>  <m_primary>  (27) 
energy

$$$$
27:0
     RDKit          3D

 48 50  0  0  0  0  0  0  0  0999 V2000
   59.8540   25.6760   46.3880 C   0  0  0  0  0  0  0  0  0  0  0  0
   58.6420   26.5120   46.0800 C   0  0  0  0  0  0  0  0  0  0  0  0
   58.8510   27.7530   45.5660 N   0  0  0  0  0  0  0  0  0  0  0  0
   57.8350   28.5950   45.2550 C   0  0  0  0  0  0  0  0  0  0  0  0
   58.1570   29.9350   44.7040 C   0  0  0  0  0  0  0  0  0  0  0  0
   59.2850   30.1540   44.1840 O   0  0  0  0  0  0  0  0  0  0  0  0
   57.1860   30.9930   44.7570 N   0  0  0  0  0  0  0  0  0  0  0  0
   57.4230   32.3030   44.1520 C   0  0  0  0  0  0  0  0  0  0  0  0
   58.0960   33.2180   45.1380 C   0  0  0  0  0  0  0  0  0  0  0  0
   58.9450   34.2390   44.6830 C   0  0  0  0  0  0  0  0  0  0  0  0
   59.5910   35.0790   45.5960 C   0  0  0  0  0  0  0  0  0  0  0  0
   59.3960   34.9020   46.9680 C   0  0  0  0  0  0  0  0  0  0  0  0
   58.5560   33.8840   47.4290 C   0  0  0  0  0  0  0  0  0  0  0  0
   57.9090   33.0430   46.5200 C   0  0  0  0  0  0  0  0  0  0  0  0
   56.5170   28.1670   45.4710 C   0  0  0  0  0  0  0  0  0  0  0  0
   55.4300   28.9840   45.1760 O   0  0  0  0  0  0  0  0  0  0  0  0
   56.3000   26.8890   45.9960 C   0  0  0  0  0  0  0  0  0  0  0  0
   55.1130   26.5070   46.1940 O   0  0  0  0  0  0  0  0  0  0  0  0
   57.3570   26.0630   46.2930 N   0  0  0  0  0  0  0  0  0  0  0  0
   57.0790   24.7210   46.8540 C   0  0  0  0  0  0  0  0  0  0  0  0
   57.0970   23.6420   45.7810 C   0  0  0  0  0  0  0  0  0  0  0  0
   58.3100   23.3410   45.1280 C   0  0  0  0  0  0  0  0  0  0  0  0
   58.3620   22.3700   44.1270 C   0  0  0  0  0  0  0  0  0  0  0  0
   57.2050   21.6980   43.7460 C   0  0  0  0  0  0  0  0  0  0  0  0
   55.9880   22.0020   44.3530 C   0  0  0  0  0  0  0  0  0  0  0  0
   55.9100   22.9810   45.3590 C   0  0  0  0  0  0  0  0  0  0  0  0
   54.3210   23.3480   46.0520 S   0  0  0  0  0  0  0  0  0  0  0  0
   53.6560   24.7430   45.2780 N   0  0  0  0  0  0  0  0  0  0  0  0
   54.4450   23.6250   47.5250 O   0  0  0  0  0  0  0  0  0  0  0  0
   53.4020   22.1750   45.8650 O   0  0  0  0  0  0  0  0  0  0  0  0
   59.9746   25.5928   47.4782 H   0  0  0  0  0  0  0  0  0  0  0  0
   59.7269   24.6726   45.9555 H   0  0  0  0  0  0  0  0  0  0  0  0
   60.7468   26.1513   45.9555 H   0  0  0  0  0  0  0  0  0  0  0  0
   56.2740   30.8390   45.2430 H   0  0  0  0  0  0  0  0  0  0  0  0
   58.0677   32.1837   43.2687 H   0  0  0  0  0  0  0  0  0  0  0  0
   56.4582   32.7414   43.8572 H   0  0  0  0  0  0  0  0  0  0  0  0
   59.1030   34.3792   43.6035 H   0  0  0  0  0  0  0  0  0  0  0  0
   60.2529   35.8793   45.2336 H   0  0  0  0  0  0  0  0  0  0  0  0
   59.9034   35.5636   47.6855 H   0  0  0  0  0  0  0  0  0  0  0  0
   58.4041   33.7448   48.5095 H   0  0  0  0  0  0  0  0  0  0  0  0
   57.2512   32.2414   46.8871 H   0  0  0  0  0  0  0  0  0  0  0  0
   57.8444   24.4853   47.6081 H   0  0  0  0  0  0  0  0  0  0  0  0
   56.0741   24.7401   47.3011 H   0  0  0  0  0  0  0  0  0  0  0  0
   59.2270   23.8784   45.4112 H   0  0  0  0  0  0  0  0  0  0  0  0
   59.3193   22.1356   43.6385 H   0  0  0  0  0  0  0  0  0  0  0  0
   57.2509   20.9254   42.9643 H   0  0  0  0  0  0  0  0  0  0  0  0
   55.0773   21.4695   44.0413 H   0  0  0  0  0  0  0  0  0  0  0  0
   53.4870   25.4550   46.0230 H   0  0  0  0  0  0  0  0  0  0  0  0
  1  2  1  0
  2  3  2  0
  3  4  1  0
  4  5  1  0
  5  6  2  0
  5  7  1  0
  7  8  1  0
  8  9  1  0
  9 10  2  0
 10 11  1  0
 11 12  2  0
 12 13  1  0
 13 14  2  0
  4 15  2  0
 15 16  1  0
 15 17  1  0
 17 18  2  0
 17 19  1  0
 19 20  1  0
 20 21  1  0
 21 22  2  0
 22 23  1  0
 23 24  2  0
 24 25  1  0
 25 26  2  0
 26 27  1  0
 27 28  1  0
 27 29  2  0
 27 30  2  0
 19  2  1  0
 26 21  1  0
 14  9  1  0
  1 31  1  0
  1 32  1  0
  1 33  1  0
  7 34  1  0
  8 35  1  0
  8 36  1  0
 10 37  1  0
 11 38  1  0
 12 39  1  0
 13 40  1  0
 14 41  1  0
 20 42  1  0
 20 43  1  0
 22 44  1  0
 23 45  1  0
 24 46  1  0
 25 47  1  0
 28 48  1  0
M  CHG  2  16  -1  28  -1
M  END
>  <UniqueID>  (28) 
26

>  <SMILES>  (28) 
Cc1nc(C(=O)NCc2ccccc2)c([O-])c(=O)n1Cc1ccccc1S([NH-])(=O)=O

>  <Energy>  (28) 
57.49538343325953

>  <Genealogy>  (28) 
Cc1nc(C(=O)NCc2ccccc2)c([O-])c(=O)n1Cc1ccccc1S([NH-])(=O)=O (protonated)
Cc1nc(C(=O)NCc2ccccc2)c([O-])c(=O)n1Cc1ccccc1S([NH-])(=O)=O (3D coordinates assigned)
Cc1nc(C(=O)NCc2ccccc2)c([O-])c(=O)n1Cc1ccccc1S([NH-])(=O)=O (optimized conformer: 57.49538343325953 kcal/mol)

>  <smiles>  (28) 
Cc1nc(C(=O)NCc2ccccc2)c(O)c(=O)n1Cc1ccccc1S(N)(=O)=O

>  <score_type>  (28) 
oracle

>  <origin>  (28) 
adg

>  <m_score__min__energy>  (28) 
-14.390000000000001

>  <m_primary>  (28) 
energy

$$$$
28:0
     RDKit          3D

 47 49  0  0  0  0  0  0  0  0999 V2000
   54.4240   25.6570   45.6290 N   0  0  0  0  0  0  0  0  0  0  0  0
   54.3510   23.9310   45.5410 S   0  0  0  0  0  0  0  0  0  0  0  0
   54.0160   23.3980   46.9070 O   0  0  0  0  0  0  0  0  0  0  0  0
   53.2740   23.5140   44.5800 O   0  0  0  0  0  0  0  0  0  0  0  0
   55.9110   23.2850   45.0010 C   0  0  0  0  0  0  0  0  0  0  0  0
   55.9610   22.6010   43.7750 C   0  0  0  0  0  0  0  0  0  0  0  0
   57.1450   22.0080   43.3370 C   0  0  0  0  0  0  0  0  0  0  0  0
   58.2950   22.0850   44.1190 C   0  0  0  0  0  0  0  0  0  0  0  0
   58.2690   22.7690   45.3340 C   0  0  0  0  0  0  0  0  0  0  0  0
   57.0900   23.3890   45.7870 C   0  0  0  0  0  0  0  0  0  0  0  0
   57.1400   24.1360   47.0630 C   0  0  0  0  0  0  0  0  0  0  0  0
   57.3270   23.5210   48.1470 O   0  0  0  0  0  0  0  0  0  0  0  0
   56.8790   25.5450   47.0700 N   0  0  0  0  0  0  0  0  0  0  0  0
   57.5490   26.5310   46.2710 C   0  0  0  0  0  0  0  0  0  0  0  0
   58.9480   26.5550   46.1370 C   0  0  0  0  0  0  0  0  0  0  0  0
   59.5610   27.5460   45.3640 C   0  0  0  0  0  0  0  0  0  0  0  0
   58.7880   28.5130   44.7190 C   0  0  0  0  0  0  0  0  0  0  0  0
   57.3910   28.4840   44.8310 C   0  0  0  0  0  0  0  0  0  0  0  0
   56.4000   29.7300   44.0760 S   0  0  0  0  0  0  0  0  0  0  0  0
   56.7470   29.8650   42.6180 O   0  0  0  0  0  0  0  0  0  0  0  0
   54.9560   29.3320   44.1910 O   0  0  0  0  0  0  0  0  0  0  0  0
   56.6350   31.2620   44.8680 N   0  0  0  0  0  0  0  0  0  0  0  0
   57.6910   32.0420   44.2200 C   0  0  0  0  0  0  0  0  0  0  0  0
   58.2910   33.0330   45.1830 C   0  0  0  0  0  0  0  0  0  0  0  0
   58.9900   34.1520   44.7000 C   0  0  0  0  0  0  0  0  0  0  0  0
   59.5240   35.0880   45.5900 C   0  0  0  0  0  0  0  0  0  0  0  0
   59.3760   34.9080   46.9680 C   0  0  0  0  0  0  0  0  0  0  0  0
   58.6960   33.7900   47.4570 C   0  0  0  0  0  0  0  0  0  0  0  0
   58.1600   32.8510   46.5710 C   0  0  0  0  0  0  0  0  0  0  0  0
   56.7770   27.4780   45.5870 C   0  0  0  0  0  0  0  0  0  0  0  0
   55.1140   25.9720   44.9110 H   0  0  0  0  0  0  0  0  0  0  0  0
   54.8220   25.9000   46.5640 H   0  0  0  0  0  0  0  0  0  0  0  0
   55.0561   22.5323   43.1534 H   0  0  0  0  0  0  0  0  0  0  0  0
   57.1706   21.4789   42.3729 H   0  0  0  0  0  0  0  0  0  0  0  0
   59.2246   21.6059   43.7779 H   0  0  0  0  0  0  0  0  0  0  0  0
   59.1815   22.8245   45.9458 H   0  0  0  0  0  0  0  0  0  0  0  0
   59.5613   25.7934   46.6408 H   0  0  0  0  0  0  0  0  0  0  0  0
   60.6563   27.5636   45.2638 H   0  0  0  0  0  0  0  0  0  0  0  0
   59.2754   29.2982   44.1225 H   0  0  0  0  0  0  0  0  0  0  0  0
   58.4785   31.3598   43.8671 H   0  0  0  0  0  0  0  0  0  0  0  0
   57.2542   32.5925   43.3738 H   0  0  0  0  0  0  0  0  0  0  0  0
   59.1176   34.2920   43.6164 H   0  0  0  0  0  0  0  0  0  0  0  0
   60.0614   35.9674   45.2054 H   0  0  0  0  0  0  0  0  0  0  0  0
   59.7949   35.6465   47.6674 H   0  0  0  0  0  0  0  0  0  0  0  0
   58.5821   33.6482   48.5419 H   0  0  0  0  0  0  0  0  0  0  0  0
   57.6341   31.9670   46.9609 H   0  0  0  0  0  0  0  0  0  0  0  0
   55.6795   27.4313   45.6440 H   0  0  0  0  0  0  0  0  0  0  0  0
  1  2  1  0
  2  3  2  0
  2  4  2  0
  2  5  1  0
  5  6  2  0
  6  7  1  0
  7  8  2  0
  8  9  1  0
  9 10  2  0
 10 11  1  0
 11 12  2  0
 11 13  1  0
 13 14  1  0
 14 15  2  0
 15 16  1  0
 16 17  2  0
 17 18  1  0
 18 19  1  0
 19 20  2  0
 19 21  2  0
 19 22  1  0
 22 23  1  0
 23 24  1  0
 24 25  2  0
 25 26  1  0
 26 27  2  0
 27 28  1  0
 28 29  2  0
 18 30  2  0
 10  5  1  0
 30 14  1  0
 29 24  1  0
  1 31  1  0
  1 32  1  0
  6 33  1  0
  7 34  1  0
  8 35  1  0
  9 36  1  0
 15 37  1  0
 16 38  1  0
 17 39  1  0
 23 40  1  0
 23 41  1  0
 25 42  1  0
 26 43  1  0
 27 44  1  0
 28 45  1  0
 29 46  1  0
 30 47  1  0
M  CHG  2  13  -1  22  -1
M  END
>  <UniqueID>  (29) 
27

>  <SMILES>  (29) 
NS(=O)(=O)c1ccccc1C(=O)[N-]c1cccc(S(=O)(=O)[N-]Cc2ccccc2)c1

>  <Energy>  (29) 
52.41447717596121

>  <Genealogy>  (29) 
NS(=O)(=O)c1ccccc1C(=O)[N-]c1cccc(S(=O)(=O)[N-]Cc2ccccc2)c1 (protonated)
NS(=O)(=O)c1ccccc1C(=O)[N-]c1cccc(S(=O)(=O)[N-]Cc2ccccc2)c1 (3D coordinates assigned)
NS(=O)(=O)c1ccccc1C(=O)[N-]c1cccc(S(=O)(=O)[N-]Cc2ccccc2)c1 (optimized conformer: 52.41447717596121 kcal/mol)

>  <smiles>  (29) 
NS(=O)(=O)c1ccccc1C(=O)Nc1cccc(S(=O)(=O)NCc2ccccc2)c1

>  <score_type>  (29) 
oracle

>  <origin>  (29) 
adg

>  <m_score__min__energy>  (29) 
-13.82

>  <m_primary>  (29) 
energy

$$$$
29:0
     RDKit          3D

 62 66  0  0  0  0  0  0  0  0999 V2000
   67.8630   33.1920   50.6530 C   0  0  0  0  0  0  0  0  0  0  0  0
   66.7460   32.9610   49.7450 N   0  0  0  0  0  0  0  0  0  0  0  0
   65.3880   33.1870   50.1450 C   0  0  0  0  0  0  0  0  0  0  0  0
   65.1410   33.7860   51.2290 O   0  0  0  0  0  0  0  0  0  0  0  0
   64.3030   32.7990   49.2880 N   0  0  0  0  0  0  0  0  0  0  0  0
   64.1200   33.2230   48.0140 C   0  0  0  0  0  0  0  0  0  0  0  0
   62.9960   32.6250   47.4560 C   0  0  0  0  0  0  0  0  0  0  0  0
   62.4800   31.8220   48.4520 C   0  0  0  0  0  0  0  0  0  0  0  0
   61.3430   31.0210   48.4580 C   0  0  0  0  0  0  0  0  0  0  0  0
   61.0030   30.3520   49.6480 C   0  0  0  0  0  0  0  0  0  0  0  0
   59.8560   29.5460   49.6540 O   0  0  0  0  0  0  0  0  0  0  0  0
   59.5780   28.5370   48.7180 C   0  0  0  0  0  0  0  0  0  0  0  0
   60.3630   27.3780   48.6170 C   0  0  0  0  0  0  0  0  0  0  0  0
   60.0160   26.3920   47.6950 C   0  0  0  0  0  0  0  0  0  0  0  0
   58.9250   26.5540   46.9020 N   0  0  0  0  0  0  0  0  0  0  0  0
   58.1410   27.6650   46.9600 C   0  0  0  0  0  0  0  0  0  0  0  0
   57.1000   27.7230   46.1770 N   0  0  0  0  0  0  0  0  0  0  0  0
   56.7550   28.7470   45.2260 C   0  0  0  0  0  0  0  0  0  0  0  0
   55.5900   29.2280   45.1930 O   0  0  0  0  0  0  0  0  0  0  0  0
   57.7980   29.2850   44.2790 C   0  0  2  0  0  0  0  0  0  0  0  0
   58.6750   28.1500   43.7460 C   0  0  0  0  0  0  0  0  0  0  0  0
   59.9300   28.1660   44.6120 C   0  0  0  0  0  0  0  0  0  0  0  0
   60.0400   29.5920   45.1380 C   0  0  0  0  0  0  0  0  0  0  0  0
   58.7200   30.1910   44.9670 N   0  0  0  0  0  0  0  0  0  0  0  0
   58.4000   31.5500   45.3610 C   0  0  0  0  0  0  0  0  0  0  0  0
   58.6280   31.9970   46.6810 C   0  0  0  0  0  0  0  0  0  0  0  0
   58.3090   33.3080   47.0580 C   0  0  0  0  0  0  0  0  0  0  0  0
   57.7630   34.1920   46.1270 C   0  0  0  0  0  0  0  0  0  0  0  0
   57.5330   33.7660   44.8160 C   0  0  0  0  0  0  0  0  0  0  0  0
   57.8480   32.4580   44.4330 C   0  0  0  0  0  0  0  0  0  0  0  0
   58.4560   28.6760   47.8940 C   0  0  0  0  0  0  0  0  0  0  0  0
   61.8290   30.4760   50.8010 C   0  0  0  0  0  0  0  0  0  0  0  0
   61.4910   29.7520   51.9570 O   0  0  0  0  0  0  0  0  0  0  0  0
   61.4540   28.3310   52.0400 C   0  0  0  0  0  0  0  0  0  0  0  0
   62.9750   31.3080   50.7570 C   0  0  0  0  0  0  0  0  0  0  0  0
   63.2850   31.9520   49.5530 C   0  0  0  0  0  0  0  0  0  0  0  0
   67.5114   33.1193   51.6928 H   0  0  0  0  0  0  0  0  0  0  0  0
   68.6421   32.4360   50.4757 H   0  0  0  0  0  0  0  0  0  0  0  0
   68.2783   34.1950   50.4757 H   0  0  0  0  0  0  0  0  0  0  0  0
   66.9480   32.6760   48.7610 H   0  0  0  0  0  0  0  0  0  0  0  0
   64.7708   33.9410   47.4935 H   0  0  0  0  0  0  0  0  0  0  0  0
   62.6023   32.7626   46.4381 H   0  0  0  0  0  0  0  0  0  0  0  0
   60.7248   30.9132   47.5545 H   0  0  0  0  0  0  0  0  0  0  0  0
   61.2456   27.2487   49.2607 H   0  0  0  0  0  0  0  0  0  0  0  0
   60.6266   25.4811   47.6093 H   0  0  0  0  0  0  0  0  0  0  0  0
   57.2501   29.7993   43.4757 H   0  0  0  0  0  0  0  0  0  0  0  0
   58.1549   27.1853   43.8401 H   0  0  0  0  0  0  0  0  0  0  0  0
   58.9122   28.2828   42.6801 H   0  0  0  0  0  0  0  0  0  0  0  0
   59.8317   27.4548   45.4454 H   0  0  0  0  0  0  0  0  0  0  0  0
   60.8236   27.8696   44.0431 H   0  0  0  0  0  0  0  0  0  0  0  0
   60.3212   29.5857   46.2014 H   0  0  0  0  0  0  0  0  0  0  0  0
   60.8116   30.1604   44.5981 H   0  0  0  0  0  0  0  0  0  0  0  0
   59.0609   31.3082   47.4214 H   0  0  0  0  0  0  0  0  0  0  0  0
   58.4895   33.6412   48.0907 H   0  0  0  0  0  0  0  0  0  0  0  0
   57.5142   35.2215   46.4240 H   0  0  0  0  0  0  0  0  0  0  0  0
   57.1022   34.4626   44.0817 H   0  0  0  0  0  0  0  0  0  0  0  0
   57.6635   32.1342   43.3981 H   0  0  0  0  0  0  0  0  0  0  0  0
   57.8209   29.5706   47.9735 H   0  0  0  0  0  0  0  0  0  0  0  0
   61.4460   28.0255   53.0967 H   0  0  0  0  0  0  0  0  0  0  0  0
   60.5458   27.9582   51.5437 H   0  0  0  0  0  0  0  0  0  0  0  0
   62.3415   27.9115   51.5437 H   0  0  0  0  0  0  0  0  0  0  0  0
   63.6061   31.4447   51.6475 H   0  0  0  0  0  0  0  0  0  0  0  0
  1  2  1  0
  2  3  1  0
  3  4  2  0
  3  5  1  0
  5  6  1  0
  6  7  2  0
  7  8  1  0
  8  9  2  0
  9 10  1  0
 10 11  1  0
 11 12  1  0
 12 13  1  0
 13 14  2  0
 14 15  1  0
 15 16  1  0
 16 17  2  3
 17 18  1  0
 18 19  2  0
 18 20  1  0
 20 21  1  0
 21 22  1  0
 22 23  1  0
 23 24  1  0
 24 25  1  0
 25 26  2  0
 26 27  1  0
 27 28  2  0
 28 29  1  0
 29 30  2  0
 16 31  1  0
 10 32  2  0
 32 33  1  0
 33 34  1  0
 32 35  1  0
 35 36  2  0
 36  5  1  0
 36  8  1  0
 31 12  2  0
 24 20  1  0
 30 25  1  0
  1 37  1  0
  1 38  1  0
  1 39  1  0
  2 40  1  0
  6 41  1  0
  7 42  1  0
  9 43  1  0
 13 44  1  0
 14 45  1  0
 20 46  1  6
 21 47  1  0
 21 48  1  0
 22 49  1  0
 22 50  1  0
 23 51  1  0
 23 52  1  0
 26 53  1  0
 27 54  1  0
 28 55  1  0
 29 56  1  0
 30 57  1  0
 31 58  1  0
 34 59  1  0
 34 60  1  0
 34 61  1  0
 35 62  1  0
M  CHG  1  15  -1
M  END
>  <UniqueID>  (30) 
28

>  <SMILES>  (30) 
CNC(=O)n1ccc2cc(Oc3cc[n-]c(=NC(=O)[C@@H]4CCCN4c4ccccc4)c3)c(OC)cc21

>  <Energy>  (30) 
118.53716287502978

>  <Genealogy>  (30) 
CNC(=O)n1ccc2cc(Oc3cc[n-]c(=NC(=O)C4CCCN4c4ccccc4)c3)c(OC)cc21 (protonated)
CNC(=O)n1ccc2cc(Oc3cc[n-]c(=NC(=O)[C@@H]4CCCN4c4ccccc4)c3)c(OC)cc21 (chirality)
CNC(=O)n1ccc2cc(Oc3cc[n-]c(=NC(=O)[C@@H]4CCCN4c4ccccc4)c3)c(OC)cc21 (3D coordinates assigned)
CNC(=O)n1ccc2cc(Oc3cc[n-]c(=NC(=O)[C@@H]4CCCN4c4ccccc4)c3)c(OC)cc21 (nonaromatic ring conformer: 118.53716287502978 kcal/mol)

>  <smiles>  (30) 
CNC(=O)n1ccc2cc(Oc3cc[nH]c(=NC(=O)C4CCCN4c4ccccc4)c3)c(OC)cc21

>  <score_type>  (30) 
oracle

>  <origin>  (30) 
adg

>  <m_score__min__energy>  (30) 
-10.369999999999999

>  <m_primary>  (30) 
energy

$$$$
30:0
     RDKit          3D

 55 58  0  0  0  0  0  0  0  0999 V2000
   54.5585   24.9914   46.2901 H   0  0  0  0  0  0  0  0  0  0  0  0
   55.5370   25.3780   45.9690 C   0  0  0  0  0  0  0  0  0  0  0  0
   55.7850   26.7140   46.0060 N   0  0  0  0  0  0  0  0  0  0  0  0
   56.9800   27.2470   45.6280 C   0  0  0  0  0  0  0  0  0  0  0  0
   57.1190   28.5440   45.6920 N   0  0  0  0  0  0  0  0  0  0  0  0
   56.4180   29.5680   44.9700 C   0  0  0  0  0  0  0  0  0  0  0  0
   55.1640   29.4880   44.8720 O   0  0  0  0  0  0  0  0  0  0  0  0
   57.1170   30.6880   44.4080 N   0  0  0  0  0  0  0  0  0  0  0  0
   57.6450   31.8080   45.1330 C   0  0  0  0  0  0  0  0  0  0  0  0
   56.9460   33.0200   45.1000 C   0  0  0  0  0  0  0  0  0  0  0  0
   56.0039   33.0930   44.5369 H   0  0  0  0  0  0  0  0  0  0  0  0
   57.4380   34.1370   45.7780 C   0  0  0  0  0  0  0  0  0  0  0  0
   56.8734   35.0809   45.7623 H   0  0  0  0  0  0  0  0  0  0  0  0
   58.6450   34.0590   46.4760 C   0  0  0  0  0  0  0  0  0  0  0  0
   59.0240   34.9418   47.0117 H   0  0  0  0  0  0  0  0  0  0  0  0
   59.3800   32.8590   46.4990 C   0  0  0  0  0  0  0  0  0  0  0  0
   60.6510   32.7880   47.1820 N   0  0  0  0  0  0  0  0  0  0  0  0
   61.8090   33.4980   46.6220 C   0  0  0  0  0  0  0  0  0  0  0  0
   62.1532   32.9704   45.7202 H   0  0  0  0  0  0  0  0  0  0  0  0
   61.5046   34.5255   46.3737 H   0  0  0  0  0  0  0  0  0  0  0  0
   62.9530   33.5590   47.6330 C   0  0  0  0  0  0  0  0  0  0  0  0
   63.8475   33.9776   47.1486 H   0  0  0  0  0  0  0  0  0  0  0  0
   62.6588   34.1977   48.4789 H   0  0  0  0  0  0  0  0  0  0  0  0
   63.2520   32.2010   48.1260 N   0  0  0  0  0  0  0  0  0  0  0  0
   64.4410   32.2210   49.0030 C   0  0  0  0  0  0  0  0  0  0  0  0
   64.9725   31.2623   48.9108 H   0  0  0  0  0  0  0  0  0  0  0  0
   65.0913   33.0526   48.6939 H   0  0  0  0  0  0  0  0  0  0  0  0
   64.0380   32.4330   50.4690 C   0  0  0  0  0  0  0  0  0  0  0  0
   62.9747   32.7111   50.5151 H   0  0  0  0  0  0  0  0  0  0  0  0
   64.2112   31.4987   51.0232 H   0  0  0  0  0  0  0  0  0  0  0  0
   64.8630   33.5270   51.0920 C   0  0  0  0  0  0  0  0  0  0  0  0
   64.2460   34.5620   51.8150 C   0  0  0  0  0  0  0  0  0  0  0  0
   63.1502   34.5883   51.9079 H   0  0  0  0  0  0  0  0  0  0  0  0
   65.0210   35.5590   52.4170 C   0  0  0  0  0  0  0  0  0  0  0  0
   64.5329   36.3706   52.9765 H   0  0  0  0  0  0  0  0  0  0  0  0
   66.4160   35.5260   52.3090 C   0  0  0  0  0  0  0  0  0  0  0  0
   67.0226   36.3147   52.7780 H   0  0  0  0  0  0  0  0  0  0  0  0
   67.0380   34.4920   51.6060 C   0  0  0  0  0  0  0  0  0  0  0  0
   68.1347   34.4636   51.5262 H   0  0  0  0  0  0  0  0  0  0  0  0
   66.2670   33.4920   51.0030 C   0  0  0  0  0  0  0  0  0  0  0  0
   66.7607   32.6747   50.4568 H   0  0  0  0  0  0  0  0  0  0  0  0
   62.0870   31.5450   48.7820 C   0  0  0  0  0  0  0  0  0  0  0  0
   62.0144   30.5158   48.4007 H   0  0  0  0  0  0  0  0  0  0  0  0
   62.2731   31.5945   49.8650 H   0  0  0  0  0  0  0  0  0  0  0  0
   60.7330   32.2420   48.5420 C   0  0  0  0  0  0  0  0  0  0  0  0
   59.9231   31.5115   48.6849 H   0  0  0  0  0  0  0  0  0  0  0  0
   60.6369   33.0723   49.2571 H   0  0  0  0  0  0  0  0  0  0  0  0
   58.8720   31.7370   45.8180 C   0  0  0  0  0  0  0  0  0  0  0  0
   59.4400   30.7950   45.8213 H   0  0  0  0  0  0  0  0  0  0  0  0
   57.9890   26.3840   45.1490 C   0  0  0  0  0  0  0  0  0  0  0  0
   58.9532   26.7914   44.8110 H   0  0  0  0  0  0  0  0  0  0  0  0
   57.7520   25.0070   45.1080 C   0  0  0  0  0  0  0  0  0  0  0  0
   58.5361   24.3251   44.7471 H   0  0  0  0  0  0  0  0  0  0  0  0
   56.5230   24.4970   45.5240 C   0  0  0  0  0  0  0  0  0  0  0  0
   56.1830   22.6180   45.4640 Br  0  0  0  0  0  0  0  0  0  0  0  0
  1  2  1  0
  2  3  1  0
  3  4  1  0
  4  5  2  0
  5  6  1  0
  6  7  2  0
  6  8  1  0
  8  9  1  0
  9 10  2  0
 10 11  1  0
 10 12  1  0
 12 13  1  0
 12 14  2  0
 14 15  1  0
 14 16  1  0
 16 17  1  0
 17 18  1  0
 18 19  1  0
 18 20  1  0
 18 21  1  0
 21 22  1  0
 21 23  1  0
 21 24  1  0
 24 25  1  0
 25 26  1  0
 25 27  1  0
 25 28  1  0
 28 29  1  0
 28 30  1  0
 28 31  1  0
 31 32  2  0
 32 33  1  0
 32 34  1  0
 34 35  1  0
 34 36  2  0
 36 37  1  0
 36 38  1  0
 38 39  1  0
 38 40  2  0
 40 41  1  0
 24 42  1  0
 42 43  1  0
 42 44  1  0
 42 45  1  0
 45 46  1  0
 45 47  1  0
 16 48  2  0
 48 49  1  0
  4 50  1  0
 50 51  1  0
 50 52  2  0
 52 53  1  0
 52 54  1  0
 54 55  1  0
 54  2  2  0
 48  9  1  0
 45 17  1  0
 40 31  1  0
M  CHG  2   3  -1   8  -1
M  END
>  <UniqueID>  (31) 
29

>  <SMILES>  (31) 
O=C(/N=c1\ccc(Br)c[n-]1)[N-]c1cccc(N2CCN(CCc3ccccc3)CC2)c1

>  <Energy>  (31) 
78.77659061011863

>  <Genealogy>  (31) 
O=C(N=c1ccc(Br)c[n-]1)[N-]c1cccc(N2CCN(CCc3ccccc3)CC2)c1 (protonated)
O=C(/N=c1\ccc(Br)c[n-]1)[N-]c1cccc(N2CCN(CCc3ccccc3)CC2)c1 (cis-trans isomerization)
O=C(/N=c1\ccc(Br)c[n-]1)[N-]c1cccc(N2CCN(CCc3ccccc3)CC2)c1 (3D coordinates assigned)
O=C(/N=c1\ccc(Br)c[n-]1)[N-]c1cccc(N2CCN(CCc3ccccc3)CC2)c1 (nonaromatic ring conformer: 78.77659061011863 kcal/mol)

>  <smiles>  (31) 
O=C(N=c1ccc(Br)c[nH]1)Nc1cccc(N2CCN(CCc3ccccc3)CC2)c1

>  <score_type>  (31) 
oracle

>  <origin>  (31) 
adg

>  <m_score__min__energy>  (31) 
-11.859999999999999

>  <m_primary>  (31) 
energy

$$$$
31:0
     RDKit          3D

 37 39  0  0  0  0  0  0  0  0999 V2000
   59.9908   26.1726   46.4820 H   0  0  0  0  0  0  0  0  0  0  0  0
   58.9000   26.2720   46.3810 C   0  0  0  0  0  0  0  0  0  0  0  0
   58.3650   27.4230   45.8950 N   0  0  0  0  0  0  0  0  0  0  0  0
   57.0190   27.5920   45.7510 C   0  0  0  0  0  0  0  0  0  0  0  0
   56.5230   28.7020   45.2830 N   0  0  0  0  0  0  0  0  0  0  0  0
   56.9660   29.4350   44.1270 C   0  0  0  0  0  0  0  0  0  0  0  0
   56.9290   28.9070   42.9810 O   0  0  0  0  0  0  0  0  0  0  0  0
   57.4730   30.8190   44.2810 C   0  0  0  0  0  0  0  0  0  0  0  0
   57.6100   31.6590   43.1610 C   0  0  0  0  0  0  0  0  0  0  0  0
   57.3533   31.2818   42.1601 H   0  0  0  0  0  0  0  0  0  0  0  0
   58.0700   32.9690   43.3120 C   0  0  0  0  0  0  0  0  0  0  0  0
   58.1661   33.6208   42.4311 H   0  0  0  0  0  0  0  0  0  0  0  0
   58.4080   33.4540   44.5750 C   0  0  0  0  0  0  0  0  0  0  0  0
   58.7571   34.4911   44.6867 H   0  0  0  0  0  0  0  0  0  0  0  0
   58.3060   32.6300   45.7010 C   0  0  0  0  0  0  0  0  0  0  0  0
   58.6460   33.1750   46.9830 N   0  0  0  0  0  0  0  0  0  0  0  0
   59.5980   34.2160   47.2430 C   0  0  0  0  0  0  0  0  0  0  0  0
   59.2210   35.4120   47.3740 O   0  0  0  0  0  0  0  0  0  0  0  0
   61.0170   33.8800   47.4130 C   0  0  0  0  0  0  0  0  0  0  0  0
   61.7530   33.4840   48.8750 S   0  0  0  0  0  0  0  0  0  0  0  0
   63.2930   33.2610   48.2350 C   0  0  0  0  0  0  0  0  0  0  0  0
   64.4840   32.7990   49.0040 C   0  0  0  0  0  0  0  0  0  0  0  0
   64.2782   32.8788   50.0816 H   0  0  0  0  0  0  0  0  0  0  0  0
   64.7014   31.7513   48.7488 H   0  0  0  0  0  0  0  0  0  0  0  0
   65.3510   33.4260   48.7488 H   0  0  0  0  0  0  0  0  0  0  0  0
   63.2450   33.4680   46.8620 C   0  0  0  0  0  0  0  0  0  0  0  0
   64.1190   33.3615   46.2027 H   0  0  0  0  0  0  0  0  0  0  0  0
   61.9710   33.8260   46.4020 C   0  0  0  0  0  0  0  0  0  0  0  0
   61.7475   34.0427   45.3470 H   0  0  0  0  0  0  0  0  0  0  0  0
   57.8170   31.3180   45.5530 C   0  0  0  0  0  0  0  0  0  0  0  0
   57.7024   30.6763   46.4390 H   0  0  0  0  0  0  0  0  0  0  0  0
   56.1530   26.5490   46.1150 C   0  0  0  0  0  0  0  0  0  0  0  0
   54.7750   26.6900   45.9810 O   0  0  0  0  0  0  0  0  0  0  0  0
   56.6850   25.3590   46.6170 C   0  0  0  0  0  0  0  0  0  0  0  0
   56.0155   24.5353   46.9056 H   0  0  0  0  0  0  0  0  0  0  0  0
   58.0660   25.2160   46.7520 C   0  0  0  0  0  0  0  0  0  0  0  0
   58.4928   24.2820   47.1462 H   0  0  0  0  0  0  0  0  0  0  0  0
  1  2  1  0
  2  3  1  0
  3  4  1  0
  4  5  2  0
  5  6  1  0
  6  7  2  0
  6  8  1  0
  8  9  2  0
  9 10  1  0
  9 11  1  0
 11 12  1  0
 11 13  2  0
 13 14  1  0
 13 15  1  0
 15 16  1  0
 16 17  1  0
 17 18  2  0
 17 19  1  0
 19 20  1  0
 20 21  1  0
 21 22  1  0
 22 23  1  0
 22 24  1  0
 22 25  1  0
 21 26  2  0
 26 27  1  0
 26 28  1  0
 28 29  1  0
 15 30  2  0
 30 31  1  0
  4 32  1  0
 32 33  1  0
 32 34  2  0
 34 35  1  0
 34 36  1  0
 36 37  1  0
 36  2  2  0
 30  8  1  0
 28 19  2  0
M  CHG  3   3  -1  16  -1  33  -1
M  END
>  <UniqueID>  (32) 
30

>  <SMILES>  (32) 
Cc1ccc(C(=O)[N-]c2cccc(C(=O)/N=c3\[n-]cccc3[O-])c2)s1

>  <Energy>  (32) 
71.85495075245686

>  <Genealogy>  (32) 
Cc1ccc(C(=O)[N-]c2cccc(C(=O)N=c3[n-]cccc3[O-])c2)s1 (protonated)
Cc1ccc(C(=O)[N-]c2cccc(C(=O)/N=c3\[n-]cccc3[O-])c2)s1 (cis-trans isomerization)
Cc1ccc(C(=O)[N-]c2cccc(C(=O)/N=c3\[n-]cccc3[O-])c2)s1 (3D coordinates assigned)
Cc1ccc(C(=O)[N-]c2cccc(C(=O)/N=c3\[n-]cccc3[O-])c2)s1 (optimized conformer: 71.85495075245686 kcal/mol)

>  <smiles>  (32) 
Cc1ccc(C(=O)Nc2cccc(C(=O)N=c3[nH]cccc3O)c2)s1

>  <score_type>  (32) 
oracle

>  <origin>  (32) 
adg

>  <m_score__min__energy>  (32) 
-15.029999999999999

>  <m_primary>  (32) 
energy

$$$$
32:0
     RDKit          3D

 51 54  0  0  0  0  0  0  0  0999 V2000
   55.8480   19.8170   43.4480 N   0  0  0  0  0  0  0  0  0  0  0  0
   56.3380   20.8770   44.0090 C   0  0  0  0  0  0  0  0  0  0  0  0
   57.0220   20.7680   45.2260 C   0  0  0  0  0  0  0  0  0  0  0  0
   57.5470   21.9200   45.8190 C   0  0  0  0  0  0  0  0  0  0  0  0
   57.3800   23.1720   45.2000 C   0  0  0  0  0  0  0  0  0  0  0  0
   57.9370   24.4010   45.8120 C   0  0  0  0  0  0  0  0  0  0  0  0
   59.3290   24.5470   45.9450 C   0  0  0  0  0  0  0  0  0  0  0  0
   59.8690   25.7260   46.4710 C   0  0  0  0  0  0  0  0  0  0  0  0
   59.0220   26.7630   46.8850 C   0  0  0  0  0  0  0  0  0  0  0  0
   59.5830   28.0230   47.4080 C   0  0  0  0  0  0  0  0  0  0  0  0
   59.6890   28.1790   48.7990 C   0  0  0  0  0  0  0  0  0  0  0  0
   60.2150   29.3520   49.3430 C   0  0  0  0  0  0  0  0  0  0  0  0
   60.6410   30.3790   48.5030 C   0  0  0  0  0  0  0  0  0  0  0  0
   60.5350   30.2420   47.1170 C   0  0  0  0  0  0  0  0  0  0  0  0
   59.9980   29.0750   46.5520 C   0  0  0  0  0  0  0  0  0  0  0  0
   59.8300   29.0140   44.7890 S   0  0  0  0  0  0  0  0  0  0  0  0
   61.1950   29.0790   44.1600 O   0  0  0  0  0  0  0  0  0  0  0  0
   59.1340   27.7640   44.3230 O   0  0  0  0  0  0  0  0  0  0  0  0
   58.8950   30.3790   44.2780 N   0  0  0  0  0  0  0  0  0  0  0  0
   57.7530   30.8180   45.0160 C   0  0  0  0  0  0  0  0  0  0  0  0
   56.5930   30.6730   44.5430 O   0  0  0  0  0  0  0  0  0  0  0  0
   57.9320   31.4330   46.3690 C   0  0  0  0  0  0  0  0  0  0  0  0
   58.4530   32.8080   46.2320 N   0  0  0  0  0  0  0  0  0  0  0  0
   58.6770   33.3220   44.9850 C   0  0  0  0  0  0  0  0  0  0  0  0
   59.2140   34.5970   44.8300 C   0  0  0  0  0  0  0  0  0  0  0  0
   59.5220   35.3320   45.9700 C   0  0  0  0  0  0  0  0  0  0  0  0
   60.0110   36.4850   45.8580 O   0  0  0  0  0  0  0  0  0  0  0  0
   59.2900   34.8040   47.2010 N   0  0  0  0  0  0  0  0  0  0  0  0
   58.7630   33.5550   47.3400 C   0  0  0  0  0  0  0  0  0  0  0  0
   58.5660   33.0940   48.5000 O   0  0  0  0  0  0  0  0  0  0  0  0
   57.6340   26.6070   46.7900 C   0  0  0  0  0  0  0  0  0  0  0  0
   57.0900   25.4370   46.2510 C   0  0  0  0  0  0  0  0  0  0  0  0
   55.7390   25.3080   46.1810 F   0  0  0  0  0  0  0  0  0  0  0  0
   56.6870   23.2320   43.9770 C   0  0  0  0  0  0  0  0  0  0  0  0
   56.1890   22.0970   43.4160 N   0  0  0  0  0  0  0  0  0  0  0  0
   56.4180   18.9440   43.3320 H   0  0  0  0  0  0  0  0  0  0  0  0
   57.1447   19.7877   45.7096 H   0  0  0  0  0  0  0  0  0  0  0  0
   58.0919   21.8472   46.7718 H   0  0  0  0  0  0  0  0  0  0  0  0
   59.9970   23.7303   45.6340 H   0  0  0  0  0  0  0  0  0  0  0  0
   60.9596   25.8390   46.5596 H   0  0  0  0  0  0  0  0  0  0  0  0
   59.3549   27.3704   49.4657 H   0  0  0  0  0  0  0  0  0  0  0  0
   60.2932   29.4656   50.4343 H   0  0  0  0  0  0  0  0  0  0  0  0
   61.0619   31.3000   48.9326 H   0  0  0  0  0  0  0  0  0  0  0  0
   60.8759   31.0571   46.4617 H   0  0  0  0  0  0  0  0  0  0  0  0
   56.9626   31.4605   46.8881 H   0  0  0  0  0  0  0  0  0  0  0  0
   58.6475   30.8310   46.9483 H   0  0  0  0  0  0  0  0  0  0  0  0
   58.4307   32.7226   44.0961 H   0  0  0  0  0  0  0  0  0  0  0  0
   59.3909   35.0142   43.8277 H   0  0  0  0  0  0  0  0  0  0  0  0
   59.5350   35.3560   48.0550 H   0  0  0  0  0  0  0  0  0  0  0  0
   56.9679   27.4089   47.1412 H   0  0  0  0  0  0  0  0  0  0  0  0
   56.5474   24.1996   43.4728 H   0  0  0  0  0  0  0  0  0  0  0  0
  1  2  2  3
  2  3  1  0
  3  4  2  0
  4  5  1  0
  5  6  1  0
  6  7  2  0
  7  8  1  0
  8  9  2  0
  9 10  1  0
 10 11  2  0
 11 12  1  0
 12 13  2  0
 13 14  1  0
 14 15  2  0
 15 16  1  0
 16 17  2  0
 16 18  2  0
 16 19  1  0
 19 20  1  0
 20 21  2  0
 20 22  1  0
 22 23  1  0
 23 24  1  0
 24 25  2  0
 25 26  1  0
 26 27  2  0
 26 28  1  0
 28 29  1  0
 29 30  2  0
  9 31  1  0
 31 32  2  0
 32 33  1  0
  5 34  2  0
 34 35  1  0
 35  2  1  0
 32  6  1  0
 15 10  1  0
 29 23  1  0
  1 36  1  0
  3 37  1  0
  4 38  1  0
  7 39  1  0
  8 40  1  0
 11 41  1  0
 12 42  1  0
 13 43  1  0
 14 44  1  0
 22 45  1  0
 22 46  1  0
 24 47  1  0
 25 48  1  0
 28 49  1  0
 31 50  1  0
 34 51  1  0
M  CHG  2  19  -1  35  -1
M  END
>  <UniqueID>  (33) 
31

>  <SMILES>  (33) 
N=c1ccc(-c2ccc(-c3ccccc3S(=O)(=O)[N-]C(=O)Cn3ccc(=O)[nH]c3=O)cc2F)c[n-]1

>  <Energy>  (33) 
74.11366312573992

>  <Genealogy>  (33) 
N=c1ccc(-c2ccc(-c3ccccc3S(=O)(=O)[N-]C(=O)Cn3ccc(=O)[nH]c3=O)cc2F)c[n-]1 (protonated)
N=c1ccc(-c2ccc(-c3ccccc3S(=O)(=O)[N-]C(=O)Cn3ccc(=O)[nH]c3=O)cc2F)c[n-]1 (3D coordinates assigned)
N=c1ccc(-c2ccc(-c3ccccc3S(=O)(=O)[N-]C(=O)Cn3ccc(=O)[nH]c3=O)cc2F)c[n-]1 (optimized conformer: 74.11366312573992 kcal/mol)

>  <smiles>  (33) 
N=c1ccc(-c2ccc(-c3ccccc3S(=O)(=O)NC(=O)Cn3ccc(=O)[nH]c3=O)cc2F)c[nH]1

>  <score_type>  (33) 
oracle

>  <origin>  (33) 
adg

>  <m_score__min__energy>  (33) 
-11.92

>  <m_primary>  (33) 
energy

$$$$
33:0
     RDKit          3D

 34 36  0  0  0  0  0  0  0  0999 V2000
   58.9000   23.9060   45.8080 O   0  0  0  0  0  0  0  0  0  0  0  0
   58.1720   24.9310   45.8860 C   0  0  0  0  0  0  0  0  0  0  0  0
   56.8300   24.8630   45.9950 N   0  0  0  0  0  0  0  0  0  0  0  0
   56.4670   26.1550   46.0550 C   0  0  0  0  0  0  0  0  0  0  0  0
   55.1460   26.5610   46.2350 O   0  0  0  0  0  0  0  0  0  0  0  0
   57.5840   26.9640   45.9660 C   0  0  0  0  0  0  0  0  0  0  0  0
   57.6430   28.4400   45.9590 C   0  0  0  0  0  0  0  0  0  0  0  0
   58.4830   29.1140   46.8570 C   0  0  0  0  0  0  0  0  0  0  0  0
   58.5570   30.5070   46.8390 C   0  0  0  0  0  0  0  0  0  0  0  0
   57.7970   31.2200   45.9060 C   0  0  0  0  0  0  0  0  0  0  0  0
   57.8790   32.9730   45.8520 S   0  0  0  0  0  0  0  0  0  0  0  0
   57.0050   33.4780   44.7380 O   0  0  0  0  0  0  0  0  0  0  0  0
   57.3840   33.5350   47.1550 O   0  0  0  0  0  0  0  0  0  0  0  0
   59.5650   33.4770   45.5640 C   0  0  0  0  0  0  0  0  0  0  0  0
   60.3590   33.4090   46.8380 C   0  0  0  0  0  0  0  0  0  0  0  0
   61.4440   32.5230   46.9490 C   0  0  0  0  0  0  0  0  0  0  0  0
   62.2020   32.4830   48.1240 C   0  0  0  0  0  0  0  0  0  0  0  0
   61.8890   33.3320   49.1890 C   0  0  0  0  0  0  0  0  0  0  0  0
   60.8190   34.2240   49.0800 C   0  0  0  0  0  0  0  0  0  0  0  0
   60.0580   34.2660   47.9080 C   0  0  0  0  0  0  0  0  0  0  0  0
   57.0090   30.5520   45.0220 N   0  0  0  0  0  0  0  0  0  0  0  0
   56.9170   29.1950   45.0250 C   0  0  0  0  0  0  0  0  0  0  0  0
   58.6770   26.1820   45.8710 N   0  0  0  0  0  0  0  0  0  0  0  0
   54.7570   26.7260   47.1540 H   0  0  0  0  0  0  0  0  0  0  0  0
   59.0857   28.5424   47.5781 H   0  0  0  0  0  0  0  0  0  0  0  0
   59.2058   31.0387   47.5506 H   0  0  0  0  0  0  0  0  0  0  0  0
   60.0201   32.8093   44.8176 H   0  0  0  0  0  0  0  0  0  0  0  0
   59.5688   34.5140   45.1971 H   0  0  0  0  0  0  0  0  0  0  0  0
   61.6980   31.8590   46.1096 H   0  0  0  0  0  0  0  0  0  0  0  0
   63.0456   31.7823   48.2098 H   0  0  0  0  0  0  0  0  0  0  0  0
   62.4849   33.2981   50.1130 H   0  0  0  0  0  0  0  0  0  0  0  0
   60.5751   34.8941   49.9175 H   0  0  0  0  0  0  0  0  0  0  0  0
   59.2199   34.9735   47.8241 H   0  0  0  0  0  0  0  0  0  0  0  0
   56.2714   28.6877   44.2930 H   0  0  0  0  0  0  0  0  0  0  0  0
  1  2  2  0
  2  3  1  0
  3  4  1  0
  4  5  1  0
  4  6  2  0
  6  7  1  0
  7  8  2  0
  8  9  1  0
  9 10  2  0
 10 11  1  0
 11 12  2  0
 11 13  2  0
 11 14  1  0
 14 15  1  0
 15 16  2  0
 16 17  1  0
 17 18  2  0
 18 19  1  0
 19 20  2  0
 10 21  1  0
 21 22  2  0
  6 23  1  0
 23  2  1  0
 22  7  1  0
 20 15  1  0
  5 24  1  0
  8 25  1  0
  9 26  1  0
 14 27  1  0
 14 28  1  0
 16 29  1  0
 17 30  1  0
 18 31  1  0
 19 32  1  0
 20 33  1  0
 22 34  1  0
M  CHG  2   3  -1  23  -1
M  END
>  <UniqueID>  (34) 
32

>  <SMILES>  (34) 
O=c1[n-]c(O)c(-c2ccc(S(=O)(=O)Cc3ccccc3)nc2)[n-]1

>  <Energy>  (34) 
67.55004714570906

>  <Genealogy>  (34) 
O=c1[n-]c(O)c(-c2ccc(S(=O)(=O)Cc3ccccc3)nc2)[n-]1 (protonated)
O=c1[n-]c(O)c(-c2ccc(S(=O)(=O)Cc3ccccc3)nc2)[n-]1 (3D coordinates assigned)
O=c1[n-]c(O)c(-c2ccc(S(=O)(=O)Cc3ccccc3)nc2)[n-]1 (optimized conformer: 67.55004714570906 kcal/mol)

>  <smiles>  (34) 
O=c1[nH]c(O)c(-c2ccc(S(=O)(=O)Cc3ccccc3)nc2)[nH]1

>  <score_type>  (34) 
oracle

>  <origin>  (34) 
adg

>  <m_score__min__energy>  (34) 
-11.84

>  <m_primary>  (34) 
energy

$$$$
34:0
     RDKit          3D

 50 52  0  0  0  0  0  0  0  0999 V2000
   55.1630   29.4350   44.8570 O   0  0  0  0  0  0  0  0  0  0  0  0
   56.1650   29.9900   44.3320 C   0  0  0  0  0  0  0  0  0  0  0  0
   57.0390   29.1890   43.4150 C   0  0  0  0  0  0  0  0  0  0  0  0
   58.1110   28.6190   44.1570 O   0  0  0  0  0  0  0  0  0  0  0  0
   58.2960   27.2390   44.2750 C   0  0  0  0  0  0  0  0  0  0  0  0
   57.9670   26.4620   43.3370 O   0  0  0  0  0  0  0  0  0  0  0  0
   58.9280   26.6860   45.5090 C   0  0  0  0  0  0  0  0  0  0  0  0
   58.0780   26.9960   46.6980 C   0  0  0  0  0  0  0  0  0  0  0  0
   58.3500   27.9950   47.4170 O   0  0  0  0  0  0  0  0  0  0  0  0
   57.0230   26.1000   47.0640 N   0  0  0  0  0  0  0  0  0  0  0  0
   56.4510   25.0960   46.2150 C   0  0  0  0  0  0  0  0  0  0  0  0
   57.2400   23.9940   45.8560 C   0  0  0  0  0  0  0  0  0  0  0  0
   56.7220   22.9940   45.0270 C   0  0  0  0  0  0  0  0  0  0  0  0
   55.4190   23.0970   44.5370 C   0  0  0  0  0  0  0  0  0  0  0  0
   54.6350   24.2070   44.8620 C   0  0  0  0  0  0  0  0  0  0  0  0
   55.1480   25.2140   45.6870 C   0  0  0  0  0  0  0  0  0  0  0  0
   54.3700   26.3390   45.9430 O   0  0  0  0  0  0  0  0  0  0  0  0
   56.4650   31.3480   44.6800 N   0  0  0  0  0  0  0  0  0  0  0  0
   57.6350   31.8160   45.3670 C   0  0  0  0  0  0  0  0  0  0  0  0
   58.5370   30.8840   45.8780 C   0  0  0  0  0  0  0  0  0  0  0  0
   59.6730   31.3020   46.5770 C   0  0  0  0  0  0  0  0  0  0  0  0
   59.9290   32.6760   46.8010 C   0  0  0  0  0  0  0  0  0  0  0  0
   61.1150   33.1170   47.5320 N   0  0  0  0  0  0  0  0  0  0  0  0
   60.9710   34.1320   48.5980 C   0  0  0  0  0  0  0  0  0  0  0  0
   62.2790   34.4360   49.3340 C   0  0  0  0  0  0  0  0  0  0  0  0
   63.3670   34.4500   48.4410 O   0  0  0  0  0  0  0  0  0  0  0  0
   63.5910   33.1330   47.9970 C   0  0  0  0  0  0  0  0  0  0  0  0
   62.4490   32.6550   47.0950 C   0  0  0  0  0  0  0  0  0  0  0  0
   58.9820   33.6040   46.3080 C   0  0  0  0  0  0  0  0  0  0  0  0
   57.8490   33.1790   45.6090 C   0  0  0  0  0  0  0  0  0  0  0  0
   56.4461   28.3863   42.9523 H   0  0  0  0  0  0  0  0  0  0  0  0
   57.4448   29.8449   42.6307 H   0  0  0  0  0  0  0  0  0  0  0  0
   59.0312   25.5955   45.4087 H   0  0  0  0  0  0  0  0  0  0  0  0
   59.9198   27.1423   45.6438 H   0  0  0  0  0  0  0  0  0  0  0  0
   58.2721   23.9156   46.2285 H   0  0  0  0  0  0  0  0  0  0  0  0
   57.3420   22.1253   44.7607 H   0  0  0  0  0  0  0  0  0  0  0  0
   55.0091   22.3038   43.8945 H   0  0  0  0  0  0  0  0  0  0  0  0
   53.6113   24.2895   44.4680 H   0  0  0  0  0  0  0  0  0  0  0  0
   58.3531   29.8097   45.7298 H   0  0  0  0  0  0  0  0  0  0  0  0
   60.3797   30.5508   46.9593 H   0  0  0  0  0  0  0  0  0  0  0  0
   60.6026   35.0637   48.1439 H   0  0  0  0  0  0  0  0  0  0  0  0
   60.2698   33.7235   49.3406 H   0  0  0  0  0  0  0  0  0  0  0  0
   62.1988   35.4199   49.8192 H   0  0  0  0  0  0  0  0  0  0  0  0
   62.4506   33.6501   50.0843 H   0  0  0  0  0  0  0  0  0  0  0  0
   64.5339   33.0997   47.4314 H   0  0  0  0  0  0  0  0  0  0  0  0
   63.6439   32.4720   48.8746 H   0  0  0  0  0  0  0  0  0  0  0  0
   62.6302   33.0299   46.0768 H   0  0  0  0  0  0  0  0  0  0  0  0
   62.4403   31.5560   47.1417 H   0  0  0  0  0  0  0  0  0  0  0  0
   59.1402   34.6792   46.4779 H   0  0  0  0  0  0  0  0  0  0  0  0
   57.1207   33.9194   45.2466 H   0  0  0  0  0  0  0  0  0  0  0  0
  1  2  2  0
  2  3  1  0
  3  4  1  0
  4  5  1  0
  5  6  2  0
  5  7  1  0
  7  8  1  0
  8  9  2  0
  8 10  1  0
 10 11  1  0
 11 12  2  0
 12 13  1  0
 13 14  2  0
 14 15  1  0
 15 16  2  0
 16 17  1  0
  2 18  1  0
 18 19  1  0
 19 20  2  0
 20 21  1  0
 21 22  2  0
 22 23  1  0
 23 24  1  0
 24 25  1  0
 25 26  1  0
 26 27  1  0
 27 28  1  0
 22 29  1  0
 29 30  2  0
 16 11  1  0
 30 19  1  0
 28 23  1  0
  3 31  1  0
  3 32  1  0
  7 33  1  0
  7 34  1  0
 12 35  1  0
 13 36  1  0
 14 37  1  0
 15 38  1  0
 20 39  1  0
 21 40  1  0
 24 41  1  0
 24 42  1  0
 25 43  1  0
 25 44  1  0
 27 45  1  0
 27 46  1  0
 28 47  1  0
 28 48  1  0
 29 49  1  0
 30 50  1  0
M  CHG  3  10  -1  17  -1  18  -1
M  END
>  <UniqueID>  (35) 
33

>  <SMILES>  (35) 
O=C(COC(=O)CC(=O)[N-]c1ccccc1[O-])[N-]c1ccc(N2CCOCC2)cc1

>  <Energy>  (35) 
63.68097512615774

>  <Genealogy>  (35) 
O=C(COC(=O)CC(=O)[N-]c1ccccc1[O-])[N-]c1ccc(N2CCOCC2)cc1 (protonated)
O=C(COC(=O)CC(=O)[N-]c1ccccc1[O-])[N-]c1ccc(N2CCOCC2)cc1 (3D coordinates assigned)
O=C(COC(=O)CC(=O)[N-]c1ccccc1[O-])[N-]c1ccc(N2CCOCC2)cc1 (nonaromatic ring conformer: 63.68097512615774 kcal/mol)

>  <smiles>  (35) 
O=C(COC(=O)CC(=O)Nc1ccccc1O)Nc1ccc(N2CCOCC2)cc1

>  <score_type>  (35) 
oracle

>  <origin>  (35) 
adg

>  <m_score__min__energy>  (35) 
-15.26

>  <m_primary>  (35) 
energy

$$$$
35:0
     RDKit          3D

 51 53  0  0  0  0  0  0  0  0999 V2000
   54.9360   23.1600   45.2270 C   0  0  0  0  0  0  0  0  0  0  0  0
   55.3460   24.5680   45.4950 C   0  0  0  0  0  0  0  0  0  0  0  0
   56.5950   25.0300   45.2870 N   0  0  0  0  0  0  0  0  0  0  0  0
   56.4620   26.3290   45.6220 C   0  0  0  0  0  0  0  0  0  0  0  0
   57.5780   27.3220   45.5530 C   0  0  0  0  0  0  0  0  0  0  0  0
   57.0480   28.6820   45.5810 N   0  0  0  0  0  0  0  0  0  0  0  0
   56.9570   29.4940   44.4000 C   0  0  0  0  0  0  0  0  0  0  0  0
   57.0910   28.9700   43.2630 O   0  0  0  0  0  0  0  0  0  0  0  0
   56.6530   30.8910   44.4850 N   0  0  0  0  0  0  0  0  0  0  0  0
   57.4010   31.8790   45.2080 C   0  0  0  0  0  0  0  0  0  0  0  0
   58.1430   31.4820   46.3280 C   0  0  0  0  0  0  0  0  0  0  0  0
   58.8620   32.4230   47.0710 C   0  0  0  0  0  0  0  0  0  0  0  0
   58.8470   33.7780   46.7050 C   0  0  0  0  0  0  0  0  0  0  0  0
   59.6300   34.7810   47.5080 C   0  0  0  0  0  0  0  0  0  0  0  0
   61.0190   34.3130   47.7050 N   0  0  0  0  0  0  0  0  0  0  0  0
   61.5270   33.6120   46.5040 C   0  0  0  0  0  0  0  0  0  0  0  0
   63.0740   33.5590   46.4820 C   0  0  0  0  0  0  0  0  0  0  0  0
   63.7480   34.2260   47.7060 C   0  0  0  0  0  0  0  0  0  0  0  0
   63.6340   33.4550   48.9740 N   0  0  0  0  0  0  0  0  0  0  0  0
   63.7950   32.0130   48.7250 C   0  0  0  0  0  0  0  0  0  0  0  0
   62.3960   33.6890   49.7530 C   0  0  0  0  0  0  0  0  0  0  0  0
   61.1070   33.4820   48.9300 C   0  0  0  0  0  0  0  0  0  0  0  0
   58.0810   34.1820   45.6010 C   0  0  0  0  0  0  0  0  0  0  0  0
   57.3500   33.2430   44.8660 C   0  0  0  0  0  0  0  0  0  0  0  0
   55.2080   26.6420   46.0000 N   0  0  0  0  0  0  0  0  0  0  0  0
   54.5010   25.5280   45.9170 N   0  0  0  0  0  0  0  0  0  0  0  0
   54.7830   22.6347   46.1813 H   0  0  0  0  0  0  0  0  0  0  0  0
   53.9989   23.1543   44.6510 H   0  0  0  0  0  0  0  0  0  0  0  0
   55.7235   22.6521   44.6510 H   0  0  0  0  0  0  0  0  0  0  0  0
   58.2477   27.1757   46.4133 H   0  0  0  0  0  0  0  0  0  0  0  0
   58.1322   27.1730   44.6146 H   0  0  0  0  0  0  0  0  0  0  0  0
   56.7240   29.0680   46.4970 H   0  0  0  0  0  0  0  0  0  0  0  0
   58.1600   30.4229   46.6248 H   0  0  0  0  0  0  0  0  0  0  0  0
   59.4428   32.0997   47.9474 H   0  0  0  0  0  0  0  0  0  0  0  0
   59.6439   35.7420   46.9730 H   0  0  0  0  0  0  0  0  0  0  0  0
   59.1517   34.9023   48.4911 H   0  0  0  0  0  0  0  0  0  0  0  0
   61.1352   32.5842   46.4990 H   0  0  0  0  0  0  0  0  0  0  0  0
   61.1908   34.1670   45.6158 H   0  0  0  0  0  0  0  0  0  0  0  0
   63.3829   32.5037   46.4503 H   0  0  0  0  0  0  0  0  0  0  0  0
   63.3977   34.1239   45.5953 H   0  0  0  0  0  0  0  0  0  0  0  0
   64.8164   34.3577   47.4797 H   0  0  0  0  0  0  0  0  0  0  0  0
   63.2210   35.1772   47.8716 H   0  0  0  0  0  0  0  0  0  0  0  0
   63.8546   31.4795   49.6851 H   0  0  0  0  0  0  0  0  0  0  0  0
   62.9328   31.6414   48.1519 H   0  0  0  0  0  0  0  0  0  0  0  0
   64.7180   31.8407   48.1519 H   0  0  0  0  0  0  0  0  0  0  0  0
   62.3823   32.9921   50.6040 H   0  0  0  0  0  0  0  0  0  0  0  0
   62.4096   34.7400   50.0772 H   0  0  0  0  0  0  0  0  0  0  0  0
   61.0558   32.4244   48.6320 H   0  0  0  0  0  0  0  0  0  0  0  0
   60.2710   33.7880   49.5761 H   0  0  0  0  0  0  0  0  0  0  0  0
   58.0552   35.2430   45.3120 H   0  0  0  0  0  0  0  0  0  0  0  0
   56.7327   33.5721   44.0171 H   0  0  0  0  0  0  0  0  0  0  0  0
  1  2  1  0
  2  3  2  0
  3  4  1  0
  4  5  1  0
  5  6  1  0
  6  7  1  0
  7  8  2  0
  7  9  1  0
  9 10  1  0
 10 11  2  0
 11 12  1  0
 12 13  2  0
 13 14  1  0
 14 15  1  0
 15 16  1  0
 16 17  1  0
 17 18  1  0
 18 19  1  0
 19 20  1  0
 19 21  1  0
 21 22  1  0
 13 23  1  0
 23 24  2  0
  4 25  2  0
 25 26  1  0
 26  2  1  0
 24 10  1  0
 22 15  1  0
  1 27  1  0
  1 28  1  0
  1 29  1  0
  5 30  1  0
  5 31  1  0
  6 32  1  0
 11 33  1  0
 12 34  1  0
 14 35  1  0
 14 36  1  0
 16 37  1  0
 16 38  1  0
 17 39  1  0
 17 40  1  0
 18 41  1  0
 18 42  1  0
 20 43  1  0
 20 44  1  0
 20 45  1  0
 21 46  1  0
 21 47  1  0
 22 48  1  0
 22 49  1  0
 23 50  1  0
 24 51  1  0
M  CHG  2   9  -1  26  -1
M  END
>  <UniqueID>  (36) 
34

>  <SMILES>  (36) 
Cc1nc(CNC(=O)[N-]c2ccc(CN3CCCN(C)CC3)cc2)n[n-]1

>  <Energy>  (36) 
99.18782475295596

>  <Genealogy>  (36) 
Cc1nc(CNC(=O)[N-]c2ccc(CN3CCCN(C)CC3)cc2)n[n-]1 (protonated)
Cc1nc(CNC(=O)[N-]c2ccc(CN3CCCN(C)CC3)cc2)n[n-]1 (3D coordinates assigned)
Cc1nc(CNC(=O)[N-]c2ccc(CN3CCCN(C)CC3)cc2)n[n-]1 (nonaromatic ring conformer: 99.18782475295596 kcal/mol)

>  <smiles>  (36) 
Cc1nc(CNC(=O)Nc2ccc(CN3CCCN(C)CC3)cc2)n[nH]1

>  <score_type>  (36) 
oracle

>  <origin>  (36) 
adg

>  <m_score__min__energy>  (36) 
-10.25

>  <m_primary>  (36) 
energy

$$$$
36:0
     RDKit          3D

 47 49  0  0  0  0  0  0  0  0999 V2000
   55.6440   26.6620   45.9620 O   0  0  0  0  0  0  0  0  0  0  0  0
   56.7130   26.8730   45.3270 C   0  0  0  0  0  0  0  0  0  0  0  0
   57.3950   25.7770   44.6890 N   0  0  0  0  0  0  0  0  0  0  0  0
   56.8590   24.4450   44.6000 C   0  0  0  0  0  0  0  0  0  0  0  0
   56.4670   23.7810   45.7700 C   0  0  0  0  0  0  0  0  0  0  0  0
   55.9690   22.4780   45.6920 C   0  0  0  0  0  0  0  0  0  0  0  0
   55.8810   21.8530   44.4890 N   0  0  0  0  0  0  0  0  0  0  0  0
   56.2740   22.4610   43.3390 C   0  0  0  0  0  0  0  0  0  0  0  0
   56.1900   21.8440   42.2450 O   0  0  0  0  0  0  0  0  0  0  0  0
   56.7770   23.7670   43.3720 C   0  0  0  0  0  0  0  0  0  0  0  0
   57.2440   28.2570   45.2610 C   0  0  0  0  0  0  0  0  0  0  0  0
   58.1150   28.7600   46.2450 C   0  0  0  0  0  0  0  0  0  0  0  0
   58.5980   30.0700   46.1640 C   0  0  0  0  0  0  0  0  0  0  0  0
   58.2100   30.9080   45.1010 C   0  0  0  0  0  0  0  0  0  0  0  0
   58.6660   32.2310   44.9710 O   0  0  0  0  0  0  0  0  0  0  0  0
   57.9070   33.3270   44.4600 C   0  0  0  0  0  0  0  0  0  0  0  0
   57.3920   34.2070   45.6180 C   0  0  0  0  0  0  0  0  0  0  0  0
   58.4120   34.4990   46.6460 N   0  0  0  0  0  0  0  0  0  0  0  0
   58.5210   33.4510   47.6830 C   0  0  0  0  0  0  0  0  0  0  0  0
   59.6490   33.7820   48.6640 C   0  0  0  0  0  0  0  0  0  0  0  0
   61.0130   33.8630   47.9520 C   0  0  0  0  0  0  0  0  0  0  0  0
   60.8900   34.0920   46.4360 C   0  0  0  0  0  0  0  0  0  0  0  0
   59.7010   35.0050   46.1030 C   0  0  0  0  0  0  0  0  0  0  0  0
   57.3400   30.4100   44.1250 C   0  0  0  0  0  0  0  0  0  0  0  0
   56.9560   31.2010   43.0930 F   0  0  0  0  0  0  0  0  0  0  0  0
   56.8560   29.1000   44.2060 C   0  0  0  0  0  0  0  0  0  0  0  0
   58.3530   25.9240   44.3020 H   0  0  0  0  0  0  0  0  0  0  0  0
   56.5510   24.2832   46.7451 H   0  0  0  0  0  0  0  0  0  0  0  0
   55.6476   21.9573   46.6061 H   0  0  0  0  0  0  0  0  0  0  0  0
   57.1053   24.2584   42.4442 H   0  0  0  0  0  0  0  0  0  0  0  0
   58.4185   28.1176   47.0848 H   0  0  0  0  0  0  0  0  0  0  0  0
   59.2851   30.4480   46.9353 H   0  0  0  0  0  0  0  0  0  0  0  0
   58.5442   33.9330   43.7992 H   0  0  0  0  0  0  0  0  0  0  0  0
   57.0465   32.9354   43.8978 H   0  0  0  0  0  0  0  0  0  0  0  0
   57.0400   35.1609   45.1983 H   0  0  0  0  0  0  0  0  0  0  0  0
   56.5890   33.6432   46.1154 H   0  0  0  0  0  0  0  0  0  0  0  0
   57.5706   33.3858   48.2330 H   0  0  0  0  0  0  0  0  0  0  0  0
   58.7440   32.4904   47.1957 H   0  0  0  0  0  0  0  0  0  0  0  0
   59.4361   34.7509   49.1393 H   0  0  0  0  0  0  0  0  0  0  0  0
   59.6993   32.9794   49.4146 H   0  0  0  0  0  0  0  0  0  0  0  0
   61.5857   34.6956   48.3864 H   0  0  0  0  0  0  0  0  0  0  0  0
   61.5168   32.8961   48.0977 H   0  0  0  0  0  0  0  0  0  0  0  0
   61.8150   34.5602   46.0684 H   0  0  0  0  0  0  0  0  0  0  0  0
   60.7262   33.1186   45.9505 H   0  0  0  0  0  0  0  0  0  0  0  0
   59.8938   36.0012   46.5278 H   0  0  0  0  0  0  0  0  0  0  0  0
   59.6072   35.0380   45.0075 H   0  0  0  0  0  0  0  0  0  0  0  0
   56.1649   28.7262   43.4362 H   0  0  0  0  0  0  0  0  0  0  0  0
  1  2  2  0
  2  3  1  0
  3  4  1  0
  4  5  1  0
  5  6  2  0
  6  7  1  0
  7  8  1  0
  8  9  2  0
  8 10  1  0
  2 11  1  0
 11 12  2  0
 12 13  1  0
 13 14  2  0
 14 15  1  0
 15 16  1  0
 16 17  1  0
 17 18  1  0
 18 19  1  0
 19 20  1  0
 20 21  1  0
 21 22  1  0
 22 23  1  0
 14 24  1  0
 24 25  1  0
 24 26  2  0
 10  4  2  0
 26 11  1  0
 23 18  1  0
  3 27  1  0
  5 28  1  0
  6 29  1  0
 10 30  1  0
 12 31  1  0
 13 32  1  0
 16 33  1  0
 16 34  1  0
 17 35  1  0
 17 36  1  0
 19 37  1  0
 19 38  1  0
 20 39  1  0
 20 40  1  0
 21 41  1  0
 21 42  1  0
 22 43  1  0
 22 44  1  0
 23 45  1  0
 23 46  1  0
 26 47  1  0
M  CHG  1   7  -1
M  END
>  <UniqueID>  (37) 
35

>  <SMILES>  (37) 
O=C(Nc1cc[n-]c(=O)c1)c1ccc(OCCN2CCCCC2)c(F)c1

>  <Energy>  (37) 
65.2742163281396

>  <Genealogy>  (37) 
O=C(Nc1cc[n-]c(=O)c1)c1ccc(OCCN2CCCCC2)c(F)c1 (protonated)
O=C(Nc1cc[n-]c(=O)c1)c1ccc(OCCN2CCCCC2)c(F)c1 (3D coordinates assigned)
O=C(Nc1cc[n-]c(=O)c1)c1ccc(OCCN2CCCCC2)c(F)c1 (nonaromatic ring conformer: 65.2742163281396 kcal/mol)

>  <smiles>  (37) 
O=C(Nc1cc[nH]c(=O)c1)c1ccc(OCCN2CCCCC2)c(F)c1

>  <score_type>  (37) 
oracle

>  <origin>  (37) 
adg

>  <m_score__min__energy>  (37) 
-9.2400000000000002

>  <m_primary>  (37) 
energy

$$$$
37:0
     RDKit          3D

 32 33  0  0  0  0  0  0  0  0999 V2000
   56.2650   30.0130   42.8540 C   0  0  0  0  0  0  0  0  0  0  0  0
   56.2380   30.2130   44.3310 C   0  0  0  0  0  0  0  0  0  0  0  0
   56.4540   31.3590   44.8090 O   0  0  0  0  0  0  0  0  0  0  0  0
   55.8650   29.1260   45.1840 N   0  0  0  0  0  0  0  0  0  0  0  0
   56.6910   27.9980   45.5050 C   0  0  0  0  0  0  0  0  0  0  0  0
   58.0810   28.1580   45.4680 C   0  0  0  0  0  0  0  0  0  0  0  0
   58.9250   27.0920   45.7800 C   0  0  0  0  0  0  0  0  0  0  0  0
   58.3880   25.8570   46.1480 C   0  0  0  0  0  0  0  0  0  0  0  0
   56.9970   25.6810   46.2200 C   0  0  0  0  0  0  0  0  0  0  0  0
   56.4280   24.3590   46.6670 C   0  0  0  0  0  0  0  0  0  0  0  0
   56.7760   23.3100   45.7160 N   0  0  0  0  0  0  0  0  0  0  0  0
   55.8210   22.6470   44.8790 C   0  0  0  0  0  0  0  0  0  0  0  0
   56.2120   21.8710   43.9660 O   0  0  0  0  0  0  0  0  0  0  0  0
   54.3820   22.8830   45.0910 C   0  0  0  0  0  0  0  0  0  0  0  0
   53.7820   24.1040   44.7560 C   0  0  0  0  0  0  0  0  0  0  0  0
   52.4160   24.2760   44.9730 C   0  0  0  0  0  0  0  0  0  0  0  0
   51.6790   23.2270   45.5210 C   0  0  0  0  0  0  0  0  0  0  0  0
   50.4440   23.3560   45.7290 O   0  0  0  0  0  0  0  0  0  0  0  0
   52.3020   22.0620   45.8300 N   0  0  0  0  0  0  0  0  0  0  0  0
   53.6100   21.8950   45.6210 N   0  0  0  0  0  0  0  0  0  0  0  0
   56.1460   26.7640   45.9180 C   0  0  0  0  0  0  0  0  0  0  0  0
   54.7690   26.6180   46.0640 O   0  0  0  0  0  0  0  0  0  0  0  0
   56.4091   28.9455   42.6311 H   0  0  0  0  0  0  0  0  0  0  0  0
   55.3128   30.3528   42.4205 H   0  0  0  0  0  0  0  0  0  0  0  0
   57.0930   30.5931   42.4205 H   0  0  0  0  0  0  0  0  0  0  0  0
   58.5112   29.1317   45.1908 H   0  0  0  0  0  0  0  0  0  0  0  0
   60.0161   27.2248   45.7360 H   0  0  0  0  0  0  0  0  0  0  0  0
   59.0585   25.0172   46.3828 H   0  0  0  0  0  0  0  0  0  0  0  0
   56.8378   24.1032   47.6552 H   0  0  0  0  0  0  0  0  0  0  0  0
   55.3325   24.4418   46.7229 H   0  0  0  0  0  0  0  0  0  0  0  0
   54.3830   24.9188   44.3260 H   0  0  0  0  0  0  0  0  0  0  0  0
   51.9260   25.2265   44.7154 H   0  0  0  0  0  0  0  0  0  0  0  0
  1  2  1  0
  2  3  2  0
  2  4  1  0
  4  5  1  0
  5  6  2  0
  6  7  1  0
  7  8  2  0
  8  9  1  0
  9 10  1  0
 10 11  1  0
 11 12  1  0
 12 13  2  0
 12 14  1  0
 14 15  1  0
 15 16  2  0
 16 17  1  0
 17 18  2  0
 17 19  1  0
 19 20  1  0
  9 21  2  0
 21 22  1  0
 21  5  1  0
 20 14  2  0
  1 23  1  0
  1 24  1  0
  1 25  1  0
  6 26  1  0
  7 27  1  0
  8 28  1  0
 10 29  1  0
 10 30  1  0
 15 31  1  0
 16 32  1  0
M  CHG  4   4  -1  11  -1  19  -1  22  -1
M  END
>  <UniqueID>  (38) 
36

>  <SMILES>  (38) 
CC(=O)[N-]c1cccc(C[N-]C(=O)c2ccc(=O)[n-]n2)c1[O-]

>  <Energy>  (38) 
35.872553611371174

>  <Genealogy>  (38) 
CC(=O)[N-]c1cccc(C[N-]C(=O)c2ccc(=O)[n-]n2)c1[O-] (protonated)
CC(=O)[N-]c1cccc(C[N-]C(=O)c2ccc(=O)[n-]n2)c1[O-] (3D coordinates assigned)
CC(=O)[N-]c1cccc(C[N-]C(=O)c2ccc(=O)[n-]n2)c1[O-] (optimized conformer: 35.872553611371174 kcal/mol)

>  <smiles>  (38) 
CC(=O)Nc1cccc(CNC(=O)c2ccc(=O)[nH]n2)c1O

>  <score_type>  (38) 
oracle

>  <origin>  (38) 
adg

>  <m_score__min__energy>  (38) 
-15.76

>  <m_primary>  (38) 
energy

$$$$
38:0
     RDKit          3D

 46 48  0  0  0  0  0  0  0  0999 V2000
   56.9920   34.4580   45.0940 C   0  0  0  0  0  0  0  0  0  0  0  0
   57.4120   33.0310   45.3030 C   0  0  0  0  0  0  0  0  0  0  0  0
   57.0500   32.0520   44.3650 C   0  0  0  0  0  0  0  0  0  0  0  0
   57.4670   30.7290   44.5290 C   0  0  0  0  0  0  0  0  0  0  0  0
   57.0130   29.5130   43.3480 Cl  0  0  0  0  0  0  0  0  0  0  0  0
   58.2550   30.3750   45.6260 C   0  0  0  0  0  0  0  0  0  0  0  0
   58.6280   31.3360   46.5770 C   0  0  0  0  0  0  0  0  0  0  0  0
   59.5310   30.9320   47.7150 C   0  0  0  0  0  0  0  0  0  0  0  0
   60.6920   30.1270   47.2010 C   0  0  0  0  0  0  0  0  0  0  0  0
   61.7150   30.7220   46.7700 O   0  0  0  0  0  0  0  0  0  0  0  0
   60.6110   28.7000   47.0790 N   0  0  0  0  0  0  0  0  0  0  0  0
   59.5630   28.0010   46.7440 C   0  0  0  0  0  0  0  0  0  0  0  0
   59.3920   27.4590   45.4540 C   0  0  0  0  0  0  0  0  0  0  0  0
   58.2440   26.7220   45.1630 C   0  0  0  0  0  0  0  0  0  0  0  0
   57.2580   26.5300   46.1420 C   0  0  0  0  0  0  0  0  0  0  0  0
   56.0350   25.7510   45.8490 C   0  0  0  0  0  0  0  0  0  0  0  0
   56.1140   24.5510   45.4730 O   0  0  0  0  0  0  0  0  0  0  0  0
   54.7810   26.3340   45.9830 O   0  0  0  0  0  0  0  0  0  0  0  0
   57.4530   27.1060   47.4060 C   0  0  0  0  0  0  0  0  0  0  0  0
   58.5820   27.8180   47.6680 N   0  0  0  0  0  0  0  0  0  0  0  0
   58.2100   32.6760   46.4080 C   0  0  0  0  0  0  0  0  0  0  0  0
   58.6040   33.6630   47.3180 O   0  0  0  0  0  0  0  0  0  0  0  0
   59.6670   34.5390   47.0670 C   0  0  0  0  0  0  0  0  0  0  0  0
   59.7070   35.2050   45.9970 O   0  0  0  0  0  0  0  0  0  0  0  0
   60.6930   34.7320   48.0460 N   0  0  0  0  0  0  0  0  0  0  0  0
   61.8560   33.9100   48.2110 C   0  0  0  0  0  0  0  0  0  0  0  0
   62.1890   33.4640   49.4970 C   0  0  0  0  0  0  0  0  0  0  0  0
   63.3280   32.6780   49.7010 C   0  0  0  0  0  0  0  0  0  0  0  0
   64.1490   32.3420   48.6200 C   0  0  0  0  0  0  0  0  0  0  0  0
   63.8400   32.8030   47.3380 C   0  0  0  0  0  0  0  0  0  0  0  0
   62.7000   33.5860   47.1320 C   0  0  0  0  0  0  0  0  0  0  0  0
   56.8487   34.9447   46.0700 H   0  0  0  0  0  0  0  0  0  0  0  0
   57.7715   34.9907   44.5295 H   0  0  0  0  0  0  0  0  0  0  0  0
   56.0482   34.4835   44.5295 H   0  0  0  0  0  0  0  0  0  0  0  0
   56.4346   32.3279   43.4960 H   0  0  0  0  0  0  0  0  0  0  0  0
   58.5863   29.3329   45.7454 H   0  0  0  0  0  0  0  0  0  0  0  0
   59.9095   31.8353   48.2159 H   0  0  0  0  0  0  0  0  0  0  0  0
   58.9576   30.3185   48.4256 H   0  0  0  0  0  0  0  0  0  0  0  0
   60.1592   27.6163   44.6815 H   0  0  0  0  0  0  0  0  0  0  0  0
   58.1112   26.2891   44.1605 H   0  0  0  0  0  0  0  0  0  0  0  0
   56.6899   26.9814   48.1884 H   0  0  0  0  0  0  0  0  0  0  0  0
   61.5508   33.7337   50.3514 H   0  0  0  0  0  0  0  0  0  0  0  0
   63.5779   32.3241   50.7121 H   0  0  0  0  0  0  0  0  0  0  0  0
   65.0384   31.7145   48.7792 H   0  0  0  0  0  0  0  0  0  0  0  0
   64.4937   32.5499   46.4903 H   0  0  0  0  0  0  0  0  0  0  0  0
   62.4616   33.9505   46.1219 H   0  0  0  0  0  0  0  0  0  0  0  0
  1  2  1  0
  2  3  2  0
  3  4  1  0
  4  5  1  0
  4  6  2  0
  6  7  1  0
  7  8  1  0
  8  9  1  0
  9 10  2  0
  9 11  1  0
 11 12  2  3
 12 13  1  0
 13 14  2  0
 14 15  1  0
 15 16  1  0
 16 17  2  0
 16 18  1  0
 15 19  2  0
 19 20  1  0
  7 21  2  0
 21 22  1  0
 22 23  1  0
 23 24  2  0
 23 25  1  0
 25 26  1  0
 26 27  2  0
 27 28  1  0
 28 29  2  0
 29 30  1  0
 30 31  2  0
 21  2  1  0
 31 26  1  0
 20 12  1  0
  1 32  1  0
  1 33  1  0
  1 34  1  0
  3 35  1  0
  6 36  1  0
  8 37  1  0
  8 38  1  0
 13 39  1  0
 14 40  1  0
 19 41  1  0
 27 42  1  0
 28 43  1  0
 29 44  1  0
 30 45  1  0
 31 46  1  0
M  CHG  3  18  -1  20  -1  25  -1
M  END
>  <UniqueID>  (39) 
37

>  <SMILES>  (39) 
Cc1cc(Cl)cc(CC(=O)N=c2ccc(C(=O)[O-])c[n-]2)c1OC(=O)[N-]c1ccccc1

>  <Energy>  (39) 
68.11661066070393

>  <Genealogy>  (39) 
Cc1cc(Cl)cc(CC(=O)N=c2ccc(C(=O)[O-])c[n-]2)c1OC(=O)[N-]c1ccccc1 (protonated)
Cc1cc(Cl)cc(CC(=O)N=c2ccc(C(=O)[O-])c[n-]2)c1OC(=O)[N-]c1ccccc1 (3D coordinates assigned)
Cc1cc(Cl)cc(CC(=O)N=c2ccc(C(=O)[O-])c[n-]2)c1OC(=O)[N-]c1ccccc1 (optimized conformer: 68.11661066070393 kcal/mol)

>  <smiles>  (39) 
Cc1cc(Cl)cc(CC(=O)N=c2ccc(C(=O)O)c[nH]2)c1OC(=O)Nc1ccccc1

>  <score_type>  (39) 
oracle

>  <origin>  (39) 
adg

>  <m_score__min__energy>  (39) 
-14.1

>  <m_primary>  (39) 
energy

$$$$
39:0
     RDKit          3D

 61 64  0  0  0  0  0  0  0  0999 V2000
   63.7080   33.4270   46.7760 C   0  0  0  0  0  0  0  0  0  0  0  0
   63.2620   34.1790   47.9430 N   0  0  0  0  0  0  0  0  0  0  0  0
   61.8780   33.4000   48.6490 S   0  0  0  0  0  0  0  0  0  0  0  0
   61.3850   34.2190   49.8060 O   0  0  0  0  0  0  0  0  0  0  0  0
   62.2720   32.0360   49.1490 O   0  0  0  0  0  0  0  0  0  0  0  0
   60.5910   33.2590   47.4530 C   0  0  0  0  0  0  0  0  0  0  0  0
   60.3100   32.0120   46.8810 C   0  0  0  0  0  0  0  0  0  0  0  0
   59.2760   31.8830   45.9460 C   0  0  0  0  0  0  0  0  0  0  0  0
   58.5080   33.0000   45.5820 C   0  0  0  0  0  0  0  0  0  0  0  0
   57.4140   32.8730   44.5620 C   0  0  0  0  0  0  0  0  0  0  0  0
   56.5970   31.7080   44.8700 N   0  0  0  0  0  0  0  0  0  0  0  0
   56.9930   30.3750   44.5280 C   0  0  0  0  0  0  0  0  0  0  0  0
   58.0170   30.1790   43.8140 O   0  0  0  0  0  0  0  0  0  0  0  0
   56.2190   29.2040   45.0550 C   0  0  0  0  0  0  0  0  0  0  0  0
   57.0260   27.9900   45.0190 N   0  0  0  0  0  0  0  0  0  0  0  0
   56.6160   26.7430   45.5860 C   0  0  0  0  0  0  0  0  0  0  0  0
   55.4890   26.6560   46.1420 O   0  0  0  0  0  0  0  0  0  0  0  0
   57.5020   25.5590   45.5090 C   0  0  0  0  0  0  0  0  0  0  0  0
   58.6760   25.3080   46.2410 C   0  0  0  0  0  0  0  0  0  0  0  0
   59.2300   26.1330   47.3660 C   0  0  0  0  0  0  0  0  0  0  0  0
   58.9520   27.8600   47.0160 S   0  0  0  0  0  0  0  0  0  0  0  0
   59.7670   28.3540   45.6320 O   0  0  0  0  0  0  0  0  0  0  0  0
   59.3940   28.8470   48.3990 C   0  0  0  0  0  0  0  0  0  0  0  0
   58.6030   29.9420   48.7680 C   0  0  0  0  0  0  0  0  0  0  0  0
   58.9860   30.7510   49.8420 C   0  0  0  0  0  0  0  0  0  0  0  0
   60.1610   30.4730   50.5470 C   0  0  0  0  0  0  0  0  0  0  0  0
   60.9590   29.3880   50.1710 C   0  0  0  0  0  0  0  0  0  0  0  0
   60.5780   28.5770   49.0960 C   0  0  0  0  0  0  0  0  0  0  0  0
   59.1630   24.0800   45.9510 N   0  0  0  0  0  0  0  0  0  0  0  0
   58.3290   23.5490   45.0460 C   0  0  0  0  0  0  0  0  0  0  0  0
   58.4040   22.2730   44.4880 C   0  0  0  0  0  0  0  0  0  0  0  0
   57.3970   21.8850   43.5900 C   0  0  0  0  0  0  0  0  0  0  0  0
   56.3410   22.7700   43.2770 C   0  0  0  0  0  0  0  0  0  0  0  0
   56.2870   24.0500   43.8570 C   0  0  0  0  0  0  0  0  0  0  0  0
   57.3030   24.4120   44.7490 C   0  0  0  0  0  0  0  0  0  0  0  0
   58.8010   34.2510   46.1490 C   0  0  0  0  0  0  0  0  0  0  0  0
   59.8370   34.3800   47.0790 C   0  0  0  0  0  0  0  0  0  0  0  0
   64.2435   32.5240   47.1044 H   0  0  0  0  0  0  0  0  0  0  0  0
   62.8360   33.1367   46.1716 H   0  0  0  0  0  0  0  0  0  0  0  0
   64.3810   34.0530   46.1716 H   0  0  0  0  0  0  0  0  0  0  0  0
   60.9035   31.1312   47.1672 H   0  0  0  0  0  0  0  0  0  0  0  0
   59.0646   30.9023   45.4948 H   0  0  0  0  0  0  0  0  0  0  0  0
   56.7869   33.7765   44.5823 H   0  0  0  0  0  0  0  0  0  0  0  0
   57.8566   32.7567   43.5617 H   0  0  0  0  0  0  0  0  0  0  0  0
   55.9203   29.4075   46.0939 H   0  0  0  0  0  0  0  0  0  0  0  0
   55.3312   29.0555   44.4228 H   0  0  0  0  0  0  0  0  0  0  0  0
   58.7252   25.8616   48.3049 H   0  0  0  0  0  0  0  0  0  0  0  0
   60.3090   25.9446   47.4670 H   0  0  0  0  0  0  0  0  0  0  0  0
   59.0550   28.7190   45.0450 H   0  0  0  0  0  0  0  0  0  0  0  0
   57.6801   30.1657   48.2128 H   0  0  0  0  0  0  0  0  0  0  0  0
   58.3614   31.6084   50.1331 H   0  0  0  0  0  0  0  0  0  0  0  0
   60.4572   31.1067   51.3960 H   0  0  0  0  0  0  0  0  0  0  0  0
   61.8870   29.1718   50.7206 H   0  0  0  0  0  0  0  0  0  0  0  0
   61.2092   27.7267   48.7984 H   0  0  0  0  0  0  0  0  0  0  0  0
   59.9970   23.6170   46.3800 H   0  0  0  0  0  0  0  0  0  0  0  0
   59.2279   21.5907   44.7440 H   0  0  0  0  0  0  0  0  0  0  0  0
   57.4303   20.8873   43.1279 H   0  0  0  0  0  0  0  0  0  0  0  0
   55.5552   22.4555   42.5744 H   0  0  0  0  0  0  0  0  0  0  0  0
   55.4701   24.7464   43.6166 H   0  0  0  0  0  0  0  0  0  0  0  0
   58.2123   35.1341   45.8599 H   0  0  0  0  0  0  0  0  0  0  0  0
   60.0609   35.3634   47.5182 H   0  0  0  0  0  0  0  0  0  0  0  0
  1  2  1  0
  2  3  1  0
  3  4  2  0
  3  5  2  0
  3  6  1  0
  6  7  2  0
  7  8  1  0
  8  9  2  0
  9 10  1  0
 10 11  1  0
 11 12  1  0
 12 13  2  0
 12 14  1  0
 14 15  1  0
 15 16  1  0
 16 17  2  0
 16 18  1  0
 18 19  2  0
 19 20  1  0
 20 21  1  0
 21 22  1  6
 21 23  1  0
 23 24  2  0
 24 25  1  0
 25 26  2  0
 26 27  1  0
 27 28  2  0
 19 29  1  0
 29 30  1  0
 30 31  2  0
 31 32  1  0
 32 33  2  0
 33 34  1  0
 34 35  2  0
  9 36  1  0
 36 37  2  0
 37  6  1  0
 35 18  1  0
 28 23  1  0
 35 30  1  0
  1 38  1  0
  1 39  1  0
  1 40  1  0
  7 41  1  0
  8 42  1  0
 10 43  1  0
 10 44  1  0
 14 45  1  0
 14 46  1  0
 20 47  1  0
 20 48  1  0
 22 49  1  0
 24 50  1  0
 25 51  1  0
 26 52  1  0
 27 53  1  0
 28 54  1  0
 29 55  1  0
 31 56  1  0
 32 57  1  0
 33 58  1  0
 34 59  1  0
 36 60  1  0
 37 61  1  0
M  CHG  4   2  -1  11  -1  15  -1  21   1
M  END
>  <UniqueID>  (40) 
38

>  <SMILES>  (40) 
C[N-]S(=O)(=O)c1ccc(C[N-]C(=O)C[N-]C(=O)c2c(C[S@+](O)c3ccccc3)[nH]c3ccccc23)cc1

>  <Energy>  (40) 
78.20300762912646

>  <Genealogy>  (40) 
C[N-]S(=O)(=O)c1ccc(C[N-]C(=O)C[N-]C(=O)c2c(C[S+](O)c3ccccc3)[nH]c3ccccc23)cc1 (protonated)
C[N-]S(=O)(=O)c1ccc(C[N-]C(=O)C[N-]C(=O)c2c(C[S@+](O)c3ccccc3)[nH]c3ccccc23)cc1 (chirality)
C[N-]S(=O)(=O)c1ccc(C[N-]C(=O)C[N-]C(=O)c2c(C[S@+](O)c3ccccc3)[nH]c3ccccc23)cc1 (3D coordinates assigned)
C[N-]S(=O)(=O)c1ccc(C[N-]C(=O)C[N-]C(=O)c2c(C[S@+](O)c3ccccc3)[nH]c3ccccc23)cc1 (optimized conformer: 78.20300762912646 kcal/mol)

>  <smiles>  (40) 
CNS(=O)(=O)c1ccc(CNC(=O)CNC(=O)c2c(C[S+]([O-])c3ccccc3)[nH]c3ccccc23)cc1

>  <score_type>  (40) 
oracle

>  <origin>  (40) 
adg

>  <m_score__min__energy>  (40) 
-12.210000000000001

>  <m_primary>  (40) 
energy

$$$$
40:0
     RDKit          3D

 79 83  0  0  0  0  0  0  0  0999 V2000
   57.6340   22.7100   44.5150 C   0  0  0  0  0  0  0  0  0  0  0  0
   58.8740   23.2690   45.1880 C   0  0  0  0  0  0  0  0  0  0  0  0
   58.4930   24.2950   46.1020 O   0  0  0  0  0  0  0  0  0  0  0  0
   58.2400   25.6300   45.7510 C   0  0  0  0  0  0  0  0  0  0  0  0
   58.0890   26.0510   44.4160 C   0  0  0  0  0  0  0  0  0  0  0  0
   57.8080   27.3890   44.1270 C   0  0  0  0  0  0  0  0  0  0  0  0
   57.6820   28.3320   45.1620 C   0  0  0  0  0  0  0  0  0  0  0  0
   57.3320   29.7350   44.8470 C   0  0  0  0  0  0  0  0  0  0  0  0
   56.1160   30.0740   44.8420 O   0  0  0  0  0  0  0  0  0  0  0  0
   58.3500   30.7040   44.5370 N   0  0  0  0  0  0  0  0  0  0  0  0
   58.0430   32.0990   44.2240 C   0  0  0  0  0  0  0  0  0  0  0  0
   58.5670   33.0070   45.3040 C   0  0  0  0  0  0  0  0  0  0  0  0
   58.8630   34.3510   45.0360 C   0  0  0  0  0  0  0  0  0  0  0  0
   59.3330   35.1840   46.0550 C   0  0  0  0  0  0  0  0  0  0  0  0
   59.4780   34.6940   47.3580 C   0  0  0  0  0  0  0  0  0  0  0  0
   59.1440   33.3640   47.6490 C   0  0  0  0  0  0  0  0  0  0  0  0
   59.1270   32.8640   49.0390 C   0  0  0  0  0  0  0  0  0  0  0  0
   59.3140   33.6450   50.0120 O   0  0  0  0  0  0  0  0  0  0  0  0
   58.8640   31.4770   49.2700 N   0  0  0  0  0  0  0  0  0  0  0  0
   58.6590   30.8180   50.3790 C   0  0  0  0  0  0  0  0  0  0  0  0
   57.3760   30.8120   50.8350 N   0  0  0  0  0  0  0  0  0  0  0  0
   56.9710   30.1830   51.9690 C   0  0  0  0  0  0  0  0  0  0  0  0
   55.5770   30.3290   52.4210 C   0  0  0  0  0  0  0  0  0  0  0  0
   55.0130   29.6850   53.5220 C   0  0  0  0  0  0  0  0  0  0  0  0
   53.6590   29.9800   53.7030 C   0  0  0  0  0  0  0  0  0  0  0  0
   53.1560   30.8420   52.7400 C   0  0  0  0  0  0  0  0  0  0  0  0
   51.5130   31.4350   52.6440 S   0  0  0  0  0  0  0  0  0  0  0  0
   51.3160   32.3350   51.1810 N   0  0  0  0  0  0  0  0  0  0  0  0
   50.5540   30.2780   52.6440 O   0  0  0  0  0  0  0  0  0  0  0  0
   51.2330   32.3200   53.8260 O   0  0  0  0  0  0  0  0  0  0  0  0
   54.3800   31.2480   51.6680 S   0  0  0  0  0  0  0  0  0  0  0  0
   57.8980   29.4400   52.6980 C   0  0  0  0  0  0  0  0  0  0  0  0
   59.2240   29.4090   52.2840 C   0  0  0  0  0  0  0  0  0  0  0  0
   59.6620   30.1380   51.1580 C   0  0  0  0  0  0  0  0  0  0  0  0
   61.1460   30.0440   50.8210 C   0  0  0  0  0  0  0  0  0  0  0  0
   61.4030   30.4650   49.4260 N   0  0  0  0  0  0  0  0  0  0  0  0
   62.6710   31.2130   49.2740 C   0  0  0  0  0  0  0  0  0  0  0  0
   62.8290   31.6960   47.8060 C   0  0  0  0  0  0  0  0  0  0  0  0
   63.6230   33.0090   47.7110 C   0  0  0  0  0  0  0  0  0  0  0  0
   63.0010   34.1110   48.4750 N   0  0  0  0  0  0  0  0  0  0  0  0
   62.1980   33.6850   49.6410 C   0  0  0  0  0  0  0  0  0  0  0  0
   62.7330   32.3960   50.2730 C   0  0  0  0  0  0  0  0  0  0  0  0
   58.7140   32.5230   46.6120 C   0  0  0  0  0  0  0  0  0  0  0  0
   57.8490   27.9110   46.4940 C   0  0  0  0  0  0  0  0  0  0  0  0
   58.1270   26.5710   46.7810 C   0  0  0  0  0  0  0  0  0  0  0  0
   56.9151   22.3859   45.2819 H   0  0  0  0  0  0  0  0  0  0  0  0
   57.1749   23.4882   43.8876 H   0  0  0  0  0  0  0  0  0  0  0  0
   57.9132   21.8507   43.8876 H   0  0  0  0  0  0  0  0  0  0  0  0
   59.3903   22.4649   45.7328 H   0  0  0  0  0  0  0  0  0  0  0  0
   59.5496   23.6863   44.4268 H   0  0  0  0  0  0  0  0  0  0  0  0
   58.1926   25.3238   43.5972 H   0  0  0  0  0  0  0  0  0  0  0  0
   57.6844   27.7069   43.0812 H   0  0  0  0  0  0  0  0  0  0  0  0
   59.3360   30.3910   44.4010 H   0  0  0  0  0  0  0  0  0  0  0  0
   58.5122   32.3671   43.2659 H   0  0  0  0  0  0  0  0  0  0  0  0
   56.9515   32.2176   44.1568 H   0  0  0  0  0  0  0  0  0  0  0  0
   58.7249   34.7510   44.0207 H   0  0  0  0  0  0  0  0  0  0  0  0
   59.5903   36.2300   45.8319 H   0  0  0  0  0  0  0  0  0  0  0  0
   59.8543   35.3530   48.1543 H   0  0  0  0  0  0  0  0  0  0  0  0
   55.5782   29.0113   54.1828 H   0  0  0  0  0  0  0  0  0  0  0  0
   53.0540   29.5703   54.5253 H   0  0  0  0  0  0  0  0  0  0  0  0
   50.2970   32.3340   50.9570 H   0  0  0  0  0  0  0  0  0  0  0  0
   57.5827   28.8833   53.5928 H   0  0  0  0  0  0  0  0  0  0  0  0
   59.9488   28.8024   52.8468 H   0  0  0  0  0  0  0  0  0  0  0  0
   61.7113   30.6961   51.5030 H   0  0  0  0  0  0  0  0  0  0  0  0
   61.4645   28.9972   50.9344 H   0  0  0  0  0  0  0  0  0  0  0  0
   60.5970   31.0570   49.1120 H   0  0  0  0  0  0  0  0  0  0  0  0
   63.5123   30.5436   49.5065 H   0  0  0  0  0  0  0  0  0  0  0  0
   63.3569   30.9200   47.2323 H   0  0  0  0  0  0  0  0  0  0  0  0
   61.8233   31.8784   47.3995 H   0  0  0  0  0  0  0  0  0  0  0  0
   64.6357   32.8365   48.1042 H   0  0  0  0  0  0  0  0  0  0  0  0
   63.6418   33.3089   46.6528 H   0  0  0  0  0  0  0  0  0  0  0  0
   62.3750   34.6580   47.8340 H   0  0  0  0  0  0  0  0  0  0  0  0
   62.2183   34.4846   50.3961 H   0  0  0  0  0  0  0  0  0  0  0  0
   61.1734   33.4896   49.2918 H   0  0  0  0  0  0  0  0  0  0  0  0
   63.7781   32.5532   50.5782 H   0  0  0  0  0  0  0  0  0  0  0  0
   62.1070   32.1495   51.1433 H   0  0  0  0  0  0  0  0  0  0  0  0
   58.4887   31.4682   46.8279 H   0  0  0  0  0  0  0  0  0  0  0  0
   57.7605   28.6394   47.3135 H   0  0  0  0  0  0  0  0  0  0  0  0
   58.2581   26.2534   47.8260 H   0  0  0  0  0  0  0  0  0  0  0  0
  1  2  1  0
  2  3  1  0
  3  4  1  0
  4  5  2  0
  5  6  1  0
  6  7  2  0
  7  8  1  0
  8  9  2  0
  8 10  1  0
 10 11  1  0
 11 12  1  0
 12 13  2  0
 13 14  1  0
 14 15  2  0
 15 16  1  0
 16 17  1  0
 17 18  2  0
 17 19  1  0
 19 20  2  3
 20 21  1  0
 21 22  1  0
 22 23  1  0
 23 24  2  0
 24 25  1  0
 25 26  2  0
 26 27  1  0
 27 28  1  0
 27 29  2  0
 27 30  2  0
 26 31  1  0
 22 32  2  0
 32 33  1  0
 33 34  2  0
 34 35  1  0
 35 36  1  0
 36 37  1  0
 37 38  1  0
 38 39  1  0
 39 40  1  0
 40 41  1  0
 41 42  1  0
 16 43  2  0
  7 44  1  0
 44 45  2  0
 45  4  1  0
 43 12  1  0
 34 20  1  0
 42 37  1  0
 31 23  1  0
  1 46  1  0
  1 47  1  0
  1 48  1  0
  2 49  1  0
  2 50  1  0
  5 51  1  0
  6 52  1  0
 10 53  1  0
 11 54  1  0
 11 55  1  0
 13 56  1  0
 14 57  1  0
 15 58  1  0
 24 59  1  0
 25 60  1  0
 28 61  1  0
 32 62  1  0
 33 63  1  0
 35 64  1  0
 35 65  1  0
 36 66  1  0
 37 67  1  0
 38 68  1  0
 38 69  1  0
 39 70  1  0
 39 71  1  0
 40 72  1  0
 41 73  1  0
 41 74  1  0
 42 75  1  0
 42 76  1  0
 43 77  1  0
 44 78  1  0
 45 79  1  0
M  CHG  2  21  -1  28  -1
M  END
>  <UniqueID>  (41) 
39

>  <SMILES>  (41) 
CCOc1ccc(C(=O)NCc2cccc(C(=O)N=c3[n-]c(-c4ccc(S([NH-])(=O)=O)s4)ccc3CNC3CCNCC3)c2)cc1

>  <Energy>  (41) 
135.8233350481592

>  <Genealogy>  (41) 
CCOc1ccc(C(=O)NCc2cccc(C(=O)N=c3[n-]c(-c4ccc(S([NH-])(=O)=O)s4)ccc3CNC3CCNCC3)c2)cc1 (protonated)
CCOc1ccc(C(=O)NCc2cccc(C(=O)N=c3[n-]c(-c4ccc(S([NH-])(=O)=O)s4)ccc3CNC3CCNCC3)c2)cc1 (3D coordinates assigned)
CCOc1ccc(C(=O)NCc2cccc(C(=O)N=c3[n-]c(-c4ccc(S([NH-])(=O)=O)s4)ccc3CNC3CCNCC3)c2)cc1 (nonaromatic ring conformer: 135.8233350481592 kcal/mol)

>  <smiles>  (41) 
CCOc1ccc(C(=O)NCc2cccc(C(=O)N=c3[nH]c(-c4ccc(S(N)(=O)=O)s4)ccc3CNC3CCNCC3)c2)cc1

>  <score_type>  (41) 
oracle

>  <origin>  (41) 
adg

>  <m_score__min__energy>  (41) 
-15.630000000000001

>  <m_primary>  (41) 
energy

$$$$
41:0
     RDKit          3D

 42 45  0  0  0  0  0  0  0  0999 V2000
   55.5230   28.9600   44.8830 O   0  0  0  0  0  0  0  0  0  0  0  0
   56.7150   29.1870   45.2080 C   0  0  0  0  0  0  0  0  0  0  0  0
   57.3370   28.3790   46.3160 C   0  0  0  0  0  0  0  0  0  0  0  0
   57.2440   26.9510   46.0150 N   0  0  0  0  0  0  0  0  0  0  0  0
   56.1160   26.2130   45.8730 C   0  0  0  0  0  0  0  0  0  0  0  0
   54.8220   26.7110   46.0160 O   0  0  0  0  0  0  0  0  0  0  0  0
   56.4360   24.9040   45.5690 C   0  0  0  0  0  0  0  0  0  0  0  0
   57.8120   24.8450   45.4930 C   0  0  0  0  0  0  0  0  0  0  0  0
   58.2800   26.1080   45.7940 C   0  0  0  0  0  0  0  0  0  0  0  0
   59.6210   26.4770   45.8600 O   0  0  0  0  0  0  0  0  0  0  0  0
   58.5860   23.5870   45.2340 C   0  0  0  0  0  0  0  0  0  0  0  0
   57.6800   22.5320   44.5660 C   0  0  0  0  0  0  0  0  0  0  0  0
   56.3080   22.4300   45.2680 C   0  0  0  0  0  0  0  0  0  0  0  0
   55.5320   23.7640   45.2130 C   0  0  0  0  0  0  0  0  0  0  0  0
   57.4200   30.2460   44.5500 N   0  0  0  0  0  0  0  0  0  0  0  0
   57.7940   31.4810   45.1780 C   0  0  0  0  0  0  0  0  0  0  0  0
   57.0180   32.6220   44.9270 C   0  0  0  0  0  0  0  0  0  0  0  0
   57.3240   33.8390   45.5420 C   0  0  0  0  0  0  0  0  0  0  0  0
   58.4110   33.9330   46.4140 C   0  0  0  0  0  0  0  0  0  0  0  0
   59.2200   32.8130   46.6590 C   0  0  0  0  0  0  0  0  0  0  0  0
   60.3280   32.9160   47.5190 C   0  0  0  0  0  0  0  0  0  0  0  0
   61.1650   31.8150   47.7240 C   0  0  0  0  0  0  0  0  0  0  0  0
   60.9100   30.6080   47.0670 C   0  0  0  0  0  0  0  0  0  0  0  0
   59.8060   30.4870   46.2160 C   0  0  0  0  0  0  0  0  0  0  0  0
   58.9310   31.5780   46.0190 C   0  0  0  0  0  0  0  0  0  0  0  0
   58.3954   28.6599   46.4202 H   0  0  0  0  0  0  0  0  0  0  0  0
   56.7995   28.5833   47.2537 H   0  0  0  0  0  0  0  0  0  0  0  0
   59.4330   23.8119   44.5692 H   0  0  0  0  0  0  0  0  0  0  0  0
   58.9549   23.1892   46.1909 H   0  0  0  0  0  0  0  0  0  0  0  0
   57.5222   22.8123   43.5141 H   0  0  0  0  0  0  0  0  0  0  0  0
   58.1780   21.5542   44.6431 H   0  0  0  0  0  0  0  0  0  0  0  0
   55.7114   21.6509   44.7710 H   0  0  0  0  0  0  0  0  0  0  0  0
   56.4837   22.1814   46.3250 H   0  0  0  0  0  0  0  0  0  0  0  0
   55.1404   23.9148   44.1962 H   0  0  0  0  0  0  0  0  0  0  0  0
   54.7018   23.7260   45.9337 H   0  0  0  0  0  0  0  0  0  0  0  0
   56.1612   32.5584   44.2401 H   0  0  0  0  0  0  0  0  0  0  0  0
   56.7064   34.7263   45.3386 H   0  0  0  0  0  0  0  0  0  0  0  0
   58.6338   34.8889   46.9107 H   0  0  0  0  0  0  0  0  0  0  0  0
   60.5369   33.8662   48.0322 H   0  0  0  0  0  0  0  0  0  0  0  0
   62.0258   31.8989   48.4036 H   0  0  0  0  0  0  0  0  0  0  0  0
   61.5803   29.7493   47.2197 H   0  0  0  0  0  0  0  0  0  0  0  0
   59.6182   29.5356   45.6968 H   0  0  0  0  0  0  0  0  0  0  0  0
  1  2  2  0
  2  3  1  0
  3  4  1  0
  4  5  1  0
  5  6  1  0
  5  7  2  0
  7  8  1  0
  8  9  2  0
  9 10  1  0
  8 11  1  0
 11 12  1  0
 12 13  1  0
 13 14  1  0
  2 15  1  0
 15 16  1  0
 16 17  2  0
 17 18  1  0
 18 19  2  0
 19 20  1  0
 20 21  2  0
 21 22  1  0
 22 23  2  0
 23 24  1  0
 24 25  2  0
  9  4  1  0
 25 16  1  0
 14  7  1  0
 25 20  1  0
  3 26  1  0
  3 27  1  0
 11 28  1  0
 11 29  1  0
 12 30  1  0
 12 31  1  0
 13 32  1  0
 13 33  1  0
 14 34  1  0
 14 35  1  0
 17 36  1  0
 18 37  1  0
 19 38  1  0
 21 39  1  0
 22 40  1  0
 23 41  1  0
 24 42  1  0
M  CHG  3   6  -1  10  -1  15  -1
M  END
>  <UniqueID>  (42) 
40

>  <SMILES>  (42) 
O=C(Cn1c([O-])c2c(c1[O-])CCCC2)[N-]c1cccc2ccccc12

>  <Energy>  (42) 
82.52616386446331

>  <Genealogy>  (42) 
O=C(Cn1c([O-])c2c(c1[O-])CCCC2)[N-]c1cccc2ccccc12 (protonated)
O=C(Cn1c([O-])c2c(c1[O-])CCCC2)[N-]c1cccc2ccccc12 (3D coordinates assigned)
O=C(Cn1c([O-])c2c(c1[O-])CCCC2)[N-]c1cccc2ccccc12 (nonaromatic ring conformer: 82.52616386446331 kcal/mol)

>  <smiles>  (42) 
O=C(Cn1c(O)c2c(c1O)CCCC2)Nc1cccc2ccccc12

>  <score_type>  (42) 
oracle

>  <origin>  (42) 
adg

>  <m_score__min__energy>  (42) 
-14.720000000000001

>  <m_primary>  (42) 
energy

$$$$
42:0
     RDKit          3D

 71 74  0  0  0  0  0  0  0  0999 V2000
   57.2780   24.6450   44.7730 C   0  0  0  0  0  0  0  0  0  0  0  0
   58.5030   25.3580   44.9170 O   0  0  0  0  0  0  0  0  0  0  0  0
   58.7390   26.3530   45.8800 C   0  0  0  0  0  0  0  0  0  0  0  0
   59.4940   26.0970   47.0420 C   0  0  0  0  0  0  0  0  0  0  0  0
   59.7260   27.1120   47.9710 C   0  0  0  0  0  0  0  0  0  0  0  0
   59.2160   28.3930   47.7540 C   0  0  0  0  0  0  0  0  0  0  0  0
   59.5240   29.6690   48.9200 Cl  0  0  0  0  0  0  0  0  0  0  0  0
   58.4650   28.6600   46.6070 C   0  0  0  0  0  0  0  0  0  0  0  0
   58.2100   27.6440   45.6710 C   0  0  0  0  0  0  0  0  0  0  0  0
   57.4200   27.9530   44.4220 C   0  0  0  0  0  0  0  0  0  0  0  0
   57.8190   29.2500   43.8730 N   0  0  0  0  0  0  0  0  0  0  0  0
   56.9420   30.3850   43.9400 C   0  0  0  0  0  0  0  0  0  0  0  0
   56.0160   30.4110   44.7920 O   0  0  0  0  0  0  0  0  0  0  0  0
   57.0940   31.4950   43.0450 N   0  0  0  0  0  0  0  0  0  0  0  0
   57.7490   32.7550   43.3850 C   0  0  0  0  0  0  0  0  0  0  0  0
   57.5860   33.0630   44.8780 C   0  0  0  0  0  0  0  0  0  0  0  0
   58.9110   33.0080   45.5920 C   0  0  0  0  0  0  0  0  0  0  0  0
   59.4130   31.7910   46.0780 C   0  0  0  0  0  0  0  0  0  0  0  0
   60.6420   31.7510   46.7460 C   0  0  0  0  0  0  0  0  0  0  0  0
   61.3880   32.9250   46.9200 C   0  0  0  0  0  0  0  0  0  0  0  0
   62.9410   32.8910   47.7490 S   0  0  0  0  0  0  0  0  0  0  0  0
   63.8070   34.0330   47.2990 O   0  0  0  0  0  0  0  0  0  0  0  0
   63.6470   31.6070   47.4180 O   0  0  0  0  0  0  0  0  0  0  0  0
   62.6900   32.9900   49.4610 N   0  0  0  0  0  0  0  0  0  0  0  0
   62.7480   34.2190   50.2270 C   0  0  0  0  0  0  0  0  0  0  0  0
   62.4320   33.7970   51.6740 C   0  0  0  0  0  0  0  0  0  0  0  0
   61.8630   32.4440   51.6050 N   0  0  0  0  0  0  0  0  0  0  0  0
   60.6070   32.1540   52.3380 C   0  0  0  0  0  0  0  0  0  0  0  0
   59.4310   33.1330   52.0450 C   0  0  0  0  0  0  0  0  0  0  0  0
   58.4940   32.5970   50.9550 C   0  0  0  0  0  0  0  0  0  0  0  0
   57.8350   31.2700   51.3820 C   0  0  0  0  0  0  0  0  0  0  0  0
   58.7120   30.4320   52.3350 C   0  0  0  0  0  0  0  0  0  0  0  0
   60.2070   30.6760   52.0910 C   0  0  0  0  0  0  0  0  0  0  0  0
   62.2120   31.9600   50.3060 C   0  0  0  0  0  0  0  0  0  0  0  0
   62.4240   30.7040   50.0540 N   0  0  0  0  0  0  0  0  0  0  0  0
   60.8960   34.1360   46.4200 C   0  0  0  0  0  0  0  0  0  0  0  0
   59.6630   34.1810   45.7670 C   0  0  0  0  0  0  0  0  0  0  0  0
   56.8721   24.4088   45.7677 H   0  0  0  0  0  0  0  0  0  0  0  0
   56.5562   25.2641   44.2200 H   0  0  0  0  0  0  0  0  0  0  0  0
   57.4598   23.7116   44.2200 H   0  0  0  0  0  0  0  0  0  0  0  0
   59.9029   25.0911   47.2177 H   0  0  0  0  0  0  0  0  0  0  0  0
   60.3128   26.9019   48.8774 H   0  0  0  0  0  0  0  0  0  0  0  0
   58.0707   29.6725   46.4355 H   0  0  0  0  0  0  0  0  0  0  0  0
   57.6060   27.1696   43.6725 H   0  0  0  0  0  0  0  0  0  0  0  0
   56.3503   27.9872   44.6760 H   0  0  0  0  0  0  0  0  0  0  0  0
   58.7260   29.3340   43.3620 H   0  0  0  0  0  0  0  0  0  0  0  0
   58.8202   32.6814   43.1460 H   0  0  0  0  0  0  0  0  0  0  0  0
   57.2837   33.5645   42.8034 H   0  0  0  0  0  0  0  0  0  0  0  0
   57.1581   34.0699   44.9923 H   0  0  0  0  0  0  0  0  0  0  0  0
   56.9201   32.3069   45.3195 H   0  0  0  0  0  0  0  0  0  0  0  0
   58.8380   30.8645   45.9332 H   0  0  0  0  0  0  0  0  0  0  0  0
   61.0237   30.7957   47.1356 H   0  0  0  0  0  0  0  0  0  0  0  0
   63.7505   34.6675   50.1645 H   0  0  0  0  0  0  0  0  0  0  0  0
   62.0427   34.9753   49.8520 H   0  0  0  0  0  0  0  0  0  0  0  0
   63.3522   33.7909   52.2766 H   0  0  0  0  0  0  0  0  0  0  0  0
   61.7282   34.4984   52.1458 H   0  0  0  0  0  0  0  0  0  0  0  0
   60.8172   32.3176   53.4053 H   0  0  0  0  0  0  0  0  0  0  0  0
   58.8529   33.2801   52.9692 H   0  0  0  0  0  0  0  0  0  0  0  0
   59.8596   34.0811   51.6881 H   0  0  0  0  0  0  0  0  0  0  0  0
   57.7074   33.3412   50.7616 H   0  0  0  0  0  0  0  0  0  0  0  0
   59.0882   32.4122   50.0479 H   0  0  0  0  0  0  0  0  0  0  0  0
   56.8869   31.4988   51.8906 H   0  0  0  0  0  0  0  0  0  0  0  0
   57.6829   30.6736   50.4703 H   0  0  0  0  0  0  0  0  0  0  0  0
   58.4710   30.7040   53.3732 H   0  0  0  0  0  0  0  0  0  0  0  0
   58.5028   29.3684   52.1479 H   0  0  0  0  0  0  0  0  0  0  0  0
   60.7864   30.0338   52.7707 H   0  0  0  0  0  0  0  0  0  0  0  0
   60.4205   30.4397   51.0381 H   0  0  0  0  0  0  0  0  0  0  0  0
   62.8320   30.3990   49.1450 H   0  0  0  0  0  0  0  0  0  0  0  0
   62.2520   29.9680   50.7700 H   0  0  0  0  0  0  0  0  0  0  0  0
   61.4841   35.0575   46.5422 H   0  0  0  0  0  0  0  0  0  0  0  0
   59.2788   35.1395   45.3879 H   0  0  0  0  0  0  0  0  0  0  0  0
  1  2  1  0
  2  3  1  0
  3  4  2  0
  4  5  1  0
  5  6  2  0
  6  7  1  0
  6  8  1  0
  8  9  2  0
  9 10  1  0
 10 11  1  0
 11 12  1  0
 12 13  2  0
 12 14  1  0
 14 15  1  0
 15 16  1  0
 16 17  1  0
 17 18  2  0
 18 19  1  0
 19 20  2  0
 20 21  1  0
 21 22  2  0
 21 23  2  0
 21 24  1  0
 24 25  1  0
 25 26  1  0
 26 27  1  0
 27 28  1  0
 28 29  1  0
 29 30  1  0
 30 31  1  0
 31 32  1  0
 32 33  1  0
 27 34  1  0
 34 35  2  0
 20 36  1  0
 36 37  2  0
  9  3  1  0
 37 17  1  0
 34 24  1  0
 33 28  1  0
  1 38  1  0
  1 39  1  0
  1 40  1  0
  4 41  1  0
  5 42  1  0
  8 43  1  0
 10 44  1  0
 10 45  1  0
 11 46  1  0
 15 47  1  0
 15 48  1  0
 16 49  1  0
 16 50  1  0
 18 51  1  0
 19 52  1  0
 25 53  1  0
 25 54  1  0
 26 55  1  0
 26 56  1  0
 28 57  1  0
 29 58  1  0
 29 59  1  0
 30 60  1  0
 30 61  1  0
 31 62  1  0
 31 63  1  0
 32 64  1  0
 32 65  1  0
 33 66  1  0
 33 67  1  0
 35 68  1  0
 35 69  1  0
 36 70  1  0
 37 71  1  0
M  CHG  2  14  -1  35   1
M  END
>  <UniqueID>  (43) 
41

>  <SMILES>  (43) 
COc1ccc(Cl)cc1CNC(=O)[N-]CCc1ccc(S(=O)(=O)N2CCN(C3CCCCC3)C2=[NH2+])cc1

>  <Energy>  (43) 
91.21807774505191

>  <Genealogy>  (43) 
COc1ccc(Cl)cc1CNC(=O)[N-]CCc1ccc(S(=O)(=O)N2CCN(C3CCCCC3)C2=[NH2+])cc1 (protonated)
COc1ccc(Cl)cc1CNC(=O)[N-]CCc1ccc(S(=O)(=O)N2CCN(C3CCCCC3)C2=[NH2+])cc1 (3D coordinates assigned)
COc1ccc(Cl)cc1CNC(=O)[N-]CCc1ccc(S(=O)(=O)N2CCN(C3CCCCC3)C2=[NH2+])cc1 (nonaromatic ring conformer: 91.21807774505191 kcal/mol)

>  <smiles>  (43) 
COc1ccc(Cl)cc1CNC(=O)NCCc1ccc(S(=O)(=O)N2CCN(C3CCCCC3)C2=N)cc1

>  <score_type>  (43) 
oracle

>  <origin>  (43) 
adg

>  <m_score__min__energy>  (43) 
-11.550000000000001

>  <m_primary>  (43) 
energy

$$$$
43:0
     RDKit          3D

 36 37  0  0  0  0  0  0  0  0999 V2000
   56.6267   23.1883   45.7933 H   0  0  0  0  0  0  0  0  0  0  0  0
   56.4100   24.2660   45.8320 C   0  0  0  0  0  0  0  0  0  0  0  0
   57.5490   25.5060   45.8170 S   0  0  0  0  0  0  0  0  0  0  0  0
   56.3840   26.7100   45.9070 C   0  0  0  0  0  0  0  0  0  0  0  0
   56.6650   27.9770   45.9620 N   0  0  0  0  0  0  0  0  0  0  0  0
   56.3240   28.9620   44.9740 C   0  0  0  0  0  0  0  0  0  0  0  0
   55.1430   29.3930   44.8620 O   0  0  0  0  0  0  0  0  0  0  0  0
   57.3980   29.5210   44.0990 C   0  0  0  0  0  0  0  0  0  0  0  0
   57.2842   29.1142   43.0833 H   0  0  0  0  0  0  0  0  0  0  0  0
   58.3760   29.2391   44.5162 H   0  0  0  0  0  0  0  0  0  0  0  0
   57.2930   31.3440   44.0300 S   0  0  0  0  0  0  0  0  0  0  0  0
   58.2460   31.6090   45.5280 C   0  0  0  0  0  0  0  0  0  0  0  0
   59.0520   32.6980   45.6300 N   0  0  0  0  0  0  0  0  0  0  0  0
   59.8120   32.9100   46.7360 C   0  0  0  0  0  0  0  0  0  0  0  0
   60.6670   34.1400   46.8250 C   0  0  0  0  0  0  0  0  0  0  0  0
   60.1321   34.9117   47.3981 H   0  0  0  0  0  0  0  0  0  0  0  0
   60.8779   34.5002   45.8073 H   0  0  0  0  0  0  0  0  0  0  0  0
   61.9930   33.8240   47.5220 C   0  0  0  0  0  0  0  0  0  0  0  0
   61.9206   32.8360   48.0001 H   0  0  0  0  0  0  0  0  0  0  0  0
   62.1869   34.6046   48.2724 H   0  0  0  0  0  0  0  0  0  0  0  0
   63.1500   33.8120   46.5270 C   0  0  0  0  0  0  0  0  0  0  0  0
   64.1042   33.8021   47.0743 H   0  0  0  0  0  0  0  0  0  0  0  0
   63.0806   32.9145   45.8948 H   0  0  0  0  0  0  0  0  0  0  0  0
   63.0992   34.7107   45.8948 H   0  0  0  0  0  0  0  0  0  0  0  0
   59.7530   32.0010   47.7980 C   0  0  0  0  0  0  0  0  0  0  0  0
   60.3521   32.1595   48.7068 H   0  0  0  0  0  0  0  0  0  0  0  0
   58.9180   30.8890   47.6800 C   0  0  0  0  0  0  0  0  0  0  0  0
   58.8510   30.0490   48.6160 O   0  0  0  0  0  0  0  0  0  0  0  0
   58.1770   30.7140   46.5520 N   0  0  0  0  0  0  0  0  0  0  0  0
   57.5550   29.8780   46.4660 H   0  0  0  0  0  0  0  0  0  0  0  0
   55.1310   26.2040   45.9550 N   0  0  0  0  0  0  0  0  0  0  0  0
   55.1450   24.8450   45.9020 C   0  0  0  0  0  0  0  0  0  0  0  0
   53.8900   24.0410   45.9790 C   0  0  0  0  0  0  0  0  0  0  0  0
   53.6267   23.8723   47.0336 H   0  0  0  0  0  0  0  0  0  0  0  0
   53.0746   24.5853   45.4801 H   0  0  0  0  0  0  0  0  0  0  0  0
   54.0436   23.0728   45.4801 H   0  0  0  0  0  0  0  0  0  0  0  0
  1  2  1  0
  2  3  1  0
  3  4  1  0
  4  5  2  0
  5  6  1  0
  6  7  2  0
  6  8  1  0
  8  9  1  0
  8 10  1  0
  8 11  1  0
 11 12  1  0
 12 13  2  0
 13 14  1  0
 14 15  1  0
 15 16  1  0
 15 17  1  0
 15 18  1  0
 18 19  1  0
 18 20  1  0
 18 21  1  0
 21 22  1  0
 21 23  1  0
 21 24  1  0
 14 25  2  0
 25 26  1  0
 25 27  1  0
 27 28  2  0
 27 29  1  0
 29 30  1  0
  4 31  1  0
 31 32  1  0
 32 33  1  0
 33 34  1  0
 33 35  1  0
 33 36  1  0
 32  2  2  0
 29 12  1  0
M  CHG  1  31  -1
M  END
>  <UniqueID>  (44) 
42

>  <SMILES>  (44) 
CCCc1cc(=O)[nH]c(SCC(=O)/N=c2\[n-]c(C)cs2)n1

>  <Energy>  (44) 
54.39817471079842

>  <Genealogy>  (44) 
CCCc1cc(=O)[nH]c(SCC(=O)N=c2[n-]c(C)cs2)n1 (protonated)
CCCc1cc(=O)[nH]c(SCC(=O)/N=c2\[n-]c(C)cs2)n1 (cis-trans isomerization)
CCCc1cc(=O)[nH]c(SCC(=O)/N=c2\[n-]c(C)cs2)n1 (3D coordinates assigned)
CCCc1cc(=O)[nH]c(SCC(=O)/N=c2\[n-]c(C)cs2)n1 (optimized conformer: 54.39817471079842 kcal/mol)

>  <smiles>  (44) 
CCCc1cc(=O)[nH]c(SCC(=O)N=c2[nH]c(C)cs2)n1

>  <score_type>  (44) 
oracle

>  <origin>  (44) 
adg

>  <m_score__min__energy>  (44) 
-9.3699999999999992

>  <m_primary>  (44) 
energy

$$$$
44:0
     RDKit          3D

 19 20  0  0  0  0  0  0  0  0999 V2000
   56.4100   30.6360   42.6930 O   0  0  0  0  0  0  0  0  0  0  0  0
   56.8020   30.6240   43.8910 C   0  0  0  0  0  0  0  0  0  0  0  0
   56.7060   29.3690   44.6630 C   0  0  0  0  0  0  0  0  0  0  0  0
   57.7760   28.7220   45.2600 C   0  0  0  0  0  0  0  0  0  0  0  0
   57.2590   27.6020   45.8720 C   0  0  0  0  0  0  0  0  0  0  0  0
   55.9080   27.6290   45.6150 C   0  0  0  0  0  0  0  0  0  0  0  0
   55.0010   26.6730   46.0540 O   0  0  0  0  0  0  0  0  0  0  0  0
   55.5540   28.6990   44.8800 N   0  0  0  0  0  0  0  0  0  0  0  0
   57.3450   31.8660   44.4790 C   0  0  0  0  0  0  0  0  0  0  0  0
   58.0740   32.8180   43.7860 C   0  0  0  0  0  0  0  0  0  0  0  0
   58.3840   33.8050   44.6920 C   0  0  0  0  0  0  0  0  0  0  0  0
   57.8280   33.4020   45.8870 C   0  0  0  0  0  0  0  0  0  0  0  0
   57.9030   34.1100   47.0820 O   0  0  0  0  0  0  0  0  0  0  0  0
   57.1930   32.2220   45.7720 N   0  0  0  0  0  0  0  0  0  0  0  0
   58.8290   29.0398   45.2475 H   0  0  0  0  0  0  0  0  0  0  0  0
   57.8113   26.8438   46.4466 H   0  0  0  0  0  0  0  0  0  0  0  0
   58.3503   32.7902   42.7216 H   0  0  0  0  0  0  0  0  0  0  0  0
   58.9566   34.7249   44.5024 H   0  0  0  0  0  0  0  0  0  0  0  0
   57.0870   34.2260   47.6700 H   0  0  0  0  0  0  0  0  0  0  0  0
  1  2  2  0
  2  3  1  0
  3  4  2  0
  4  5  1  0
  5  6  2  0
  6  7  1  0
  6  8  1  0
  2  9  1  0
  9 10  2  0
 10 11  1  0
 11 12  2  0
 12 13  1  0
 12 14  1  0
  8  3  1  0
 14  9  1  0
  4 15  1  0
  5 16  1  0
 10 17  1  0
 11 18  1  0
 13 19  1  0
M  CHG  3   7  -1   8  -1  14  -1
M  END
>  <UniqueID>  (45) 
43

>  <SMILES>  (45) 
O=C(c1ccc([O-])[n-]1)c1ccc(O)[n-]1

>  <Energy>  (45) 
68.79249274751622

>  <Genealogy>  (45) 
O=C(c1ccc([O-])[n-]1)c1ccc(O)[n-]1 (protonated)
O=C(c1ccc([O-])[n-]1)c1ccc(O)[n-]1 (3D coordinates assigned)
O=C(c1ccc([O-])[n-]1)c1ccc(O)[n-]1 (optimized conformer: 68.79249274751622 kcal/mol)

>  <smiles>  (45) 
O=C(c1ccc(O)[nH]1)c1ccc(O)[nH]1

>  <score_type>  (45) 
oracle

>  <origin>  (45) 
adg

>  <m_score__min__energy>  (45) 
-12.16

>  <m_primary>  (45) 
energy

$$$$
45:0
     RDKit          3D

 38 39  0  0  0  0  0  0  0  0999 V2000
   56.1060   22.6300   44.1670 C   0  0  0  0  0  0  0  0  0  0  0  0
   57.4460   22.2220   43.5540 C   0  0  0  0  0  0  0  0  0  0  0  0
   58.4770   21.7860   44.6140 C   0  0  1  0  0  0  0  0  0  0  0  0
   59.8230   22.2250   44.2330 N   0  0  0  0  0  0  0  0  0  0  0  0
   58.1020   22.3910   45.9490 C   0  0  0  0  0  0  0  0  0  0  0  0
   57.4110   21.7160   46.7560 O   0  0  0  0  0  0  0  0  0  0  0  0
   58.6120   23.6610   46.3750 N   0  0  0  0  0  0  0  0  0  0  0  0
   58.0610   24.9480   46.0630 C   0  0  0  0  0  0  0  0  0  0  0  0
   58.9250   25.9880   45.7090 C   0  0  0  0  0  0  0  0  0  0  0  0
   58.4200   27.2590   45.4230 C   0  0  0  0  0  0  0  0  0  0  0  0
   57.0400   27.5110   45.4940 C   0  0  0  0  0  0  0  0  0  0  0  0
   56.5320   28.8660   45.1800 C   0  0  0  0  0  0  0  0  0  0  0  0
   55.3390   28.9900   44.7920 O   0  0  0  0  0  0  0  0  0  0  0  0
   57.3730   30.0810   45.3300 C   0  0  0  0  0  0  0  0  0  0  0  0
   58.1990   30.2560   46.4580 C   0  0  0  0  0  0  0  0  0  0  0  0
   58.9750   31.4100   46.5940 C   0  0  0  0  0  0  0  0  0  0  0  0
   58.9290   32.4050   45.6150 C   0  0  0  0  0  0  0  0  0  0  0  0
   58.1030   32.2500   44.4990 C   0  0  0  0  0  0  0  0  0  0  0  0
   57.3250   31.0970   44.3580 C   0  0  0  0  0  0  0  0  0  0  0  0
   56.1760   26.4790   45.9090 C   0  0  0  0  0  0  0  0  0  0  0  0
   54.8140   26.7100   46.0720 O   0  0  0  0  0  0  0  0  0  0  0  0
   56.6870   25.2060   46.1890 C   0  0  0  0  0  0  0  0  0  0  0  0
   56.1824   22.6067   45.2641 H   0  0  0  0  0  0  0  0  0  0  0  0
   55.8474   23.6476   43.8390 H   0  0  0  0  0  0  0  0  0  0  0  0
   55.3242   21.9292   43.8390 H   0  0  0  0  0  0  0  0  0  0  0  0
   57.2760   21.3835   42.8627 H   0  0  0  0  0  0  0  0  0  0  0  0
   57.8551   23.1010   43.0344 H   0  0  0  0  0  0  0  0  0  0  0  0
   58.4754   20.6884   44.6867 H   0  0  0  0  0  0  0  0  0  0  0  0
   60.4940   21.4470   44.4270 H   0  0  0  0  0  0  0  0  0  0  0  0
   60.1140   23.0040   44.8670 H   0  0  0  0  0  0  0  0  0  0  0  0
   60.0083   25.8049   45.6553 H   0  0  0  0  0  0  0  0  0  0  0  0
   59.1086   28.0687   45.1400 H   0  0  0  0  0  0  0  0  0  0  0  0
   58.2332   29.4794   47.2363 H   0  0  0  0  0  0  0  0  0  0  0  0
   59.6233   31.5350   47.4738 H   0  0  0  0  0  0  0  0  0  0  0  0
   59.5434   33.3111   45.7227 H   0  0  0  0  0  0  0  0  0  0  0  0
   58.0647   33.0360   43.7304 H   0  0  0  0  0  0  0  0  0  0  0  0
   56.6708   30.9834   43.4810 H   0  0  0  0  0  0  0  0  0  0  0  0
   56.0074   24.4028   46.5098 H   0  0  0  0  0  0  0  0  0  0  0  0
  1  2  1  0
  2  3  1  0
  3  4  1  0
  3  5  1  0
  5  6  2  0
  5  7  1  0
  7  8  1  0
  8  9  2  0
  9 10  1  0
 10 11  2  0
 11 12  1  0
 12 13  2  0
 12 14  1  0
 14 15  2  0
 15 16  1  0
 16 17  2  0
 17 18  1  0
 18 19  2  0
 11 20  1  0
 20 21  1  0
 20 22  2  0
 22  8  1  0
 19 14  1  0
  1 23  1  0
  1 24  1  0
  1 25  1  0
  2 26  1  0
  2 27  1  0
  3 28  1  1
  4 29  1  0
  4 30  1  0
  9 31  1  0
 10 32  1  0
 15 33  1  0
 16 34  1  0
 17 35  1  0
 18 36  1  0
 19 37  1  0
 22 38  1  0
M  CHG  2   7  -1  21  -1
M  END
>  <UniqueID>  (46) 
44

>  <SMILES>  (46) 
CC[C@@H](N)C(=O)[N-]c1ccc(C(=O)c2ccccc2)c([O-])c1

>  <Energy>  (46) 
46.771252408906236

>  <Genealogy>  (46) 
CCC(N)C(=O)[N-]c1ccc(C(=O)c2ccccc2)c([O-])c1 (protonated)
CC[C@@H](N)C(=O)[N-]c1ccc(C(=O)c2ccccc2)c([O-])c1 (chirality)
CC[C@@H](N)C(=O)[N-]c1ccc(C(=O)c2ccccc2)c([O-])c1 (3D coordinates assigned)
CC[C@@H](N)C(=O)[N-]c1ccc(C(=O)c2ccccc2)c([O-])c1 (optimized conformer: 46.771252408906236 kcal/mol)

>  <smiles>  (46) 
CCC(N)C(=O)Nc1ccc(C(=O)c2ccccc2)c(O)c1

>  <score_type>  (46) 
oracle

>  <origin>  (46) 
adg

>  <m_score__min__energy>  (46) 
-13.07

>  <m_primary>  (46) 
energy

$$$$
46:0
     RDKit          3D

 42 44  0  0  0  0  0  0  0  0999 V2000
   63.3710   34.0360   50.4340 C   0  0  0  0  0  0  0  0  0  0  0  0
   62.4850   34.7380   49.5680 O   0  0  0  0  0  0  0  0  0  0  0  0
   61.5640   34.1210   48.7090 C   0  0  0  0  0  0  0  0  0  0  0  0
   61.9610   33.4030   47.5650 C   0  0  0  0  0  0  0  0  0  0  0  0
   61.0030   32.8050   46.7400 C   0  0  0  0  0  0  0  0  0  0  0  0
   59.6370   32.9060   47.0470 C   0  0  0  0  0  0  0  0  0  0  0  0
   58.6290   32.2660   46.1710 C   0  0  0  0  0  0  0  0  0  0  0  0
   58.3200   30.9170   46.0350 C   0  0  0  0  0  0  0  0  0  0  0  0
   58.9700   29.8030   46.7570 C   0  0  0  0  0  0  0  0  0  0  0  0
   59.6900   28.8290   46.0520 C   0  0  0  0  0  0  0  0  0  0  0  0
   60.3270   27.7890   46.7370 C   0  0  0  0  0  0  0  0  0  0  0  0
   60.2550   27.7160   48.1410 C   0  0  0  0  0  0  0  0  0  0  0  0
   60.8760   26.6940   48.8740 O   0  0  0  0  0  0  0  0  0  0  0  0
   61.0610   26.7160   50.2860 C   0  0  0  0  0  0  0  0  0  0  0  0
   59.5400   28.6960   48.8400 C   0  0  0  0  0  0  0  0  0  0  0  0
   58.9060   29.7360   48.1560 C   0  0  0  0  0  0  0  0  0  0  0  0
   57.2900   30.7960   45.1580 N   0  0  0  0  0  0  0  0  0  0  0  0
   56.6790   29.5960   44.6560 C   0  0  0  0  0  0  0  0  0  0  0  0
   55.4830   29.3410   44.9620 O   0  0  0  0  0  0  0  0  0  0  0  0
   57.4100   28.6610   43.7430 C   0  0  0  0  0  0  0  0  0  0  0  0
   57.6510   27.4630   44.3930 F   0  0  0  0  0  0  0  0  0  0  0  0
   56.9180   31.9990   44.7440 N   0  0  0  0  0  0  0  0  0  0  0  0
   57.7190   32.8960   45.3430 C   0  0  0  0  0  0  0  0  0  0  0  0
   57.6160   34.1390   45.1760 O   0  0  0  0  0  0  0  0  0  0  0  0
   59.2440   33.6320   48.1820 C   0  0  0  0  0  0  0  0  0  0  0  0
   60.2010   34.2290   49.0070 C   0  0  0  0  0  0  0  0  0  0  0  0
   63.1048   34.2469   51.4803 H   0  0  0  0  0  0  0  0  0  0  0  0
   63.2885   32.9554   50.2454 H   0  0  0  0  0  0  0  0  0  0  0  0
   64.4041   34.3634   50.2454 H   0  0  0  0  0  0  0  0  0  0  0  0
   63.0292   33.3119   47.3189 H   0  0  0  0  0  0  0  0  0  0  0  0
   61.3221   32.2517   45.8444 H   0  0  0  0  0  0  0  0  0  0  0  0
   59.7545   28.8826   44.9552 H   0  0  0  0  0  0  0  0  0  0  0  0
   60.8863   27.0254   46.1765 H   0  0  0  0  0  0  0  0  0  0  0  0
   60.0876   26.6003   50.7852 H   0  0  0  0  0  0  0  0  0  0  0  0
   61.7252   25.8905   50.5817 H   0  0  0  0  0  0  0  0  0  0  0  0
   61.5131   27.6742   50.5817 H   0  0  0  0  0  0  0  0  0  0  0  0
   59.4770   28.6466   49.9371 H   0  0  0  0  0  0  0  0  0  0  0  0
   58.3546   30.5050   48.7169 H   0  0  0  0  0  0  0  0  0  0  0  0
   56.7997   28.4740   42.8472 H   0  0  0  0  0  0  0  0  0  0  0  0
   58.3686   29.1146   43.4507 H   0  0  0  0  0  0  0  0  0  0  0  0
   58.1755   33.7318   48.4238 H   0  0  0  0  0  0  0  0  0  0  0  0
   59.8802   34.7885   49.8981 H   0  0  0  0  0  0  0  0  0  0  0  0
  1  2  1  0
  2  3  1  0
  3  4  2  0
  4  5  1  0
  5  6  2  0
  6  7  1  0
  7  8  2  0
  8  9  1  0
  9 10  2  0
 10 11  1  0
 11 12  2  0
 12 13  1  0
 13 14  1  0
 12 15  1  0
 15 16  2  0
  8 17  1  0
 17 18  1  0
 18 19  2  0
 18 20  1  0
 20 21  1  0
 17 22  1  0
 22 23  1  0
 23 24  2  0
  6 25  1  0
 25 26  2  0
 26  3  1  0
 23  7  1  0
 16  9  1  0
  1 27  1  0
  1 28  1  0
  1 29  1  0
  4 30  1  0
  5 31  1  0
 10 32  1  0
 11 33  1  0
 14 34  1  0
 14 35  1  0
 14 36  1  0
 15 37  1  0
 16 38  1  0
 20 39  1  0
 20 40  1  0
 25 41  1  0
 26 42  1  0
M  CHG  1  22  -1
M  END
>  <UniqueID>  (47) 
45

>  <SMILES>  (47) 
COc1ccc(-c2c(-c3ccc(OC)cc3)n(C(=O)CF)[n-]c2=O)cc1

>  <Energy>  (47) 
86.96084651096368

>  <Genealogy>  (47) 
COc1ccc(-c2c(-c3ccc(OC)cc3)n(C(=O)CF)[n-]c2=O)cc1 (protonated)
COc1ccc(-c2c(-c3ccc(OC)cc3)n(C(=O)CF)[n-]c2=O)cc1 (3D coordinates assigned)
COc1ccc(-c2c(-c3ccc(OC)cc3)n(C(=O)CF)[n-]c2=O)cc1 (optimized conformer: 86.96084651096368 kcal/mol)

>  <smiles>  (47) 
COc1ccc(-c2c(-c3ccc(OC)cc3)n(C(=O)CF)[nH]c2=O)cc1

>  <score_type>  (47) 
oracle

>  <origin>  (47) 
adg

>  <m_score__min__energy>  (47) 
-8.3800000000000008

>  <m_primary>  (47) 
energy

$$$$
47:0
     RDKit          3D

 37 37  0  0  0  0  0  0  0  0999 V2000
   55.8270   29.7550   43.4280 C   0  0  0  0  0  0  0  0  0  0  0  0
   55.6440   29.2370   44.7420 O   0  0  0  0  0  0  0  0  0  0  0  0
   56.6390   28.5850   45.4870 C   0  0  0  0  0  0  0  0  0  0  0  0
   57.8840   29.1830   45.7600 C   0  0  0  0  0  0  0  0  0  0  0  0
   58.8570   28.5030   46.5130 C   0  0  0  0  0  0  0  0  0  0  0  0
   60.1710   29.1290   46.7970 C   0  0  0  0  0  0  0  0  0  0  0  0
   60.9990   29.2850   45.8580 O   0  0  0  0  0  0  0  0  0  0  0  0
   60.5250   29.5160   48.1360 N   0  0  0  0  0  0  0  0  0  0  0  0
   61.5350   30.4910   48.4610 C   0  0  0  0  0  0  0  0  0  0  0  0
   61.9420   31.6690   47.3860 S   0  0  0  0  0  0  0  0  0  0  0  0
   62.0130   30.5810   49.8150 N   0  0  0  0  0  0  0  0  0  0  0  0
   60.8870   30.5270   50.7570 C   0  0  0  0  0  0  0  0  0  0  0  0
   60.7370   29.1200   51.3440 C   0  0  0  0  0  0  0  0  0  0  0  0
   61.3430   28.1340   50.4550 N   0  0  0  0  0  0  0  0  0  0  0  0
   58.5770   27.2050   46.9760 C   0  0  0  0  0  0  0  0  0  0  0  0
   57.3370   26.5990   46.7100 C   0  0  0  0  0  0  0  0  0  0  0  0
   57.0210   25.3080   47.1630 O   0  0  0  0  0  0  0  0  0  0  0  0
   56.6320   24.2290   46.3190 C   0  0  0  0  0  0  0  0  0  0  0  0
   56.3760   27.2970   45.9670 C   0  0  0  0  0  0  0  0  0  0  0  0
   55.1460   26.7020   45.7020 O   0  0  0  0  0  0  0  0  0  0  0  0
   56.1928   30.7905   43.4898 H   0  0  0  0  0  0  0  0  0  0  0  0
   56.5616   29.1381   42.8897 H   0  0  0  0  0  0  0  0  0  0  0  0
   54.8679   29.7364   42.8897 H   0  0  0  0  0  0  0  0  0  0  0  0
   58.0976   30.1930   45.3801 H   0  0  0  0  0  0  0  0  0  0  0  0
   60.0780   29.0050   48.9280 H   0  0  0  0  0  0  0  0  0  0  0  0
   62.6660   29.7830   49.9950 H   0  0  0  0  0  0  0  0  0  0  0  0
   62.5420   31.4750   49.9420 H   0  0  0  0  0  0  0  0  0  0  0  0
   61.0655   31.2416   51.5740 H   0  0  0  0  0  0  0  0  0  0  0  0
   59.9634   30.7850   50.2182 H   0  0  0  0  0  0  0  0  0  0  0  0
   61.2355   29.0803   52.3238 H   0  0  0  0  0  0  0  0  0  0  0  0
   59.6670   28.8910   51.4566 H   0  0  0  0  0  0  0  0  0  0  0  0
   60.5990   27.4550   50.1780 H   0  0  0  0  0  0  0  0  0  0  0  0
   62.0500   27.5910   51.0040 H   0  0  0  0  0  0  0  0  0  0  0  0
   59.3371   26.6577   47.5529 H   0  0  0  0  0  0  0  0  0  0  0  0
   56.3234   23.3729   46.9370 H   0  0  0  0  0  0  0  0  0  0  0  0
   55.7912   24.5449   45.6840 H   0  0  0  0  0  0  0  0  0  0  0  0
   57.4810   23.9357   45.6840 H   0  0  0  0  0  0  0  0  0  0  0  0
  1  2  1  0
  2  3  1  0
  3  4  2  0
  4  5  1  0
  5  6  1  0
  6  7  2  0
  6  8  1  0
  8  9  1  0
  9 10  2  0
  9 11  1  0
 11 12  1  0
 12 13  1  0
 13 14  1  0
  5 15  2  0
 15 16  1  0
 16 17  1  0
 17 18  1  0
 16 19  2  0
 19 20  1  0
 19  3  1  0
  1 21  1  0
  1 22  1  0
  1 23  1  0
  4 24  1  0
  8 25  1  0
 11 26  1  0
 11 27  1  0
 12 28  1  0
 12 29  1  0
 13 30  1  0
 13 31  1  0
 14 32  1  0
 14 33  1  0
 15 34  1  0
 18 35  1  0
 18 36  1  0
 18 37  1  0
M  CHG  2  11   1  20  -1
M  END
>  <UniqueID>  (48) 
46

>  <SMILES>  (48) 
COc1cc(C(=O)NC(=S)[NH2+]CCN)cc(OC)c1[O-]

>  <Energy>  (48) 
34.49587578579456

>  <Genealogy>  (48) 
COc1cc(C(=O)NC(=S)[NH2+]CCN)cc(OC)c1[O-] (protonated)
COc1cc(C(=O)NC(=S)[NH2+]CCN)cc(OC)c1[O-] (3D coordinates assigned)
COc1cc(C(=O)NC(=S)[NH2+]CCN)cc(OC)c1[O-] (optimized conformer: 34.49587578579456 kcal/mol)

>  <smiles>  (48) 
COc1cc(C(=O)NC(=S)NCCN)cc(OC)c1O

>  <score_type>  (48) 
oracle

>  <origin>  (48) 
adg

>  <m_score__min__energy>  (48) 
-8.1899999999999995

>  <m_primary>  (48) 
energy

$$$$
48:0
     RDKit          3D

 46 48  0  0  0  0  0  0  0  0999 V2000
   58.8290   29.4860   46.4070 C   0  0  0  0  0  0  0  0  0  0  0  0
   57.8980   30.5510   46.5680 O   0  0  0  0  0  0  0  0  0  0  0  0
   58.0890   31.8570   46.0860 C   0  0  0  0  0  0  0  0  0  0  0  0
   57.7670   32.2140   44.7620 C   0  0  0  0  0  0  0  0  0  0  0  0
   57.9930   33.5150   44.3050 C   0  0  0  0  0  0  0  0  0  0  0  0
   58.5450   34.4700   45.1590 C   0  0  0  0  0  0  0  0  0  0  0  0
   58.8650   34.1320   46.4740 C   0  0  0  0  0  0  0  0  0  0  0  0
   58.6290   32.8320   46.9510 C   0  0  0  0  0  0  0  0  0  0  0  0
   58.9550   32.5030   48.3560 C   0  0  0  0  0  0  0  0  0  0  0  0
   57.9050   32.3440   49.2760 C   0  0  0  0  0  0  0  0  0  0  0  0
   58.1710   32.0830   50.6250 C   0  0  0  0  0  0  0  0  0  0  0  0
   57.0950   31.9300   51.5540 N   0  0  0  0  0  0  0  0  0  0  0  0
   59.4960   31.9790   51.0620 C   0  0  0  0  0  0  0  0  0  0  0  0
   60.5490   32.1230   50.1550 C   0  0  0  0  0  0  0  0  0  0  0  0
   60.2940   32.3770   48.7980 C   0  0  0  0  0  0  0  0  0  0  0  0
   61.3980   32.4530   47.8770 N   0  0  0  0  0  0  0  0  0  0  0  0
   62.1700   31.2500   47.5500 C   0  0  0  0  0  0  0  0  0  0  0  0
   63.6040   31.6200   47.1350 C   0  0  0  0  0  0  0  0  0  0  0  0
   64.1490   32.7290   47.9530 N   0  0  0  0  0  0  0  0  0  0  0  0
   64.3400   32.3200   49.3580 C   0  0  0  0  0  0  0  0  0  0  0  0
   63.3420   33.9800   47.8540 C   0  0  0  0  0  0  0  0  0  0  0  0
   61.8840   33.7530   47.4070 C   0  0  0  0  0  0  0  0  0  0  0  0
   59.1460   29.1234   47.3960 H   0  0  0  0  0  0  0  0  0  0  0  0
   58.3540   28.6647   45.8503 H   0  0  0  0  0  0  0  0  0  0  0  0
   59.7064   29.8470   45.8503 H   0  0  0  0  0  0  0  0  0  0  0  0
   57.3348   31.4638   44.0834 H   0  0  0  0  0  0  0  0  0  0  0  0
   57.7353   33.7864   43.2706 H   0  0  0  0  0  0  0  0  0  0  0  0
   58.7283   35.4916   44.7947 H   0  0  0  0  0  0  0  0  0  0  0  0
   59.3047   34.8879   47.1413 H   0  0  0  0  0  0  0  0  0  0  0  0
   56.8632   32.4255   48.9324 H   0  0  0  0  0  0  0  0  0  0  0  0
   56.1020   31.9640   51.2330 H   0  0  0  0  0  0  0  0  0  0  0  0
   57.2820   31.7830   52.5720 H   0  0  0  0  0  0  0  0  0  0  0  0
   59.7095   31.7832   52.1232 H   0  0  0  0  0  0  0  0  0  0  0  0
   61.5874   32.0366   50.5074 H   0  0  0  0  0  0  0  0  0  0  0  0
   62.2073   30.5941   48.4323 H   0  0  0  0  0  0  0  0  0  0  0  0
   61.6812   30.7336   46.7107 H   0  0  0  0  0  0  0  0  0  0  0  0
   64.2486   30.7373   47.2586 H   0  0  0  0  0  0  0  0  0  0  0  0
   63.5800   31.9508   46.0862 H   0  0  0  0  0  0  0  0  0  0  0  0
   65.1050   32.9390   47.5770 H   0  0  0  0  0  0  0  0  0  0  0  0
   63.9697   33.1130   50.0243 H   0  0  0  0  0  0  0  0  0  0  0  0
   63.7826   31.3910   49.5485 H   0  0  0  0  0  0  0  0  0  0  0  0
   65.4101   32.1511   49.5485 H   0  0  0  0  0  0  0  0  0  0  0  0
   63.3294   34.4625   48.8425 H   0  0  0  0  0  0  0  0  0  0  0  0
   63.8172   34.6047   47.0833 H   0  0  0  0  0  0  0  0  0  0  0  0
   61.2496   34.5488   47.8245 H   0  0  0  0  0  0  0  0  0  0  0  0
   61.8426   33.7713   46.3079 H   0  0  0  0  0  0  0  0  0  0  0  0
  1  2  1  0
  2  3  1  0
  3  4  2  0
  4  5  1  0
  5  6  2  0
  6  7  1  0
  7  8  2  0
  8  9  1  0
  9 10  2  0
 10 11  1  0
 11 12  1  0
 11 13  2  0
 13 14  1  0
 14 15  2  0
 15 16  1  0
 16 17  1  0
 17 18  1  0
 18 19  1  0
 19 20  1  0
 19 21  1  0
 21 22  1  0
  8  3  1  0
 15  9  1  0
 22 16  1  0
  1 23  1  0
  1 24  1  0
  1 25  1  0
  4 26  1  0
  5 27  1  0
  6 28  1  0
  7 29  1  0
 10 30  1  0
 12 31  1  0
 12 32  1  0
 13 33  1  0
 14 34  1  0
 17 35  1  0
 17 36  1  0
 18 37  1  0
 18 38  1  0
 19 39  1  0
 20 40  1  0
 20 41  1  0
 20 42  1  0
 21 43  1  0
 21 44  1  0
 22 45  1  0
 22 46  1  0
M  CHG  1  19   1
M  END
>  <UniqueID>  (49) 
47

>  <SMILES>  (49) 
COc1ccccc1-c1cc(N)ccc1N1CC[NH+](C)CC1

>  <Energy>  (49) 
63.67075103085661

>  <Genealogy>  (49) 
COc1ccccc1-c1cc(N)ccc1N1CC[NH+](C)CC1 (protonated)
COc1ccccc1-c1cc(N)ccc1N1CC[NH+](C)CC1 (3D coordinates assigned)
COc1ccccc1-c1cc(N)ccc1N1CC[NH+](C)CC1 (nonaromatic ring conformer: 63.67075103085661 kcal/mol)

>  <smiles>  (49) 
COc1ccccc1-c1cc(N)ccc1N1CCN(C)CC1

>  <score_type>  (49) 
oracle

>  <origin>  (49) 
adg

>  <m_score__min__energy>  (49) 
-5.29

>  <m_primary>  (49) 
energy

$$$$
49:0
     RDKit          3D

 50 53  0  0  0  0  0  0  0  0999 V2000
   63.8120   33.2140   47.1020 C   0  0  0  0  0  0  0  0  0  0  0  0
   62.4560   33.6870   47.4980 C   0  0  0  0  0  0  0  0  0  0  0  0
   62.1120   33.9980   48.7940 C   0  0  0  0  0  0  0  0  0  0  0  0
   60.8210   34.4360   49.0960 C   0  0  0  0  0  0  0  0  0  0  0  0
   59.8590   34.5690   48.1080 C   0  0  0  0  0  0  0  0  0  0  0  0
   60.2060   34.2590   46.8210 C   0  0  0  0  0  0  0  0  0  0  0  0
   59.3250   34.3530   45.7390 O   0  0  0  0  0  0  0  0  0  0  0  0
   58.6770   33.1840   45.3730 C   0  0  0  0  0  0  0  0  0  0  0  0
   58.2570   33.0500   44.0650 C   0  0  0  0  0  0  0  0  0  0  0  0
   57.6100   31.8910   43.6890 C   0  0  0  0  0  0  0  0  0  0  0  0
   57.3740   30.8560   44.6030 C   0  0  0  0  0  0  0  0  0  0  0  0
   56.5550   29.4530   43.9950 S   0  0  0  0  0  0  0  0  0  0  0  0
   56.5650   29.3770   42.4920 O   0  0  0  0  0  0  0  0  0  0  0  0
   55.1430   29.3430   44.4630 O   0  0  0  0  0  0  0  0  0  0  0  0
   57.4090   28.0460   44.5530 N   0  0  0  0  0  0  0  0  0  0  0  0
   58.6100   27.8330   43.7690 C   0  0  0  0  0  0  0  0  0  0  0  0
   59.7870   28.3960   44.4920 C   0  0  0  0  0  0  0  0  0  0  0  0
   59.7940   28.2030   45.9400 C   0  0  0  0  0  0  0  0  0  0  0  0
   59.2510   27.1000   46.5400 N   0  0  0  0  0  0  0  0  0  0  0  0
   59.3600   27.1860   47.8330 N   0  0  0  0  0  0  0  0  0  0  0  0
   59.9760   28.3400   48.1820 C   0  0  0  0  0  0  0  0  0  0  0  0
   60.3300   28.8990   49.3880 C   0  0  0  0  0  0  0  0  0  0  0  0
   60.9800   30.1360   49.4100 C   0  0  0  0  0  0  0  0  0  0  0  0
   61.2500   30.7680   48.2110 C   0  0  0  0  0  0  0  0  0  0  0  0
   60.8820   30.1810   47.0280 C   0  0  0  0  0  0  0  0  0  0  0  0
   60.2420   28.9690   46.9840 C   0  0  0  0  0  0  0  0  0  0  0  0
   57.8000   31.0100   45.8970 C   0  0  0  0  0  0  0  0  0  0  0  0
   58.4520   32.1760   46.2810 C   0  0  0  0  0  0  0  0  0  0  0  0
   61.4830   33.8260   46.5240 C   0  0  0  0  0  0  0  0  0  0  0  0
   64.4060   33.0068   48.0043 H   0  0  0  0  0  0  0  0  0  0  0  0
   63.7198   32.2949   46.5046 H   0  0  0  0  0  0  0  0  0  0  0  0
   64.3114   33.9910   46.5046 H   0  0  0  0  0  0  0  0  0  0  0  0
   62.8583   33.9009   49.5963 H   0  0  0  0  0  0  0  0  0  0  0  0
   60.5632   34.6798   50.1372 H   0  0  0  0  0  0  0  0  0  0  0  0
   58.8435   34.9145   48.3515 H   0  0  0  0  0  0  0  0  0  0  0  0
   58.4351   33.8534   43.3351 H   0  0  0  0  0  0  0  0  0  0  0  0
   57.2720   31.7771   42.6484 H   0  0  0  0  0  0  0  0  0  0  0  0
   57.6560   28.1710   45.5740 H   0  0  0  0  0  0  0  0  0  0  0  0
   58.7583   26.7543   43.6125 H   0  0  0  0  0  0  0  0  0  0  0  0
   58.5047   28.3356   42.7962 H   0  0  0  0  0  0  0  0  0  0  0  0
   60.6922   27.9227   44.0838 H   0  0  0  0  0  0  0  0  0  0  0  0
   59.7423   29.4839   44.3352 H   0  0  0  0  0  0  0  0  0  0  0  0
   59.0050   26.4380   48.4950 H   0  0  0  0  0  0  0  0  0  0  0  0
   60.1030   28.3759   50.3287 H   0  0  0  0  0  0  0  0  0  0  0  0
   61.2715   30.5983   50.3646 H   0  0  0  0  0  0  0  0  0  0  0  0
   61.7604   31.7424   48.2059 H   0  0  0  0  0  0  0  0  0  0  0  0
   61.1073   30.6987   46.0840 H   0  0  0  0  0  0  0  0  0  0  0  0
   57.6257   30.2103   46.6319 H   0  0  0  0  0  0  0  0  0  0  0  0
   58.7911   32.2935   47.3208 H   0  0  0  0  0  0  0  0  0  0  0  0
   61.7347   33.5841   45.4809 H   0  0  0  0  0  0  0  0  0  0  0  0
  1  2  1  0
  2  3  2  0
  3  4  1  0
  4  5  2  0
  5  6  1  0
  6  7  1  0
  7  8  1  0
  8  9  2  0
  9 10  1  0
 10 11  2  0
 11 12  1  0
 12 13  2  0
 12 14  2  0
 12 15  1  0
 15 16  1  0
 16 17  1  0
 17 18  1  0
 18 19  2  0
 19 20  1  0
 20 21  1  0
 21 22  2  0
 22 23  1  0
 23 24  2  0
 24 25  1  0
 25 26  2  0
 11 27  1  0
 27 28  2  0
  6 29  2  0
 29  2  1  0
 28  8  1  0
 26 18  1  0
 26 21  1  0
  1 30  1  0
  1 31  1  0
  1 32  1  0
  3 33  1  0
  4 34  1  0
  5 35  1  0
  9 36  1  0
 10 37  1  0
 15 38  1  0
 16 39  1  0
 16 40  1  0
 17 41  1  0
 17 42  1  0
 20 43  1  0
 22 44  1  0
 23 45  1  0
 24 46  1  0
 25 47  1  0
 27 48  1  0
 28 49  1  0
 29 50  1  0
M  END
>  <smiles>  (50) 
Cc1cccc(Oc2ccc(S(=O)(=O)NCCc3n[nH]c4ccccc34)cc2)c1

>  <score_type>  (50) 
oracle

>  <origin>  (50) 
adg

>  <m_score__min__energy>  (50) 
-11.18

>  <m_primary>  (50) 
energy

$$$$
50:0
     RDKit          3D

 44 46  0  0  0  0  0  0  0  0999 V2000
   61.2920   34.0010   47.9600 H   0  0  0  0  0  0  0  0  0  0  0  0
   60.3380   34.3380   47.9120 O   0  0  0  0  0  0  0  0  0  0  0  0
   59.5600   34.1250   46.7790 C   0  0  0  0  0  0  0  0  0  0  0  0
   59.2730   35.0790   45.8240 C   0  0  0  0  0  0  0  0  0  0  0  0
   59.6037   36.1281   45.8166 H   0  0  0  0  0  0  0  0  0  0  0  0
   58.4860   34.4490   44.8790 C   0  0  0  0  0  0  0  0  0  0  0  0
   58.0835   34.8932   43.9567 H   0  0  0  0  0  0  0  0  0  0  0  0
   58.3030   33.1490   45.3200 C   0  0  0  0  0  0  0  0  0  0  0  0
   57.6000   32.0990   44.5670 C   0  0  0  0  0  0  0  0  0  0  0  0
   57.5259   32.2113   43.4753 H   0  0  0  0  0  0  0  0  0  0  0  0
   57.0590   31.0440   45.1090 N   0  0  0  0  0  0  0  0  0  0  0  0
   56.8100   29.7100   44.5400 C   0  0  1  0  0  0  0  0  0  0  0  0
   56.3405   29.1194   45.3404 H   0  0  0  0  0  0  0  0  0  0  0  0
   55.8140   29.7480   43.3780 C   0  0  0  0  0  0  0  0  0  0  0  0
   54.7888   29.7871   43.7749 H   0  0  0  0  0  0  0  0  0  0  0  0
   56.0030   30.6396   42.7621 H   0  0  0  0  0  0  0  0  0  0  0  0
   55.9345   28.8446   42.7621 H   0  0  0  0  0  0  0  0  0  0  0  0
   58.1100   28.9810   44.1590 C   0  0  0  0  0  0  0  0  0  0  0  0
   57.8860   28.2174   43.3995 H   0  0  0  0  0  0  0  0  0  0  0  0
   58.8241   29.7177   43.7623 H   0  0  0  0  0  0  0  0  0  0  0  0
   58.7040   28.3350   45.3270 N   0  0  0  0  0  0  0  0  0  0  0  0
   59.9430   27.8860   45.3850 N   0  0  0  0  0  0  0  0  0  0  0  0
   60.0980   27.4220   46.6420 C   0  0  0  0  0  0  0  0  0  0  0  0
   61.0280   26.9685   47.0154 H   0  0  0  0  0  0  0  0  0  0  0  0
   58.9840   27.5760   47.3920 N   0  0  0  0  0  0  0  0  0  0  0  0
   58.1300   28.1570   46.5280 C   0  0  0  0  0  0  0  0  0  0  0  0
   57.0979   28.4476   46.7737 H   0  0  0  0  0  0  0  0  0  0  0  0
   58.9890   32.9450   46.4670 N   0  0  0  0  0  0  0  0  0  0  0  0
   59.1460   31.6820   47.1980 C   0  0  0  0  0  0  0  0  0  0  0  0
   59.2529   31.9010   48.2707 H   0  0  0  0  0  0  0  0  0  0  0  0
   58.2564   31.0626   47.0110 H   0  0  0  0  0  0  0  0  0  0  0  0
   60.3820   30.9050   46.7220 C   0  0  0  0  0  0  0  0  0  0  0  0
   60.0710   29.8836   46.4573 H   0  0  0  0  0  0  0  0  0  0  0  0
   60.7963   31.4502   45.8611 H   0  0  0  0  0  0  0  0  0  0  0  0
   61.4920   30.8170   47.7790 C   0  0  0  0  0  0  0  0  0  0  0  0
   61.0325   30.6715   48.7678 H   0  0  0  0  0  0  0  0  0  0  0  0
   62.1460   29.9710   47.5212 H   0  0  0  0  0  0  0  0  0  0  0  0
   62.3060   32.0320   47.8080 N   0  0  0  0  0  0  0  0  0  0  0  0
   62.6240   32.7510   46.7470 N   0  0  0  0  0  0  0  0  0  0  0  0
   63.2950   33.8180   47.2230 C   0  0  0  0  0  0  0  0  0  0  0  0
   63.7162   34.6093   46.5854 H   0  0  0  0  0  0  0  0  0  0  0  0
   63.3930   33.8080   48.5700 N   0  0  0  0  0  0  0  0  0  0  0  0
   62.7510   32.6720   48.9010 C   0  0  0  0  0  0  0  0  0  0  0  0
   62.6096   32.3150   49.9318 H   0  0  0  0  0  0  0  0  0  0  0  0
  1  2  1  0
  2  3  1  0
  3  4  2  0
  4  5  1  0
  4  6  1  0
  6  7  1  0
  6  8  2  0
  8  9  1  0
  9 10  1  0
  9 11  2  0
 11 12  1  0
 12 13  1  1
 12 14  1  0
 14 15  1  0
 14 16  1  0
 14 17  1  0
 12 18  1  0
 18 19  1  0
 18 20  1  0
 18 21  1  0
 21 22  1  0
 22 23  2  0
 23 24  1  0
 23 25  1  0
 25 26  2  0
 26 27  1  0
  8 28  1  0
 28 29  1  0
 29 30  1  0
 29 31  1  0
 29 32  1  0
 32 33  1  0
 32 34  1  0
 32 35  1  0
 35 36  1  0
 35 37  1  0
 35 38  1  0
 38 39  1  0
 39 40  2  0
 40 41  1  0
 40 42  1  0
 42 43  2  0
 43 44  1  0
 28  3  1  0
 43 38  1  0
 26 21  1  0
M  END
>  <UniqueID>  (51) 
48

>  <SMILES>  (51) 
C[C@@H](Cn1cncn1)/N=C\c1ccc(O)n1CCCn1cncn1

>  <Energy>  (51) 
137.7663814181803

>  <Genealogy>  (51) 
C[C@@H](Cn1cncn1)N=Cc1ccc(O)n1CCCn1cncn1 (chirality)
C[C@@H](Cn1cncn1)/N=C\c1ccc(O)n1CCCn1cncn1 (cis-trans isomerization)
C[C@@H](Cn1cncn1)/N=C\c1ccc(O)n1CCCn1cncn1 (3D coordinates assigned)
C[C@@H](Cn1cncn1)/N=C\c1ccc(O)n1CCCn1cncn1 (optimized conformer: 137.7663814181803 kcal/mol)

>  <smiles>  (51) 
CC(Cn1cncn1)N=Cc1ccc(O)n1CCCn1cncn1

>  <score_type>  (51) 
oracle

>  <origin>  (51) 
adg

>  <m_score__min__energy>  (51) 
-6.9000000000000004

>  <m_primary>  (51) 
energy

$$$$
51:0
     RDKit          3D

 37 38  0  0  0  0  0  0  0  0999 V2000
   56.9970   28.8920   43.2050 O   0  0  0  0  0  0  0  0  0  0  0  0
   56.7290   29.2570   44.3810 C   0  0  0  0  0  0  0  0  0  0  0  0
   56.1970   28.3220   45.3290 N   0  0  0  0  0  0  0  0  0  0  0  0
   56.7960   27.0410   45.7090 C   0  0  1  0  0  0  0  0  0  0  0  0
   57.6500   27.1880   46.9850 C   0  0  0  0  0  0  0  0  0  0  0  0
   58.8340   28.0950   46.7600 C   0  0  0  0  0  0  0  0  0  0  0  0
   59.5160   28.0750   45.5320 C   0  0  0  0  0  0  0  0  0  0  0  0
   60.6280   28.8970   45.3300 C   0  0  0  0  0  0  0  0  0  0  0  0
   61.0710   29.7410   46.3520 C   0  0  0  0  0  0  0  0  0  0  0  0
   60.4020   29.7630   47.5790 C   0  0  0  0  0  0  0  0  0  0  0  0
   59.2880   28.9430   47.7850 C   0  0  0  0  0  0  0  0  0  0  0  0
   55.7340   25.9810   45.8320 C   0  0  0  0  0  0  0  0  0  0  0  0
   56.0500   24.7650   45.7540 O   0  0  0  0  0  0  0  0  0  0  0  0
   54.3950   26.3260   45.9810 O   0  0  0  0  0  0  0  0  0  0  0  0
   56.9570   30.6510   44.7870 C   0  0  0  0  0  0  0  0  0  0  0  0
   56.0920   31.5230   44.5030 O   0  0  0  0  0  0  0  0  0  0  0  0
   58.1330   31.0100   45.5340 N   0  0  0  0  0  0  0  0  0  0  0  0
   58.5600   32.3650   45.7550 C   0  0  0  0  0  0  0  0  0  0  0  0
   58.5440   33.2750   44.6850 C   0  0  0  0  0  0  0  0  0  0  0  0
   58.9340   34.6040   44.8810 C   0  0  0  0  0  0  0  0  0  0  0  0
   59.3280   35.0390   46.1480 C   0  0  0  0  0  0  0  0  0  0  0  0
   59.3270   34.1480   47.2240 C   0  0  0  0  0  0  0  0  0  0  0  0
   58.9380   32.8180   47.0330 C   0  0  0  0  0  0  0  0  0  0  0  0
   57.4827   26.7152   44.9138 H   0  0  0  0  0  0  0  0  0  0  0  0
   57.0250   27.6092   47.7862 H   0  0  0  0  0  0  0  0  0  0  0  0
   58.0272   26.1927   47.2628 H   0  0  0  0  0  0  0  0  0  0  0  0
   59.1733   27.4095   44.7260 H   0  0  0  0  0  0  0  0  0  0  0  0
   61.1555   28.8797   44.3649 H   0  0  0  0  0  0  0  0  0  0  0  0
   61.9460   30.3878   46.1908 H   0  0  0  0  0  0  0  0  0  0  0  0
   60.7522   30.4262   48.3837 H   0  0  0  0  0  0  0  0  0  0  0  0
   58.7652   28.9617   48.7526 H   0  0  0  0  0  0  0  0  0  0  0  0
   58.6590   30.2480   46.0200 H   0  0  0  0  0  0  0  0  0  0  0  0
   58.2230   32.9407   43.6874 H   0  0  0  0  0  0  0  0  0  0  0  0
   58.9303   35.3077   44.0355 H   0  0  0  0  0  0  0  0  0  0  0  0
   59.6392   36.0832   46.2989 H   0  0  0  0  0  0  0  0  0  0  0  0
   59.6326   34.4928   48.2229 H   0  0  0  0  0  0  0  0  0  0  0  0
   58.9274   32.1229   47.8855 H   0  0  0  0  0  0  0  0  0  0  0  0
  1  2  2  0
  2  3  1  0
  3  4  1  0
  4  5  1  0
  5  6  1  0
  6  7  2  0
  7  8  1  0
  8  9  2  0
  9 10  1  0
 10 11  2  0
  4 12  1  0
 12 13  2  0
 12 14  1  0
  2 15  1  0
 15 16  2  0
 15 17  1  0
 17 18  1  0
 18 19  2  0
 19 20  1  0
 20 21  2  0
 21 22  1  0
 22 23  2  0
 11  6  1  0
 23 18  1  0
  4 24  1  6
  5 25  1  0
  5 26  1  0
  7 27  1  0
  8 28  1  0
  9 29  1  0
 10 30  1  0
 11 31  1  0
 17 32  1  0
 19 33  1  0
 20 34  1  0
 21 35  1  0
 22 36  1  0
 23 37  1  0
M  CHG  2   3  -1  14  -1
M  END
>  <UniqueID>  (52) 
49

>  <SMILES>  (52) 
O=C([N-][C@@H](Cc1ccccc1)C(=O)[O-])C(=O)Nc1ccccc1

>  <Energy>  (52) 
37.89002466504393

>  <Genealogy>  (52) 
O=C([N-]C(Cc1ccccc1)C(=O)[O-])C(=O)Nc1ccccc1 (protonated)
O=C([N-][C@@H](Cc1ccccc1)C(=O)[O-])C(=O)Nc1ccccc1 (chirality)
O=C([N-][C@@H](Cc1ccccc1)C(=O)[O-])C(=O)Nc1ccccc1 (3D coordinates assigned)
O=C([N-][C@@H](Cc1ccccc1)C(=O)[O-])C(=O)Nc1ccccc1 (optimized conformer: 37.89002466504393 kcal/mol)

>  <smiles>  (52) 
O=C(Nc1ccccc1)C(=O)NC(Cc1ccccc1)C(=O)O

>  <score_type>  (52) 
oracle

>  <origin>  (52) 
adg

>  <m_score__min__energy>  (52) 
-12.279999999999999

>  <m_primary>  (52) 
energy

$$$$
52:0
     RDKit          3D

 36 38  0  0  0  0  0  0  0  0999 V2000
   55.5200   28.9510   44.9220 N   0  0  0  0  0  0  0  0  0  0  0  0
   56.3780   29.6950   44.0620 C   0  0  0  0  0  0  0  0  0  0  0  0
   55.8850   30.4200   43.1570 O   0  0  0  0  0  0  0  0  0  0  0  0
   57.8620   29.5780   44.2000 C   0  0  0  0  0  0  0  0  0  0  0  0
   58.3310   30.4270   45.2940 N   0  0  0  0  0  0  0  0  0  0  0  0
   58.6610   30.0040   46.5390 C   0  0  0  0  0  0  0  0  0  0  0  0
   58.9890   31.0900   47.3380 C   0  0  0  0  0  0  0  0  0  0  0  0
   59.4720   31.0370   49.0620 S   0  0  0  0  0  0  0  0  0  0  0  0
   61.1090   30.3230   48.6990 C   0  0  0  0  0  0  0  0  0  0  0  0
   62.1070   31.4290   48.5170 C   0  0  0  0  0  0  0  0  0  0  0  0
   63.0390   31.7150   49.5280 C   0  0  0  0  0  0  0  0  0  0  0  0
   63.9900   32.7240   49.3450 C   0  0  0  0  0  0  0  0  0  0  0  0
   64.0230   33.4460   48.1490 C   0  0  0  0  0  0  0  0  0  0  0  0
   63.1070   33.1570   47.1320 C   0  0  0  0  0  0  0  0  0  0  0  0
   63.1460   33.8530   45.9690 F   0  0  0  0  0  0  0  0  0  0  0  0
   62.1550   32.1500   47.3120 C   0  0  0  0  0  0  0  0  0  0  0  0
   58.8410   32.2090   46.5480 C   0  0  0  0  0  0  0  0  0  0  0  0
   59.0110   33.5620   46.8370 C   0  0  0  0  0  0  0  0  0  0  0  0
   58.7540   34.4890   45.8110 C   0  0  0  0  0  0  0  0  0  0  0  0
   58.3340   34.0480   44.5370 C   0  0  0  0  0  0  0  0  0  0  0  0
   58.1670   32.6760   44.2760 C   0  0  0  0  0  0  0  0  0  0  0  0
   58.4340   31.7740   45.3110 C   0  0  0  0  0  0  0  0  0  0  0  0
   54.6060   29.3440   45.2390 H   0  0  0  0  0  0  0  0  0  0  0  0
   58.1268   28.5316   44.4118 H   0  0  0  0  0  0  0  0  0  0  0  0
   58.3384   29.9010   43.2626 H   0  0  0  0  0  0  0  0  0  0  0  0
   58.6677   28.9542   46.8675 H   0  0  0  0  0  0  0  0  0  0  0  0
   61.4223   29.6801   49.5348 H   0  0  0  0  0  0  0  0  0  0  0  0
   61.0523   29.7245   47.7778 H   0  0  0  0  0  0  0  0  0  0  0  0
   63.0209   31.1431   50.4675 H   0  0  0  0  0  0  0  0  0  0  0  0
   64.7126   32.9494   50.1432 H   0  0  0  0  0  0  0  0  0  0  0  0
   64.7693   34.2416   48.0073 H   0  0  0  0  0  0  0  0  0  0  0  0
   61.4407   31.9210   46.5075 H   0  0  0  0  0  0  0  0  0  0  0  0
   59.3354   33.8937   47.8344 H   0  0  0  0  0  0  0  0  0  0  0  0
   58.8810   35.5648   46.0023 H   0  0  0  0  0  0  0  0  0  0  0  0
   58.1360   34.7829   43.7428 H   0  0  0  0  0  0  0  0  0  0  0  0
   57.8365   32.3232   43.2879 H   0  0  0  0  0  0  0  0  0  0  0  0
  1  2  1  0
  2  3  2  0
  2  4  1  0
  4  5  1  0
  5  6  1  0
  6  7  2  0
  7  8  1  0
  8  9  1  0
  9 10  1  0
 10 11  2  0
 11 12  1  0
 12 13  2  0
 13 14  1  0
 14 15  1  0
 14 16  2  0
  7 17  1  0
 17 18  2  0
 18 19  1  0
 19 20  2  0
 20 21  1  0
 21 22  2  0
 22  5  1  0
 16 10  1  0
 22 17  1  0
  1 23  1  0
  4 24  1  0
  4 25  1  0
  6 26  1  0
  9 27  1  0
  9 28  1  0
 11 29  1  0
 12 30  1  0
 13 31  1  0
 16 32  1  0
 18 33  1  0
 19 34  1  0
 20 35  1  0
 21 36  1  0
M  CHG  1   1  -1
M  END
>  <UniqueID>  (53) 
50

>  <SMILES>  (53) 
[NH-]C(=O)Cn1cc(SCc2cccc(F)c2)c2ccccc21

>  <Energy>  (53) 
65.21860381893731

>  <Genealogy>  (53) 
[NH-]C(=O)Cn1cc(SCc2cccc(F)c2)c2ccccc21 (protonated)
[NH-]C(=O)Cn1cc(SCc2cccc(F)c2)c2ccccc21 (3D coordinates assigned)
[NH-]C(=O)Cn1cc(SCc2cccc(F)c2)c2ccccc21 (optimized conformer: 65.21860381893731 kcal/mol)

>  <smiles>  (53) 
NC(=O)Cn1cc(SCc2cccc(F)c2)c2ccccc21

>  <score_type>  (53) 
oracle

>  <origin>  (53) 
adg

>  <m_score__min__energy>  (53) 
-11.050000000000001

>  <m_primary>  (53) 
energy

$$$$
53:0
     RDKit          3D

 36 38  0  0  0  0  0  0  0  0999 V2000
   56.2450   19.3920   43.1200 H   0  0  0  0  0  0  0  0  0  0  0  0
   55.9250   20.3470   43.2280 O   0  0  0  0  0  0  0  0  0  0  0  0
   56.7190   21.3300   43.8190 C   0  0  0  0  0  0  0  0  0  0  0  0
   58.1090   21.1950   43.7820 C   0  0  0  0  0  0  0  0  0  0  0  0
   58.5604   20.3210   43.2896 H   0  0  0  0  0  0  0  0  0  0  0  0
   58.9300   22.1640   44.3670 C   0  0  0  0  0  0  0  0  0  0  0  0
   60.0234   22.0510   44.3261 H   0  0  0  0  0  0  0  0  0  0  0  0
   58.3650   23.2850   45.0090 C   0  0  0  0  0  0  0  0  0  0  0  0
   59.1870   24.3480   45.6370 C   0  0  0  0  0  0  0  0  0  0  0  0
   60.1396   24.6161   45.1567 H   0  0  0  0  0  0  0  0  0  0  0  0
   58.8390   25.0020   46.7550 C   0  0  0  0  0  0  0  0  0  0  0  0
   58.5573   24.4174   47.6432 H   0  0  0  0  0  0  0  0  0  0  0  0
   58.8190   26.4840   46.8410 C   0  0  0  0  0  0  0  0  0  0  0  0
   59.3330   27.1120   47.9830 C   0  0  0  0  0  0  0  0  0  0  0  0
   59.8750   26.3640   49.0220 O   0  0  0  0  0  0  0  0  0  0  0  0
   59.3190   28.4630   48.0780 N   0  0  0  0  0  0  0  0  0  0  0  0
   58.8060   29.2390   47.0920 C   0  0  0  0  0  0  0  0  0  0  0  0
   58.8360   30.4940   47.2210 O   0  0  0  0  0  0  0  0  0  0  0  0
   58.2680   28.6640   45.9710 N   0  0  0  0  0  0  0  0  0  0  0  0
   57.7120   29.4940   44.9310 C   0  0  0  0  0  0  0  0  0  0  0  0
   58.5340   30.4080   44.2510 C   0  0  0  0  0  0  0  0  0  0  0  0
   59.5990   30.4888   44.5143 H   0  0  0  0  0  0  0  0  0  0  0  0
   58.0030   31.2150   43.2410 C   0  0  0  0  0  0  0  0  0  0  0  0
   58.6511   31.9280   42.7104 H   0  0  0  0  0  0  0  0  0  0  0  0
   56.6510   31.1180   42.9040 C   0  0  0  0  0  0  0  0  0  0  0  0
   56.2344   31.7573   42.1117 H   0  0  0  0  0  0  0  0  0  0  0  0
   55.8270   30.2080   43.5740 C   0  0  0  0  0  0  0  0  0  0  0  0
   54.7626   30.1321   43.3070 H   0  0  0  0  0  0  0  0  0  0  0  0
   56.3530   29.3940   44.5830 C   0  0  0  0  0  0  0  0  0  0  0  0
   55.5260   28.4840   45.2310 O   0  0  0  0  0  0  0  0  0  0  0  0
   58.2560   27.2990   45.8370 C   0  0  0  0  0  0  0  0  0  0  0  0
   57.7080   26.7700   44.8290 O   0  0  0  0  0  0  0  0  0  0  0  0
   56.9660   23.4200   45.0270 C   0  0  0  0  0  0  0  0  0  0  0  0
   56.5109   24.2990   45.5069 H   0  0  0  0  0  0  0  0  0  0  0  0
   56.1460   22.4500   44.4420 C   0  0  0  0  0  0  0  0  0  0  0  0
   54.7650   22.6050   44.4840 O   0  0  0  0  0  0  0  0  0  0  0  0
  1  2  1  0
  2  3  1  0
  3  4  2  0
  4  5  1  0
  4  6  1  0
  6  7  1  0
  6  8  2  0
  8  9  1  0
  9 10  1  0
  9 11  2  0
 11 12  1  0
 11 13  1  0
 13 14  2  0
 14 15  1  0
 14 16  1  0
 16 17  1  0
 17 18  2  0
 17 19  1  0
 19 20  1  0
 20 21  2  0
 21 22  1  0
 21 23  1  0
 23 24  1  0
 23 25  2  0
 25 26  1  0
 25 27  1  0
 27 28  1  0
 27 29  2  0
 29 30  1  0
 19 31  1  0
 31 32  2  0
  8 33  1  0
 33 34  1  0
 33 35  2  0
 35 36  1  0
 35  3  1  0
 31 13  1  0
 29 20  1  0
M  CHG  4  15  -1  16  -1  30  -1  36  -1
M  END
>  <UniqueID>  (54) 
51

>  <SMILES>  (54) 
O=c1[n-]c([O-])c(/C=C/c2ccc(O)c([O-])c2)c(=O)n1-c1ccccc1[O-]

>  <Energy>  (54) 
59.10137334266234

>  <Genealogy>  (54) 
O=c1[n-]c([O-])c(C=Cc2ccc(O)c([O-])c2)c(=O)n1-c1ccccc1[O-] (protonated)
O=c1[n-]c([O-])c(/C=C/c2ccc(O)c([O-])c2)c(=O)n1-c1ccccc1[O-] (cis-trans isomerization)
O=c1[n-]c([O-])c(/C=C/c2ccc(O)c([O-])c2)c(=O)n1-c1ccccc1[O-] (3D coordinates assigned)
O=c1[n-]c([O-])c(/C=C/c2ccc(O)c([O-])c2)c(=O)n1-c1ccccc1[O-] (optimized conformer: 59.10137334266234 kcal/mol)

>  <smiles>  (54) 
O=c1[nH]c(O)c(C=Cc2ccc(O)c(O)c2)c(=O)n1-c1ccccc1O

>  <score_type>  (54) 
oracle

>  <origin>  (54) 
adg

>  <m_score__min__energy>  (54) 
-15.83

>  <m_primary>  (54) 
energy

$$$$
54:0
     RDKit          3D

 35 36  0  0  0  0  0  0  0  0999 V2000
   61.4890   33.7950   47.6610 C   0  0  0  0  0  0  0  0  0  0  0  0
   60.1190   33.7950   47.0340 C   0  0  0  0  0  0  0  0  0  0  0  0
   59.9870   34.1440   45.6780 C   0  0  0  0  0  0  0  0  0  0  0  0
   58.7320   34.1570   45.0670 C   0  0  0  0  0  0  0  0  0  0  0  0
   57.5940   33.8240   45.7990 C   0  0  0  0  0  0  0  0  0  0  0  0
   57.7060   33.4770   47.1480 C   0  0  0  0  0  0  0  0  0  0  0  0
   58.9600   33.4620   47.7820 C   0  0  0  0  0  0  0  0  0  0  0  0
   59.0400   33.0600   49.2360 C   0  0  0  0  0  0  0  0  0  0  0  0
   59.7030   31.7680   49.3730 N   0  0  0  0  0  0  0  0  0  0  0  0
   59.1290   30.5300   48.9410 C   0  0  0  0  0  0  0  0  0  0  0  0
   58.4830   29.8090   49.7480 O   0  0  0  0  0  0  0  0  0  0  0  0
   59.2900   30.0930   47.5510 C   0  0  0  0  0  0  0  0  0  0  0  0
   60.4770   30.0590   46.8420 C   0  0  0  0  0  0  0  0  0  0  0  0
   60.1520   29.5910   45.5870 C   0  0  0  0  0  0  0  0  0  0  0  0
   58.7890   29.3670   45.6140 C   0  0  0  0  0  0  0  0  0  0  0  0
   57.9590   28.8840   44.4700 C   0  0  0  0  0  0  0  0  0  0  0  0
   56.5850   29.9870   44.2010 S   0  0  0  0  0  0  0  0  0  0  0  0
   55.1440   29.2880   44.8490 N   0  0  0  0  0  0  0  0  0  0  0  0
   56.4110   30.2140   42.7260 O   0  0  0  0  0  0  0  0  0  0  0  0
   56.8530   31.3020   44.8790 O   0  0  0  0  0  0  0  0  0  0  0  0
   58.3020   29.6780   46.7930 O   0  0  0  0  0  0  0  0  0  0  0  0
   61.8224   32.7579   47.8136 H   0  0  0  0  0  0  0  0  0  0  0  0
   62.1962   34.3135   46.9969 H   0  0  0  0  0  0  0  0  0  0  0  0
   61.4486   34.3135   48.6303 H   0  0  0  0  0  0  0  0  0  0  0  0
   60.8806   34.4090   45.0938 H   0  0  0  0  0  0  0  0  0  0  0  0
   58.6412   34.4307   44.0055 H   0  0  0  0  0  0  0  0  0  0  0  0
   56.6065   33.8343   45.3145 H   0  0  0  0  0  0  0  0  0  0  0  0
   56.8037   33.2130   47.7192 H   0  0  0  0  0  0  0  0  0  0  0  0
   59.6098   33.8199   49.7909 H   0  0  0  0  0  0  0  0  0  0  0  0
   58.0199   32.9810   49.6400 H   0  0  0  0  0  0  0  0  0  0  0  0
   61.4749   30.3463   47.2049 H   0  0  0  0  0  0  0  0  0  0  0  0
   60.8354   29.4295   44.7403 H   0  0  0  0  0  0  0  0  0  0  0  0
   58.5783   28.8462   43.5617 H   0  0  0  0  0  0  0  0  0  0  0  0
   57.5744   27.8801   44.7030 H   0  0  0  0  0  0  0  0  0  0  0  0
   54.6520   30.0390   45.3820 H   0  0  0  0  0  0  0  0  0  0  0  0
  1  2  1  0
  2  3  2  0
  3  4  1  0
  4  5  2  0
  5  6  1  0
  6  7  2  0
  7  8  1  0
  8  9  1  0
  9 10  1  0
 10 11  2  0
 10 12  1  0
 12 13  2  0
 13 14  1  0
 14 15  2  0
 15 16  1  0
 16 17  1  0
 17 18  1  0
 17 19  2  0
 17 20  2  0
 15 21  1  0
  7  2  1  0
 21 12  1  0
  1 22  1  0
  1 23  1  0
  1 24  1  0
  3 25  1  0
  4 26  1  0
  5 27  1  0
  6 28  1  0
  8 29  1  0
  8 30  1  0
 13 31  1  0
 14 32  1  0
 16 33  1  0
 16 34  1  0
 18 35  1  0
M  CHG  2   9  -1  18  -1
M  END
>  <UniqueID>  (55) 
52

>  <SMILES>  (55) 
Cc1ccccc1C[N-]C(=O)c1ccc(CS([NH-])(=O)=O)o1

>  <Energy>  (55) 
51.9390278629806

>  <Genealogy>  (55) 
Cc1ccccc1C[N-]C(=O)c1ccc(CS([NH-])(=O)=O)o1 (protonated)
Cc1ccccc1C[N-]C(=O)c1ccc(CS([NH-])(=O)=O)o1 (3D coordinates assigned)
Cc1ccccc1C[N-]C(=O)c1ccc(CS([NH-])(=O)=O)o1 (optimized conformer: 51.9390278629806 kcal/mol)

>  <smiles>  (55) 
Cc1ccccc1CNC(=O)c1ccc(CS(N)(=O)=O)o1

>  <score_type>  (55) 
oracle

>  <origin>  (55) 
adg

>  <m_score__min__energy>  (55) 
-12.619999999999999

>  <m_primary>  (55) 
energy

$$$$
55:0
     RDKit          3D

 38 41  0  0  0  0  0  0  0  0999 V2000
   58.0240   24.3530   46.4200 O   0  0  0  0  0  0  0  0  0  0  0  0
   57.7160   24.2020   45.2050 C   0  0  0  0  0  0  0  0  0  0  0  0
   57.7610   25.2890   44.3230 O   0  0  0  0  0  0  0  0  0  0  0  0
   58.1200   26.5970   44.6770 C   0  0  0  0  0  0  0  0  0  0  0  0
   59.3830   26.8120   45.2410 C   0  0  0  0  0  0  0  0  0  0  0  0
   59.7690   28.1010   45.6060 C   0  0  0  0  0  0  0  0  0  0  0  0
   58.8860   29.1650   45.4180 C   0  0  0  0  0  0  0  0  0  0  0  0
   59.2440   30.4270   45.7690 N   0  0  0  0  0  0  0  0  0  0  0  0
   58.3920   31.4760   45.6010 C   0  0  0  0  0  0  0  0  0  0  0  0
   58.8050   32.8470   45.9920 C   0  0  0  0  0  0  0  0  0  0  0  0
   59.1260   33.1450   47.3310 C   0  0  0  0  0  0  0  0  0  0  0  0
   59.5150   34.4380   47.6960 C   0  0  0  0  0  0  0  0  0  0  0  0
   59.5890   35.4460   46.7330 C   0  0  0  0  0  0  0  0  0  0  0  0
   59.2740   35.1640   45.4020 C   0  0  0  0  0  0  0  0  0  0  0  0
   58.8850   33.8730   45.0310 C   0  0  0  0  0  0  0  0  0  0  0  0
   57.1560   31.2530   45.0740 N   0  0  0  0  0  0  0  0  0  0  0  0
   56.7480   30.0110   44.7070 C   0  0  0  0  0  0  0  0  0  0  0  0
   55.5950   29.8560   44.2230 O   0  0  0  0  0  0  0  0  0  0  0  0
   57.6150   28.9190   44.8690 C   0  0  0  0  0  0  0  0  0  0  0  0
   57.2570   27.6470   44.5190 N   0  0  0  0  0  0  0  0  0  0  0  0
   57.2470   22.8850   44.7210 C   0  0  0  0  0  0  0  0  0  0  0  0
   57.3520   21.7370   45.5260 C   0  0  0  0  0  0  0  0  0  0  0  0
   56.9050   20.5040   45.0510 C   0  0  0  0  0  0  0  0  0  0  0  0
   56.3560   20.4220   43.7720 C   0  0  0  0  0  0  0  0  0  0  0  0
   56.2590   21.5380   43.0010 N   0  0  0  0  0  0  0  0  0  0  0  0
   56.6860   22.7510   43.4400 C   0  0  0  0  0  0  0  0  0  0  0  0
   60.0691   25.9662   45.3958 H   0  0  0  0  0  0  0  0  0  0  0  0
   60.7642   28.2783   46.0398 H   0  0  0  0  0  0  0  0  0  0  0  0
   59.0703   32.3553   48.0947 H   0  0  0  0  0  0  0  0  0  0  0  0
   59.7632   34.6611   48.7442 H   0  0  0  0  0  0  0  0  0  0  0  0
   59.8953   36.4620   47.0225 H   0  0  0  0  0  0  0  0  0  0  0  0
   59.3320   35.9590   44.6439 H   0  0  0  0  0  0  0  0  0  0  0  0
   58.6397   33.6574   43.9806 H   0  0  0  0  0  0  0  0  0  0  0  0
   56.2940   27.4670   44.1560 H   0  0  0  0  0  0  0  0  0  0  0  0
   57.7879   21.8114   46.5332 H   0  0  0  0  0  0  0  0  0  0  0  0
   56.9849   19.6048   45.6796 H   0  0  0  0  0  0  0  0  0  0  0  0
   56.0014   19.4547   43.3866 H   0  0  0  0  0  0  0  0  0  0  0  0
   56.5919   23.6326   42.7890 H   0  0  0  0  0  0  0  0  0  0  0  0
  1  2  2  0
  2  3  1  0
  3  4  1  0
  4  5  2  0
  5  6  1  0
  6  7  2  0
  7  8  1  0
  8  9  1  0
  9 10  1  0
 10 11  2  0
 11 12  1  0
 12 13  2  0
 13 14  1  0
 14 15  2  0
  9 16  2  0
 16 17  1  0
 17 18  2  0
 17 19  1  0
 19 20  2  0
  2 21  1  0
 21 22  2  0
 22 23  1  0
 23 24  2  0
 24 25  1  0
 25 26  2  0
 20  4  1  0
 26 21  1  0
 19  7  1  0
 15 10  1  0
  5 27  1  0
  6 28  1  0
 11 29  1  0
 12 30  1  0
 13 31  1  0
 14 32  1  0
 15 33  1  0
 20 34  1  0
 22 35  1  0
 23 36  1  0
 24 37  1  0
 26 38  1  0
M  CHG  2   8  -1  20   1
M  END
>  <UniqueID>  (56) 
53

>  <SMILES>  (56) 
O=C(Oc1ccc2[n-]c(-c3ccccc3)nc(=O)c2[nH+]1)c1cccnc1

>  <Energy>  (56) 
54.724736251178896

>  <Genealogy>  (56) 
O=C(Oc1ccc2[n-]c(-c3ccccc3)nc(=O)c2[nH+]1)c1cccnc1 (protonated)
O=C(Oc1ccc2[n-]c(-c3ccccc3)nc(=O)c2[nH+]1)c1cccnc1 (3D coordinates assigned)
O=C(Oc1ccc2[n-]c(-c3ccccc3)nc(=O)c2[nH+]1)c1cccnc1 (optimized conformer: 54.724736251178896 kcal/mol)

>  <smiles>  (56) 
O=C(Oc1ccc2[nH]c(-c3ccccc3)nc(=O)c2n1)c1cccnc1

>  <score_type>  (56) 
oracle

>  <origin>  (56) 
adg

>  <m_score__min__energy>  (56) 
-8.5500000000000007

>  <m_primary>  (56) 
energy

$$$$
56:0
     RDKit          3D

 67 70  0  0  0  0  0  0  0  0999 V2000
   60.1562   28.3741   44.4125 H   0  0  0  0  0  0  0  0  0  0  0  0
   59.7510   29.0710   45.1610 C   0  0  0  0  0  0  0  0  0  0  0  0
   60.4790   29.1670   46.4400 C   0  0  0  0  0  0  0  0  0  0  0  0
   61.4430   29.9800   46.4940 O   0  0  0  0  0  0  0  0  0  0  0  0
   60.0420   28.4990   47.6480 N   0  0  0  0  0  0  0  0  0  0  0  0
   60.2720   29.1710   48.8970 C   0  0  0  0  0  0  0  0  0  0  0  0
   60.5840   28.5800   50.1100 C   0  0  0  0  0  0  0  0  0  0  0  0
   60.9950   27.1530   50.3170 C   0  0  0  0  0  0  0  0  0  0  0  0
   61.0559   26.9416   51.3948 H   0  0  0  0  0  0  0  0  0  0  0  0
   60.2523   26.4867   49.8540 H   0  0  0  0  0  0  0  0  0  0  0  0
   61.9784   26.9838   49.8540 H   0  0  0  0  0  0  0  0  0  0  0  0
   60.4350   29.5020   51.0940 N   0  0  0  0  0  0  0  0  0  0  0  0
   60.6830   29.2820   52.5200 C   0  0  0  0  0  0  0  0  0  0  0  0
   59.9894   29.8973   53.1120 H   0  0  0  0  0  0  0  0  0  0  0  0
   60.5269   28.2198   52.7597 H   0  0  0  0  0  0  0  0  0  0  0  0
   61.7190   29.5636   52.7597 H   0  0  0  0  0  0  0  0  0  0  0  0
   59.9730   30.6300   50.5550 N   0  0  0  0  0  0  0  0  0  0  0  0
   59.5370   31.7980   51.2760 C   0  0  0  0  0  0  0  0  0  0  0  0
   60.4750   32.7150   51.7860 C   0  0  0  0  0  0  0  0  0  0  0  0
   61.5496   32.5507   51.6180 H   0  0  0  0  0  0  0  0  0  0  0  0
   60.0450   33.8350   52.5060 C   0  0  0  0  0  0  0  0  0  0  0  0
   60.7807   34.5549   52.8940 H   0  0  0  0  0  0  0  0  0  0  0  0
   58.6780   34.0400   52.7330 C   0  0  0  0  0  0  0  0  0  0  0  0
   58.3403   34.9259   53.2907 H   0  0  0  0  0  0  0  0  0  0  0  0
   57.7420   33.1190   52.2510 C   0  0  0  0  0  0  0  0  0  0  0  0
   56.6697   33.2741   52.4409 H   0  0  0  0  0  0  0  0  0  0  0  0
   58.1700   32.0000   51.5270 C   0  0  0  0  0  0  0  0  0  0  0  0
   57.4320   31.2753   51.1528 H   0  0  0  0  0  0  0  0  0  0  0  0
   59.8620   30.4450   49.2250 C   0  0  0  0  0  0  0  0  0  0  0  0
   59.3840   31.2870   48.4250 O   0  0  0  0  0  0  0  0  0  0  0  0
   59.6150   27.0870   47.6580 C   0  0  0  0  0  0  0  0  0  0  0  0
   59.6537   26.7149   48.6924 H   0  0  0  0  0  0  0  0  0  0  0  0
   60.2967   26.5290   46.9993 H   0  0  0  0  0  0  0  0  0  0  0  0
   58.1950   26.8960   47.1220 C   0  0  0  0  0  0  0  0  0  0  0  0
   57.4945   26.8018   47.9649 H   0  0  0  0  0  0  0  0  0  0  0  0
   57.9150   27.7646   46.5079 H   0  0  0  0  0  0  0  0  0  0  0  0
   58.1544   25.9843   46.5079 H   0  0  0  0  0  0  0  0  0  0  0  0
   58.6440   29.7480   44.8180 C   0  0  0  0  0  0  0  0  0  0  0  0
   57.8889   29.1925   44.2425 H   0  0  0  0  0  0  0  0  0  0  0  0
   58.3270   31.1640   45.1300 C   0  0  0  0  0  0  0  0  0  0  0  0
   59.2400   32.0130   45.7900 C   0  0  0  0  0  0  0  0  0  0  0  0
   60.2674   31.6685   45.9791 H   0  0  0  0  0  0  0  0  0  0  0  0
   58.8460   33.2970   46.2080 C   0  0  0  0  0  0  0  0  0  0  0  0
   59.9700   34.3420   47.0890 S   0  0  0  0  0  0  0  0  0  0  0  0
   59.2460   34.9440   48.2600 O   0  0  0  0  0  0  0  0  0  0  0  0
   60.3740   35.4700   46.1810 O   0  0  0  0  0  0  0  0  0  0  0  0
   61.3840   33.5020   47.7060 N   0  0  0  0  0  0  0  0  0  0  0  0
   61.0930   32.5060   47.8640 H   0  0  0  0  0  0  0  0  0  0  0  0
   62.5040   33.5030   46.7470 C   0  0  0  0  0  0  0  0  0  0  0  0
   62.1728   33.0458   45.8030 H   0  0  0  0  0  0  0  0  0  0  0  0
   62.8233   34.5413   46.5736 H   0  0  0  0  0  0  0  0  0  0  0  0
   63.7010   32.6980   47.3110 C   0  0  0  0  0  0  0  0  0  0  0  0
   63.8185   31.7780   46.7196 H   0  0  0  0  0  0  0  0  0  0  0  0
   64.5953   33.3351   47.2455 H   0  0  0  0  0  0  0  0  0  0  0  0
   63.5190   32.3440   48.6750 O   0  0  0  0  0  0  0  0  0  0  0  0
   63.1880   33.4950   49.4330 C   0  0  0  0  0  0  0  0  0  0  0  0
   63.1431   33.2236   50.4980 H   0  0  0  0  0  0  0  0  0  0  0  0
   63.9593   34.2605   49.2625 H   0  0  0  0  0  0  0  0  0  0  0  0
   61.8210   34.0690   49.0000 C   0  0  0  0  0  0  0  0  0  0  0  0
   61.0717   33.8273   49.7681 H   0  0  0  0  0  0  0  0  0  0  0  0
   61.9234   35.1581   48.8842 H   0  0  0  0  0  0  0  0  0  0  0  0
   57.5480   33.7490   45.9240 C   0  0  0  0  0  0  0  0  0  0  0  0
   57.2391   34.7572   46.2372 H   0  0  0  0  0  0  0  0  0  0  0  0
   56.6480   32.9270   45.2470 C   0  0  0  0  0  0  0  0  0  0  0  0
   55.6382   33.2955   45.0136 H   0  0  0  0  0  0  0  0  0  0  0  0
   57.0240   31.6370   44.8640 C   0  0  0  0  0  0  0  0  0  0  0  0
   56.0920   30.8300   44.2150 O   0  0  0  0  0  0  0  0  0  0  0  0
  1  2  1  0
  2  3  1  0
  3  4  2  0
  3  5  1  0
  5  6  1  0
  6  7  2  0
  7  8  1  0
  8  9  1  0
  8 10  1  0
  8 11  1  0
  7 12  1  0
 12 13  1  0
 13 14  1  0
 13 15  1  0
 13 16  1  0
 12 17  1  0
 17 18  1  0
 18 19  2  0
 19 20  1  0
 19 21  1  0
 21 22  1  0
 21 23  2  0
 23 24  1  0
 23 25  1  0
 25 26  1  0
 25 27  2  0
 27 28  1  0
 17 29  1  0
 29 30  2  0
  5 31  1  0
 31 32  1  0
 31 33  1  0
 31 34  1  0
 34 35  1  0
 34 36  1  0
 34 37  1  0
  2 38  2  0
 38 39  1  0
 38 40  1  0
 40 41  2  0
 41 42  1  0
 41 43  1  0
 43 44  1  0
 44 45  2  0
 44 46  2  0
 44 47  1  0
 47 48  1  0
 47 49  1  0
 49 50  1  0
 49 51  1  0
 49 52  1  0
 52 53  1  0
 52 54  1  0
 52 55  1  0
 55 56  1  0
 56 57  1  0
 56 58  1  0
 56 59  1  0
 59 60  1  0
 59 61  1  0
 43 62  2  0
 62 63  1  0
 62 64  1  0
 64 65  1  0
 64 66  2  0
 66 67  1  0
 29  6  1  0
 66 40  1  0
 27 18  1  0
 59 47  1  0
M  CHG  2  47   1  67  -1
M  END
>  <UniqueID>  (57) 
54

>  <SMILES>  (57) 
CCN(C(=O)/C=C\c1cc(S(=O)(=O)[NH+]2CCOCC2)ccc1[O-])c1c(C)n(C)n(-c2ccccc2)c1=O

>  <Energy>  (57) 
140.7579003390244

>  <Genealogy>  (57) 
CCN(C(=O)C=Cc1cc(S(=O)(=O)[NH+]2CCOCC2)ccc1[O-])c1c(C)n(C)n(-c2ccccc2)c1=O (protonated)
CCN(C(=O)/C=C\c1cc(S(=O)(=O)[NH+]2CCOCC2)ccc1[O-])c1c(C)n(C)n(-c2ccccc2)c1=O (cis-trans isomerization)
CCN(C(=O)/C=C\c1cc(S(=O)(=O)[NH+]2CCOCC2)ccc1[O-])c1c(C)n(C)n(-c2ccccc2)c1=O (3D coordinates assigned)
CCN(C(=O)/C=C\c1cc(S(=O)(=O)[NH+]2CCOCC2)ccc1[O-])c1c(C)n(C)n(-c2ccccc2)c1=O (nonaromatic ring conformer: 140.7579003390244 kcal/mol)

>  <smiles>  (57) 
CCN(C(=O)C=Cc1cc(S(=O)(=O)N2CCOCC2)ccc1O)c1c(C)n(C)n(-c2ccccc2)c1=O

>  <score_type>  (57) 
oracle

>  <origin>  (57) 
adg

>  <m_score__min__energy>  (57) 
-10.02

>  <m_primary>  (57) 
energy

$$$$
57:0
     RDKit          3D

 33 34  0  0  0  0  0  0  0  0999 V2000
   57.4330   33.1450   44.3160 N   0  0  0  0  0  0  0  0  0  0  0  0
   58.2360   34.0290   45.1020 C   0  0  0  0  0  0  0  0  0  0  0  0
   58.5120   35.1700   44.6420 O   0  0  0  0  0  0  0  0  0  0  0  0
   58.7320   33.6370   46.4450 C   0  0  0  0  0  0  0  0  0  0  0  0
   59.1930   34.6000   47.3610 C   0  0  0  0  0  0  0  0  0  0  0  0
   59.6360   34.2150   48.6290 C   0  0  0  0  0  0  0  0  0  0  0  0
   59.6290   32.8690   48.9980 C   0  0  0  0  0  0  0  0  0  0  0  0
   59.1890   31.8930   48.0980 C   0  0  0  0  0  0  0  0  0  0  0  0
   59.1670   30.5220   48.5180 N   0  0  0  0  0  0  0  0  0  0  0  0
   60.3000   29.6480   48.6060 C   0  0  0  0  0  0  0  0  0  0  0  0
   61.4530   30.1330   48.4740 O   0  0  0  0  0  0  0  0  0  0  0  0
   60.1380   28.1850   48.7490 C   0  0  0  0  0  0  0  0  0  0  0  0
   60.2270   27.6670   49.8930 O   0  0  0  0  0  0  0  0  0  0  0  0
   59.8060   27.3430   47.6350 N   0  0  0  0  0  0  0  0  0  0  0  0
   58.9030   27.5940   46.7340 C   0  0  0  0  0  0  0  0  0  0  0  0
   57.6050   27.2250   46.8330 N   0  0  0  0  0  0  0  0  0  0  0  0
   56.8890   27.6570   45.7630 C   0  0  0  0  0  0  0  0  0  0  0  0
   55.5340   27.3800   45.6320 O   0  0  0  0  0  0  0  0  0  0  0  0
   57.6090   28.3890   44.8220 C   0  0  0  0  0  0  0  0  0  0  0  0
   57.0870   28.9310   43.5290 C   0  0  0  0  0  0  0  0  0  0  0  0
   56.5530   30.3120   43.7310 C   0  0  0  0  0  0  0  0  0  0  0  0
   55.8370   30.5750   44.7330 O   0  0  0  0  0  0  0  0  0  0  0  0
   56.8040   31.3000   42.7860 O   0  0  0  0  0  0  0  0  0  0  0  0
   59.2110   28.4780   45.3370 S   0  0  0  0  0  0  0  0  0  0  0  0
   58.7170   32.2830   46.8310 C   0  0  0  0  0  0  0  0  0  0  0  0
   57.1460   33.4220   43.3500 H   0  0  0  0  0  0  0  0  0  0  0  0
   57.0430   32.2590   44.7080 H   0  0  0  0  0  0  0  0  0  0  0  0
   59.2048   35.6627   47.0772 H   0  0  0  0  0  0  0  0  0  0  0  0
   59.9917   34.9759   49.3393 H   0  0  0  0  0  0  0  0  0  0  0  0
   59.9711   32.5745   50.0011 H   0  0  0  0  0  0  0  0  0  0  0  0
   57.9021   28.9602   42.7909 H   0  0  0  0  0  0  0  0  0  0  0  0
   56.2774   28.2808   43.1660 H   0  0  0  0  0  0  0  0  0  0  0  0
   58.3325   31.5226   46.1353 H   0  0  0  0  0  0  0  0  0  0  0  0
  1  2  1  0
  2  3  2  0
  2  4  1  0
  4  5  2  0
  5  6  1  0
  6  7  2  0
  7  8  1  0
  8  9  1  0
  9 10  1  0
 10 11  2  0
 10 12  1  0
 12 13  2  0
 12 14  1  0
 14 15  2  3
 15 16  1  0
 16 17  1  0
 17 18  1  0
 17 19  2  0
 19 20  1  0
 20 21  1  0
 21 22  2  0
 21 23  1  0
 19 24  1  0
  8 25  2  0
 25  4  1  0
 24 15  1  0
  1 26  1  0
  1 27  1  0
  5 28  1  0
  6 29  1  0
  7 30  1  0
 20 31  1  0
 20 32  1  0
 25 33  1  0
M  CHG  4   9  -1  16  -1  18  -1  23  -1
M  END
>  <UniqueID>  (58) 
55

>  <SMILES>  (58) 
NC(=O)c1cccc([N-]C(=O)C(=O)N=c2[n-]c([O-])c(CC(=O)[O-])s2)c1

>  <Energy>  (58) 
73.25594197521247

>  <Genealogy>  (58) 
NC(=O)c1cccc([N-]C(=O)C(=O)N=c2[n-]c([O-])c(CC(=O)[O-])s2)c1 (protonated)
NC(=O)c1cccc([N-]C(=O)C(=O)N=c2[n-]c([O-])c(CC(=O)[O-])s2)c1 (3D coordinates assigned)
NC(=O)c1cccc([N-]C(=O)C(=O)N=c2[n-]c([O-])c(CC(=O)[O-])s2)c1 (optimized conformer: 73.25594197521247 kcal/mol)

>  <smiles>  (58) 
NC(=O)c1cccc(NC(=O)C(=O)N=c2[nH]c(O)c(CC(=O)O)s2)c1

>  <score_type>  (58) 
oracle

>  <origin>  (58) 
adg

>  <m_score__min__energy>  (58) 
-15.91

>  <m_primary>  (58) 
energy

$$$$
58:0
     RDKit          3D

 40 42  0  0  0  0  0  0  0  0999 V2000
   57.3630   23.7450   48.7530 O   0  0  0  0  0  0  0  0  0  0  0  0
   57.2190   24.6490   47.8860 C   0  0  0  0  0  0  0  0  0  0  0  0
   58.1860   25.7880   47.8400 C   0  0  0  0  0  0  0  0  0  0  0  0
   58.9910   25.8830   46.2030 S   0  0  0  0  0  0  0  0  0  0  0  0
   58.3410   27.5060   45.8140 C   0  0  0  0  0  0  0  0  0  0  0  0
   59.1580   28.5900   45.8520 N   0  0  0  0  0  0  0  0  0  0  0  0
   58.6880   29.8300   45.5590 C   0  0  0  0  0  0  0  0  0  0  0  0
   59.4690   30.8170   45.6080 O   0  0  0  0  0  0  0  0  0  0  0  0
   57.3470   30.0040   45.1960 C   0  0  0  0  0  0  0  0  0  0  0  0
   56.8580   31.3210   44.8920 N   0  0  0  0  0  0  0  0  0  0  0  0
   57.6510   32.4490   44.4980 C   0  0  0  0  0  0  0  0  0  0  0  0
   57.7430   32.7210   43.2720 O   0  0  0  0  0  0  0  0  0  0  0  0
   58.3200   33.3260   45.4900 C   0  0  0  0  0  0  0  0  0  0  0  0
   58.2200   33.0650   46.8690 C   0  0  0  0  0  0  0  0  0  0  0  0
   58.8530   33.9020   47.7940 C   0  0  0  0  0  0  0  0  0  0  0  0
   59.5830   35.0090   47.3530 C   0  0  0  0  0  0  0  0  0  0  0  0
   59.6750   35.2860   45.9880 C   0  0  0  0  0  0  0  0  0  0  0  0
   59.0440   34.4530   45.0580 C   0  0  0  0  0  0  0  0  0  0  0  0
   56.5130   28.8710   45.1940 C   0  0  0  0  0  0  0  0  0  0  0  0
   55.1550   28.9800   44.9190 O   0  0  0  0  0  0  0  0  0  0  0  0
   57.0310   27.6520   45.4900 N   0  0  0  0  0  0  0  0  0  0  0  0
   56.0940   24.6440   46.9980 N   0  0  0  0  0  0  0  0  0  0  0  0
   56.0020   23.9650   45.7370 C   0  0  0  0  0  0  0  0  0  0  0  0
   57.0610   23.1370   45.3430 C   0  0  0  0  0  0  0  0  0  0  0  0
   57.0040   22.4420   44.1310 C   0  0  0  0  0  0  0  0  0  0  0  0
   55.8790   22.5580   43.3100 C   0  0  0  0  0  0  0  0  0  0  0  0
   55.8220   21.8680   42.1050 O   0  0  0  0  0  0  0  0  0  0  0  0
   54.8070   23.3650   43.7050 C   0  0  0  0  0  0  0  0  0  0  0  0
   54.8620   24.0610   44.9170 C   0  0  0  0  0  0  0  0  0  0  0  0
   57.6473   26.7275   48.0329 H   0  0  0  0  0  0  0  0  0  0  0  0
   58.9588   25.6280   48.6062 H   0  0  0  0  0  0  0  0  0  0  0  0
   57.6412   32.1985   47.2215 H   0  0  0  0  0  0  0  0  0  0  0  0
   58.7760   33.6884   48.8703 H   0  0  0  0  0  0  0  0  0  0  0  0
   60.0852   35.6622   48.0817 H   0  0  0  0  0  0  0  0  0  0  0  0
   60.2449   36.1612   45.6428 H   0  0  0  0  0  0  0  0  0  0  0  0
   59.1140   34.6799   43.9839 H   0  0  0  0  0  0  0  0  0  0  0  0
   57.9434   23.0328   45.9915 H   0  0  0  0  0  0  0  0  0  0  0  0
   57.8453   21.8035   43.8235 H   0  0  0  0  0  0  0  0  0  0  0  0
   53.9192   23.4524   43.0614 H   0  0  0  0  0  0  0  0  0  0  0  0
   54.0120   24.6851   45.2302 H   0  0  0  0  0  0  0  0  0  0  0  0
  1  2  2  0
  2  3  1  0
  3  4  1  0
  4  5  1  0
  5  6  2  0
  6  7  1  0
  7  8  2  0
  7  9  1  0
  9 10  1  0
 10 11  1  0
 11 12  2  0
 11 13  1  0
 13 14  2  0
 14 15  1  0
 15 16  2  0
 16 17  1  0
 17 18  2  0
  9 19  2  0
 19 20  1  0
 19 21  1  0
  2 22  1  0
 22 23  1  0
 23 24  2  0
 24 25  1  0
 25 26  2  0
 26 27  1  0
 26 28  1  0
 28 29  2  0
 21  5  1  0
 29 23  1  0
 18 13  1  0
  3 30  1  0
  3 31  1  0
 14 32  1  0
 15 33  1  0
 16 34  1  0
 17 35  1  0
 18 36  1  0
 24 37  1  0
 25 38  1  0
 28 39  1  0
 29 40  1  0
M  CHG  5  10  -1  20  -1  21  -1  22  -1  27  -1
M  END
>  <UniqueID>  (59) 
56

>  <SMILES>  (59) 
O=C(CSc1nc(=O)c([N-]C(=O)c2ccccc2)c([O-])[n-]1)[N-]c1ccc([O-])cc1

>  <Energy>  (59) 
51.804229043446234

>  <Genealogy>  (59) 
O=C(CSc1nc(=O)c([N-]C(=O)c2ccccc2)c([O-])[n-]1)[N-]c1ccc([O-])cc1 (protonated)
O=C(CSc1nc(=O)c([N-]C(=O)c2ccccc2)c([O-])[n-]1)[N-]c1ccc([O-])cc1 (3D coordinates assigned)
O=C(CSc1nc(=O)c([N-]C(=O)c2ccccc2)c([O-])[n-]1)[N-]c1ccc([O-])cc1 (optimized conformer: 51.804229043446234 kcal/mol)

>  <smiles>  (59) 
O=C(CSc1nc(=O)c(NC(=O)c2ccccc2)c(O)[nH]1)Nc1ccc(O)cc1

>  <score_type>  (59) 
oracle

>  <origin>  (59) 
adg

>  <m_score__min__energy>  (59) 
-17.920000000000002

>  <m_primary>  (59) 
energy

$$$$
59:0
     RDKit          3D

 33 32  0  0  0  0  0  0  0  0999 V2000
   58.5570   33.7600   44.7720 C   0  0  0  0  0  0  0  0  0  0  0  0
   57.4730   32.7450   44.4210 C   0  0  0  0  0  0  0  0  0  0  0  0
   58.0060   31.6830   43.4490 C   0  0  0  0  0  0  0  0  0  0  0  0
   56.9750   30.5860   43.1520 C   0  0  0  0  0  0  0  0  0  0  0  0
   56.6830   29.5070   44.5530 S   0  0  0  0  0  0  0  0  0  0  0  0
   57.2630   30.1410   45.7870 O   0  0  0  0  0  0  0  0  0  0  0  0
   55.1990   29.3600   44.7440 O   0  0  0  0  0  0  0  0  0  0  0  0
   57.3770   27.9290   44.2690 N   0  0  0  0  0  0  0  0  0  0  0  0
   58.6280   27.7280   45.0080 C   0  0  0  0  0  0  0  0  0  0  0  0
   58.4060   26.8470   46.2440 C   0  0  0  0  0  0  0  0  0  0  0  0
   58.3290   25.3670   45.8610 C   0  0  0  0  0  0  0  0  0  0  0  0
   57.2160   25.1420   44.9370 N   0  0  0  0  0  0  0  0  0  0  0  0
   55.6970   25.0940   45.7840 S   0  0  0  0  0  0  0  0  0  0  0  0
   55.1370   26.7110   46.0230 N   0  0  0  0  0  0  0  0  0  0  0  0
   55.8830   24.4330   47.1220 O   0  0  0  0  0  0  0  0  0  0  0  0
   54.6780   24.3310   44.9860 O   0  0  0  0  0  0  0  0  0  0  0  0
   58.6433   33.8408   45.8656 H   0  0  0  0  0  0  0  0  0  0  0  0
   59.5184   33.4298   44.3517 H   0  0  0  0  0  0  0  0  0  0  0  0
   58.2907   34.7410   44.3517 H   0  0  0  0  0  0  0  0  0  0  0  0
   57.1319   32.2502   45.3423 H   0  0  0  0  0  0  0  0  0  0  0  0
   56.6401   33.2759   43.9369 H   0  0  0  0  0  0  0  0  0  0  0  0
   58.2790   32.1754   42.5040 H   0  0  0  0  0  0  0  0  0  0  0  0
   58.8758   31.2041   43.9223 H   0  0  0  0  0  0  0  0  0  0  0  0
   56.0244   31.0638   42.8727 H   0  0  0  0  0  0  0  0  0  0  0  0
   57.3767   29.9670   42.3362 H   0  0  0  0  0  0  0  0  0  0  0  0
   56.6870   27.2290   44.6250 H   0  0  0  0  0  0  0  0  0  0  0  0
   59.3609   27.2416   44.3475 H   0  0  0  0  0  0  0  0  0  0  0  0
   58.9976   28.7091   45.3410 H   0  0  0  0  0  0  0  0  0  0  0  0
   59.2416   26.9936   46.9441 H   0  0  0  0  0  0  0  0  0  0  0  0
   57.4534   27.1362   46.7118 H   0  0  0  0  0  0  0  0  0  0  0  0
   59.2700   25.0675   45.3764 H   0  0  0  0  0  0  0  0  0  0  0  0
   58.1681   24.7686   46.7698 H   0  0  0  0  0  0  0  0  0  0  0  0
   55.5260   27.2880   45.2450 H   0  0  0  0  0  0  0  0  0  0  0  0
  1  2  1  0
  2  3  1  0
  3  4  1  0
  4  5  1  0
  5  6  2  0
  5  7  2  0
  5  8  1  0
  8  9  1  0
  9 10  1  0
 10 11  1  0
 11 12  1  0
 12 13  1  0
 13 14  1  0
 13 15  2  0
 13 16  2  0
  1 17  1  0
  1 18  1  0
  1 19  1  0
  2 20  1  0
  2 21  1  0
  3 22  1  0
  3 23  1  0
  4 24  1  0
  4 25  1  0
  8 26  1  0
  9 27  1  0
  9 28  1  0
 10 29  1  0
 10 30  1  0
 11 31  1  0
 11 32  1  0
 14 33  1  0
M  CHG  2  12  -1  14  -1
M  END
>  <UniqueID>  (60) 
57

>  <SMILES>  (60) 
CCCCS(=O)(=O)NCCC[N-]S([NH-])(=O)=O

>  <Energy>  (60) 
10.673093485423943

>  <Genealogy>  (60) 
CCCCS(=O)(=O)NCCC[N-]S([NH-])(=O)=O (protonated)
CCCCS(=O)(=O)NCCC[N-]S([NH-])(=O)=O (3D coordinates assigned)
CCCCS(=O)(=O)NCCC[N-]S([NH-])(=O)=O (optimized conformer: 10.673093485423943 kcal/mol)

>  <smiles>  (60) 
CCCCS(=O)(=O)NCCCNS(N)(=O)=O

>  <score_type>  (60) 
oracle

>  <origin>  (60) 
adg

>  <m_score__min__energy>  (60) 
-10.69

>  <m_primary>  (60) 
energy

$$$$
60:0
     RDKit          3D

 26 27  0  0  0  0  0  0  0  0999 V2000
   55.3110   29.3480   44.8810 O   0  0  0  0  0  0  0  0  0  0  0  0
   56.5620   29.2290   44.7740 C   0  0  0  0  0  0  0  0  0  0  0  0
   57.1140   27.9890   44.6450 N   0  0  0  0  0  0  0  0  0  0  0  0
   58.4580   27.8170   44.5280 C   0  0  0  0  0  0  0  0  0  0  0  0
   59.3090   28.9220   44.5350 C   0  0  0  0  0  0  0  0  0  0  0  0
   58.7700   30.2010   44.6650 C   0  0  0  0  0  0  0  0  0  0  0  0
   57.3780   30.3700   44.7900 C   0  0  0  0  0  0  0  0  0  0  0  0
   56.7780   31.6320   44.9270 O   0  0  0  0  0  0  0  0  0  0  0  0
   57.3970   32.8810   44.6110 C   0  0  0  0  0  0  0  0  0  0  0  0
   58.1980   33.3960   45.7800 C   0  0  0  0  0  0  0  0  0  0  0  0
   58.1360   32.7260   47.0150 C   0  0  0  0  0  0  0  0  0  0  0  0
   58.8600   33.2000   48.1120 C   0  0  0  0  0  0  0  0  0  0  0  0
   59.6440   34.3500   47.9910 C   0  0  0  0  0  0  0  0  0  0  0  0
   59.7000   35.0320   46.7720 C   0  0  0  0  0  0  0  0  0  0  0  0
   58.9780   34.5630   45.6700 C   0  0  0  0  0  0  0  0  0  0  0  0
   59.0400   35.2490   44.5010 F   0  0  0  0  0  0  0  0  0  0  0  0
   56.4950   27.1460   44.6360 H   0  0  0  0  0  0  0  0  0  0  0  0
   58.8749   26.8040   44.4276 H   0  0  0  0  0  0  0  0  0  0  0  0
   60.3962   28.7854   44.4388 H   0  0  0  0  0  0  0  0  0  0  0  0
   59.4328   31.0788   44.6699 H   0  0  0  0  0  0  0  0  0  0  0  0
   58.0661   32.7433   43.7488 H   0  0  0  0  0  0  0  0  0  0  0  0
   56.6106   33.6128   44.3744 H   0  0  0  0  0  0  0  0  0  0  0  0
   57.5144   31.8243   47.1178 H   0  0  0  0  0  0  0  0  0  0  0  0
   58.8126   32.6666   49.0729 H   0  0  0  0  0  0  0  0  0  0  0  0
   60.2170   34.7187   48.8546 H   0  0  0  0  0  0  0  0  0  0  0  0
   60.3137   35.9402   46.6794 H   0  0  0  0  0  0  0  0  0  0  0  0
  1  2  2  0
  2  3  1  0
  3  4  1  0
  4  5  2  0
  5  6  1  0
  6  7  2  0
  7  8  1  0
  8  9  1  0
  9 10  1  0
 10 11  2  0
 11 12  1  0
 12 13  2  0
 13 14  1  0
 14 15  2  0
 15 16  1  0
  7  2  1  0
 15 10  1  0
  3 17  1  0
  4 18  1  0
  5 19  1  0
  6 20  1  0
  9 21  1  0
  9 22  1  0
 11 23  1  0
 12 24  1  0
 13 25  1  0
 14 26  1  0
M  END
>  <UniqueID>  (61) 
58

>  <SMILES>  (61) 
O=c1[nH]cccc1OCc1ccccc1F

>  <Energy>  (61) 
27.769571155843376

>  <Genealogy>  (61) 
O=c1[nH]cccc1OCc1ccccc1F (3D coordinates assigned)
O=c1[nH]cccc1OCc1ccccc1F (optimized conformer: 27.769571155843376 kcal/mol)

>  <smiles>  (61) 
O=c1[nH]cccc1OCc1ccccc1F

>  <score_type>  (61) 
oracle

>  <origin>  (61) 
adg

>  <m_score__min__energy>  (61) 
-6.6299999999999999

>  <m_primary>  (61) 
energy

$$$$
61:0
     RDKit          3D

 52 54  0  0  0  0  0  0  0  0999 V2000
   58.6680   27.9170   45.7620 N   0  0  0  0  0  0  0  0  0  0  0  0
   57.5740   28.7060   45.3740 N   0  0  0  0  0  0  0  0  0  0  0  0
   57.5570   29.9990   45.0030 C   0  0  0  0  0  0  0  0  0  0  0  0
   58.7570   30.8910   44.8800 C   0  0  0  0  0  0  0  0  0  0  0  0
   58.9060   31.7920   46.0850 C   0  0  0  0  0  0  0  0  0  0  0  0
   58.5590   33.1510   45.9800 C   0  0  0  0  0  0  0  0  0  0  0  0
   58.7180   34.0120   47.0680 C   0  0  0  0  0  0  0  0  0  0  0  0
   59.2410   33.5340   48.2670 C   0  0  0  0  0  0  0  0  0  0  0  0
   59.6000   32.1900   48.3870 C   0  0  0  0  0  0  0  0  0  0  0  0
   59.4200   31.3020   47.3090 C   0  0  0  0  0  0  0  0  0  0  0  0
   59.8140   29.9240   47.4130 N   0  0  0  0  0  0  0  0  0  0  0  0
   59.4240   28.9990   48.4370 C   0  0  0  0  0  0  0  0  0  0  0  0
   59.0540   27.8330   48.1410 O   0  0  0  0  0  0  0  0  0  0  0  0
   59.5340   29.3850   49.8810 C   0  0  0  0  0  0  0  0  0  0  0  0
   58.2790   29.8220   50.4040 O   0  0  0  0  0  0  0  0  0  0  0  0
   58.0650   30.9680   51.1900 C   0  0  0  0  0  0  0  0  0  0  0  0
   59.1300   31.8260   51.5390 C   0  0  0  0  0  0  0  0  0  0  0  0
   58.8980   32.9750   52.2950 C   0  0  0  0  0  0  0  0  0  0  0  0
   57.6070   33.2880   52.7110 C   0  0  0  0  0  0  0  0  0  0  0  0
   56.5440   32.4480   52.3820 C   0  0  0  0  0  0  0  0  0  0  0  0
   56.7540   31.2820   51.6350 C   0  0  0  0  0  0  0  0  0  0  0  0
   55.6240   30.4870   51.3750 O   0  0  0  0  0  0  0  0  0  0  0  0
   54.4790   30.3590   52.2120 C   0  0  0  0  0  0  0  0  0  0  0  0
   53.4910   31.4930   51.9260 C   0  0  0  0  0  0  0  0  0  0  0  0
   52.4500   31.1250   50.8580 C   0  0  0  0  0  0  0  0  0  0  0  0
   51.4060   32.1880   50.6860 C   0  0  0  0  0  0  0  0  0  0  0  0
   50.8270   32.3310   49.5780 O   0  0  0  0  0  0  0  0  0  0  0  0
   51.0840   33.0330   51.7410 O   0  0  0  0  0  0  0  0  0  0  0  0
   56.2970   30.3970   44.7210 N   0  0  0  0  0  0  0  0  0  0  0  0
   55.4960   29.3560   44.9100 N   0  0  0  0  0  0  0  0  0  0  0  0
   56.2860   28.3390   45.3040 C   0  0  0  0  0  0  0  0  0  0  0  0
   55.8600   27.1870   45.5760 O   0  0  0  0  0  0  0  0  0  0  0  0
   59.5550   28.3550   46.0870 H   0  0  0  0  0  0  0  0  0  0  0  0
   58.5910   26.8770   45.7660 H   0  0  0  0  0  0  0  0  0  0  0  0
   59.6579   30.2667   44.7873 H   0  0  0  0  0  0  0  0  0  0  0  0
   58.6252   31.5246   43.9905 H   0  0  0  0  0  0  0  0  0  0  0  0
   58.1586   33.5393   45.0319 H   0  0  0  0  0  0  0  0  0  0  0  0
   58.4296   35.0697   46.9778 H   0  0  0  0  0  0  0  0  0  0  0  0
   59.3714   34.2159   49.1202 H   0  0  0  0  0  0  0  0  0  0  0  0
   60.0270   31.8218   49.3315 H   0  0  0  0  0  0  0  0  0  0  0  0
   59.8779   28.5142   50.4584 H   0  0  0  0  0  0  0  0  0  0  0  0
   60.2495   30.2165   49.9620 H   0  0  0  0  0  0  0  0  0  0  0  0
   60.1525   31.5863   51.2117 H   0  0  0  0  0  0  0  0  0  0  0  0
   59.7364   33.6348   52.5629 H   0  0  0  0  0  0  0  0  0  0  0  0
   57.4253   34.1991   53.3000 H   0  0  0  0  0  0  0  0  0  0  0  0
   55.5270   32.7044   52.7135 H   0  0  0  0  0  0  0  0  0  0  0  0
   53.9910   29.3928   52.0162 H   0  0  0  0  0  0  0  0  0  0  0  0
   54.7939   30.4118   53.2646 H   0  0  0  0  0  0  0  0  0  0  0  0
   52.9637   31.7424   52.8586 H   0  0  0  0  0  0  0  0  0  0  0  0
   54.0701   32.3457   51.5419 H   0  0  0  0  0  0  0  0  0  0  0  0
   52.9660   30.9782   49.8977 H   0  0  0  0  0  0  0  0  0  0  0  0
   51.9420   30.2067   51.1876 H   0  0  0  0  0  0  0  0  0  0  0  0
  1  2  1  0
  2  3  1  0
  3  4  1  0
  4  5  1  0
  5  6  2  0
  6  7  1  0
  7  8  2  0
  8  9  1  0
  9 10  2  0
 10 11  1  0
 11 12  1  0
 12 13  2  0
 12 14  1  0
 14 15  1  0
 15 16  1  0
 16 17  2  0
 17 18  1  0
 18 19  2  0
 19 20  1  0
 20 21  2  0
 21 22  1  0
 22 23  1  0
 23 24  1  0
 24 25  1  0
 25 26  1  0
 26 27  2  0
 26 28  1  0
  3 29  2  0
 29 30  1  0
 30 31  1  0
 31 32  2  0
 31  2  1  0
 10  5  1  0
 21 16  1  0
  1 33  1  0
  1 34  1  0
  4 35  1  0
  4 36  1  0
  6 37  1  0
  7 38  1  0
  8 39  1  0
  9 40  1  0
 14 41  1  0
 14 42  1  0
 17 43  1  0
 18 44  1  0
 19 45  1  0
 20 46  1  0
 23 47  1  0
 23 48  1  0
 24 49  1  0
 24 50  1  0
 25 51  1  0
 25 52  1  0
M  CHG  3  11  -1  28  -1  30  -1
M  END
>  <UniqueID>  (62) 
59

>  <SMILES>  (62) 
Nn1c(Cc2ccccc2[N-]C(=O)COc2ccccc2OCCCC(=O)[O-])n[n-]c1=O

>  <Energy>  (62) 
89.44500241700176

>  <Genealogy>  (62) 
Nn1c(Cc2ccccc2[N-]C(=O)COc2ccccc2OCCCC(=O)[O-])n[n-]c1=O (protonated)
Nn1c(Cc2ccccc2[N-]C(=O)COc2ccccc2OCCCC(=O)[O-])n[n-]c1=O (3D coordinates assigned)
Nn1c(Cc2ccccc2[N-]C(=O)COc2ccccc2OCCCC(=O)[O-])n[n-]c1=O (optimized conformer: 89.44500241700176 kcal/mol)

>  <smiles>  (62) 
Nn1c(Cc2ccccc2NC(=O)COc2ccccc2OCCCC(=O)O)n[nH]c1=O

>  <score_type>  (62) 
oracle

>  <origin>  (62) 
adg

>  <m_score__min__energy>  (62) 
-15.369999999999999

>  <m_primary>  (62) 
energy

$$$$
62:0
     RDKit          3D

 39 41  0  0  0  0  0  0  0  0999 V2000
   64.3240   33.3970   49.1650 C   0  0  0  0  0  0  0  0  0  0  0  0
   62.8970   33.5180   48.7210 C   0  0  0  0  0  0  0  0  0  0  0  0
   61.8970   33.8830   49.6310 C   0  0  0  0  0  0  0  0  0  0  0  0
   60.5790   34.0310   49.1990 C   0  0  0  0  0  0  0  0  0  0  0  0
   60.2670   33.8150   47.8480 C   0  0  0  0  0  0  0  0  0  0  0  0
   58.8520   33.9720   47.3600 C   0  0  0  0  0  0  0  0  0  0  0  0
   58.7300   33.5210   46.0110 O   0  0  0  0  0  0  0  0  0  0  0  0
   58.5950   32.1810   45.6150 C   0  0  0  0  0  0  0  0  0  0  0  0
   57.6000   31.7500   44.7190 C   0  0  0  0  0  0  0  0  0  0  0  0
   57.5030   30.4010   44.3660 C   0  0  0  0  0  0  0  0  0  0  0  0
   58.3940   29.4560   44.9040 C   0  0  0  0  0  0  0  0  0  0  0  0
   58.3050   28.0210   44.5300 C   0  0  0  0  0  0  0  0  0  0  0  0
   58.8590   27.6270   43.4680 O   0  0  0  0  0  0  0  0  0  0  0  0
   57.5760   27.0340   45.3620 C   0  0  0  0  0  0  0  0  0  0  0  0
   56.2190   27.2250   45.6770 C   0  0  0  0  0  0  0  0  0  0  0  0
   55.5400   28.3550   45.2370 O   0  0  0  0  0  0  0  0  0  0  0  0
   55.5620   26.3080   46.4320 N   0  0  0  0  0  0  0  0  0  0  0  0
   56.1880   25.1950   46.8890 C   0  0  0  0  0  0  0  0  0  0  0  0
   55.5580   24.3610   47.5910 O   0  0  0  0  0  0  0  0  0  0  0  0
   57.4930   24.9780   46.5880 N   0  0  0  0  0  0  0  0  0  0  0  0
   58.1970   25.8620   45.8360 C   0  0  0  0  0  0  0  0  0  0  0  0
   59.4000   25.6090   45.5540 O   0  0  0  0  0  0  0  0  0  0  0  0
   59.4000   29.8950   45.7810 C   0  0  0  0  0  0  0  0  0  0  0  0
   59.4950   31.2430   46.1330 C   0  0  0  0  0  0  0  0  0  0  0  0
   61.2600   33.4900   46.9710 N   0  0  0  0  0  0  0  0  0  0  0  0
   62.5520   33.3420   47.3740 C   0  0  0  0  0  0  0  0  0  0  0  0
   64.3670   33.3934   50.2642 H   0  0  0  0  0  0  0  0  0  0  0  0
   64.7501   32.4595   48.7783 H   0  0  0  0  0  0  0  0  0  0  0  0
   64.9019   34.2494   48.7783 H   0  0  0  0  0  0  0  0  0  0  0  0
   62.1512   34.0532   50.6876 H   0  0  0  0  0  0  0  0  0  0  0  0
   59.7905   34.3147   49.9116 H   0  0  0  0  0  0  0  0  0  0  0  0
   58.1815   33.3803   48.0005 H   0  0  0  0  0  0  0  0  0  0  0  0
   58.5795   35.0369   47.4027 H   0  0  0  0  0  0  0  0  0  0  0  0
   56.8942   32.4787   44.2937 H   0  0  0  0  0  0  0  0  0  0  0  0
   56.7231   30.0762   43.6615 H   0  0  0  0  0  0  0  0  0  0  0  0
   60.1184   29.1713   46.1935 H   0  0  0  0  0  0  0  0  0  0  0  0
   60.2852   31.5708   46.8244 H   0  0  0  0  0  0  0  0  0  0  0  0
   61.0340   33.3500   45.9600 H   0  0  0  0  0  0  0  0  0  0  0  0
   63.3286   33.0831   46.6392 H   0  0  0  0  0  0  0  0  0  0  0  0
  1  2  1  0
  2  3  2  0
  3  4  1  0
  4  5  2  0
  5  6  1  0
  6  7  1  0
  7  8  1  0
  8  9  2  0
  9 10  1  0
 10 11  2  0
 11 12  1  0
 12 13  2  0
 12 14  1  0
 14 15  2  0
 15 16  1  0
 15 17  1  0
 17 18  1  0
 18 19  2  0
 18 20  1  0
 20 21  1  0
 21 22  2  0
 11 23  1  0
 23 24  2  0
  5 25  1  0
 25 26  2  0
 26  2  1  0
 24  8  1  0
 21 14  1  0
  1 27  1  0
  1 28  1  0
  1 29  1  0
  3 30  1  0
  4 31  1  0
  6 32  1  0
  6 33  1  0
  9 34  1  0
 10 35  1  0
 23 36  1  0
 24 37  1  0
 25 38  1  0
 26 39  1  0
M  CHG  4  16  -1  17  -1  20  -1  25   1
M  END
>  <UniqueID>  (63) 
60

>  <SMILES>  (63) 
Cc1ccc(COc2ccc(C(=O)c3c([O-])[n-]c(=O)[n-]c3=O)cc2)[nH+]c1

>  <Energy>  (63) 
50.625924110870514

>  <Genealogy>  (63) 
Cc1ccc(COc2ccc(C(=O)c3c([O-])[n-]c(=O)[n-]c3=O)cc2)[nH+]c1 (protonated)
Cc1ccc(COc2ccc(C(=O)c3c([O-])[n-]c(=O)[n-]c3=O)cc2)[nH+]c1 (3D coordinates assigned)
Cc1ccc(COc2ccc(C(=O)c3c([O-])[n-]c(=O)[n-]c3=O)cc2)[nH+]c1 (optimized conformer: 50.625924110870514 kcal/mol)

>  <smiles>  (63) 
Cc1ccc(COc2ccc(C(=O)c3c(O)[nH]c(=O)[nH]c3=O)cc2)nc1

>  <score_type>  (63) 
oracle

>  <origin>  (63) 
adg

>  <m_score__min__energy>  (63) 
-13.859999999999999

>  <m_primary>  (63) 
energy

$$$$
63:0
     RDKit          3D

 23 24  0  0  0  0  0  0  0  0999 V2000
   58.1440   27.2810   43.8410 C   0  0  0  0  0  0  0  0  0  0  0  0
   57.6110   27.7790   45.1810 C   0  0  0  0  0  0  0  0  0  0  0  0
   57.5300   29.2530   45.1890 N   0  0  0  0  0  0  0  0  0  0  0  0
   56.3570   29.8790   44.8420 C   0  0  0  0  0  0  0  0  0  0  0  0
   55.3450   29.2110   44.5000 O   0  0  0  0  0  0  0  0  0  0  0  0
   56.2680   31.2340   44.8650 N   0  0  0  0  0  0  0  0  0  0  0  0
   57.3150   32.0070   45.2380 C   0  0  0  0  0  0  0  0  0  0  0  0
   57.1860   33.4010   45.2490 C   0  0  0  0  0  0  0  0  0  0  0  0
   58.2660   34.1990   45.6390 C   0  0  0  0  0  0  0  0  0  0  0  0
   59.4740   33.6080   46.0210 C   0  0  0  0  0  0  0  0  0  0  0  0
   59.6090   32.2170   46.0130 C   0  0  0  0  0  0  0  0  0  0  0  0
   58.5280   31.4040   45.6190 C   0  0  0  0  0  0  0  0  0  0  0  0
   58.6100   30.0010   45.5930 C   0  0  0  0  0  0  0  0  0  0  0  0
   59.6820   29.4310   45.9450 O   0  0  0  0  0  0  0  0  0  0  0  0
   58.9377   26.5395   44.0148 H   0  0  0  0  0  0  0  0  0  0  0  0
   57.3261   26.8160   43.2710 H   0  0  0  0  0  0  0  0  0  0  0  0
   58.5525   28.1285   43.2710 H   0  0  0  0  0  0  0  0  0  0  0  0
   56.6079   27.3603   45.3499 H   0  0  0  0  0  0  0  0  0  0  0  0
   58.2958   27.4558   45.9789 H   0  0  0  0  0  0  0  0  0  0  0  0
   56.2358   33.8682   44.9511 H   0  0  0  0  0  0  0  0  0  0  0  0
   58.1649   35.2943   45.6452 H   0  0  0  0  0  0  0  0  0  0  0  0
   60.3205   34.2395   46.3287 H   0  0  0  0  0  0  0  0  0  0  0  0
   60.5611   31.7561   46.3149 H   0  0  0  0  0  0  0  0  0  0  0  0
  1  2  1  0
  2  3  1  0
  3  4  1  0
  4  5  2  0
  4  6  1  0
  6  7  1  0
  7  8  2  0
  8  9  1  0
  9 10  2  0
 10 11  1  0
 11 12  2  0
 12 13  1  0
 13 14  2  0
 13  3  1  0
 12  7  1  0
  1 15  1  0
  1 16  1  0
  1 17  1  0
  2 18  1  0
  2 19  1  0
  8 20  1  0
  9 21  1  0
 10 22  1  0
 11 23  1  0
M  CHG  1   6  -1
M  END
>  <UniqueID>  (64) 
61

>  <SMILES>  (64) 
CCn1c(=O)[n-]c2ccccc2c1=O

>  <Energy>  (64) 
28.86298093591602

>  <Genealogy>  (64) 
CCn1c(=O)[n-]c2ccccc2c1=O (protonated)
CCn1c(=O)[n-]c2ccccc2c1=O (3D coordinates assigned)
CCn1c(=O)[n-]c2ccccc2c1=O (optimized conformer: 28.86298093591602 kcal/mol)

>  <smiles>  (64) 
CCn1c(=O)[nH]c2ccccc2c1=O

>  <score_type>  (64) 
oracle

>  <origin>  (64) 
adg

>  <m_score__min__energy>  (64) 
-7.2800000000000002

>  <m_primary>  (64) 
energy

$$$$
64:0
     RDKit          3D

 35 37  0  0  0  0  0  0  0  0999 V2000
   59.5354   34.4608   51.0684 H   0  0  0  0  0  0  0  0  0  0  0  0
   58.9600   33.5250   51.0110 C   0  0  0  0  0  0  0  0  0  0  0  0
   57.9570   33.2260   51.8780 N   0  0  0  0  0  0  0  0  0  0  0  0
   57.3950   32.0280   51.5940 C   0  0  0  0  0  0  0  0  0  0  0  0
   56.4140   31.5000   52.2640 N   0  0  0  0  0  0  0  0  0  0  0  0
   56.0660   30.1090   52.3140 C   0  0  0  0  0  0  0  0  0  0  0  0
   56.9600   29.2540   52.0740 O   0  0  0  0  0  0  0  0  0  0  0  0
   54.7190   29.6920   52.5770 N   0  0  0  0  0  0  0  0  0  0  0  0
   53.5330   30.4920   52.4540 C   0  0  0  0  0  0  0  0  0  0  0  0
   52.6020   30.6150   53.5010 C   0  0  0  0  0  0  0  0  0  0  0  0
   52.7635   30.0735   54.4447 H   0  0  0  0  0  0  0  0  0  0  0  0
   51.4710   31.4240   53.3460 C   0  0  0  0  0  0  0  0  0  0  0  0
   50.7394   31.5072   54.1632 H   0  0  0  0  0  0  0  0  0  0  0  0
   51.2690   32.1270   52.1540 C   0  0  0  0  0  0  0  0  0  0  0  0
   50.1450   32.9290   52.0010 O   0  0  0  0  0  0  0  0  0  0  0  0
   52.2030   32.0250   51.1190 C   0  0  0  0  0  0  0  0  0  0  0  0
   52.0479   32.5816   50.1830 H   0  0  0  0  0  0  0  0  0  0  0  0
   53.3340   31.2170   51.2710 C   0  0  0  0  0  0  0  0  0  0  0  0
   54.0716   31.1499   50.4577 H   0  0  0  0  0  0  0  0  0  0  0  0
   58.1080   31.2910   50.2640 S   0  0  0  0  0  0  0  0  0  0  0  0
   59.2010   32.5530   50.0450 C   0  0  0  0  0  0  0  0  0  0  0  0
   60.1900   32.6560   48.9270 C   0  0  0  0  0  0  0  0  0  0  0  0
   61.0608   33.2377   49.2638 H   0  0  0  0  0  0  0  0  0  0  0  0
   60.5072   31.6448   48.6321 H   0  0  0  0  0  0  0  0  0  0  0  0
   59.5620   33.3400   47.7440 C   0  0  0  0  0  0  0  0  0  0  0  0
   58.3200   32.9040   47.2510 C   0  0  0  0  0  0  0  0  0  0  0  0
   57.7919   32.0773   47.7487 H   0  0  0  0  0  0  0  0  0  0  0  0
   57.7540   33.5180   46.1300 C   0  0  0  0  0  0  0  0  0  0  0  0
   56.7780   33.1790   45.7524 H   0  0  0  0  0  0  0  0  0  0  0  0
   58.4260   34.5620   45.4880 C   0  0  0  0  0  0  0  0  0  0  0  0
   57.9772   35.0460   44.6080 H   0  0  0  0  0  0  0  0  0  0  0  0
   59.6680   34.9910   45.9640 C   0  0  0  0  0  0  0  0  0  0  0  0
   60.1984   35.8098   45.4558 H   0  0  0  0  0  0  0  0  0  0  0  0
   60.2370   34.3800   47.0860 C   0  0  0  0  0  0  0  0  0  0  0  0
   61.2176   34.7159   47.4543 H   0  0  0  0  0  0  0  0  0  0  0  0
  1  2  1  0
  2  3  1  0
  3  4  1  0
  4  5  2  0
  5  6  1  0
  6  7  2  0
  6  8  1  0
  8  9  1  0
  9 10  2  0
 10 11  1  0
 10 12  1  0
 12 13  1  0
 12 14  2  0
 14 15  1  0
 14 16  1  0
 16 17  1  0
 16 18  2  0
 18 19  1  0
  4 20  1  0
 20 21  1  0
 21 22  1  0
 22 23  1  0
 22 24  1  0
 22 25  1  0
 25 26  2  0
 26 27  1  0
 26 28  1  0
 28 29  1  0
 28 30  2  0
 30 31  1  0
 30 32  1  0
 32 33  1  0
 32 34  2  0
 34 35  1  0
 21  2  2  0
 34 25  1  0
 18  9  1  0
M  CHG  3   3  -1   8  -1  15  -1
M  END
>  <UniqueID>  (65) 
62

>  <SMILES>  (65) 
O=C(/N=c1\[n-]cc(Cc2ccccc2)s1)[N-]c1ccc([O-])cc1

>  <Energy>  (65) 
71.24425472615404

>  <Genealogy>  (65) 
O=C(N=c1[n-]cc(Cc2ccccc2)s1)[N-]c1ccc([O-])cc1 (protonated)
O=C(/N=c1\[n-]cc(Cc2ccccc2)s1)[N-]c1ccc([O-])cc1 (cis-trans isomerization)
O=C(/N=c1\[n-]cc(Cc2ccccc2)s1)[N-]c1ccc([O-])cc1 (3D coordinates assigned)
O=C(/N=c1\[n-]cc(Cc2ccccc2)s1)[N-]c1ccc([O-])cc1 (optimized conformer: 71.24425472615404 kcal/mol)

>  <smiles>  (65) 
O=C(N=c1[nH]cc(Cc2ccccc2)s1)Nc1ccc(O)cc1

>  <score_type>  (65) 
oracle

>  <origin>  (65) 
adg

>  <m_score__min__energy>  (65) 
-13.76

>  <m_primary>  (65) 
energy

$$$$
65:0
     RDKit          3D

 54 57  0  0  0  0  0  0  0  0999 V2000
   58.3920   28.9540   47.0430 C   0  0  0  0  0  0  0  0  0  0  0  0
   58.1120   29.0150   45.7320 C   0  0  0  0  0  0  0  0  0  0  0  0
   57.8750   27.9340   44.8670 C   0  0  0  0  0  0  0  0  0  0  0  0
   58.0780   26.6120   45.0260 C   0  0  0  0  0  0  0  0  0  0  0  0
   57.3890   25.7510   46.0030 C   0  0  0  0  0  0  0  0  0  0  0  0
   57.9350   24.6720   46.5940 N   0  0  0  0  0  0  0  0  0  0  0  0
   56.9020   24.1380   47.2820 C   0  0  0  0  0  0  0  0  0  0  0  0
   57.0210   23.1040   47.9890 O   0  0  0  0  0  0  0  0  0  0  0  0
   55.7290   24.7920   47.1420 N   0  0  0  0  0  0  0  0  0  0  0  0
   56.0540   25.8020   46.3180 C   0  0  0  0  0  0  0  0  0  0  0  0
   55.1460   26.7470   45.8590 O   0  0  0  0  0  0  0  0  0  0  0  0
   57.3590   28.4770   43.7010 C   0  0  0  0  0  0  0  0  0  0  0  0
   57.3730   29.8470   43.8580 C   0  0  0  0  0  0  0  0  0  0  0  0
   56.9040   30.8260   42.8240 C   0  0  0  0  0  0  0  0  0  0  0  0
   57.8310   30.1760   45.0860 N   0  0  0  0  0  0  0  0  0  0  0  0
   57.9350   31.5100   45.6150 C   0  0  0  0  0  0  0  0  0  0  0  0
   57.0640   32.5150   45.1700 C   0  0  0  0  0  0  0  0  0  0  0  0
   57.1700   33.8120   45.6780 C   0  0  0  0  0  0  0  0  0  0  0  0
   58.1460   34.1140   46.6310 C   0  0  0  0  0  0  0  0  0  0  0  0
   59.0200   33.1160   47.0840 C   0  0  0  0  0  0  0  0  0  0  0  0
   60.2890   33.4880   48.2490 S   0  0  0  0  0  0  0  0  0  0  0  0
   59.9420   34.7280   49.0250 O   0  0  0  0  0  0  0  0  0  0  0  0
   60.4180   32.3420   49.2110 O   0  0  0  0  0  0  0  0  0  0  0  0
   61.8040   33.7230   47.4290 N   0  0  0  0  0  0  0  0  0  0  0  0
   62.7540   32.6880   47.8400 C   0  0  0  0  0  0  0  0  0  0  0  0
   63.5060   33.1450   49.0590 C   0  0  0  0  0  0  0  0  0  0  0  0
   62.9090   34.0360   49.9630 C   0  0  0  0  0  0  0  0  0  0  0  0
   63.5870   34.4190   51.1220 C   0  0  0  0  0  0  0  0  0  0  0  0
   64.8630   33.9170   51.3890 C   0  0  0  0  0  0  0  0  0  0  0  0
   65.4830   33.0330   50.4890 C   0  0  0  0  0  0  0  0  0  0  0  0
   66.8340   32.4420   50.8020 C   0  0  0  0  0  0  0  0  0  0  0  0
   67.8310   33.1220   50.1250 F   0  0  0  0  0  0  0  0  0  0  0  0
   67.1020   32.5190   52.1580 F   0  0  0  0  0  0  0  0  0  0  0  0
   66.8510   31.1150   50.4150 F   0  0  0  0  0  0  0  0  0  0  0  0
   64.7820   32.6300   49.3370 C   0  0  0  0  0  0  0  0  0  0  0  0
   58.9120   31.8160   46.5740 C   0  0  0  0  0  0  0  0  0  0  0  0
   58.5582   29.8797   47.6136 H   0  0  0  0  0  0  0  0  0  0  0  0
   58.4553   27.9783   47.5471 H   0  0  0  0  0  0  0  0  0  0  0  0
   58.8214   26.1346   44.3707 H   0  0  0  0  0  0  0  0  0  0  0  0
   57.0060   27.9218   42.8195 H   0  0  0  0  0  0  0  0  0  0  0  0
   56.4803   31.7105   43.3221 H   0  0  0  0  0  0  0  0  0  0  0  0
   57.7538   31.1309   42.1956 H   0  0  0  0  0  0  0  0  0  0  0  0
   56.1338   30.3549   42.1956 H   0  0  0  0  0  0  0  0  0  0  0  0
   56.2952   32.2813   44.4188 H   0  0  0  0  0  0  0  0  0  0  0  0
   56.4838   34.5969   45.3271 H   0  0  0  0  0  0  0  0  0  0  0  0
   58.2288   35.1370   47.0267 H   0  0  0  0  0  0  0  0  0  0  0  0
   62.1750   34.6510   47.7420 H   0  0  0  0  0  0  0  0  0  0  0  0
   62.2077   31.7622   48.0732 H   0  0  0  0  0  0  0  0  0  0  0  0
   63.4654   32.5013   47.0221 H   0  0  0  0  0  0  0  0  0  0  0  0
   61.9042   34.4340   49.7584 H   0  0  0  0  0  0  0  0  0  0  0  0
   63.1147   35.1185   51.8274 H   0  0  0  0  0  0  0  0  0  0  0  0
   65.3860   34.2154   52.3096 H   0  0  0  0  0  0  0  0  0  0  0  0
   65.2385   31.9044   48.6477 H   0  0  0  0  0  0  0  0  0  0  0  0
   59.5968   31.0310   46.9273 H   0  0  0  0  0  0  0  0  0  0  0  0
  1  2  2  0
  2  3  1  0
  3  4  2  3
  4  5  1  0
  5  6  1  0
  6  7  1  0
  7  8  2  0
  7  9  1  0
  9 10  1  0
 10 11  1  0
  3 12  1  0
 12 13  2  0
 13 14  1  0
 13 15  1  0
 15 16  1  0
 16 17  2  0
 17 18  1  0
 18 19  2  0
 19 20  1  0
 20 21  1  0
 21 22  2  0
 21 23  2  0
 21 24  1  0
 24 25  1  0
 25 26  1  0
 26 27  2  0
 27 28  1  0
 28 29  2  0
 29 30  1  0
 30 31  1  0
 31 32  1  0
 31 33  1  0
 31 34  1  0
 30 35  2  0
 20 36  2  0
 15  2  1  0
 36 16  1  0
 10  5  2  0
 35 26  1  0
  1 37  1  0
  1 38  1  0
  4 39  1  0
 12 40  1  0
 14 41  1  0
 14 42  1  0
 14 43  1  0
 17 44  1  0
 18 45  1  0
 19 46  1  0
 24 47  1  0
 25 48  1  0
 25 49  1  0
 27 50  1  0
 28 51  1  0
 29 52  1  0
 35 53  1  0
 36 54  1  0
M  CHG  3   6  -1   9  -1  11  -1
M  END
>  <UniqueID>  (66) 
63

>  <SMILES>  (66) 
C=c1c(=Cc2[n-]c(=O)[n-]c2[O-])cc(C)n1-c1cccc(S(=O)(=O)NCc2cccc(C(F)(F)F)c2)c1

>  <Energy>  (66) 
129.6262519210991

>  <Genealogy>  (66) 
C=c1c(=Cc2[n-]c(=O)[n-]c2[O-])cc(C)n1-c1cccc(S(=O)(=O)NCc2cccc(C(F)(F)F)c2)c1 (protonated)
C=c1c(=Cc2[n-]c(=O)[n-]c2[O-])cc(C)n1-c1cccc(S(=O)(=O)NCc2cccc(C(F)(F)F)c2)c1 (3D coordinates assigned)
C=c1c(=Cc2[n-]c(=O)[n-]c2[O-])cc(C)n1-c1cccc(S(=O)(=O)NCc2cccc(C(F)(F)F)c2)c1 (optimized conformer: 129.6262519210991 kcal/mol)

>  <smiles>  (66) 
C=c1c(=Cc2[nH]c(=O)[nH]c2O)cc(C)n1-c1cccc(S(=O)(=O)NCc2cccc(C(F)(F)F)c2)c1

>  <score_type>  (66) 
oracle

>  <origin>  (66) 
adg

>  <m_score__min__energy>  (66) 
-17.670000000000002

>  <m_primary>  (66) 
energy

$$$$
66:0
     RDKit          3D

 51 54  0  0  0  0  0  0  0  0999 V2000
   59.8830   26.3680   46.3590 C   0  0  0  0  0  0  0  0  0  0  0  0
   58.6560   27.0650   45.9400 N   0  0  0  0  0  0  0  0  0  0  0  0
   57.4260   26.5600   46.2810 C   0  0  0  0  0  0  0  0  0  0  0  0
   57.3270   25.4870   46.9340 O   0  0  0  0  0  0  0  0  0  0  0  0
   56.2930   27.2140   45.9210 N   0  0  0  0  0  0  0  0  0  0  0  0
   56.3350   28.3800   45.2320 C   0  0  0  0  0  0  0  0  0  0  0  0
   55.1440   29.0010   44.8740 O   0  0  0  0  0  0  0  0  0  0  0  0
   57.5680   28.9410   44.8850 C   0  0  0  0  0  0  0  0  0  0  0  0
   57.6290   30.2240   44.1440 C   0  0  0  0  0  0  0  0  0  0  0  0
   57.0300   30.3140   42.8770 C   0  0  0  0  0  0  0  0  0  0  0  0
   57.0780   31.5080   42.1550 C   0  0  0  0  0  0  0  0  0  0  0  0
   57.7370   32.6180   42.6840 C   0  0  0  0  0  0  0  0  0  0  0  0
   58.3440   32.5410   43.9400 C   0  0  0  0  0  0  0  0  0  0  0  0
   58.2790   31.3520   44.6910 C   0  0  0  0  0  0  0  0  0  0  0  0
   58.9330   31.2450   45.9660 N   0  0  0  0  0  0  0  0  0  0  0  0
   58.6730   32.0420   47.1300 C   0  0  0  0  0  0  0  0  0  0  0  0
   58.4460   33.2710   46.9760 O   0  0  0  0  0  0  0  0  0  0  0  0
   58.7210   31.4800   48.5030 C   0  0  0  0  0  0  0  0  0  0  0  0
   58.6320   32.3160   49.6290 C   0  0  0  0  0  0  0  0  0  0  0  0
   58.6680   31.7760   50.9160 C   0  0  0  0  0  0  0  0  0  0  0  0
   58.7570   30.3860   51.1010 C   0  0  0  0  0  0  0  0  0  0  0  0
   58.8140   29.7870   52.4540 C   0  0  0  0  0  0  0  0  0  0  0  0
   57.7820   29.7010   53.3090 C   0  0  0  0  0  0  0  0  0  0  0  0
   56.3520   29.7810   52.9340 C   0  0  0  0  0  0  0  0  0  0  0  0
   55.8670   30.9530   52.3350 C   0  0  0  0  0  0  0  0  0  0  0  0
   54.5170   31.0620   51.9880 C   0  0  0  0  0  0  0  0  0  0  0  0
   53.6360   30.0070   52.2530 C   0  0  0  0  0  0  0  0  0  0  0  0
   51.9430   30.1450   51.8160 Cl  0  0  0  0  0  0  0  0  0  0  0  0
   54.1060   28.8480   52.8770 C   0  0  0  0  0  0  0  0  0  0  0  0
   55.4550   28.7360   53.2270 C   0  0  0  0  0  0  0  0  0  0  0  0
   58.8610   29.5530   49.9800 C   0  0  0  0  0  0  0  0  0  0  0  0
   58.8290   30.0920   48.6920 C   0  0  0  0  0  0  0  0  0  0  0  0
   58.7370   28.2620   45.2730 C   0  0  0  0  0  0  0  0  0  0  0  0
   59.8640   28.7710   45.0170 O   0  0  0  0  0  0  0  0  0  0  0  0
   59.9320   26.3402   47.4576 H   0  0  0  0  0  0  0  0  0  0  0  0
   59.8734   25.3405   45.9663 H   0  0  0  0  0  0  0  0  0  0  0  0
   60.7606   26.9024   45.9663 H   0  0  0  0  0  0  0  0  0  0  0  0
   56.5196   29.4379   42.4506 H   0  0  0  0  0  0  0  0  0  0  0  0
   56.5959   31.5735   41.1684 H   0  0  0  0  0  0  0  0  0  0  0  0
   57.7788   33.5560   42.1109 H   0  0  0  0  0  0  0  0  0  0  0  0
   58.8759   33.4147   44.3446 H   0  0  0  0  0  0  0  0  0  0  0  0
   58.5333   33.4034   49.4955 H   0  0  0  0  0  0  0  0  0  0  0  0
   58.6265   32.4425   51.7901 H   0  0  0  0  0  0  0  0  0  0  0  0
   59.7803   29.3793   52.7857 H   0  0  0  0  0  0  0  0  0  0  0  0
   58.0182   29.5597   54.3740 H   0  0  0  0  0  0  0  0  0  0  0  0
   56.5522   31.7905   52.1373 H   0  0  0  0  0  0  0  0  0  0  0  0
   54.1465   31.9786   51.5058 H   0  0  0  0  0  0  0  0  0  0  0  0
   53.4127   28.0218   53.0933 H   0  0  0  0  0  0  0  0  0  0  0  0
   55.8167   27.8286   53.7329 H   0  0  0  0  0  0  0  0  0  0  0  0
   58.9686   28.4666   50.1149 H   0  0  0  0  0  0  0  0  0  0  0  0
   58.8888   29.4251   47.8193 H   0  0  0  0  0  0  0  0  0  0  0  0
  1  2  1  0
  2  3  1  0
  3  4  2  0
  3  5  1  0
  5  6  1  0
  6  7  1  0
  6  8  2  0
  8  9  1  0
  9 10  2  0
 10 11  1  0
 11 12  2  0
 12 13  1  0
 13 14  2  0
 14 15  1  0
 15 16  1  0
 16 17  2  0
 16 18  1  0
 18 19  2  0
 19 20  1  0
 20 21  2  0
 21 22  1  0
 22 23  2  3
 23 24  1  0
 24 25  2  0
 25 26  1  0
 26 27  2  0
 27 28  1  0
 27 29  1  0
 29 30  2  0
 21 31  1  0
 31 32  2  0
  8 33  1  0
 33 34  2  0
 33  2  1  0
 14  9  1  0
 32 18  1  0
 30 24  1  0
  1 35  1  0
  1 36  1  0
  1 37  1  0
 10 38  1  0
 11 39  1  0
 12 40  1  0
 13 41  1  0
 19 42  1  0
 20 43  1  0
 22 44  1  0
 23 45  1  0
 25 46  1  0
 26 47  1  0
 29 48  1  0
 30 49  1  0
 31 50  1  0
 32 51  1  0
M  CHG  3   5  -1   7  -1  15  -1
M  END
>  <UniqueID>  (67) 
64

>  <SMILES>  (67) 
Cn1c(=O)[n-]c([O-])c(-c2ccccc2[N-]C(=O)c2ccc(C=Cc3ccc(Cl)cc3)cc2)c1=O

>  <Energy>  (67) 
84.77520441213933

>  <Genealogy>  (67) 
Cn1c(=O)[n-]c([O-])c(-c2ccccc2[N-]C(=O)c2ccc(C=Cc3ccc(Cl)cc3)cc2)c1=O (protonated)
Cn1c(=O)[n-]c([O-])c(-c2ccccc2[N-]C(=O)c2ccc(C=Cc3ccc(Cl)cc3)cc2)c1=O (3D coordinates assigned)
Cn1c(=O)[n-]c([O-])c(-c2ccccc2[N-]C(=O)c2ccc(C=Cc3ccc(Cl)cc3)cc2)c1=O (optimized conformer: 84.77520441213933 kcal/mol)

>  <smiles>  (67) 
Cn1c(=O)[nH]c(O)c(-c2ccccc2NC(=O)c2ccc(C=Cc3ccc(Cl)cc3)cc2)c1=O

>  <score_type>  (67) 
oracle

>  <origin>  (67) 
adg

>  <m_score__min__energy>  (67) 
-17.07

>  <m_primary>  (67) 
energy

$$$$
67:0
     RDKit          3D

 44 45  0  0  0  0  0  0  0  0999 V2000
   58.0837   34.1171   52.5782 H   0  0  0  0  0  0  0  0  0  0  0  0
   58.1660   33.1770   52.0130 C   0  0  0  0  0  0  0  0  0  0  0  0
   59.0440   33.0810   50.9810 N   0  0  0  0  0  0  0  0  0  0  0  0
   59.1860   31.9430   50.2500 C   0  0  0  0  0  0  0  0  0  0  0  0
   60.0570   31.9360   49.2800 N   0  0  0  0  0  0  0  0  0  0  0  0
   59.8800   31.4190   47.9500 C   0  0  0  0  0  0  0  0  0  0  0  0
   60.3970   30.3070   47.6650 O   0  0  0  0  0  0  0  0  0  0  0  0
   59.0500   32.1210   46.9390 C   0  0  0  0  0  0  0  0  0  0  0  0
   58.5480   33.4100   47.1880 C   0  0  0  0  0  0  0  0  0  0  0  0
   58.7442   33.8955   48.1554 H   0  0  0  0  0  0  0  0  0  0  0  0
   57.8010   34.0790   46.2140 C   0  0  0  0  0  0  0  0  0  0  0  0
   57.4161   35.0895   46.4161 H   0  0  0  0  0  0  0  0  0  0  0  0
   57.5420   33.4680   44.9850 C   0  0  0  0  0  0  0  0  0  0  0  0
   56.9658   34.0041   44.2165 H   0  0  0  0  0  0  0  0  0  0  0  0
   58.0150   32.1720   44.7280 C   0  0  0  0  0  0  0  0  0  0  0  0
   57.7820   31.5230   43.3900 C   0  0  0  0  0  0  0  0  0  0  0  0
   57.0011   32.0744   42.8459 H   0  0  0  0  0  0  0  0  0  0  0  0
   58.7149   31.5383   42.8073 H   0  0  0  0  0  0  0  0  0  0  0  0
   57.3540   30.1410   43.5880 N   0  0  0  0  0  0  0  0  0  0  0  0
   58.0410   29.3870   43.3640 H   0  0  0  0  0  0  0  0  0  0  0  0
   56.1910   29.8190   44.3630 C   0  0  0  0  0  0  0  0  0  0  0  0
   55.1720   30.5560   44.3070 O   0  0  0  0  0  0  0  0  0  0  0  0
   56.1760   28.6800   45.2290 N   0  0  0  0  0  0  0  0  0  0  0  0
   57.3800   27.9660   45.6380 C   0  0  0  0  0  0  0  0  0  0  0  0
   58.2321   28.3157   45.0366 H   0  0  0  0  0  0  0  0  0  0  0  0
   57.5688   28.1605   46.7041 H   0  0  0  0  0  0  0  0  0  0  0  0
   57.1970   26.4630   45.4290 C   0  0  0  0  0  0  0  0  0  0  0  0
   56.9998   26.2699   44.3642 H   0  0  0  0  0  0  0  0  0  0  0  0
   58.1159   25.9515   45.7515 H   0  0  0  0  0  0  0  0  0  0  0  0
   56.0520   25.9400   46.2410 C   0  0  0  0  0  0  0  0  0  0  0  0
   56.2660   25.1710   47.2160 O   0  0  0  0  0  0  0  0  0  0  0  0
   54.7540   26.3410   45.9520 O   0  0  0  0  0  0  0  0  0  0  0  0
   58.7600   31.5010   45.7120 C   0  0  0  0  0  0  0  0  0  0  0  0
   59.1201   30.4795   45.5198 H   0  0  0  0  0  0  0  0  0  0  0  0
   58.3710   30.8290   50.5510 C   0  0  0  0  0  0  0  0  0  0  0  0
   58.4435   29.9115   49.9485 H   0  0  0  0  0  0  0  0  0  0  0  0
   57.4660   30.9000   51.6260 C   0  0  0  0  0  0  0  0  0  0  0  0
   56.6510   29.8200   51.9990 O   0  0  0  0  0  0  0  0  0  0  0  0
   55.4160   29.9480   52.6970 C   0  0  0  0  0  0  0  0  0  0  0  0
   55.6036   29.9286   53.7807 H   0  0  0  0  0  0  0  0  0  0  0  0
   54.9379   30.9005   52.4247 H   0  0  0  0  0  0  0  0  0  0  0  0
   54.7527   29.1138   52.4247 H   0  0  0  0  0  0  0  0  0  0  0  0
   57.3690   32.0860   52.3570 C   0  0  0  0  0  0  0  0  0  0  0  0
   56.6668   32.1591   53.2006 H   0  0  0  0  0  0  0  0  0  0  0  0
  1  2  1  0
  2  3  1  0
  3  4  1  0
  4  5  2  0
  5  6  1  0
  6  7  2  0
  6  8  1  0
  8  9  2  0
  9 10  1  0
  9 11  1  0
 11 12  1  0
 11 13  2  0
 13 14  1  0
 13 15  1  0
 15 16  1  0
 16 17  1  0
 16 18  1  0
 16 19  1  0
 19 20  1  0
 19 21  1  0
 21 22  2  0
 21 23  1  0
 23 24  1  0
 24 25  1  0
 24 26  1  0
 24 27  1  0
 27 28  1  0
 27 29  1  0
 27 30  1  0
 30 31  2  0
 30 32  1  0
 15 33  2  0
 33 34  1  0
  4 35  1  0
 35 36  1  0
 35 37  2  0
 37 38  1  0
 38 39  1  0
 39 40  1  0
 39 41  1  0
 39 42  1  0
 37 43  1  0
 43 44  1  0
 43  2  2  0
 33  8  1  0
M  CHG  3   3  -1  23  -1  32  -1
M  END
>  <UniqueID>  (68) 
65

>  <SMILES>  (68) 
COc1cc[n-]/c(=N/C(=O)c2cccc(CNC(=O)[N-]CCC(=O)[O-])c2)c1

>  <Energy>  (68) 
46.315555024351106

>  <Genealogy>  (68) 
COc1cc[n-]c(=NC(=O)c2cccc(CNC(=O)[N-]CCC(=O)[O-])c2)c1 (protonated)
COc1cc[n-]/c(=N/C(=O)c2cccc(CNC(=O)[N-]CCC(=O)[O-])c2)c1 (cis-trans isomerization)
COc1cc[n-]/c(=N/C(=O)c2cccc(CNC(=O)[N-]CCC(=O)[O-])c2)c1 (3D coordinates assigned)
COc1cc[n-]/c(=N/C(=O)c2cccc(CNC(=O)[N-]CCC(=O)[O-])c2)c1 (optimized conformer: 46.315555024351106 kcal/mol)

>  <smiles>  (68) 
COc1cc[nH]c(=NC(=O)c2cccc(CNC(=O)NCCC(=O)O)c2)c1

>  <score_type>  (68) 
oracle

>  <origin>  (68) 
adg

>  <m_score__min__energy>  (68) 
-14.210000000000001

>  <m_primary>  (68) 
energy

$$$$
68:0
     RDKit          3D

 70 74  0  0  0  0  0  0  0  0999 V2000
   60.9790   28.1270   49.3260 H   0  0  0  0  0  0  0  0  0  0  0  0
   61.0920   28.7710   50.0730 O   0  0  0  0  0  0  0  0  0  0  0  0
   60.9140   30.0880   49.5850 C   0  0  1  0  0  0  0  0  0  0  0  0
   59.7490   30.7400   50.3730 C   0  0  0  0  0  0  0  0  0  0  0  0
   58.7090   29.8770   50.8300 C   0  0  0  0  0  0  0  0  0  0  0  0
   58.7788   28.7915   50.6663 H   0  0  0  0  0  0  0  0  0  0  0  0
   57.6110   30.4140   51.4810 C   0  0  0  0  0  0  0  0  0  0  0  0
   57.4770   31.7380   51.6870 C   0  0  0  0  0  0  0  0  0  0  0  0
   58.4260   32.6460   51.2510 C   0  0  0  0  0  0  0  0  0  0  0  0
   58.2983   33.7219   51.4409 H   0  0  0  0  0  0  0  0  0  0  0  0
   59.5650   32.1680   50.5560 C   0  0  0  0  0  0  0  0  0  0  0  0
   60.5230   33.2160   50.0510 C   0  0  0  0  0  0  0  0  0  0  0  0
   60.9906   33.7275   50.9053 H   0  0  0  0  0  0  0  0  0  0  0  0
   61.3018   32.7368   49.4396 H   0  0  0  0  0  0  0  0  0  0  0  0
   59.9759   33.9487   49.4396 H   0  0  0  0  0  0  0  0  0  0  0  0
   56.2900   31.9880   52.3490 O   0  0  0  0  0  0  0  0  0  0  0  0
   55.6340   30.7310   52.5640 C   0  0  0  0  0  0  0  0  0  0  0  0
   54.6577   30.7129   52.0576 H   0  0  0  0  0  0  0  0  0  0  0  0
   55.4394   30.5437   53.6303 H   0  0  0  0  0  0  0  0  0  0  0  0
   56.5140   29.7510   51.9970 O   0  0  0  0  0  0  0  0  0  0  0  0
   62.2620   30.8300   49.7690 C   0  0  0  0  0  0  0  0  0  0  0  0
   62.4731   30.9462   50.8423 H   0  0  0  0  0  0  0  0  0  0  0  0
   63.0680   30.2484   49.2977 H   0  0  0  0  0  0  0  0  0  0  0  0
   62.2018   31.8221   49.2977 H   0  0  0  0  0  0  0  0  0  0  0  0
   60.4950   30.0270   48.0950 C   0  0  0  0  0  0  0  0  0  0  0  0
   59.5551   30.5839   47.9671 H   0  0  0  0  0  0  0  0  0  0  0  0
   61.3040   30.4700   47.4956 H   0  0  0  0  0  0  0  0  0  0  0  0
   60.2920   28.6300   47.6320 N   0  0  0  0  0  0  0  0  0  0  0  0
   58.9070   28.1340   47.8380 C   0  0  0  0  0  0  0  0  0  0  0  0
   58.9559   27.0606   48.0735 H   0  0  0  0  0  0  0  0  0  0  0  0
   58.4754   28.7293   48.6561 H   0  0  0  0  0  0  0  0  0  0  0  0
   57.9800   28.3210   46.6130 C   0  0  0  0  0  0  0  0  0  0  0  0
   57.9388   27.3754   46.0525 H   0  0  0  0  0  0  0  0  0  0  0  0
   56.9856   28.6108   46.9835 H   0  0  0  0  0  0  0  0  0  0  0  0
   58.4740   29.4290   45.6760 C   0  0  0  0  0  0  0  0  0  0  0  0
   58.4979   30.3759   46.2353 H   0  0  0  0  0  0  0  0  0  0  0  0
   57.5460   29.5960   44.5410 N   0  0  0  0  0  0  0  0  0  0  0  0
   57.0120   30.7340   44.0120 C   0  0  0  0  0  0  0  0  0  0  0  0
   56.9540   31.9220   44.5500 N   0  0  0  0  0  0  0  0  0  0  0  0
   57.7730   33.0700   44.3010 C   0  0  0  0  0  0  0  0  0  0  0  0
   58.4960   33.1120   43.2670 O   0  0  0  0  0  0  0  0  0  0  0  0
   57.8890   34.1380   45.3670 C   0  0  0  0  0  0  0  0  0  0  0  0
   57.1135   34.8888   45.1551 H   0  0  0  0  0  0  0  0  0  0  0  0
   59.2380   34.9160   45.3150 C   0  0  0  0  0  0  0  0  0  0  0  0
   59.7460   34.6658   44.3719 H   0  0  0  0  0  0  0  0  0  0  0  0
   58.9929   35.9856   45.3919 H   0  0  0  0  0  0  0  0  0  0  0  0
   60.1910   34.5910   46.4800 C   0  0  0  0  0  0  0  0  0  0  0  0
   61.2155   34.8703   46.1929 H   0  0  0  0  0  0  0  0  0  0  0  0
   59.8644   35.1595   47.3633 H   0  0  0  0  0  0  0  0  0  0  0  0
   60.1600   33.1000   46.8280 C   0  0  0  0  0  0  0  0  0  0  0  0
   60.4850   32.5255   45.9480 H   0  0  0  0  0  0  0  0  0  0  0  0
   60.8321   32.9426   47.6845 H   0  0  0  0  0  0  0  0  0  0  0  0
   58.7540   32.6190   47.2410 C   0  0  0  0  0  0  0  0  0  0  0  0
   58.5908   31.6178   46.8156 H   0  0  0  0  0  0  0  0  0  0  0  0
   58.7251   32.6182   48.3406 H   0  0  0  0  0  0  0  0  0  0  0  0
   57.6170   33.5420   46.7620 C   0  0  0  0  0  0  0  0  0  0  0  0
   56.6840   32.9607   46.7215 H   0  0  0  0  0  0  0  0  0  0  0  0
   57.5423   34.3774   47.4737 H   0  0  0  0  0  0  0  0  0  0  0  0
   56.4600   30.4560   42.7790 C   0  0  0  0  0  0  0  0  0  0  0  0
   55.9906   31.1614   42.0775 H   0  0  0  0  0  0  0  0  0  0  0  0
   56.6280   29.0960   42.6220 C   0  0  0  0  0  0  0  0  0  0  0  0
   56.2857   28.5053   41.7595 H   0  0  0  0  0  0  0  0  0  0  0  0
   57.2780   28.6090   43.6940 N   0  0  0  0  0  0  0  0  0  0  0  0
   57.5660   27.6130   43.8200 H   0  0  0  0  0  0  0  0  0  0  0  0
   59.9140   29.1390   45.1920 C   0  0  0  0  0  0  0  0  0  0  0  0
   59.8616   28.5160   44.2869 H   0  0  0  0  0  0  0  0  0  0  0  0
   60.3977   30.1069   44.9943 H   0  0  0  0  0  0  0  0  0  0  0  0
   60.7660   28.4010   46.2510 C   0  0  0  0  0  0  0  0  0  0  0  0
   60.7286   27.3218   46.0415 H   0  0  0  0  0  0  0  0  0  0  0  0
   61.7905   28.7958   46.1839 H   0  0  0  0  0  0  0  0  0  0  0  0
  1  2  1  0
  3  2  1  1
  3  4  1  0
  4  5  2  0
  5  6  1  0
  5  7  1  0
  7  8  2  0
  8  9  1  0
  9 10  1  0
  9 11  2  0
 11 12  1  0
 12 13  1  0
 12 14  1  0
 12 15  1  0
  8 16  1  0
 16 17  1  0
 17 18  1  0
 17 19  1  0
 17 20  1  0
  3 21  1  0
 21 22  1  0
 21 23  1  0
 21 24  1  0
  3 25  1  0
 25 26  1  0
 25 27  1  0
 25 28  1  0
 28 29  1  0
 29 30  1  0
 29 31  1  0
 29 32  1  0
 32 33  1  0
 32 34  1  0
 32 35  1  0
 35 36  1  0
 35 37  1  0
 37 38  1  0
 38 39  2  0
 39 40  1  0
 40 41  2  0
 40 42  1  0
 42 43  1  0
 42 44  1  0
 44 45  1  0
 44 46  1  0
 44 47  1  0
 47 48  1  0
 47 49  1  0
 47 50  1  0
 50 51  1  0
 50 52  1  0
 50 53  1  0
 53 54  1  0
 53 55  1  0
 53 56  1  0
 56 57  1  0
 56 58  1  0
 38 59  1  0
 59 60  1  0
 59 61  2  0
 61 62  1  0
 61 63  1  0
 63 64  1  0
 35 65  1  0
 65 66  1  0
 65 67  1  0
 65 68  1  0
 68 69  1  0
 68 70  1  0
 11  4  1  0
 68 28  1  0
 20  7  1  0
 63 37  1  0
 56 42  1  0
M  END
>  <UniqueID>  (69) 
66

>  <SMILES>  (69) 
Cc1cc2c(cc1[C@@](C)(O)CN1CCC(n3[nH]cc/c3=N/C(=O)C3CCCCC3)CC1)OCO2

>  <Energy>  (69) 
167.50563563616015

>  <Genealogy>  (69) 
Cc1cc2c(cc1[C@@](C)(O)CN1CCC(n3[nH]ccc3=NC(=O)C3CCCCC3)CC1)OCO2 (chirality)
Cc1cc2c(cc1[C@@](C)(O)CN1CCC(n3[nH]cc/c3=N/C(=O)C3CCCCC3)CC1)OCO2 (cis-trans isomerization)
Cc1cc2c(cc1[C@@](C)(O)CN1CCC(n3[nH]cc/c3=N/C(=O)C3CCCCC3)CC1)OCO2 (3D coordinates assigned)
Cc1cc2c(cc1[C@@](C)(O)CN1CCC(n3[nH]cc/c3=N/C(=O)C3CCCCC3)CC1)OCO2 (nonaromatic ring conformer: 167.50563563616015 kcal/mol)

>  <smiles>  (69) 
Cc1cc2c(cc1C(C)(O)CN1CCC(n3[nH]ccc3=NC(=O)C3CCCCC3)CC1)OCO2

>  <score_type>  (69) 
oracle

>  <origin>  (69) 
adg

>  <m_score__min__energy>  (69) 
-10.039999999999999

>  <m_primary>  (69) 
energy

$$$$
69:0
     RDKit          3D

 32 33  0  0  0  0  0  0  0  0999 V2000
   59.0620   34.4110   45.5560 C   0  0  0  0  0  0  0  0  0  0  0  0
   57.9700   33.5090   45.6810 O   0  0  0  0  0  0  0  0  0  0  0  0
   58.1510   32.1290   45.5680 C   0  0  0  0  0  0  0  0  0  0  0  0
   58.0440   31.5030   44.3110 C   0  0  0  0  0  0  0  0  0  0  0  0
   57.7470   32.3060   43.0750 C   0  0  0  0  0  0  0  0  0  0  0  0
   58.2740   30.1240   44.2020 C   0  0  0  0  0  0  0  0  0  0  0  0
   58.5860   29.3600   45.3340 C   0  0  0  0  0  0  0  0  0  0  0  0
   58.7930   27.8740   45.2160 C   0  0  0  0  0  0  0  0  0  0  0  0
   57.5360   27.1490   45.5810 C   0  0  0  0  0  0  0  0  0  0  0  0
   57.4980   25.8790   46.0200 N   0  0  0  0  0  0  0  0  0  0  0  0
   56.1880   25.6810   46.2870 C   0  0  0  0  0  0  0  0  0  0  0  0
   55.7430   24.5870   46.7210 O   0  0  0  0  0  0  0  0  0  0  0  0
   55.3950   26.7500   46.0570 N   0  0  0  0  0  0  0  0  0  0  0  0
   56.2650   27.6730   45.6170 C   0  0  0  0  0  0  0  0  0  0  0  0
   55.9110   28.9710   45.2600 O   0  0  0  0  0  0  0  0  0  0  0  0
   58.6480   29.9800   46.5890 C   0  0  0  0  0  0  0  0  0  0  0  0
   58.4210   31.3590   46.7180 C   0  0  0  0  0  0  0  0  0  0  0  0
   58.5290   32.0070   48.0690 C   0  0  0  0  0  0  0  0  0  0  0  0
   59.4139   34.7017   46.5568 H   0  0  0  0  0  0  0  0  0  0  0  0
   59.8804   33.9221   45.0072 H   0  0  0  0  0  0  0  0  0  0  0  0
   58.7365   35.3070   45.0072 H   0  0  0  0  0  0  0  0  0  0  0  0
   57.3788   33.3014   43.3641 H   0  0  0  0  0  0  0  0  0  0  0  0
   58.6648   32.4136   42.4783 H   0  0  0  0  0  0  0  0  0  0  0  0
   56.9801   31.7905   42.4783 H   0  0  0  0  0  0  0  0  0  0  0  0
   58.2088   29.6373   43.2177 H   0  0  0  0  0  0  0  0  0  0  0  0
   59.0682   27.6261   44.1802 H   0  0  0  0  0  0  0  0  0  0  0  0
   59.5973   27.5671   45.9008 H   0  0  0  0  0  0  0  0  0  0  0  0
   55.8020   29.6870   45.9670 H   0  0  0  0  0  0  0  0  0  0  0  0
   58.8769   29.3799   47.4821 H   0  0  0  0  0  0  0  0  0  0  0  0
   58.4020   31.2452   48.8523 H   0  0  0  0  0  0  0  0  0  0  0  0
   59.5179   32.4775   48.1720 H   0  0  0  0  0  0  0  0  0  0  0  0
   57.7461   32.7728   48.1720 H   0  0  0  0  0  0  0  0  0  0  0  0
  1  2  1  0
  2  3  1  0
  3  4  2  0
  4  5  1  0
  4  6  1  0
  6  7  2  0
  7  8  1  0
  8  9  1  0
  9 10  1  0
 10 11  1  0
 11 12  2  0
 11 13  1  0
 13 14  1  0
 14 15  1  0
  7 16  1  0
 16 17  2  0
 17 18  1  0
 17  3  1  0
 14  9  2  0
  1 19  1  0
  1 20  1  0
  1 21  1  0
  5 22  1  0
  5 23  1  0
  5 24  1  0
  6 25  1  0
  8 26  1  0
  8 27  1  0
 15 28  1  0
 16 29  1  0
 18 30  1  0
 18 31  1  0
 18 32  1  0
M  CHG  2  10  -1  13  -1
M  END
>  <UniqueID>  (70) 
67

>  <SMILES>  (70) 
COc1c(C)cc(Cc2[n-]c(=O)[n-]c2O)cc1C

>  <Energy>  (70) 
64.01968218561798

>  <Genealogy>  (70) 
COc1c(C)cc(Cc2[n-]c(=O)[n-]c2O)cc1C (protonated)
COc1c(C)cc(Cc2[n-]c(=O)[n-]c2O)cc1C (3D coordinates assigned)
COc1c(C)cc(Cc2[n-]c(=O)[n-]c2O)cc1C (optimized conformer: 64.01968218561798 kcal/mol)

>  <smiles>  (70) 
COc1c(C)cc(Cc2[nH]c(=O)[nH]c2O)cc1C

>  <score_type>  (70) 
oracle

>  <origin>  (70) 
adg

>  <m_score__min__energy>  (70) 
-10.720000000000001

>  <m_primary>  (70) 
energy

$$$$
70:0
     RDKit          3D

 33 34  0  0  0  0  0  0  0  0999 V2000
   56.2530   22.7230   42.1090 H   0  0  0  0  0  0  0  0  0  0  0  0
   55.9750   21.9230   42.6630 O   0  0  0  0  0  0  0  0  0  0  0  0
   56.3050   21.8210   44.0130 C   0  0  0  0  0  0  0  0  0  0  0  0
   56.8680   20.6380   44.4960 C   0  0  0  0  0  0  0  0  0  0  0  0
   57.0453   19.7967   43.8099 H   0  0  0  0  0  0  0  0  0  0  0  0
   57.2100   20.5160   45.8560 C   0  0  0  0  0  0  0  0  0  0  0  0
   57.7790   19.3450   46.3790 O   0  0  0  0  0  0  0  0  0  0  0  0
   58.9420   19.3100   47.2010 C   0  0  0  0  0  0  0  0  0  0  0  0
   58.6432   19.3190   48.2596 H   0  0  0  0  0  0  0  0  0  0  0  0
   59.5134   18.3943   46.9891 H   0  0  0  0  0  0  0  0  0  0  0  0
   59.5674   20.1897   46.9891 H   0  0  0  0  0  0  0  0  0  0  0  0
   56.9850   21.5950   46.7220 C   0  0  0  0  0  0  0  0  0  0  0  0
   57.3450   21.4740   48.0610 O   0  0  0  0  0  0  0  0  0  0  0  0
   56.4260   22.7960   46.2400 C   0  0  0  0  0  0  0  0  0  0  0  0
   56.2190   23.9550   47.1450 C   0  0  0  0  0  0  0  0  0  0  0  0
   55.1530   24.0300   47.8130 O   0  0  0  0  0  0  0  0  0  0  0  0
   57.1870   25.0710   47.2480 C   0  0  0  0  0  0  0  0  0  0  0  0
   57.3688   25.4912   48.2482 H   0  0  0  0  0  0  0  0  0  0  0  0
   57.8610   25.6120   46.2200 C   0  0  0  0  0  0  0  0  0  0  0  0
   58.6164   24.9870   45.7213 H   0  0  0  0  0  0  0  0  0  0  0  0
   57.6630   26.9870   45.7080 C   0  0  0  0  0  0  0  0  0  0  0  0
   58.7630   27.7810   45.3400 C   0  0  0  0  0  0  0  0  0  0  0  0
   59.7836   27.3840   45.4435 H   0  0  0  0  0  0  0  0  0  0  0  0
   58.5660   29.0730   44.8430 C   0  0  0  0  0  0  0  0  0  0  0  0
   59.4299   29.6827   44.5399 H   0  0  0  0  0  0  0  0  0  0  0  0
   57.2740   29.5900   44.7310 C   0  0  0  0  0  0  0  0  0  0  0  0
   57.1206   30.6044   44.3342 H   0  0  0  0  0  0  0  0  0  0  0  0
   56.1740   28.8190   45.1230 C   0  0  0  0  0  0  0  0  0  0  0  0
   54.8920   29.3450   45.0180 O   0  0  0  0  0  0  0  0  0  0  0  0
   56.3660   27.5230   45.6180 C   0  0  0  0  0  0  0  0  0  0  0  0
   55.2630   26.7650   46.0010 O   0  0  0  0  0  0  0  0  0  0  0  0
   56.0760   22.8920   44.8840 C   0  0  0  0  0  0  0  0  0  0  0  0
   55.6180   23.8167   44.5030 H   0  0  0  0  0  0  0  0  0  0  0  0
  1  2  1  0
  2  3  1  0
  3  4  2  0
  4  5  1  0
  4  6  1  0
  6  7  1  0
  7  8  1  0
  8  9  1  0
  8 10  1  0
  8 11  1  0
  6 12  2  0
 12 13  1  0
 12 14  1  0
 14 15  1  0
 15 16  2  0
 15 17  1  0
 17 18  1  0
 17 19  2  0
 19 20  1  0
 19 21  1  0
 21 22  2  0
 22 23  1  0
 22 24  1  0
 24 25  1  0
 24 26  2  0
 26 27  1  0
 26 28  1  0
 28 29  1  0
 28 30  2  0
 30 31  1  0
 14 32  2  0
 32 33  1  0
 32  3  1  0
 30 21  1  0
M  CHG  3  13  -1  29  -1  31  -1
M  END
>  <UniqueID>  (71) 
68

>  <SMILES>  (71) 
COc1cc(O)cc(C(=O)/C=C\c2cccc([O-])c2[O-])c1[O-]

>  <Energy>  (71) 
44.79113305682231

>  <Genealogy>  (71) 
COc1cc(O)cc(C(=O)C=Cc2cccc([O-])c2[O-])c1[O-] (protonated)
COc1cc(O)cc(C(=O)/C=C\c2cccc([O-])c2[O-])c1[O-] (cis-trans isomerization)
COc1cc(O)cc(C(=O)/C=C\c2cccc([O-])c2[O-])c1[O-] (3D coordinates assigned)
COc1cc(O)cc(C(=O)/C=C\c2cccc([O-])c2[O-])c1[O-] (optimized conformer: 44.79113305682231 kcal/mol)

>  <smiles>  (71) 
COc1cc(O)cc(C(=O)C=Cc2cccc(O)c2O)c1O

>  <score_type>  (71) 
oracle

>  <origin>  (71) 
adg

>  <m_score__min__energy>  (71) 
-15.289999999999999

>  <m_primary>  (71) 
energy

$$$$
71:0
     RDKit          3D

 28 29  0  0  0  0  0  0  0  0999 V2000
   55.1570   28.0690   44.8940 H   0  0  0  0  0  0  0  0  0  0  0  0
   55.1370   29.0810   44.8520 O   0  0  0  0  0  0  0  0  0  0  0  0
   56.1900   29.8170   44.3110 C   0  0  0  0  0  0  0  0  0  0  0  0
   56.0180   30.4340   43.0640 C   0  0  0  0  0  0  0  0  0  0  0  0
   55.0833   30.2854   42.5033 H   0  0  0  0  0  0  0  0  0  0  0  0
   57.0270   31.2350   42.5320 C   0  0  0  0  0  0  0  0  0  0  0  0
   56.8948   31.7177   41.5524 H   0  0  0  0  0  0  0  0  0  0  0  0
   58.2040   31.4180   43.2530 C   0  0  0  0  0  0  0  0  0  0  0  0
   59.0017   32.0595   42.8504 H   0  0  0  0  0  0  0  0  0  0  0  0
   58.3670   30.8040   44.4540 N   0  0  0  0  0  0  0  0  0  0  0  0
   57.4180   29.9960   45.0020 C   0  0  0  0  0  0  0  0  0  0  0  0
   57.6800   29.4550   46.1600 N   0  0  0  0  0  0  0  0  0  0  0  0
   58.2540   28.1700   46.4280 C   0  0  0  0  0  0  0  0  0  0  0  0
   59.4200   27.8990   46.0310 O   0  0  0  0  0  0  0  0  0  0  0  0
   57.4710   27.1530   47.1930 C   0  0  0  0  0  0  0  0  0  0  0  0
   58.0480   26.8327   48.0731 H   0  0  0  0  0  0  0  0  0  0  0  0
   56.5178   27.5949   47.5189 H   0  0  0  0  0  0  0  0  0  0  0  0
   57.1960   25.9630   46.3140 C   0  0  0  0  0  0  0  0  0  0  0  0
   58.2360   25.0680   46.0070 C   0  0  0  0  0  0  0  0  0  0  0  0
   59.2334   25.2172   46.4463 H   0  0  0  0  0  0  0  0  0  0  0  0
   58.0100   23.9900   45.1470 C   0  0  0  0  0  0  0  0  0  0  0  0
   58.8282   23.2921   44.9158 H   0  0  0  0  0  0  0  0  0  0  0  0
   56.7480   23.7960   44.5800 C   0  0  0  0  0  0  0  0  0  0  0  0
   56.4440   22.3240   43.4040 Br  0  0  0  0  0  0  0  0  0  0  0  0
   55.7100   24.6880   44.8690 C   0  0  0  0  0  0  0  0  0  0  0  0
   54.7173   24.5372   44.4197 H   0  0  0  0  0  0  0  0  0  0  0  0
   55.9290   25.7710   45.7270 C   0  0  0  0  0  0  0  0  0  0  0  0
   54.8850   26.6530   45.9870 O   0  0  0  0  0  0  0  0  0  0  0  0
  1  2  1  0
  2  3  1  0
  3  4  2  0
  4  5  1  0
  4  6  1  0
  6  7  1  0
  6  8  2  0
  8  9  1  0
  8 10  1  0
 10 11  1  0
 11 12  2  0
 12 13  1  0
 13 14  2  0
 13 15  1  0
 15 16  1  0
 15 17  1  0
 15 18  1  0
 18 19  2  0
 19 20  1  0
 19 21  1  0
 21 22  1  0
 21 23  2  0
 23 24  1  0
 23 25  1  0
 25 26  1  0
 25 27  2  0
 27 28  1  0
 11  3  1  0
 27 18  1  0
M  CHG  2  10  -1  28  -1
M  END
>  <UniqueID>  (72) 
69

>  <SMILES>  (72) 
O=C(Cc1ccc(Br)cc1[O-])/N=c1/[n-]cccc1O

>  <Energy>  (72) 
38.947529718121636

>  <Genealogy>  (72) 
O=C(Cc1ccc(Br)cc1[O-])N=c1[n-]cccc1O (protonated)
O=C(Cc1ccc(Br)cc1[O-])/N=c1/[n-]cccc1O (cis-trans isomerization)
O=C(Cc1ccc(Br)cc1[O-])/N=c1/[n-]cccc1O (3D coordinates assigned)
O=C(Cc1ccc(Br)cc1[O-])/N=c1/[n-]cccc1O (optimized conformer: 38.947529718121636 kcal/mol)

>  <smiles>  (72) 
O=C(Cc1ccc(Br)cc1O)N=c1[nH]cccc1O

>  <score_type>  (72) 
oracle

>  <origin>  (72) 
adg

>  <m_score__min__energy>  (72) 
-12.4

>  <m_primary>  (72) 
energy

$$$$
72:0
     RDKit          3D

 36 36  0  0  0  0  0  0  0  0999 V2000
   60.4820   28.8490   45.1830 C   0  0  0  0  0  0  0  0  0  0  0  0
   59.7290   29.3840   46.1500 C   0  0  0  0  0  0  0  0  0  0  0  0
   58.2240   29.2980   46.1260 C   0  0  0  0  0  0  0  0  0  0  0  0
   57.6380   29.3740   44.6960 C   0  0  1  0  0  0  0  0  0  0  0  0
   57.5200   27.9820   44.0880 C   0  0  0  0  0  0  0  0  0  0  0  0
   57.4050   27.8800   42.8350 O   0  0  0  0  0  0  0  0  0  0  0  0
   57.4450   26.7360   44.9130 C   0  0  0  0  0  0  0  0  0  0  0  0
   58.1410   25.6300   44.5660 C   0  0  0  0  0  0  0  0  0  0  0  0
   57.5500   24.2960   44.3260 C   0  0  0  0  0  0  0  0  0  0  0  0
   56.6460   24.1250   43.2680 C   0  0  0  0  0  0  0  0  0  0  0  0
   56.1070   22.8650   42.9930 C   0  0  0  0  0  0  0  0  0  0  0  0
   56.4830   21.7480   43.7640 C   0  0  0  0  0  0  0  0  0  0  0  0
   55.9690   20.4640   43.5310 O   0  0  0  0  0  0  0  0  0  0  0  0
   55.8860   19.4410   44.5170 C   0  0  0  0  0  0  0  0  0  0  0  0
   57.4070   21.9150   44.8030 C   0  0  0  0  0  0  0  0  0  0  0  0
   57.9470   23.1750   45.0770 C   0  0  0  0  0  0  0  0  0  0  0  0
   56.5360   26.7330   46.0880 C   0  0  0  0  0  0  0  0  0  0  0  0
   57.0070   26.7790   47.2550 O   0  0  0  0  0  0  0  0  0  0  0  0
   55.1560   26.7180   45.9180 O   0  0  0  0  0  0  0  0  0  0  0  0
   56.3460   30.0800   44.6730 N   0  0  0  0  0  0  0  0  0  0  0  0
   56.3290   31.3230   44.7960 O   0  0  0  0  0  0  0  0  0  0  0  0
   55.1710   29.3920   44.8790 O   0  0  0  0  0  0  0  0  0  0  0  0
   61.5780   28.9297   45.2312 H   0  0  0  0  0  0  0  0  0  0  0  0
   60.0054   28.3282   44.3394 H   0  0  0  0  0  0  0  0  0  0  0  0
   60.2215   29.9014   46.9865 H   0  0  0  0  0  0  0  0  0  0  0  0
   57.9200   28.3430   46.5793 H   0  0  0  0  0  0  0  0  0  0  0  0
   57.8356   30.1605   46.6875 H   0  0  0  0  0  0  0  0  0  0  0  0
   58.3357   29.9593   44.0790 H   0  0  0  0  0  0  0  0  0  0  0  0
   59.2306   25.7303   44.4536 H   0  0  0  0  0  0  0  0  0  0  0  0
   56.3589   24.9885   42.6500 H   0  0  0  0  0  0  0  0  0  0  0  0
   55.3860   22.7453   42.1709 H   0  0  0  0  0  0  0  0  0  0  0  0
   55.9227   19.8936   45.5189 H   0  0  0  0  0  0  0  0  0  0  0  0
   54.9404   18.8920   44.3971 H   0  0  0  0  0  0  0  0  0  0  0  0
   56.7308   18.7467   44.3971 H   0  0  0  0  0  0  0  0  0  0  0  0
   57.7102   21.0480   45.4082 H   0  0  0  0  0  0  0  0  0  0  0  0
   58.6859   23.2903   45.8837 H   0  0  0  0  0  0  0  0  0  0  0  0
  1  2  2  0
  2  3  1  0
  3  4  1  0
  4  5  1  0
  5  6  2  0
  5  7  1  0
  7  8  2  3
  8  9  1  0
  9 10  2  0
 10 11  1  0
 11 12  2  0
 12 13  1  0
 13 14  1  0
 12 15  1  0
 15 16  2  0
  7 17  1  0
 17 18  2  0
 17 19  1  0
  4 20  1  0
 20 21  2  0
 20 22  1  0
 16  9  1  0
  1 23  1  0
  1 24  1  0
  2 25  1  0
  3 26  1  0
  3 27  1  0
  4 28  1  6
  8 29  1  0
 10 30  1  0
 11 31  1  0
 14 32  1  0
 14 33  1  0
 14 34  1  0
 15 35  1  0
 16 36  1  0
M  CHG  3  19  -1  20   1  22  -1
M  END
>  <UniqueID>  (73) 
70

>  <SMILES>  (73) 
C=CC[C@@H](C(=O)C(=Cc1ccc(OC)cc1)C(=O)[O-])[N+](=O)[O-]

>  <Energy>  (73) 
44.7654527258448

>  <Genealogy>  (73) 
C=CCC(C(=O)C(=Cc1ccc(OC)cc1)C(=O)[O-])[N+](=O)[O-] (protonated)
C=CC[C@@H](C(=O)C(=Cc1ccc(OC)cc1)C(=O)[O-])[N+](=O)[O-] (chirality)
C=CC[C@@H](C(=O)C(=Cc1ccc(OC)cc1)C(=O)[O-])[N+](=O)[O-] (3D coordinates assigned)
C=CC[C@@H](C(=O)C(=Cc1ccc(OC)cc1)C(=O)[O-])[N+](=O)[O-] (optimized conformer: 44.7654527258448 kcal/mol)

>  <smiles>  (73) 
C=CCC(C(=O)C(=Cc1ccc(OC)cc1)C(=O)O)[N+](=O)[O-]

>  <score_type>  (73) 
oracle

>  <origin>  (73) 
adg

>  <m_score__min__energy>  (73) 
-9.8100000000000005

>  <m_primary>  (73) 
energy

$$$$
73:0
     RDKit          3D

 46 49  0  0  0  0  0  0  0  0999 V2000
   59.3583   21.9854   45.2002 H   0  0  0  0  0  0  0  0  0  0  0  0
   58.3730   22.1810   44.7520 C   0  0  0  0  0  0  0  0  0  0  0  0
   57.5530   23.1200   45.2960 N   0  0  0  0  0  0  0  0  0  0  0  0
   56.3200   23.3930   44.7870 C   0  0  0  0  0  0  0  0  0  0  0  0
   55.6030   24.3180   45.3620 N   0  0  0  0  0  0  0  0  0  0  0  0
   56.0260   25.6380   45.7260 C   0  0  0  0  0  0  0  0  0  0  0  0
   55.1520   26.5000   46.0070 O   0  0  0  0  0  0  0  0  0  0  0  0
   57.4220   25.9850   45.7170 N   0  0  0  0  0  0  0  0  0  0  0  0
   58.1160   25.2310   45.5190 H   0  0  0  0  0  0  0  0  0  0  0  0
   57.9340   27.2840   46.0580 C   0  0  0  0  0  0  0  0  0  0  0  0
   59.1320   27.3810   46.7800 C   0  0  0  0  0  0  0  0  0  0  0  0
   59.6597   26.4663   47.0879 H   0  0  0  0  0  0  0  0  0  0  0  0
   59.6600   28.6310   47.1110 C   0  0  0  0  0  0  0  0  0  0  0  0
   60.5874   28.6977   47.6988 H   0  0  0  0  0  0  0  0  0  0  0  0
   59.0110   29.7970   46.6960 C   0  0  0  0  0  0  0  0  0  0  0  0
   59.4204   30.7793   46.9742 H   0  0  0  0  0  0  0  0  0  0  0  0
   57.8440   29.7220   45.9290 C   0  0  0  0  0  0  0  0  0  0  0  0
   57.2350   30.9140   45.5100 O   0  0  0  0  0  0  0  0  0  0  0  0
   57.8030   32.1950   45.5970 C   0  0  0  0  0  0  0  0  0  0  0  0
   57.8860   32.9710   44.4390 C   0  0  0  0  0  0  0  0  0  0  0  0
   57.5131   32.5786   43.4814 H   0  0  0  0  0  0  0  0  0  0  0  0
   58.4450   34.2470   44.5050 C   0  0  0  0  0  0  0  0  0  0  0  0
   58.5275   34.8576   43.5937 H   0  0  0  0  0  0  0  0  0  0  0  0
   58.8880   34.7380   45.6920 N   0  0  0  0  0  0  0  0  0  0  0  0
   58.7970   34.0310   46.8520 C   0  0  0  0  0  0  0  0  0  0  0  0
   59.2630   34.5740   47.9420 N   0  0  0  0  0  0  0  0  0  0  0  0
   60.2390   34.0550   48.8590 C   0  0  0  0  0  0  0  0  0  0  0  0
   59.8570   33.7080   50.0090 O   0  0  0  0  0  0  0  0  0  0  0  0
   61.6660   33.8080   48.4230 C   0  0  0  0  0  0  0  0  0  0  0  0
   62.1196   34.3554   49.2624 H   0  0  0  0  0  0  0  0  0  0  0  0
   61.8890   32.4700   47.7320 C   0  0  0  0  0  0  0  0  0  0  0  0
   62.8140   31.9038   47.9160 H   0  0  0  0  0  0  0  0  0  0  0  0
   61.3254   31.5279   47.6627 H   0  0  0  0  0  0  0  0  0  0  0  0
   61.9340   33.7560   46.9230 C   0  0  0  0  0  0  0  0  0  0  0  0
   62.8914   34.1205   46.5224 H   0  0  0  0  0  0  0  0  0  0  0  0
   61.4168   34.1298   46.0270 H   0  0  0  0  0  0  0  0  0  0  0  0
   58.2500   32.7320   46.8160 C   0  0  0  0  0  0  0  0  0  0  0  0
   58.1734   32.1403   47.7401 H   0  0  0  0  0  0  0  0  0  0  0  0
   57.2950   28.4620   45.6270 C   0  0  0  0  0  0  0  0  0  0  0  0
   56.3605   28.3971   45.0504 H   0  0  0  0  0  0  0  0  0  0  0  0
   55.8880   22.7010   43.6350 C   0  0  0  0  0  0  0  0  0  0  0  0
   54.9066   22.9225   43.1902 H   0  0  0  0  0  0  0  0  0  0  0  0
   56.7170   21.7330   43.0650 C   0  0  0  0  0  0  0  0  0  0  0  0
   56.3854   21.1810   42.1732 H   0  0  0  0  0  0  0  0  0  0  0  0
   57.9650   21.4660   43.6260 C   0  0  0  0  0  0  0  0  0  0  0  0
   58.6205   20.7002   43.1857 H   0  0  0  0  0  0  0  0  0  0  0  0
  1  2  1  0
  2  3  1  0
  3  4  1  0
  4  5  2  3
  5  6  1  0
  6  7  2  0
  6  8  1  0
  8  9  1  0
  8 10  1  0
 10 11  2  0
 11 12  1  0
 11 13  1  0
 13 14  1  0
 13 15  2  0
 15 16  1  0
 15 17  1  0
 17 18  1  0
 18 19  1  0
 19 20  1  0
 20 21  1  0
 20 22  2  0
 22 23  1  0
 22 24  1  0
 24 25  1  0
 25 26  2  0
 26 27  1  0
 27 28  2  0
 27 29  1  0
 29 30  1  0
 29 31  1  0
 31 32  1  0
 31 33  1  0
 31 34  1  0
 34 35  1  0
 34 36  1  0
 25 37  1  0
 37 38  1  0
 17 39  2  0
 39 40  1  0
  4 41  1  0
 41 42  1  0
 41 43  2  0
 43 44  1  0
 43 45  1  0
 45 46  1  0
 45  2  2  0
 39 10  1  0
 37 19  2  0
 34 29  1  0
M  CHG  2   3  -1  24  -1
M  END
>  <UniqueID>  (74) 
71

>  <SMILES>  (74) 
O=C(N=c1cccc[n-]1)Nc1cccc(Oc2cc[n-]/c(=N/C(=O)C3CC3)c2)c1

>  <Energy>  (74) 
342.37380620487573

>  <Genealogy>  (74) 
O=C(N=c1cccc[n-]1)Nc1cccc(Oc2cc[n-]c(=NC(=O)C3CC3)c2)c1 (protonated)
O=C(N=c1cccc[n-]1)Nc1cccc(Oc2cc[n-]/c(=N/C(=O)C3CC3)c2)c1 (cis-trans isomerization)
O=C(N=c1cccc[n-]1)Nc1cccc(Oc2cc[n-]/c(=N/C(=O)C3CC3)c2)c1 (3D coordinates assigned)
O=C(N=c1cccc[n-]1)Nc1cccc(Oc2cc[n-]/c(=N/C(=O)C3CC3)c2)c1 (nonaromatic ring conformer: 342.37380620487573 kcal/mol)

>  <smiles>  (74) 
O=C(N=c1cccc[nH]1)Nc1cccc(Oc2cc[nH]c(=NC(=O)C3CC3)c2)c1

>  <score_type>  (74) 
oracle

>  <origin>  (74) 
adg

>  <m_score__min__energy>  (74) 
-11.369999999999999

>  <m_primary>  (74) 
energy

$$$$
74:0
     RDKit          3D

 42 44  0  0  0  0  0  0  0  0999 V2000
   58.1850   32.6310   45.8050 O   0  0  0  0  0  0  0  0  0  0  0  0
   58.0640   31.3980   46.0350 C   0  0  0  0  0  0  0  0  0  0  0  0
   57.0980   30.7140   45.3730 N   0  0  0  0  0  0  0  0  0  0  0  0
   56.9130   29.3850   45.5500 C   0  0  0  0  0  0  0  0  0  0  0  0
   55.8820   28.7400   44.8730 O   0  0  0  0  0  0  0  0  0  0  0  0
   57.7500   28.6830   46.4210 C   0  0  0  0  0  0  0  0  0  0  0  0
   57.5850   27.2260   46.6420 C   0  0  0  0  0  0  0  0  0  0  0  0
   57.5980   26.2990   45.6700 C   0  0  0  0  0  0  0  0  0  0  0  0
   56.6370   25.1770   45.5520 C   0  0  0  0  0  0  0  0  0  0  0  0
   57.0800   23.8600   45.3250 C   0  0  0  0  0  0  0  0  0  0  0  0
   56.1630   22.8100   45.2350 C   0  0  0  0  0  0  0  0  0  0  0  0
   54.7970   23.0580   45.3900 C   0  0  0  0  0  0  0  0  0  0  0  0
   53.8870   22.0130   45.2990 O   0  0  0  0  0  0  0  0  0  0  0  0
   54.3480   24.3570   45.6410 C   0  0  0  0  0  0  0  0  0  0  0  0
   55.2610   25.4140   45.7290 C   0  0  0  0  0  0  0  0  0  0  0  0
   54.7920   26.6990   45.9810 O   0  0  0  0  0  0  0  0  0  0  0  0
   58.7290   29.4000   47.1290 C   0  0  0  0  0  0  0  0  0  0  0  0
   59.4710   28.7760   47.9390 O   0  0  0  0  0  0  0  0  0  0  0  0
   58.8880   30.7550   46.9330 N   0  0  0  0  0  0  0  0  0  0  0  0
   59.9400   31.5000   47.6810 C   0  0  0  0  0  0  0  0  0  0  0  0
   61.0620   32.0210   46.7410 C   0  0  0  0  0  0  0  0  0  0  0  0
   61.7110   33.3240   47.2430 C   0  0  0  0  0  0  0  0  0  0  0  0
   61.8040   33.3510   48.7730 C   0  0  0  0  0  0  0  0  0  0  0  0
   60.4150   33.2800   49.4430 C   0  0  0  0  0  0  0  0  0  0  0  0
   59.3380   32.6170   48.5610 C   0  0  0  0  0  0  0  0  0  0  0  0
   55.9910   27.7920   44.5380 H   0  0  0  0  0  0  0  0  0  0  0  0
   57.4417   26.8795   47.6761 H   0  0  0  0  0  0  0  0  0  0  0  0
   58.3821   26.3788   44.9027 H   0  0  0  0  0  0  0  0  0  0  0  0
   58.1557   23.6564   45.2178 H   0  0  0  0  0  0  0  0  0  0  0  0
   56.5170   21.7866   45.0418 H   0  0  0  0  0  0  0  0  0  0  0  0
   53.2727   24.5497   45.7699 H   0  0  0  0  0  0  0  0  0  0  0  0
   60.4176   30.7855   48.3676 H   0  0  0  0  0  0  0  0  0  0  0  0
   61.8413   31.2485   46.6637 H   0  0  0  0  0  0  0  0  0  0  0  0
   60.6003   32.2377   45.7664 H   0  0  0  0  0  0  0  0  0  0  0  0
   62.7239   33.4044   46.8217 H   0  0  0  0  0  0  0  0  0  0  0  0
   61.0848   34.1687   46.9199 H   0  0  0  0  0  0  0  0  0  0  0  0
   62.4027   32.4907   49.1067 H   0  0  0  0  0  0  0  0  0  0  0  0
   62.2721   34.3023   49.0661 H   0  0  0  0  0  0  0  0  0  0  0  0
   60.5070   32.7012   50.3739 H   0  0  0  0  0  0  0  0  0  0  0  0
   60.0910   34.3154   49.6248 H   0  0  0  0  0  0  0  0  0  0  0  0
   58.5620   32.1832   49.2089 H   0  0  0  0  0  0  0  0  0  0  0  0
   58.9101   33.3855   47.9005 H   0  0  0  0  0  0  0  0  0  0  0  0
  1  2  2  0
  2  3  1  0
  3  4  1  0
  4  5  1  0
  4  6  2  0
  6  7  1  0
  7  8  2  3
  8  9  1  0
  9 10  2  0
 10 11  1  0
 11 12  2  0
 12 13  1  0
 12 14  1  0
 14 15  2  0
 15 16  1  0
  6 17  1  0
 17 18  2  0
 17 19  1  0
 19 20  1  0
 20 21  1  0
 21 22  1  0
 22 23  1  0
 23 24  1  0
 24 25  1  0
 19  2  1  0
 25 20  1  0
 15  9  1  0
  5 26  1  0
  7 27  1  0
  8 28  1  0
 10 29  1  0
 11 30  1  0
 14 31  1  0
 20 32  1  0
 21 33  1  0
 21 34  1  0
 22 35  1  0
 22 36  1  0
 23 37  1  0
 23 38  1  0
 24 39  1  0
 24 40  1  0
 25 41  1  0
 25 42  1  0
M  CHG  3   3  -1  13  -1  16  -1
M  END
>  <UniqueID>  (75) 
72

>  <SMILES>  (75) 
O=c1[n-]c(O)c(C=Cc2ccc([O-])cc2[O-])c(=O)n1C1CCCCC1

>  <Energy>  (75) 
65.70685647317862

>  <Genealogy>  (75) 
O=c1[n-]c(O)c(C=Cc2ccc([O-])cc2[O-])c(=O)n1C1CCCCC1 (protonated)
O=c1[n-]c(O)c(C=Cc2ccc([O-])cc2[O-])c(=O)n1C1CCCCC1 (3D coordinates assigned)
O=c1[n-]c(O)c(C=Cc2ccc([O-])cc2[O-])c(=O)n1C1CCCCC1 (nonaromatic ring conformer: 65.70685647317862 kcal/mol)

>  <smiles>  (75) 
O=c1[nH]c(O)c(C=Cc2ccc(O)cc2O)c(=O)n1C1CCCCC1

>  <score_type>  (75) 
oracle

>  <origin>  (75) 
adg

>  <m_score__min__energy>  (75) 
-16.199999999999999

>  <m_primary>  (75) 
energy

$$$$
75:0
     RDKit          3D

 42 44  0  0  0  0  0  0  0  0999 V2000
   60.7900   26.9860   48.3750 C   0  0  0  0  0  0  0  0  0  0  0  0
   59.9210   27.7980   47.4520 C   0  0  0  0  0  0  0  0  0  0  0  0
   60.0600   29.1950   47.4540 C   0  0  0  0  0  0  0  0  0  0  0  0
   59.3260   29.9850   46.5700 C   0  0  0  0  0  0  0  0  0  0  0  0
   58.4460   29.3950   45.6520 C   0  0  0  0  0  0  0  0  0  0  0  0
   57.6730   30.2270   44.6990 C   0  0  0  0  0  0  0  0  0  0  0  0
   57.4870   29.8100   43.5250 O   0  0  0  0  0  0  0  0  0  0  0  0
   57.0800   31.4760   45.0850 N   0  0  0  0  0  0  0  0  0  0  0  0
   57.7840   32.6750   45.4360 C   0  0  0  0  0  0  0  0  0  0  0  0
   58.4330   33.3990   44.4280 C   0  0  0  0  0  0  0  0  0  0  0  0
   59.1400   34.5650   44.7380 C   0  0  0  0  0  0  0  0  0  0  0  0
   59.2170   35.0060   46.0620 C   0  0  0  0  0  0  0  0  0  0  0  0
   59.9180   36.1660   46.3690 O   0  0  0  0  0  0  0  0  0  0  0  0
   58.5910   34.2780   47.0780 C   0  0  0  0  0  0  0  0  0  0  0  0
   57.8840   33.1120   46.7700 C   0  0  0  0  0  0  0  0  0  0  0  0
   58.2740   28.0030   45.6700 C   0  0  0  0  0  0  0  0  0  0  0  0
   58.9770   27.1990   46.5810 C   0  0  0  0  0  0  0  0  0  0  0  0
   58.7270   25.7810   46.5660 N   0  0  0  0  0  0  0  0  0  0  0  0
   57.4680   25.1760   46.2250 C   0  0  0  0  0  0  0  0  0  0  0  0
   56.3500   25.9490   46.2830 N   0  0  0  0  0  0  0  0  0  0  0  0
   55.1280   25.4900   45.9160 C   0  0  0  0  0  0  0  0  0  0  0  0
   54.0230   26.3270   45.9940 O   0  0  0  0  0  0  0  0  0  0  0  0
   54.9830   24.1830   45.4560 C   0  0  0  0  0  0  0  0  0  0  0  0
   56.0980   23.3440   45.4080 C   0  0  0  0  0  0  0  0  0  0  0  0
   55.9500   22.1510   45.0260 O   0  0  0  0  0  0  0  0  0  0  0  0
   57.3620   23.8230   45.8110 C   0  0  0  0  0  0  0  0  0  0  0  0
   58.5220   22.9030   45.8550 C   0  0  0  0  0  0  0  0  0  0  0  0
   58.3380   21.5270   46.1770 N   0  0  0  0  0  0  0  0  0  0  0  0
   59.6830   23.3370   45.6280 O   0  0  0  0  0  0  0  0  0  0  0  0
   60.5371   27.2223   49.4191 H   0  0  0  0  0  0  0  0  0  0  0  0
   60.6207   25.9149   48.1901 H   0  0  0  0  0  0  0  0  0  0  0  0
   61.8471   27.2274   48.1901 H   0  0  0  0  0  0  0  0  0  0  0  0
   60.7555   29.6715   48.1606 H   0  0  0  0  0  0  0  0  0  0  0  0
   59.4383   31.0790   46.5931 H   0  0  0  0  0  0  0  0  0  0  0  0
   58.3863   33.0484   43.3864 H   0  0  0  0  0  0  0  0  0  0  0  0
   59.6360   35.1357   43.9390 H   0  0  0  0  0  0  0  0  0  0  0  0
   58.6548   34.6229   48.1206 H   0  0  0  0  0  0  0  0  0  0  0  0
   57.4040   32.5339   47.5734 H   0  0  0  0  0  0  0  0  0  0  0  0
   57.5775   27.5342   44.9593 H   0  0  0  0  0  0  0  0  0  0  0  0
   59.5030   25.1450   46.8560 H   0  0  0  0  0  0  0  0  0  0  0  0
   53.9979   23.8150   45.1332 H   0  0  0  0  0  0  0  0  0  0  0  0
   57.3800   21.1230   46.2770 H   0  0  0  0  0  0  0  0  0  0  0  0
  1  2  1  0
  2  3  2  0
  3  4  1  0
  4  5  2  0
  5  6  1  0
  6  7  2  0
  6  8  1  0
  8  9  1  0
  9 10  2  0
 10 11  1  0
 11 12  2  0
 12 13  1  0
 12 14  1  0
 14 15  2  0
  5 16  1  0
 16 17  2  0
 17 18  1  0
 18 19  1  0
 19 20  1  0
 20 21  1  0
 21 22  1  0
 21 23  2  0
 23 24  1  0
 24 25  2  0
 24 26  1  0
 26 27  1  0
 27 28  1  0
 27 29  2  0
 17  2  1  0
 26 19  2  0
 15  9  1  0
  1 30  1  0
  1 31  1  0
  1 32  1  0
  3 33  1  0
  4 34  1  0
 10 35  1  0
 11 36  1  0
 14 37  1  0
 15 38  1  0
 16 39  1  0
 18 40  1  0
 23 41  1  0
 28 42  1  0
M  CHG  5   8  -1  13  -1  20  -1  22  -1  28  -1
M  END
>  <UniqueID>  (76) 
73

>  <SMILES>  (76) 
Cc1ccc(C(=O)[N-]c2ccc([O-])cc2)cc1Nc1[n-]c([O-])cc(=O)c1C([NH-])=O

>  <Energy>  (76) 
67.30544963837487

>  <Genealogy>  (76) 
Cc1ccc(C(=O)[N-]c2ccc([O-])cc2)cc1Nc1[n-]c([O-])cc(=O)c1C([NH-])=O (protonated)
Cc1ccc(C(=O)[N-]c2ccc([O-])cc2)cc1Nc1[n-]c([O-])cc(=O)c1C([NH-])=O (3D coordinates assigned)
Cc1ccc(C(=O)[N-]c2ccc([O-])cc2)cc1Nc1[n-]c([O-])cc(=O)c1C([NH-])=O (optimized conformer: 67.30544963837487 kcal/mol)

>  <smiles>  (76) 
Cc1ccc(C(=O)Nc2ccc(O)cc2)cc1Nc1[nH]c(O)cc(=O)c1C(N)=O

>  <score_type>  (76) 
oracle

>  <origin>  (76) 
adg

>  <m_score__min__energy>  (76) 
-17.079999999999998

>  <m_primary>  (76) 
energy

$$$$
76:0
     RDKit          3D

 38 40  0  0  1  0  0  0  0  0999 V2000
   59.1540   27.9220   44.4090 C   0  0  0  0  0  0  0  0  0  0  0  0
   57.9350   27.4470   44.6450 C   0  0  0  0  0  0  0  0  0  0  0  0
   56.9650   28.1110   45.5600 C   0  0  0  0  0  0  0  0  0  0  0  0
   56.1020   28.9600   44.7320 N   0  0  0  0  0  0  0  0  0  0  0  0
   56.5450   30.0000   44.1110 C   0  0  0  0  0  0  0  0  0  0  0  0
   57.0200   31.0020   44.8760 N   0  0  0  0  0  0  0  0  0  0  0  0
   57.5010   32.1220   44.3050 C   0  0  0  0  0  0  0  0  0  0  0  0
   57.9970   33.1690   45.1280 N   0  0  0  0  0  0  0  0  0  0  0  0
   59.0750   34.0080   44.6550 C   0  0  0  0  0  0  0  0  0  0  0  0
   59.5510   34.9630   45.7000 C   0  0  0  0  0  0  0  0  0  0  0  0
   59.6770   34.2750   47.0340 C   0  0  0  0  0  0  0  0  0  0  0  0
   60.7730   34.4120   47.8330 C   0  0  0  0  0  0  0  0  0  0  0  0
   60.7920   33.7430   49.0320 C   0  0  0  0  0  0  0  0  0  0  0  0
   59.7280   32.9520   49.4170 C   0  0  0  0  0  0  0  0  0  0  0  0
   58.6200   32.8240   48.5890 C   0  0  0  0  0  0  0  0  0  0  0  0
   58.5920   33.4840   47.3970 C   0  0  0  0  0  0  0  0  0  0  0  0
   57.4340   33.4040   46.4400 C   0  0  0  0  0  0  0  0  0  0  0  0
   57.5120   32.2540   42.9330 C   0  0  0  0  0  0  0  0  0  0  0  0
   57.0160   31.2020   42.1900 C   0  0  0  0  0  0  0  0  0  0  0  0
   56.5350   30.0840   42.7650 N   0  0  0  0  0  0  0  0  0  0  0  0
   59.8287   27.3890   43.7229 H   0  0  0  0  0  0  0  0  0  0  0  0
   59.4880   28.8480   44.8998 H   0  0  0  0  0  0  0  0  0  0  0  0
   57.6279   26.5191   44.1404 H   0  0  0  0  0  0  0  0  0  0  0  0
   56.3608   27.3547   46.0824 H   0  0  0  0  0  0  0  0  0  0  0  0
   57.4899   28.7092   46.3194 H   0  0  0  0  0  0  0  0  0  0  0  0
   59.9159   33.3665   44.3528 H   0  0  0  0  0  0  0  0  0  0  0  0
   58.6950   34.5982   43.8081 H   0  0  0  0  0  0  0  0  0  0  0  0
   60.5332   35.3607   45.4049 H   0  0  0  0  0  0  0  0  0  0  0  0
   58.8197   35.7796   45.7915 H   0  0  0  0  0  0  0  0  0  0  0  0
   61.6204   35.0423   47.5251 H   0  0  0  0  0  0  0  0  0  0  0  0
   61.6655   33.8385   49.6937 H   0  0  0  0  0  0  0  0  0  0  0  0
   59.7577   32.4224   50.3807 H   0  0  0  0  0  0  0  0  0  0  0  0
   57.7710   32.1942   48.8934 H   0  0  0  0  0  0  0  0  0  0  0  0
   56.7665   32.5759   46.7204 H   0  0  0  0  0  0  0  0  0  0  0  0
   56.8409   34.3302   46.4569 H   0  0  0  0  0  0  0  0  0  0  0  0
   57.9008   33.1622   42.4493 H   0  0  0  0  0  0  0  0  0  0  0  0
   57.0137   31.2796   41.0927 H   0  0  0  0  0  0  0  0  0  0  0  0
   56.1650   29.2980   42.2160 H   0  0  0  0  0  0  0  0  0  0  0  0
  1  2  2  0
  2  3  1  0
  3  4  1  0
  4  5  2  0
  5  6  1  0
  6  7  2  0
  7  8  1  0
  8  9  1  0
  9 10  1  0
 10 11  1  0
 11 12  2  0
 12 13  1  0
 13 14  2  0
 14 15  1  0
 15 16  2  0
 16 17  1  0
  7 18  1  0
 18 19  2  0
 19 20  1  0
 20  5  1  0
 17  8  1  0
 16 11  1  0
  1 21  1  0
  1 22  1  0
  2 23  1  0
  3 24  1  0
  3 25  1  0
  9 26  1  0
  9 27  1  0
 10 28  1  0
 10 29  1  0
 12 30  1  0
 13 31  1  0
 14 32  1  0
 15 33  1  0
 17 34  1  0
 17 35  1  0
 18 36  1  0
 19 37  1  0
 20 38  1  0
M  END
>  <smiles>  (77) 
C=CCN=c1nc(N2CCc3ccccc3C2)cc[nH]1

>  <score_type>  (77) 
oracle

>  <origin>  (77) 
adg

>  <m_score__min__energy>  (77) 
-7.71

>  <m_primary>  (77) 
energy

$$$$
77:0
     RDKit          3D

 45 47  0  0  0  0  0  0  0  0999 V2000
   54.0890   23.2980   45.8230 C   0  0  0  0  0  0  0  0  0  0  0  0
   55.0180   23.7150   46.9580 C   0  0  0  0  0  0  0  0  0  0  0  0
   56.0630   24.6890   46.4660 C   0  0  0  0  0  0  0  0  0  0  0  0
   55.6870   25.9640   45.9990 C   0  0  0  0  0  0  0  0  0  0  0  0
   54.3480   26.3400   45.9630 O   0  0  0  0  0  0  0  0  0  0  0  0
   56.6590   26.8710   45.5680 C   0  0  0  0  0  0  0  0  0  0  0  0
   58.0210   26.5250   45.6000 C   0  0  0  0  0  0  0  0  0  0  0  0
   59.0260   27.4070   45.1750 O   0  0  0  0  0  0  0  0  0  0  0  0
   59.3310   28.6230   45.8020 C   0  0  0  0  0  0  0  0  0  0  0  0
   60.4260   28.6600   46.6680 C   0  0  0  0  0  0  0  0  0  0  0  0
   60.7370   29.8250   47.3650 C   0  0  0  0  0  0  0  0  0  0  0  0
   59.9710   30.9820   47.1860 C   0  0  0  0  0  0  0  0  0  0  0  0
   60.3210   32.2050   47.9400 C   0  0  0  0  0  0  0  0  0  0  0  0
   61.3720   33.0110   47.4710 C   0  0  0  0  0  0  0  0  0  0  0  0
   61.7190   34.1840   48.1430 C   0  0  0  0  0  0  0  0  0  0  0  0
   61.0220   34.5640   49.2900 C   0  0  0  0  0  0  0  0  0  0  0  0
   59.9830   33.7680   49.7770 C   0  0  0  0  0  0  0  0  0  0  0  0
   59.6330   32.5740   49.1230 C   0  0  0  0  0  0  0  0  0  0  0  0
   58.5150   31.7320   49.6810 C   0  0  0  0  0  0  0  0  0  0  0  0
   58.9070   30.9850   46.2630 C   0  0  0  0  0  0  0  0  0  0  0  0
   58.2420   32.1910   46.0200 O   0  0  0  0  0  0  0  0  0  0  0  0
   58.5670   29.7930   45.5760 C   0  0  0  0  0  0  0  0  0  0  0  0
   57.4400   29.7620   44.6200 C   0  0  0  0  0  0  0  0  0  0  0  0
   57.5020   29.0430   43.5880 O   0  0  0  0  0  0  0  0  0  0  0  0
   56.2850   30.4940   44.8700 O   0  0  0  0  0  0  0  0  0  0  0  0
   58.3960   25.2710   46.0910 C   0  0  0  0  0  0  0  0  0  0  0  0
   57.4320   24.3580   46.5250 C   0  0  0  0  0  0  0  0  0  0  0  0
   57.8420   23.1220   47.0140 O   0  0  0  0  0  0  0  0  0  0  0  0
   53.1614   22.8816   46.2427 H   0  0  0  0  0  0  0  0  0  0  0  0
   53.8499   24.1752   45.2038 H   0  0  0  0  0  0  0  0  0  0  0  0
   54.5855   22.5364   45.2038 H   0  0  0  0  0  0  0  0  0  0  0  0
   54.4253   24.1927   47.7521 H   0  0  0  0  0  0  0  0  0  0  0  0
   55.5256   22.8192   47.3452 H   0  0  0  0  0  0  0  0  0  0  0  0
   56.3560   27.8628   45.2011 H   0  0  0  0  0  0  0  0  0  0  0  0
   61.0476   27.7622   46.8006 H   0  0  0  0  0  0  0  0  0  0  0  0
   61.5895   29.8355   48.0600 H   0  0  0  0  0  0  0  0  0  0  0  0
   61.9254   32.7153   46.5675 H   0  0  0  0  0  0  0  0  0  0  0  0
   62.5426   34.8092   47.7679 H   0  0  0  0  0  0  0  0  0  0  0  0
   61.2916   35.4936   49.8126 H   0  0  0  0  0  0  0  0  0  0  0  0
   59.4346   34.0776   50.6789 H   0  0  0  0  0  0  0  0  0  0  0  0
   58.5497   31.7582   50.7801 H   0  0  0  0  0  0  0  0  0  0  0  0
   57.5492   32.1290   49.3351 H   0  0  0  0  0  0  0  0  0  0  0  0
   58.6299   30.6941   49.3351 H   0  0  0  0  0  0  0  0  0  0  0  0
   57.3720   32.2570   45.5090 H   0  0  0  0  0  0  0  0  0  0  0  0
   59.4613   25.0004   46.1361 H   0  0  0  0  0  0  0  0  0  0  0  0
  1  2  1  0
  2  3  1  0
  3  4  2  0
  4  5  1  0
  4  6  1  0
  6  7  2  0
  7  8  1  0
  8  9  1  0
  9 10  2  0
 10 11  1  0
 11 12  2  0
 12 13  1  0
 13 14  2  0
 14 15  1  0
 15 16  2  0
 16 17  1  0
 17 18  2  0
 18 19  1  0
 12 20  1  0
 20 21  1  0
 20 22  2  0
 22 23  1  0
 23 24  2  0
 23 25  1  0
  7 26  1  0
 26 27  2  0
 27 28  1  0
 27  3  1  0
 22  9  1  0
 18 13  1  0
  1 29  1  0
  1 30  1  0
  1 31  1  0
  2 32  1  0
  2 33  1  0
  6 34  1  0
 10 35  1  0
 11 36  1  0
 14 37  1  0
 15 38  1  0
 16 39  1  0
 17 40  1  0
 19 41  1  0
 19 42  1  0
 19 43  1  0
 21 44  1  0
 26 45  1  0
M  CHG  3   5  -1  25  -1  28  -1
M  END
>  <UniqueID>  (78) 
74

>  <SMILES>  (78) 
CCc1c([O-])cc(Oc2ccc(-c3ccccc3C)c(O)c2C(=O)[O-])cc1[O-]

>  <Energy>  (78) 
68.85823743625836

>  <Genealogy>  (78) 
CCc1c([O-])cc(Oc2ccc(-c3ccccc3C)c(O)c2C(=O)[O-])cc1[O-] (protonated)
CCc1c([O-])cc(Oc2ccc(-c3ccccc3C)c(O)c2C(=O)[O-])cc1[O-] (3D coordinates assigned)
CCc1c([O-])cc(Oc2ccc(-c3ccccc3C)c(O)c2C(=O)[O-])cc1[O-] (optimized conformer: 68.85823743625836 kcal/mol)

>  <smiles>  (78) 
CCc1c(O)cc(Oc2ccc(-c3ccccc3C)c(O)c2C(=O)O)cc1O

>  <score_type>  (78) 
oracle

>  <origin>  (78) 
adg

>  <m_score__min__energy>  (78) 
-14.550000000000001

>  <m_primary>  (78) 
energy

$$$$
78:0
     RDKit          3D

 29 30  0  0  0  0  0  0  0  0999 V2000
   54.6890   26.3000   45.9780 O   0  0  0  0  0  0  0  0  0  0  0  0
   55.0540   25.0950   45.9760 C   0  0  0  0  0  0  0  0  0  0  0  0
   54.2380   24.1490   45.3660 O   0  0  0  0  0  0  0  0  0  0  0  0
   56.3480   24.7020   46.5930 C   0  0  0  0  0  0  0  0  0  0  0  0
   57.5210   25.2390   46.1930 C   0  0  0  0  0  0  0  0  0  0  0  0
   57.7830   25.7850   44.8430 C   0  0  0  0  0  0  0  0  0  0  0  0
   57.4990   24.9750   43.7330 C   0  0  0  0  0  0  0  0  0  0  0  0
   57.7520   25.4330   42.4380 C   0  0  0  0  0  0  0  0  0  0  0  0
   58.2810   26.7080   42.2380 C   0  0  0  0  0  0  0  0  0  0  0  0
   58.5420   27.5380   43.3310 C   0  0  0  0  0  0  0  0  0  0  0  0
   58.2740   27.1010   44.6380 C   0  0  0  0  0  0  0  0  0  0  0  0
   58.5260   28.0300   45.7590 C   0  0  0  0  0  0  0  0  0  0  0  0
   59.7980   27.8560   46.8460 S   0  0  0  0  0  0  0  0  0  0  0  0
   59.4060   29.1680   47.8170 C   0  0  0  0  0  0  0  0  0  0  0  0
   58.2720   29.7750   47.2930 C   0  0  0  0  0  0  0  0  0  0  0  0
   57.7780   29.1560   46.1320 C   0  0  0  0  0  0  0  0  0  0  0  0
   56.6360   29.7120   45.3770 C   0  0  0  0  0  0  0  0  0  0  0  0
   55.5900   29.0360   45.1960 O   0  0  0  0  0  0  0  0  0  0  0  0
   56.7220   30.9850   44.8260 O   0  0  0  0  0  0  0  0  0  0  0  0
   56.3510   23.7200   47.7050 C   0  0  0  0  0  0  0  0  0  0  0  0
   57.3910   23.0620   47.9760 O   0  0  0  0  0  0  0  0  0  0  0  0
   55.2060   23.5030   48.4640 O   0  0  0  0  0  0  0  0  0  0  0  0
   58.3418   25.2729   46.9246 H   0  0  0  0  0  0  0  0  0  0  0  0
   57.0739   23.9717   43.8839 H   0  0  0  0  0  0  0  0  0  0  0  0
   57.5338   24.7873   41.5746 H   0  0  0  0  0  0  0  0  0  0  0  0
   58.4931   27.0606   41.2179 H   0  0  0  0  0  0  0  0  0  0  0  0
   58.9608   28.5417   43.1663 H   0  0  0  0  0  0  0  0  0  0  0  0
   59.9535   29.4916   48.7145 H   0  0  0  0  0  0  0  0  0  0  0  0
   57.8027   30.6607   47.7460 H   0  0  0  0  0  0  0  0  0  0  0  0
  1  2  2  0
  2  3  1  0
  2  4  1  0
  4  5  2  3
  5  6  1  0
  6  7  2  0
  7  8  1  0
  8  9  2  0
  9 10  1  0
 10 11  2  0
 11 12  1  0
 12 13  1  0
 13 14  1  0
 14 15  2  0
 15 16  1  0
 16 17  1  0
 17 18  2  0
 17 19  1  0
  4 20  1  0
 20 21  2  0
 20 22  1  0
 11  6  1  0
 16 12  2  0
  5 23  1  0
  7 24  1  0
  8 25  1  0
  9 26  1  0
 10 27  1  0
 14 28  1  0
 15 29  1  0
M  CHG  3   3  -1  19  -1  22  -1
M  END
>  <UniqueID>  (79) 
75

>  <SMILES>  (79) 
O=C([O-])C(=Cc1ccccc1-c1sccc1C(=O)[O-])C(=O)[O-]

>  <Energy>  (79) 
73.60479154122628

>  <Genealogy>  (79) 
O=C([O-])C(=Cc1ccccc1-c1sccc1C(=O)[O-])C(=O)[O-] (protonated)
O=C([O-])C(=Cc1ccccc1-c1sccc1C(=O)[O-])C(=O)[O-] (3D coordinates assigned)
O=C([O-])C(=Cc1ccccc1-c1sccc1C(=O)[O-])C(=O)[O-] (optimized conformer: 73.60479154122628 kcal/mol)

>  <smiles>  (79) 
O=C(O)C(=Cc1ccccc1-c1sccc1C(=O)O)C(=O)O

>  <score_type>  (79) 
oracle

>  <origin>  (79) 
adg

>  <m_score__min__energy>  (79) 
-12.609999999999999

>  <m_primary>  (79) 
energy

$$$$
79:0
     RDKit          3D

 44 46  0  0  0  0  0  0  0  0999 V2000
   55.7570   23.8040   44.0150 C   0  0  0  0  0  0  0  0  0  0  0  0
   54.6620   23.0780   44.7470 C   0  0  0  0  0  0  0  0  0  0  0  0
   53.3980   23.5780   44.6620 N   0  0  0  0  0  0  0  0  0  0  0  0
   52.3490   22.9690   45.2720 C   0  0  0  0  0  0  0  0  0  0  0  0
   51.1890   23.4520   45.1630 O   0  0  0  0  0  0  0  0  0  0  0  0
   52.5450   21.8300   45.9850 N   0  0  0  0  0  0  0  0  0  0  0  0
   53.7830   21.2800   46.1050 C   0  0  0  0  0  0  0  0  0  0  0  0
   53.9110   20.2090   46.7580 O   0  0  0  0  0  0  0  0  0  0  0  0
   54.8970   21.8960   45.4930 C   0  0  0  0  0  0  0  0  0  0  0  0
   56.5180   21.1680   45.5830 S   0  0  0  0  0  0  0  0  0  0  0  0
   57.2250   21.2350   44.2570 O   0  0  0  0  0  0  0  0  0  0  0  0
   56.3760   19.7210   45.9630 O   0  0  0  0  0  0  0  0  0  0  0  0
   57.4390   22.0530   46.7600 N   0  0  0  0  0  0  0  0  0  0  0  0
   57.7330   23.4560   46.7410 C   0  0  0  0  0  0  0  0  0  0  0  0
   57.0970   24.3730   47.5940 C   0  0  0  0  0  0  0  0  0  0  0  0
   57.3800   25.7410   47.4940 C   0  0  0  0  0  0  0  0  0  0  0  0
   58.3140   26.2110   46.5560 C   0  0  0  0  0  0  0  0  0  0  0  0
   58.6040   27.6560   46.4180 C   0  0  0  0  0  0  0  0  0  0  0  0
   59.7990   28.0540   46.5040 O   0  0  0  0  0  0  0  0  0  0  0  0
   57.5500   28.6010   46.1710 N   0  0  0  0  0  0  0  0  0  0  0  0
   57.7920   29.9920   45.9010 C   0  0  0  0  0  0  0  0  0  0  0  0
   58.7850   30.6740   46.6290 C   0  0  0  0  0  0  0  0  0  0  0  0
   59.1070   31.9970   46.3280 C   0  0  0  0  0  0  0  0  0  0  0  0
   58.4510   32.6570   45.2880 C   0  0  0  0  0  0  0  0  0  0  0  0
   58.8650   34.3170   44.9070 Cl  0  0  0  0  0  0  0  0  0  0  0  0
   57.4670   31.9940   44.5500 C   0  0  0  0  0  0  0  0  0  0  0  0
   57.1200   30.6600   44.8430 C   0  0  0  0  0  0  0  0  0  0  0  0
   56.0370   30.0110   44.0590 C   0  0  0  0  0  0  0  0  0  0  0  0
   55.1560   29.0760   44.6850 N   0  0  0  0  0  0  0  0  0  0  0  0
   55.9000   30.2520   42.8300 O   0  0  0  0  0  0  0  0  0  0  0  0
   58.9900   25.2820   45.7450 C   0  0  0  0  0  0  0  0  0  0  0  0
   58.7030   23.9170   45.8430 C   0  0  0  0  0  0  0  0  0  0  0  0
   56.4447   24.2599   44.7425 H   0  0  0  0  0  0  0  0  0  0  0  0
   56.3099   23.0930   43.3836 H   0  0  0  0  0  0  0  0  0  0  0  0
   55.3173   24.5901   43.3836 H   0  0  0  0  0  0  0  0  0  0  0  0
   56.3746   24.0157   48.3427 H   0  0  0  0  0  0  0  0  0  0  0  0
   56.8663   26.4537   48.1559 H   0  0  0  0  0  0  0  0  0  0  0  0
   56.5630   28.2670   46.1300 H   0  0  0  0  0  0  0  0  0  0  0  0
   59.3129   30.1577   47.4444 H   0  0  0  0  0  0  0  0  0  0  0  0
   59.8788   32.5209   46.9109 H   0  0  0  0  0  0  0  0  0  0  0  0
   56.9567   32.5201   43.7298 H   0  0  0  0  0  0  0  0  0  0  0  0
   54.5330   29.3660   45.4720 H   0  0  0  0  0  0  0  0  0  0  0  0
   59.7489   25.6312   45.0294 H   0  0  0  0  0  0  0  0  0  0  0  0
   59.2441   23.1992   45.2090 H   0  0  0  0  0  0  0  0  0  0  0  0
  1  2  1  0
  2  3  1  0
  3  4  1  0
  4  5  2  0
  4  6  1  0
  6  7  1  0
  7  8  2  0
  7  9  1  0
  9 10  1  0
 10 11  2  0
 10 12  2  0
 10 13  1  0
 13 14  1  0
 14 15  2  0
 15 16  1  0
 16 17  2  0
 17 18  1  0
 18 19  2  0
 18 20  1  0
 20 21  1  0
 21 22  2  0
 22 23  1  0
 23 24  2  0
 24 25  1  0
 24 26  1  0
 26 27  2  0
 27 28  1  0
 28 29  1  0
 28 30  2  0
 17 31  1  0
 31 32  2  0
  9  2  2  0
 32 14  1  0
 27 21  1  0
  1 33  1  0
  1 34  1  0
  1 35  1  0
 15 36  1  0
 16 37  1  0
 20 38  1  0
 22 39  1  0
 23 40  1  0
 26 41  1  0
 29 42  1  0
 31 43  1  0
 32 44  1  0
M  CHG  4   3  -1   6  -1  13  -1  29  -1
M  END
>  <UniqueID>  (80) 
76

>  <SMILES>  (80) 
Cc1[n-]c(=O)[n-]c(=O)c1S(=O)(=O)[N-]c1ccc(C(=O)Nc2ccc(Cl)cc2C([NH-])=O)cc1

>  <Energy>  (80) 
68.10167367313703

>  <Genealogy>  (80) 
Cc1[n-]c(=O)[n-]c(=O)c1S(=O)(=O)[N-]c1ccc(C(=O)Nc2ccc(Cl)cc2C([NH-])=O)cc1 (protonated)
Cc1[n-]c(=O)[n-]c(=O)c1S(=O)(=O)[N-]c1ccc(C(=O)Nc2ccc(Cl)cc2C([NH-])=O)cc1 (3D coordinates assigned)
Cc1[n-]c(=O)[n-]c(=O)c1S(=O)(=O)[N-]c1ccc(C(=O)Nc2ccc(Cl)cc2C([NH-])=O)cc1 (optimized conformer: 68.10167367313703 kcal/mol)

>  <smiles>  (80) 
Cc1[nH]c(=O)[nH]c(=O)c1S(=O)(=O)Nc1ccc(C(=O)Nc2ccc(Cl)cc2C(N)=O)cc1

>  <score_type>  (80) 
oracle

>  <origin>  (80) 
adg

>  <m_score__min__energy>  (80) 
-15.890000000000001

>  <m_primary>  (80) 
energy

$$$$
80:0
     RDKit          3D

 40 43  0  0  0  0  0  0  0  0999 V2000
   57.2850   31.1230   43.2110 O   0  0  0  0  0  0  0  0  0  0  0  0
   57.2110   30.9920   44.4610 C   0  0  0  0  0  0  0  0  0  0  0  0
   56.9120   32.1550   45.2490 N   0  0  0  0  0  0  0  0  0  0  0  0
   57.8420   33.1810   45.6260 C   0  0  0  0  0  0  0  0  0  0  0  0
   58.1460   34.1740   44.6880 C   0  0  0  0  0  0  0  0  0  0  0  0
   59.1060   35.1500   44.9690 C   0  0  0  0  0  0  0  0  0  0  0  0
   59.7650   35.1530   46.1980 C   0  0  0  0  0  0  0  0  0  0  0  0
   59.4500   34.1940   47.1660 C   0  0  0  0  0  0  0  0  0  0  0  0
   60.0810   34.2210   48.3700 N   0  0  0  0  0  0  0  0  0  0  0  0
   59.7930   33.3250   49.3500 C   0  0  0  0  0  0  0  0  0  0  0  0
   58.8150   32.3520   49.1450 C   0  0  0  0  0  0  0  0  0  0  0  0
   58.1460   32.2980   47.9210 C   0  0  0  0  0  0  0  0  0  0  0  0
   58.4690   33.2070   46.8970 C   0  0  0  0  0  0  0  0  0  0  0  0
   57.4710   29.6660   45.0800 C   0  0  0  0  0  0  0  0  0  0  0  0
   58.7310   29.3600   45.4920 N   0  0  0  0  0  0  0  0  0  0  0  0
   59.0480   28.1780   46.0840 C   0  0  0  0  0  0  0  0  0  0  0  0
   60.4650   27.9190   46.4970 C   0  0  0  0  0  0  0  0  0  0  0  0
   60.6730   28.3790   47.8660 N   0  0  0  0  0  0  0  0  0  0  0  0
   61.0390   29.6110   48.1830 N   0  0  0  0  0  0  0  0  0  0  0  0
   61.0640   29.6770   49.5290 C   0  0  0  0  0  0  0  0  0  0  0  0
   61.4090   30.8170   50.2440 O   0  0  0  0  0  0  0  0  0  0  0  0
   60.6960   28.4690   50.0920 C   0  0  0  0  0  0  0  0  0  0  0  0
   60.4500   27.6770   48.9940 C   0  0  0  0  0  0  0  0  0  0  0  0
   60.0270   26.3540   49.0290 O   0  0  0  0  0  0  0  0  0  0  0  0
   58.0590   27.2040   46.2500 C   0  0  0  0  0  0  0  0  0  0  0  0
   56.7560   27.4760   45.8330 C   0  0  0  0  0  0  0  0  0  0  0  0
   56.4490   28.7090   45.2510 C   0  0  0  0  0  0  0  0  0  0  0  0
   55.1390   28.9680   44.8610 O   0  0  0  0  0  0  0  0  0  0  0  0
   57.6241   34.1865   43.7198 H   0  0  0  0  0  0  0  0  0  0  0  0
   59.3426   35.9184   44.2183 H   0  0  0  0  0  0  0  0  0  0  0  0
   60.5342   35.9112   46.4065 H   0  0  0  0  0  0  0  0  0  0  0  0
   60.3326   33.3671   50.3076 H   0  0  0  0  0  0  0  0  0  0  0  0
   58.5728   31.6329   49.9414 H   0  0  0  0  0  0  0  0  0  0  0  0
   57.3638   31.5423   47.7566 H   0  0  0  0  0  0  0  0  0  0  0  0
   60.6708   26.8400   46.4391 H   0  0  0  0  0  0  0  0  0  0  0  0
   61.1445   28.4626   45.8241 H   0  0  0  0  0  0  0  0  0  0  0  0
   61.6020   30.7640   51.2370 H   0  0  0  0  0  0  0  0  0  0  0  0
   60.6188   28.2055   51.1572 H   0  0  0  0  0  0  0  0  0  0  0  0
   58.3058   26.2333   46.7047 H   0  0  0  0  0  0  0  0  0  0  0  0
   55.9687   26.7187   45.9625 H   0  0  0  0  0  0  0  0  0  0  0  0
  1  2  2  0
  2  3  1  0
  3  4  1  0
  4  5  2  0
  5  6  1  0
  6  7  2  0
  7  8  1  0
  8  9  2  0
  9 10  1  0
 10 11  2  0
 11 12  1  0
 12 13  2  0
  2 14  1  0
 14 15  2  0
 15 16  1  0
 16 17  1  0
 17 18  1  0
 18 19  1  0
 19 20  2  0
 20 21  1  0
 20 22  1  0
 22 23  2  0
 23 24  1  0
 16 25  2  0
 25 26  1  0
 26 27  2  0
 27 28  1  0
 13  4  1  0
 27 14  1  0
 13  8  1  0
 23 18  1  0
  5 29  1  0
  6 30  1  0
  7 31  1  0
 10 32  1  0
 11 33  1  0
 12 34  1  0
 17 35  1  0
 17 36  1  0
 21 37  1  0
 22 38  1  0
 25 39  1  0
 26 40  1  0
M  CHG  3   3  -1  24  -1  28  -1
M  END
>  <UniqueID>  (81) 
77

>  <SMILES>  (81) 
O=C([N-]c1cccc2ncccc12)c1nc(Cn2nc(O)cc2[O-])ccc1[O-]

>  <Energy>  (81) 
86.65595294956117

>  <Genealogy>  (81) 
O=C([N-]c1cccc2ncccc12)c1nc(Cn2nc(O)cc2[O-])ccc1[O-] (protonated)
O=C([N-]c1cccc2ncccc12)c1nc(Cn2nc(O)cc2[O-])ccc1[O-] (3D coordinates assigned)
O=C([N-]c1cccc2ncccc12)c1nc(Cn2nc(O)cc2[O-])ccc1[O-] (optimized conformer: 86.65595294956117 kcal/mol)

>  <smiles>  (81) 
O=C(Nc1cccc2ncccc12)c1nc(Cn2nc(O)cc2O)ccc1O

>  <score_type>  (81) 
oracle

>  <origin>  (81) 
adg

>  <m_score__min__energy>  (81) 
-13.789999999999999

>  <m_primary>  (81) 
energy

$$$$
81:0
     RDKit          3D

 43 45  0  0  0  0  0  0  0  0999 V2000
   65.4300   33.0300   48.0450 H   0  0  0  0  0  0  0  0  0  0  0  0
   64.6270   33.1150   48.6560 O   0  0  0  0  0  0  0  0  0  0  0  0
   63.3280   33.1140   48.1550 C   0  0  0  0  0  0  0  0  0  0  0  0
   62.2980   32.4570   48.8410 C   0  0  0  0  0  0  0  0  0  0  0  0
   62.5126   31.9376   49.7866 H   0  0  0  0  0  0  0  0  0  0  0  0
   60.9970   32.4600   48.3260 C   0  0  0  0  0  0  0  0  0  0  0  0
   60.1885   31.9563   48.8762 H   0  0  0  0  0  0  0  0  0  0  0  0
   60.7190   33.1060   47.1050 C   0  0  0  0  0  0  0  0  0  0  0  0
   59.3910   33.1600   46.5580 N   0  0  0  0  0  0  0  0  0  0  0  0
   58.8690   32.3330   45.6950 C   0  0  0  0  0  0  0  0  0  0  0  0
   58.6680   31.0270   46.0090 N   0  0  0  0  0  0  0  0  0  0  0  0
   58.1490   30.1420   45.1190 C   0  0  0  0  0  0  0  0  0  0  0  0
   57.9260   28.7390   45.5360 C   0  0  0  0  0  0  0  0  0  0  0  0
   59.0330   27.9380   45.8560 C   0  0  0  0  0  0  0  0  0  0  0  0
   60.0474   28.3586   45.7914 H   0  0  0  0  0  0  0  0  0  0  0  0
   58.8580   26.6140   46.2550 C   0  0  0  0  0  0  0  0  0  0  0  0
   59.7333   25.9986   46.5102 H   0  0  0  0  0  0  0  0  0  0  0  0
   57.5770   26.0660   46.3320 C   0  0  0  0  0  0  0  0  0  0  0  0
   57.4458   25.0228   46.6553 H   0  0  0  0  0  0  0  0  0  0  0  0
   56.4540   26.8420   45.9980 C   0  0  0  0  0  0  0  0  0  0  0  0
   55.1210   26.3100   46.0480 N   0  0  0  0  0  0  0  0  0  0  0  0
   54.6660   24.6700   45.7160 S   0  0  0  0  0  0  0  0  0  0  0  0
   53.1980   24.5960   45.4010 O   0  0  0  0  0  0  0  0  0  0  0  0
   54.9400   23.8370   46.9360 O   0  0  0  0  0  0  0  0  0  0  0  0
   55.6260   24.0290   44.3610 C   0  0  0  0  0  0  0  0  0  0  0  0
   56.4803   23.4586   44.7544 H   0  0  0  0  0  0  0  0  0  0  0  0
   54.9967   23.3692   43.7456 H   0  0  0  0  0  0  0  0  0  0  0  0
   55.9942   24.8631   43.7456 H   0  0  0  0  0  0  0  0  0  0  0  0
   56.6330   28.1730   45.5890 C   0  0  0  0  0  0  0  0  0  0  0  0
   55.5200   28.9200   45.2100 O   0  0  0  0  0  0  0  0  0  0  0  0
   57.7990   30.5990   43.8400 C   0  0  0  0  0  0  0  0  0  0  0  0
   57.3486   29.9060   43.1142 H   0  0  0  0  0  0  0  0  0  0  0  0
   58.0160   31.9030   43.4930 N   0  0  0  0  0  0  0  0  0  0  0  0
   57.6380   32.3690   42.1530 C   0  0  0  0  0  0  0  0  0  0  0  0
   56.9473   33.2205   42.2422 H   0  0  0  0  0  0  0  0  0  0  0  0
   58.5393   32.6836   41.6064 H   0  0  0  0  0  0  0  0  0  0  0  0
   57.1442   31.5520   41.6064 H   0  0  0  0  0  0  0  0  0  0  0  0
   58.5450   32.7800   44.4040 C   0  0  0  0  0  0  0  0  0  0  0  0
   58.7370   33.9890   44.0910 O   0  0  0  0  0  0  0  0  0  0  0  0
   61.7490   33.7860   46.4420 C   0  0  0  0  0  0  0  0  0  0  0  0
   61.5339   34.3275   45.5090 H   0  0  0  0  0  0  0  0  0  0  0  0
   63.0480   33.7810   46.9580 C   0  0  0  0  0  0  0  0  0  0  0  0
   63.8531   34.3036   46.4206 H   0  0  0  0  0  0  0  0  0  0  0  0
  1  2  1  0
  2  3  1  0
  3  4  2  0
  4  5  1  0
  4  6  1  0
  6  7  1  0
  6  8  2  0
  8  9  1  0
  9 10  2  0
 10 11  1  0
 11 12  1  0
 12 13  1  0
 13 14  2  0
 14 15  1  0
 14 16  1  0
 16 17  1  0
 16 18  2  0
 18 19  1  0
 18 20  1  0
 20 21  1  0
 21 22  1  0
 22 23  2  0
 22 24  2  0
 22 25  1  0
 25 26  1  0
 25 27  1  0
 25 28  1  0
 20 29  2  0
 29 30  1  0
 12 31  2  0
 31 32  1  0
 31 33  1  0
 33 34  1  0
 34 35  1  0
 34 36  1  0
 34 37  1  0
 33 38  1  0
 38 39  2  0
  8 40  1  0
 40 41  1  0
 40 42  2  0
 42 43  1  0
 42  3  1  0
 38 10  1  0
 29 13  1  0
M  CHG  3  11  -1  21  -1  30  -1
M  END
>  <UniqueID>  (82) 
78

>  <SMILES>  (82) 
Cn1cc(-c2cccc([N-]S(C)(=O)=O)c2[O-])[n-]/c(=N\c2ccc(O)cc2)c1=O

>  <Energy>  (82) 
59.80739189466131

>  <Genealogy>  (82) 
Cn1cc(-c2cccc([N-]S(C)(=O)=O)c2[O-])[n-]c(=Nc2ccc(O)cc2)c1=O (protonated)
Cn1cc(-c2cccc([N-]S(C)(=O)=O)c2[O-])[n-]/c(=N\c2ccc(O)cc2)c1=O (cis-trans isomerization)
Cn1cc(-c2cccc([N-]S(C)(=O)=O)c2[O-])[n-]/c(=N\c2ccc(O)cc2)c1=O (3D coordinates assigned)
Cn1cc(-c2cccc([N-]S(C)(=O)=O)c2[O-])[n-]/c(=N\c2ccc(O)cc2)c1=O (optimized conformer: 59.80739189466131 kcal/mol)

>  <smiles>  (82) 
Cn1cc(-c2cccc(NS(C)(=O)=O)c2O)[nH]c(=Nc2ccc(O)cc2)c1=O

>  <score_type>  (82) 
oracle

>  <origin>  (82) 
adg

>  <m_score__min__energy>  (82) 
-15.44

>  <m_primary>  (82) 
energy

$$$$
82:0
     RDKit          3D

 37 39  0  0  0  0  0  0  0  0999 V2000
   58.1920   31.8270   47.8290 O   0  0  0  0  0  0  0  0  0  0  0  0
   58.9330   32.5200   47.0800 C   0  0  0  0  0  0  0  0  0  0  0  0
   58.4300   33.8210   46.5380 C   0  0  0  0  0  0  0  0  0  0  0  0
   57.1120   33.6130   45.7900 C   0  0  0  0  0  0  0  0  0  0  0  0
   57.4070   32.9030   44.1330 S   0  0  0  0  0  0  0  0  0  0  0  0
   56.8940   31.2460   44.5820 C   0  0  0  0  0  0  0  0  0  0  0  0
   55.6350   30.7900   44.4710 N   0  0  0  0  0  0  0  0  0  0  0  0
   55.6620   29.5350   44.8900 N   0  0  0  0  0  0  0  0  0  0  0  0
   56.9380   29.2740   45.2400 C   0  0  0  0  0  0  0  0  0  0  0  0
   57.4280   27.9790   45.7640 C   0  0  0  0  0  0  0  0  0  0  0  0
   58.8130   27.7860   45.9230 C   0  0  0  0  0  0  0  0  0  0  0  0
   59.3120   26.5710   46.4050 C   0  0  0  0  0  0  0  0  0  0  0  0
   61.0430   26.3400   46.5750 Cl  0  0  0  0  0  0  0  0  0  0  0  0
   58.4330   25.5390   46.7420 C   0  0  0  0  0  0  0  0  0  0  0  0
   57.0560   25.7200   46.6000 C   0  0  0  0  0  0  0  0  0  0  0  0
   56.5480   26.9310   46.1160 C   0  0  0  0  0  0  0  0  0  0  0  0
   55.1690   27.0770   45.9940 O   0  0  0  0  0  0  0  0  0  0  0  0
   57.7000   30.3260   45.0490 O   0  0  0  0  0  0  0  0  0  0  0  0
   60.2420   32.0630   46.7210 N   0  0  0  0  0  0  0  0  0  0  0  0
   61.4480   32.2960   47.4630 C   0  0  0  0  0  0  0  0  0  0  0  0
   62.3200   33.3490   47.1260 C   0  0  0  0  0  0  0  0  0  0  0  0
   63.5120   33.5310   47.8350 C   0  0  0  0  0  0  0  0  0  0  0  0
   63.8460   32.6670   48.8800 C   0  0  0  0  0  0  0  0  0  0  0  0
   65.3440   32.8980   49.7620 Cl  0  0  0  0  0  0  0  0  0  0  0  0
   62.9940   31.6080   49.2090 C   0  0  0  0  0  0  0  0  0  0  0  0
   61.8030   31.4160   48.5010 C   0  0  0  0  0  0  0  0  0  0  0  0
   60.7530   30.0740   48.9370 Cl  0  0  0  0  0  0  0  0  0  0  0  0
   58.2678   34.5219   47.3701 H   0  0  0  0  0  0  0  0  0  0  0  0
   59.1759   34.2291   45.8401 H   0  0  0  0  0  0  0  0  0  0  0  0
   56.4747   32.9270   46.3674 H   0  0  0  0  0  0  0  0  0  0  0  0
   56.6179   34.5886   45.6711 H   0  0  0  0  0  0  0  0  0  0  0  0
   59.5095   28.5977   45.6660 H   0  0  0  0  0  0  0  0  0  0  0  0
   58.8259   24.5834   47.1194 H   0  0  0  0  0  0  0  0  0  0  0  0
   56.3666   24.9065   46.8700 H   0  0  0  0  0  0  0  0  0  0  0  0
   62.0629   34.0310   46.3021 H   0  0  0  0  0  0  0  0  0  0  0  0
   64.1880   34.3569   47.5687 H   0  0  0  0  0  0  0  0  0  0  0  0
   63.2614   30.9235   50.0275 H   0  0  0  0  0  0  0  0  0  0  0  0
  1  2  2  0
  2  3  1  0
  3  4  1  0
  4  5  1  0
  5  6  1  0
  6  7  2  0
  7  8  1  0
  8  9  2  0
  9 10  1  0
 10 11  2  0
 11 12  1  0
 12 13  1  0
 12 14  2  0
 14 15  1  0
 15 16  2  0
 16 17  1  0
  9 18  1  0
  2 19  1  0
 19 20  1  0
 20 21  2  0
 21 22  1  0
 22 23  2  0
 23 24  1  0
 23 25  1  0
 25 26  2  0
 26 27  1  0
 18  6  1  0
 26 20  1  0
 16 10  1  0
  3 28  1  0
  3 29  1  0
  4 30  1  0
  4 31  1  0
 11 32  1  0
 14 33  1  0
 15 34  1  0
 21 35  1  0
 22 36  1  0
 25 37  1  0
M  CHG  2  17  -1  19  -1
M  END
>  <UniqueID>  (83) 
79

>  <SMILES>  (83) 
O=C(CCSc1nnc(-c2cc(Cl)ccc2[O-])o1)[N-]c1ccc(Cl)cc1Cl

>  <Energy>  (83) 
73.14952465654582

>  <Genealogy>  (83) 
O=C(CCSc1nnc(-c2cc(Cl)ccc2[O-])o1)[N-]c1ccc(Cl)cc1Cl (protonated)
O=C(CCSc1nnc(-c2cc(Cl)ccc2[O-])o1)[N-]c1ccc(Cl)cc1Cl (3D coordinates assigned)
O=C(CCSc1nnc(-c2cc(Cl)ccc2[O-])o1)[N-]c1ccc(Cl)cc1Cl (optimized conformer: 73.14952465654582 kcal/mol)

>  <smiles>  (83) 
O=C(CCSc1nnc(-c2cc(Cl)ccc2O)o1)Nc1ccc(Cl)cc1Cl

>  <score_type>  (83) 
oracle

>  <origin>  (83) 
adg

>  <m_score__min__energy>  (83) 
-13.859999999999999

>  <m_primary>  (83) 
energy

$$$$
83:0
     RDKit          3D

 34 36  0  0  0  0  0  0  0  0999 V2000
   61.2735   29.9370   46.0488 H   0  0  0  0  0  0  0  0  0  0  0  0
   60.3200   29.3890   46.0700 C   0  0  0  0  0  0  0  0  0  0  0  0
   59.7250   29.0700   47.2920 C   0  0  0  0  0  0  0  0  0  0  0  0
   60.2098   29.3680   48.2333 H   0  0  0  0  0  0  0  0  0  0  0  0
   58.5150   28.3730   47.3210 C   0  0  0  0  0  0  0  0  0  0  0  0
   58.0512   28.1245   48.2870 H   0  0  0  0  0  0  0  0  0  0  0  0
   57.8860   27.9870   46.1260 C   0  0  0  0  0  0  0  0  0  0  0  0
   56.6450   27.2730   46.1870 N   0  0  0  0  0  0  0  0  0  0  0  0
   56.1210   26.9950   45.3280 H   0  0  0  0  0  0  0  0  0  0  0  0
   56.2310   27.0080   47.1090 H   0  0  0  0  0  0  0  0  0  0  0  0
   58.4880   28.3160   44.8910 C   0  0  0  0  0  0  0  0  0  0  0  0
   57.7450   27.8550   43.3190 S   0  0  0  0  0  0  0  0  0  0  0  0
   57.0620   29.5160   43.0170 C   0  0  0  0  0  0  0  0  0  0  0  0
   57.8829   30.2462   42.9630 H   0  0  0  0  0  0  0  0  0  0  0  0
   56.5075   29.5184   42.0670 H   0  0  0  0  0  0  0  0  0  0  0  0
   56.1420   29.8830   44.1320 C   0  0  0  0  0  0  0  0  0  0  0  0
   55.4840   28.9790   44.7160 O   0  0  0  0  0  0  0  0  0  0  0  0
   56.0580   31.2530   44.5510 N   0  0  0  0  0  0  0  0  0  0  0  0
   57.0160   31.9550   45.0810 C   0  0  0  0  0  0  0  0  0  0  0  0
   57.7700   31.5350   46.1340 N   0  0  0  0  0  0  0  0  0  0  0  0
   58.6050   32.5740   46.3250 C   0  0  0  0  0  0  0  0  0  0  0  0
   59.6060   32.6970   47.2860 C   0  0  0  0  0  0  0  0  0  0  0  0
   59.8029   31.8916   48.0089 H   0  0  0  0  0  0  0  0  0  0  0  0
   60.3570   33.8880   47.3000 C   0  0  0  0  0  0  0  0  0  0  0  0
   61.1557   34.0223   48.0443 H   0  0  0  0  0  0  0  0  0  0  0  0
   60.0900   34.9130   46.3620 C   0  0  0  0  0  0  0  0  0  0  0  0
   60.6828   35.8394   46.3820 H   0  0  0  0  0  0  0  0  0  0  0  0
   59.0710   34.7560   45.4030 C   0  0  0  0  0  0  0  0  0  0  0  0
   58.8526   35.5440   44.6673 H   0  0  0  0  0  0  0  0  0  0  0  0
   58.3500   33.5640   45.4220 C   0  0  0  0  0  0  0  0  0  0  0  0
   57.3430   33.1880   44.6230 N   0  0  0  0  0  0  0  0  0  0  0  0
   56.9120   33.7210   43.8350 H   0  0  0  0  0  0  0  0  0  0  0  0
   59.7040   29.0120   44.8740 C   0  0  0  0  0  0  0  0  0  0  0  0
   60.1766   29.2631   43.9130 H   0  0  0  0  0  0  0  0  0  0  0  0
  1  2  1  0
  2  3  2  0
  3  4  1  0
  3  5  1  0
  5  6  1  0
  5  7  2  0
  7  8  1  0
  8  9  1  0
  8 10  1  0
  7 11  1  0
 11 12  1  0
 12 13  1  0
 13 14  1  0
 13 15  1  0
 13 16  1  0
 16 17  2  0
 16 18  1  0
 18 19  2  0
 19 20  1  0
 20 21  1  0
 21 22  2  0
 22 23  1  0
 22 24  1  0
 24 25  1  0
 24 26  2  0
 26 27  1  0
 26 28  1  0
 28 29  1  0
 28 30  2  0
 30 31  1  0
 31 32  1  0
 11 33  2  0
 33 34  1  0
 33  2  1  0
 31 19  1  0
 30 21  1  0
M  CHG  1  20  -1
M  END
>  <UniqueID>  (84) 
80

>  <SMILES>  (84) 
Nc1ccccc1SCC(=O)/N=c1\[n-]c2ccccc2[nH]1

>  <Energy>  (84) 
70.24460536393137

>  <Genealogy>  (84) 
Nc1ccccc1SCC(=O)N=c1[n-]c2ccccc2[nH]1 (protonated)
Nc1ccccc1SCC(=O)/N=c1\[n-]c2ccccc2[nH]1 (cis-trans isomerization)
Nc1ccccc1SCC(=O)/N=c1\[n-]c2ccccc2[nH]1 (3D coordinates assigned)
Nc1ccccc1SCC(=O)/N=c1\[n-]c2ccccc2[nH]1 (optimized conformer: 70.24460536393137 kcal/mol)

>  <smiles>  (84) 
Nc1ccccc1SCC(=O)N=c1[nH]c2ccccc2[nH]1

>  <score_type>  (84) 
oracle

>  <origin>  (84) 
adg

>  <m_score__min__energy>  (84) 
-9.9499999999999993

>  <m_primary>  (84) 
energy

$$$$
84:0
     RDKit          3D

 46 48  0  0  0  0  0  0  0  0999 V2000
   56.5730   30.4670   43.6480 C   0  0  0  0  0  0  0  0  0  0  0  0
   56.4540   31.2480   44.8330 O   0  0  0  0  0  0  0  0  0  0  0  0
   57.3550   32.2530   45.2130 C   0  0  0  0  0  0  0  0  0  0  0  0
   57.6200   33.3720   44.4000 C   0  0  0  0  0  0  0  0  0  0  0  0
   58.5290   34.3450   44.8190 C   0  0  0  0  0  0  0  0  0  0  0  0
   59.1920   34.2080   46.0400 C   0  0  0  0  0  0  0  0  0  0  0  0
   58.9520   33.0900   46.8540 C   0  0  0  0  0  0  0  0  0  0  0  0
   59.6910   32.9280   48.1590 C   0  0  0  0  0  0  0  0  0  0  0  0
   61.1430   32.9200   47.9650 N   0  0  0  0  0  0  0  0  0  0  0  0
   61.7980   31.3050   48.0080 S   0  0  0  0  0  0  0  0  0  0  0  0
   63.0070   31.1880   47.1200 O   0  0  0  0  0  0  0  0  0  0  0  0
   62.2110   30.9790   49.4170 O   0  0  0  0  0  0  0  0  0  0  0  0
   60.5520   30.1720   47.5000 C   0  0  0  0  0  0  0  0  0  0  0  0
   60.3170   29.9250   46.1410 C   0  0  0  0  0  0  0  0  0  0  0  0
   59.2570   29.1050   45.7470 C   0  0  0  0  0  0  0  0  0  0  0  0
   58.4230   28.5060   46.7080 C   0  0  0  0  0  0  0  0  0  0  0  0
   57.2990   27.6370   46.2780 C   0  0  0  0  0  0  0  0  0  0  0  0
   56.6780   27.9190   45.2190 O   0  0  0  0  0  0  0  0  0  0  0  0
   56.9260   26.4430   46.9870 N   0  0  0  0  0  0  0  0  0  0  0  0
   56.6140   25.2930   46.4640 C   0  0  0  0  0  0  0  0  0  0  0  0
   57.4640   24.2280   46.5450 N   0  0  0  0  0  0  0  0  0  0  0  0
   57.1570   23.0170   46.0110 C   0  0  0  0  0  0  0  0  0  0  0  0
   55.9360   22.8270   45.3650 C   0  0  0  0  0  0  0  0  0  0  0  0
   55.0390   23.8920   45.2770 C   0  0  0  0  0  0  0  0  0  0  0  0
   55.3720   25.1350   45.8290 C   0  0  0  0  0  0  0  0  0  0  0  0
   54.4820   26.2060   45.7480 O   0  0  0  0  0  0  0  0  0  0  0  0
   58.7000   28.7120   48.0710 C   0  0  0  0  0  0  0  0  0  0  0  0
   59.7430   29.5540   48.4620 C   0  0  0  0  0  0  0  0  0  0  0  0
   58.0150   32.1270   46.4420 C   0  0  0  0  0  0  0  0  0  0  0  0
   56.7336   29.4129   43.9182 H   0  0  0  0  0  0  0  0  0  0  0  0
   55.6508   30.5572   43.0553 H   0  0  0  0  0  0  0  0  0  0  0  0
   57.4265   30.8277   43.0553 H   0  0  0  0  0  0  0  0  0  0  0  0
   57.1091   33.4796   43.4318 H   0  0  0  0  0  0  0  0  0  0  0  0
   58.7236   35.2226   44.1850 H   0  0  0  0  0  0  0  0  0  0  0  0
   59.9054   34.9794   46.3654 H   0  0  0  0  0  0  0  0  0  0  0  0
   59.4254   33.7626   48.8245 H   0  0  0  0  0  0  0  0  0  0  0  0
   59.3997   31.9629   48.5992 H   0  0  0  0  0  0  0  0  0  0  0  0
   60.9701   30.3788   45.3810 H   0  0  0  0  0  0  0  0  0  0  0  0
   59.0732   28.9265   44.6773 H   0  0  0  0  0  0  0  0  0  0  0  0
   57.8727   22.1853   46.0884 H   0  0  0  0  0  0  0  0  0  0  0  0
   55.6829   21.8489   44.9299 H   0  0  0  0  0  0  0  0  0  0  0  0
   54.0703   23.7552   44.7740 H   0  0  0  0  0  0  0  0  0  0  0  0
   54.7600   27.1460   46.0020 H   0  0  0  0  0  0  0  0  0  0  0  0
   58.0908   28.2063   48.8346 H   0  0  0  0  0  0  0  0  0  0  0  0
   59.9303   29.7329   49.5311 H   0  0  0  0  0  0  0  0  0  0  0  0
   57.7978   31.2659   47.0911 H   0  0  0  0  0  0  0  0  0  0  0  0
  1  2  1  0
  2  3  1  0
  3  4  2  0
  4  5  1  0
  5  6  2  0
  6  7  1  0
  7  8  1  0
  8  9  1  0
  9 10  1  0
 10 11  2  0
 10 12  2  0
 10 13  1  0
 13 14  2  0
 14 15  1  0
 15 16  2  0
 16 17  1  0
 17 18  2  0
 17 19  1  0
 19 20  2  3
 20 21  1  0
 21 22  1  0
 22 23  2  0
 23 24  1  0
 24 25  2  0
 25 26  1  0
 16 27  1  0
 27 28  2  0
  7 29  2  0
 29  3  1  0
 28 13  1  0
 25 20  1  0
  1 30  1  0
  1 31  1  0
  1 32  1  0
  4 33  1  0
  5 34  1  0
  6 35  1  0
  8 36  1  0
  8 37  1  0
 14 38  1  0
 15 39  1  0
 22 40  1  0
 23 41  1  0
 24 42  1  0
 26 43  1  0
 27 44  1  0
 28 45  1  0
 29 46  1  0
M  CHG  2   9  -1  21  -1
M  END
>  <UniqueID>  (85) 
81

>  <SMILES>  (85) 
COc1cccc(C[N-]S(=O)(=O)c2ccc(C(=O)N=c3[n-]cccc3O)cc2)c1

>  <Energy>  (85) 
51.47653275231535

>  <Genealogy>  (85) 
COc1cccc(C[N-]S(=O)(=O)c2ccc(C(=O)N=c3[n-]cccc3O)cc2)c1 (protonated)
COc1cccc(C[N-]S(=O)(=O)c2ccc(C(=O)N=c3[n-]cccc3O)cc2)c1 (3D coordinates assigned)
COc1cccc(C[N-]S(=O)(=O)c2ccc(C(=O)N=c3[n-]cccc3O)cc2)c1 (optimized conformer: 51.47653275231535 kcal/mol)

>  <smiles>  (85) 
COc1cccc(CNS(=O)(=O)c2ccc(C(=O)N=c3[nH]cccc3O)cc2)c1

>  <score_type>  (85) 
oracle

>  <origin>  (85) 
adg

>  <m_score__min__energy>  (85) 
-11.98

>  <m_primary>  (85) 
energy

$$$$
85:0
     RDKit          3D

 61 65  0  0  0  0  0  0  0  0999 V2000
   58.6210   22.2070   44.4910 C   0  0  0  0  0  0  0  0  0  0  0  0
   56.8510   22.4040   44.4960 S   0  0  0  0  0  0  0  0  0  0  0  0
   56.2530   21.8100   43.2530 O   0  0  0  0  0  0  0  0  0  0  0  0
   56.2890   21.6880   45.6940 O   0  0  0  0  0  0  0  0  0  0  0  0
   56.4370   24.0850   44.6080 N   0  0  0  0  0  0  0  0  0  0  0  0
   57.0350   25.0380   45.4980 C   0  0  0  0  0  0  0  0  0  0  0  0
   57.5390   24.6800   46.7590 C   0  0  0  0  0  0  0  0  0  0  0  0
   58.1170   25.6440   47.5880 C   0  0  0  0  0  0  0  0  0  0  0  0
   58.2060   26.9830   47.1740 C   0  0  0  0  0  0  0  0  0  0  0  0
   57.6990   27.3380   45.9170 C   0  0  0  0  0  0  0  0  0  0  0  0
   57.1210   26.3730   45.0850 C   0  0  0  0  0  0  0  0  0  0  0  0
   57.7870   28.9990   45.4000 S   0  0  0  0  0  0  0  0  0  0  0  0
   58.5540   29.0920   44.1120 O   0  0  0  0  0  0  0  0  0  0  0  0
   56.4020   29.5550   45.2270 O   0  0  0  0  0  0  0  0  0  0  0  0
   58.6150   29.8810   46.6280 N   0  0  0  0  0  0  0  0  0  0  0  0
   59.0310   29.3480   47.7370 C   0  0  0  0  0  0  0  0  0  0  0  0
   59.7320   30.2310   48.7500 C   0  0  2  0  0  0  0  0  0  0  0  0
   58.9260   30.3400   50.0300 C   0  0  0  0  0  0  0  0  0  0  0  0
   58.1370   29.4540   50.3320 O   0  0  0  0  0  0  0  0  0  0  0  0
   59.1060   31.5100   50.9760 C   0  0  1  0  0  0  0  0  0  0  0  0
   59.4330   31.0070   52.4070 C   0  0  0  0  0  0  0  0  0  0  0  0
   60.2150   32.0300   53.2550 C   0  0  0  0  0  0  0  0  0  0  0  0
   59.8720   33.4710   52.8680 C   0  0  0  0  0  0  0  0  0  0  0  0
   60.1840   33.7700   51.3830 C   0  0  0  0  0  0  0  0  0  0  0  0
   60.1900   32.4980   50.4860 C   0  0  2  0  0  0  0  0  0  0  0  0
   60.0370   32.7580   49.0350 N   0  0  0  0  0  0  0  0  0  0  0  0
   60.0400   34.1080   48.4370 C   0  0  0  0  0  0  0  0  0  0  0  0
   59.1840   34.1640   47.1970 C   0  0  0  0  0  0  0  0  0  0  0  0
   59.6760   34.7460   46.0160 C   0  0  0  0  0  0  0  0  0  0  0  0
   58.8870   34.7740   44.8620 C   0  0  0  0  0  0  0  0  0  0  0  0
   57.6070   34.2170   44.8740 C   0  0  0  0  0  0  0  0  0  0  0  0
   57.1150   33.6230   46.0390 C   0  0  0  0  0  0  0  0  0  0  0  0
   57.9010   33.5910   47.1960 C   0  0  0  0  0  0  0  0  0  0  0  0
   60.0010   31.6010   48.1720 C   0  0  0  0  0  0  0  0  0  0  0  0
   60.2680   31.7160   46.9440 O   0  0  0  0  0  0  0  0  0  0  0  0
   58.8150   27.9540   48.0470 N   0  0  0  0  0  0  0  0  0  0  0  0
   58.9883   22.1661   45.5271 H   0  0  0  0  0  0  0  0  0  0  0  0
   58.8846   21.2740   43.9714 H   0  0  0  0  0  0  0  0  0  0  0  0
   59.0833   23.0592   43.9714 H   0  0  0  0  0  0  0  0  0  0  0  0
   57.4782   23.6345   47.0956 H   0  0  0  0  0  0  0  0  0  0  0  0
   58.5062   25.3517   48.5745 H   0  0  0  0  0  0  0  0  0  0  0  0
   56.7312   26.6654   44.0988 H   0  0  0  0  0  0  0  0  0  0  0  0
   60.6969   29.7628   48.9946 H   0  0  0  0  0  0  0  0  0  0  0  0
   58.1533   32.0595   50.9987 H   0  0  0  0  0  0  0  0  0  0  0  0
   58.4873   30.7795   52.9206 H   0  0  0  0  0  0  0  0  0  0  0  0
   60.0735   30.1192   52.2993 H   0  0  0  0  0  0  0  0  0  0  0  0
   59.9662   31.8775   54.3156 H   0  0  0  0  0  0  0  0  0  0  0  0
   61.2887   31.8741   53.0740 H   0  0  0  0  0  0  0  0  0  0  0  0
   58.7994   33.6390   53.0449 H   0  0  0  0  0  0  0  0  0  0  0  0
   60.4904   34.1410   53.4833 H   0  0  0  0  0  0  0  0  0  0  0  0
   59.4218   34.4641   50.9992 H   0  0  0  0  0  0  0  0  0  0  0  0
   61.1953   34.2009   51.3433 H   0  0  0  0  0  0  0  0  0  0  0  0
   61.1929   32.0590   50.5926 H   0  0  0  0  0  0  0  0  0  0  0  0
   59.6502   34.8262   49.1734 H   0  0  0  0  0  0  0  0  0  0  0  0
   61.0733   34.3588   48.1552 H   0  0  0  0  0  0  0  0  0  0  0  0
   60.6861   35.1813   45.9995 H   0  0  0  0  0  0  0  0  0  0  0  0
   59.2758   35.2360   43.9425 H   0  0  0  0  0  0  0  0  0  0  0  0
   56.9859   34.2457   43.9665 H   0  0  0  0  0  0  0  0  0  0  0  0
   56.1082   33.1799   46.0466 H   0  0  0  0  0  0  0  0  0  0  0  0
   57.5129   33.1153   48.1087 H   0  0  0  0  0  0  0  0  0  0  0  0
   59.1470   27.6150   48.9790 H   0  0  0  0  0  0  0  0  0  0  0  0
  1  2  1  0
  2  3  2  0
  2  4  2  0
  2  5  1  0
  5  6  1  0
  6  7  2  0
  7  8  1  0
  8  9  2  0
  9 10  1  0
 10 11  2  0
 10 12  1  0
 12 13  2  0
 12 14  2  0
 12 15  1  0
 15 16  2  0
 16 17  1  0
 17 18  1  0
 18 19  2  0
 18 20  1  0
 20 21  1  0
 21 22  1  0
 22 23  1  0
 23 24  1  0
 24 25  1  0
 25 26  1  0
 26 27  1  0
 27 28  1  0
 28 29  2  0
 29 30  1  0
 30 31  2  0
 31 32  1  0
 32 33  2  0
 26 34  1  0
 34 35  2  0
 16 36  1  0
 11  6  1  0
 34 17  1  0
 36  9  1  0
 25 20  1  0
 33 28  1  0
  1 37  1  0
  1 38  1  0
  1 39  1  0
  7 40  1  0
  8 41  1  0
 11 42  1  0
 17 43  1  1
 20 44  1  1
 21 45  1  0
 21 46  1  0
 22 47  1  0
 22 48  1  0
 23 49  1  0
 23 50  1  0
 24 51  1  0
 24 52  1  0
 25 53  1  6
 27 54  1  0
 27 55  1  0
 29 56  1  0
 30 57  1  0
 31 58  1  0
 32 59  1  0
 33 60  1  0
 36 61  1  0
M  CHG  1   5  -1
M  END
>  <UniqueID>  (86) 
82

>  <SMILES>  (86) 
CS(=O)(=O)[N-]c1ccc2c(c1)S(=O)(=O)N=C([C@@H]1C(=O)[C@H]3CCCCC3N(Cc3ccccc3)C1=O)N2

>  <Energy>  (86) 
79.10088456897508

>  <Genealogy>  (86) 
CS(=O)(=O)[N-]c1ccc2c(c1)S(=O)(=O)N=C(C1C(=O)C3CCCCC3N(Cc3ccccc3)C1=O)N2 (protonated)
CS(=O)(=O)[N-]c1ccc2c(c1)S(=O)(=O)N=C([C@@H]1C(=O)[C@H]3CCCCC3N(Cc3ccccc3)C1=O)N2 (chirality)
CS(=O)(=O)[N-]c1ccc2c(c1)S(=O)(=O)N=C([C@@H]1C(=O)[C@H]3CCCCC3N(Cc3ccccc3)C1=O)N2 (3D coordinates assigned)
CS(=O)(=O)[N-]c1ccc2c(c1)S(=O)(=O)N=C([C@@H]1C(=O)[C@H]3CCCCC3N(Cc3ccccc3)C1=O)N2 (nonaromatic ring conformer: 79.10088456897508 kcal/mol)

>  <smiles>  (86) 
CS(=O)(=O)Nc1ccc2c(c1)S(=O)(=O)N=C(C1C(=O)C3CCCCC3N(Cc3ccccc3)C1=O)N2

>  <score_type>  (86) 
oracle

>  <origin>  (86) 
adg

>  <m_score__min__energy>  (86) 
-11.85

>  <m_primary>  (86) 
energy

$$$$
86:0
     RDKit          3D

 43 45  0  0  0  0  0  0  0  0999 V2000
   61.0860   22.1210   44.9100 H   0  0  0  0  0  0  0  0  0  0  0  0
   60.3400   22.3530   45.5530 O   0  0  0  0  0  0  0  0  0  0  0  0
   59.0960   22.8140   45.1190 C   0  0  0  0  0  0  0  0  0  0  0  0
   58.3560   22.0340   44.2260 C   0  0  0  0  0  0  0  0  0  0  0  0
   58.7578   21.0722   43.8746 H   0  0  0  0  0  0  0  0  0  0  0  0
   57.1090   22.4720   43.7790 C   0  0  0  0  0  0  0  0  0  0  0  0
   56.5237   21.8605   43.0765 H   0  0  0  0  0  0  0  0  0  0  0  0
   56.6130   23.6940   44.2330 C   0  0  0  0  0  0  0  0  0  0  0  0
   55.6315   24.0514   43.8882 H   0  0  0  0  0  0  0  0  0  0  0  0
   57.3420   24.4430   45.1010 N   0  0  0  0  0  0  0  0  0  0  0  0
   58.5640   24.0430   45.5580 C   0  0  0  0  0  0  0  0  0  0  0  0
   59.2440   24.7800   46.3890 N   0  0  0  0  0  0  0  0  0  0  0  0
   59.8820   26.0410   46.1180 C   0  0  0  0  0  0  0  0  0  0  0  0
   61.1010   26.2160   46.3930 O   0  0  0  0  0  0  0  0  0  0  0  0
   59.1020   27.1440   45.5070 C   0  0  0  0  0  0  0  0  0  0  0  0
   58.5930   27.0210   44.2010 C   0  0  0  0  0  0  0  0  0  0  0  0
   58.7756   26.0997   43.6283 H   0  0  0  0  0  0  0  0  0  0  0  0
   57.8570   28.0610   43.6260 C   0  0  0  0  0  0  0  0  0  0  0  0
   57.4661   27.9545   42.6033 H   0  0  0  0  0  0  0  0  0  0  0  0
   57.6150   29.2370   44.3450 C   0  0  0  0  0  0  0  0  0  0  0  0
   56.6800   30.5330   43.6060 S   0  0  0  0  0  0  0  0  0  0  0  0
   55.5140   30.8400   44.5030 O   0  0  0  0  0  0  0  0  0  0  0  0
   56.1680   30.1140   42.2560 O   0  0  0  0  0  0  0  0  0  0  0  0
   57.6830   31.9430   43.4170 N   0  0  0  0  0  0  0  0  0  0  0  0
   58.0190   32.7610   44.5530 C   0  0  0  0  0  0  0  0  0  0  0  0
   58.9050   33.8460   44.4160 C   0  0  0  0  0  0  0  0  0  0  0  0
   59.3498   34.0683   43.4348 H   0  0  0  0  0  0  0  0  0  0  0  0
   59.2230   34.6430   45.5200 C   0  0  0  0  0  0  0  0  0  0  0  0
   59.9208   35.4857   45.4060 H   0  0  0  0  0  0  0  0  0  0  0  0
   58.6560   34.3710   46.7680 C   0  0  0  0  0  0  0  0  0  0  0  0
   58.9082   34.9985   47.6356 H   0  0  0  0  0  0  0  0  0  0  0  0
   57.7690   33.3020   46.9130 C   0  0  0  0  0  0  0  0  0  0  0  0
   57.3212   33.0899   47.8951 H   0  0  0  0  0  0  0  0  0  0  0  0
   57.4490   32.5010   45.8130 C   0  0  0  0  0  0  0  0  0  0  0  0
   56.7474   31.6624   45.9331 H   0  0  0  0  0  0  0  0  0  0  0  0
   58.1360   32.3210   42.0780 C   0  0  0  0  0  0  0  0  0  0  0  0
   58.9782   33.0238   42.1606 H   0  0  0  0  0  0  0  0  0  0  0  0
   58.4606   31.4221   41.5334 H   0  0  0  0  0  0  0  0  0  0  0  0
   57.3098   32.8013   41.5334 H   0  0  0  0  0  0  0  0  0  0  0  0
   58.1200   29.3680   45.6450 C   0  0  0  0  0  0  0  0  0  0  0  0
   57.9355   30.2912   46.2139 H   0  0  0  0  0  0  0  0  0  0  0  0
   58.8570   28.3310   46.2220 C   0  0  0  0  0  0  0  0  0  0  0  0
   59.2490   28.4432   47.2436 H   0  0  0  0  0  0  0  0  0  0  0  0
  1  2  1  0
  2  3  1  0
  3  4  2  0
  4  5  1  0
  4  6  1  0
  6  7  1  0
  6  8  2  0
  8  9  1  0
  8 10  1  0
 10 11  1  0
 11 12  2  0
 12 13  1  0
 13 14  2  0
 13 15  1  0
 15 16  2  0
 16 17  1  0
 16 18  1  0
 18 19  1  0
 18 20  2  0
 20 21  1  0
 21 22  2  0
 21 23  2  0
 21 24  1  0
 24 25  1  0
 25 26  2  0
 26 27  1  0
 26 28  1  0
 28 29  1  0
 28 30  2  0
 30 31  1  0
 30 32  1  0
 32 33  1  0
 32 34  2  0
 34 35  1  0
 24 36  1  0
 36 37  1  0
 36 38  1  0
 36 39  1  0
 20 40  1  0
 40 41  1  0
 40 42  2  0
 42 43  1  0
 11  3  1  0
 42 15  1  0
 34 25  1  0
M  CHG  1  10  -1
M  END
>  <UniqueID>  (87) 
83

>  <SMILES>  (87) 
CN(c1ccccc1)S(=O)(=O)c1ccc(C(=O)/N=c2\[n-]cccc2O)cc1

>  <Energy>  (87) 
54.981195510207684

>  <Genealogy>  (87) 
CN(c1ccccc1)S(=O)(=O)c1ccc(C(=O)N=c2[n-]cccc2O)cc1 (protonated)
CN(c1ccccc1)S(=O)(=O)c1ccc(C(=O)/N=c2\[n-]cccc2O)cc1 (cis-trans isomerization)
CN(c1ccccc1)S(=O)(=O)c1ccc(C(=O)/N=c2\[n-]cccc2O)cc1 (3D coordinates assigned)
CN(c1ccccc1)S(=O)(=O)c1ccc(C(=O)/N=c2\[n-]cccc2O)cc1 (optimized conformer: 54.981195510207684 kcal/mol)

>  <smiles>  (87) 
CN(c1ccccc1)S(=O)(=O)c1ccc(C(=O)N=c2[nH]cccc2O)cc1

>  <score_type>  (87) 
oracle

>  <origin>  (87) 
adg

>  <m_score__min__energy>  (87) 
-11.289999999999999

>  <m_primary>  (87) 
energy

$$$$
87:0
     RDKit          3D

 43 45  0  0  0  0  0  0  0  0999 V2000
   58.7240   33.2780   48.3240 O   0  0  0  0  0  0  0  0  0  0  0  0
   59.4320   32.9230   47.3420 C   0  0  0  0  0  0  0  0  0  0  0  0
   58.7720   32.5670   46.0680 C   0  0  0  0  0  0  0  0  0  0  0  0
   58.8370   33.4390   44.9680 C   0  0  0  0  0  0  0  0  0  0  0  0
   58.2330   33.0890   43.7580 C   0  0  0  0  0  0  0  0  0  0  0  0
   57.5560   31.8720   43.6350 C   0  0  0  0  0  0  0  0  0  0  0  0
   57.4620   31.0040   44.7330 C   0  0  0  0  0  0  0  0  0  0  0  0
   56.6340   29.4540   44.5850 S   0  0  0  0  0  0  0  0  0  0  0  0
   55.1490   29.6540   44.4870 O   0  0  0  0  0  0  0  0  0  0  0  0
   57.0900   28.7620   43.3300 O   0  0  0  0  0  0  0  0  0  0  0  0
   57.0450   28.4410   45.9350 N   0  0  0  0  0  0  0  0  0  0  0  0
   57.2590   27.0210   45.9150 C   0  0  0  0  0  0  0  0  0  0  0  0
   58.5470   26.4520   45.8780 C   0  0  0  0  0  0  0  0  0  0  0  0
   58.7050   25.0640   45.8590 C   0  0  0  0  0  0  0  0  0  0  0  0
   57.5850   24.2300   45.8840 C   0  0  0  0  0  0  0  0  0  0  0  0
   56.3050   24.7840   45.9350 C   0  0  0  0  0  0  0  0  0  0  0  0
   56.1400   26.1730   45.9570 C   0  0  0  0  0  0  0  0  0  0  0  0
   54.8580   26.7100   46.0110 O   0  0  0  0  0  0  0  0  0  0  0  0
   58.0580   31.3640   45.9480 C   0  0  0  0  0  0  0  0  0  0  0  0
   60.8640   32.8710   47.4830 N   0  0  0  0  0  0  0  0  0  0  0  0
   61.4480   32.5350   48.7880 C   0  0  0  0  0  0  0  0  0  0  0  0
   62.8520   31.9530   48.6040 C   0  0  0  0  0  0  0  0  0  0  0  0
   63.7860   32.9090   47.8380 C   0  0  0  0  0  0  0  0  0  0  0  0
   63.0450   33.8980   46.9170 C   0  0  0  0  0  0  0  0  0  0  0  0
   61.7320   33.3200   46.3800 C   0  0  0  0  0  0  0  0  0  0  0  0
   59.3649   34.3997   45.0600 H   0  0  0  0  0  0  0  0  0  0  0  0
   58.2903   33.7735   42.8988 H   0  0  0  0  0  0  0  0  0  0  0  0
   57.0960   31.5945   42.6751 H   0  0  0  0  0  0  0  0  0  0  0  0
   59.4330   27.1038   45.8640 H   0  0  0  0  0  0  0  0  0  0  0  0
   59.7139   24.6270   45.8243 H   0  0  0  0  0  0  0  0  0  0  0  0
   57.7116   23.1375   45.8635 H   0  0  0  0  0  0  0  0  0  0  0  0
   55.4234   24.1266   45.9580 H   0  0  0  0  0  0  0  0  0  0  0  0
   57.9658   30.6970   46.8179 H   0  0  0  0  0  0  0  0  0  0  0  0
   61.5093   33.4444   49.4038 H   0  0  0  0  0  0  0  0  0  0  0  0
   60.8116   31.7878   49.2847 H   0  0  0  0  0  0  0  0  0  0  0  0
   63.2852   31.7543   49.5954 H   0  0  0  0  0  0  0  0  0  0  0  0
   62.7585   31.0295   48.0137 H   0  0  0  0  0  0  0  0  0  0  0  0
   64.3675   33.4871   48.5712 H   0  0  0  0  0  0  0  0  0  0  0  0
   64.4225   32.2859   47.1926 H   0  0  0  0  0  0  0  0  0  0  0  0
   62.8223   34.8125   47.4862 H   0  0  0  0  0  0  0  0  0  0  0  0
   63.6966   34.1092   46.0563 H   0  0  0  0  0  0  0  0  0  0  0  0
   61.2074   34.0949   45.8017 H   0  0  0  0  0  0  0  0  0  0  0  0
   61.9644   32.4548   45.7417 H   0  0  0  0  0  0  0  0  0  0  0  0
  1  2  2  0
  2  3  1  0
  3  4  2  0
  4  5  1  0
  5  6  2  0
  6  7  1  0
  7  8  1  0
  8  9  2  0
  8 10  2  0
  8 11  1  0
 11 12  1  0
 12 13  2  0
 13 14  1  0
 14 15  2  0
 15 16  1  0
 16 17  2  0
 17 18  1  0
  7 19  2  0
  2 20  1  0
 20 21  1  0
 21 22  1  0
 22 23  1  0
 23 24  1  0
 24 25  1  0
 19  3  1  0
 25 20  1  0
 17 12  1  0
  4 26  1  0
  5 27  1  0
  6 28  1  0
 13 29  1  0
 14 30  1  0
 15 31  1  0
 16 32  1  0
 19 33  1  0
 21 34  1  0
 21 35  1  0
 22 36  1  0
 22 37  1  0
 23 38  1  0
 23 39  1  0
 24 40  1  0
 24 41  1  0
 25 42  1  0
 25 43  1  0
M  CHG  2  11  -1  18  -1
M  END
>  <UniqueID>  (88) 
84

>  <SMILES>  (88) 
O=C(c1cccc(S(=O)(=O)[N-]c2ccccc2[O-])c1)N1CCCCC1

>  <Energy>  (88) 
52.35218592166854

>  <Genealogy>  (88) 
O=C(c1cccc(S(=O)(=O)[N-]c2ccccc2[O-])c1)N1CCCCC1 (protonated)
O=C(c1cccc(S(=O)(=O)[N-]c2ccccc2[O-])c1)N1CCCCC1 (3D coordinates assigned)
O=C(c1cccc(S(=O)(=O)[N-]c2ccccc2[O-])c1)N1CCCCC1 (nonaromatic ring conformer: 52.35218592166854 kcal/mol)

>  <smiles>  (88) 
O=C(c1cccc(S(=O)(=O)Nc2ccccc2O)c1)N1CCCCC1

>  <score_type>  (88) 
oracle

>  <origin>  (88) 
adg

>  <m_score__min__energy>  (88) 
-14.880000000000001

>  <m_primary>  (88) 
energy

$$$$
88:0
     RDKit          3D

 65 68  0  0  0  0  0  0  0  0999 V2000
   59.9210   34.6030   48.9870 C   0  0  0  0  0  0  0  0  0  0  0  0
   59.3710   33.9310   47.7630 C   0  0  0  0  0  0  0  0  0  0  0  0
   59.2960   34.6320   46.5500 C   0  0  0  0  0  0  0  0  0  0  0  0
   58.8120   34.0010   45.3990 C   0  0  0  0  0  0  0  0  0  0  0  0
   58.4020   32.6610   45.4490 C   0  0  0  0  0  0  0  0  0  0  0  0
   57.7890   31.8660   44.0010 S   0  0  0  0  0  0  0  0  0  0  0  0
   57.3070   32.9030   43.0230 O   0  0  0  0  0  0  0  0  0  0  0  0
   58.8960   31.0690   43.3670 O   0  0  0  0  0  0  0  0  0  0  0  0
   56.4830   30.8140   44.4360 N   0  0  0  0  0  0  0  0  0  0  0  0
   56.6280   29.4080   44.6660 C   0  0  0  0  0  0  0  0  0  0  0  0
   55.6690   28.7790   45.1860 O   0  0  0  0  0  0  0  0  0  0  0  0
   57.8250   28.7120   44.2770 N   0  0  0  0  0  0  0  0  0  0  0  0
   58.2070   27.4200   44.7810 C   0  0  0  0  0  0  0  0  0  0  0  0
   59.2340   27.3300   45.7330 C   0  0  0  0  0  0  0  0  0  0  0  0
   59.5970   26.0910   46.2690 C   0  0  0  0  0  0  0  0  0  0  0  0
   58.9260   24.9320   45.8750 C   0  0  0  0  0  0  0  0  0  0  0  0
   57.8860   25.0080   44.9390 C   0  0  0  0  0  0  0  0  0  0  0  0
   57.0270   23.5570   44.4370 S   0  0  0  0  0  0  0  0  0  0  0  0
   56.6600   23.6340   42.9820 O   0  0  0  0  0  0  0  0  0  0  0  0
   57.9130   22.3620   44.6490 O   0  0  0  0  0  0  0  0  0  0  0  0
   55.5770   23.3910   45.3750 N   0  0  0  0  0  0  0  0  0  0  0  0
   54.3230   23.4220   44.8860 C   0  0  0  0  0  0  0  0  0  0  0  0
   53.4160   23.2990   45.9190 C   0  0  0  0  0  0  0  0  0  0  0  0
   54.1520   23.1910   47.0840 C   0  0  0  0  0  0  0  0  0  0  0  0
   55.4820   23.2550   46.7140 C   0  0  0  0  0  0  0  0  0  0  0  0
   56.6270   23.1640   47.6360 C   0  0  0  0  0  0  0  0  0  0  0  0
   57.0150   24.1980   48.2370 O   0  0  0  0  0  0  0  0  0  0  0  0
   57.3190   21.9300   47.8710 N   0  0  0  0  0  0  0  0  0  0  0  0
   56.8010   20.7990   48.6360 C   0  0  0  0  0  0  0  0  0  0  0  0
   57.1150   20.9630   50.1260 C   0  0  0  0  0  0  0  0  0  0  0  0
   57.8150   22.2250   50.3680 N   0  0  0  0  0  0  0  0  0  0  0  0
   58.8190   22.4240   51.3840 C   0  0  0  0  0  0  0  0  0  0  0  0
   59.7880   21.4440   51.6810 C   0  0  0  0  0  0  0  0  0  0  0  0
   60.7480   21.6760   52.6720 C   0  0  0  0  0  0  0  0  0  0  0  0
   60.7520   22.8850   53.3770 C   0  0  0  0  0  0  0  0  0  0  0  0
   59.8010   23.8650   53.0870 C   0  0  0  0  0  0  0  0  0  0  0  0
   58.8420   23.6380   52.0930 C   0  0  0  0  0  0  0  0  0  0  0  0
   57.5220   26.2510   44.4000 C   0  0  0  0  0  0  0  0  0  0  0  0
   58.5000   31.9520   46.6530 C   0  0  0  0  0  0  0  0  0  0  0  0
   58.9890   32.5820   47.8040 C   0  0  0  0  0  0  0  0  0  0  0  0
   59.5197   34.1126   49.8861 H   0  0  0  0  0  0  0  0  0  0  0  0
   61.0183   34.5256   48.9860 H   0  0  0  0  0  0  0  0  0  0  0  0
   59.6282   35.6633   48.9860 H   0  0  0  0  0  0  0  0  0  0  0  0
   59.6192   35.6824   46.5038 H   0  0  0  0  0  0  0  0  0  0  0  0
   58.7529   34.5576   44.4521 H   0  0  0  0  0  0  0  0  0  0  0  0
   58.4140   29.1280   43.5220 H   0  0  0  0  0  0  0  0  0  0  0  0
   59.7571   28.2408   46.0598 H   0  0  0  0  0  0  0  0  0  0  0  0
   60.4137   26.0291   47.0033 H   0  0  0  0  0  0  0  0  0  0  0  0
   59.2138   23.9588   46.2994 H   0  0  0  0  0  0  0  0  0  0  0  0
   54.0608   23.5292   43.8231 H   0  0  0  0  0  0  0  0  0  0  0  0
   52.3195   23.2889   45.8320 H   0  0  0  0  0  0  0  0  0  0  0  0
   53.7570   23.0767   48.1043 H   0  0  0  0  0  0  0  0  0  0  0  0
   55.7108   20.7410   48.5011 H   0  0  0  0  0  0  0  0  0  0  0  0
   57.2804   19.8778   48.2732 H   0  0  0  0  0  0  0  0  0  0  0  0
   56.1747   20.9558   50.6967 H   0  0  0  0  0  0  0  0  0  0  0  0
   57.7604   20.1319   50.4464 H   0  0  0  0  0  0  0  0  0  0  0  0
   57.5700   23.0330   49.7480 H   0  0  0  0  0  0  0  0  0  0  0  0
   59.7893   20.4916   51.1305 H   0  0  0  0  0  0  0  0  0  0  0  0
   61.5011   20.9066   52.8975 H   0  0  0  0  0  0  0  0  0  0  0  0
   61.5044   23.0630   54.1595 H   0  0  0  0  0  0  0  0  0  0  0  0
   59.8053   24.8160   53.6399 H   0  0  0  0  0  0  0  0  0  0  0  0
   58.0994   24.4166   51.8644 H   0  0  0  0  0  0  0  0  0  0  0  0
   56.6966   26.3124   43.6755 H   0  0  0  0  0  0  0  0  0  0  0  0
   58.1918   30.8969   46.6945 H   0  0  0  0  0  0  0  0  0  0  0  0
   59.0739   32.0168   48.7439 H   0  0  0  0  0  0  0  0  0  0  0  0
  1  2  1  0
  2  3  2  0
  3  4  1  0
  4  5  2  0
  5  6  1  0
  6  7  2  0
  6  8  2  0
  6  9  1  0
  9 10  1  0
 10 11  2  0
 10 12  1  0
 12 13  1  0
 13 14  2  0
 14 15  1  0
 15 16  2  0
 16 17  1  0
 17 18  1  0
 18 19  2  0
 18 20  2  0
 18 21  1  0
 21 22  1  0
 22 23  2  0
 23 24  1  0
 24 25  2  0
 25 26  1  0
 26 27  2  0
 26 28  1  0
 28 29  1  0
 29 30  1  0
 30 31  1  0
 31 32  1  0
 32 33  2  0
 33 34  1  0
 34 35  2  0
 35 36  1  0
 36 37  2  0
 17 38  2  0
  5 39  1  0
 39 40  2  0
 40  2  1  0
 38 13  1  0
 25 21  1  0
 37 32  1  0
  1 41  1  0
  1 42  1  0
  1 43  1  0
  3 44  1  0
  4 45  1  0
 12 46  1  0
 14 47  1  0
 15 48  1  0
 16 49  1  0
 22 50  1  0
 23 51  1  0
 24 52  1  0
 29 53  1  0
 29 54  1  0
 30 55  1  0
 30 56  1  0
 31 57  1  0
 33 58  1  0
 34 59  1  0
 35 60  1  0
 36 61  1  0
 37 62  1  0
 38 63  1  0
 39 64  1  0
 40 65  1  0
M  CHG  2   9  -1  28  -1
M  END
>  <UniqueID>  (89) 
85

>  <SMILES>  (89) 
Cc1ccc(S(=O)(=O)[N-]C(=O)Nc2cccc(S(=O)(=O)n3cccc3C(=O)[N-]CCNc3ccccc3)c2)cc1

>  <Energy>  (89) 
103.26455582695932

>  <Genealogy>  (89) 
Cc1ccc(S(=O)(=O)[N-]C(=O)Nc2cccc(S(=O)(=O)n3cccc3C(=O)[N-]CCNc3ccccc3)c2)cc1 (protonated)
Cc1ccc(S(=O)(=O)[N-]C(=O)Nc2cccc(S(=O)(=O)n3cccc3C(=O)[N-]CCNc3ccccc3)c2)cc1 (3D coordinates assigned)
Cc1ccc(S(=O)(=O)[N-]C(=O)Nc2cccc(S(=O)(=O)n3cccc3C(=O)[N-]CCNc3ccccc3)c2)cc1 (optimized conformer: 103.26455582695932 kcal/mol)

>  <smiles>  (89) 
Cc1ccc(S(=O)(=O)NC(=O)Nc2cccc(S(=O)(=O)n3cccc3C(=O)NCCNc3ccccc3)c2)cc1

>  <score_type>  (89) 
oracle

>  <origin>  (89) 
adg

>  <m_score__min__energy>  (89) 
-12.81

>  <m_primary>  (89) 
energy

$$$$
89:0
     RDKit          3D

 47 48  0  0  0  0  0  0  0  0999 V2000
   55.8720   25.5040   45.9700 C   0  0  0  0  0  0  0  0  0  0  0  0
   56.3260   26.8540   45.9800 O   0  0  0  0  0  0  0  0  0  0  0  0
   57.6570   27.2470   46.2020 C   0  0  0  0  0  0  0  0  0  0  0  0
   58.1460   27.5050   47.4980 C   0  0  0  0  0  0  0  0  0  0  0  0
   59.4680   27.9070   47.6890 C   0  0  0  0  0  0  0  0  0  0  0  0
   60.3200   28.0580   46.5940 C   0  0  0  0  0  0  0  0  0  0  0  0
   59.8510   27.8040   45.3050 C   0  0  0  0  0  0  0  0  0  0  0  0
   58.5230   27.3930   45.0950 C   0  0  0  0  0  0  0  0  0  0  0  0
   58.0370   27.1690   43.6770 C   0  0  0  0  0  0  0  0  0  0  0  0
   57.3880   28.3710   43.1270 N   0  0  0  0  0  0  0  0  0  0  0  0
   57.6570   29.5640   43.9480 C   0  0  0  0  0  0  0  0  0  0  0  0
   56.3870   30.1150   44.5180 C   0  0  0  0  0  0  0  0  0  0  0  0
   55.4020   29.3580   44.7330 O   0  0  0  0  0  0  0  0  0  0  0  0
   56.3200   31.5050   44.8420 N   0  0  0  0  0  0  0  0  0  0  0  0
   57.3430   32.4700   44.4750 C   0  0  0  0  0  0  0  0  0  0  0  0
   57.6940   33.3630   45.6760 C   0  0  0  0  0  0  0  0  0  0  0  0
   59.1030   33.2690   46.1250 N   0  0  0  0  0  0  0  0  0  0  0  0
   59.4830   32.0110   46.8080 C   0  0  0  0  0  0  0  0  0  0  0  0
   59.9410   32.2450   48.2530 C   0  0  0  0  0  0  0  0  0  0  0  0
   59.2110   33.3050   48.8250 O   0  0  0  0  0  0  0  0  0  0  0  0
   59.6170   34.5320   48.2500 C   0  0  0  0  0  0  0  0  0  0  0  0
   59.6740   34.5030   46.7020 C   0  0  0  0  0  0  0  0  0  0  0  0
   55.7528   25.1496   47.0045 H   0  0  0  0  0  0  0  0  0  0  0  0
   54.9050   25.4462   45.4489 H   0  0  0  0  0  0  0  0  0  0  0  0
   56.6076   24.8736   45.4489 H   0  0  0  0  0  0  0  0  0  0  0  0
   57.4802   27.3885   48.3658 H   0  0  0  0  0  0  0  0  0  0  0  0
   59.8398   28.1055   48.7050 H   0  0  0  0  0  0  0  0  0  0  0  0
   61.3614   28.3773   46.7474 H   0  0  0  0  0  0  0  0  0  0  0  0
   60.5262   27.9264   44.4453 H   0  0  0  0  0  0  0  0  0  0  0  0
   58.8966   26.9064   43.0429 H   0  0  0  0  0  0  0  0  0  0  0  0
   57.2959   26.3563   43.6931 H   0  0  0  0  0  0  0  0  0  0  0  0
   56.3540   28.2090   43.1080 H   0  0  0  0  0  0  0  0  0  0  0  0
   57.7110   28.5230   42.1420 H   0  0  0  0  0  0  0  0  0  0  0  0
   58.3328   29.2900   44.7716 H   0  0  0  0  0  0  0  0  0  0  0  0
   58.1203   30.3325   43.3118 H   0  0  0  0  0  0  0  0  0  0  0  0
   58.2455   31.9339   44.1461 H   0  0  0  0  0  0  0  0  0  0  0  0
   56.9606   33.1024   43.6603 H   0  0  0  0  0  0  0  0  0  0  0  0
   57.4920   34.4077   45.3971 H   0  0  0  0  0  0  0  0  0  0  0  0
   57.0757   33.0126   46.5156 H   0  0  0  0  0  0  0  0  0  0  0  0
   58.6131   31.3378   46.8179 H   0  0  0  0  0  0  0  0  0  0  0  0
   60.3268   31.5715   46.2559 H   0  0  0  0  0  0  0  0  0  0  0  0
   59.7749   31.3299   48.8403 H   0  0  0  0  0  0  0  0  0  0  0  0
   61.0107   32.5013   48.2553 H   0  0  0  0  0  0  0  0  0  0  0  0
   58.9052   35.3124   48.5572 H   0  0  0  0  0  0  0  0  0  0  0  0
   60.6380   34.7331   48.6066 H   0  0  0  0  0  0  0  0  0  0  0  0
   59.1101   35.3643   46.3146 H   0  0  0  0  0  0  0  0  0  0  0  0
   60.7343   34.5412   46.4117 H   0  0  0  0  0  0  0  0  0  0  0  0
  1  2  1  0
  2  3  1  0
  3  4  2  0
  4  5  1  0
  5  6  2  0
  6  7  1  0
  7  8  2  0
  8  9  1  0
  9 10  1  0
 10 11  1  0
 11 12  1  0
 12 13  2  0
 12 14  1  0
 14 15  1  0
 15 16  1  0
 16 17  1  0
 17 18  1  0
 18 19  1  0
 19 20  1  0
 20 21  1  0
 21 22  1  0
  8  3  1  0
 22 17  1  0
  1 23  1  0
  1 24  1  0
  1 25  1  0
  4 26  1  0
  5 27  1  0
  6 28  1  0
  7 29  1  0
  9 30  1  0
  9 31  1  0
 10 32  1  0
 10 33  1  0
 11 34  1  0
 11 35  1  0
 15 36  1  0
 15 37  1  0
 16 38  1  0
 16 39  1  0
 18 40  1  0
 18 41  1  0
 19 42  1  0
 19 43  1  0
 21 44  1  0
 21 45  1  0
 22 46  1  0
 22 47  1  0
M  CHG  2  10   1  14  -1
M  END
>  <UniqueID>  (90) 
86

>  <SMILES>  (90) 
COc1ccccc1C[NH2+]CC(=O)[N-]CCN1CCOCC1

>  <Energy>  (90) 
55.217979291632446

>  <Genealogy>  (90) 
COc1ccccc1C[NH2+]CC(=O)[N-]CCN1CCOCC1 (protonated)
COc1ccccc1C[NH2+]CC(=O)[N-]CCN1CCOCC1 (3D coordinates assigned)
COc1ccccc1C[NH2+]CC(=O)[N-]CCN1CCOCC1 (nonaromatic ring conformer: 55.217979291632446 kcal/mol)

>  <smiles>  (90) 
COc1ccccc1CNCC(=O)NCCN1CCOCC1

>  <score_type>  (90) 
oracle

>  <origin>  (90) 
adg

>  <m_score__min__energy>  (90) 
-6.7800000000000002

>  <m_primary>  (90) 
energy

$$$$
90:0
     RDKit          3D

 58 61  0  0  1  0  0  0  0  0999 V2000
   66.2450   31.5170   51.5420 C   0  0  0  0  0  0  0  0  0  0  0  0
   65.6040   32.2510   50.3940 C   0  0  0  0  0  0  0  0  0  0  0  0
   66.2710   33.1000   49.7330 O   0  0  0  0  0  0  0  0  0  0  0  0
   64.2430   31.9620   50.0840 N   0  0  0  0  0  0  0  0  0  0  0  0
   63.5500   32.6060   49.0140 C   0  0  0  0  0  0  0  0  0  0  0  0
   64.1380   32.8420   47.7930 C   0  0  0  0  0  0  0  0  0  0  0  0
   63.3930   33.4640   46.8330 C   0  0  0  0  0  0  0  0  0  0  0  0
   62.0920   33.8510   47.0620 C   0  0  0  0  0  0  0  0  0  0  0  0
   61.4620   33.6240   48.3000 C   0  0  0  0  0  0  0  0  0  0  0  0
   60.1060   34.0360   48.5950 C   0  0  0  0  0  0  0  0  0  0  0  0
   58.9760   33.7710   47.8890 N   0  0  0  0  0  0  0  0  0  0  0  0
   58.6580   33.4500   46.7430 C   0  0  0  0  0  0  0  0  0  0  0  0
   58.4310   34.4010   45.7850 C   0  0  0  0  0  0  0  0  0  0  0  0
   58.0790   34.0640   44.5160 C   0  0  0  0  0  0  0  0  0  0  0  0
   57.9640   32.7340   44.2410 N   0  0  0  0  0  0  0  0  0  0  0  0
   58.1830   31.7930   45.1700 C   0  0  0  0  0  0  0  0  0  0  0  0
   58.0550   30.4130   44.8530 N   0  0  0  0  0  0  0  0  0  0  0  0
   56.9820   29.8330   44.1110 C   0  0  0  0  0  0  0  0  0  0  0  0
   56.2320   28.9460   45.0760 C   0  0  0  0  0  0  0  0  0  0  0  0
   57.1020   28.0370   45.8720 C   0  0  0  0  0  0  0  0  0  0  0  0
   56.6520   26.6370   45.6340 C   0  0  0  0  0  0  0  0  0  0  0  0
   55.5020   26.2660   45.9870 O   0  0  0  0  0  0  0  0  0  0  0  0
   57.4750   25.6570   45.0090 N   0  0  0  0  0  0  0  0  0  0  0  0
   56.9850   24.3090   44.8040 C   0  0  0  0  0  0  0  0  0  0  0  0
   56.9600   23.7540   43.4010 C   0  0  0  0  0  0  0  0  0  0  0  0
   57.9680   23.2710   44.3980 C   0  0  0  0  0  0  0  0  0  0  0  0
   58.5630   28.1270   45.6370 C   0  0  0  0  0  0  0  0  0  0  0  0
   59.1050   29.4860   45.3170 C   0  0  0  0  0  0  0  0  0  0  0  0
   58.5260   32.1570   46.4030 N   0  0  0  0  0  0  0  0  0  0  0  0
   62.2480   32.9910   49.2490 C   0  0  0  0  0  0  0  0  0  0  0  0
   65.8810   31.9338   52.4927 H   0  0  0  0  0  0  0  0  0  0  0  0
   65.9846   30.4497   51.4860 H   0  0  0  0  0  0  0  0  0  0  0  0
   67.3376   31.6313   51.4860 H   0  0  0  0  0  0  0  0  0  0  0  0
   63.6840   31.2500   50.6400 H   0  0  0  0  0  0  0  0  0  0  0  0
   65.1769   32.5387   47.5962 H   0  0  0  0  0  0  0  0  0  0  0  0
   63.8447   33.6613   45.8496 H   0  0  0  0  0  0  0  0  0  0  0  0
   61.5311   34.3498   46.2579 H   0  0  0  0  0  0  0  0  0  0  0  0
   59.9062   33.6348   49.5996 H   0  0  0  0  0  0  0  0  0  0  0  0
   60.2030   35.1050   48.3547 H   0  0  0  0  0  0  0  0  0  0  0  0
   58.5360   35.4638   46.0484 H   0  0  0  0  0  0  0  0  0  0  0  0
   57.8955   34.8289   43.7470 H   0  0  0  0  0  0  0  0  0  0  0  0
   57.6920   32.5180   43.2570 H   0  0  0  0  0  0  0  0  0  0  0  0
   56.3187   30.6196   43.7221 H   0  0  0  0  0  0  0  0  0  0  0  0
   57.3549   29.2610   43.2485 H   0  0  0  0  0  0  0  0  0  0  0  0
   55.6749   29.5887   45.7736 H   0  0  0  0  0  0  0  0  0  0  0  0
   55.5751   28.3045   44.4703 H   0  0  0  0  0  0  0  0  0  0  0  0
   56.9809   28.3654   46.9148 H   0  0  0  0  0  0  0  0  0  0  0  0
   58.4370   25.9230   44.7010 H   0  0  0  0  0  0  0  0  0  0  0  0
   56.2408   24.4119   45.6075 H   0  0  0  0  0  0  0  0  0  0  0  0
   56.1389   23.0950   43.0825 H   0  0  0  0  0  0  0  0  0  0  0  0
   57.0041   24.1831   42.3891 H   0  0  0  0  0  0  0  0  0  0  0  0
   57.8899   22.2528   44.8067 H   0  0  0  0  0  0  0  0  0  0  0  0
   59.0654   23.1966   44.4143 H   0  0  0  0  0  0  0  0  0  0  0  0
   59.0704   27.7700   46.5454 H   0  0  0  0  0  0  0  0  0  0  0  0
   58.7520   27.5191   44.7399 H   0  0  0  0  0  0  0  0  0  0  0  0
   59.5704   29.9033   46.2221 H   0  0  0  0  0  0  0  0  0  0  0  0
   59.8373   29.3732   44.5040 H   0  0  0  0  0  0  0  0  0  0  0  0
   61.8117   32.7858   50.2377 H   0  0  0  0  0  0  0  0  0  0  0  0
  1  2  1  0
  2  3  2  0
  2  4  1  0
  4  5  1  0
  5  6  2  0
  6  7  1  0
  7  8  2  0
  8  9  1  0
  9 10  1  0
 10 11  1  0
 11 12  2  0
 12 13  1  0
 13 14  2  0
 14 15  1  0
 15 16  1  0
 16 17  1  0
 17 18  1  0
 18 19  1  0
 19 20  1  0
 20 21  1  0
 21 22  2  0
 21 23  1  0
 23 24  1  0
 24 25  1  0
 25 26  1  0
 20 27  1  0
 27 28  1  0
 16 29  2  0
  9 30  2  0
 30  5  1  0
 29 12  1  0
 28 17  1  0
 26 24  1  0
  1 31  1  0
  1 32  1  0
  1 33  1  0
  4 34  1  0
  6 35  1  0
  7 36  1  0
  8 37  1  0
 10 38  1  0
 10 39  1  0
 13 40  1  0
 14 41  1  0
 15 42  1  0
 18 43  1  0
 18 44  1  0
 19 45  1  0
 19 46  1  0
 20 47  1  0
 23 48  1  0
 24 49  1  0
 25 50  1  0
 25 51  1  0
 26 52  1  0
 26 53  1  0
 27 54  1  0
 27 55  1  0
 28 56  1  0
 28 57  1  0
 30 58  1  0
M  END
>  <smiles>  (91) 
CC(=O)Nc1cccc(CN=c2cc[nH]c(N3CCC(C(=O)NC4CC4)CC3)n2)c1

>  <score_type>  (91) 
oracle

>  <origin>  (91) 
adg

>  <m_score__min__energy>  (91) 
-9.3399999999999999

>  <m_primary>  (91) 
energy

$$$$
91:0
     RDKit          3D

 52 55  0  0  0  0  0  0  0  0999 V2000
   64.5280   33.1070   47.8930 N   0  0  0  0  0  0  0  0  0  0  0  0
   62.8110   33.0290   47.6910 S   0  0  0  0  0  0  0  0  0  0  0  0
   62.3990   34.1010   46.7210 O   0  0  0  0  0  0  0  0  0  0  0  0
   62.4430   31.6820   47.1380 O   0  0  0  0  0  0  0  0  0  0  0  0
   62.0040   33.2720   49.2500 C   0  0  0  0  0  0  0  0  0  0  0  0
   62.7910   33.3680   50.4080 C   0  0  0  0  0  0  0  0  0  0  0  0
   62.2030   33.6080   51.6510 C   0  0  0  0  0  0  0  0  0  0  0  0
   60.8200   33.7550   51.7530 C   0  0  0  0  0  0  0  0  0  0  0  0
   60.0200   33.6490   50.6150 C   0  0  0  0  0  0  0  0  0  0  0  0
   60.5950   33.3940   49.3590 C   0  0  0  0  0  0  0  0  0  0  0  0
   59.7000   33.2570   48.1920 C   0  0  0  0  0  0  0  0  0  0  0  0
   58.9410   32.0900   48.0130 C   0  0  0  0  0  0  0  0  0  0  0  0
   58.0930   31.9650   46.9090 C   0  0  0  0  0  0  0  0  0  0  0  0
   57.9770   33.0140   45.9830 C   0  0  0  0  0  0  0  0  0  0  0  0
   57.0980   32.8620   44.7730 C   0  0  0  0  0  0  0  0  0  0  0  0
   56.5220   31.5110   44.7500 N   0  0  0  0  0  0  0  0  0  0  0  0
   57.0830   30.6940   43.6640 C   0  0  0  0  0  0  0  0  0  0  0  0
   57.6660   29.3950   44.1710 C   0  0  0  0  0  0  0  0  0  0  0  0
   57.6470   28.2530   43.3610 C   0  0  0  0  0  0  0  0  0  0  0  0
   58.2060   27.0580   43.8180 C   0  0  0  0  0  0  0  0  0  0  0  0
   58.7930   26.9960   45.0830 C   0  0  0  0  0  0  0  0  0  0  0  0
   58.8350   28.1330   45.9100 C   0  0  0  0  0  0  0  0  0  0  0  0
   59.4730   28.0620   47.2510 C   0  0  0  0  0  0  0  0  0  0  0  0
   59.4280   29.0310   48.2530 C   0  0  0  0  0  0  0  0  0  0  0  0
   60.1330   28.6750   49.4100 C   0  0  0  0  0  0  0  0  0  0  0  0
   60.7390   27.4290   49.3370 C   0  0  0  0  0  0  0  0  0  0  0  0
   60.3980   26.7750   47.8290 S   0  0  0  0  0  0  0  0  0  0  0  0
   58.2620   29.3330   45.4410 C   0  0  0  0  0  0  0  0  0  0  0  0
   58.7370   34.1800   46.1630 C   0  0  0  0  0  0  0  0  0  0  0  0
   59.5850   34.3050   47.2670 C   0  0  0  0  0  0  0  0  0  0  0  0
   64.9490   33.0980   46.9360 H   0  0  0  0  0  0  0  0  0  0  0  0
   64.8220   32.2180   48.3580 H   0  0  0  0  0  0  0  0  0  0  0  0
   63.8825   33.2529   50.3354 H   0  0  0  0  0  0  0  0  0  0  0  0
   62.8312   33.6813   52.5510 H   0  0  0  0  0  0  0  0  0  0  0  0
   60.3594   33.9547   52.7317 H   0  0  0  0  0  0  0  0  0  0  0  0
   58.9297   33.7661   50.7020 H   0  0  0  0  0  0  0  0  0  0  0  0
   59.0138   31.2712   48.7439 H   0  0  0  0  0  0  0  0  0  0  0  0
   57.5140   31.0408   46.7650 H   0  0  0  0  0  0  0  0  0  0  0  0
   56.2878   33.6049   44.8132 H   0  0  0  0  0  0  0  0  0  0  0  0
   57.6968   33.0197   43.8639 H   0  0  0  0  0  0  0  0  0  0  0  0
   55.4850   31.5860   44.6250 H   0  0  0  0  0  0  0  0  0  0  0  0
   56.2843   30.4664   42.9427 H   0  0  0  0  0  0  0  0  0  0  0  0
   57.8948   31.2682   43.1935 H   0  0  0  0  0  0  0  0  0  0  0  0
   57.1902   28.2975   42.3613 H   0  0  0  0  0  0  0  0  0  0  0  0
   58.1838   26.1627   43.1793 H   0  0  0  0  0  0  0  0  0  0  0  0
   59.2268   26.0490   45.4364 H   0  0  0  0  0  0  0  0  0  0  0  0
   58.8900   29.9844   48.1450 H   0  0  0  0  0  0  0  0  0  0  0  0
   60.2000   29.3241   50.2956 H   0  0  0  0  0  0  0  0  0  0  0  0
   61.3375   26.9534   50.1280 H   0  0  0  0  0  0  0  0  0  0  0  0
   58.2821   30.2303   46.0769 H   0  0  0  0  0  0  0  0  0  0  0  0
   58.6650   34.9990   45.4322 H   0  0  0  0  0  0  0  0  0  0  0  0
   60.1644   35.2289   47.4110 H   0  0  0  0  0  0  0  0  0  0  0  0
  1  2  1  0
  2  3  2  0
  2  4  2  0
  2  5  1  0
  5  6  2  0
  6  7  1  0
  7  8  2  0
  8  9  1  0
  9 10  2  0
 10 11  1  0
 11 12  2  0
 12 13  1  0
 13 14  2  0
 14 15  1  0
 15 16  1  0
 16 17  1  0
 17 18  1  0
 18 19  2  0
 19 20  1  0
 20 21  2  0
 21 22  1  0
 22 23  1  0
 23 24  2  0
 24 25  1  0
 25 26  2  0
 26 27  1  0
 22 28  2  0
 14 29  1  0
 29 30  2  0
 10  5  1  0
 30 11  1  0
 28 18  1  0
 27 23  1  0
  1 31  1  0
  1 32  1  0
  6 33  1  0
  7 34  1  0
  8 35  1  0
  9 36  1  0
 12 37  1  0
 13 38  1  0
 15 39  1  0
 15 40  1  0
 16 41  1  0
 17 42  1  0
 17 43  1  0
 19 44  1  0
 20 45  1  0
 21 46  1  0
 24 47  1  0
 25 48  1  0
 26 49  1  0
 28 50  1  0
 29 51  1  0
 30 52  1  0
M  END
>  <UniqueID>  (92) 
87

>  <SMILES>  (92) 
NS(=O)(=O)c1ccccc1-c1ccc(CNCc2cccc(-c3cccs3)c2)cc1

>  <Energy>  (92) 
90.61523173901914

>  <Genealogy>  (92) 
NS(=O)(=O)c1ccccc1-c1ccc(CNCc2cccc(-c3cccs3)c2)cc1 (3D coordinates assigned)
NS(=O)(=O)c1ccccc1-c1ccc(CNCc2cccc(-c3cccs3)c2)cc1 (optimized conformer: 90.61523173901914 kcal/mol)

>  <smiles>  (92) 
NS(=O)(=O)c1ccccc1-c1ccc(CNCc2cccc(-c3cccs3)c2)cc1

>  <score_type>  (92) 
oracle

>  <origin>  (92) 
adg

>  <m_score__min__energy>  (92) 
-9.6300000000000008

>  <m_primary>  (92) 
energy

$$$$
92:0
     RDKit          3D

 47 49  0  0  0  0  0  0  0  0999 V2000
   59.4326   30.3550   48.2278 H   0  0  0  0  0  0  0  0  0  0  0  0
   59.0900   30.0250   47.2360 C   0  0  0  0  0  0  0  0  0  0  0  0
   59.2612   28.9878   46.9120 H   0  0  0  0  0  0  0  0  0  0  0  0
   58.4630   30.8880   46.4210 C   0  0  0  0  0  0  0  0  0  0  0  0
   57.9810   30.5930   45.1410 C   0  0  0  0  0  0  0  0  0  0  0  0
   57.9510   29.3920   44.5300 C   0  0  0  0  0  0  0  0  0  0  0  0
   58.3456   29.3181   43.5059 H   0  0  0  0  0  0  0  0  0  0  0  0
   57.4150   28.1680   45.1650 C   0  0  0  0  0  0  0  0  0  0  0  0
   56.0300   28.0080   45.3260 C   0  0  0  0  0  0  0  0  0  0  0  0
   55.1470   28.9760   44.8600 O   0  0  0  0  0  0  0  0  0  0  0  0
   55.5410   26.8960   45.9310 N   0  0  0  0  0  0  0  0  0  0  0  0
   56.3700   25.9310   46.4020 C   0  0  0  0  0  0  0  0  0  0  0  0
   55.8940   24.9070   46.9550 O   0  0  0  0  0  0  0  0  0  0  0  0
   57.7150   26.0730   46.2840 N   0  0  0  0  0  0  0  0  0  0  0  0
   58.2560   27.1680   45.6880 C   0  0  0  0  0  0  0  0  0  0  0  0
   59.5090   27.2820   45.6270 O   0  0  0  0  0  0  0  0  0  0  0  0
   57.5130   31.7870   44.6160 C   0  0  0  0  0  0  0  0  0  0  0  0
   57.0628   31.9362   43.6235 H   0  0  0  0  0  0  0  0  0  0  0  0
   57.7210   32.7520   45.5790 C   0  0  0  0  0  0  0  0  0  0  0  0
   57.4410   34.2120   45.3750 C   0  0  0  0  0  0  0  0  0  0  0  0
   57.3460   34.7072   46.3526 H   0  0  0  0  0  0  0  0  0  0  0  0
   58.2679   34.6687   44.8114 H   0  0  0  0  0  0  0  0  0  0  0  0
   56.5038   34.3304   44.8114 H   0  0  0  0  0  0  0  0  0  0  0  0
   58.2600   32.2060   46.6990 N   0  0  0  0  0  0  0  0  0  0  0  0
   58.6490   32.9510   47.9120 C   0  0  0  0  0  0  0  0  0  0  0  0
   58.3261   33.9966   47.8006 H   0  0  0  0  0  0  0  0  0  0  0  0
   58.1638   32.4625   48.7698 H   0  0  0  0  0  0  0  0  0  0  0  0
   60.1580   32.9300   48.1640 C   0  0  0  0  0  0  0  0  0  0  0  0
   61.0600   33.5560   47.2570 C   0  0  0  0  0  0  0  0  0  0  0  0
   60.5960   34.2100   45.9810 C   0  0  0  0  0  0  0  0  0  0  0  0
   59.9750   35.0853   46.2224 H   0  0  0  0  0  0  0  0  0  0  0  0
   61.4697   34.5307   45.3946 H   0  0  0  0  0  0  0  0  0  0  0  0
   60.0046   33.4913   45.3946 H   0  0  0  0  0  0  0  0  0  0  0  0
   62.4330   33.5900   47.5480 C   0  0  0  0  0  0  0  0  0  0  0  0
   63.1200   34.1058   46.8610 H   0  0  0  0  0  0  0  0  0  0  0  0
   62.9390   32.9790   48.6960 C   0  0  0  0  0  0  0  0  0  0  0  0
   64.4150   32.9900   48.9690 C   0  0  0  0  0  0  0  0  0  0  0  0
   64.5869   32.9913   50.0555 H   0  0  0  0  0  0  0  0  0  0  0  0
   64.8765   32.0953   48.5258 H   0  0  0  0  0  0  0  0  0  0  0  0
   64.8632   33.8915   48.5258 H   0  0  0  0  0  0  0  0  0  0  0  0
   62.0750   32.2830   49.5430 C   0  0  0  0  0  0  0  0  0  0  0  0
   62.4817   31.7618   50.4222 H   0  0  0  0  0  0  0  0  0  0  0  0
   60.6950   32.2380   49.2900 C   0  0  0  0  0  0  0  0  0  0  0  0
   59.8250   31.4520   50.2390 C   0  0  0  0  0  0  0  0  0  0  0  0
   60.0977   31.6983   51.2758 H   0  0  0  0  0  0  0  0  0  0  0  0
   58.7693   31.7087   50.0666 H   0  0  0  0  0  0  0  0  0  0  0  0
   59.9735   30.3758   50.0666 H   0  0  0  0  0  0  0  0  0  0  0  0
  1  2  1  0
  2  3  1  0
  2  4  2  0
  4  5  1  0
  5  6  2  0
  6  7  1  0
  6  8  1  0
  8  9  2  0
  9 10  1  0
  9 11  1  0
 11 12  1  0
 12 13  2  0
 12 14  1  0
 14 15  1  0
 15 16  2  0
  5 17  1  0
 17 18  1  0
 17 19  2  0
 19 20  1  0
 20 21  1  0
 20 22  1  0
 20 23  1  0
 19 24  1  0
 24 25  1  0
 25 26  1  0
 25 27  1  0
 25 28  1  0
 28 29  2  0
 29 30  1  0
 30 31  1  0
 30 32  1  0
 30 33  1  0
 29 34  1  0
 34 35  1  0
 34 36  2  0
 36 37  1  0
 37 38  1  0
 37 39  1  0
 37 40  1  0
 36 41  1  0
 41 42  1  0
 41 43  2  0
 43 44  1  0
 44 45  1  0
 44 46  1  0
 44 47  1  0
 24  4  1  0
 43 28  1  0
 15  8  1  0
M  CHG  3  10  -1  11  -1  14  -1
M  END
>  <UniqueID>  (93) 
88

>  <SMILES>  (93) 
C=c1/c(=C/c2c([O-])[n-]c(=O)[n-]c2=O)cc(C)n1Cc1c(C)cc(C)cc1C

>  <Energy>  (93) 
92.18050342975715

>  <Genealogy>  (93) 
C=c1c(=Cc2c([O-])[n-]c(=O)[n-]c2=O)cc(C)n1Cc1c(C)cc(C)cc1C (protonated)
C=c1/c(=C/c2c([O-])[n-]c(=O)[n-]c2=O)cc(C)n1Cc1c(C)cc(C)cc1C (cis-trans isomerization)
C=c1/c(=C/c2c([O-])[n-]c(=O)[n-]c2=O)cc(C)n1Cc1c(C)cc(C)cc1C (3D coordinates assigned)
C=c1/c(=C/c2c([O-])[n-]c(=O)[n-]c2=O)cc(C)n1Cc1c(C)cc(C)cc1C (optimized conformer: 92.18050342975715 kcal/mol)

>  <smiles>  (93) 
C=c1c(=Cc2c(O)[nH]c(=O)[nH]c2=O)cc(C)n1Cc1c(C)cc(C)cc1C

>  <score_type>  (93) 
oracle

>  <origin>  (93) 
adg

>  <m_score__min__energy>  (93) 
-16.32

>  <m_primary>  (93) 
energy

$$$$
93:0
     RDKit          3D

 22 24  0  0  0  0  0  0  0  0999 V2000
   56.2920   30.6780   44.4960 O   0  0  0  0  0  0  0  0  0  0  0  0
   57.3980   30.7750   45.0920 C   0  0  0  0  0  0  0  0  0  0  0  0
   58.0540   29.5950   45.5570 N   0  0  0  0  0  0  0  0  0  0  0  0
   59.3100   29.6800   46.2360 C   0  0  0  0  0  0  0  0  0  0  0  0
   60.0230   28.2920   46.7500 S   0  0  0  0  0  0  0  0  0  0  0  0
   59.9310   31.0180   46.4570 C   0  0  0  0  0  0  0  0  0  0  0  0
   61.1670   31.1550   47.1210 C   0  0  0  0  0  0  0  0  0  0  0  0
   61.7340   32.4140   47.3180 C   0  0  0  0  0  0  0  0  0  0  0  0
   61.0850   33.5590   46.8610 C   0  0  0  0  0  0  0  0  0  0  0  0
   59.8560   33.4560   46.1980 C   0  0  0  0  0  0  0  0  0  0  0  0
   59.2070   34.6120   45.7390 C   0  0  0  0  0  0  0  0  0  0  0  0
   57.9830   34.5150   45.0790 C   0  0  0  0  0  0  0  0  0  0  0  0
   57.3940   33.2690   44.8670 C   0  0  0  0  0  0  0  0  0  0  0  0
   58.0240   32.0960   45.3170 C   0  0  0  0  0  0  0  0  0  0  0  0
   59.2670   32.1810   45.9900 C   0  0  0  0  0  0  0  0  0  0  0  0
   57.6080   28.6640   45.3960 H   0  0  0  0  0  0  0  0  0  0  0  0
   61.6899   30.2594   47.4877 H   0  0  0  0  0  0  0  0  0  0  0  0
   62.6995   32.5035   47.8374 H   0  0  0  0  0  0  0  0  0  0  0  0
   61.5398   34.5476   47.0216 H   0  0  0  0  0  0  0  0  0  0  0  0
   59.6657   35.5986   45.9005 H   0  0  0  0  0  0  0  0  0  0  0  0
   57.4792   35.4260   44.7236 H   0  0  0  0  0  0  0  0  0  0  0  0
   56.4288   33.2036   44.3435 H   0  0  0  0  0  0  0  0  0  0  0  0
  1  2  2  0
  2  3  1  0
  3  4  1  0
  4  5  2  0
  4  6  1  0
  6  7  1  0
  7  8  2  0
  8  9  1  0
  9 10  2  0
 10 11  1  0
 11 12  2  0
 12 13  1  0
 13 14  2  0
 14 15  1  0
 14  2  1  0
 15  6  2  0
 15 10  1  0
  3 16  1  0
  7 17  1  0
  8 18  1  0
  9 19  1  0
 11 20  1  0
 12 21  1  0
 13 22  1  0
M  END
>  <UniqueID>  (94) 
89

>  <SMILES>  (94) 
O=C1NC(=S)c2cccc3cccc1c23

>  <Energy>  (94) 
30.819402249103263

>  <Genealogy>  (94) 
O=C1NC(=S)c2cccc3cccc1c23 (3D coordinates assigned)
O=C1NC(=S)c2cccc3cccc1c23 (nonaromatic ring conformer: 30.819402249103263 kcal/mol)

>  <smiles>  (94) 
O=C1NC(=S)c2cccc3cccc1c23

>  <score_type>  (94) 
oracle

>  <origin>  (94) 
adg

>  <m_score__min__energy>  (94) 
-6.4000000000000004

>  <m_primary>  (94) 
energy

$$$$
94:0
     RDKit          3D

 40 42  0  0  0  0  0  0  0  0999 V2000
   59.2740   33.9320   46.1100 O   0  0  0  0  0  0  0  0  0  0  0  0
   58.3560   33.1770   45.6900 C   0  0  0  0  0  0  0  0  0  0  0  0
   57.6890   33.4900   44.3860 C   0  0  0  0  0  0  0  0  0  0  0  0
   58.0610   32.2100   43.1400 S   0  0  0  0  0  0  0  0  0  0  0  0
   57.3060   30.8730   44.0640 C   0  0  0  0  0  0  0  0  0  0  0  0
   56.0300   30.8980   44.5070 N   0  0  0  0  0  0  0  0  0  0  0  0
   55.6840   29.7920   45.1610 N   0  0  0  0  0  0  0  0  0  0  0  0
   56.6860   28.8860   45.2320 C   0  0  0  0  0  0  0  0  0  0  0  0
   56.5940   27.7300   45.8190 N   0  0  0  0  0  0  0  0  0  0  0  0
   57.2630   26.5180   45.4260 C   0  0  0  0  0  0  0  0  0  0  0  0
   58.4950   26.5330   45.1570 O   0  0  0  0  0  0  0  0  0  0  0  0
   56.4920   25.2480   45.3380 C   0  0  0  0  0  0  0  0  0  0  0  0
   57.1510   24.0550   44.9780 C   0  0  0  0  0  0  0  0  0  0  0  0
   56.4500   22.8500   44.8900 C   0  0  0  0  0  0  0  0  0  0  0  0
   55.0820   22.8140   45.1590 C   0  0  0  0  0  0  0  0  0  0  0  0
   54.4120   23.9840   45.5170 C   0  0  0  0  0  0  0  0  0  0  0  0
   55.1030   25.1970   45.6090 C   0  0  0  0  0  0  0  0  0  0  0  0
   54.3960   26.3400   45.9720 O   0  0  0  0  0  0  0  0  0  0  0  0
   58.0810   29.4310   44.4650 S   0  0  0  0  0  0  0  0  0  0  0  0
   57.9060   32.0620   46.4770 N   0  0  0  0  0  0  0  0  0  0  0  0
   58.5420   31.6250   47.6900 C   0  0  0  0  0  0  0  0  0  0  0  0
   59.2420   30.4080   47.7520 C   0  0  0  0  0  0  0  0  0  0  0  0
   59.8340   29.9970   48.9480 C   0  0  0  0  0  0  0  0  0  0  0  0
   59.7230   30.7860   50.0950 C   0  0  0  0  0  0  0  0  0  0  0  0
   59.0080   31.9950   50.0600 C   0  0  0  0  0  0  0  0  0  0  0  0
   58.8830   32.8240   51.2800 C   0  0  0  0  0  0  0  0  0  0  0  0
   58.2460   32.3990   52.2800 O   0  0  0  0  0  0  0  0  0  0  0  0
   59.4660   34.0840   51.3390 O   0  0  0  0  0  0  0  0  0  0  0  0
   58.4140   32.4030   48.8510 C   0  0  0  0  0  0  0  0  0  0  0  0
   56.6009   33.5369   44.5403 H   0  0  0  0  0  0  0  0  0  0  0  0
   58.0675   34.4561   44.0209 H   0  0  0  0  0  0  0  0  0  0  0  0
   58.2298   24.0732   44.7639 H   0  0  0  0  0  0  0  0  0  0  0  0
   56.9782   21.9273   44.6079 H   0  0  0  0  0  0  0  0  0  0  0  0
   54.5319   21.8640   45.0889 H   0  0  0  0  0  0  0  0  0  0  0  0
   53.3330   23.9527   45.7284 H   0  0  0  0  0  0  0  0  0  0  0  0
   57.0020   31.6120   46.2080 H   0  0  0  0  0  0  0  0  0  0  0  0
   59.3239   29.7767   46.8549 H   0  0  0  0  0  0  0  0  0  0  0  0
   60.3897   29.0485   48.9869 H   0  0  0  0  0  0  0  0  0  0  0  0
   60.1983   30.4589   51.0316 H   0  0  0  0  0  0  0  0  0  0  0  0
   57.8429   33.3425   48.8157 H   0  0  0  0  0  0  0  0  0  0  0  0
  1  2  2  0
  2  3  1  0
  3  4  1  0
  4  5  1  0
  5  6  2  0
  6  7  1  0
  7  8  1  0
  8  9  2  3
  9 10  1  0
 10 11  2  0
 10 12  1  0
 12 13  2  0
 13 14  1  0
 14 15  2  0
 15 16  1  0
 16 17  2  0
 17 18  1  0
  8 19  1  0
  2 20  1  0
 20 21  1  0
 21 22  2  0
 22 23  1  0
 23 24  2  0
 24 25  1  0
 25 26  1  0
 26 27  2  0
 26 28  1  0
 25 29  2  0
 19  5  1  0
 29 21  1  0
 17 12  1  0
  3 30  1  0
  3 31  1  0
 13 32  1  0
 14 33  1  0
 15 34  1  0
 16 35  1  0
 20 36  1  0
 22 37  1  0
 23 38  1  0
 24 39  1  0
 29 40  1  0
M  CHG  3   7  -1  18  -1  28  -1
M  END
>  <UniqueID>  (95) 
90

>  <SMILES>  (95) 
O=C(CSc1n[n-]c(=NC(=O)c2ccccc2[O-])s1)Nc1cccc(C(=O)[O-])c1

>  <Energy>  (95) 
80.94535126247227

>  <Genealogy>  (95) 
O=C(CSc1n[n-]c(=NC(=O)c2ccccc2[O-])s1)Nc1cccc(C(=O)[O-])c1 (protonated)
O=C(CSc1n[n-]c(=NC(=O)c2ccccc2[O-])s1)Nc1cccc(C(=O)[O-])c1 (3D coordinates assigned)
O=C(CSc1n[n-]c(=NC(=O)c2ccccc2[O-])s1)Nc1cccc(C(=O)[O-])c1 (optimized conformer: 80.94535126247227 kcal/mol)

>  <smiles>  (95) 
O=C(CSc1n[nH]c(=NC(=O)c2ccccc2O)s1)Nc1cccc(C(=O)O)c1

>  <score_type>  (95) 
oracle

>  <origin>  (95) 
adg

>  <m_score__min__energy>  (95) 
-17.5

>  <m_primary>  (95) 
energy

$$$$
95:0
     RDKit          3D

 46 49  0  0  1  0  0  0  0  0999 V2000
   55.8600   29.3920   44.4280 C   0  0  0  0  0  0  0  0  0  0  0  0
   56.6110   30.6330   44.0890 C   0  0  0  0  0  0  0  0  0  0  0  0
   57.0170   30.9270   42.7990 C   0  0  0  0  0  0  0  0  0  0  0  0
   57.7130   32.0880   42.5170 C   0  0  0  0  0  0  0  0  0  0  0  0
   58.1210   32.3470   41.1230 C   0  0  0  0  0  0  0  0  0  0  0  0
   57.9870   32.9290   43.5410 N   0  0  0  0  0  0  0  0  0  0  0  0
   57.5970   32.6580   44.8050 C   0  0  0  0  0  0  0  0  0  0  0  0
   57.9510   33.7610   46.1700 S   0  0  0  0  0  0  0  0  0  0  0  0
   59.4460   33.1490   46.9410 C   0  0  0  0  0  0  0  0  0  0  0  0
   59.3920   32.0530   47.7110 N   0  0  0  0  0  0  0  0  0  0  0  0
   60.4490   31.5300   48.3220 C   0  0  0  0  0  0  0  0  0  0  0  0
   60.3180   30.5300   49.0480 N   0  0  0  0  0  0  0  0  0  0  0  0
   60.1910   29.1690   48.8370 C   0  0  0  0  0  0  0  0  0  0  0  0
   59.7160   28.7240   47.5000 C   0  0  0  0  0  0  0  0  0  0  0  0
   58.5830   27.9090   47.3500 C   0  0  0  0  0  0  0  0  0  0  0  0
   58.1540   27.4960   46.0940 C   0  0  0  0  0  0  0  0  0  0  0  0
   58.8080   27.8600   44.9410 C   0  0  0  0  0  0  0  0  0  0  0  0
   58.2300   27.3160   43.3850 Cl  0  0  0  0  0  0  0  0  0  0  0  0
   59.9190   28.6580   45.0700 C   0  0  0  0  0  0  0  0  0  0  0  0
   60.3380   29.0620   46.3140 C   0  0  0  0  0  0  0  0  0  0  0  0
   61.6900   32.1030   48.1890 C   0  0  0  0  0  0  0  0  0  0  0  0
   62.7630   31.5560   48.8090 C   0  0  0  0  0  0  0  0  0  0  0  0
   63.9990   32.2190   48.6100 C   0  0  0  0  0  0  0  0  0  0  0  0
   64.0180   33.3280   47.8290 C   0  0  0  0  0  0  0  0  0  0  0  0
   62.9180   33.8710   47.2020 C   0  0  0  0  0  0  0  0  0  0  0  0
   61.7280   33.2380   47.3900 C   0  0  0  0  0  0  0  0  0  0  0  0
   60.6410   33.7460   46.7850 N   0  0  0  0  0  0  0  0  0  0  0  0
   56.9170   31.5160   45.0550 N   0  0  0  0  0  0  0  0  0  0  0  0
   55.7973   29.2885   45.5213 H   0  0  0  0  0  0  0  0  0  0  0  0
   54.8456   29.4506   44.0065 H   0  0  0  0  0  0  0  0  0  0  0  0
   56.3824   28.5206   44.0065 H   0  0  0  0  0  0  0  0  0  0  0  0
   56.7822   30.2256   41.9848 H   0  0  0  0  0  0  0  0  0  0  0  0
   59.0497   32.9365   41.1163 H   0  0  0  0  0  0  0  0  0  0  0  0
   58.2901   31.3905   40.6067 H   0  0  0  0  0  0  0  0  0  0  0  0
   57.3274   32.9071   40.6067 H   0  0  0  0  0  0  0  0  0  0  0  0
   61.1795   28.7159   49.0033 H   0  0  0  0  0  0  0  0  0  0  0  0
   59.4038   28.8489   49.5355 H   0  0  0  0  0  0  0  0  0  0  0  0
   58.0244   27.5913   48.2428 H   0  0  0  0  0  0  0  0  0  0  0  0
   57.2618   26.8568   46.0203 H   0  0  0  0  0  0  0  0  0  0  0  0
   60.4743   28.9741   44.1746 H   0  0  0  0  0  0  0  0  0  0  0  0
   61.2324   29.7000   46.3697 H   0  0  0  0  0  0  0  0  0  0  0  0
   62.6796   30.6516   49.4295 H   0  0  0  0  0  0  0  0  0  0  0  0
   64.9212   31.8436   49.0776 H   0  0  0  0  0  0  0  0  0  0  0  0
   64.9851   33.8320   47.6854 H   0  0  0  0  0  0  0  0  0  0  0  0
   62.9978   34.7738   46.5787 H   0  0  0  0  0  0  0  0  0  0  0  0
   60.6840   34.6030   46.1850 H   0  0  0  0  0  0  0  0  0  0  0  0
  1  2  1  0
  2  3  2  0
  3  4  1  0
  4  5  1  0
  4  6  2  0
  6  7  1  0
  7  8  1  0
  8  9  1  0
  9 10  2  0
 10 11  1  0
 11 12  2  0
 12 13  1  0
 13 14  1  0
 14 15  2  0
 15 16  1  0
 16 17  2  0
 17 18  1  0
 17 19  1  0
 19 20  2  0
 11 21  1  0
 21 22  2  0
 22 23  1  0
 23 24  2  0
 24 25  1  0
 25 26  2  0
 26 27  1  0
  7 28  2  0
 28  2  1  0
 27  9  1  0
 20 14  1  0
 26 21  1  0
  1 29  1  0
  1 30  1  0
  1 31  1  0
  3 32  1  0
  5 33  1  0
  5 34  1  0
  5 35  1  0
 13 36  1  0
 13 37  1  0
 15 38  1  0
 16 39  1  0
 19 40  1  0
 20 41  1  0
 22 42  1  0
 23 43  1  0
 24 44  1  0
 25 45  1  0
 27 46  1  0
M  END
>  <smiles>  (96) 
Cc1cc(C)nc(Sc2nc(=NCc3ccc(Cl)cc3)c3ccccc3[nH]2)n1

>  <score_type>  (96) 
oracle

>  <origin>  (96) 
adg

>  <m_score__min__energy>  (96) 
-9.4100000000000001

>  <m_primary>  (96) 
energy

$$$$
