0:0
     RDKit          3D

 51 53  0  0  0  0  0  0  0  0999 V2000
   57.1240   24.8100   47.7830 C   0  0  0  0  0  0  0  0  0  0  0  0
   57.0230   25.7860   46.6890 N   0  0  0  0  0  0  0  0  0  0  0  0
   56.1630   25.2440   45.6250 C   0  0  0  0  0  0  0  0  0  0  0  0
   58.3690   26.0970   46.1640 C   0  0  0  0  0  0  0  0  0  0  0  0
   58.4320   27.5190   45.6720 C   0  0  0  0  0  0  0  0  0  0  0  0
   57.5040   27.9920   44.7400 C   0  0  0  0  0  0  0  0  0  0  0  0
   57.5640   29.3120   44.2910 C   0  0  0  0  0  0  0  0  0  0  0  0
   56.2760   29.9040   42.9960 Br  0  0  0  0  0  0  0  0  0  0  0  0
   58.5500   30.1910   44.7740 C   0  0  0  0  0  0  0  0  0  0  0  0
   58.5330   31.5060   44.2710 O   0  0  0  0  0  0  0  0  0  0  0  0
   57.7200   32.5820   44.7360 C   0  0  0  0  0  0  0  0  0  0  0  0
   58.3640   33.1920   45.9470 C   0  0  0  0  0  0  0  0  0  0  0  0
   58.2820   32.5620   47.2000 C   0  0  0  0  0  0  0  0  0  0  0  0
   58.8800   33.1450   48.3220 C   0  0  0  0  0  0  0  0  0  0  0  0
   59.5660   34.3580   48.2000 C   0  0  0  0  0  0  0  0  0  0  0  0
   60.1400   34.9220   49.2900 F   0  0  0  0  0  0  0  0  0  0  0  0
   59.6570   34.9860   46.9550 C   0  0  0  0  0  0  0  0  0  0  0  0
   59.0620   34.4040   45.8310 C   0  0  0  0  0  0  0  0  0  0  0  0
   59.4950   29.7210   45.7220 C   0  0  0  0  0  0  0  0  0  0  0  0
   60.4900   30.5860   46.2060 O   0  0  0  0  0  0  0  0  0  0  0  0
   61.1420   30.4910   47.4740 C   0  0  0  0  0  0  0  0  0  0  0  0
   62.0530   31.6690   47.6980 C   0  0  0  0  0  0  0  0  0  0  0  0
   62.8510   31.7360   48.8540 C   0  0  0  0  0  0  0  0  0  0  0  0
   63.7040   32.8250   49.0600 C   0  0  0  0  0  0  0  0  0  0  0  0
   63.7720   33.8490   48.1120 C   0  0  0  0  0  0  0  0  0  0  0  0
   62.9910   33.7840   46.9540 C   0  0  0  0  0  0  0  0  0  0  0  0
   62.1370   32.6960   46.7440 C   0  0  0  0  0  0  0  0  0  0  0  0
   59.4160   28.3840   46.1630 C   0  0  0  0  0  0  0  0  0  0  0  0
   57.0697   25.3344   48.7484 H   0  0  0  0  0  0  0  0  0  0  0  0
   56.2956   24.0901   47.7097 H   0  0  0  0  0  0  0  0  0  0  0  0
   58.0823   24.2750   47.7097 H   0  0  0  0  0  0  0  0  0  0  0  0
   55.3143   24.7091   46.0763 H   0  0  0  0  0  0  0  0  0  0  0  0
   55.7870   26.0687   45.0017 H   0  0  0  0  0  0  0  0  0  0  0  0
   56.7448   24.5490   45.0017 H   0  0  0  0  0  0  0  0  0  0  0  0
   59.1101   25.9587   46.9651 H   0  0  0  0  0  0  0  0  0  0  0  0
   58.5859   25.4216   45.3233 H   0  0  0  0  0  0  0  0  0  0  0  0
   56.7216   27.3197   44.3581 H   0  0  0  0  0  0  0  0  0  0  0  0
   57.6261   33.3416   43.9460 H   0  0  0  0  0  0  0  0  0  0  0  0
   56.7193   32.2067   44.9961 H   0  0  0  0  0  0  0  0  0  0  0  0
   57.7456   31.6068   47.2991 H   0  0  0  0  0  0  0  0  0  0  0  0
   58.8108   32.6491   49.3014 H   0  0  0  0  0  0  0  0  0  0  0  0
   60.1973   35.9393   46.8588 H   0  0  0  0  0  0  0  0  0  0  0  0
   59.1415   34.8985   44.8516 H   0  0  0  0  0  0  0  0  0  0  0  0
   60.3822   30.4667   48.2690 H   0  0  0  0  0  0  0  0  0  0  0  0
   61.7451   29.5712   47.4916 H   0  0  0  0  0  0  0  0  0  0  0  0
   62.8041   30.9284   49.5994 H   0  0  0  0  0  0  0  0  0  0  0  0
   64.3216   32.8753   49.9688 H   0  0  0  0  0  0  0  0  0  0  0  0
   64.4404   34.7070   48.2767 H   0  0  0  0  0  0  0  0  0  0  0  0
   63.0482   34.5895   46.2071 H   0  0  0  0  0  0  0  0  0  0  0  0
   61.5293   32.6448   45.8285 H   0  0  0  0  0  0  0  0  0  0  0  0
   60.1396   28.0152   46.9049 H   0  0  0  0  0  0  0  0  0  0  0  0
  1  2  1  0
  2  3  1  0
  2  4  1  0
  4  5  1  0
  5  6  2  0
  6  7  1  0
  7  8  1  0
  7  9  2  0
  9 10  1  0
 10 11  1  0
 11 12  1  0
 12 13  2  0
 13 14  1  0
 14 15  2  0
 15 16  1  0
 15 17  1  0
 17 18  2  0
  9 19  1  0
 19 20  1  0
 20 21  1  0
 21 22  1  0
 22 23  2  0
 23 24  1  0
 24 25  2  0
 25 26  1  0
 26 27  2  0
 19 28  2  0
 28  5  1  0
 18 12  1  0
 27 22  1  0
  1 29  1  0
  1 30  1  0
  1 31  1  0
  3 32  1  0
  3 33  1  0
  3 34  1  0
  4 35  1  0
  4 36  1  0
  6 37  1  0
 11 38  1  0
 11 39  1  0
 13 40  1  0
 14 41  1  0
 17 42  1  0
 18 43  1  0
 21 44  1  0
 21 45  1  0
 23 46  1  0
 24 47  1  0
 25 48  1  0
 26 49  1  0
 27 50  1  0
 28 51  1  0
M  END
>  <UniqueID>  (1) 
1

>  <SMILES>  (1) 
CN(C)Cc1cc(Br)c(OCc2ccc(F)cc2)c(OCc2ccccc2)c1

>  <Energy>  (1) 
54.1799092547047

>  <Genealogy>  (1) 
CN(C)Cc1cc(Br)c(OCc2ccc(F)cc2)c(OCc2ccccc2)c1 (3D coordinates assigned)
CN(C)Cc1cc(Br)c(OCc2ccc(F)cc2)c(OCc2ccccc2)c1 (optimized conformer: 54.1799092547047 kcal/mol)

>  <smiles>  (1) 
CN(C)Cc1cc(Br)c(OCc2ccc(F)cc2)c(OCc2ccccc2)c1

>  <score_type>  (1) 
oracle

>  <origin>  (1) 
adg

>  <m_score__min__energy>  (1) 
-7.9699999999999998

>  <m_primary>  (1) 
energy

$$$$
1:0
     RDKit          3D

 32 34  0  0  0  0  0  0  0  0999 V2000
   59.2350   34.7960   46.4710 C   0  0  0  0  0  0  0  0  0  0  0  0
   59.2700   34.6080   44.9560 C   0  0  0  0  0  0  0  0  0  0  0  0
   58.3560   33.4640   44.4870 C   0  0  0  0  0  0  0  0  0  0  0  0
   57.4010   32.7360   45.8680 S   0  0  0  0  0  0  0  0  0  0  0  0
   57.4400   31.0500   45.2550 C   0  0  0  0  0  0  0  0  0  0  0  0
   56.4800   30.5200   44.4510 N   0  0  0  0  0  0  0  0  0  0  0  0
   56.8080   29.2450   44.2490 N   0  0  0  0  0  0  0  0  0  0  0  0
   57.9470   29.0430   44.9220 C   0  0  0  0  0  0  0  0  0  0  0  0
   58.8760   27.6830   45.2260 S   0  0  0  0  0  0  0  0  0  0  0  0
   59.9240   28.5920   46.2360 C   0  0  0  0  0  0  0  0  0  0  0  0
   59.4910   29.9290   46.2850 C   0  0  0  0  0  0  0  0  0  0  0  0
   60.1620   30.9760   47.0770 C   0  0  0  0  0  0  0  0  0  0  0  0
   59.4840   31.6210   48.1220 C   0  0  0  0  0  0  0  0  0  0  0  0
   60.1230   32.6150   48.8690 C   0  0  0  0  0  0  0  0  0  0  0  0
   61.4390   32.9800   48.5670 C   0  0  0  0  0  0  0  0  0  0  0  0
   62.2420   34.2240   49.5080 Cl  0  0  0  0  0  0  0  0  0  0  0  0
   62.1120   32.3570   47.5120 C   0  0  0  0  0  0  0  0  0  0  0  0
   61.4740   31.3650   46.7620 C   0  0  0  0  0  0  0  0  0  0  0  0
   58.3750   30.1220   45.5400 N   0  0  0  0  0  0  0  0  0  0  0  0
   59.4149   33.8296   46.9647 H   0  0  0  0  0  0  0  0  0  0  0  0
   60.0154   35.5113   46.7698 H   0  0  0  0  0  0  0  0  0  0  0  0
   58.2495   35.1825   46.7698 H   0  0  0  0  0  0  0  0  0  0  0  0
   58.9418   35.5419   44.4763 H   0  0  0  0  0  0  0  0  0  0  0  0
   60.3015   34.3511   44.6733 H   0  0  0  0  0  0  0  0  0  0  0  0
   57.6529   33.8562   43.7375 H   0  0  0  0  0  0  0  0  0  0  0  0
   58.9927   32.6741   44.0619 H   0  0  0  0  0  0  0  0  0  0  0  0
   56.2550   28.5550   43.6970 H   0  0  0  0  0  0  0  0  0  0  0  0
   60.8009   28.1901   46.7646 H   0  0  0  0  0  0  0  0  0  0  0  0
   58.4453   31.3435   48.3546 H   0  0  0  0  0  0  0  0  0  0  0  0
   59.5907   33.1102   49.6945 H   0  0  0  0  0  0  0  0  0  0  0  0
   63.1453   32.6479   47.2717 H   0  0  0  0  0  0  0  0  0  0  0  0
   62.0011   30.8877   45.9227 H   0  0  0  0  0  0  0  0  0  0  0  0
  1  2  1  0
  2  3  1  0
  3  4  1  0
  4  5  1  0
  5  6  2  0
  6  7  1  0
  7  8  2  0
  8  9  1  0
  9 10  1  0
 10 11  2  0
 11 12  1  0
 12 13  2  0
 13 14  1  0
 14 15  2  0
 15 16  1  0
 15 17  1  0
 17 18  2  0
 11 19  1  0
 19  5  1  0
 19  8  1  0
 18 12  1  0
  1 20  1  0
  1 21  1  0
  1 22  1  0
  2 23  1  0
  2 24  1  0
  3 25  1  0
  3 26  1  0
  7 27  1  0
 10 28  1  0
 13 29  1  0
 14 30  1  0
 17 31  1  0
 18 32  1  0
M  CHG  1   7   1
M  END
>  <UniqueID>  (2) 
2

>  <SMILES>  (2) 
CCCSc1n[nH+]c2scc(-c3ccc(Cl)cc3)n12

>  <Energy>  (2) 
119.9263896493056

>  <Genealogy>  (2) 
CCCSc1n[nH+]c2scc(-c3ccc(Cl)cc3)n12 (protonated)
CCCSc1n[nH+]c2scc(-c3ccc(Cl)cc3)n12 (3D coordinates assigned)
CCCSc1n[nH+]c2scc(-c3ccc(Cl)cc3)n12 (optimized conformer: 119.9263896493056 kcal/mol)

>  <smiles>  (2) 
CCCSc1nnc2scc(-c3ccc(Cl)cc3)n12

>  <score_type>  (2) 
oracle

>  <origin>  (2) 
adg

>  <m_score__min__energy>  (2) 
-5.6399999999999997

>  <m_primary>  (2) 
energy

$$$$
2:0
     RDKit          3D

 68 73  0  0  0  0  0  0  0  0999 V2000
   51.3176   33.0920   51.4790 H   0  0  0  0  0  0  0  0  0  0  0  0
   51.6990   32.0770   51.2940 C   0  0  0  0  0  0  0  0  0  0  0  0
   52.5060   31.4310   52.1780 N   0  0  0  0  0  0  0  0  0  0  0  0
   52.8450   30.2030   51.7330 C   0  0  0  0  0  0  0  0  0  0  0  0
   53.6630   29.4340   52.3910 N   0  0  0  0  0  0  0  0  0  0  0  0
   54.7970   29.8730   53.1520 C   0  0  0  0  0  0  0  0  0  0  0  0
   54.6910   29.9400   54.4070 O   0  0  0  0  0  0  0  0  0  0  0  0
   56.0920   30.2060   52.5130 C   0  0  0  0  0  0  0  0  0  0  0  0
   57.2240   29.4150   52.7680 C   0  0  0  0  0  0  0  0  0  0  0  0
   57.1471   28.5533   53.4474 H   0  0  0  0  0  0  0  0  0  0  0  0
   58.4470   29.7160   52.1640 C   0  0  0  0  0  0  0  0  0  0  0  0
   59.3315   29.0991   52.3811 H   0  0  0  0  0  0  0  0  0  0  0  0
   58.5520   30.8000   51.2830 C   0  0  0  0  0  0  0  0  0  0  0  0
   59.8120   31.1000   50.6590 N   0  0  0  0  0  0  0  0  0  0  0  0
   60.3200   30.2780   49.6780 C   0  0  0  0  0  0  0  0  0  0  0  0
   59.5620   29.0540   49.2060 C   0  0  0  0  0  0  0  0  0  0  0  0
   58.5128   29.1467   49.5232 H   0  0  0  0  0  0  0  0  0  0  0  0
   60.0472   28.1727   49.6509 H   0  0  0  0  0  0  0  0  0  0  0  0
   59.5990   28.8830   47.7010 C   0  0  0  0  0  0  0  0  0  0  0  0
   59.5510   27.5660   47.2020 C   0  0  0  0  0  0  0  0  0  0  0  0
   59.4207   26.7267   47.9010 H   0  0  0  0  0  0  0  0  0  0  0  0
   59.6660   27.3100   45.8370 C   0  0  0  0  0  0  0  0  0  0  0  0
   59.6016   26.2772   45.4640 H   0  0  0  0  0  0  0  0  0  0  0  0
   59.8620   28.3590   44.9470 C   0  0  0  0  0  0  0  0  0  0  0  0
   59.9621   28.1543   43.8709 H   0  0  0  0  0  0  0  0  0  0  0  0
   59.9320   29.6700   45.4150 C   0  0  0  0  0  0  0  0  0  0  0  0
   60.1192   30.4878   44.7036 H   0  0  0  0  0  0  0  0  0  0  0  0
   59.7670   29.9680   46.7860 C   0  0  0  0  0  0  0  0  0  0  0  0
   59.9020   31.3480   47.2150 N   0  0  0  0  0  0  0  0  0  0  0  0
   60.9060   31.6360   47.2500 H   0  0  0  0  0  0  0  0  0  0  0  0
   59.5790   31.3880   48.2090 H   0  0  0  0  0  0  0  0  0  0  0  0
   59.1920   32.3230   46.4020 C   0  0  0  0  0  0  0  0  0  0  0  0
   58.0000   31.9060   45.7650 C   0  0  0  0  0  0  0  0  0  0  0  0
   57.6743   30.8600   45.8643 H   0  0  0  0  0  0  0  0  0  0  0  0
   57.2300   32.7910   45.0150 C   0  0  0  0  0  0  0  0  0  0  0  0
   56.3207   32.4357   44.5081 H   0  0  0  0  0  0  0  0  0  0  0  0
   57.6100   34.1220   44.9070 C   0  0  0  0  0  0  0  0  0  0  0  0
   57.0053   34.8182   44.3074 H   0  0  0  0  0  0  0  0  0  0  0  0
   58.7550   34.5780   45.5560 C   0  0  0  0  0  0  0  0  0  0  0  0
   59.0357   35.6385   45.4752 H   0  0  0  0  0  0  0  0  0  0  0  0
   59.5600   33.7050   46.3140 C   0  0  0  0  0  0  0  0  0  0  0  0
   60.7550   34.3130   47.0180 C   0  0  0  0  0  0  0  0  0  0  0  0
   60.7253   34.0263   48.0796 H   0  0  0  0  0  0  0  0  0  0  0  0
   60.6998   35.4051   46.8987 H   0  0  0  0  0  0  0  0  0  0  0  0
   62.0750   33.8400   46.4170 C   0  0  0  0  0  0  0  0  0  0  0  0
   62.7769   33.5885   47.2258 H   0  0  0  0  0  0  0  0  0  0  0  0
   61.8970   32.9497   45.7959 H   0  0  0  0  0  0  0  0  0  0  0  0
   62.5029   34.6407   45.7959 H   0  0  0  0  0  0  0  0  0  0  0  0
   61.5010   30.5960   49.0810 N   0  0  0  0  0  0  0  0  0  0  0  0
   62.2140   31.6890   49.4410 C   0  0  0  0  0  0  0  0  0  0  0  0
   63.4250   31.9750   48.8000 C   0  0  0  0  0  0  0  0  0  0  0  0
   63.7947   31.3148   48.0016 H   0  0  0  0  0  0  0  0  0  0  0  0
   64.1650   33.1020   49.1760 C   0  0  0  0  0  0  0  0  0  0  0  0
   65.1160   33.3279   48.6714 H   0  0  0  0  0  0  0  0  0  0  0  0
   63.6970   33.9420   50.1930 C   0  0  0  0  0  0  0  0  0  0  0  0
   64.2831   34.8246   50.4888 H   0  0  0  0  0  0  0  0  0  0  0  0
   62.4860   33.6620   50.8340 C   0  0  0  0  0  0  0  0  0  0  0  0
   62.1208   34.3245   51.6326 H   0  0  0  0  0  0  0  0  0  0  0  0
   61.7340   32.5330   50.4580 C   0  0  0  0  0  0  0  0  0  0  0  0
   60.5070   32.2120   51.0630 C   0  0  0  0  0  0  0  0  0  0  0  0
   60.0460   32.9500   51.9800 O   0  0  0  0  0  0  0  0  0  0  0  0
   57.4250   31.5870   51.0160 C   0  0  0  0  0  0  0  0  0  0  0  0
   57.5021   32.4382   50.3235 H   0  0  0  0  0  0  0  0  0  0  0  0
   56.2020   31.2940   51.6270 C   0  0  0  0  0  0  0  0  0  0  0  0
   55.3210   31.9172   51.4141 H   0  0  0  0  0  0  0  0  0  0  0  0
   52.1640   29.8740   50.2210 S   0  0  0  0  0  0  0  0  0  0  0  0
   51.3890   31.3640   50.1380 C   0  0  0  0  0  0  0  0  0  0  0  0
   50.7491   31.7145   49.3148 H   0  0  0  0  0  0  0  0  0  0  0  0
  1  2  1  0
  2  3  1  0
  3  4  1  0
  4  5  2  0
  5  6  1  0
  6  7  2  0
  6  8  1  0
  8  9  2  0
  9 10  1  0
  9 11  1  0
 11 12  1  0
 11 13  2  0
 13 14  1  0
 14 15  1  0
 15 16  1  0
 16 17  1  0
 16 18  1  0
 16 19  1  0
 19 20  2  0
 20 21  1  0
 20 22  1  0
 22 23  1  0
 22 24  2  0
 24 25  1  0
 24 26  1  0
 26 27  1  0
 26 28  2  0
 28 29  1  0
 29 30  1  0
 29 31  1  0
 29 32  1  0
 32 33  2  0
 33 34  1  0
 33 35  1  0
 35 36  1  0
 35 37  2  0
 37 38  1  0
 37 39  1  0
 39 40  1  0
 39 41  2  0
 41 42  1  0
 42 43  1  0
 42 44  1  0
 42 45  1  0
 45 46  1  0
 45 47  1  0
 45 48  1  0
 15 49  2  0
 49 50  1  0
 50 51  2  0
 51 52  1  0
 51 53  1  0
 53 54  1  0
 53 55  2  0
 55 56  1  0
 55 57  1  0
 57 58  1  0
 57 59  2  0
 59 60  1  0
 60 61  2  0
 13 62  1  0
 62 63  1  0
 62 64  2  0
 64 65  1  0
  4 66  1  0
 66 67  1  0
 67 68  1  0
 67  2  2  0
 64  8  1  0
 60 14  1  0
 28 19  1  0
 41 32  1  0
 59 50  1  0
M  CHG  2   3  -1  29   1
M  END
>  <UniqueID>  (3) 
3

>  <SMILES>  (3) 
CCc1ccccc1[NH2+]c1ccccc1Cc1nc2ccccc2c(=O)n1-c1ccc(C(=O)/N=c2/[n-]ccs2)cc1

>  <Energy>  (3) 
139.5268444497253

>  <Genealogy>  (3) 
CCc1ccccc1[NH2+]c1ccccc1Cc1nc2ccccc2c(=O)n1-c1ccc(C(=O)N=c2[n-]ccs2)cc1 (protonated)
CCc1ccccc1[NH2+]c1ccccc1Cc1nc2ccccc2c(=O)n1-c1ccc(C(=O)/N=c2/[n-]ccs2)cc1 (cis-trans isomerization)
CCc1ccccc1[NH2+]c1ccccc1Cc1nc2ccccc2c(=O)n1-c1ccc(C(=O)/N=c2/[n-]ccs2)cc1 (3D coordinates assigned)
CCc1ccccc1[NH2+]c1ccccc1Cc1nc2ccccc2c(=O)n1-c1ccc(C(=O)/N=c2/[n-]ccs2)cc1 (optimized conformer: 139.5268444497253 kcal/mol)

>  <smiles>  (3) 
CCc1ccccc1Nc1ccccc1Cc1nc2ccccc2c(=O)n1-c1ccc(C(=O)N=c2[nH]ccs2)cc1

>  <score_type>  (3) 
oracle

>  <origin>  (3) 
adg

>  <m_score__min__energy>  (3) 
-10.18

>  <m_primary>  (3) 
energy

$$$$
3:0
     RDKit          3D

 45 47  0  0  0  0  0  0  0  0999 V2000
   54.9730   26.3560   45.9840 N   0  0  0  0  0  0  0  0  0  0  0  0
   56.4840   25.5740   46.2800 S   0  0  0  0  0  0  0  0  0  0  0  0
   56.3440   24.6320   47.4440 O   0  0  0  0  0  0  0  0  0  0  0  0
   56.8870   24.7850   45.0660 O   0  0  0  0  0  0  0  0  0  0  0  0
   57.7080   26.7870   46.6410 C   0  0  0  0  0  0  0  0  0  0  0  0
   57.5040   28.1260   46.2820 C   0  0  0  0  0  0  0  0  0  0  0  0
   58.4690   29.0900   46.5850 C   0  0  0  0  0  0  0  0  0  0  0  0
   59.6500   28.7260   47.2560 C   0  0  0  0  0  0  0  0  0  0  0  0
   60.6860   29.6780   47.5380 N   0  0  0  0  0  0  0  0  0  0  0  0
   60.5130   30.8320   48.3640 C   0  0  0  0  0  0  0  0  0  0  0  0
   59.9610   30.7260   49.4910 O   0  0  0  0  0  0  0  0  0  0  0  0
   60.9050   32.1710   47.8340 C   0  0  0  0  0  0  0  0  0  0  0  0
   59.8050   32.6650   46.9870 N   0  0  0  0  0  0  0  0  0  0  0  0
   60.2450   33.7080   46.0360 C   0  0  0  0  0  0  0  0  0  0  0  0
   59.0510   34.2480   45.2200 C   0  0  0  0  0  0  0  0  0  0  0  0
   57.8650   33.4180   45.4620 N   0  0  0  0  0  0  0  0  0  0  0  0
   57.4790   32.4140   44.5030 C   0  0  0  0  0  0  0  0  0  0  0  0
   57.7980   32.5600   43.1440 C   0  0  0  0  0  0  0  0  0  0  0  0
   57.3890   31.5830   42.2330 C   0  0  0  0  0  0  0  0  0  0  0  0
   56.6700   30.4740   42.6790 C   0  0  0  0  0  0  0  0  0  0  0  0
   56.3690   30.3580   44.0380 C   0  0  0  0  0  0  0  0  0  0  0  0
   56.7770   31.3170   44.9100 N   0  0  0  0  0  0  0  0  0  0  0  0
   57.4270   33.3030   46.8610 C   0  0  0  0  0  0  0  0  0  0  0  0
   58.6510   33.1290   47.7810 C   0  0  0  0  0  0  0  0  0  0  0  0
   59.8500   27.3860   47.6110 C   0  0  0  0  0  0  0  0  0  0  0  0
   58.8830   26.4230   47.3110 C   0  0  0  0  0  0  0  0  0  0  0  0
   55.1470   27.3850   46.0290 H   0  0  0  0  0  0  0  0  0  0  0  0
   56.5812   28.4192   45.7600 H   0  0  0  0  0  0  0  0  0  0  0  0
   58.3041   30.1388   46.2972 H   0  0  0  0  0  0  0  0  0  0  0  0
   61.0755   32.8674   48.6682 H   0  0  0  0  0  0  0  0  0  0  0  0
   61.8331   32.0937   47.2486 H   0  0  0  0  0  0  0  0  0  0  0  0
   60.7025   34.5366   46.5964 H   0  0  0  0  0  0  0  0  0  0  0  0
   60.9742   33.2655   45.3414 H   0  0  0  0  0  0  0  0  0  0  0  0
   58.8397   35.2837   45.5244 H   0  0  0  0  0  0  0  0  0  0  0  0
   59.3012   34.2190   44.1492 H   0  0  0  0  0  0  0  0  0  0  0  0
   58.3656   33.4368   42.7989 H   0  0  0  0  0  0  0  0  0  0  0  0
   57.6336   31.6881   41.1657 H   0  0  0  0  0  0  0  0  0  0  0  0
   56.3439   29.6999   41.9688 H   0  0  0  0  0  0  0  0  0  0  0  0
   55.8011   29.4894   44.4028 H   0  0  0  0  0  0  0  0  0  0  0  0
   56.8812   34.2138   47.1484 H   0  0  0  0  0  0  0  0  0  0  0  0
   56.7692   32.4274   46.9638 H   0  0  0  0  0  0  0  0  0  0  0  0
   58.8946   34.0926   48.2523 H   0  0  0  0  0  0  0  0  0  0  0  0
   58.4206   32.3863   48.5590 H   0  0  0  0  0  0  0  0  0  0  0  0
   60.7740   27.0899   48.1292 H   0  0  0  0  0  0  0  0  0  0  0  0
   59.0452   25.3747   47.6022 H   0  0  0  0  0  0  0  0  0  0  0  0
  1  2  1  0
  2  3  2  0
  2  4  2  0
  2  5  1  0
  5  6  2  0
  6  7  1  0
  7  8  2  0
  8  9  1  0
  9 10  1  0
 10 11  2  0
 10 12  1  0
 12 13  1  0
 13 14  1  0
 14 15  1  0
 15 16  1  0
 16 17  1  0
 17 18  2  0
 18 19  1  0
 19 20  2  0
 20 21  1  0
 21 22  2  0
 16 23  1  0
 23 24  1  0
  8 25  1  0
 25 26  2  0
 26  5  1  0
 24 13  1  0
 22 17  1  0
  1 27  1  0
  6 28  1  0
  7 29  1  0
 12 30  1  0
 12 31  1  0
 14 32  1  0
 14 33  1  0
 15 34  1  0
 15 35  1  0
 18 36  1  0
 19 37  1  0
 20 38  1  0
 21 39  1  0
 23 40  1  0
 23 41  1  0
 24 42  1  0
 24 43  1  0
 25 44  1  0
 26 45  1  0
M  CHG  2   1  -1   9  -1
M  END
>  <UniqueID>  (4) 
4

>  <SMILES>  (4) 
[NH-]S(=O)(=O)c1ccc([N-]C(=O)CN2CCN(c3ccccn3)CC2)cc1

>  <Energy>  (4) 
60.02845831964714

>  <Genealogy>  (4) 
[NH-]S(=O)(=O)c1ccc([N-]C(=O)CN2CCN(c3ccccn3)CC2)cc1 (protonated)
[NH-]S(=O)(=O)c1ccc([N-]C(=O)CN2CCN(c3ccccn3)CC2)cc1 (3D coordinates assigned)
[NH-]S(=O)(=O)c1ccc([N-]C(=O)CN2CCN(c3ccccn3)CC2)cc1 (nonaromatic ring conformer: 60.02845831964714 kcal/mol)

>  <smiles>  (4) 
NS(=O)(=O)c1ccc(NC(=O)CN2CCN(c3ccccn3)CC2)cc1

>  <score_type>  (4) 
oracle

>  <origin>  (4) 
adg

>  <m_score__min__energy>  (4) 
-12.6

>  <m_primary>  (4) 
energy

$$$$
4:0
     RDKit          3D

 45 47  0  0  0  0  0  0  0  0999 V2000
   64.1530   33.0390   49.2210 C   0  0  0  0  0  0  0  0  0  0  0  0
   64.1130   33.5000   47.8890 O   0  0  0  0  0  0  0  0  0  0  0  0
   63.2160   32.7190   47.1220 C   0  0  0  0  0  0  0  0  0  0  0  0
   62.4750   31.7300   48.0180 C   0  0  0  0  0  0  0  0  0  0  0  0
   61.1990   32.2630   48.3600 O   0  0  0  0  0  0  0  0  0  0  0  0
   60.3600   32.9490   47.4700 C   0  0  0  0  0  0  0  0  0  0  0  0
   60.0830   34.2970   47.7230 C   0  0  0  0  0  0  0  0  0  0  0  0
   59.2600   35.0260   46.8600 C   0  0  0  0  0  0  0  0  0  0  0  0
   58.7030   34.4110   45.7360 C   0  0  0  0  0  0  0  0  0  0  0  0
   58.9620   33.0580   45.4710 C   0  0  0  0  0  0  0  0  0  0  0  0
   58.3920   32.3980   44.2440 C   0  0  0  0  0  0  0  0  0  0  0  0
   58.1690   30.9700   44.4960 N   0  0  0  0  0  0  0  0  0  0  0  0
   59.2340   30.1670   44.5630 N   0  0  0  0  0  0  0  0  0  0  0  0
   59.1240   28.8300   44.7610 C   0  0  0  0  0  0  0  0  0  0  0  0
   57.8600   28.2460   44.9020 C   0  0  0  0  0  0  0  0  0  0  0  0
   57.7400   26.7840   45.1270 C   0  0  0  0  0  0  0  0  0  0  0  0
   57.6360   26.2650   46.4300 C   0  0  0  0  0  0  0  0  0  0  0  0
   57.5320   24.8860   46.6360 C   0  0  0  0  0  0  0  0  0  0  0  0
   57.5360   24.0120   45.5460 C   0  0  0  0  0  0  0  0  0  0  0  0
   57.4070   22.2820   45.8070 Cl  0  0  0  0  0  0  0  0  0  0  0  0
   57.6470   24.5170   44.2470 C   0  0  0  0  0  0  0  0  0  0  0  0
   57.7510   25.8940   44.0360 C   0  0  0  0  0  0  0  0  0  0  0  0
   56.7320   29.0790   44.8120 C   0  0  0  0  0  0  0  0  0  0  0  0
   55.5670   28.5990   44.8930 O   0  0  0  0  0  0  0  0  0  0  0  0
   56.9050   30.4550   44.6080 C   0  0  0  0  0  0  0  0  0  0  0  0
   55.8940   31.2060   44.5240 O   0  0  0  0  0  0  0  0  0  0  0  0
   59.7950   32.3310   46.3370 C   0  0  0  0  0  0  0  0  0  0  0  0
   64.0787   33.8951   49.9077 H   0  0  0  0  0  0  0  0  0  0  0  0
   63.3110   32.3535   49.3972 H   0  0  0  0  0  0  0  0  0  0  0  0
   65.1005   32.5088   49.3972 H   0  0  0  0  0  0  0  0  0  0  0  0
   62.4870   33.3807   46.6313 H   0  0  0  0  0  0  0  0  0  0  0  0
   63.7857   32.1592   46.3657 H   0  0  0  0  0  0  0  0  0  0  0  0
   62.3433   30.7780   47.4829 H   0  0  0  0  0  0  0  0  0  0  0  0
   63.0581   31.5577   48.9347 H   0  0  0  0  0  0  0  0  0  0  0  0
   60.5162   34.7866   48.6077 H   0  0  0  0  0  0  0  0  0  0  0  0
   59.0504   36.0860   47.0662 H   0  0  0  0  0  0  0  0  0  0  0  0
   58.0595   34.9894   45.0568 H   0  0  0  0  0  0  0  0  0  0  0  0
   57.4353   32.8754   43.9855 H   0  0  0  0  0  0  0  0  0  0  0  0
   59.1033   32.5096   43.4124 H   0  0  0  0  0  0  0  0  0  0  0  0
   60.0277   28.2048   44.8108 H   0  0  0  0  0  0  0  0  0  0  0  0
   57.6365   26.9481   47.2922 H   0  0  0  0  0  0  0  0  0  0  0  0
   57.4469   24.4885   47.6581 H   0  0  0  0  0  0  0  0  0  0  0  0
   57.6525   23.8285   43.3892 H   0  0  0  0  0  0  0  0  0  0  0  0
   57.8420   26.2851   43.0119 H   0  0  0  0  0  0  0  0  0  0  0  0
   60.0077   31.2719   46.1293 H   0  0  0  0  0  0  0  0  0  0  0  0
  1  2  1  0
  2  3  1  0
  3  4  1  0
  4  5  1  0
  5  6  1  0
  6  7  2  0
  7  8  1  0
  8  9  2  0
  9 10  1  0
 10 11  1  0
 11 12  1  0
 12 13  1  0
 13 14  1  0
 14 15  2  0
 15 16  1  0
 16 17  2  0
 17 18  1  0
 18 19  2  0
 19 20  1  0
 19 21  1  0
 21 22  2  0
 15 23  1  0
 23 24  2  0
 23 25  1  0
 25 26  2  0
 10 27  2  0
 27  6  1  0
 25 12  1  0
 22 16  1  0
  1 28  1  0
  1 29  1  0
  1 30  1  0
  3 31  1  0
  3 32  1  0
  4 33  1  0
  4 34  1  0
  7 35  1  0
  8 36  1  0
  9 37  1  0
 11 38  1  0
 11 39  1  0
 14 40  1  0
 17 41  1  0
 18 42  1  0
 21 43  1  0
 22 44  1  0
 27 45  1  0
M  CHG  1  13  -1
M  END
>  <UniqueID>  (5) 
5

>  <SMILES>  (5) 
COCCOc1cccc(Cn2[n-]cc(-c3ccc(Cl)cc3)c(=O)c2=O)c1

>  <Energy>  (5) 
55.07459483741572

>  <Genealogy>  (5) 
COCCOc1cccc(Cn2[n-]cc(-c3ccc(Cl)cc3)c(=O)c2=O)c1 (protonated)
COCCOc1cccc(Cn2[n-]cc(-c3ccc(Cl)cc3)c(=O)c2=O)c1 (3D coordinates assigned)
COCCOc1cccc(Cn2[n-]cc(-c3ccc(Cl)cc3)c(=O)c2=O)c1 (optimized conformer: 55.07459483741572 kcal/mol)

>  <smiles>  (5) 
COCCOc1cccc(Cn2[nH]cc(-c3ccc(Cl)cc3)c(=O)c2=O)c1

>  <score_type>  (5) 
oracle

>  <origin>  (5) 
adg

>  <m_score__min__energy>  (5) 
-8.7599999999999998

>  <m_primary>  (5) 
energy

$$$$
5:0
     RDKit          3D

 46 49  0  0  0  0  0  0  0  0999 V2000
   54.4060   29.8920   45.0370 H   0  0  0  0  0  0  0  0  0  0  0  0
   55.2250   29.3470   44.6940 N   0  0  0  0  0  0  0  0  0  0  0  0
   56.4190   29.4490   45.1860 C   0  0  0  0  0  0  0  0  0  0  0  0
   57.0840   30.6310   45.1870 N   0  0  0  0  0  0  0  0  0  0  0  0
   58.2000   30.3460   45.8800 C   0  0  0  0  0  0  0  0  0  0  0  0
   59.2260   31.2230   46.2200 C   0  0  0  0  0  0  0  0  0  0  0  0
   59.2108   32.2686   45.8786 H   0  0  0  0  0  0  0  0  0  0  0  0
   60.2890   30.7350   47.0160 C   0  0  0  0  0  0  0  0  0  0  0  0
   61.4080   31.6310   47.4010 C   0  0  0  0  0  0  0  0  0  0  0  0
   62.3040   31.2620   48.4200 C   0  0  0  0  0  0  0  0  0  0  0  0
   62.1827   30.3013   48.9419 H   0  0  0  0  0  0  0  0  0  0  0  0
   63.3490   32.1220   48.7660 C   0  0  0  0  0  0  0  0  0  0  0  0
   64.0518   31.8380   49.5632 H   0  0  0  0  0  0  0  0  0  0  0  0
   63.5000   33.3080   48.1210 N   0  0  0  0  0  0  0  0  0  0  0  0
   62.6520   33.6940   47.1320 C   0  0  0  0  0  0  0  0  0  0  0  0
   62.8000   34.6602   46.6275 H   0  0  0  0  0  0  0  0  0  0  0  0
   61.5920   32.8650   46.7550 C   0  0  0  0  0  0  0  0  0  0  0  0
   60.9042   33.1775   45.9554 H   0  0  0  0  0  0  0  0  0  0  0  0
   60.2670   29.3820   47.4490 C   0  0  0  0  0  0  0  0  0  0  0  0
   61.0877   28.9992   48.0735 H   0  0  0  0  0  0  0  0  0  0  0  0
   59.2120   28.5260   47.0910 C   0  0  0  0  0  0  0  0  0  0  0  0
   59.1872   27.4817   47.4357 H   0  0  0  0  0  0  0  0  0  0  0  0
   58.1960   29.0420   46.2840 C   0  0  0  0  0  0  0  0  0  0  0  0
   57.0820   28.4370   45.8200 N   0  0  0  0  0  0  0  0  0  0  0  0
   56.6830   27.0310   46.0060 C   0  0  0  0  0  0  0  0  0  0  0  0
   56.9350   26.7317   47.0341 H   0  0  0  0  0  0  0  0  0  0  0  0
   55.6030   26.9742   45.8048 H   0  0  0  0  0  0  0  0  0  0  0  0
   57.3800   26.0480   45.0240 C   0  0  1  0  0  0  0  0  0  0  0  0
   57.4104   26.5835   44.0636 H   0  0  0  0  0  0  0  0  0  0  0  0
   58.8630   25.7520   45.3780 C   0  0  0  0  0  0  0  0  0  0  0  0
   59.2164   26.5132   46.0890 H   0  0  0  0  0  0  0  0  0  0  0  0
   59.4448   25.7760   44.4448 H   0  0  0  0  0  0  0  0  0  0  0  0
   59.0410   24.3660   46.0090 C   0  0  0  0  0  0  0  0  0  0  0  0
   58.4362   24.3109   46.9261 H   0  0  0  0  0  0  0  0  0  0  0  0
   60.1085   24.2245   46.2336 H   0  0  0  0  0  0  0  0  0  0  0  0
   58.5950   23.2390   45.0440 C   0  0  1  0  0  0  0  0  0  0  0  0
   59.4475   23.0071   44.3887 H   0  0  0  0  0  0  0  0  0  0  0  0
   58.2190   22.0520   45.8150 N   0  0  0  0  0  0  0  0  0  0  0  0
   57.2050   21.8550   45.6460 H   0  0  0  0  0  0  0  0  0  0  0  0
   58.7360   21.2290   45.4260 H   0  0  0  0  0  0  0  0  0  0  0  0
   57.4220   23.6740   44.1230 C   0  0  0  0  0  0  0  0  0  0  0  0
   56.7933   22.7976   43.9071 H   0  0  0  0  0  0  0  0  0  0  0  0
   57.8464   24.0896   43.1972 H   0  0  0  0  0  0  0  0  0  0  0  0
   56.5600   24.7540   44.7830 C   0  0  0  0  0  0  0  0  0  0  0  0
   56.1887   24.3783   45.7479 H   0  0  0  0  0  0  0  0  0  0  0  0
   55.7202   24.9905   44.1131 H   0  0  0  0  0  0  0  0  0  0  0  0
  1  2  1  0
  2  3  2  0
  3  4  1  0
  4  5  1  0
  5  6  2  0
  6  7  1  0
  6  8  1  0
  8  9  1  0
  9 10  2  0
 10 11  1  0
 10 12  1  0
 12 13  1  0
 12 14  2  0
 14 15  1  0
 15 16  1  0
 15 17  2  0
 17 18  1  0
  8 19  2  0
 19 20  1  0
 19 21  1  0
 21 22  1  0
 21 23  2  0
 23 24  1  0
 24 25  1  0
 25 26  1  0
 25 27  1  0
 25 28  1  0
 28 29  1  6
 28 30  1  0
 30 31  1  0
 30 32  1  0
 30 33  1  0
 33 34  1  0
 33 35  1  0
 33 36  1  0
 36 37  1  6
 36 38  1  0
 38 39  1  0
 38 40  1  0
 36 41  1  0
 41 42  1  0
 41 43  1  0
 41 44  1  0
 44 45  1  0
 44 46  1  0
 24  3  1  0
 44 28  1  0
 23  5  1  0
 17  9  1  0
M  CHG  1   4  -1
M  END
>  <UniqueID>  (6) 
6

>  <SMILES>  (6) 
[H]/N=c1/[n-]c2cc(-c3ccncc3)ccc2n1CC1CCC(N)CC1

>  <Energy>  (6) 
97.68625325883471

>  <Genealogy>  (6) 
N=c1[n-]c2cc(-c3ccncc3)ccc2n1CC1CCC(N)CC1 (protonated)
[H]/N=c1/[n-]c2cc(-c3ccncc3)ccc2n1CC1CCC(N)CC1 (cis-trans isomerization)
[H]/N=c1/[n-]c2cc(-c3ccncc3)ccc2n1CC1CCC(N)CC1 (3D coordinates assigned)
[H]/N=c1/[n-]c2cc(-c3ccncc3)ccc2n1CC1CCC(N)CC1 (nonaromatic ring conformer: 97.68625325883471 kcal/mol)

>  <smiles>  (6) 
N=c1[nH]c2cc(-c3ccncc3)ccc2n1CC1CCC(N)CC1

>  <score_type>  (6) 
oracle

>  <origin>  (6) 
adg

>  <m_score__min__energy>  (6) 
-9.7599999999999998

>  <m_primary>  (6) 
energy

$$$$
6:0
     RDKit          3D

 46 49  0  0  0  0  0  0  0  0999 V2000
   54.8450   26.2920   46.0070 N   0  0  0  0  0  0  0  0  0  0  0  0
   54.8580   24.9310   45.5770 C   0  0  0  0  0  0  0  0  0  0  0  0
   53.8090   24.4320   45.0910 O   0  0  0  0  0  0  0  0  0  0  0  0
   56.1010   24.1220   45.6510 C   0  0  0  0  0  0  0  0  0  0  0  0
   55.9910   22.7540   45.9600 C   0  0  0  0  0  0  0  0  0  0  0  0
   57.1180   21.9300   45.9690 C   0  0  0  0  0  0  0  0  0  0  0  0
   58.3720   22.4590   45.6700 C   0  0  0  0  0  0  0  0  0  0  0  0
   58.5090   23.8160   45.3810 C   0  0  0  0  0  0  0  0  0  0  0  0
   57.3880   24.6650   45.3800 C   0  0  0  0  0  0  0  0  0  0  0  0
   57.6090   26.1120   45.1600 C   0  0  0  0  0  0  0  0  0  0  0  0
   57.9850   26.5880   43.8940 C   0  0  0  0  0  0  0  0  0  0  0  0
   58.2050   27.9530   43.6920 C   0  0  0  0  0  0  0  0  0  0  0  0
   58.0390   28.8630   44.7470 C   0  0  0  0  0  0  0  0  0  0  0  0
   58.3470   30.3230   44.5530 C   0  0  0  0  0  0  0  0  0  0  0  0
   59.0810   30.8420   45.7060 N   0  0  0  0  0  0  0  0  0  0  0  0
   60.2440   30.2450   46.2840 C   0  0  0  0  0  0  0  0  0  0  0  0
   60.5890   29.0460   46.1070 O   0  0  0  0  0  0  0  0  0  0  0  0
   60.9670   31.2200   47.0820 C   0  0  0  0  0  0  0  0  0  0  0  0
   62.0250   31.0220   47.7350 O   0  0  0  0  0  0  0  0  0  0  0  0
   60.2170   32.4660   46.9610 C   0  0  0  0  0  0  0  0  0  0  0  0
   60.4520   33.7410   47.4970 C   0  0  0  0  0  0  0  0  0  0  0  0
   61.6320   34.0210   48.3890 C   0  0  0  0  0  0  0  0  0  0  0  0
   61.5190   33.2970   49.5830 O   0  0  0  0  0  0  0  0  0  0  0  0
   59.5190   34.7560   47.2010 C   0  0  0  0  0  0  0  0  0  0  0  0
   58.4040   34.4910   46.3830 C   0  0  0  0  0  0  0  0  0  0  0  0
   58.1980   33.2110   45.8490 C   0  0  0  0  0  0  0  0  0  0  0  0
   59.1220   32.2070   46.1480 C   0  0  0  0  0  0  0  0  0  0  0  0
   57.6430   28.3870   46.0080 C   0  0  0  0  0  0  0  0  0  0  0  0
   57.4220   27.0230   46.2110 C   0  0  0  0  0  0  0  0  0  0  0  0
   55.1640   27.0590   45.3750 H   0  0  0  0  0  0  0  0  0  0  0  0
   55.0049   22.3283   46.1974 H   0  0  0  0  0  0  0  0  0  0  0  0
   57.0159   20.8621   46.2124 H   0  0  0  0  0  0  0  0  0  0  0  0
   59.2559   21.8043   45.6620 H   0  0  0  0  0  0  0  0  0  0  0  0
   59.5034   24.2264   45.1516 H   0  0  0  0  0  0  0  0  0  0  0  0
   58.1069   25.8837   43.0578 H   0  0  0  0  0  0  0  0  0  0  0  0
   58.5102   28.3164   42.6997 H   0  0  0  0  0  0  0  0  0  0  0  0
   58.9581   30.4481   43.6470 H   0  0  0  0  0  0  0  0  0  0  0  0
   57.4030   30.8781   44.4491 H   0  0  0  0  0  0  0  0  0  0  0  0
   62.5567   33.7260   47.8714 H   0  0  0  0  0  0  0  0  0  0  0  0
   61.6584   35.0957   48.6222 H   0  0  0  0  0  0  0  0  0  0  0  0
   61.8650   32.3850   49.3960 H   0  0  0  0  0  0  0  0  0  0  0  0
   59.6638   35.7654   47.6135 H   0  0  0  0  0  0  0  0  0  0  0  0
   57.6878   35.2958   46.1608 H   0  0  0  0  0  0  0  0  0  0  0  0
   57.3282   33.0021   45.2089 H   0  0  0  0  0  0  0  0  0  0  0  0
   57.5062   29.0928   46.8405 H   0  0  0  0  0  0  0  0  0  0  0  0
   57.1001   26.6613   47.1987 H   0  0  0  0  0  0  0  0  0  0  0  0
  1  2  1  0
  2  3  2  0
  2  4  1  0
  4  5  2  0
  5  6  1  0
  6  7  2  0
  7  8  1  0
  8  9  2  0
  9 10  1  0
 10 11  2  0
 11 12  1  0
 12 13  2  0
 13 14  1  0
 14 15  1  0
 15 16  1  0
 16 17  2  0
 16 18  1  0
 18 19  2  0
 18 20  1  0
 20 21  2  0
 21 22  1  0
 22 23  1  0
 21 24  1  0
 24 25  2  0
 25 26  1  0
 26 27  2  0
 13 28  1  0
 28 29  2  0
  9  4  1  0
 29 10  1  0
 27 15  1  0
 27 20  1  0
  1 30  1  0
  5 31  1  0
  6 32  1  0
  7 33  1  0
  8 34  1  0
 11 35  1  0
 12 36  1  0
 14 37  1  0
 14 38  1  0
 22 39  1  0
 22 40  1  0
 23 41  1  0
 24 42  1  0
 25 43  1  0
 26 44  1  0
 28 45  1  0
 29 46  1  0
M  CHG  1   1  -1
M  END
>  <UniqueID>  (7) 
7

>  <SMILES>  (7) 
[NH-]C(=O)c1ccccc1-c1ccc(CN2C(=O)C(=O)c3c(CO)cccc32)cc1

>  <Energy>  (7) 
90.91076870638778

>  <Genealogy>  (7) 
[NH-]C(=O)c1ccccc1-c1ccc(CN2C(=O)C(=O)c3c(CO)cccc32)cc1 (protonated)
[NH-]C(=O)c1ccccc1-c1ccc(CN2C(=O)C(=O)c3c(CO)cccc32)cc1 (3D coordinates assigned)
[NH-]C(=O)c1ccccc1-c1ccc(CN2C(=O)C(=O)c3c(CO)cccc32)cc1 (nonaromatic ring conformer: 90.91076870638778 kcal/mol)

>  <smiles>  (7) 
NC(=O)c1ccccc1-c1ccc(CN2C(=O)C(=O)c3c(CO)cccc32)cc1

>  <score_type>  (7) 
oracle

>  <origin>  (7) 
adg

>  <m_score__min__energy>  (7) 
-11.59

>  <m_primary>  (7) 
energy

$$$$
7:0
     RDKit          3D

 56 59  0  0  0  0  0  0  0  0999 V2000
   56.6400   21.2140   43.0680 C   0  0  0  0  0  0  0  0  0  0  0  0
   56.0430   22.4180   43.5400 O   0  0  0  0  0  0  0  0  0  0  0  0
   56.7530   23.4860   44.1090 C   0  0  0  0  0  0  0  0  0  0  0  0
   57.1700   23.3700   45.4360 C   0  0  0  0  0  0  0  0  0  0  0  0
   57.8740   24.4060   46.0490 C   0  0  0  0  0  0  0  0  0  0  0  0
   58.1840   25.5770   45.3440 C   0  0  0  0  0  0  0  0  0  0  0  0
   57.7800   25.7070   43.9940 C   0  0  0  0  0  0  0  0  0  0  0  0
   57.0560   24.6580   43.3940 C   0  0  0  0  0  0  0  0  0  0  0  0
   58.0760   26.9110   43.1820 C   0  0  0  0  0  0  0  0  0  0  0  0
   58.6940   26.7790   42.0900 O   0  0  0  0  0  0  0  0  0  0  0  0
   57.8060   28.2340   43.6750 N   0  0  0  0  0  0  0  0  0  0  0  0
   56.6420   28.9620   43.1530 C   0  0  0  0  0  0  0  0  0  0  0  0
   56.6510   30.4040   43.5770 C   0  0  0  0  0  0  0  0  0  0  0  0
   55.7290   30.8600   44.3090 O   0  0  0  0  0  0  0  0  0  0  0  0
   57.6960   31.2680   43.1170 N   0  0  0  0  0  0  0  0  0  0  0  0
   57.7390   32.6810   43.4920 C   0  0  0  0  0  0  0  0  0  0  0  0
   58.0070   32.8290   44.9560 C   0  0  0  0  0  0  0  0  0  0  0  0
   57.6980   33.9400   45.7310 C   0  0  0  0  0  0  0  0  0  0  0  0
   58.1430   33.8280   47.0530 C   0  0  0  0  0  0  0  0  0  0  0  0
   58.8150   32.6420   47.3170 C   0  0  0  0  0  0  0  0  0  0  0  0
   58.8580   31.7320   45.9030 S   0  0  0  0  0  0  0  0  0  0  0  0
   58.5300   28.7610   44.8340 C   0  0  0  0  0  0  0  0  0  0  0  0
   58.1940   27.9650   46.0840 C   0  0  0  0  0  0  0  0  0  0  0  0
   58.8380   26.6490   46.0390 N   0  0  0  0  0  0  0  0  0  0  0  0
   59.9680   26.3310   46.9280 C   0  0  0  0  0  0  0  0  0  0  0  0
   60.2980   27.4900   47.8380 C   0  0  0  0  0  0  0  0  0  0  0  0
   60.1590   27.3480   49.2290 C   0  0  0  0  0  0  0  0  0  0  0  0
   60.4790   28.4080   50.0820 C   0  0  0  0  0  0  0  0  0  0  0  0
   60.9420   29.6160   49.5550 C   0  0  0  0  0  0  0  0  0  0  0  0
   61.0860   29.7660   48.1740 C   0  0  0  0  0  0  0  0  0  0  0  0
   60.7670   28.7110   47.3140 C   0  0  0  0  0  0  0  0  0  0  0  0
   60.9250   28.8770   45.9760 F   0  0  0  0  0  0  0  0  0  0  0  0
   56.9463   20.5962   43.9250 H   0  0  0  0  0  0  0  0  0  0  0  0
   55.9127   20.6590   42.4572 H   0  0  0  0  0  0  0  0  0  0  0  0
   57.5220   21.4570   42.4572 H   0  0  0  0  0  0  0  0  0  0  0  0
   56.9417   22.4550   46.0022 H   0  0  0  0  0  0  0  0  0  0  0  0
   58.1896   24.3030   47.0977 H   0  0  0  0  0  0  0  0  0  0  0  0
   56.7227   24.7574   42.3504 H   0  0  0  0  0  0  0  0  0  0  0  0
   56.6549   28.9136   42.0541 H   0  0  0  0  0  0  0  0  0  0  0  0
   55.7339   28.4916   43.5581 H   0  0  0  0  0  0  0  0  0  0  0  0
   58.4370   30.8680   42.4980 H   0  0  0  0  0  0  0  0  0  0  0  0
   58.5385   33.1812   42.9257 H   0  0  0  0  0  0  0  0  0  0  0  0
   56.7658   33.1389   43.2615 H   0  0  0  0  0  0  0  0  0  0  0  0
   57.1588   34.8177   45.3450 H   0  0  0  0  0  0  0  0  0  0  0  0
   57.9761   34.6066   47.8119 H   0  0  0  0  0  0  0  0  0  0  0  0
   59.2457   32.3478   48.2855 H   0  0  0  0  0  0  0  0  0  0  0  0
   59.6116   28.6961   44.6443 H   0  0  0  0  0  0  0  0  0  0  0  0
   58.2325   29.8083   44.9908 H   0  0  0  0  0  0  0  0  0  0  0  0
   58.5496   28.5127   46.9692 H   0  0  0  0  0  0  0  0  0  0  0  0
   57.1039   27.8277   46.1378 H   0  0  0  0  0  0  0  0  0  0  0  0
   59.7047   25.4575   47.5425 H   0  0  0  0  0  0  0  0  0  0  0  0
   60.8492   26.1193   46.3046 H   0  0  0  0  0  0  0  0  0  0  0  0
   59.7966   26.3980   49.6487 H   0  0  0  0  0  0  0  0  0  0  0  0
   60.3661   28.2908   51.1699 H   0  0  0  0  0  0  0  0  0  0  0  0
   61.1932   30.4492   50.2278 H   0  0  0  0  0  0  0  0  0  0  0  0
   61.4518   30.7178   47.7614 H   0  0  0  0  0  0  0  0  0  0  0  0
  1  2  1  0
  2  3  1  0
  3  4  2  0
  4  5  1  0
  5  6  2  0
  6  7  1  0
  7  8  2  0
  7  9  1  0
  9 10  2  0
  9 11  1  0
 11 12  1  0
 12 13  1  0
 13 14  2  0
 13 15  1  0
 15 16  1  0
 16 17  1  0
 17 18  2  0
 18 19  1  0
 19 20  2  0
 20 21  1  0
 11 22  1  0
 22 23  1  0
 23 24  1  0
 24 25  1  0
 25 26  1  0
 26 27  2  0
 27 28  1  0
 28 29  2  0
 29 30  1  0
 30 31  2  0
 31 32  1  0
  8  3  1  0
 21 17  1  0
 31 26  1  0
 24  6  1  0
  1 33  1  0
  1 34  1  0
  1 35  1  0
  4 36  1  0
  5 37  1  0
  8 38  1  0
 12 39  1  0
 12 40  1  0
 15 41  1  0
 16 42  1  0
 16 43  1  0
 18 44  1  0
 19 45  1  0
 20 46  1  0
 22 47  1  0
 22 48  1  0
 23 49  1  0
 23 50  1  0
 25 51  1  0
 25 52  1  0
 27 53  1  0
 28 54  1  0
 29 55  1  0
 30 56  1  0
M  END
>  <UniqueID>  (8) 
8

>  <SMILES>  (8) 
COc1ccc2c(c1)C(=O)N(CC(=O)NCc1cccs1)CCN2Cc1ccccc1F

>  <Energy>  (8) 
95.48391087605984

>  <Genealogy>  (8) 
COc1ccc2c(c1)C(=O)N(CC(=O)NCc1cccs1)CCN2Cc1ccccc1F (3D coordinates assigned)
COc1ccc2c(c1)C(=O)N(CC(=O)NCc1cccs1)CCN2Cc1ccccc1F (nonaromatic ring conformer: 95.48391087605984 kcal/mol)

>  <smiles>  (8) 
COc1ccc2c(c1)C(=O)N(CC(=O)NCc1cccs1)CCN2Cc1ccccc1F

>  <score_type>  (8) 
oracle

>  <origin>  (8) 
adg

>  <m_score__min__energy>  (8) 
-7.21

>  <m_primary>  (8) 
energy

$$$$
8:0
     RDKit          3D

 38 40  0  0  0  0  0  0  0  0999 V2000
   57.5370   27.3950   46.3800 S   0  0  0  0  0  0  0  0  0  0  0  0
   57.1580   28.7030   45.4670 C   0  0  0  0  0  0  0  0  0  0  0  0
   55.9670   28.8730   44.8710 N   0  0  0  0  0  0  0  0  0  0  0  0
   56.0030   30.0180   44.2080 N   0  0  0  0  0  0  0  0  0  0  0  0
   57.2290   30.5410   44.4190 C   0  0  0  0  0  0  0  0  0  0  0  0
   57.6820   31.8270   43.7880 C   0  0  0  0  0  0  0  0  0  0  0  0
   58.0400   32.8440   44.8390 C   0  0  0  0  0  0  0  0  0  0  0  0
   57.4520   32.7910   46.1150 C   0  0  0  0  0  0  0  0  0  0  0  0
   57.7890   33.7400   47.0860 C   0  0  0  0  0  0  0  0  0  0  0  0
   58.7100   34.7490   46.7910 C   0  0  0  0  0  0  0  0  0  0  0  0
   59.2920   34.8150   45.5220 C   0  0  0  0  0  0  0  0  0  0  0  0
   58.9580   33.8680   44.5480 C   0  0  0  0  0  0  0  0  0  0  0  0
   57.9880   29.7330   45.2000 N   0  0  0  0  0  0  0  0  0  0  0  0
   59.3570   29.9400   45.6880 C   0  0  0  0  0  0  0  0  0  0  0  0
   59.3900   30.0930   47.2130 C   0  0  0  0  0  0  0  0  0  0  0  0
   60.1840   31.3030   47.6320 C   0  0  0  0  0  0  0  0  0  0  0  0
   59.9180   31.9370   48.8580 C   0  0  0  0  0  0  0  0  0  0  0  0
   60.6190   33.0900   49.2200 C   0  0  0  0  0  0  0  0  0  0  0  0
   61.5860   33.6200   48.3620 C   0  0  0  0  0  0  0  0  0  0  0  0
   61.8530   32.9990   47.1390 C   0  0  0  0  0  0  0  0  0  0  0  0
   61.1530   31.8440   46.7720 C   0  0  0  0  0  0  0  0  0  0  0  0
   55.1450   28.2290   44.9030 H   0  0  0  0  0  0  0  0  0  0  0  0
   58.5648   31.6297   43.1622 H   0  0  0  0  0  0  0  0  0  0  0  0
   56.8597   32.2275   43.1769 H   0  0  0  0  0  0  0  0  0  0  0  0
   56.7243   32.0005   46.3507 H   0  0  0  0  0  0  0  0  0  0  0  0
   57.3282   33.6920   48.0837 H   0  0  0  0  0  0  0  0  0  0  0  0
   58.9769   35.4913   47.5577 H   0  0  0  0  0  0  0  0  0  0  0  0
   60.0132   35.6122   45.2889 H   0  0  0  0  0  0  0  0  0  0  0  0
   59.4160   33.9250   43.5495 H   0  0  0  0  0  0  0  0  0  0  0  0
   59.9736   29.0753   45.4016 H   0  0  0  0  0  0  0  0  0  0  0  0
   59.7486   30.8645   45.2387 H   0  0  0  0  0  0  0  0  0  0  0  0
   58.3595   30.1963   47.5838 H   0  0  0  0  0  0  0  0  0  0  0  0
   59.8728   29.2006   47.6379 H   0  0  0  0  0  0  0  0  0  0  0  0
   59.1554   31.5240   49.5346 H   0  0  0  0  0  0  0  0  0  0  0  0
   60.4094   33.5811   50.1817 H   0  0  0  0  0  0  0  0  0  0  0  0
   62.1377   34.5271   48.6496 H   0  0  0  0  0  0  0  0  0  0  0  0
   62.6139   33.4182   46.4643 H   0  0  0  0  0  0  0  0  0  0  0  0
   61.3625   31.3588   45.8073 H   0  0  0  0  0  0  0  0  0  0  0  0
  1  2  2  0
  2  3  1  0
  3  4  1  0
  4  5  2  0
  5  6  1  0
  6  7  1  0
  7  8  2  0
  8  9  1  0
  9 10  2  0
 10 11  1  0
 11 12  2  0
  5 13  1  0
 13 14  1  0
 14 15  1  0
 15 16  1  0
 16 17  2  0
 17 18  1  0
 18 19  2  0
 19 20  1  0
 20 21  2  0
 13  2  1  0
 21 16  1  0
 12  7  1  0
  3 22  1  0
  6 23  1  0
  6 24  1  0
  8 25  1  0
  9 26  1  0
 10 27  1  0
 11 28  1  0
 12 29  1  0
 14 30  1  0
 14 31  1  0
 15 32  1  0
 15 33  1  0
 17 34  1  0
 18 35  1  0
 19 36  1  0
 20 37  1  0
 21 38  1  0
M  END
>  <UniqueID>  (9) 
9

>  <SMILES>  (9) 
S=c1[nH]nc(Cc2ccccc2)n1CCc1ccccc1

>  <Energy>  (9) 
70.2860501861704

>  <Genealogy>  (9) 
S=c1[nH]nc(Cc2ccccc2)n1CCc1ccccc1 (3D coordinates assigned)
S=c1[nH]nc(Cc2ccccc2)n1CCc1ccccc1 (optimized conformer: 70.2860501861704 kcal/mol)

>  <smiles>  (9) 
S=c1[nH]nc(Cc2ccccc2)n1CCc1ccccc1

>  <score_type>  (9) 
oracle

>  <origin>  (9) 
adg

>  <m_score__min__energy>  (9) 
-8.2599999999999998

>  <m_primary>  (9) 
energy

$$$$
9:0
     RDKit          3D

 63 65  0  0  0  0  0  0  0  0999 V2000
   58.8050   21.8600   44.2650 C   0  0  0  0  0  0  0  0  0  0  0  0
   57.3060   22.0060   44.0260 C   0  0  0  0  0  0  0  0  0  0  0  0
   56.7940   23.2980   44.6120 C   0  0  0  0  0  0  0  0  0  0  0  0
   57.6040   24.4420   44.5320 C   0  0  0  0  0  0  0  0  0  0  0  0
   57.2040   25.6490   45.1200 C   0  0  0  0  0  0  0  0  0  0  0  0
   58.0960   26.7890   45.1170 N   0  0  0  0  0  0  0  0  0  0  0  0
   57.8320   27.6730   43.9680 C   0  0  0  0  0  0  0  0  0  0  0  0
   57.7410   29.1220   44.3800 C   0  0  0  0  0  0  0  0  0  0  0  0
   56.5500   29.8390   44.1910 C   0  0  0  0  0  0  0  0  0  0  0  0
   56.4920   31.2030   44.4900 C   0  0  0  0  0  0  0  0  0  0  0  0
   57.6230   31.8670   44.9870 C   0  0  0  0  0  0  0  0  0  0  0  0
   57.5890   33.3150   45.2700 C   0  0  0  0  0  0  0  0  0  0  0  0
   56.6390   33.9940   44.7910 O   0  0  0  0  0  0  0  0  0  0  0  0
   58.6240   33.9700   46.0380 N   0  0  0  0  0  0  0  0  0  0  0  0
   59.6030   34.8390   45.3750 C   0  0  0  0  0  0  0  0  0  0  0  0
   58.5460   33.9890   47.5050 C   0  0  0  0  0  0  0  0  0  0  0  0
   59.8740   33.6380   48.1040 C   0  0  0  0  0  0  0  0  0  0  0  0
   60.8780   34.3580   47.8560 O   0  0  0  0  0  0  0  0  0  0  0  0
   60.0100   32.4380   48.8720 N   0  0  0  0  0  0  0  0  0  0  0  0
   59.8880   31.0930   48.3860 C   0  0  0  0  0  0  0  0  0  0  0  0
   58.7900   30.3260   48.7970 C   0  0  0  0  0  0  0  0  0  0  0  0
   58.6620   28.9950   48.3950 C   0  0  0  0  0  0  0  0  0  0  0  0
   59.6450   28.4030   47.5780 C   0  0  0  0  0  0  0  0  0  0  0  0
   59.5680   27.0680   47.1550 O   0  0  0  0  0  0  0  0  0  0  0  0
   60.6910   26.2780   46.7730 C   0  0  0  0  0  0  0  0  0  0  0  0
   60.7470   29.1680   47.1750 C   0  0  0  0  0  0  0  0  0  0  0  0
   60.8760   30.5010   47.5820 C   0  0  0  0  0  0  0  0  0  0  0  0
   58.8180   31.1530   45.1610 C   0  0  0  0  0  0  0  0  0  0  0  0
   58.8760   29.7900   44.8620 C   0  0  0  0  0  0  0  0  0  0  0  0
   55.9670   25.6880   45.7850 C   0  0  0  0  0  0  0  0  0  0  0  0
   55.5660   26.7490   46.3280 O   0  0  0  0  0  0  0  0  0  0  0  0
   55.1930   24.5730   45.8530 N   0  0  0  0  0  0  0  0  0  0  0  0
   55.5670   23.3870   45.3050 C   0  0  0  0  0  0  0  0  0  0  0  0
   54.6380   22.2150   45.4390 C   0  0  0  0  0  0  0  0  0  0  0  0
   59.0037   21.8407   45.3467 H   0  0  0  0  0  0  0  0  0  0  0  0
   59.1593   20.9231   43.8103 H   0  0  0  0  0  0  0  0  0  0  0  0
   59.3334   22.7109   43.8103 H   0  0  0  0  0  0  0  0  0  0  0  0
   57.1109   21.9986   42.9435 H   0  0  0  0  0  0  0  0  0  0  0  0
   56.7876   21.1674   44.5140 H   0  0  0  0  0  0  0  0  0  0  0  0
   58.5656   24.3899   44.0005 H   0  0  0  0  0  0  0  0  0  0  0  0
   58.0050   27.3330   46.0100 H   0  0  0  0  0  0  0  0  0  0  0  0
   59.0880   26.4560   45.0610 H   0  0  0  0  0  0  0  0  0  0  0  0
   58.6481   27.5615   43.2390 H   0  0  0  0  0  0  0  0  0  0  0  0
   56.8656   27.3824   43.5302 H   0  0  0  0  0  0  0  0  0  0  0  0
   55.6572   29.3249   43.8055 H   0  0  0  0  0  0  0  0  0  0  0  0
   55.5552   31.7582   44.3349 H   0  0  0  0  0  0  0  0  0  0  0  0
   60.1981   35.3672   46.1345 H   0  0  0  0  0  0  0  0  0  0  0  0
   60.2686   34.2289   44.7467 H   0  0  0  0  0  0  0  0  0  0  0  0
   59.0762   35.5723   44.7467 H   0  0  0  0  0  0  0  0  0  0  0  0
   58.2523   34.9950   47.8392 H   0  0  0  0  0  0  0  0  0  0  0  0
   57.8006   33.2491   47.8320 H   0  0  0  0  0  0  0  0  0  0  0  0
   58.0216   30.7766   49.4424 H   0  0  0  0  0  0  0  0  0  0  0  0
   57.7904   28.4066   48.7175 H   0  0  0  0  0  0  0  0  0  0  0  0
   61.2073   25.9148   47.6739 H   0  0  0  0  0  0  0  0  0  0  0  0
   60.3495   25.4201   46.1751 H   0  0  0  0  0  0  0  0  0  0  0  0
   61.3830   26.8893   46.1751 H   0  0  0  0  0  0  0  0  0  0  0  0
   61.5180   28.7171   46.5329 H   0  0  0  0  0  0  0  0  0  0  0  0
   61.7537   31.0867   47.2713 H   0  0  0  0  0  0  0  0  0  0  0  0
   59.7143   31.6695   45.5350 H   0  0  0  0  0  0  0  0  0  0  0  0
   59.8165   29.2378   45.0053 H   0  0  0  0  0  0  0  0  0  0  0  0
   54.4686   22.0013   46.5047 H   0  0  0  0  0  0  0  0  0  0  0  0
   53.6785   22.4504   44.9552 H   0  0  0  0  0  0  0  0  0  0  0  0
   55.0862   21.3346   44.9552 H   0  0  0  0  0  0  0  0  0  0  0  0
  1  2  1  0
  2  3  1  0
  3  4  1  0
  4  5  2  0
  5  6  1  0
  6  7  1  0
  7  8  1  0
  8  9  2  0
  9 10  1  0
 10 11  2  0
 11 12  1  0
 12 13  2  0
 12 14  1  0
 14 15  1  0
 14 16  1  0
 16 17  1  0
 17 18  2  0
 17 19  1  0
 19 20  1  0
 20 21  2  0
 21 22  1  0
 22 23  2  0
 23 24  1  0
 24 25  1  0
 23 26  1  0
 26 27  2  0
 11 28  1  0
 28 29  2  0
  5 30  1  0
 30 31  2  0
 30 32  1  0
 32 33  1  0
 33 34  1  0
 33  3  2  0
 29  8  1  0
 27 20  1  0
  1 35  1  0
  1 36  1  0
  1 37  1  0
  2 38  1  0
  2 39  1  0
  4 40  1  0
  6 41  1  0
  6 42  1  0
  7 43  1  0
  7 44  1  0
  9 45  1  0
 10 46  1  0
 15 47  1  0
 15 48  1  0
 15 49  1  0
 16 50  1  0
 16 51  1  0
 21 52  1  0
 22 53  1  0
 25 54  1  0
 25 55  1  0
 25 56  1  0
 26 57  1  0
 27 58  1  0
 28 59  1  0
 29 60  1  0
 34 61  1  0
 34 62  1  0
 34 63  1  0
M  CHG  3   6   1  19  -1  32  -1
M  END
>  <UniqueID>  (10) 
10

>  <SMILES>  (10) 
CCc1cc([NH2+]Cc2ccc(C(=O)N(C)CC(=O)[N-]c3ccc(OC)cc3)cc2)c(=O)[n-]c1C

>  <Energy>  (10) 
67.48447467038447

>  <Genealogy>  (10) 
CCc1cc([NH2+]Cc2ccc(C(=O)N(C)CC(=O)[N-]c3ccc(OC)cc3)cc2)c(=O)[n-]c1C (protonated)
CCc1cc([NH2+]Cc2ccc(C(=O)N(C)CC(=O)[N-]c3ccc(OC)cc3)cc2)c(=O)[n-]c1C (3D coordinates assigned)
CCc1cc([NH2+]Cc2ccc(C(=O)N(C)CC(=O)[N-]c3ccc(OC)cc3)cc2)c(=O)[n-]c1C (optimized conformer: 67.48447467038447 kcal/mol)

>  <smiles>  (10) 
CCc1cc(NCc2ccc(C(=O)N(C)CC(=O)Nc3ccc(OC)cc3)cc2)c(=O)[nH]c1C

>  <score_type>  (10) 
oracle

>  <origin>  (10) 
adg

>  <m_score__min__energy>  (10) 
-10.15

>  <m_primary>  (10) 
energy

$$$$
10:0
     RDKit          3D

 42 45  0  0  0  0  0  0  0  0999 V2000
   56.7920   23.7950   47.1520 C   0  0  0  0  0  0  0  0  0  0  0  0
   56.2560   25.1040   47.3030 O   0  0  0  0  0  0  0  0  0  0  0  0
   56.2040   26.0220   46.2500 C   0  0  0  0  0  0  0  0  0  0  0  0
   55.1440   26.6570   46.0010 O   0  0  0  0  0  0  0  0  0  0  0  0
   57.4370   26.2880   45.4450 C   0  0  0  0  0  0  0  0  0  0  0  0
   57.9980   27.6070   45.8000 N   0  0  0  0  0  0  0  0  0  0  0  0
   58.9980   27.6930   46.7430 C   0  0  0  0  0  0  0  0  0  0  0  0
   59.4290   26.6560   47.3170 O   0  0  0  0  0  0  0  0  0  0  0  0
   59.5450   28.8910   47.0740 N   0  0  0  0  0  0  0  0  0  0  0  0
   59.1430   30.0450   46.4900 C   0  0  0  0  0  0  0  0  0  0  0  0
   59.6990   31.2490   46.8230 N   0  0  0  0  0  0  0  0  0  0  0  0
   60.7350   31.2790   47.8230 C   0  0  0  0  0  0  0  0  0  0  0  0
   62.0530   31.6000   47.4650 C   0  0  0  0  0  0  0  0  0  0  0  0
   63.0560   31.6330   48.4380 C   0  0  0  0  0  0  0  0  0  0  0  0
   62.7480   31.3490   49.7730 C   0  0  0  0  0  0  0  0  0  0  0  0
   61.4350   31.0320   50.1350 C   0  0  0  0  0  0  0  0  0  0  0  0
   60.4290   30.9990   49.1640 C   0  0  0  0  0  0  0  0  0  0  0  0
   59.2690   32.4010   46.2000 C   0  0  0  0  0  0  0  0  0  0  0  0
   59.8040   33.6680   46.5300 C   0  0  0  0  0  0  0  0  0  0  0  0
   59.3580   34.8220   45.8850 C   0  0  0  0  0  0  0  0  0  0  0  0
   58.3720   34.7430   44.9030 C   0  0  0  0  0  0  0  0  0  0  0  0
   57.8230   33.5080   44.5620 C   0  0  0  0  0  0  0  0  0  0  0  0
   58.2560   32.3340   45.2000 C   0  0  0  0  0  0  0  0  0  0  0  0
   57.7010   31.1360   44.8580 N   0  0  0  0  0  0  0  0  0  0  0  0
   58.0980   29.9870   45.4640 C   0  0  0  0  0  0  0  0  0  0  0  0
   57.5580   28.7350   45.1480 C   0  0  0  0  0  0  0  0  0  0  0  0
   56.6660   28.6500   44.2580 O   0  0  0  0  0  0  0  0  0  0  0  0
   56.9719   23.3557   48.1443 H   0  0  0  0  0  0  0  0  0  0  0  0
   56.0781   23.1682   46.5975 H   0  0  0  0  0  0  0  0  0  0  0  0
   57.7405   23.8489   46.5975 H   0  0  0  0  0  0  0  0  0  0  0  0
   58.1832   25.5070   45.6530 H   0  0  0  0  0  0  0  0  0  0  0  0
   57.1781   26.2820   44.3759 H   0  0  0  0  0  0  0  0  0  0  0  0
   62.2975   31.8261   46.4166 H   0  0  0  0  0  0  0  0  0  0  0  0
   64.0889   31.8826   48.1538 H   0  0  0  0  0  0  0  0  0  0  0  0
   63.5384   31.3751   50.5375 H   0  0  0  0  0  0  0  0  0  0  0  0
   61.1932   30.8084   51.1845 H   0  0  0  0  0  0  0  0  0  0  0  0
   59.3961   30.7532   49.4517 H   0  0  0  0  0  0  0  0  0  0  0  0
   60.5812   33.7445   47.3046 H   0  0  0  0  0  0  0  0  0  0  0  0
   59.7866   35.7990   46.1528 H   0  0  0  0  0  0  0  0  0  0  0  0
   58.0267   35.6564   44.3965 H   0  0  0  0  0  0  0  0  0  0  0  0
   57.0444   33.4524   43.7870 H   0  0  0  0  0  0  0  0  0  0  0  0
   56.9570   31.1070   44.1220 H   0  0  0  0  0  0  0  0  0  0  0  0
  1  2  1  0
  2  3  1  0
  3  4  2  0
  3  5  1  0
  5  6  1  0
  6  7  1  0
  7  8  2  0
  7  9  1  0
  9 10  2  0
 10 11  1  0
 11 12  1  0
 12 13  2  0
 13 14  1  0
 14 15  2  0
 15 16  1  0
 16 17  2  0
 11 18  1  0
 18 19  2  0
 19 20  1  0
 20 21  2  0
 21 22  1  0
 22 23  2  0
 23 24  1  0
 24 25  2  0
 25 26  1  0
 26 27  2  0
 26  6  1  0
 25 10  1  0
 17 12  1  0
 23 18  1  0
  1 28  1  0
  1 29  1  0
  1 30  1  0
  5 31  1  0
  5 32  1  0
 13 33  1  0
 14 34  1  0
 15 35  1  0
 16 36  1  0
 17 37  1  0
 19 38  1  0
 20 39  1  0
 21 40  1  0
 22 41  1  0
 24 42  1  0
M  CHG  1  24   1
M  END
>  <UniqueID>  (11) 
11

>  <SMILES>  (11) 
COC(=O)Cn1c(=O)nc2n(-c3ccccc3)c3ccccc3[nH+]c-2c1=O

>  <Energy>  (11) 
65.17107503334135

>  <Genealogy>  (11) 
COC(=O)Cn1c(=O)nc2n(-c3ccccc3)c3ccccc3[nH+]c-2c1=O (protonated)
COC(=O)Cn1c(=O)nc2n(-c3ccccc3)c3ccccc3[nH+]c-2c1=O (3D coordinates assigned)
COC(=O)Cn1c(=O)nc2n(-c3ccccc3)c3ccccc3[nH+]c-2c1=O (optimized conformer: 65.17107503334135 kcal/mol)

>  <smiles>  (11) 
COC(=O)Cn1c(=O)nc2n(-c3ccccc3)c3ccccc3nc-2c1=O

>  <score_type>  (11) 
oracle

>  <origin>  (11) 
adg

>  <m_score__min__energy>  (11) 
-6.0199999999999996

>  <m_primary>  (11) 
energy

$$$$
11:0
     RDKit          3D

 55 58  0  0  0  0  0  0  0  0999 V2000
   50.7110   22.6400   44.6960 C   0  0  0  0  0  0  0  0  0  0  0  0
   51.8850   23.4950   45.0470 C   0  0  0  0  0  0  0  0  0  0  0  0
   51.7960   24.7470   44.9410 O   0  0  0  0  0  0  0  0  0  0  0  0
   53.1150   22.8780   45.4510 N   0  0  0  0  0  0  0  0  0  0  0  0
   54.2230   23.5850   46.0360 C   0  0  0  0  0  0  0  0  0  0  0  0
   55.0820   22.9700   46.9640 C   0  0  0  0  0  0  0  0  0  0  0  0
   56.1720   23.6710   47.4860 C   0  0  0  0  0  0  0  0  0  0  0  0
   56.4360   24.9760   47.0630 C   0  0  0  0  0  0  0  0  0  0  0  0
   55.6170   25.5870   46.1050 C   0  0  0  0  0  0  0  0  0  0  0  0
   55.9310   26.9100   45.6390 N   0  0  0  0  0  0  0  0  0  0  0  0
   57.2770   27.3900   45.5030 C   0  0  0  0  0  0  0  0  0  0  0  0
   58.3330   26.4860   45.6920 C   0  0  0  0  0  0  0  0  0  0  0  0
   59.6580   26.9160   45.6070 C   0  0  0  0  0  0  0  0  0  0  0  0
   59.9420   28.2490   45.3130 C   0  0  0  0  0  0  0  0  0  0  0  0
   58.9020   29.1560   45.0950 C   0  0  0  0  0  0  0  0  0  0  0  0
   57.5600   28.7460   45.1890 C   0  0  0  0  0  0  0  0  0  0  0  0
   56.4780   29.7120   44.8590 C   0  0  0  0  0  0  0  0  0  0  0  0
   55.3240   29.2780   44.6040 O   0  0  0  0  0  0  0  0  0  0  0  0
   56.7200   31.1200   44.7100 N   0  0  0  0  0  0  0  0  0  0  0  0
   57.6990   31.9250   45.3870 C   0  0  0  0  0  0  0  0  0  0  0  0
   58.1950   33.0630   44.7410 C   0  0  0  0  0  0  0  0  0  0  0  0
   59.1140   33.8980   45.3830 C   0  0  0  0  0  0  0  0  0  0  0  0
   59.5270   33.6240   46.6910 C   0  0  0  0  0  0  0  0  0  0  0  0
   60.4550   34.4810   47.3010 O   0  0  0  0  0  0  0  0  0  0  0  0
   61.6430   34.0800   47.9300 C   0  0  0  0  0  0  0  0  0  0  0  0
   62.6730   33.5480   47.1440 C   0  0  0  0  0  0  0  0  0  0  0  0
   63.8790   33.1550   47.7310 C   0  0  0  0  0  0  0  0  0  0  0  0
   64.0690   33.3020   49.1070 C   0  0  0  0  0  0  0  0  0  0  0  0
   63.0550   33.8490   49.8980 C   0  0  0  0  0  0  0  0  0  0  0  0
   61.8460   34.2420   49.3150 C   0  0  0  0  0  0  0  0  0  0  0  0
   59.0380   32.4770   47.3390 C   0  0  0  0  0  0  0  0  0  0  0  0
   58.1220   31.6420   46.6950 C   0  0  0  0  0  0  0  0  0  0  0  0
   54.4970   24.8950   45.6160 C   0  0  0  0  0  0  0  0  0  0  0  0
   50.2260   22.2868   45.6179 H   0  0  0  0  0  0  0  0  0  0  0  0
   49.9926   23.2279   44.1058 H   0  0  0  0  0  0  0  0  0  0  0  0
   51.0501   21.7759   44.1058 H   0  0  0  0  0  0  0  0  0  0  0  0
   53.2350   21.8600   45.2460 H   0  0  0  0  0  0  0  0  0  0  0  0
   54.8951   21.9331   47.2801 H   0  0  0  0  0  0  0  0  0  0  0  0
   56.8243   23.1939   48.2323 H   0  0  0  0  0  0  0  0  0  0  0  0
   57.2906   25.5260   47.4840 H   0  0  0  0  0  0  0  0  0  0  0  0
   55.1520   27.5400   45.3440 H   0  0  0  0  0  0  0  0  0  0  0  0
   58.1149   25.4299   45.9089 H   0  0  0  0  0  0  0  0  0  0  0  0
   60.4789   26.2027   45.7721 H   0  0  0  0  0  0  0  0  0  0  0  0
   60.9870   28.5872   45.2526 H   0  0  0  0  0  0  0  0  0  0  0  0
   59.1353   30.2020   44.8472 H   0  0  0  0  0  0  0  0  0  0  0  0
   57.8594   33.3021   43.7211 H   0  0  0  0  0  0  0  0  0  0  0  0
   59.5150   34.7764   44.8561 H   0  0  0  0  0  0  0  0  0  0  0  0
   62.5320   33.4389   46.0586 H   0  0  0  0  0  0  0  0  0  0  0  0
   64.6797   32.7293   47.1084 H   0  0  0  0  0  0  0  0  0  0  0  0
   65.0168   32.9872   49.5680 H   0  0  0  0  0  0  0  0  0  0  0  0
   63.2080   33.9706   50.9805 H   0  0  0  0  0  0  0  0  0  0  0  0
   61.0520   34.6784   49.9388 H   0  0  0  0  0  0  0  0  0  0  0  0
   59.3778   32.2359   48.3570 H   0  0  0  0  0  0  0  0  0  0  0  0
   57.7295   30.7566   47.2165 H   0  0  0  0  0  0  0  0  0  0  0  0
   53.8268   25.3861   44.8952 H   0  0  0  0  0  0  0  0  0  0  0  0
  1  2  1  0
  2  3  2  0
  2  4  1  0
  4  5  1  0
  5  6  2  0
  6  7  1  0
  7  8  2  0
  8  9  1  0
  9 10  1  0
 10 11  1  0
 11 12  2  0
 12 13  1  0
 13 14  2  0
 14 15  1  0
 15 16  2  0
 16 17  1  0
 17 18  2  0
 17 19  1  0
 19 20  1  0
 20 21  2  0
 21 22  1  0
 22 23  2  0
 23 24  1  0
 24 25  1  0
 25 26  2  0
 26 27  1  0
 27 28  2  0
 28 29  1  0
 29 30  2  0
 23 31  1  0
 31 32  2  0
  9 33  2  0
 33  5  1  0
 16 11  1  0
 32 20  1  0
 30 25  1  0
  1 34  1  0
  1 35  1  0
  1 36  1  0
  4 37  1  0
  6 38  1  0
  7 39  1  0
  8 40  1  0
 10 41  1  0
 12 42  1  0
 13 43  1  0
 14 44  1  0
 15 45  1  0
 21 46  1  0
 22 47  1  0
 26 48  1  0
 27 49  1  0
 28 50  1  0
 29 51  1  0
 30 52  1  0
 31 53  1  0
 32 54  1  0
 33 55  1  0
M  CHG  1  19  -1
M  END
>  <UniqueID>  (12) 
12

>  <SMILES>  (12) 
CC(=O)Nc1cccc(Nc2ccccc2C(=O)[N-]c2ccc(Oc3ccccc3)cc2)c1

>  <Energy>  (12) 
80.90430035014647

>  <Genealogy>  (12) 
CC(=O)Nc1cccc(Nc2ccccc2C(=O)[N-]c2ccc(Oc3ccccc3)cc2)c1 (protonated)
CC(=O)Nc1cccc(Nc2ccccc2C(=O)[N-]c2ccc(Oc3ccccc3)cc2)c1 (3D coordinates assigned)
CC(=O)Nc1cccc(Nc2ccccc2C(=O)[N-]c2ccc(Oc3ccccc3)cc2)c1 (optimized conformer: 80.90430035014647 kcal/mol)

>  <smiles>  (12) 
CC(=O)Nc1cccc(Nc2ccccc2C(=O)Nc2ccc(Oc3ccccc3)cc2)c1

>  <score_type>  (12) 
oracle

>  <origin>  (12) 
adg

>  <m_score__min__energy>  (12) 
-11.65

>  <m_primary>  (12) 
energy

$$$$
12:0
     RDKit          3D

 39 40  0  0  0  0  0  0  0  0999 V2000
   59.8720   28.9660   44.9630 C   0  0  0  0  0  0  0  0  0  0  0  0
   58.6070   29.6000   44.8060 O   0  0  0  0  0  0  0  0  0  0  0  0
   58.3360   30.9390   45.1350 C   0  0  0  0  0  0  0  0  0  0  0  0
   58.6890   31.4790   46.3890 C   0  0  0  0  0  0  0  0  0  0  0  0
   58.4110   32.8230   46.6970 C   0  0  0  0  0  0  0  0  0  0  0  0
   58.7610   33.4070   47.9260 O   0  0  0  0  0  0  0  0  0  0  0  0
   59.6270   34.5310   48.0900 C   0  0  0  0  0  0  0  0  0  0  0  0
   61.0720   34.1090   48.0230 C   0  0  0  0  0  0  0  0  0  0  0  0
   61.8310   33.9680   49.1970 C   0  0  0  0  0  0  0  0  0  0  0  0
   63.1720   33.5770   49.1260 C   0  0  0  0  0  0  0  0  0  0  0  0
   63.7660   33.3330   47.8850 C   0  0  0  0  0  0  0  0  0  0  0  0
   63.0210   33.4840   46.7110 C   0  0  0  0  0  0  0  0  0  0  0  0
   61.6790   33.8740   46.7780 C   0  0  0  0  0  0  0  0  0  0  0  0
   57.7600   33.6190   45.7520 C   0  0  0  0  0  0  0  0  0  0  0  0
   57.3990   33.0940   44.5110 C   0  0  0  0  0  0  0  0  0  0  0  0
   57.6900   31.7610   44.1880 C   0  0  0  0  0  0  0  0  0  0  0  0
   57.2660   31.2200   42.8410 C   0  0  0  0  0  0  0  0  0  0  0  0
   56.3060   30.0290   42.9780 C   0  0  0  0  0  0  0  0  0  0  0  0
   57.0220   28.7560   43.0860 N   0  0  0  0  0  0  0  0  0  0  0  0
   60.0956   28.8540   46.0342 H   0  0  0  0  0  0  0  0  0  0  0  0
   59.8465   27.9741   44.4881 H   0  0  0  0  0  0  0  0  0  0  0  0
   60.6514   29.5800   44.4881 H   0  0  0  0  0  0  0  0  0  0  0  0
   59.1873   30.8420   47.1346 H   0  0  0  0  0  0  0  0  0  0  0  0
   59.4269   35.2598   47.2907 H   0  0  0  0  0  0  0  0  0  0  0  0
   59.4370   34.9810   49.0756 H   0  0  0  0  0  0  0  0  0  0  0  0
   61.3689   34.1658   50.1754 H   0  0  0  0  0  0  0  0  0  0  0  0
   63.7599   33.4614   50.0485 H   0  0  0  0  0  0  0  0  0  0  0  0
   64.8198   33.0221   47.8314 H   0  0  0  0  0  0  0  0  0  0  0  0
   63.4905   33.2960   45.7342 H   0  0  0  0  0  0  0  0  0  0  0  0
   61.0972   33.9970   45.8526 H   0  0  0  0  0  0  0  0  0  0  0  0
   57.5300   34.6684   45.9882 H   0  0  0  0  0  0  0  0  0  0  0  0
   56.8813   33.7316   43.7792 H   0  0  0  0  0  0  0  0  0  0  0  0
   56.7619   32.0202   42.2792 H   0  0  0  0  0  0  0  0  0  0  0  0
   58.1671   30.8724   42.3145 H   0  0  0  0  0  0  0  0  0  0  0  0
   55.6929   30.1692   43.8805 H   0  0  0  0  0  0  0  0  0  0  0  0
   55.6808   29.9912   42.0738 H   0  0  0  0  0  0  0  0  0  0  0  0
   56.5900   28.0660   42.4300 H   0  0  0  0  0  0  0  0  0  0  0  0
   56.9490   28.3800   44.0580 H   0  0  0  0  0  0  0  0  0  0  0  0
   58.0280   28.8840   42.8270 H   0  0  0  0  0  0  0  0  0  0  0  0
  1  2  1  0
  2  3  1  0
  3  4  2  0
  4  5  1  0
  5  6  1  0
  6  7  1  0
  7  8  1  0
  8  9  2  0
  9 10  1  0
 10 11  2  0
 11 12  1  0
 12 13  2  0
  5 14  2  0
 14 15  1  0
 15 16  2  0
 16 17  1  0
 17 18  1  0
 18 19  1  0
 16  3  1  0
 13  8  1  0
  1 20  1  0
  1 21  1  0
  1 22  1  0
  4 23  1  0
  7 24  1  0
  7 25  1  0
  9 26  1  0
 10 27  1  0
 11 28  1  0
 12 29  1  0
 13 30  1  0
 14 31  1  0
 15 32  1  0
 17 33  1  0
 17 34  1  0
 18 35  1  0
 18 36  1  0
 19 37  1  0
 19 38  1  0
 19 39  1  0
M  CHG  1  19   1
M  END
>  <UniqueID>  (13) 
13

>  <SMILES>  (13) 
COc1cc(OCc2ccccc2)ccc1CC[NH3+]

>  <Energy>  (13) 
34.87140325714143

>  <Genealogy>  (13) 
COc1cc(OCc2ccccc2)ccc1CC[NH3+] (protonated)
COc1cc(OCc2ccccc2)ccc1CC[NH3+] (3D coordinates assigned)
COc1cc(OCc2ccccc2)ccc1CC[NH3+] (optimized conformer: 34.87140325714143 kcal/mol)

>  <smiles>  (13) 
COc1cc(OCc2ccccc2)ccc1CCN

>  <score_type>  (13) 
oracle

>  <origin>  (13) 
adg

>  <m_score__min__energy>  (13) 
-5.04

>  <m_primary>  (13) 
energy

$$$$
13:0
     RDKit          3D

 54 58  0  0  0  0  0  0  0  0999 V2000
   54.7860   26.7060   45.2980 H   0  0  0  0  0  0  0  0  0  0  0  0
   54.8770   25.7190   45.6250 N   0  0  0  0  0  0  0  0  0  0  0  0
   56.5620   25.3360   45.6210 S   0  0  0  0  0  0  0  0  0  0  0  0
   57.0260   25.1180   44.2090 O   0  0  0  0  0  0  0  0  0  0  0  0
   56.7850   24.0730   46.4030 O   0  0  0  0  0  0  0  0  0  0  0  0
   57.4670   26.6620   46.3430 C   0  0  0  0  0  0  0  0  0  0  0  0
   58.5460   26.4030   47.1990 C   0  0  0  0  0  0  0  0  0  0  0  0
   58.8359   25.3646   47.4175 H   0  0  0  0  0  0  0  0  0  0  0  0
   59.2550   27.4610   47.7760 C   0  0  0  0  0  0  0  0  0  0  0  0
   60.1161   27.2502   48.4272 H   0  0  0  0  0  0  0  0  0  0  0  0
   58.8770   28.7870   47.5310 C   0  0  0  0  0  0  0  0  0  0  0  0
   59.6500   29.8440   48.1210 N   0  0  0  0  0  0  0  0  0  0  0  0
   59.2860   30.6330   49.0920 C   0  0  0  0  0  0  0  0  0  0  0  0
   58.7870   30.1260   50.2520 N   0  0  0  0  0  0  0  0  0  0  0  0
   58.4540   30.9270   51.2950 C   0  0  0  0  0  0  0  0  0  0  0  0
   57.9380   30.3770   52.4740 C   0  0  0  0  0  0  0  0  0  0  0  0
   57.7960   29.2895   52.5589 H   0  0  0  0  0  0  0  0  0  0  0  0
   57.6030   31.2140   53.5450 C   0  0  0  0  0  0  0  0  0  0  0  0
   57.1984   30.7834   54.4728 H   0  0  0  0  0  0  0  0  0  0  0  0
   57.7820   32.5970   53.4370 C   0  0  0  0  0  0  0  0  0  0  0  0
   57.5159   33.2514   54.2802 H   0  0  0  0  0  0  0  0  0  0  0  0
   58.2980   33.1510   52.2610 C   0  0  0  0  0  0  0  0  0  0  0  0
   58.4372   34.2392   52.1806 H   0  0  0  0  0  0  0  0  0  0  0  0
   58.6380   32.3190   51.1840 C   0  0  0  0  0  0  0  0  0  0  0  0
   59.1440   32.8340   50.0290 N   0  0  0  0  0  0  0  0  0  0  0  0
   59.2740   33.8670   49.9380 H   0  0  0  0  0  0  0  0  0  0  0  0
   59.4710   32.0280   48.9760 C   0  0  0  0  0  0  0  0  0  0  0  0
   60.0080   32.6120   47.7690 N   0  0  0  0  0  0  0  0  0  0  0  0
   59.1340   32.8350   46.6410 C   0  0  0  0  0  0  0  0  0  0  0  0
   58.4360   34.0490   46.5110 C   0  0  0  0  0  0  0  0  0  0  0  0
   58.5639   34.8368   47.2680 H   0  0  0  0  0  0  0  0  0  0  0  0
   57.5800   34.2610   45.4250 C   0  0  0  0  0  0  0  0  0  0  0  0
   57.0371   35.2131   45.3310 H   0  0  0  0  0  0  0  0  0  0  0  0
   57.4140   33.2650   44.4600 C   0  0  0  0  0  0  0  0  0  0  0  0
   56.7430   33.4345   43.6050 H   0  0  0  0  0  0  0  0  0  0  0  0
   58.1000   32.0530   44.5800 C   0  0  0  0  0  0  0  0  0  0  0  0
   57.9671   31.2686   43.8203 H   0  0  0  0  0  0  0  0  0  0  0  0
   58.9550   31.8370   45.6650 C   0  0  0  0  0  0  0  0  0  0  0  0
   59.4912   30.8809   45.7563 H   0  0  0  0  0  0  0  0  0  0  0  0
   61.4180   32.9150   47.6750 C   0  0  0  0  0  0  0  0  0  0  0  0
   61.9200   33.6390   46.5780 C   0  0  0  0  0  0  0  0  0  0  0  0
   61.2330   33.9899   45.7938 H   0  0  0  0  0  0  0  0  0  0  0  0
   63.2870   33.9150   46.4790 C   0  0  0  0  0  0  0  0  0  0  0  0
   63.6718   34.4825   45.6189 H   0  0  0  0  0  0  0  0  0  0  0  0
   64.1650   33.4710   47.4710 C   0  0  0  0  0  0  0  0  0  0  0  0
   65.2402   33.6893   47.3922 H   0  0  0  0  0  0  0  0  0  0  0  0
   63.6760   32.7490   48.5640 C   0  0  0  0  0  0  0  0  0  0  0  0
   64.3677   32.3985   49.3442 H   0  0  0  0  0  0  0  0  0  0  0  0
   62.3110   32.4720   48.6670 C   0  0  0  0  0  0  0  0  0  0  0  0
   61.9321   31.9038   49.5293 H   0  0  0  0  0  0  0  0  0  0  0  0
   57.8100   29.0450   46.6510 C   0  0  0  0  0  0  0  0  0  0  0  0
   57.5305   30.0831   46.4179 H   0  0  0  0  0  0  0  0  0  0  0  0
   57.1040   27.9870   46.0720 C   0  0  0  0  0  0  0  0  0  0  0  0
   56.2587   28.1962   45.3999 H   0  0  0  0  0  0  0  0  0  0  0  0
  1  2  1  0
  2  3  1  0
  3  4  2  0
  3  5  2  0
  3  6  1  0
  6  7  2  0
  7  8  1  0
  7  9  1  0
  9 10  1  0
  9 11  2  0
 11 12  1  0
 12 13  2  0
 13 14  1  0
 14 15  1  0
 15 16  2  0
 16 17  1  0
 16 18  1  0
 18 19  1  0
 18 20  2  0
 20 21  1  0
 20 22  1  0
 22 23  1  0
 22 24  2  0
 24 25  1  0
 25 26  1  0
 25 27  2  0
 27 28  1  0
 28 29  1  0
 29 30  2  0
 30 31  1  0
 30 32  1  0
 32 33  1  0
 32 34  2  0
 34 35  1  0
 34 36  1  0
 36 37  1  0
 36 38  2  0
 38 39  1  0
 28 40  1  0
 40 41  2  0
 41 42  1  0
 41 43  1  0
 43 44  1  0
 43 45  2  0
 45 46  1  0
 45 47  1  0
 47 48  1  0
 47 49  2  0
 49 50  1  0
 11 51  1  0
 51 52  1  0
 51 53  2  0
 53 54  1  0
 53  6  1  0
 27 13  1  0
 38 29  1  0
 49 40  1  0
 24 15  1  0
M  CHG  3   2  -1  14  -1  25   1
M  END
>  <UniqueID>  (14) 
14

>  <SMILES>  (14) 
[NH-]S(=O)(=O)c1ccc(/N=c2\[n-]c3ccccc3[nH+]c2N(c2ccccc2)c2ccccc2)cc1

>  <Energy>  (14) 
82.77664426623343

>  <Genealogy>  (14) 
[NH-]S(=O)(=O)c1ccc(N=c2[n-]c3ccccc3[nH+]c2N(c2ccccc2)c2ccccc2)cc1 (protonated)
[NH-]S(=O)(=O)c1ccc(/N=c2\[n-]c3ccccc3[nH+]c2N(c2ccccc2)c2ccccc2)cc1 (cis-trans isomerization)
[NH-]S(=O)(=O)c1ccc(/N=c2\[n-]c3ccccc3[nH+]c2N(c2ccccc2)c2ccccc2)cc1 (3D coordinates assigned)
[NH-]S(=O)(=O)c1ccc(/N=c2\[n-]c3ccccc3[nH+]c2N(c2ccccc2)c2ccccc2)cc1 (optimized conformer: 82.77664426623343 kcal/mol)

>  <smiles>  (14) 
NS(=O)(=O)c1ccc(N=c2[nH]c3ccccc3nc2N(c2ccccc2)c2ccccc2)cc1

>  <score_type>  (14) 
oracle

>  <origin>  (14) 
adg

>  <m_score__min__energy>  (14) 
-12.029999999999999

>  <m_primary>  (14) 
energy

$$$$
14:0
     RDKit          3D

 36 38  0  0  0  0  0  0  0  0999 V2000
   59.4830   35.4810   45.2830 C   0  0  0  0  0  0  0  0  0  0  0  0
   58.7500   34.5610   44.4790 O   0  0  0  0  0  0  0  0  0  0  0  0
   58.6920   33.1780   44.7100 C   0  0  0  0  0  0  0  0  0  0  0  0
   58.0860   32.2850   43.8050 C   0  0  0  0  0  0  0  0  0  0  0  0
   58.0540   30.9160   44.0830 C   0  0  0  0  0  0  0  0  0  0  0  0
   58.6290   30.4130   45.2610 C   0  0  0  0  0  0  0  0  0  0  0  0
   58.5840   28.9570   45.5540 C   0  0  0  0  0  0  0  0  0  0  0  0
   59.7790   28.2400   45.7000 C   0  0  0  0  0  0  0  0  0  0  0  0
   59.7650   26.9380   45.9550 O   0  0  0  0  0  0  0  0  0  0  0  0
   58.6410   26.2420   46.0870 C   0  0  0  0  0  0  0  0  0  0  0  0
   58.7180   24.8730   46.3520 C   0  0  0  0  0  0  0  0  0  0  0  0
   57.5510   24.1060   46.4990 C   0  0  0  0  0  0  0  0  0  0  0  0
   57.5900   22.7280   46.7660 O   0  0  0  0  0  0  0  0  0  0  0  0
   57.3270   21.7120   45.8040 C   0  0  0  0  0  0  0  0  0  0  0  0
   56.3020   24.7260   46.3770 C   0  0  0  0  0  0  0  0  0  0  0  0
   55.1480   23.9620   46.5230 O   0  0  0  0  0  0  0  0  0  0  0  0
   56.2050   26.1040   46.1090 C   0  0  0  0  0  0  0  0  0  0  0  0
   54.9470   26.7010   45.9900 O   0  0  0  0  0  0  0  0  0  0  0  0
   57.3830   26.8750   45.9620 C   0  0  0  0  0  0  0  0  0  0  0  0
   57.3670   28.2630   45.6960 C   0  0  0  0  0  0  0  0  0  0  0  0
   56.2760   28.8910   45.6070 O   0  0  0  0  0  0  0  0  0  0  0  0
   59.2270   31.3070   46.1640 C   0  0  0  0  0  0  0  0  0  0  0  0
   59.2570   32.6780   45.8870 C   0  0  0  0  0  0  0  0  0  0  0  0
   59.3070   35.2601   46.3461 H   0  0  0  0  0  0  0  0  0  0  0  0
   60.5564   35.3869   45.0618 H   0  0  0  0  0  0  0  0  0  0  0  0
   59.1515   36.5063   45.0618 H   0  0  0  0  0  0  0  0  0  0  0  0
   57.6365   32.6665   42.8764 H   0  0  0  0  0  0  0  0  0  0  0  0
   57.5742   30.2264   43.3728 H   0  0  0  0  0  0  0  0  0  0  0  0
   60.7415   28.7635   45.6019 H   0  0  0  0  0  0  0  0  0  0  0  0
   59.7022   24.3909   46.4465 H   0  0  0  0  0  0  0  0  0  0  0  0
   57.0837   20.7719   46.3208 H   0  0  0  0  0  0  0  0  0  0  0  0
   56.4776   22.0146   45.1740 H   0  0  0  0  0  0  0  0  0  0  0  0
   58.2166   21.5645   45.1740 H   0  0  0  0  0  0  0  0  0  0  0  0
   54.1130   26.2970   46.3990 H   0  0  0  0  0  0  0  0  0  0  0  0
   59.6743   30.9271   47.0944 H   0  0  0  0  0  0  0  0  0  0  0  0
   59.7292   33.3685   46.6014 H   0  0  0  0  0  0  0  0  0  0  0  0
  1  2  1  0
  2  3  1  0
  3  4  2  0
  4  5  1  0
  5  6  2  0
  6  7  1  0
  7  8  2  0
  8  9  1  0
  9 10  1  0
 10 11  2  0
 11 12  1  0
 12 13  1  0
 13 14  1  0
 12 15  2  0
 15 16  1  0
 15 17  1  0
 17 18  1  0
 17 19  2  0
 19 20  1  0
 20 21  2  0
  6 22  1  0
 22 23  2  0
 23  3  1  0
 20  7  1  0
 19 10  1  0
  1 24  1  0
  1 25  1  0
  1 26  1  0
  4 27  1  0
  5 28  1  0
  8 29  1  0
 11 30  1  0
 14 31  1  0
 14 32  1  0
 14 33  1  0
 18 34  1  0
 22 35  1  0
 23 36  1  0
M  CHG  1  16  -1
M  END
>  <UniqueID>  (15) 
15

>  <SMILES>  (15) 
COc1ccc(-c2coc3cc(OC)c([O-])c(O)c3c2=O)cc1

>  <Energy>  (15) 
52.014970033377594

>  <Genealogy>  (15) 
COc1ccc(-c2coc3cc(OC)c([O-])c(O)c3c2=O)cc1 (protonated)
COc1ccc(-c2coc3cc(OC)c([O-])c(O)c3c2=O)cc1 (3D coordinates assigned)
COc1ccc(-c2coc3cc(OC)c([O-])c(O)c3c2=O)cc1 (optimized conformer: 52.014970033377594 kcal/mol)

>  <smiles>  (15) 
COc1ccc(-c2coc3cc(OC)c(O)c(O)c3c2=O)cc1

>  <score_type>  (15) 
oracle

>  <origin>  (15) 
adg

>  <m_score__min__energy>  (15) 
-9.5700000000000003

>  <m_primary>  (15) 
energy

$$$$
15:0
     RDKit          3D

 31 32  0  0  0  0  0  0  0  0999 V2000
   54.6210   28.2580   53.0720 O   0  0  0  0  0  0  0  0  0  0  0  0
   54.7320   29.3820   52.5090 C   0  0  0  0  0  0  0  0  0  0  0  0
   56.0030   29.7960   51.9940 N   0  0  0  0  0  0  0  0  0  0  0  0
   57.1290   30.1880   52.8340 C   0  0  0  0  0  0  0  0  0  0  0  0
   57.2340   31.7140   52.9090 C   0  0  0  0  0  0  0  0  0  0  0  0
   58.0900   32.2400   51.7890 C   0  0  0  0  0  0  0  0  0  0  0  0
   58.0560   31.6290   50.5240 C   0  0  0  0  0  0  0  0  0  0  0  0
   58.8270   32.1370   49.4750 C   0  0  0  0  0  0  0  0  0  0  0  0
   59.6310   33.2630   49.6780 C   0  0  0  0  0  0  0  0  0  0  0  0
   59.6610   33.8840   50.9290 C   0  0  0  0  0  0  0  0  0  0  0  0
   58.8890   33.3790   51.9810 C   0  0  0  0  0  0  0  0  0  0  0  0
   53.5500   30.2660   52.3780 C   0  0  0  0  0  0  0  0  0  0  0  0
   52.7000   30.4910   53.4790 C   0  0  0  0  0  0  0  0  0  0  0  0
   51.5860   31.3250   53.3530 C   0  0  0  0  0  0  0  0  0  0  0  0
   51.3050   31.9440   52.1320 C   0  0  0  0  0  0  0  0  0  0  0  0
   50.1970   32.7720   52.0110 O   0  0  0  0  0  0  0  0  0  0  0  0
   52.1420   31.7280   51.0340 C   0  0  0  0  0  0  0  0  0  0  0  0
   53.2570   30.8950   51.1530 C   0  0  0  0  0  0  0  0  0  0  0  0
   56.9831   29.7846   53.8469 H   0  0  0  0  0  0  0  0  0  0  0  0
   58.0559   29.7878   52.3973 H   0  0  0  0  0  0  0  0  0  0  0  0
   56.2273   32.1502   52.8305 H   0  0  0  0  0  0  0  0  0  0  0  0
   57.6944   31.9917   53.8686 H   0  0  0  0  0  0  0  0  0  0  0  0
   57.4197   30.7470   50.3588 H   0  0  0  0  0  0  0  0  0  0  0  0
   58.8014   31.6507   48.4887 H   0  0  0  0  0  0  0  0  0  0  0  0
   60.2400   33.6599   48.8524 H   0  0  0  0  0  0  0  0  0  0  0  0
   60.2922   34.7709   51.0872 H   0  0  0  0  0  0  0  0  0  0  0  0
   58.9079   33.8759   52.9622 H   0  0  0  0  0  0  0  0  0  0  0  0
   52.9146   30.0073   54.4433 H   0  0  0  0  0  0  0  0  0  0  0  0
   50.9279   31.4949   54.2179 H   0  0  0  0  0  0  0  0  0  0  0  0
   51.9221   32.2156   50.0728 H   0  0  0  0  0  0  0  0  0  0  0  0
   53.9105   30.7294   50.2838 H   0  0  0  0  0  0  0  0  0  0  0  0
  1  2  2  0
  2  3  1  0
  3  4  1  0
  4  5  1  0
  5  6  1  0
  6  7  2  0
  7  8  1  0
  8  9  2  0
  9 10  1  0
 10 11  2  0
  2 12  1  0
 12 13  2  0
 13 14  1  0
 14 15  2  0
 15 16  1  0
 15 17  1  0
 17 18  2  0
 11  6  1  0
 18 12  1  0
  4 19  1  0
  4 20  1  0
  5 21  1  0
  5 22  1  0
  7 23  1  0
  8 24  1  0
  9 25  1  0
 10 26  1  0
 11 27  1  0
 13 28  1  0
 14 29  1  0
 17 30  1  0
 18 31  1  0
M  CHG  2   3  -1  16  -1
M  END
>  <UniqueID>  (16) 
16

>  <SMILES>  (16) 
O=C([N-]CCc1ccccc1)c1ccc([O-])cc1

>  <Energy>  (16) 
28.069624023415056

>  <Genealogy>  (16) 
O=C([N-]CCc1ccccc1)c1ccc([O-])cc1 (protonated)
O=C([N-]CCc1ccccc1)c1ccc([O-])cc1 (3D coordinates assigned)
O=C([N-]CCc1ccccc1)c1ccc([O-])cc1 (optimized conformer: 28.069624023415056 kcal/mol)

>  <smiles>  (16) 
O=C(NCCc1ccccc1)c1ccc(O)cc1

>  <score_type>  (16) 
oracle

>  <origin>  (16) 
adg

>  <m_score__min__energy>  (16) 
-10.960000000000001

>  <m_primary>  (16) 
energy

$$$$
16:0
     RDKit          3D

 46 48  0  0  0  0  0  0  0  0999 V2000
   63.3820   33.8700   46.3790 C   0  0  0  0  0  0  0  0  0  0  0  0
   63.7240   33.2830   47.3750 C   0  0  0  0  0  0  0  0  0  0  0  0
   64.1410   32.5710   48.5880 C   0  0  0  0  0  0  0  0  0  0  0  0
   63.6740   33.2900   49.7800 N   0  0  0  0  0  0  0  0  0  0  0  0
   64.6460   33.7270   50.7880 C   0  0  0  0  0  0  0  0  0  0  0  0
   62.2590   33.4650   50.0080 C   0  0  0  0  0  0  0  0  0  0  0  0
   61.8600   34.2350   50.9240 O   0  0  0  0  0  0  0  0  0  0  0  0
   61.2520   32.7520   49.1890 C   0  0  0  0  0  0  0  0  0  0  0  0
   60.5430   33.4670   48.2710 N   0  0  0  0  0  0  0  0  0  0  0  0
   59.6290   32.8730   47.4610 C   0  0  0  0  0  0  0  0  0  0  0  0
   58.9130   33.6300   46.5220 C   0  0  0  0  0  0  0  0  0  0  0  0
   57.9790   33.0150   45.6860 C   0  0  0  0  0  0  0  0  0  0  0  0
   57.7380   31.6410   45.7820 C   0  0  0  0  0  0  0  0  0  0  0  0
   56.7740   31.0440   44.9020 N   0  0  0  0  0  0  0  0  0  0  0  0
   56.3890   29.6620   44.8800 C   0  0  0  0  0  0  0  0  0  0  0  0
   55.1840   29.3770   44.6460 O   0  0  0  0  0  0  0  0  0  0  0  0
   57.3500   28.5720   45.1710 C   0  0  0  0  0  0  0  0  0  0  0  0
   56.9800   27.4800   45.9790 C   0  0  0  0  0  0  0  0  0  0  0  0
   57.8950   26.4590   46.2510 C   0  0  0  0  0  0  0  0  0  0  0  0
   59.1820   26.5100   45.7100 C   0  0  0  0  0  0  0  0  0  0  0  0
   59.5540   27.5800   44.8930 C   0  0  0  0  0  0  0  0  0  0  0  0
   58.6430   28.6040   44.6190 C   0  0  0  0  0  0  0  0  0  0  0  0
   58.4760   30.8720   46.6990 C   0  0  0  0  0  0  0  0  0  0  0  0
   59.4140   31.4860   47.5510 C   0  0  0  0  0  0  0  0  0  0  0  0
   60.1550   30.7560   48.4950 C   0  0  0  0  0  0  0  0  0  0  0  0
   59.9950   29.5050   48.5780 O   0  0  0  0  0  0  0  0  0  0  0  0
   61.0450   31.3970   49.3230 N   0  0  0  0  0  0  0  0  0  0  0  0
   61.8000   30.6230   50.3270 C   0  0  0  0  0  0  0  0  0  0  0  0
   63.0700   34.4056   45.4703 H   0  0  0  0  0  0  0  0  0  0  0  0
   63.7108   31.5586   48.5818 H   0  0  0  0  0  0  0  0  0  0  0  0
   65.2391   32.5106   48.6108 H   0  0  0  0  0  0  0  0  0  0  0  0
   64.2390   33.5440   51.7934 H   0  0  0  0  0  0  0  0  0  0  0  0
   65.5822   33.1632   50.6632 H   0  0  0  0  0  0  0  0  0  0  0  0
   64.8457   34.8015   50.6632 H   0  0  0  0  0  0  0  0  0  0  0  0
   60.7250   34.4930   48.1740 H   0  0  0  0  0  0  0  0  0  0  0  0
   59.0881   34.7132   46.4439 H   0  0  0  0  0  0  0  0  0  0  0  0
   57.4289   33.6156   44.9466 H   0  0  0  0  0  0  0  0  0  0  0  0
   55.9645   27.4300   46.3988 H   0  0  0  0  0  0  0  0  0  0  0  0
   57.6014   25.6144   46.8917 H   0  0  0  0  0  0  0  0  0  0  0  0
   59.9023   25.7076   45.9274 H   0  0  0  0  0  0  0  0  0  0  0  0
   60.5663   27.6169   44.4642 H   0  0  0  0  0  0  0  0  0  0  0  0
   58.9391   29.4397   43.9679 H   0  0  0  0  0  0  0  0  0  0  0  0
   58.3197   29.7844   46.7511 H   0  0  0  0  0  0  0  0  0  0  0  0
   61.4949   30.9358   51.3365 H   0  0  0  0  0  0  0  0  0  0  0  0
   61.5911   29.5509   50.1965 H   0  0  0  0  0  0  0  0  0  0  0  0
   62.8769   30.8052   50.1965 H   0  0  0  0  0  0  0  0  0  0  0  0
  1  2  3  0
  2  3  1  0
  3  4  1  0
  4  5  1  0
  4  6  1  0
  6  7  2  0
  6  8  1  0
  8  9  2  0
  9 10  1  0
 10 11  2  0
 11 12  1  0
 12 13  2  0
 13 14  1  0
 14 15  1  0
 15 16  2  0
 15 17  1  0
 17 18  2  0
 18 19  1  0
 19 20  2  0
 20 21  1  0
 21 22  2  0
 13 23  1  0
 23 24  2  0
 24 25  1  0
 25 26  2  0
 25 27  1  0
 27 28  1  0
 27  8  1  0
 24 10  1  0
 22 17  1  0
  1 29  1  0
  3 30  1  0
  3 31  1  0
  5 32  1  0
  5 33  1  0
  5 34  1  0
  9 35  1  0
 11 36  1  0
 12 37  1  0
 18 38  1  0
 19 39  1  0
 20 40  1  0
 21 41  1  0
 22 42  1  0
 23 43  1  0
 28 44  1  0
 28 45  1  0
 28 46  1  0
M  CHG  2   9   1  14  -1
M  END
>  <UniqueID>  (17) 
17

>  <SMILES>  (17) 
C#CCN(C)C(=O)c1[nH+]c2ccc([N-]C(=O)c3ccccc3)cc2c(=O)n1C

>  <Energy>  (17) 
65.36661842685334

>  <Genealogy>  (17) 
C#CCN(C)C(=O)c1[nH+]c2ccc([N-]C(=O)c3ccccc3)cc2c(=O)n1C (protonated)
C#CCN(C)C(=O)c1[nH+]c2ccc([N-]C(=O)c3ccccc3)cc2c(=O)n1C (3D coordinates assigned)
C#CCN(C)C(=O)c1[nH+]c2ccc([N-]C(=O)c3ccccc3)cc2c(=O)n1C (optimized conformer: 65.36661842685334 kcal/mol)

>  <smiles>  (17) 
C#CCN(C)C(=O)c1nc2ccc(NC(=O)c3ccccc3)cc2c(=O)n1C

>  <score_type>  (17) 
oracle

>  <origin>  (17) 
adg

>  <m_score__min__energy>  (17) 
-8.4299999999999997

>  <m_primary>  (17) 
energy

$$$$
17:0
     RDKit          3D

 55 58  0  0  1  0  0  0  0  0999 V2000
   59.6860   35.4920   46.0950 C   0  0  0  0  0  0  0  0  0  0  0  0
   58.8890   34.6730   46.9310 O   0  0  0  0  0  0  0  0  0  0  0  0
   59.2250   33.3500   47.1540 C   0  0  0  0  0  0  0  0  0  0  0  0
   60.3760   32.8570   46.5870 C   0  0  0  0  0  0  0  0  0  0  0  0
   60.7510   31.5610   46.7750 C   0  0  0  0  0  0  0  0  0  0  0  0
   60.0120   30.6530   47.5430 C   0  0  0  0  0  0  0  0  0  0  0  0
   60.4450   29.2850   47.7190 C   0  0  0  0  0  0  0  0  0  0  0  0
   60.0870   28.2730   46.9560 C   0  0  0  0  0  0  0  0  0  0  0  0
   58.7240   28.0200   46.5110 C   0  0  0  0  0  0  0  0  0  0  0  0
   58.0530   26.8400   46.7300 C   0  0  0  0  0  0  0  0  0  0  0  0
   56.7480   26.6260   46.2930 C   0  0  0  0  0  0  0  0  0  0  0  0
   56.1370   25.4980   46.5150 N   0  0  0  0  0  0  0  0  0  0  0  0
   56.9620   24.3070   46.6120 C   0  0  0  0  0  0  0  0  0  0  0  0
   56.8520   23.5780   45.3140 C   0  0  0  0  0  0  0  0  0  0  0  0
   55.8880   23.9570   44.3800 C   0  0  0  0  0  0  0  0  0  0  0  0
   55.7960   23.2770   43.1830 C   0  0  0  0  0  0  0  0  0  0  0  0
   56.6280   22.2250   42.8690 C   0  0  0  0  0  0  0  0  0  0  0  0
   57.5800   21.8600   43.8020 C   0  0  0  0  0  0  0  0  0  0  0  0
   57.6880   22.5240   44.9980 C   0  0  0  0  0  0  0  0  0  0  0  0
   56.1190   27.6140   45.6290 N   0  0  0  0  0  0  0  0  0  0  0  0
   56.7820   28.7760   45.4140 C   0  0  0  0  0  0  0  0  0  0  0  0
   56.1310   29.6870   44.7740 N   0  0  0  0  0  0  0  0  0  0  0  0
   56.8060   30.7080   44.0500 C   0  0  0  0  0  0  0  0  0  0  0  0
   57.4360   31.7190   44.7500 C   0  0  0  0  0  0  0  0  0  0  0  0
   58.1140   32.7430   44.0910 C   0  0  0  0  0  0  0  0  0  0  0  0
   58.1370   32.7190   42.7030 C   0  0  0  0  0  0  0  0  0  0  0  0
   57.5070   31.7090   42.0040 C   0  0  0  0  0  0  0  0  0  0  0  0
   56.8330   30.6890   42.6560 C   0  0  0  0  0  0  0  0  0  0  0  0
   58.0430   28.9790   45.8390 N   0  0  0  0  0  0  0  0  0  0  0  0
   58.8560   31.1740   48.1050 C   0  0  0  0  0  0  0  0  0  0  0  0
   58.4670   32.4900   47.9190 C   0  0  0  0  0  0  0  0  0  0  0  0
   60.3194   36.1429   46.7155 H   0  0  0  0  0  0  0  0  0  0  0  0
   60.3225   34.8583   45.4600 H   0  0  0  0  0  0  0  0  0  0  0  0
   59.0352   36.1111   45.4600 H   0  0  0  0  0  0  0  0  0  0  0  0
   61.0037   33.5189   45.9723 H   0  0  0  0  0  0  0  0  0  0  0  0
   61.6795   31.2108   46.3004 H   0  0  0  0  0  0  0  0  0  0  0  0
   61.1268   29.0727   48.5557 H   0  0  0  0  0  0  0  0  0  0  0  0
   60.8705   27.5717   46.6332 H   0  0  0  0  0  0  0  0  0  0  0  0
   58.5674   26.0328   47.2720 H   0  0  0  0  0  0  0  0  0  0  0  0
   58.0090   24.5894   46.7966 H   0  0  0  0  0  0  0  0  0  0  0  0
   56.6266   23.6700   47.4437 H   0  0  0  0  0  0  0  0  0  0  0  0
   55.2057   24.7923   44.5962 H   0  0  0  0  0  0  0  0  0  0  0  0
   55.0319   23.5856   42.4543 H   0  0  0  0  0  0  0  0  0  0  0  0
   56.5379   21.6943   41.9097 H   0  0  0  0  0  0  0  0  0  0  0  0
   58.2613   21.0247   43.5826 H   0  0  0  0  0  0  0  0  0  0  0  0
   58.4561   22.2107   45.7204 H   0  0  0  0  0  0  0  0  0  0  0  0
   55.1390   27.4670   45.2940 H   0  0  0  0  0  0  0  0  0  0  0  0
   57.4018   31.7156   45.8495 H   0  0  0  0  0  0  0  0  0  0  0  0
   58.6151   33.5450   44.6529 H   0  0  0  0  0  0  0  0  0  0  0  0
   58.6632   33.5138   42.1541 H   0  0  0  0  0  0  0  0  0  0  0  0
   57.5408   31.7141   40.9045 H   0  0  0  0  0  0  0  0  0  0  0  0
   56.3340   29.8880   42.0907 H   0  0  0  0  0  0  0  0  0  0  0  0
   58.4730   29.8970   45.6320 H   0  0  0  0  0  0  0  0  0  0  0  0
   58.2246   30.5173   48.7215 H   0  0  0  0  0  0  0  0  0  0  0  0
   57.5408   32.8537   48.3880 H   0  0  0  0  0  0  0  0  0  0  0  0
  1  2  1  0
  2  3  1  0
  3  4  2  0
  4  5  1  0
  5  6  2  0
  6  7  1  0
  7  8  2  0
  8  9  1  0
  9 10  2  0
 10 11  1  0
 11 12  2  0
 12 13  1  0
 13 14  1  0
 14 15  2  0
 15 16  1  0
 16 17  2  0
 17 18  1  0
 18 19  2  0
 11 20  1  0
 20 21  1  0
 21 22  2  0
 22 23  1  0
 23 24  2  0
 24 25  1  0
 25 26  2  0
 26 27  1  0
 27 28  2  0
 21 29  1  0
  6 30  1  0
 30 31  2  0
 31  3  1  0
 29  9  1  0
 19 14  1  0
 28 23  1  0
  1 32  1  0
  1 33  1  0
  1 34  1  0
  4 35  1  0
  5 36  1  0
  7 37  1  0
  8 38  1  0
 10 39  1  0
 13 40  1  0
 13 41  1  0
 15 42  1  0
 16 43  1  0
 17 44  1  0
 18 45  1  0
 19 46  1  0
 20 47  1  0
 24 48  1  0
 25 49  1  0
 26 50  1  0
 27 51  1  0
 28 52  1  0
 29 53  1  0
 30 54  1  0
 31 55  1  0
M  END
>  <smiles>  (18) 
COc1ccc(C=Cc2cc(=NCc3ccccc3)[nH]c(=Nc3ccccc3)[nH]2)cc1

>  <score_type>  (18) 
oracle

>  <origin>  (18) 
adg

>  <m_score__min__energy>  (18) 
-9.3800000000000008

>  <m_primary>  (18) 
energy

$$$$
18:0
     RDKit          3D

 21 22  0  0  0  0  0  0  0  0999 V2000
   58.7250   25.8460   47.5420 O   0  0  0  0  0  0  0  0  0  0  0  0
   57.8390   26.4490   46.8770 C   0  0  0  0  0  0  0  0  0  0  0  0
   58.1290   27.6700   46.2710 C   0  0  0  0  0  0  0  0  0  0  0  0
   57.1320   28.3310   45.5390 C   0  0  0  0  0  0  0  0  0  0  0  0
   57.4080   29.6380   44.8900 C   0  0  0  0  0  0  0  0  0  0  0  0
   56.9110   29.9110   43.6020 C   0  0  0  0  0  0  0  0  0  0  0  0
   57.1710   31.1400   42.9880 C   0  0  0  0  0  0  0  0  0  0  0  0
   57.9300   32.1080   43.6510 C   0  0  0  0  0  0  0  0  0  0  0  0
   58.4300   31.8480   44.9280 C   0  0  0  0  0  0  0  0  0  0  0  0
   58.1730   30.6210   45.5470 C   0  0  0  0  0  0  0  0  0  0  0  0
   55.8970   27.7540   45.4390 N   0  0  0  0  0  0  0  0  0  0  0  0
   55.6270   26.5820   46.0190 N   0  0  0  0  0  0  0  0  0  0  0  0
   56.5590   25.9080   46.7380 C   0  0  0  0  0  0  0  0  0  0  0  0
   56.2630   24.8070   47.2710 O   0  0  0  0  0  0  0  0  0  0  0  0
   59.1319   28.1118   46.3661 H   0  0  0  0  0  0  0  0  0  0  0  0
   56.3139   29.1524   43.0747 H   0  0  0  0  0  0  0  0  0  0  0  0
   56.7775   31.3452   41.9815 H   0  0  0  0  0  0  0  0  0  0  0  0
   58.1334   33.0745   43.1667 H   0  0  0  0  0  0  0  0  0  0  0  0
   59.0278   32.6105   45.4487 H   0  0  0  0  0  0  0  0  0  0  0  0
   58.5707   30.4223   46.5532 H   0  0  0  0  0  0  0  0  0  0  0  0
   55.1440   28.2150   44.8820 H   0  0  0  0  0  0  0  0  0  0  0  0
  1  2  2  0
  2  3  1  0
  3  4  2  0
  4  5  1  0
  5  6  2  0
  6  7  1  0
  7  8  2  0
  8  9  1  0
  9 10  2  0
  4 11  1  0
 11 12  1  0
 12 13  1  0
 13 14  2  0
 13  2  1  0
 10  5  1  0
  3 15  1  0
  6 16  1  0
  7 17  1  0
  8 18  1  0
  9 19  1  0
 10 20  1  0
 11 21  1  0
M  CHG  1  12  -1
M  END
>  <UniqueID>  (19) 
18

>  <SMILES>  (19) 
O=c1cc(-c2ccccc2)[nH][n-]c1=O

>  <Energy>  (19) 
28.246063191192054

>  <Genealogy>  (19) 
O=c1cc(-c2ccccc2)[nH][n-]c1=O (protonated)
O=c1cc(-c2ccccc2)[nH][n-]c1=O (3D coordinates assigned)
O=c1cc(-c2ccccc2)[nH][n-]c1=O (optimized conformer: 28.246063191192054 kcal/mol)

>  <smiles>  (19) 
O=c1cc(-c2ccccc2)[nH][nH]c1=O

>  <score_type>  (19) 
oracle

>  <origin>  (19) 
adg

>  <m_score__min__energy>  (19) 
-8.75

>  <m_primary>  (19) 
energy

$$$$
19:0
     RDKit          3D

 35 36  0  0  0  0  0  0  0  0999 V2000
   56.6180   24.0330   43.0450 C   0  0  0  0  0  0  0  0  0  0  0  0
   57.2610   23.0710   43.7240 C   0  0  0  0  0  0  0  0  0  0  0  0
   57.0130   21.6290   43.3710 C   0  0  0  0  0  0  0  0  0  0  0  0
   58.2140   23.4370   44.8380 C   0  0  0  0  0  0  0  0  0  0  0  0
   57.7210   24.6070   45.5800 N   0  0  0  0  0  0  0  0  0  0  0  0
   56.6280   24.4510   46.5130 C   0  0  0  0  0  0  0  0  0  0  0  0
   56.8150   24.6740   47.7400 O   0  0  0  0  0  0  0  0  0  0  0  0
   55.2800   24.0310   46.0590 C   0  0  0  0  0  0  0  0  0  0  0  0
   54.3170   24.9780   45.6690 C   0  0  0  0  0  0  0  0  0  0  0  0
   54.6200   26.3350   45.6610 O   0  0  0  0  0  0  0  0  0  0  0  0
   53.0820   24.5690   45.2720 N   0  0  0  0  0  0  0  0  0  0  0  0
   52.7640   23.2470   45.2290 C   0  0  0  0  0  0  0  0  0  0  0  0
   51.6180   22.8830   44.8570 O   0  0  0  0  0  0  0  0  0  0  0  0
   53.6840   22.3150   45.5850 N   0  0  0  0  0  0  0  0  0  0  0  0
   54.9270   22.6730   45.9930 C   0  0  0  0  0  0  0  0  0  0  0  0
   55.7480   21.7770   46.3250 O   0  0  0  0  0  0  0  0  0  0  0  0
   58.4650   25.8420   45.5310 C   0  0  0  0  0  0  0  0  0  0  0  0
   58.1530   26.8250   44.5770 C   0  0  0  0  0  0  0  0  0  0  0  0
   58.8760   28.0220   44.5340 C   0  0  0  0  0  0  0  0  0  0  0  0
   59.9170   28.2440   45.4400 C   0  0  0  0  0  0  0  0  0  0  0  0
   60.2350   27.2720   46.3910 C   0  0  0  0  0  0  0  0  0  0  0  0
   59.5140   26.0750   46.4380 C   0  0  0  0  0  0  0  0  0  0  0  0
   56.7905   25.0906   43.2933 H   0  0  0  0  0  0  0  0  0  0  0  0
   55.9183   23.7641   42.2400 H   0  0  0  0  0  0  0  0  0  0  0  0
   56.9114   21.0380   44.2932 H   0  0  0  0  0  0  0  0  0  0  0  0
   56.0880   21.5498   42.7809 H   0  0  0  0  0  0  0  0  0  0  0  0
   57.8583   21.2453   42.7809 H   0  0  0  0  0  0  0  0  0  0  0  0
   58.3076   22.5852   45.5276 H   0  0  0  0  0  0  0  0  0  0  0  0
   59.1927   23.6825   44.3999 H   0  0  0  0  0  0  0  0  0  0  0  0
   52.3720   25.2820   44.9880 H   0  0  0  0  0  0  0  0  0  0  0  0
   57.3364   26.6527   43.8604 H   0  0  0  0  0  0  0  0  0  0  0  0
   58.6250   28.7891   43.7866 H   0  0  0  0  0  0  0  0  0  0  0  0
   60.4860   29.1847   45.4039 H   0  0  0  0  0  0  0  0  0  0  0  0
   61.0538   27.4484   47.1040 H   0  0  0  0  0  0  0  0  0  0  0  0
   59.7686   25.3118   47.1881 H   0  0  0  0  0  0  0  0  0  0  0  0
  1  2  2  0
  2  3  1  0
  2  4  1  0
  4  5  1  0
  5  6  1  0
  6  7  2  0
  6  8  1  0
  8  9  2  0
  9 10  1  0
  9 11  1  0
 11 12  1  0
 12 13  2  0
 12 14  1  0
 14 15  1  0
 15 16  2  0
  5 17  1  0
 17 18  2  0
 18 19  1  0
 19 20  2  0
 20 21  1  0
 21 22  2  0
 15  8  1  0
 22 17  1  0
  1 23  1  0
  1 24  1  0
  3 25  1  0
  3 26  1  0
  3 27  1  0
  4 28  1  0
  4 29  1  0
 11 30  1  0
 18 31  1  0
 19 32  1  0
 20 33  1  0
 21 34  1  0
 22 35  1  0
M  CHG  2  10  -1  14  -1
M  END
>  <UniqueID>  (20) 
19

>  <SMILES>  (20) 
C=C(C)CN(C(=O)c1c([O-])[nH]c(=O)[n-]c1=O)c1ccccc1

>  <Energy>  (20) 
42.984023222377125

>  <Genealogy>  (20) 
C=C(C)CN(C(=O)c1c([O-])[nH]c(=O)[n-]c1=O)c1ccccc1 (protonated)
C=C(C)CN(C(=O)c1c([O-])[nH]c(=O)[n-]c1=O)c1ccccc1 (3D coordinates assigned)
C=C(C)CN(C(=O)c1c([O-])[nH]c(=O)[n-]c1=O)c1ccccc1 (optimized conformer: 42.984023222377125 kcal/mol)

>  <smiles>  (20) 
C=C(C)CN(C(=O)c1c(O)[nH]c(=O)[nH]c1=O)c1ccccc1

>  <score_type>  (20) 
oracle

>  <origin>  (20) 
adg

>  <m_score__min__energy>  (20) 
-11.93

>  <m_primary>  (20) 
energy

$$$$
20:0
     RDKit          3D

 34 36  0  0  0  0  0  0  0  0999 V2000
   56.3430   29.3380   42.6220 C   0  0  0  0  0  0  0  0  0  0  0  0
   56.5080   30.2870   43.7640 C   0  0  0  0  0  0  0  0  0  0  0  0
   55.5280   30.5160   44.5230 O   0  0  0  0  0  0  0  0  0  0  0  0
   57.7960   30.8560   44.0390 N   0  0  0  0  0  0  0  0  0  0  0  0
   58.0210   31.8930   45.0130 C   0  0  0  0  0  0  0  0  0  0  0  0
   57.7770   33.2410   44.6920 C   0  0  0  0  0  0  0  0  0  0  0  0
   58.0250   34.2480   45.6280 C   0  0  0  0  0  0  0  0  0  0  0  0
   58.5390   33.9240   46.8830 C   0  0  0  0  0  0  0  0  0  0  0  0
   58.8020   32.5920   47.2100 C   0  0  0  0  0  0  0  0  0  0  0  0
   58.5330   31.5650   46.2870 C   0  0  0  0  0  0  0  0  0  0  0  0
   58.8090   30.1900   46.5970 N   0  0  0  0  0  0  0  0  0  0  0  0
   59.1600   29.1530   45.6710 C   0  0  0  0  0  0  0  0  0  0  0  0
   60.0910   29.3350   44.8400 O   0  0  0  0  0  0  0  0  0  0  0  0
   58.4660   27.8460   45.7260 C   0  0  0  0  0  0  0  0  0  0  0  0
   59.2060   26.6330   45.6650 C   0  0  0  0  0  0  0  0  0  0  0  0
   58.5530   25.3880   45.7170 C   0  0  0  0  0  0  0  0  0  0  0  0
   57.1660   25.3870   45.8310 C   0  0  0  0  0  0  0  0  0  0  0  0
   56.3490   24.3270   45.8970 N   0  0  0  0  0  0  0  0  0  0  0  0
   55.1230   24.9050   45.9990 C   0  0  0  0  0  0  0  0  0  0  0  0
   55.1410   26.2630   45.9990 N   0  0  0  0  0  0  0  0  0  0  0  0
   56.4480   26.5390   45.8910 C   0  0  0  0  0  0  0  0  0  0  0  0
   57.0550   27.7910   45.8430 C   0  0  0  0  0  0  0  0  0  0  0  0
   56.1667   28.3241   43.0104 H   0  0  0  0  0  0  0  0  0  0  0  0
   55.4855   29.6495   42.0074 H   0  0  0  0  0  0  0  0  0  0  0  0
   57.2553   29.3418   42.0074 H   0  0  0  0  0  0  0  0  0  0  0  0
   58.6230   30.4440   43.5520 H   0  0  0  0  0  0  0  0  0  0  0  0
   57.3883   33.5038   43.6971 H   0  0  0  0  0  0  0  0  0  0  0  0
   57.8146   35.2975   45.3747 H   0  0  0  0  0  0  0  0  0  0  0  0
   58.7377   34.7190   47.6168 H   0  0  0  0  0  0  0  0  0  0  0  0
   59.2223   32.3442   48.1959 H   0  0  0  0  0  0  0  0  0  0  0  0
   60.3018   26.6687   45.5761 H   0  0  0  0  0  0  0  0  0  0  0  0
   59.1199   24.4466   45.6691 H   0  0  0  0  0  0  0  0  0  0  0  0
   54.1937   24.3215   46.0752 H   0  0  0  0  0  0  0  0  0  0  0  0
   56.4558   28.7120   45.8945 H   0  0  0  0  0  0  0  0  0  0  0  0
  1  2  1  0
  2  3  2  0
  2  4  1  0
  4  5  1  0
  5  6  2  0
  6  7  1  0
  7  8  2  0
  8  9  1  0
  9 10  2  0
 10 11  1  0
 11 12  1  0
 12 13  2  0
 12 14  1  0
 14 15  2  0
 15 16  1  0
 16 17  2  0
 17 18  1  0
 18 19  1  0
 19 20  2  0
 20 21  1  0
 21 22  2  0
 10  5  1  0
 22 14  1  0
 21 17  1  0
  1 23  1  0
  1 24  1  0
  1 25  1  0
  4 26  1  0
  6 27  1  0
  7 28  1  0
  8 29  1  0
  9 30  1  0
 15 31  1  0
 16 32  1  0
 19 33  1  0
 22 34  1  0
M  CHG  2  11  -1  18  -1
M  END
>  <UniqueID>  (21) 
20

>  <SMILES>  (21) 
CC(=O)Nc1ccccc1[N-]C(=O)c1ccc2[n-]cnc2c1

>  <Energy>  (21) 
77.9657008832353

>  <Genealogy>  (21) 
CC(=O)Nc1ccccc1[N-]C(=O)c1ccc2[n-]cnc2c1 (protonated)
CC(=O)Nc1ccccc1[N-]C(=O)c1ccc2[n-]cnc2c1 (3D coordinates assigned)
CC(=O)Nc1ccccc1[N-]C(=O)c1ccc2[n-]cnc2c1 (optimized conformer: 77.9657008832353 kcal/mol)

>  <smiles>  (21) 
CC(=O)Nc1ccccc1NC(=O)c1ccc2[nH]cnc2c1

>  <score_type>  (21) 
oracle

>  <origin>  (21) 
adg

>  <m_score__min__energy>  (21) 
-10.81

>  <m_primary>  (21) 
energy

$$$$
21:0
     RDKit          3D

 51 53  0  0  0  0  0  0  0  0999 V2000
   59.7890   24.8670   46.0280 C   0  0  0  0  0  0  0  0  0  0  0  0
   58.9840   26.0110   46.4730 N   0  0  0  0  0  0  0  0  0  0  0  0
   57.5490   25.9000   46.6300 C   0  0  0  0  0  0  0  0  0  0  0  0
   57.0630   25.5920   47.7530 O   0  0  0  0  0  0  0  0  0  0  0  0
   56.5990   26.1560   45.4900 C   0  0  0  0  0  0  0  0  0  0  0  0
   55.9080   27.3930   45.6670 O   0  0  0  0  0  0  0  0  0  0  0  0
   56.3690   28.6500   45.2420 C   0  0  0  0  0  0  0  0  0  0  0  0
   55.8440   29.3110   44.1170 C   0  0  0  0  0  0  0  0  0  0  0  0
   56.3320   30.5670   43.7440 C   0  0  0  0  0  0  0  0  0  0  0  0
   57.3540   31.1880   44.4850 C   0  0  0  0  0  0  0  0  0  0  0  0
   57.8590   32.4860   44.0990 N   0  0  0  0  0  0  0  0  0  0  0  0
   58.3020   32.7310   42.7260 C   0  0  0  0  0  0  0  0  0  0  0  0
   57.9570   33.7810   45.2610 S   0  0  0  0  0  0  0  0  0  0  0  0
   58.1980   35.0880   44.5580 O   0  0  0  0  0  0  0  0  0  0  0  0
   56.6500   33.8800   45.9980 O   0  0  0  0  0  0  0  0  0  0  0  0
   59.2760   33.4770   46.3900 C   0  0  0  0  0  0  0  0  0  0  0  0
   58.9990   32.9460   47.6590 C   0  0  0  0  0  0  0  0  0  0  0  0
   60.0380   32.7080   48.5640 C   0  0  0  0  0  0  0  0  0  0  0  0
   61.3600   32.9960   48.2060 C   0  0  0  0  0  0  0  0  0  0  0  0
   62.6620   32.6990   49.3430 Cl  0  0  0  0  0  0  0  0  0  0  0  0
   61.6410   33.5230   46.9390 C   0  0  0  0  0  0  0  0  0  0  0  0
   60.6040   33.7620   46.0340 C   0  0  0  0  0  0  0  0  0  0  0  0
   57.8840   30.5130   45.5990 C   0  0  0  0  0  0  0  0  0  0  0  0
   57.3940   29.2590   45.9700 C   0  0  0  0  0  0  0  0  0  0  0  0
   59.6210   27.2960   46.6010 C   0  0  0  0  0  0  0  0  0  0  0  0
   60.1930   27.9230   45.4790 C   0  0  0  0  0  0  0  0  0  0  0  0
   60.8100   29.1710   45.6050 C   0  0  0  0  0  0  0  0  0  0  0  0
   60.8640   29.8010   46.8510 C   0  0  0  0  0  0  0  0  0  0  0  0
   60.3040   29.1830   47.9730 C   0  0  0  0  0  0  0  0  0  0  0  0
   59.6860   27.9350   47.8510 C   0  0  0  0  0  0  0  0  0  0  0  0
   60.1710   24.3241   46.9051 H   0  0  0  0  0  0  0  0  0  0  0  0
   59.1651   24.1929   45.4227 H   0  0  0  0  0  0  0  0  0  0  0  0
   60.6341   25.2267   45.4227 H   0  0  0  0  0  0  0  0  0  0  0  0
   57.1679   26.1933   44.5493 H   0  0  0  0  0  0  0  0  0  0  0  0
   55.8591   25.3425   45.4613 H   0  0  0  0  0  0  0  0  0  0  0  0
   55.0452   28.8373   43.5275 H   0  0  0  0  0  0  0  0  0  0  0  0
   55.9128   31.0745   42.8627 H   0  0  0  0  0  0  0  0  0  0  0  0
   59.2645   33.2633   42.7408 H   0  0  0  0  0  0  0  0  0  0  0  0
   58.4219   31.7710   42.2026 H   0  0  0  0  0  0  0  0  0  0  0  0
   57.5526   33.3429   42.2026 H   0  0  0  0  0  0  0  0  0  0  0  0
   57.9613   32.7163   47.9427 H   0  0  0  0  0  0  0  0  0  0  0  0
   59.8160   32.2939   49.5586 H   0  0  0  0  0  0  0  0  0  0  0  0
   62.6797   33.7490   46.6562 H   0  0  0  0  0  0  0  0  0  0  0  0
   60.8285   34.1748   45.0394 H   0  0  0  0  0  0  0  0  0  0  0  0
   58.6920   30.9770   46.1836 H   0  0  0  0  0  0  0  0  0  0  0  0
   57.8196   28.7454   46.8447 H   0  0  0  0  0  0  0  0  0  0  0  0
   60.1545   27.4285   44.4972 H   0  0  0  0  0  0  0  0  0  0  0  0
   61.2530   29.6571   44.7233 H   0  0  0  0  0  0  0  0  0  0  0  0
   61.3476   30.7841   46.9492 H   0  0  0  0  0  0  0  0  0  0  0  0
   60.3497   29.6796   48.9535 H   0  0  0  0  0  0  0  0  0  0  0  0
   59.2489   27.4512   48.7369 H   0  0  0  0  0  0  0  0  0  0  0  0
  1  2  1  0
  2  3  1  0
  3  4  2  0
  3  5  1  0
  5  6  1  0
  6  7  1  0
  7  8  2  0
  8  9  1  0
  9 10  2  0
 10 11  1  0
 11 12  1  0
 11 13  1  0
 13 14  2  0
 13 15  2  0
 13 16  1  0
 16 17  2  0
 17 18  1  0
 18 19  2  0
 19 20  1  0
 19 21  1  0
 21 22  2  0
 10 23  1  0
 23 24  2  0
  2 25  1  0
 25 26  2  0
 26 27  1  0
 27 28  2  0
 28 29  1  0
 29 30  2  0
 24  7  1  0
 30 25  1  0
 22 16  1  0
  1 31  1  0
  1 32  1  0
  1 33  1  0
  5 34  1  0
  5 35  1  0
  8 36  1  0
  9 37  1  0
 12 38  1  0
 12 39  1  0
 12 40  1  0
 17 41  1  0
 18 42  1  0
 21 43  1  0
 22 44  1  0
 23 45  1  0
 24 46  1  0
 26 47  1  0
 27 48  1  0
 28 49  1  0
 29 50  1  0
 30 51  1  0
M  END
>  <UniqueID>  (22) 
21

>  <SMILES>  (22) 
CN(C(=O)COc1ccc(N(C)S(=O)(=O)c2ccc(Cl)cc2)cc1)c1ccccc1

>  <Energy>  (22) 
62.658382076374565

>  <Genealogy>  (22) 
CN(C(=O)COc1ccc(N(C)S(=O)(=O)c2ccc(Cl)cc2)cc1)c1ccccc1 (3D coordinates assigned)
CN(C(=O)COc1ccc(N(C)S(=O)(=O)c2ccc(Cl)cc2)cc1)c1ccccc1 (optimized conformer: 62.658382076374565 kcal/mol)

>  <smiles>  (22) 
CN(C(=O)COc1ccc(N(C)S(=O)(=O)c2ccc(Cl)cc2)cc1)c1ccccc1

>  <score_type>  (22) 
oracle

>  <origin>  (22) 
adg

>  <m_score__min__energy>  (22) 
-9.0700000000000003

>  <m_primary>  (22) 
energy

$$$$
22:0
     RDKit          3D

 61 65  0  0  0  0  0  0  0  0999 V2000
   59.7520   34.7350   49.0300 O   0  0  0  0  0  0  0  0  0  0  0  0
   59.7690   34.4060   47.8140 C   0  0  0  0  0  0  0  0  0  0  0  0
   61.0630   33.9210   47.1910 C   0  0  0  0  0  0  0  0  0  0  0  0
   62.0210   33.3850   48.1900 N   0  0  0  0  0  0  0  0  0  0  0  0
   63.3940   33.8990   47.9380 C   0  0  0  0  0  0  0  0  0  0  0  0
   64.5000   33.0790   48.6280 C   0  0  0  0  0  0  0  0  0  0  0  0
   63.9220   32.3660   50.1970 S   0  0  0  0  0  0  0  0  0  0  0  0
   62.6450   31.2970   49.4290 C   0  0  0  0  0  0  0  0  0  0  0  0
   61.9950   31.9040   48.1680 C   0  0  0  0  0  0  0  0  0  0  0  0
   58.5190   34.3170   47.1140 N   0  0  0  0  0  0  0  0  0  0  0  0
   58.1390   33.2930   46.1870 C   0  0  0  0  0  0  0  0  0  0  0  0
   57.7770   33.6540   44.8840 C   0  0  0  0  0  0  0  0  0  0  0  0
   57.4240   32.6780   43.9480 C   0  0  0  0  0  0  0  0  0  0  0  0
   57.4520   31.3180   44.3060 C   0  0  0  0  0  0  0  0  0  0  0  0
   57.0960   30.2980   43.4100 C   0  0  0  0  0  0  0  0  0  0  0  0
   56.7220   30.5660   42.2350 O   0  0  0  0  0  0  0  0  0  0  0  0
   57.1550   28.9670   43.8270 C   0  0  0  0  0  0  0  0  0  0  0  0
   57.5760   28.6720   45.1370 C   0  0  0  0  0  0  0  0  0  0  0  0
   57.6590   27.2780   45.6400 C   0  0  0  0  0  0  0  0  0  0  0  0
   56.5950   26.7500   46.3930 C   0  0  0  0  0  0  0  0  0  0  0  0
   56.6510   25.4430   46.8830 C   0  0  0  0  0  0  0  0  0  0  0  0
   57.7660   24.6370   46.6380 C   0  0  0  0  0  0  0  0  0  0  0  0
   57.7640   23.3270   47.1460 O   0  0  0  0  0  0  0  0  0  0  0  0
   57.1580   22.1980   46.5150 C   0  0  0  0  0  0  0  0  0  0  0  0
   56.4760   22.6040   45.2360 C   0  0  0  0  0  0  0  0  0  0  0  0
   57.1090   22.4180   43.9960 C   0  0  0  0  0  0  0  0  0  0  0  0
   56.4640   22.7920   42.8120 C   0  0  0  0  0  0  0  0  0  0  0  0
   55.1810   23.3450   42.8570 C   0  0  0  0  0  0  0  0  0  0  0  0
   54.5400   23.5230   44.0870 C   0  0  0  0  0  0  0  0  0  0  0  0
   55.1810   23.1500   45.2720 C   0  0  0  0  0  0  0  0  0  0  0  0
   58.8430   25.1640   45.9040 C   0  0  0  0  0  0  0  0  0  0  0  0
   58.7910   26.4720   45.4120 C   0  0  0  0  0  0  0  0  0  0  0  0
   57.8980   29.6700   45.9610 O   0  0  0  0  0  0  0  0  0  0  0  0
   57.8530   30.9500   45.6080 C   0  0  0  0  0  0  0  0  0  0  0  0
   58.2060   31.9350   46.5350 C   0  0  0  0  0  0  0  0  0  0  0  0
   60.8279   33.1256   46.4685 H   0  0  0  0  0  0  0  0  0  0  0  0
   61.5405   34.7860   46.7075 H   0  0  0  0  0  0  0  0  0  0  0  0
   61.7020   33.7000   49.1380 H   0  0  0  0  0  0  0  0  0  0  0  0
   63.5765   33.8841   46.8533 H   0  0  0  0  0  0  0  0  0  0  0  0
   63.4384   34.9147   48.3579 H   0  0  0  0  0  0  0  0  0  0  0  0
   64.8108   32.2637   47.9582 H   0  0  0  0  0  0  0  0  0  0  0  0
   65.3431   33.7514   48.8449 H   0  0  0  0  0  0  0  0  0  0  0  0
   63.1148   30.3421   49.1506 H   0  0  0  0  0  0  0  0  0  0  0  0
   61.8437   31.1735   50.1724 H   0  0  0  0  0  0  0  0  0  0  0  0
   62.5428   31.5521   47.2814 H   0  0  0  0  0  0  0  0  0  0  0  0
   60.9434   31.5825   48.1388 H   0  0  0  0  0  0  0  0  0  0  0  0
   57.7703   34.7151   44.5942 H   0  0  0  0  0  0  0  0  0  0  0  0
   57.1244   32.9733   42.9316 H   0  0  0  0  0  0  0  0  0  0  0  0
   56.8750   28.1565   43.1381 H   0  0  0  0  0  0  0  0  0  0  0  0
   55.7109   27.3716   46.5979 H   0  0  0  0  0  0  0  0  0  0  0  0
   55.8089   25.0442   47.4676 H   0  0  0  0  0  0  0  0  0  0  0  0
   57.9336   21.4515   46.2891 H   0  0  0  0  0  0  0  0  0  0  0  0
   56.4061   21.7739   47.1968 H   0  0  0  0  0  0  0  0  0  0  0  0
   58.1157   21.9766   43.9556 H   0  0  0  0  0  0  0  0  0  0  0  0
   56.9674   22.6506   41.8442 H   0  0  0  0  0  0  0  0  0  0  0  0
   54.6759   23.6400   41.9254 H   0  0  0  0  0  0  0  0  0  0  0  0
   53.5299   23.9572   44.1222 H   0  0  0  0  0  0  0  0  0  0  0  0
   54.6699   23.2843   46.2368 H   0  0  0  0  0  0  0  0  0  0  0  0
   59.7318   24.5439   45.7156 H   0  0  0  0  0  0  0  0  0  0  0  0
   59.6414   26.8746   44.8422 H   0  0  0  0  0  0  0  0  0  0  0  0
   58.5381   31.6442   47.5426 H   0  0  0  0  0  0  0  0  0  0  0  0
  1  2  2  0
  2  3  1  0
  3  4  1  0
  4  5  1  0
  5  6  1  0
  6  7  1  0
  7  8  1  0
  8  9  1  0
  2 10  1  0
 10 11  1  0
 11 12  2  0
 12 13  1  0
 13 14  2  0
 14 15  1  0
 15 16  2  0
 15 17  1  0
 17 18  2  0
 18 19  1  0
 19 20  2  0
 20 21  1  0
 21 22  2  0
 22 23  1  0
 23 24  1  0
 24 25  1  0
 25 26  2  0
 26 27  1  0
 27 28  2  0
 28 29  1  0
 29 30  2  0
 22 31  1  0
 31 32  2  0
 18 33  1  0
 33 34  1  0
 34 35  2  0
  9  4  1  0
 35 11  1  0
 34 14  1  0
 32 19  1  0
 30 25  1  0
  3 36  1  0
  3 37  1  0
  4 38  1  0
  5 39  1  0
  5 40  1  0
  6 41  1  0
  6 42  1  0
  8 43  1  0
  8 44  1  0
  9 45  1  0
  9 46  1  0
 12 47  1  0
 13 48  1  0
 17 49  1  0
 20 50  1  0
 21 51  1  0
 24 52  1  0
 24 53  1  0
 26 54  1  0
 27 55  1  0
 28 56  1  0
 29 57  1  0
 30 58  1  0
 31 59  1  0
 32 60  1  0
 35 61  1  0
M  CHG  2   4   1  10  -1
M  END
>  <UniqueID>  (23) 
22

>  <SMILES>  (23) 
O=C(C[NH+]1CCSCC1)[N-]c1ccc2c(=O)cc(-c3ccc(OCc4ccccc4)cc3)oc2c1

>  <Energy>  (23) 
87.75885424491705

>  <Genealogy>  (23) 
O=C(C[NH+]1CCSCC1)[N-]c1ccc2c(=O)cc(-c3ccc(OCc4ccccc4)cc3)oc2c1 (protonated)
O=C(C[NH+]1CCSCC1)[N-]c1ccc2c(=O)cc(-c3ccc(OCc4ccccc4)cc3)oc2c1 (3D coordinates assigned)
O=C(C[NH+]1CCSCC1)[N-]c1ccc2c(=O)cc(-c3ccc(OCc4ccccc4)cc3)oc2c1 (nonaromatic ring conformer: 87.75885424491705 kcal/mol)

>  <smiles>  (23) 
O=C(CN1CCSCC1)Nc1ccc2c(=O)cc(-c3ccc(OCc4ccccc4)cc3)oc2c1

>  <score_type>  (23) 
oracle

>  <origin>  (23) 
adg

>  <m_score__min__energy>  (23) 
-9.8699999999999992

>  <m_primary>  (23) 
energy

$$$$
23:0
     RDKit          3D

 63 67  0  0  0  0  0  0  0  0999 V2000
   60.9560   28.5840   50.3160 C   0  0  0  0  0  0  0  0  0  0  0  0
   60.3930   28.0180   49.0510 C   0  0  0  0  0  0  0  0  0  0  0  0
   60.7410   26.7640   48.5610 C   0  0  0  0  0  0  0  0  0  0  0  0
   59.9840   26.5590   47.0760 S   0  0  0  0  0  0  0  0  0  0  0  0
   59.2050   28.0550   47.0370 C   0  0  0  0  0  0  0  0  0  0  0  0
   58.3980   28.5810   45.9110 C   0  0  0  0  0  0  0  0  0  0  0  0
   58.2240   27.8210   44.7430 C   0  0  0  0  0  0  0  0  0  0  0  0
   57.5120   28.3390   43.6600 C   0  0  0  0  0  0  0  0  0  0  0  0
   56.9780   29.6330   43.7130 C   0  0  0  0  0  0  0  0  0  0  0  0
   56.2720   30.1510   42.5780 N   0  0  0  0  0  0  0  0  0  0  0  0
   57.1560   30.4140   44.8710 C   0  0  0  0  0  0  0  0  0  0  0  0
   56.6330   31.7540   44.9150 N   0  0  0  0  0  0  0  0  0  0  0  0
   57.3730   32.9600   45.1540 C   0  0  0  0  0  0  0  0  0  0  0  0
   57.0850   33.9880   44.4840 O   0  0  0  0  0  0  0  0  0  0  0  0
   58.4770   33.0250   46.1400 C   0  0  0  0  0  0  0  0  0  0  0  0
   58.2620   32.6320   47.4650 C   0  0  0  0  0  0  0  0  0  0  0  0
   59.3240   32.6010   48.3670 C   0  0  0  0  0  0  0  0  0  0  0  0
   60.6140   32.9760   47.9460 C   0  0  0  0  0  0  0  0  0  0  0  0
   61.7440   32.8790   48.8490 N   0  0  0  0  0  0  0  0  0  0  0  0
   62.8590   33.8380   48.7110 C   0  0  0  0  0  0  0  0  0  0  0  0
   63.9060   33.7020   49.8220 C   0  0  0  0  0  0  0  0  0  0  0  0
   63.2340   33.4510   51.1660 C   0  0  0  0  0  0  0  0  0  0  0  0
   62.4760   32.1110   51.1400 C   0  0  1  0  0  0  0  0  0  0  0  0
   61.5390   31.9960   52.2190 O   0  0  0  0  0  0  0  0  0  0  0  0
   60.1480   32.2100   52.2030 C   0  0  0  0  0  0  0  0  0  0  0  0
   59.5410   33.4420   52.5180 C   0  0  0  0  0  0  0  0  0  0  0  0
   58.1500   33.5760   52.4700 C   0  0  0  0  0  0  0  0  0  0  0  0
   57.3500   32.4890   52.1140 C   0  0  0  0  0  0  0  0  0  0  0  0
   57.9420   31.2620   51.8060 C   0  0  0  0  0  0  0  0  0  0  0  0
   59.3320   31.1240   51.8510 C   0  0  0  0  0  0  0  0  0  0  0  0
   61.8600   31.7310   49.7660 C   0  0  0  0  0  0  0  0  0  0  0  0
   60.7880   33.4030   46.6580 N   0  0  0  0  0  0  0  0  0  0  0  0
   59.7610   33.4430   45.7660 C   0  0  0  0  0  0  0  0  0  0  0  0
   57.8240   29.8600   45.9790 C   0  0  0  0  0  0  0  0  0  0  0  0
   59.5470   28.7440   48.2010 C   0  0  0  0  0  0  0  0  0  0  0  0
   60.4755   28.1009   51.1796 H   0  0  0  0  0  0  0  0  0  0  0  0
   62.0400   28.4003   50.3493 H   0  0  0  0  0  0  0  0  0  0  0  0
   60.7665   29.6670   50.3493 H   0  0  0  0  0  0  0  0  0  0  0  0
   61.3969   26.0345   49.0586 H   0  0  0  0  0  0  0  0  0  0  0  0
   58.6521   26.8096   44.6811 H   0  0  0  0  0  0  0  0  0  0  0  0
   57.3691   27.7263   42.7577 H   0  0  0  0  0  0  0  0  0  0  0  0
   55.8750   29.5050   41.8590 H   0  0  0  0  0  0  0  0  0  0  0  0
   56.1300   31.1770   42.4420 H   0  0  0  0  0  0  0  0  0  0  0  0
   57.2525   32.3468   47.7959 H   0  0  0  0  0  0  0  0  0  0  0  0
   59.1545   32.2839   49.4066 H   0  0  0  0  0  0  0  0  0  0  0  0
   63.3513   33.6664   47.7424 H   0  0  0  0  0  0  0  0  0  0  0  0
   62.4336   34.8500   48.7815 H   0  0  0  0  0  0  0  0  0  0  0  0
   64.5730   32.8591   49.5886 H   0  0  0  0  0  0  0  0  0  0  0  0
   64.4812   34.6377   49.8830 H   0  0  0  0  0  0  0  0  0  0  0  0
   63.9999   33.4199   51.9549 H   0  0  0  0  0  0  0  0  0  0  0  0
   62.5200   34.2632   51.3673 H   0  0  0  0  0  0  0  0  0  0  0  0
   63.2542   31.3503   51.3008 H   0  0  0  0  0  0  0  0  0  0  0  0
   60.1643   34.3024   52.8030 H   0  0  0  0  0  0  0  0  0  0  0  0
   57.6842   34.5422   52.7138 H   0  0  0  0  0  0  0  0  0  0  0  0
   56.2561   32.5984   52.0761 H   0  0  0  0  0  0  0  0  0  0  0  0
   57.3134   30.4033   51.5277 H   0  0  0  0  0  0  0  0  0  0  0  0
   59.7910   30.1543   51.6081 H   0  0  0  0  0  0  0  0  0  0  0  0
   62.4981   30.9690   49.2946 H   0  0  0  0  0  0  0  0  0  0  0  0
   60.8430   31.3563   49.9540 H   0  0  0  0  0  0  0  0  0  0  0  0
   61.7310   33.6790   46.3100 H   0  0  0  0  0  0  0  0  0  0  0  0
   59.9403   33.8063   44.7433 H   0  0  0  0  0  0  0  0  0  0  0  0
   57.8973   30.4379   46.9121 H   0  0  0  0  0  0  0  0  0  0  0  0
   59.1878   29.7583   48.4295 H   0  0  0  0  0  0  0  0  0  0  0  0
  1  2  1  0
  2  3  2  0
  3  4  1  0
  4  5  1  0
  5  6  1  0
  6  7  2  0
  7  8  1  0
  8  9  2  0
  9 10  1  0
  9 11  1  0
 11 12  1  0
 12 13  1  0
 13 14  2  0
 13 15  1  0
 15 16  2  0
 16 17  1  0
 17 18  2  0
 18 19  1  0
 19 20  1  0
 20 21  1  0
 21 22  1  0
 22 23  1  0
 23 24  1  0
 24 25  1  0
 25 26  2  0
 26 27  1  0
 27 28  2  0
 28 29  1  0
 29 30  2  0
 23 31  1  0
 18 32  1  0
 32 33  2  0
 11 34  2  0
  5 35  2  0
 35  2  1  0
 34  6  1  0
 33 15  1  0
 31 19  1  0
 30 25  1  0
  1 36  1  0
  1 37  1  0
  1 38  1  0
  3 39  1  0
  7 40  1  0
  8 41  1  0
 10 42  1  0
 10 43  1  0
 16 44  1  0
 17 45  1  0
 20 46  1  0
 20 47  1  0
 21 48  1  0
 21 49  1  0
 22 50  1  0
 22 51  1  0
 23 52  1  1
 26 53  1  0
 27 54  1  0
 28 55  1  0
 29 56  1  0
 30 57  1  0
 31 58  1  0
 31 59  1  0
 32 60  1  0
 33 61  1  0
 34 62  1  0
 35 63  1  0
M  CHG  2  12  -1  32   1
M  END
>  <UniqueID>  (24) 
23

>  <SMILES>  (24) 
Cc1csc(-c2ccc(N)c([N-]C(=O)c3ccc(N4CCC[C@@H](Oc5ccccc5)C4)[nH+]c3)c2)c1

>  <Energy>  (24) 
107.33794775310638

>  <Genealogy>  (24) 
Cc1csc(-c2ccc(N)c([N-]C(=O)c3ccc(N4CCCC(Oc5ccccc5)C4)[nH+]c3)c2)c1 (protonated)
Cc1csc(-c2ccc(N)c([N-]C(=O)c3ccc(N4CCC[C@@H](Oc5ccccc5)C4)[nH+]c3)c2)c1 (chirality)
Cc1csc(-c2ccc(N)c([N-]C(=O)c3ccc(N4CCC[C@@H](Oc5ccccc5)C4)[nH+]c3)c2)c1 (3D coordinates assigned)
Cc1csc(-c2ccc(N)c([N-]C(=O)c3ccc(N4CCC[C@@H](Oc5ccccc5)C4)[nH+]c3)c2)c1 (nonaromatic ring conformer: 107.33794775310638 kcal/mol)

>  <smiles>  (24) 
Cc1csc(-c2ccc(N)c(NC(=O)c3ccc(N4CCCC(Oc5ccccc5)C4)nc3)c2)c1

>  <score_type>  (24) 
oracle

>  <origin>  (24) 
adg

>  <m_score__min__energy>  (24) 
-9.8300000000000001

>  <m_primary>  (24) 
energy

$$$$
24:0
     RDKit          3D

 43 44  0  0  0  0  0  0  0  0999 V2000
   54.5510   23.2120   46.6790 C   0  0  0  0  0  0  0  0  0  0  0  0
   55.3070   24.4790   46.6610 N   0  0  0  0  0  0  0  0  0  0  0  0
   56.6320   24.2730   47.2670 C   0  0  0  0  0  0  0  0  0  0  0  0
   55.4410   24.9940   45.2780 C   0  0  0  0  0  0  0  0  0  0  0  0
   56.8880   25.4230   45.0030 C   0  0  0  0  0  0  0  0  0  0  0  0
   57.0550   26.8640   45.2150 N   0  0  0  0  0  0  0  0  0  0  0  0
   58.1750   27.4390   45.9160 C   0  0  0  0  0  0  0  0  0  0  0  0
   58.6270   26.8670   47.1210 C   0  0  0  0  0  0  0  0  0  0  0  0
   59.7390   27.3910   47.7820 C   0  0  0  0  0  0  0  0  0  0  0  0
   60.4150   28.4880   47.2520 C   0  0  0  0  0  0  0  0  0  0  0  0
   59.9780   29.0700   46.0600 C   0  0  0  0  0  0  0  0  0  0  0  0
   58.8600   28.5540   45.3790 C   0  0  0  0  0  0  0  0  0  0  0  0
   58.3850   29.1930   44.1800 N   0  0  0  0  0  0  0  0  0  0  0  0
   57.0480   30.2990   44.1770 S   0  0  0  0  0  0  0  0  0  0  0  0
   56.6580   30.6090   42.7590 O   0  0  0  0  0  0  0  0  0  0  0  0
   55.8790   29.6640   44.8780 O   0  0  0  0  0  0  0  0  0  0  0  0
   57.5200   31.7990   44.9720 C   0  0  0  0  0  0  0  0  0  0  0  0
   57.9810   31.7950   46.2980 C   0  0  0  0  0  0  0  0  0  0  0  0
   58.3750   32.9920   46.9080 C   0  0  0  0  0  0  0  0  0  0  0  0
   58.3060   34.1950   46.1980 C   0  0  0  0  0  0  0  0  0  0  0  0
   57.8570   34.2010   44.8730 C   0  0  0  0  0  0  0  0  0  0  0  0
   57.4630   33.0060   44.2620 C   0  0  0  0  0  0  0  0  0  0  0  0
   54.3696   22.9080   47.7205 H   0  0  0  0  0  0  0  0  0  0  0  0
   53.5886   23.3519   46.1650 H   0  0  0  0  0  0  0  0  0  0  0  0
   55.1312   22.4315   46.1650 H   0  0  0  0  0  0  0  0  0  0  0  0
   56.5401   24.2873   48.3631 H   0  0  0  0  0  0  0  0  0  0  0  0
   57.0352   23.3014   46.9455 H   0  0  0  0  0  0  0  0  0  0  0  0
   57.3112   25.0763   46.9455 H   0  0  0  0  0  0  0  0  0  0  0  0
   55.1566   24.2034   44.5680 H   0  0  0  0  0  0  0  0  0  0  0  0
   54.7820   25.8664   45.1575 H   0  0  0  0  0  0  0  0  0  0  0  0
   57.5605   24.8786   45.6823 H   0  0  0  0  0  0  0  0  0  0  0  0
   57.1306   25.1911   43.9554 H   0  0  0  0  0  0  0  0  0  0  0  0
   56.2840   27.4910   44.8890 H   0  0  0  0  0  0  0  0  0  0  0  0
   58.0992   25.9999   47.5448 H   0  0  0  0  0  0  0  0  0  0  0  0
   60.0824   26.9370   48.7233 H   0  0  0  0  0  0  0  0  0  0  0  0
   61.2937   28.8961   47.7729 H   0  0  0  0  0  0  0  0  0  0  0  0
   60.5126   29.9395   45.6499 H   0  0  0  0  0  0  0  0  0  0  0  0
   58.8970   29.0610   43.2800 H   0  0  0  0  0  0  0  0  0  0  0  0
   58.0327   30.8500   46.8586 H   0  0  0  0  0  0  0  0  0  0  0  0
   58.7390   32.9863   47.9460 H   0  0  0  0  0  0  0  0  0  0  0  0
   58.6049   35.1367   46.6815 H   0  0  0  0  0  0  0  0  0  0  0  0
   57.8138   35.1459   44.3114 H   0  0  0  0  0  0  0  0  0  0  0  0
   57.1074   33.0136   43.2211 H   0  0  0  0  0  0  0  0  0  0  0  0
  1  2  1  0
  2  3  1  0
  2  4  1  0
  4  5  1  0
  5  6  1  0
  6  7  1  0
  7  8  2  0
  8  9  1  0
  9 10  2  0
 10 11  1  0
 11 12  2  0
 12 13  1  0
 13 14  1  0
 14 15  2  0
 14 16  2  0
 14 17  1  0
 17 18  2  0
 18 19  1  0
 19 20  2  0
 20 21  1  0
 21 22  2  0
 12  7  1  0
 22 17  1  0
  1 23  1  0
  1 24  1  0
  1 25  1  0
  3 26  1  0
  3 27  1  0
  3 28  1  0
  4 29  1  0
  4 30  1  0
  5 31  1  0
  5 32  1  0
  6 33  1  0
  8 34  1  0
  9 35  1  0
 10 36  1  0
 11 37  1  0
 13 38  1  0
 18 39  1  0
 19 40  1  0
 20 41  1  0
 21 42  1  0
 22 43  1  0
M  END
>  <UniqueID>  (25) 
24

>  <SMILES>  (25) 
CN(C)CCNc1ccccc1NS(=O)(=O)c1ccccc1

>  <Energy>  (25) 
46.416246139102384

>  <Genealogy>  (25) 
CN(C)CCNc1ccccc1NS(=O)(=O)c1ccccc1 (3D coordinates assigned)
CN(C)CCNc1ccccc1NS(=O)(=O)c1ccccc1 (optimized conformer: 46.416246139102384 kcal/mol)

>  <smiles>  (25) 
CN(C)CCNc1ccccc1NS(=O)(=O)c1ccccc1

>  <score_type>  (25) 
oracle

>  <origin>  (25) 
adg

>  <m_score__min__energy>  (25) 
-7.6100000000000003

>  <m_primary>  (25) 
energy

$$$$
25:0
     RDKit          3D

 40 42  0  0  0  0  0  0  0  0999 V2000
   56.1177   23.7900   46.6543 H   0  0  0  0  0  0  0  0  0  0  0  0
   56.4140   24.8330   46.4690 C   0  0  0  0  0  0  0  0  0  0  0  0
   57.6840   25.2360   46.7160 N   0  0  0  0  0  0  0  0  0  0  0  0
   58.0940   26.5140   46.5020 C   0  0  0  0  0  0  0  0  0  0  0  0
   59.3380   26.8060   46.7820 N   0  0  0  0  0  0  0  0  0  0  0  0
   59.8390   27.9280   47.5250 C   0  0  0  0  0  0  0  0  0  0  0  0
   59.9400   27.8560   48.9240 C   0  0  0  0  0  0  0  0  0  0  0  0
   59.6582   26.9301   49.4468 H   0  0  0  0  0  0  0  0  0  0  0  0
   60.3970   28.9560   49.6540 C   0  0  0  0  0  0  0  0  0  0  0  0
   60.4571   28.9019   50.7510 H   0  0  0  0  0  0  0  0  0  0  0  0
   60.7770   30.1230   48.9910 C   0  0  0  0  0  0  0  0  0  0  0  0
   61.1314   30.9903   49.5674 H   0  0  0  0  0  0  0  0  0  0  0  0
   60.7090   30.1940   47.5970 C   0  0  0  0  0  0  0  0  0  0  0  0
   61.0233   31.1123   47.0794 H   0  0  0  0  0  0  0  0  0  0  0  0
   60.2390   29.0930   46.8510 C   0  0  0  0  0  0  0  0  0  0  0  0
   60.1410   29.1280   45.4510 O   0  0  0  0  0  0  0  0  0  0  0  0
   61.1220   28.6050   44.5620 C   0  0  0  0  0  0  0  0  0  0  0  0
   61.9462   28.1656   45.1430 H   0  0  0  0  0  0  0  0  0  0  0  0
   60.6664   27.8301   43.9280 H   0  0  0  0  0  0  0  0  0  0  0  0
   61.5115   29.4152   43.9280 H   0  0  0  0  0  0  0  0  0  0  0  0
   57.1550   27.4460   45.9710 C   0  0  0  0  0  0  0  0  0  0  0  0
   57.5270   28.6600   45.6880 N   0  0  0  0  0  0  0  0  0  0  0  0
   56.8430   29.7380   44.5180 S   0  0  0  0  0  0  0  0  0  0  0  0
   57.1740   29.2850   43.1220 O   0  0  0  0  0  0  0  0  0  0  0  0
   55.3510   29.7910   44.6890 O   0  0  0  0  0  0  0  0  0  0  0  0
   57.5500   31.3310   44.8060 C   0  0  0  0  0  0  0  0  0  0  0  0
   57.9250   31.6990   46.1080 C   0  0  0  0  0  0  0  0  0  0  0  0
   57.7289   31.0149   46.9468 H   0  0  0  0  0  0  0  0  0  0  0  0
   58.5460   32.9290   46.3460 C   0  0  0  0  0  0  0  0  0  0  0  0
   59.0180   33.3730   47.9760 Cl  0  0  0  0  0  0  0  0  0  0  0  0
   58.7990   33.8010   45.2850 C   0  0  0  0  0  0  0  0  0  0  0  0
   59.2874   34.7685   45.4730 H   0  0  0  0  0  0  0  0  0  0  0  0
   58.4320   33.4450   43.9850 C   0  0  0  0  0  0  0  0  0  0  0  0
   58.6310   34.1351   43.1519 H   0  0  0  0  0  0  0  0  0  0  0  0
   57.8120   32.2140   43.7370 C   0  0  0  0  0  0  0  0  0  0  0  0
   57.3990   31.8120   42.0740 Cl  0  0  0  0  0  0  0  0  0  0  0  0
   55.8700   27.0290   45.7390 N   0  0  0  0  0  0  0  0  0  0  0  0
   55.1470   27.6770   45.3590 H   0  0  0  0  0  0  0  0  0  0  0  0
   55.4890   25.7470   45.9800 C   0  0  0  0  0  0  0  0  0  0  0  0
   54.4520   25.4341   45.7886 H   0  0  0  0  0  0  0  0  0  0  0  0
  1  2  1  0
  2  3  1  0
  3  4  1  0
  4  5  2  0
  5  6  1  0
  6  7  2  0
  7  8  1  0
  7  9  1  0
  9 10  1  0
  9 11  2  0
 11 12  1  0
 11 13  1  0
 13 14  1  0
 13 15  2  0
 15 16  1  0
 16 17  1  0
 17 18  1  0
 17 19  1  0
 17 20  1  0
  4 21  1  0
 21 22  2  3
 22 23  1  0
 23 24  2  0
 23 25  2  0
 23 26  1  0
 26 27  2  0
 27 28  1  0
 27 29  1  0
 29 30  1  0
 29 31  2  0
 31 32  1  0
 31 33  1  0
 33 34  1  0
 33 35  2  0
 35 36  1  0
 21 37  1  0
 37 38  1  0
 37 39  1  0
 39 40  1  0
 39  2  2  0
 15  6  1  0
 35 26  1  0
M  CHG  1   3  -1
M  END
>  <UniqueID>  (26) 
25

>  <SMILES>  (26) 
COc1ccccc1/N=c1/[n-]cc[nH]c1=NS(=O)(=O)c1cc(Cl)ccc1Cl

>  <Energy>  (26) 
60.63984440821966

>  <Genealogy>  (26) 
COc1ccccc1N=c1[n-]cc[nH]c1=NS(=O)(=O)c1cc(Cl)ccc1Cl (protonated)
COc1ccccc1/N=c1/[n-]cc[nH]c1=NS(=O)(=O)c1cc(Cl)ccc1Cl (cis-trans isomerization)
COc1ccccc1/N=c1/[n-]cc[nH]c1=NS(=O)(=O)c1cc(Cl)ccc1Cl (3D coordinates assigned)
COc1ccccc1/N=c1/[n-]cc[nH]c1=NS(=O)(=O)c1cc(Cl)ccc1Cl (optimized conformer: 60.63984440821966 kcal/mol)

>  <smiles>  (26) 
COc1ccccc1N=c1[nH]cc[nH]c1=NS(=O)(=O)c1cc(Cl)ccc1Cl

>  <score_type>  (26) 
oracle

>  <origin>  (26) 
adg

>  <m_score__min__energy>  (26) 
-10.48

>  <m_primary>  (26) 
energy

$$$$
26:0
     RDKit          3D

 33 35  0  0  0  0  0  0  0  0999 V2000
   58.2504   35.4889   44.2657 H   0  0  0  0  0  0  0  0  0  0  0  0
   58.4260   34.5860   44.8690 C   0  0  0  0  0  0  0  0  0  0  0  0
   59.3190   34.6260   45.9420 C   0  0  0  0  0  0  0  0  0  0  0  0
   59.8452   35.5611   46.1843 H   0  0  0  0  0  0  0  0  0  0  0  0
   59.5450   33.4780   46.7090 C   0  0  0  0  0  0  0  0  0  0  0  0
   60.2504   33.5150   47.5522 H   0  0  0  0  0  0  0  0  0  0  0  0
   58.8770   32.2770   46.4100 C   0  0  0  0  0  0  0  0  0  0  0  0
   59.1190   31.0610   47.2250 C   0  0  0  0  0  0  0  0  0  0  0  0
   59.2450   31.1540   48.6190 C   0  0  0  0  0  0  0  0  0  0  0  0
   59.1665   32.1315   49.1172 H   0  0  0  0  0  0  0  0  0  0  0  0
   59.4700   30.0020   49.3690 C   0  0  0  0  0  0  0  0  0  0  0  0
   59.5616   30.0674   50.4632 H   0  0  0  0  0  0  0  0  0  0  0  0
   59.5790   28.7680   48.7340 C   0  0  0  0  0  0  0  0  0  0  0  0
   59.7492   27.8555   49.3243 H   0  0  0  0  0  0  0  0  0  0  0  0
   59.4700   28.6940   47.3300 C   0  0  0  0  0  0  0  0  0  0  0  0
   59.5490   27.5630   46.6830 N   0  0  0  0  0  0  0  0  0  0  0  0
   58.4690   26.7100   46.2700 C   0  0  0  0  0  0  0  0  0  0  0  0
   58.7450   25.3840   45.9120 C   0  0  0  0  0  0  0  0  0  0  0  0
   59.7840   25.0227   45.9095 H   0  0  0  0  0  0  0  0  0  0  0  0
   57.7070   24.5180   45.5580 C   0  0  0  0  0  0  0  0  0  0  0  0
   57.9322   23.4835   45.2594 H   0  0  0  0  0  0  0  0  0  0  0  0
   56.3830   24.9650   45.5830 C   0  0  0  0  0  0  0  0  0  0  0  0
   55.5676   24.2858   45.2936 H   0  0  0  0  0  0  0  0  0  0  0  0
   56.0950   26.2760   45.9760 C   0  0  0  0  0  0  0  0  0  0  0  0
   54.7770   26.7150   46.0200 O   0  0  0  0  0  0  0  0  0  0  0  0
   57.1330   27.1440   46.3290 C   0  0  0  0  0  0  0  0  0  0  0  0
   56.9035   28.1696   46.6539 H   0  0  0  0  0  0  0  0  0  0  0  0
   59.2270   29.8360   46.6240 N   0  0  0  0  0  0  0  0  0  0  0  0
   59.1100   29.7640   45.5860 H   0  0  0  0  0  0  0  0  0  0  0  0
   57.9780   32.2500   45.3260 C   0  0  0  0  0  0  0  0  0  0  0  0
   57.4474   31.3187   45.0789 H   0  0  0  0  0  0  0  0  0  0  0  0
   57.7560   33.4000   44.5620 C   0  0  0  0  0  0  0  0  0  0  0  0
   57.0520   33.3702   43.7173 H   0  0  0  0  0  0  0  0  0  0  0  0
  1  2  1  0
  2  3  2  0
  3  4  1  0
  3  5  1  0
  5  6  1  0
  5  7  2  0
  7  8  1  0
  8  9  2  0
  9 10  1  0
  9 11  1  0
 11 12  1  0
 11 13  2  0
 13 14  1  0
 13 15  1  0
 15 16  2  0
 16 17  1  0
 17 18  2  0
 18 19  1  0
 18 20  1  0
 20 21  1  0
 20 22  2  0
 22 23  1  0
 22 24  1  0
 24 25  1  0
 24 26  2  0
 26 27  1  0
 15 28  1  0
 28 29  1  0
  7 30  1  0
 30 31  1  0
 30 32  2  0
 32 33  1  0
 32  2  1  0
 28  8  1  0
 26 17  1  0
M  CHG  1  25  -1
M  END
>  <UniqueID>  (27) 
26

>  <SMILES>  (27) 
[O-]c1cccc(/N=c2\cccc(-c3ccccc3)[nH]2)c1

>  <Energy>  (27) 
51.16474226272775

>  <Genealogy>  (27) 
[O-]c1cccc(N=c2cccc(-c3ccccc3)[nH]2)c1 (protonated)
[O-]c1cccc(/N=c2\cccc(-c3ccccc3)[nH]2)c1 (cis-trans isomerization)
[O-]c1cccc(/N=c2\cccc(-c3ccccc3)[nH]2)c1 (3D coordinates assigned)
[O-]c1cccc(/N=c2\cccc(-c3ccccc3)[nH]2)c1 (optimized conformer: 51.16474226272775 kcal/mol)

>  <smiles>  (27) 
Oc1cccc(N=c2cccc(-c3ccccc3)[nH]2)c1

>  <score_type>  (27) 
oracle

>  <origin>  (27) 
adg

>  <m_score__min__energy>  (27) 
-11.119999999999999

>  <m_primary>  (27) 
energy

$$$$
27:0
     RDKit          3D

 50 52  0  0  0  0  0  0  0  0999 V2000
   57.0260   22.5610   43.7020 C   0  0  0  0  0  0  0  0  0  0  0  0
   58.1060   23.0530   44.6570 C   0  0  0  0  0  0  0  0  0  0  0  0
   57.6600   24.2990   45.3630 C   0  0  0  0  0  0  0  0  0  0  0  0
   56.3240   24.7150   45.3160 C   0  0  0  0  0  0  0  0  0  0  0  0
   55.9610   25.8730   46.0080 C   0  0  0  0  0  0  0  0  0  0  0  0
   54.7720   26.2850   45.9710 O   0  0  0  0  0  0  0  0  0  0  0  0
   56.8930   26.5570   46.7220 N   0  0  0  0  0  0  0  0  0  0  0  0
   58.1820   26.1300   46.7710 C   0  0  0  0  0  0  0  0  0  0  0  0
   59.4020   27.0620   47.6950 S   0  0  0  0  0  0  0  0  0  0  0  0
   60.4140   27.4780   46.2290 C   0  0  0  0  0  0  0  0  0  0  0  0
   59.9470   28.7430   45.5730 C   0  0  0  0  0  0  0  0  0  0  0  0
   60.5370   29.1680   44.5440 O   0  0  0  0  0  0  0  0  0  0  0  0
   58.9090   29.5230   46.1830 N   0  0  0  0  0  0  0  0  0  0  0  0
   58.5020   30.7970   45.6640 C   0  0  0  0  0  0  0  0  0  0  0  0
   58.1880   30.9050   44.3010 C   0  0  0  0  0  0  0  0  0  0  0  0
   57.8040   32.1340   43.7570 C   0  0  0  0  0  0  0  0  0  0  0  0
   57.7540   33.2700   44.5660 C   0  0  0  0  0  0  0  0  0  0  0  0
   58.0880   33.1810   45.9210 C   0  0  0  0  0  0  0  0  0  0  0  0
   58.4470   31.9470   46.4850 C   0  0  0  0  0  0  0  0  0  0  0  0
   58.8930   31.8980   47.8900 C   0  0  0  0  0  0  0  0  0  0  0  0
   59.2470   30.7920   48.3760 O   0  0  0  0  0  0  0  0  0  0  0  0
   58.9230   33.0630   48.7260 N   0  0  0  0  0  0  0  0  0  0  0  0
   59.7450   34.2500   48.5020 C   0  0  0  0  0  0  0  0  0  0  0  0
   61.1520   33.8780   48.1200 C   0  0  0  0  0  0  0  0  0  0  0  0
   61.5430   33.8600   46.7700 C   0  0  0  0  0  0  0  0  0  0  0  0
   62.8470   33.4950   46.4200 C   0  0  0  0  0  0  0  0  0  0  0  0
   63.7640   33.1320   47.4120 C   0  0  0  0  0  0  0  0  0  0  0  0
   63.3780   33.1290   48.7560 C   0  0  0  0  0  0  0  0  0  0  0  0
   62.0750   33.4930   49.1100 C   0  0  0  0  0  0  0  0  0  0  0  0
   58.5570   25.0120   46.0970 N   0  0  0  0  0  0  0  0  0  0  0  0
   56.1744   22.1730   44.2801 H   0  0  0  0  0  0  0  0  0  0  0  0
   56.6895   23.3947   43.0681 H   0  0  0  0  0  0  0  0  0  0  0  0
   57.4342   21.7600   43.0681 H   0  0  0  0  0  0  0  0  0  0  0  0
   58.3137   22.2704   45.4016 H   0  0  0  0  0  0  0  0  0  0  0  0
   59.0140   23.2792   44.0787 H   0  0  0  0  0  0  0  0  0  0  0  0
   55.5767   24.1427   44.7468 H   0  0  0  0  0  0  0  0  0  0  0  0
   61.4607   27.6046   46.5427 H   0  0  0  0  0  0  0  0  0  0  0  0
   60.3166   26.6586   45.5016 H   0  0  0  0  0  0  0  0  0  0  0  0
   58.6010   29.2690   47.1490 H   0  0  0  0  0  0  0  0  0  0  0  0
   58.2444   30.0160   43.6556 H   0  0  0  0  0  0  0  0  0  0  0  0
   57.5412   32.2057   42.6913 H   0  0  0  0  0  0  0  0  0  0  0  0
   57.4514   34.2368   44.1372 H   0  0  0  0  0  0  0  0  0  0  0  0
   58.0692   34.0840   46.5489 H   0  0  0  0  0  0  0  0  0  0  0  0
   59.2998   34.8462   47.6919 H   0  0  0  0  0  0  0  0  0  0  0  0
   59.7810   34.8282   49.4371 H   0  0  0  0  0  0  0  0  0  0  0  0
   60.8212   34.1338   45.9864 H   0  0  0  0  0  0  0  0  0  0  0  0
   63.1519   33.4934   45.3631 H   0  0  0  0  0  0  0  0  0  0  0  0
   64.7900   32.8486   47.1345 H   0  0  0  0  0  0  0  0  0  0  0  0
   64.0992   32.8403   49.5348 H   0  0  0  0  0  0  0  0  0  0  0  0
   61.7703   33.4783   50.1668 H   0  0  0  0  0  0  0  0  0  0  0  0
  1  2  1  0
  2  3  1  0
  3  4  2  0
  4  5  1  0
  5  6  2  0
  5  7  1  0
  7  8  1  0
  8  9  1  0
  9 10  1  0
 10 11  1  0
 11 12  2  0
 11 13  1  0
 13 14  1  0
 14 15  2  0
 15 16  1  0
 16 17  2  0
 17 18  1  0
 18 19  2  0
 19 20  1  0
 20 21  2  0
 20 22  1  0
 22 23  1  0
 23 24  1  0
 24 25  2  0
 25 26  1  0
 26 27  2  0
 27 28  1  0
 28 29  2  0
  8 30  2  0
 30  3  1  0
 19 14  1  0
 29 24  1  0
  1 31  1  0
  1 32  1  0
  1 33  1  0
  2 34  1  0
  2 35  1  0
  4 36  1  0
 10 37  1  0
 10 38  1  0
 13 39  1  0
 15 40  1  0
 16 41  1  0
 17 42  1  0
 18 43  1  0
 23 44  1  0
 23 45  1  0
 25 46  1  0
 26 47  1  0
 27 48  1  0
 28 49  1  0
 29 50  1  0
M  CHG  2   7  -1  22  -1
M  END
>  <UniqueID>  (28) 
27

>  <SMILES>  (28) 
CCc1cc(=O)[n-]c(SCC(=O)Nc2ccccc2C(=O)[N-]Cc2ccccc2)n1

>  <Energy>  (28) 
54.22900937101675

>  <Genealogy>  (28) 
CCc1cc(=O)[n-]c(SCC(=O)Nc2ccccc2C(=O)[N-]Cc2ccccc2)n1 (protonated)
CCc1cc(=O)[n-]c(SCC(=O)Nc2ccccc2C(=O)[N-]Cc2ccccc2)n1 (3D coordinates assigned)
CCc1cc(=O)[n-]c(SCC(=O)Nc2ccccc2C(=O)[N-]Cc2ccccc2)n1 (optimized conformer: 54.22900937101675 kcal/mol)

>  <smiles>  (28) 
CCc1cc(=O)[nH]c(SCC(=O)Nc2ccccc2C(=O)NCc2ccccc2)n1

>  <score_type>  (28) 
oracle

>  <origin>  (28) 
adg

>  <m_score__min__energy>  (28) 
-11.51

>  <m_primary>  (28) 
energy

$$$$
28:0
     RDKit          3D

 28 29  0  0  0  0  0  0  0  0999 V2000
   60.0190   36.0220   45.9970 C   0  0  0  0  0  0  0  0  0  0  0  0
   59.6890   34.5890   45.9400 N   0  0  0  0  0  0  0  0  0  0  0  0
   58.6250   34.1620   45.1770 C   0  0  0  0  0  0  0  0  0  0  0  0
   57.9310   34.9690   44.5010 O   0  0  0  0  0  0  0  0  0  0  0  0
   58.3250   32.8130   45.1720 C   0  0  0  0  0  0  0  0  0  0  0  0
   57.3530   32.0610   44.5430 C   0  0  0  0  0  0  0  0  0  0  0  0
   57.5370   30.7780   44.9320 N   0  0  0  0  0  0  0  0  0  0  0  0
   56.5940   29.4220   44.4140 S   0  0  0  0  0  0  0  0  0  0  0  0
   56.6310   29.3190   42.6400 C   0  0  0  0  0  0  0  0  0  0  0  0
   57.1600   28.1620   45.0070 O   0  0  0  0  0  0  0  0  0  0  0  0
   55.1750   29.5860   44.8820 O   0  0  0  0  0  0  0  0  0  0  0  0
   58.5680   30.6940   45.7630 N   0  0  0  0  0  0  0  0  0  0  0  0
   59.0540   31.9400   45.9120 C   0  0  0  0  0  0  0  0  0  0  0  0
   60.1010   32.3380   46.6860 N   0  0  0  0  0  0  0  0  0  0  0  0
   60.8380   31.3530   47.4890 C   0  0  0  0  0  0  0  0  0  0  0  0
   60.4040   33.6860   46.7120 C   0  0  0  0  0  0  0  0  0  0  0  0
   61.3400   34.1010   47.4520 O   0  0  0  0  0  0  0  0  0  0  0  0
   60.0922   36.3399   47.0475 H   0  0  0  0  0  0  0  0  0  0  0  0
   60.9810   36.1971   45.4930 H   0  0  0  0  0  0  0  0  0  0  0  0
   59.2305   36.6002   45.4930 H   0  0  0  0  0  0  0  0  0  0  0  0
   56.5777   32.4333   43.8572 H   0  0  0  0  0  0  0  0  0  0  0  0
   56.9886   28.3236   42.3379 H   0  0  0  0  0  0  0  0  0  0  0  0
   55.6184   29.4812   42.2421 H   0  0  0  0  0  0  0  0  0  0  0  0
   57.3089   30.0885   42.2421 H   0  0  0  0  0  0  0  0  0  0  0  0
   58.9130   29.8130   46.2040 H   0  0  0  0  0  0  0  0  0  0  0  0
   60.6823   31.5610   48.5579 H   0  0  0  0  0  0  0  0  0  0  0  0
   60.4726   30.3421   47.2552 H   0  0  0  0  0  0  0  0  0  0  0  0
   61.9109   31.4183   47.2552 H   0  0  0  0  0  0  0  0  0  0  0  0
  1  2  1  0
  2  3  1  0
  3  4  2  0
  3  5  1  0
  5  6  2  0
  6  7  1  0
  7  8  1  0
  8  9  1  0
  8 10  2  0
  8 11  2  0
  7 12  1  0
 12 13  2  0
 13 14  1  0
 14 15  1  0
 14 16  1  0
 16 17  2  0
 16  2  1  0
 13  5  1  0
  1 18  1  0
  1 19  1  0
  1 20  1  0
  6 21  1  0
  9 22  1  0
  9 23  1  0
  9 24  1  0
 12 25  1  0
 15 26  1  0
 15 27  1  0
 15 28  1  0
M  CHG  1  12   1
M  END
>  <UniqueID>  (29) 
28

>  <SMILES>  (29) 
Cn1c(=O)c2cn(S(C)(=O)=O)[nH+]c2n(C)c1=O

>  <Energy>  (29) 
72.34817719600247

>  <Genealogy>  (29) 
Cn1c(=O)c2cn(S(C)(=O)=O)[nH+]c2n(C)c1=O (protonated)
Cn1c(=O)c2cn(S(C)(=O)=O)[nH+]c2n(C)c1=O (3D coordinates assigned)
Cn1c(=O)c2cn(S(C)(=O)=O)[nH+]c2n(C)c1=O (optimized conformer: 72.34817719600247 kcal/mol)

>  <smiles>  (29) 
Cn1c(=O)c2cn(S(C)(=O)=O)nc2n(C)c1=O

>  <score_type>  (29) 
oracle

>  <origin>  (29) 
adg

>  <m_score__min__energy>  (29) 
-4.7400000000000002

>  <m_primary>  (29) 
energy

$$$$
29:0
     RDKit          3D

 50 52  0  0  0  0  0  0  0  0999 V2000
   63.2750   33.7780   46.7270 C   0  0  0  0  0  0  0  0  0  0  0  0
   63.2860   32.4170   47.4060 C   0  0  0  0  0  0  0  0  0  0  0  0
   62.0870   31.7190   47.0900 O   0  0  0  0  0  0  0  0  0  0  0  0
   61.1640   31.3220   48.0640 C   0  0  0  0  0  0  0  0  0  0  0  0
   61.5060   30.5220   48.9790 O   0  0  0  0  0  0  0  0  0  0  0  0
   59.7720   31.9010   48.0330 C   0  0  2  0  0  0  0  0  0  0  0  0
   59.6220   32.8670   49.1970 C   0  0  0  0  0  0  0  0  0  0  0  0
   60.0280   34.3010   49.0460 C   0  0  0  0  0  0  0  0  0  0  0  0
   59.2090   34.9130   48.0550 O   0  0  0  0  0  0  0  0  0  0  0  0
   58.8440   34.3080   46.8420 C   0  0  0  0  0  0  0  0  0  0  0  0
   59.7210   34.4140   45.7560 C   0  0  0  0  0  0  0  0  0  0  0  0
   59.3990   33.8330   44.5250 C   0  0  0  0  0  0  0  0  0  0  0  0
   58.1980   33.1350   44.3710 C   0  0  0  0  0  0  0  0  0  0  0  0
   57.7600   32.3430   42.6900 Br  0  0  0  0  0  0  0  0  0  0  0  0
   57.3170   33.0190   45.4520 C   0  0  0  0  0  0  0  0  0  0  0  0
   57.6340   33.6010   46.6840 C   0  0  0  0  0  0  0  0  0  0  0  0
   59.1950   32.4530   50.3570 N   0  0  0  0  0  0  0  0  0  0  0  0
   58.7840   31.0990   50.5680 C   0  0  0  0  0  0  0  0  0  0  0  0
   58.5550   30.6810   51.7330 O   0  0  0  0  0  0  0  0  0  0  0  0
   58.6560   30.2240   49.4460 N   0  0  0  0  0  0  0  0  0  0  0  0
   58.6570   30.8160   48.1020 C   0  0  2  0  0  0  0  0  0  0  0  0
   58.6740   29.7430   47.0100 C   0  0  0  0  0  0  0  0  0  0  0  0
   59.4400   28.5780   47.2160 C   0  0  0  0  0  0  0  0  0  0  0  0
   59.4570   27.5500   46.2700 C   0  0  0  0  0  0  0  0  0  0  0  0
   58.6790   27.6460   45.1040 C   0  0  0  0  0  0  0  0  0  0  0  0
   58.6700   26.6470   44.1200 O   0  0  0  0  0  0  0  0  0  0  0  0
   58.1340   26.8140   42.8100 C   0  0  0  0  0  0  0  0  0  0  0  0
   57.8760   28.7740   44.9150 C   0  0  0  0  0  0  0  0  0  0  0  0
   57.8560   29.8030   45.8620 C   0  0  0  0  0  0  0  0  0  0  0  0
   63.2686   34.5690   47.4913 H   0  0  0  0  0  0  0  0  0  0  0  0
   64.1723   33.8819   46.0993 H   0  0  0  0  0  0  0  0  0  0  0  0
   62.3761   33.8674   46.0993 H   0  0  0  0  0  0  0  0  0  0  0  0
   64.1515   31.8377   47.0520 H   0  0  0  0  0  0  0  0  0  0  0  0
   63.3553   32.5516   48.4955 H   0  0  0  0  0  0  0  0  0  0  0  0
   59.6462   32.4172   47.0698 H   0  0  0  0  0  0  0  0  0  0  0  0
   59.8990   34.8237   50.0052 H   0  0  0  0  0  0  0  0  0  0  0  0
   61.0838   34.3583   48.7426 H   0  0  0  0  0  0  0  0  0  0  0  0
   60.6700   34.9580   45.8715 H   0  0  0  0  0  0  0  0  0  0  0  0
   60.0926   33.9257   43.6763 H   0  0  0  0  0  0  0  0  0  0  0  0
   56.3722   32.4684   45.3326 H   0  0  0  0  0  0  0  0  0  0  0  0
   56.9383   33.5070   47.5309 H   0  0  0  0  0  0  0  0  0  0  0  0
   58.6170   29.1920   49.6050 H   0  0  0  0  0  0  0  0  0  0  0  0
   57.7142   31.3445   47.8974 H   0  0  0  0  0  0  0  0  0  0  0  0
   60.0339   28.4765   48.1363 H   0  0  0  0  0  0  0  0  0  0  0  0
   60.0826   26.6611   46.4389 H   0  0  0  0  0  0  0  0  0  0  0  0
   57.0860   27.1405   42.8815 H   0  0  0  0  0  0  0  0  0  0  0  0
   58.7183   27.5727   42.2687 H   0  0  0  0  0  0  0  0  0  0  0  0
   58.1840   25.8577   42.2687 H   0  0  0  0  0  0  0  0  0  0  0  0
   57.2531   28.8534   44.0119 H   0  0  0  0  0  0  0  0  0  0  0  0
   57.1950   30.6690   45.7101 H   0  0  0  0  0  0  0  0  0  0  0  0
  1  2  1  0
  2  3  1  0
  3  4  1  0
  4  5  2  0
  4  6  1  0
  6  7  1  0
  7  8  1  0
  8  9  1  0
  9 10  1  0
 10 11  2  0
 11 12  1  0
 12 13  2  0
 13 14  1  0
 13 15  1  0
 15 16  2  0
  7 17  2  0
 17 18  1  0
 18 19  2  0
 18 20  1  0
 20 21  1  0
 21 22  1  0
 22 23  2  0
 23 24  1  0
 24 25  2  0
 25 26  1  0
 26 27  1  0
 25 28  1  0
 28 29  2  0
 21  6  1  0
 29 22  1  0
 16 10  1  0
  1 30  1  0
  1 31  1  0
  1 32  1  0
  2 33  1  0
  2 34  1  0
  6 35  1  6
  8 36  1  0
  8 37  1  0
 11 38  1  0
 12 39  1  0
 15 40  1  0
 16 41  1  0
 20 42  1  0
 21 43  1  6
 23 44  1  0
 24 45  1  0
 27 46  1  0
 27 47  1  0
 27 48  1  0
 28 49  1  0
 29 50  1  0
M  END
>  <UniqueID>  (30) 
29

>  <SMILES>  (30) 
CCOC(=O)[C@@H]1C(COc2ccc(Br)cc2)=NC(=O)N[C@@H]1c1ccc(OC)cc1

>  <Energy>  (30) 
50.115234412462314

>  <Genealogy>  (30) 
CCOC(=O)[C@@H]1C(COc2ccc(Br)cc2)=NC(=O)N[C@@H]1c1ccc(OC)cc1 (chirality)
CCOC(=O)[C@@H]1C(COc2ccc(Br)cc2)=NC(=O)N[C@@H]1c1ccc(OC)cc1 (3D coordinates assigned)
CCOC(=O)[C@@H]1C(COc2ccc(Br)cc2)=NC(=O)N[C@@H]1c1ccc(OC)cc1 (nonaromatic ring conformer: 50.115234412462314 kcal/mol)

>  <smiles>  (30) 
CCOC(=O)C1C(COc2ccc(Br)cc2)=NC(=O)NC1c1ccc(OC)cc1

>  <score_type>  (30) 
oracle

>  <origin>  (30) 
adg

>  <m_score__min__energy>  (30) 
-7.5

>  <m_primary>  (30) 
energy

$$$$
30:0
     RDKit          3D

 56 59  0  0  0  0  0  0  0  0999 V2000
   57.0150   20.8660   42.6620 C   0  0  0  0  0  0  0  0  0  0  0  0
   56.0740   21.8840   42.9890 O   0  0  0  0  0  0  0  0  0  0  0  0
   56.2660   22.8480   43.9880 C   0  0  0  0  0  0  0  0  0  0  0  0
   55.2050   23.6040   44.5250 C   0  0  0  0  0  0  0  0  0  0  0  0
   55.4500   24.5530   45.5220 C   0  0  0  0  0  0  0  0  0  0  0  0
   56.7530   24.7570   46.0030 C   0  0  0  0  0  0  0  0  0  0  0  0
   57.0260   25.7820   47.0710 C   0  0  0  0  0  0  0  0  0  0  0  0
   58.4340   25.7510   47.4530 N   0  0  0  0  0  0  0  0  0  0  0  0
   59.3630   26.7950   47.1370 C   0  0  0  0  0  0  0  0  0  0  0  0
   60.5510   26.7270   47.5570 O   0  0  0  0  0  0  0  0  0  0  0  0
   58.9330   27.9500   46.3170 C   0  0  0  0  0  0  0  0  0  0  0  0
   58.7920   27.8200   44.9070 C   0  0  0  0  0  0  0  0  0  0  0  0
   58.3840   28.9110   44.1190 C   0  0  0  0  0  0  0  0  0  0  0  0
   58.1320   30.1190   44.7670 C   0  0  0  0  0  0  0  0  0  0  0  0
   58.2610   30.2540   46.1170 C   0  0  0  0  0  0  0  0  0  0  0  0
   58.6550   29.1960   46.9290 C   0  0  0  0  0  0  0  0  0  0  0  0
   57.9480   31.5060   46.4990 N   0  0  0  0  0  0  0  0  0  0  0  0
   57.6250   32.1100   45.3280 C   0  0  0  0  0  0  0  0  0  0  0  0
   57.0950   33.8240   45.2480 S   0  0  0  0  0  0  0  0  0  0  0  0
   58.6900   34.4370   44.6040 C   0  0  0  0  0  0  0  0  0  0  0  0
   59.6950   34.6140   45.7030 C   0  0  0  0  0  0  0  0  0  0  0  0
   59.9600   35.7750   46.1210 O   0  0  0  0  0  0  0  0  0  0  0  0
   60.2750   33.4630   46.3370 N   0  0  0  0  0  0  0  0  0  0  0  0
   61.3060   33.5460   47.3340 C   0  0  0  0  0  0  0  0  0  0  0  0
   62.6150   33.1720   46.9990 C   0  0  0  0  0  0  0  0  0  0  0  0
   63.6400   33.2540   47.9460 C   0  0  0  0  0  0  0  0  0  0  0  0
   63.3670   33.7290   49.2320 C   0  0  0  0  0  0  0  0  0  0  0  0
   64.3630   33.8140   50.1480 F   0  0  0  0  0  0  0  0  0  0  0  0
   62.0700   34.1270   49.5700 C   0  0  0  0  0  0  0  0  0  0  0  0
   61.0400   34.0430   48.6260 C   0  0  0  0  0  0  0  0  0  0  0  0
   59.8030   34.4890   48.9590 F   0  0  0  0  0  0  0  0  0  0  0  0
   57.7400   31.2930   44.2470 N   0  0  0  0  0  0  0  0  0  0  0  0
   57.4150   31.5830   42.8520 C   0  0  0  0  0  0  0  0  0  0  0  0
   57.8100   24.0090   45.4620 C   0  0  0  0  0  0  0  0  0  0  0  0
   57.5650   23.0630   44.4640 C   0  0  0  0  0  0  0  0  0  0  0  0
   57.4189   20.4291   43.5872 H   0  0  0  0  0  0  0  0  0  0  0  0
   56.5169   20.0817   42.0731 H   0  0  0  0  0  0  0  0  0  0  0  0
   57.8360   21.3010   42.0731 H   0  0  0  0  0  0  0  0  0  0  0  0
   54.1799   23.4469   44.1583 H   0  0  0  0  0  0  0  0  0  0  0  0
   54.6171   25.1431   45.9318 H   0  0  0  0  0  0  0  0  0  0  0  0
   56.7759   26.7820   46.6870 H   0  0  0  0  0  0  0  0  0  0  0  0
   56.4102   25.5530   47.9533 H   0  0  0  0  0  0  0  0  0  0  0  0
   59.0049   26.8534   44.4271 H   0  0  0  0  0  0  0  0  0  0  0  0
   58.2678   28.8144   43.0294 H   0  0  0  0  0  0  0  0  0  0  0  0
   58.7481   29.3238   48.0176 H   0  0  0  0  0  0  0  0  0  0  0  0
   59.0824   33.7138   43.8739 H   0  0  0  0  0  0  0  0  0  0  0  0
   58.5185   35.4158   44.1323 H   0  0  0  0  0  0  0  0  0  0  0  0
   59.8150   32.5370   46.1860 H   0  0  0  0  0  0  0  0  0  0  0  0
   62.8371   32.8115   45.9838 H   0  0  0  0  0  0  0  0  0  0  0  0
   64.6614   32.9447   47.6792 H   0  0  0  0  0  0  0  0  0  0  0  0
   61.8585   34.5071   50.5803 H   0  0  0  0  0  0  0  0  0  0  0  0
   56.5948   32.3149   42.8111 H   0  0  0  0  0  0  0  0  0  0  0  0
   58.3008   31.9964   42.3474 H   0  0  0  0  0  0  0  0  0  0  0  0
   57.1048   30.6561   42.3474 H   0  0  0  0  0  0  0  0  0  0  0  0
   58.8359   24.1684   45.8255 H   0  0  0  0  0  0  0  0  0  0  0  0
   58.4008   22.4813   44.0480 H   0  0  0  0  0  0  0  0  0  0  0  0
  1  2  1  0
  2  3  1  0
  3  4  2  0
  4  5  1  0
  5  6  2  0
  6  7  1  0
  7  8  1  0
  8  9  1  0
  9 10  2  0
  9 11  1  0
 11 12  2  0
 12 13  1  0
 13 14  2  0
 14 15  1  0
 15 16  2  0
 15 17  1  0
 17 18  2  0
 18 19  1  0
 19 20  1  0
 20 21  1  0
 21 22  2  0
 21 23  1  0
 23 24  1  0
 24 25  2  0
 25 26  1  0
 26 27  2  0
 27 28  1  0
 27 29  1  0
 29 30  2  0
 30 31  1  0
 18 32  1  0
 32 33  1  0
  6 34  1  0
 34 35  2  0
 35  3  1  0
 16 11  1  0
 30 24  1  0
 32 14  1  0
  1 36  1  0
  1 37  1  0
  1 38  1  0
  4 39  1  0
  5 40  1  0
  7 41  1  0
  7 42  1  0
 12 43  1  0
 13 44  1  0
 16 45  1  0
 20 46  1  0
 20 47  1  0
 23 48  1  0
 25 49  1  0
 26 50  1  0
 29 51  1  0
 33 52  1  0
 33 53  1  0
 33 54  1  0
 34 55  1  0
 35 56  1  0
M  CHG  1   8  -1
M  END
>  <UniqueID>  (31) 
30

>  <SMILES>  (31) 
COc1ccc(C[N-]C(=O)c2ccc3c(c2)nc(SCC(=O)Nc2ccc(F)cc2F)n3C)cc1

>  <Energy>  (31) 
94.22557359926897

>  <Genealogy>  (31) 
COc1ccc(C[N-]C(=O)c2ccc3c(c2)nc(SCC(=O)Nc2ccc(F)cc2F)n3C)cc1 (protonated)
COc1ccc(C[N-]C(=O)c2ccc3c(c2)nc(SCC(=O)Nc2ccc(F)cc2F)n3C)cc1 (3D coordinates assigned)
COc1ccc(C[N-]C(=O)c2ccc3c(c2)nc(SCC(=O)Nc2ccc(F)cc2F)n3C)cc1 (optimized conformer: 94.22557359926897 kcal/mol)

>  <smiles>  (31) 
COc1ccc(CNC(=O)c2ccc3c(c2)nc(SCC(=O)Nc2ccc(F)cc2F)n3C)cc1

>  <score_type>  (31) 
oracle

>  <origin>  (31) 
adg

>  <m_score__min__energy>  (31) 
-10.4

>  <m_primary>  (31) 
energy

$$$$
31:0
     RDKit          3D

 46 48  0  0  0  0  0  0  0  0999 V2000
   54.9420   25.0540   46.1640 O   0  0  0  0  0  0  0  0  0  0  0  0
   55.8740   25.9000   46.1940 C   0  0  0  0  0  0  0  0  0  0  0  0
   57.0830   25.5880   46.8120 C   0  0  0  0  0  0  0  0  0  0  0  0
   58.1090   26.5340   46.8340 C   0  0  0  0  0  0  0  0  0  0  0  0
   57.9320   27.7950   46.2260 C   0  0  0  0  0  0  0  0  0  0  0  0
   58.9480   28.7950   46.2030 C   0  0  0  0  0  0  0  0  0  0  0  0
   60.3250   28.5810   46.8250 C   0  0  1  0  0  0  0  0  0  0  0  0
   61.0640   29.7780   46.8400 O   0  0  0  0  0  0  0  0  0  0  0  0
   60.1690   28.0650   48.2600 C   0  0  0  0  0  0  0  0  0  0  0  0
   60.7410   29.0330   49.2120 N   0  0  0  0  0  0  0  0  0  0  0  0
   59.7810   30.0680   49.6390 C   0  0  0  0  0  0  0  0  0  0  0  0
   60.3590   31.4940   49.5600 C   0  0  0  0  0  0  0  0  0  0  0  0
   59.8900   32.2310   48.3340 C   0  0  0  0  0  0  0  0  0  0  0  0
   60.8180   32.8150   47.4570 C   0  0  0  0  0  0  0  0  0  0  0  0
   60.3790   33.5510   46.3540 C   0  0  0  0  0  0  0  0  0  0  0  0
   59.0050   33.7330   46.1190 C   0  0  0  0  0  0  0  0  0  0  0  0
   58.5330   34.4940   44.9050 C   0  0  0  0  0  0  0  0  0  0  0  0
   58.8180   33.7910   43.7470 F   0  0  0  0  0  0  0  0  0  0  0  0
   57.1660   34.7010   44.9600 F   0  0  0  0  0  0  0  0  0  0  0  0
   59.1730   35.7180   44.8580 F   0  0  0  0  0  0  0  0  0  0  0  0
   58.0790   33.1230   46.9820 C   0  0  0  0  0  0  0  0  0  0  0  0
   58.5180   32.3870   48.0860 C   0  0  0  0  0  0  0  0  0  0  0  0
   58.6430   30.0540   45.6490 C   0  0  0  0  0  0  0  0  0  0  0  0
   57.4010   30.3070   45.0720 C   0  0  0  0  0  0  0  0  0  0  0  0
   56.4170   29.3160   45.0490 C   0  0  0  0  0  0  0  0  0  0  0  0
   55.1780   29.5710   44.4630 O   0  0  0  0  0  0  0  0  0  0  0  0
   56.6720   28.0680   45.6280 C   0  0  0  0  0  0  0  0  0  0  0  0
   55.6970   27.1190   45.6260 N   0  0  0  0  0  0  0  0  0  0  0  0
   57.2280   24.6029   47.2794 H   0  0  0  0  0  0  0  0  0  0  0  0
   59.0620   26.2949   47.3286 H   0  0  0  0  0  0  0  0  0  0  0  0
   60.8658   27.8417   46.2159 H   0  0  0  0  0  0  0  0  0  0  0  0
   61.4300   29.8760   47.7580 H   0  0  0  0  0  0  0  0  0  0  0  0
   59.1008   27.9246   48.4818 H   0  0  0  0  0  0  0  0  0  0  0  0
   60.7011   27.1072   48.3576 H   0  0  0  0  0  0  0  0  0  0  0  0
   61.1270   28.5290   50.0440 H   0  0  0  0  0  0  0  0  0  0  0  0
   58.8943   30.0127   48.9904 H   0  0  0  0  0  0  0  0  0  0  0  0
   59.5320   29.8716   50.6923 H   0  0  0  0  0  0  0  0  0  0  0  0
   60.0431   32.0541   50.4524 H   0  0  0  0  0  0  0  0  0  0  0  0
   61.4546   31.4116   49.5058 H   0  0  0  0  0  0  0  0  0  0  0  0
   61.8958   32.6923   47.6394 H   0  0  0  0  0  0  0  0  0  0  0  0
   61.1139   33.9915   45.6641 H   0  0  0  0  0  0  0  0  0  0  0  0
   57.0012   33.2254   46.7873 H   0  0  0  0  0  0  0  0  0  0  0  0
   57.7838   31.9275   48.7641 H   0  0  0  0  0  0  0  0  0  0  0  0
   59.3999   30.8519   45.6726 H   0  0  0  0  0  0  0  0  0  0  0  0
   57.1937   31.2934   44.6316 H   0  0  0  0  0  0  0  0  0  0  0  0
   54.3790   28.9690   44.6280 H   0  0  0  0  0  0  0  0  0  0  0  0
  1  2  2  0
  2  3  1  0
  3  4  2  0
  4  5  1  0
  5  6  2  0
  6  7  1  0
  7  8  1  0
  7  9  1  0
  9 10  1  0
 10 11  1  0
 11 12  1  0
 12 13  1  0
 13 14  2  0
 14 15  1  0
 15 16  2  0
 16 17  1  0
 17 18  1  0
 17 19  1  0
 17 20  1  0
 16 21  1  0
 21 22  2  0
  6 23  1  0
 23 24  2  0
 24 25  1  0
 25 26  1  0
 25 27  2  0
 27 28  1  0
 28  2  1  0
 27  5  1  0
 22 13  1  0
  3 29  1  0
  4 30  1  0
  7 31  1  6
  8 32  1  0
  9 33  1  0
  9 34  1  0
 10 35  1  0
 11 36  1  0
 11 37  1  0
 12 38  1  0
 12 39  1  0
 14 40  1  0
 15 41  1  0
 21 42  1  0
 22 43  1  0
 23 44  1  0
 24 45  1  0
 26 46  1  0
M  CHG  1  28  -1
M  END
>  <UniqueID>  (32) 
31

>  <SMILES>  (32) 
O=c1ccc2c([C@@H](O)CNCCc3ccc(C(F)(F)F)cc3)ccc(O)c2[n-]1

>  <Energy>  (32) 
54.29758274291501

>  <Genealogy>  (32) 
O=c1ccc2c(C(O)CNCCc3ccc(C(F)(F)F)cc3)ccc(O)c2[n-]1 (protonated)
O=c1ccc2c([C@@H](O)CNCCc3ccc(C(F)(F)F)cc3)ccc(O)c2[n-]1 (chirality)
O=c1ccc2c([C@@H](O)CNCCc3ccc(C(F)(F)F)cc3)ccc(O)c2[n-]1 (3D coordinates assigned)
O=c1ccc2c([C@@H](O)CNCCc3ccc(C(F)(F)F)cc3)ccc(O)c2[n-]1 (optimized conformer: 54.29758274291501 kcal/mol)

>  <smiles>  (32) 
O=c1ccc2c(C(O)CNCCc3ccc(C(F)(F)F)cc3)ccc(O)c2[nH]1

>  <score_type>  (32) 
oracle

>  <origin>  (32) 
adg

>  <m_score__min__energy>  (32) 
-10.369999999999999

>  <m_primary>  (32) 
energy

$$$$
32:0
     RDKit          3D

 46 49  0  0  0  0  0  0  0  0999 V2000
   59.4740   32.9510   47.0270 C   0  0  0  0  0  0  0  0  0  0  0  0
   60.9800   32.9560   47.0710 C   0  0  0  0  0  0  0  0  0  0  0  0
   61.6650   33.9850   46.3990 C   0  0  0  0  0  0  0  0  0  0  0  0
   63.0580   34.0550   46.4340 C   0  0  0  0  0  0  0  0  0  0  0  0
   63.7880   33.0990   47.1370 C   0  0  0  0  0  0  0  0  0  0  0  0
   63.1290   32.0650   47.8030 C   0  0  0  0  0  0  0  0  0  0  0  0
   61.7240   31.9660   47.7740 C   0  0  0  0  0  0  0  0  0  0  0  0
   61.0840   30.8270   48.4810 C   0  0  0  0  0  0  0  0  0  0  0  0
   60.5250   30.9990   49.5980 O   0  0  0  0  0  0  0  0  0  0  0  0
   61.1270   29.5170   47.8960 N   0  0  0  0  0  0  0  0  0  0  0  0
   60.0040   28.7410   47.4530 C   0  0  0  0  0  0  0  0  0  0  0  0
   59.8370   27.4510   47.9640 C   0  0  0  0  0  0  0  0  0  0  0  0
   58.7680   26.6540   47.5450 C   0  0  0  0  0  0  0  0  0  0  0  0
   57.8570   27.1260   46.5840 C   0  0  0  0  0  0  0  0  0  0  0  0
   56.7230   26.2670   46.1570 C   0  0  0  0  0  0  0  0  0  0  0  0
   56.9250   25.0070   45.5760 C   0  0  0  0  0  0  0  0  0  0  0  0
   55.8250   24.2350   45.1810 C   0  0  0  0  0  0  0  0  0  0  0  0
   56.0620   22.9140   44.5520 C   0  0  0  0  0  0  0  0  0  0  0  0
   56.4410   22.8240   43.2020 C   0  0  0  0  0  0  0  0  0  0  0  0
   56.6830   21.5760   42.6200 C   0  0  0  0  0  0  0  0  0  0  0  0
   56.5570   20.4110   43.3820 C   0  0  0  0  0  0  0  0  0  0  0  0
   56.1910   20.4930   44.7280 C   0  0  0  0  0  0  0  0  0  0  0  0
   55.9490   21.7400   45.3150 C   0  0  0  0  0  0  0  0  0  0  0  0
   54.5300   24.7480   45.4090 C   0  0  0  0  0  0  0  0  0  0  0  0
   53.1740   23.8970   45.0530 S   0  0  0  0  0  0  0  0  0  0  0  0
   54.3940   25.9660   45.9920 N   0  0  0  0  0  0  0  0  0  0  0  0
   55.4480   26.6990   46.3490 N   0  0  0  0  0  0  0  0  0  0  0  0
   58.0370   28.4200   46.0590 C   0  0  0  0  0  0  0  0  0  0  0  0
   59.1050   29.2160   46.4830 C   0  0  0  0  0  0  0  0  0  0  0  0
   59.0772   32.9497   48.0529 H   0  0  0  0  0  0  0  0  0  0  0  0
   59.1196   33.8480   46.4980 H   0  0  0  0  0  0  0  0  0  0  0  0
   59.1256   32.0517   46.4980 H   0  0  0  0  0  0  0  0  0  0  0  0
   61.0961   34.7425   45.8400 H   0  0  0  0  0  0  0  0  0  0  0  0
   63.5806   34.8661   45.9058 H   0  0  0  0  0  0  0  0  0  0  0  0
   64.8859   33.1594   47.1671 H   0  0  0  0  0  0  0  0  0  0  0  0
   63.7144   31.3172   48.3581 H   0  0  0  0  0  0  0  0  0  0  0  0
   60.5527   27.0597   48.7020 H   0  0  0  0  0  0  0  0  0  0  0  0
   58.6383   25.6482   47.9711 H   0  0  0  0  0  0  0  0  0  0  0  0
   57.9463   24.6251   45.4305 H   0  0  0  0  0  0  0  0  0  0  0  0
   56.5477   23.7389   42.6007 H   0  0  0  0  0  0  0  0  0  0  0  0
   56.9730   21.5109   41.5609 H   0  0  0  0  0  0  0  0  0  0  0  0
   56.7459   19.4298   42.9221 H   0  0  0  0  0  0  0  0  0  0  0  0
   56.0929   19.5758   45.3272 H   0  0  0  0  0  0  0  0  0  0  0  0
   55.6694   21.8011   46.3771 H   0  0  0  0  0  0  0  0  0  0  0  0
   57.3316   28.8076   45.3092 H   0  0  0  0  0  0  0  0  0  0  0  0
   59.2425   30.2199   46.0549 H   0  0  0  0  0  0  0  0  0  0  0  0
  1  2  1  0
  2  3  2  0
  3  4  1  0
  4  5  2  0
  5  6  1  0
  6  7  2  0
  7  8  1  0
  8  9  2  0
  8 10  1  0
 10 11  1  0
 11 12  2  0
 12 13  1  0
 13 14  2  0
 14 15  1  0
 15 16  1  0
 16 17  2  0
 17 18  1  0
 18 19  2  0
 19 20  1  0
 20 21  2  0
 21 22  1  0
 22 23  2  0
 17 24  1  0
 24 25  2  0
 24 26  1  0
 26 27  1  0
 14 28  1  0
 28 29  2  0
  7  2  1  0
 29 11  1  0
 27 15  2  0
 23 18  1  0
  1 30  1  0
  1 31  1  0
  1 32  1  0
  3 33  1  0
  4 34  1  0
  5 35  1  0
  6 36  1  0
 12 37  1  0
 13 38  1  0
 16 39  1  0
 19 40  1  0
 20 41  1  0
 21 42  1  0
 22 43  1  0
 23 44  1  0
 28 45  1  0
 29 46  1  0
M  CHG  2  10  -1  26  -1
M  END
>  <UniqueID>  (33) 
32

>  <SMILES>  (33) 
Cc1ccccc1C(=O)[N-]c1ccc(-c2cc(-c3ccccc3)c(=S)[n-]n2)cc1

>  <Energy>  (33) 
73.01749795436689

>  <Genealogy>  (33) 
Cc1ccccc1C(=O)[N-]c1ccc(-c2cc(-c3ccccc3)c(=S)[n-]n2)cc1 (protonated)
Cc1ccccc1C(=O)[N-]c1ccc(-c2cc(-c3ccccc3)c(=S)[n-]n2)cc1 (3D coordinates assigned)
Cc1ccccc1C(=O)[N-]c1ccc(-c2cc(-c3ccccc3)c(=S)[n-]n2)cc1 (optimized conformer: 73.01749795436689 kcal/mol)

>  <smiles>  (33) 
Cc1ccccc1C(=O)Nc1ccc(-c2cc(-c3ccccc3)c(=S)[nH]n2)cc1

>  <score_type>  (33) 
oracle

>  <origin>  (33) 
adg

>  <m_score__min__energy>  (33) 
-12.41

>  <m_primary>  (33) 
energy

$$$$
33:0
     RDKit          3D

 44 45  0  0  0  0  0  0  0  0999 V2000
   60.1310   29.7680   49.2590 C   0  0  0  0  0  0  0  0  0  0  0  0
   60.6460   29.2750   48.0260 O   0  0  0  0  0  0  0  0  0  0  0  0
   59.8870   29.1210   46.8570 C   0  0  0  0  0  0  0  0  0  0  0  0
   58.5120   29.3700   46.9180 C   0  0  0  0  0  0  0  0  0  0  0  0
   57.7120   29.2310   45.7820 C   0  0  0  0  0  0  0  0  0  0  0  0
   58.2780   28.8370   44.5580 C   0  0  0  0  0  0  0  0  0  0  0  0
   57.4540   28.7050   43.3790 N   0  0  0  0  0  0  0  0  0  0  0  0
   56.4800   29.8050   43.2680 C   0  0  0  0  0  0  0  0  0  0  0  0
   57.0180   30.9730   42.4260 C   0  0  0  0  0  0  0  0  0  0  0  0
   57.8130   31.9610   43.2920 C   0  0  0  0  0  0  0  0  0  0  0  0
   57.1150   32.2490   44.6370 C   0  0  0  0  0  0  0  0  0  0  0  0
   57.4210   33.6510   45.1940 C   0  0  0  0  0  0  0  0  0  0  0  0
   58.5130   33.6360   46.2310 C   0  0  0  0  0  0  0  0  0  0  0  0
   59.7740   34.1890   45.9450 C   0  0  0  0  0  0  0  0  0  0  0  0
   60.7770   34.1960   46.9190 C   0  0  0  0  0  0  0  0  0  0  0  0
   60.5300   33.6530   48.1810 C   0  0  0  0  0  0  0  0  0  0  0  0
   59.2760   33.1150   48.4800 C   0  0  0  0  0  0  0  0  0  0  0  0
   58.2690   33.1070   47.5090 C   0  0  0  0  0  0  0  0  0  0  0  0
   59.6610   28.5940   44.4920 C   0  0  0  0  0  0  0  0  0  0  0  0
   60.4600   28.7340   45.6300 C   0  0  0  0  0  0  0  0  0  0  0  0
   60.6470   29.2741   50.0955 H   0  0  0  0  0  0  0  0  0  0  0  0
   60.2952   30.8541   49.3169 H   0  0  0  0  0  0  0  0  0  0  0  0
   59.0531   29.5566   49.3169 H   0  0  0  0  0  0  0  0  0  0  0  0
   58.0563   29.6784   47.8705 H   0  0  0  0  0  0  0  0  0  0  0  0
   56.6323   29.4312   45.8458 H   0  0  0  0  0  0  0  0  0  0  0  0
   58.0440   28.6660   42.5140 H   0  0  0  0  0  0  0  0  0  0  0  0
   56.9300   27.8000   43.4330 H   0  0  0  0  0  0  0  0  0  0  0  0
   55.5636   29.4207   42.7963 H   0  0  0  0  0  0  0  0  0  0  0  0
   56.2799   30.1829   44.2815 H   0  0  0  0  0  0  0  0  0  0  0  0
   57.6760   30.5752   41.6394 H   0  0  0  0  0  0  0  0  0  0  0  0
   56.1637   31.5063   41.9836 H   0  0  0  0  0  0  0  0  0  0  0  0
   58.8073   31.5356   43.4928 H   0  0  0  0  0  0  0  0  0  0  0  0
   57.8876   32.9097   42.7402 H   0  0  0  0  0  0  0  0  0  0  0  0
   56.0282   32.1604   44.4923 H   0  0  0  0  0  0  0  0  0  0  0  0
   57.4972   31.5186   45.3653 H   0  0  0  0  0  0  0  0  0  0  0  0
   57.7334   34.3000   44.3626 H   0  0  0  0  0  0  0  0  0  0  0  0
   56.5065   34.0242   45.6782 H   0  0  0  0  0  0  0  0  0  0  0  0
   59.9719   34.6176   44.9514 H   0  0  0  0  0  0  0  0  0  0  0  0
   61.7617   34.6298   46.6906 H   0  0  0  0  0  0  0  0  0  0  0  0
   61.3246   33.6487   48.9417 H   0  0  0  0  0  0  0  0  0  0  0  0
   59.0804   32.6977   49.4788 H   0  0  0  0  0  0  0  0  0  0  0  0
   57.2817   32.6845   47.7474 H   0  0  0  0  0  0  0  0  0  0  0  0
   60.1175   28.2916   43.5380 H   0  0  0  0  0  0  0  0  0  0  0  0
   61.5411   28.5411   45.5671 H   0  0  0  0  0  0  0  0  0  0  0  0
  1  2  1  0
  2  3  1  0
  3  4  2  0
  4  5  1  0
  5  6  2  0
  6  7  1  0
  7  8  1  0
  8  9  1  0
  9 10  1  0
 10 11  1  0
 11 12  1  0
 12 13  1  0
 13 14  2  0
 14 15  1  0
 15 16  2  0
 16 17  1  0
 17 18  2  0
  6 19  1  0
 19 20  2  0
 20  3  1  0
 18 13  1  0
  1 21  1  0
  1 22  1  0
  1 23  1  0
  4 24  1  0
  5 25  1  0
  7 26  1  0
  7 27  1  0
  8 28  1  0
  8 29  1  0
  9 30  1  0
  9 31  1  0
 10 32  1  0
 10 33  1  0
 11 34  1  0
 11 35  1  0
 12 36  1  0
 12 37  1  0
 14 38  1  0
 15 39  1  0
 16 40  1  0
 17 41  1  0
 18 42  1  0
 19 43  1  0
 20 44  1  0
M  CHG  1   7   1
M  END
>  <UniqueID>  (34) 
33

>  <SMILES>  (34) 
COc1ccc([NH2+]CCCCCc2ccccc2)cc1

>  <Energy>  (34) 
34.17214432635648

>  <Genealogy>  (34) 
COc1ccc([NH2+]CCCCCc2ccccc2)cc1 (protonated)
COc1ccc([NH2+]CCCCCc2ccccc2)cc1 (3D coordinates assigned)
COc1ccc([NH2+]CCCCCc2ccccc2)cc1 (optimized conformer: 34.17214432635648 kcal/mol)

>  <smiles>  (34) 
COc1ccc(NCCCCCc2ccccc2)cc1

>  <score_type>  (34) 
oracle

>  <origin>  (34) 
adg

>  <m_score__min__energy>  (34) 
-5.5300000000000002

>  <m_primary>  (34) 
energy

$$$$
34:0
     RDKit          3D

 33 34  0  0  0  0  0  0  0  0999 V2000
   58.9450   32.2390   49.3530 C   0  0  0  0  0  0  0  0  0  0  0  0
   59.0690   32.0030   47.9550 O   0  0  0  0  0  0  0  0  0  0  0  0
   59.0360   33.0030   46.9680 C   0  0  0  0  0  0  0  0  0  0  0  0
   59.6350   34.2620   47.1750 C   0  0  0  0  0  0  0  0  0  0  0  0
   59.6340   35.2230   46.1630 C   0  0  0  0  0  0  0  0  0  0  0  0
   59.0400   34.9440   44.9340 C   0  0  0  0  0  0  0  0  0  0  0  0
   58.4350   33.7060   44.7140 C   0  0  0  0  0  0  0  0  0  0  0  0
   58.4100   32.7320   45.7280 C   0  0  0  0  0  0  0  0  0  0  0  0
   57.7450   31.4350   45.4650 C   0  0  0  0  0  0  0  0  0  0  0  0
   56.6440   31.4210   44.8480 O   0  0  0  0  0  0  0  0  0  0  0  0
   58.3100   30.2070   45.9530 N   0  0  0  0  0  0  0  0  0  0  0  0
   57.8690   28.9090   45.5230 C   0  0  0  0  0  0  0  0  0  0  0  0
   57.1880   28.7860   44.4700 O   0  0  0  0  0  0  0  0  0  0  0  0
   58.2970   27.7250   46.2110 N   0  0  0  0  0  0  0  0  0  0  0  0
   57.6220   26.6250   46.4010 C   0  0  0  0  0  0  0  0  0  0  0  0
   57.9480   25.7040   47.4220 C   0  0  0  0  0  0  0  0  0  0  0  0
   57.1800   24.5500   47.5790 C   0  0  0  0  0  0  0  0  0  0  0  0
   56.0910   24.3190   46.7400 C   0  0  0  0  0  0  0  0  0  0  0  0
   55.7780   25.2560   45.7560 C   0  0  0  0  0  0  0  0  0  0  0  0
   56.5350   26.3790   45.6120 N   0  0  0  0  0  0  0  0  0  0  0  0
   59.3869   31.3980   49.9074 H   0  0  0  0  0  0  0  0  0  0  0  0
   59.4712   33.1685   49.6160 H   0  0  0  0  0  0  0  0  0  0  0  0
   57.8811   32.3330   49.6160 H   0  0  0  0  0  0  0  0  0  0  0  0
   60.1072   34.4890   48.1422 H   0  0  0  0  0  0  0  0  0  0  0  0
   60.1032   36.2028   46.3360 H   0  0  0  0  0  0  0  0  0  0  0  0
   59.0480   35.7009   44.1358 H   0  0  0  0  0  0  0  0  0  0  0  0
   57.9737   33.4901   43.7390 H   0  0  0  0  0  0  0  0  0  0  0  0
   59.0650   30.2550   46.6730 H   0  0  0  0  0  0  0  0  0  0  0  0
   58.8017   25.8958   48.0886 H   0  0  0  0  0  0  0  0  0  0  0  0
   57.4336   23.8228   48.3644 H   0  0  0  0  0  0  0  0  0  0  0  0
   55.4854   23.4077   46.8530 H   0  0  0  0  0  0  0  0  0  0  0  0
   54.9163   25.0875   45.0934 H   0  0  0  0  0  0  0  0  0  0  0  0
   56.2720   27.0620   44.8650 H   0  0  0  0  0  0  0  0  0  0  0  0
  1  2  1  0
  2  3  1  0
  3  4  2  0
  4  5  1  0
  5  6  2  0
  6  7  1  0
  7  8  2  0
  8  9  1  0
  9 10  2  0
  9 11  1  0
 11 12  1  0
 12 13  2  0
 12 14  1  0
 14 15  2  3
 15 16  1  0
 16 17  2  0
 17 18  1  0
 18 19  2  0
 19 20  1  0
  8  3  1  0
 20 15  1  0
  1 21  1  0
  1 22  1  0
  1 23  1  0
  4 24  1  0
  5 25  1  0
  6 26  1  0
  7 27  1  0
 11 28  1  0
 16 29  1  0
 17 30  1  0
 18 31  1  0
 19 32  1  0
 20 33  1  0
M  END
>  <UniqueID>  (35) 
34

>  <SMILES>  (35) 
COc1ccccc1C(=O)NC(=O)N=c1cccc[nH]1

>  <Energy>  (35) 
45.94970923650276

>  <Genealogy>  (35) 
COc1ccccc1C(=O)NC(=O)N=c1cccc[nH]1 (3D coordinates assigned)
COc1ccccc1C(=O)NC(=O)N=c1cccc[nH]1 (optimized conformer: 45.94970923650276 kcal/mol)

>  <smiles>  (35) 
COc1ccccc1C(=O)NC(=O)N=c1cccc[nH]1

>  <score_type>  (35) 
oracle

>  <origin>  (35) 
adg

>  <m_score__min__energy>  (35) 
-6.3899999999999997

>  <m_primary>  (35) 
energy

$$$$
35:0
     RDKit          3D

 41 43  0  0  0  0  0  0  0  0999 V2000
   57.0640   30.7900   43.3110 C   0  0  0  0  0  0  0  0  0  0  0  0
   56.7020   31.5510   44.4590 O   0  0  0  0  0  0  0  0  0  0  0  0
   57.5480   32.4690   45.0990 C   0  0  0  0  0  0  0  0  0  0  0  0
   58.1850   33.5160   44.4080 C   0  0  0  0  0  0  0  0  0  0  0  0
   59.0180   34.4030   45.0930 C   0  0  0  0  0  0  0  0  0  0  0  0
   59.2250   34.2560   46.4660 C   0  0  0  0  0  0  0  0  0  0  0  0
   58.5990   33.2170   47.1740 C   0  0  0  0  0  0  0  0  0  0  0  0
   58.8270   33.0750   48.6320 C   0  0  0  0  0  0  0  0  0  0  0  0
   58.3350   32.0960   49.4750 C   0  0  0  0  0  0  0  0  0  0  0  0
   58.8040   32.3860   50.7000 N   0  0  0  0  0  0  0  0  0  0  0  0
   58.5020   31.6820   51.9420 C   0  0  0  0  0  0  0  0  0  0  0  0
   57.1790   32.1720   52.5270 C   0  0  0  0  0  0  0  0  0  0  0  0
   56.0640   31.6350   51.7550 N   0  0  0  0  0  0  0  0  0  0  0  0
   55.3030   30.4730   52.1100 C   0  0  0  0  0  0  0  0  0  0  0  0
   55.9170   29.3990   52.3420 O   0  0  0  0  0  0  0  0  0  0  0  0
   53.8280   30.4840   52.1730 C   0  0  0  0  0  0  0  0  0  0  0  0
   53.1190   29.3800   52.6700 C   0  0  0  0  0  0  0  0  0  0  0  0
   51.7210   29.3990   52.7090 C   0  0  0  0  0  0  0  0  0  0  0  0
   51.0220   30.5150   52.2410 C   0  0  0  0  0  0  0  0  0  0  0  0
   51.7200   31.6100   51.7230 C   0  0  0  0  0  0  0  0  0  0  0  0
   51.0240   32.7150   51.2500 O   0  0  0  0  0  0  0  0  0  0  0  0
   53.1180   31.5930   51.6830 C   0  0  0  0  0  0  0  0  0  0  0  0
   59.5320   33.4880   50.6230 N   0  0  0  0  0  0  0  0  0  0  0  0
   59.5680   33.9270   49.3730 N   0  0  0  0  0  0  0  0  0  0  0  0
   57.7600   32.3270   46.4770 C   0  0  0  0  0  0  0  0  0  0  0  0
   57.5163   29.8391   43.6291 H   0  0  0  0  0  0  0  0  0  0  0  0
   56.1666   30.5857   42.7086 H   0  0  0  0  0  0  0  0  0  0  0  0
   57.7887   31.3574   42.7086 H   0  0  0  0  0  0  0  0  0  0  0  0
   58.0265   33.6361   43.3261 H   0  0  0  0  0  0  0  0  0  0  0  0
   59.5131   35.2208   44.5488 H   0  0  0  0  0  0  0  0  0  0  0  0
   59.8833   34.9592   46.9972 H   0  0  0  0  0  0  0  0  0  0  0  0
   57.6892   31.2496   49.1983 H   0  0  0  0  0  0  0  0  0  0  0  0
   58.4303   30.6034   51.7384 H   0  0  0  0  0  0  0  0  0  0  0  0
   59.3058   31.8787   52.6667 H   0  0  0  0  0  0  0  0  0  0  0  0
   57.0952   31.8354   53.5709 H   0  0  0  0  0  0  0  0  0  0  0  0
   57.1507   33.2709   52.4865 H   0  0  0  0  0  0  0  0  0  0  0  0
   53.6649   28.4957   53.0305 H   0  0  0  0  0  0  0  0  0  0  0  0
   51.1709   28.5343   53.1086 H   0  0  0  0  0  0  0  0  0  0  0  0
   49.9228   30.5319   52.2802 H   0  0  0  0  0  0  0  0  0  0  0  0
   53.6642   32.4519   51.2659 H   0  0  0  0  0  0  0  0  0  0  0  0
   57.2644   31.5095   47.0211 H   0  0  0  0  0  0  0  0  0  0  0  0
  1  2  1  0
  2  3  1  0
  3  4  2  0
  4  5  1  0
  5  6  2  0
  6  7  1  0
  7  8  1  0
  8  9  2  0
  9 10  1  0
 10 11  1  0
 11 12  1  0
 12 13  1  0
 13 14  1  0
 14 15  2  0
 14 16  1  0
 16 17  2  0
 17 18  1  0
 18 19  2  0
 19 20  1  0
 20 21  1  0
 20 22  2  0
 10 23  1  0
 23 24  2  0
  7 25  2  0
 25  3  1  0
 24  8  1  0
 22 16  1  0
  1 26  1  0
  1 27  1  0
  1 28  1  0
  4 29  1  0
  5 30  1  0
  6 31  1  0
  9 32  1  0
 11 33  1  0
 11 34  1  0
 12 35  1  0
 12 36  1  0
 17 37  1  0
 18 38  1  0
 19 39  1  0
 22 40  1  0
 25 41  1  0
M  CHG  2  13  -1  21  -1
M  END
>  <UniqueID>  (36) 
35

>  <SMILES>  (36) 
COc1cccc(-c2cn(CC[N-]C(=O)c3cccc([O-])c3)nn2)c1

>  <Energy>  (36) 
79.65242323939118

>  <Genealogy>  (36) 
COc1cccc(-c2cn(CC[N-]C(=O)c3cccc([O-])c3)nn2)c1 (protonated)
COc1cccc(-c2cn(CC[N-]C(=O)c3cccc([O-])c3)nn2)c1 (3D coordinates assigned)
COc1cccc(-c2cn(CC[N-]C(=O)c3cccc([O-])c3)nn2)c1 (optimized conformer: 79.65242323939118 kcal/mol)

>  <smiles>  (36) 
COc1cccc(-c2cn(CCNC(=O)c3cccc(O)c3)nn2)c1

>  <score_type>  (36) 
oracle

>  <origin>  (36) 
adg

>  <m_score__min__energy>  (36) 
-13.19

>  <m_primary>  (36) 
energy

$$$$
36:0
     RDKit          3D

 31 33  0  0  0  0  0  0  0  0999 V2000
   65.1880   33.0760   49.6780 C   0  0  0  0  0  0  0  0  0  0  0  0
   64.3460   33.5450   48.6320 O   0  0  0  0  0  0  0  0  0  0  0  0
   63.2220   32.8550   48.1510 C   0  0  0  0  0  0  0  0  0  0  0  0
   62.3450   33.4090   47.2010 C   0  0  0  0  0  0  0  0  0  0  0  0
   61.2400   32.6810   46.7510 C   0  0  0  0  0  0  0  0  0  0  0  0
   60.9930   31.3820   47.2340 C   0  0  0  0  0  0  0  0  0  0  0  0
   59.8220   30.5890   46.7800 C   0  0  0  0  0  0  0  0  0  0  0  0
   58.7670   31.1710   46.0590 C   0  0  0  0  0  0  0  0  0  0  0  0
   57.6910   30.3780   45.6570 C   0  0  0  0  0  0  0  0  0  0  0  0
   56.7490   30.9090   45.0070 O   0  0  0  0  0  0  0  0  0  0  0  0
   57.6800   29.0070   45.9770 C   0  0  0  0  0  0  0  0  0  0  0  0
   56.6300   28.1330   45.6090 C   0  0  0  0  0  0  0  0  0  0  0  0
   55.5230   28.5880   44.9010 O   0  0  0  0  0  0  0  0  0  0  0  0
   56.6940   26.7790   45.9600 C   0  0  0  0  0  0  0  0  0  0  0  0
   57.7880   26.2820   46.6710 C   0  0  0  0  0  0  0  0  0  0  0  0
   57.8400   24.9370   47.0120 O   0  0  0  0  0  0  0  0  0  0  0  0
   58.8300   27.1360   47.0380 C   0  0  0  0  0  0  0  0  0  0  0  0
   58.7840   28.4920   46.6980 C   0  0  0  0  0  0  0  0  0  0  0  0
   59.7860   29.2870   47.0590 O   0  0  0  0  0  0  0  0  0  0  0  0
   61.8670   30.8400   48.1920 C   0  0  0  0  0  0  0  0  0  0  0  0
   62.9710   31.5690   48.6400 C   0  0  0  0  0  0  0  0  0  0  0  0
   64.7388   33.3262   50.6504 H   0  0  0  0  0  0  0  0  0  0  0  0
   65.3012   31.9849   49.5963 H   0  0  0  0  0  0  0  0  0  0  0  0
   66.1753   33.5542   49.5963 H   0  0  0  0  0  0  0  0  0  0  0  0
   62.5298   34.4205   46.8102 H   0  0  0  0  0  0  0  0  0  0  0  0
   60.5573   33.1271   46.0128 H   0  0  0  0  0  0  0  0  0  0  0  0
   58.7883   32.2429   45.8130 H   0  0  0  0  0  0  0  0  0  0  0  0
   55.8761   26.1016   45.6734 H   0  0  0  0  0  0  0  0  0  0  0  0
   59.6909   26.7406   47.5970 H   0  0  0  0  0  0  0  0  0  0  0  0
   61.6799   29.8327   48.5925 H   0  0  0  0  0  0  0  0  0  0  0  0
   63.6496   31.1274   49.3846 H   0  0  0  0  0  0  0  0  0  0  0  0
  1  2  1  0
  2  3  1  0
  3  4  2  0
  4  5  1  0
  5  6  2  0
  6  7  1  0
  7  8  2  0
  8  9  1  0
  9 10  2  0
  9 11  1  0
 11 12  2  0
 12 13  1  0
 12 14  1  0
 14 15  2  0
 15 16  1  0
 15 17  1  0
 17 18  2  0
 18 19  1  0
  6 20  1  0
 20 21  2  0
 21  3  1  0
 19  7  1  0
 18 11  1  0
  1 22  1  0
  1 23  1  0
  1 24  1  0
  4 25  1  0
  5 26  1  0
  8 27  1  0
 14 28  1  0
 17 29  1  0
 20 30  1  0
 21 31  1  0
M  CHG  2  13  -1  16  -1
M  END
>  <UniqueID>  (37) 
36

>  <SMILES>  (37) 
COc1ccc(-c2cc(=O)c3c([O-])cc([O-])cc3o2)cc1

>  <Energy>  (37) 
43.759193761850256

>  <Genealogy>  (37) 
COc1ccc(-c2cc(=O)c3c([O-])cc([O-])cc3o2)cc1 (protonated)
COc1ccc(-c2cc(=O)c3c([O-])cc([O-])cc3o2)cc1 (3D coordinates assigned)
COc1ccc(-c2cc(=O)c3c([O-])cc([O-])cc3o2)cc1 (optimized conformer: 43.759193761850256 kcal/mol)

>  <smiles>  (37) 
COc1ccc(-c2cc(=O)c3c(O)cc(O)cc3o2)cc1

>  <score_type>  (37) 
oracle

>  <origin>  (37) 
adg

>  <m_score__min__energy>  (37) 
-10.76

>  <m_primary>  (37) 
energy

$$$$
37:0
     RDKit          3D

 43 46  0  0  0  0  0  0  0  0999 V2000
   59.5770   34.5390   48.6560 C   0  0  0  0  0  0  0  0  0  0  0  0
   59.2480   34.2220   47.2260 C   0  0  0  0  0  0  0  0  0  0  0  0
   59.6170   35.1080   46.2050 C   0  0  0  0  0  0  0  0  0  0  0  0
   59.2850   34.8290   44.8780 C   0  0  0  0  0  0  0  0  0  0  0  0
   58.5670   33.6730   44.5620 C   0  0  0  0  0  0  0  0  0  0  0  0
   58.1590   32.7890   45.5770 C   0  0  0  0  0  0  0  0  0  0  0  0
   57.3970   31.5550   45.2550 C   0  0  0  0  0  0  0  0  0  0  0  0
   56.3980   31.6370   44.4890 O   0  0  0  0  0  0  0  0  0  0  0  0
   57.7800   30.2260   45.7980 C   0  0  0  0  0  0  0  0  0  0  0  0
   58.9580   30.0900   46.5420 C   0  0  0  0  0  0  0  0  0  0  0  0
   59.3540   28.8830   47.0500 N   0  0  0  0  0  0  0  0  0  0  0  0
   60.6120   28.8520   47.8230 C   0  0  0  0  0  0  0  0  0  0  0  0
   61.1480   30.2390   48.0160 C   0  0  0  0  0  0  0  0  0  0  0  0
   61.9150   30.9500   47.1010 C   0  0  0  0  0  0  0  0  0  0  0  0
   62.3110   32.2060   47.5750 C   0  0  0  0  0  0  0  0  0  0  0  0
   61.8710   32.4810   48.8640 C   0  0  0  0  0  0  0  0  0  0  0  0
   60.9890   31.1600   49.4140 S   0  0  0  0  0  0  0  0  0  0  0  0
   58.6100   27.7450   46.8040 C   0  0  0  0  0  0  0  0  0  0  0  0
   59.0060   26.4710   47.2790 C   0  0  0  0  0  0  0  0  0  0  0  0
   58.2350   25.3370   47.0180 C   0  0  0  0  0  0  0  0  0  0  0  0
   57.0600   25.4410   46.2810 C   0  0  0  0  0  0  0  0  0  0  0  0
   56.6470   26.6790   45.7940 C   0  0  0  0  0  0  0  0  0  0  0  0
   57.4110   27.8370   46.0440 C   0  0  0  0  0  0  0  0  0  0  0  0
   57.0040   29.0870   45.5460 C   0  0  0  0  0  0  0  0  0  0  0  0
   55.9350   29.1890   44.8810 O   0  0  0  0  0  0  0  0  0  0  0  0
   58.5110   33.0700   46.9090 C   0  0  0  0  0  0  0  0  0  0  0  0
   58.9460   33.9310   49.3209 H   0  0  0  0  0  0  0  0  0  0  0  0
   60.6362   34.3124   48.8475 H   0  0  0  0  0  0  0  0  0  0  0  0
   59.3899   35.6059   48.8475 H   0  0  0  0  0  0  0  0  0  0  0  0
   60.1702   36.0266   46.4500 H   0  0  0  0  0  0  0  0  0  0  0  0
   59.5895   35.5212   44.0792 H   0  0  0  0  0  0  0  0  0  0  0  0
   58.3193   33.4529   43.5131 H   0  0  0  0  0  0  0  0  0  0  0  0
   59.5821   30.9775   46.7231 H   0  0  0  0  0  0  0  0  0  0  0  0
   60.4206   28.3984   48.8067 H   0  0  0  0  0  0  0  0  0  0  0  0
   61.3542   28.2593   47.2682 H   0  0  0  0  0  0  0  0  0  0  0  0
   62.1834   30.5651   46.1061 H   0  0  0  0  0  0  0  0  0  0  0  0
   62.9142   32.9096   46.9825 H   0  0  0  0  0  0  0  0  0  0  0  0
   62.0664   33.4050   49.4280 H   0  0  0  0  0  0  0  0  0  0  0  0
   59.9339   26.3737   47.8616 H   0  0  0  0  0  0  0  0  0  0  0  0
   58.5583   24.3563   47.3971 H   0  0  0  0  0  0  0  0  0  0  0  0
   56.4556   24.5437   46.0823 H   0  0  0  0  0  0  0  0  0  0  0  0
   55.7178   26.7536   45.2100 H   0  0  0  0  0  0  0  0  0  0  0  0
   58.2060   32.3807   47.7102 H   0  0  0  0  0  0  0  0  0  0  0  0
  1  2  1  0
  2  3  2  0
  3  4  1  0
  4  5  2  0
  5  6  1  0
  6  7  1  0
  7  8  2  0
  7  9  1  0
  9 10  2  0
 10 11  1  0
 11 12  1  0
 12 13  1  0
 13 14  2  0
 14 15  1  0
 15 16  2  0
 16 17  1  0
 11 18  1  0
 18 19  2  0
 19 20  1  0
 20 21  2  0
 21 22  1  0
 22 23  2  0
 23 24  1  0
 24 25  2  0
  6 26  2  0
 26  2  1  0
 24  9  1  0
 17 13  1  0
 23 18  1  0
  1 27  1  0
  1 28  1  0
  1 29  1  0
  3 30  1  0
  4 31  1  0
  5 32  1  0
 10 33  1  0
 12 34  1  0
 12 35  1  0
 14 36  1  0
 15 37  1  0
 16 38  1  0
 19 39  1  0
 20 40  1  0
 21 41  1  0
 22 42  1  0
 26 43  1  0
M  END
>  <UniqueID>  (38) 
37

>  <SMILES>  (38) 
Cc1cccc(C(=O)c2cn(Cc3cccs3)c3ccccc3c2=O)c1

>  <Energy>  (38) 
88.2690720763384

>  <Genealogy>  (38) 
Cc1cccc(C(=O)c2cn(Cc3cccs3)c3ccccc3c2=O)c1 (3D coordinates assigned)
Cc1cccc(C(=O)c2cn(Cc3cccs3)c3ccccc3c2=O)c1 (optimized conformer: 88.2690720763384 kcal/mol)

>  <smiles>  (38) 
Cc1cccc(C(=O)c2cn(Cc3cccs3)c3ccccc3c2=O)c1

>  <score_type>  (38) 
oracle

>  <origin>  (38) 
adg

>  <m_score__min__energy>  (38) 
-8.6500000000000004

>  <m_primary>  (38) 
energy

$$$$
38:0
     RDKit          3D

 24 25  0  0  0  0  0  0  0  0999 V2000
   58.4283   31.0628   43.5021 H   0  0  0  0  0  0  0  0  0  0  0  0
   57.8510   31.5020   44.3290 C   0  0  0  0  0  0  0  0  0  0  0  0
   56.6600   31.0480   44.5760 N   0  0  0  0  0  0  0  0  0  0  0  0
   56.3470   29.6730   44.8390 C   0  0  0  0  0  0  0  0  0  0  0  0
   55.1390   29.3210   44.8360 O   0  0  0  0  0  0  0  0  0  0  0  0
   57.3860   28.6510   45.0770 C   0  0  0  0  0  0  0  0  0  0  0  0
   57.1790   27.2750   46.0230 S   0  0  0  0  0  0  0  0  0  0  0  0
   58.7000   26.6180   45.7410 C   0  0  0  0  0  0  0  0  0  0  0  0
   59.0857   25.6788   46.1643 H   0  0  0  0  0  0  0  0  0  0  0  0
   59.3850   27.4650   44.8820 C   0  0  0  0  0  0  0  0  0  0  0  0
   60.4083   27.2658   44.5311 H   0  0  0  0  0  0  0  0  0  0  0  0
   58.6530   28.5970   44.5030 C   0  0  0  0  0  0  0  0  0  0  0  0
   59.0406   29.3669   43.8197 H   0  0  0  0  0  0  0  0  0  0  0  0
   58.4570   32.5950   45.1280 C   0  0  0  0  0  0  0  0  0  0  0  0
   58.5150   33.8710   44.5390 C   0  0  0  0  0  0  0  0  0  0  0  0
   58.1126   34.0206   43.5262 H   0  0  0  0  0  0  0  0  0  0  0  0
   59.0770   34.9500   45.2240 C   0  0  0  0  0  0  0  0  0  0  0  0
   59.1189   35.9406   44.7476 H   0  0  0  0  0  0  0  0  0  0  0  0
   59.5850   34.7750   46.5100 C   0  0  0  0  0  0  0  0  0  0  0  0
   60.0320   35.6253   47.0459 H   0  0  0  0  0  0  0  0  0  0  0  0
   59.5260   33.5200   47.1170 C   0  0  0  0  0  0  0  0  0  0  0  0
   59.9244   33.3877   48.1337 H   0  0  0  0  0  0  0  0  0  0  0  0
   58.9640   32.4260   46.4440 C   0  0  0  0  0  0  0  0  0  0  0  0
   58.8930   30.9000   47.3210 Cl  0  0  0  0  0  0  0  0  0  0  0  0
  1  2  1  0
  2  3  2  0
  3  4  1  0
  4  5  2  0
  4  6  1  0
  6  7  1  0
  7  8  1  0
  8  9  1  0
  8 10  2  0
 10 11  1  0
 10 12  1  0
 12 13  1  0
  2 14  1  0
 14 15  2  0
 15 16  1  0
 15 17  1  0
 17 18  1  0
 17 19  2  0
 19 20  1  0
 19 21  1  0
 21 22  1  0
 21 23  2  0
 23 24  1  0
 12  6  2  0
 23 14  1  0
M  END
>  <UniqueID>  (39) 
38

>  <SMILES>  (39) 
O=C(/N=C/c1ccccc1Cl)c1cccs1

>  <Energy>  (39) 
58.00342032442017

>  <Genealogy>  (39) 
O=C(/N=C/c1ccccc1Cl)c1cccs1 (cis-trans isomerization)
O=C(/N=C/c1ccccc1Cl)c1cccs1 (3D coordinates assigned)
O=C(/N=C/c1ccccc1Cl)c1cccs1 (optimized conformer: 58.00342032442017 kcal/mol)

>  <smiles>  (39) 
O=C(N=Cc1ccccc1Cl)c1cccs1

>  <score_type>  (39) 
oracle

>  <origin>  (39) 
adg

>  <m_score__min__energy>  (39) 
-6.8799999999999999

>  <m_primary>  (39) 
energy

$$$$
39:0
     RDKit          3D

 58 60  0  0  0  0  0  0  0  0999 V2000
   58.1330   33.3100   44.1350 C   0  0  0  0  0  0  0  0  0  0  0  0
   58.3100   32.0740   43.2450 C   0  0  0  0  0  0  0  0  0  0  0  0
   57.7570   32.3240   41.8370 C   0  0  0  0  0  0  0  0  0  0  0  0
   57.6680   30.8520   43.8760 C   0  0  0  0  0  0  0  0  0  0  0  0
   56.2680   30.7470   43.9390 C   0  0  0  0  0  0  0  0  0  0  0  0
   55.6660   29.6250   44.5160 C   0  0  0  0  0  0  0  0  0  0  0  0
   56.4480   28.5960   45.0530 C   0  0  0  0  0  0  0  0  0  0  0  0
   55.7890   27.4540   45.6210 N   0  0  0  0  0  0  0  0  0  0  0  0
   56.4180   26.4110   46.3720 C   0  0  0  0  0  0  0  0  0  0  0  0
   55.9090   25.2590   46.3650 O   0  0  0  0  0  0  0  0  0  0  0  0
   57.5520   26.6790   47.1440 O   0  0  0  0  0  0  0  0  0  0  0  0
   58.7930   26.0090   46.9490 C   0  0  0  0  0  0  0  0  0  0  0  0
   59.9260   27.0350   46.9590 C   0  0  0  0  0  0  0  0  0  0  0  0
   60.2480   27.5250   48.3780 C   0  0  0  0  0  0  0  0  0  0  0  0
   59.2410   28.5030   48.8510 N   0  0  0  0  0  0  0  0  0  0  0  0
   58.8700   29.4860   47.8270 C   0  0  0  0  0  0  0  0  0  0  0  0
   60.0500   30.3700   47.4150 C   0  0  0  0  0  0  0  0  0  0  0  0
   60.9180   30.7890   48.5360 N   0  0  0  0  0  0  0  0  0  0  0  0
   62.0060   31.7310   48.2720 C   0  0  0  0  0  0  0  0  0  0  0  0
   61.9670   32.6090   47.1600 C   0  0  0  0  0  0  0  0  0  0  0  0
   63.0080   33.5070   46.9120 C   0  0  0  0  0  0  0  0  0  0  0  0
   64.1090   33.5590   47.7640 C   0  0  0  0  0  0  0  0  0  0  0  0
   64.1730   32.7130   48.8700 C   0  0  0  0  0  0  0  0  0  0  0  0
   65.5570   32.7860   49.9460 Cl  0  0  0  0  0  0  0  0  0  0  0  0
   63.1350   31.8100   49.1260 C   0  0  0  0  0  0  0  0  0  0  0  0
   60.8120   30.1810   49.8820 C   0  0  0  0  0  0  0  0  0  0  0  0
   59.6320   29.2120   50.0780 C   0  0  0  0  0  0  0  0  0  0  0  0
   57.8480   28.6820   44.9680 C   0  0  0  0  0  0  0  0  0  0  0  0
   58.4520   29.8030   44.3910 C   0  0  0  0  0  0  0  0  0  0  0  0
   58.1760   33.0097   45.1923 H   0  0  0  0  0  0  0  0  0  0  0  0
   58.9371   34.0308   43.9256 H   0  0  0  0  0  0  0  0  0  0  0  0
   57.1589   33.7762   43.9256 H   0  0  0  0  0  0  0  0  0  0  0  0
   59.3882   31.8773   43.1516 H   0  0  0  0  0  0  0  0  0  0  0  0
   56.7569   32.7761   41.9108 H   0  0  0  0  0  0  0  0  0  0  0  0
   58.4286   33.0060   41.2950 H   0  0  0  0  0  0  0  0  0  0  0  0
   57.6887   31.3692   41.2950 H   0  0  0  0  0  0  0  0  0  0  0  0
   55.6412   31.5537   43.5312 H   0  0  0  0  0  0  0  0  0  0  0  0
   54.5690   29.5503   44.5482 H   0  0  0  0  0  0  0  0  0  0  0  0
   58.9490   25.2809   47.7586 H   0  0  0  0  0  0  0  0  0  0  0  0
   58.7805   25.4822   45.9834 H   0  0  0  0  0  0  0  0  0  0  0  0
   60.8273   26.5725   46.5303 H   0  0  0  0  0  0  0  0  0  0  0  0
   59.6026   27.9030   46.3658 H   0  0  0  0  0  0  0  0  0  0  0  0
   60.2586   26.6628   49.0610 H   0  0  0  0  0  0  0  0  0  0  0  0
   61.2305   28.0193   48.3601 H   0  0  0  0  0  0  0  0  0  0  0  0
   58.5025   28.9504   46.9393 H   0  0  0  0  0  0  0  0  0  0  0  0
   58.0935   30.1385   48.2528 H   0  0  0  0  0  0  0  0  0  0  0  0
   60.6644   29.8103   46.6944 H   0  0  0  0  0  0  0  0  0  0  0  0
   59.6209   31.2889   46.9889 H   0  0  0  0  0  0  0  0  0  0  0  0
   61.1022   32.5829   46.4806 H   0  0  0  0  0  0  0  0  0  0  0  0
   62.9581   34.1759   46.0402 H   0  0  0  0  0  0  0  0  0  0  0  0
   64.9269   34.2669   47.5642 H   0  0  0  0  0  0  0  0  0  0  0  0
   63.1960   31.1506   50.0043 H   0  0  0  0  0  0  0  0  0  0  0  0
   61.7420   29.6273   50.0784 H   0  0  0  0  0  0  0  0  0  0  0  0
   60.6383   31.0147   50.5782 H   0  0  0  0  0  0  0  0  0  0  0  0
   59.9169   28.4661   50.8346 H   0  0  0  0  0  0  0  0  0  0  0  0
   58.7675   29.8163   50.3901 H   0  0  0  0  0  0  0  0  0  0  0  0
   58.4715   27.8636   45.3572 H   0  0  0  0  0  0  0  0  0  0  0  0
   59.5490   29.8656   44.3391 H   0  0  0  0  0  0  0  0  0  0  0  0
  1  2  1  0
  2  3  1  0
  2  4  1  0
  4  5  2  0
  5  6  1  0
  6  7  2  0
  7  8  1  0
  8  9  1  0
  9 10  2  0
  9 11  1  0
 11 12  1  0
 12 13  1  0
 13 14  1  0
 14 15  1  0
 15 16  1  0
 16 17  1  0
 17 18  1  0
 18 19  1  0
 19 20  2  0
 20 21  1  0
 21 22  2  0
 22 23  1  0
 23 24  1  0
 23 25  2  0
 18 26  1  0
 26 27  1  0
  7 28  1  0
 28 29  2  0
 29  4  1  0
 27 15  1  0
 25 19  1  0
  1 30  1  0
  1 31  1  0
  1 32  1  0
  2 33  1  0
  3 34  1  0
  3 35  1  0
  3 36  1  0
  5 37  1  0
  6 38  1  0
 12 39  1  0
 12 40  1  0
 13 41  1  0
 13 42  1  0
 14 43  1  0
 14 44  1  0
 16 45  1  0
 16 46  1  0
 17 47  1  0
 17 48  1  0
 20 49  1  0
 21 50  1  0
 22 51  1  0
 25 52  1  0
 26 53  1  0
 26 54  1  0
 27 55  1  0
 27 56  1  0
 28 57  1  0
 29 58  1  0
M  CHG  1   8  -1
M  END
>  <UniqueID>  (40) 
39

>  <SMILES>  (40) 
CC(C)c1ccc([N-]C(=O)OCCCN2CCN(c3cccc(Cl)c3)CC2)cc1

>  <Energy>  (40) 
64.05610834489038

>  <Genealogy>  (40) 
CC(C)c1ccc([N-]C(=O)OCCCN2CCN(c3cccc(Cl)c3)CC2)cc1 (protonated)
CC(C)c1ccc([N-]C(=O)OCCCN2CCN(c3cccc(Cl)c3)CC2)cc1 (3D coordinates assigned)
CC(C)c1ccc([N-]C(=O)OCCCN2CCN(c3cccc(Cl)c3)CC2)cc1 (nonaromatic ring conformer: 64.05610834489038 kcal/mol)

>  <smiles>  (40) 
CC(C)c1ccc(NC(=O)OCCCN2CCN(c3cccc(Cl)c3)CC2)cc1

>  <score_type>  (40) 
oracle

>  <origin>  (40) 
adg

>  <m_score__min__energy>  (40) 
-10.48

>  <m_primary>  (40) 
energy

$$$$
40:0
     RDKit          3D

 52 55  0  0  1  0  0  0  0  0999 V2000
   64.7580   34.0940   51.5820 C   0  0  0  0  0  0  0  0  0  0  0  0
   63.5870   33.7830   50.7610 N   0  0  0  0  0  0  0  0  0  0  0  0
   64.1220   33.1290   49.2510 S   0  0  0  0  0  0  0  0  0  0  0  0
   65.4810   32.5580   49.4060 O   0  0  0  0  0  0  0  0  0  0  0  0
   64.1520   34.2230   48.2190 O   0  0  0  0  0  0  0  0  0  0  0  0
   62.9190   31.9490   48.7770 C   0  0  0  0  0  0  0  0  0  0  0  0
   62.5620   31.8140   47.4530 C   0  0  0  0  0  0  0  0  0  0  0  0
   61.6160   30.8910   47.0410 C   0  0  0  0  0  0  0  0  0  0  0  0
   61.0210   30.0890   47.9850 C   0  0  0  0  0  0  0  0  0  0  0  0
   60.0220   29.0940   47.6210 C   0  0  0  0  0  0  0  0  0  0  0  0
   60.1310   27.7900   48.0020 C   0  0  0  0  0  0  0  0  0  0  0  0
   59.2360   26.7940   47.6970 C   0  0  0  0  0  0  0  0  0  0  0  0
   58.1410   27.1390   46.9470 C   0  0  0  0  0  0  0  0  0  0  0  0
   57.2670   26.1630   46.6500 N   0  0  0  0  0  0  0  0  0  0  0  0
   56.1750   26.4310   45.9200 C   0  0  0  0  0  0  0  0  0  0  0  0
   55.3630   25.4760   45.6560 N   0  0  0  0  0  0  0  0  0  0  0  0
   56.0040   27.6960   45.5100 N   0  0  0  0  0  0  0  0  0  0  0  0
   56.8630   28.7010   45.7900 C   0  0  0  0  0  0  0  0  0  0  0  0
   56.6230   29.8350   45.3640 N   0  0  0  0  0  0  0  0  0  0  0  0
   57.0720   30.5940   44.3250 C   0  0  0  0  0  0  0  0  0  0  0  0
   56.6630   30.2520   43.0100 C   0  0  0  0  0  0  0  0  0  0  0  0
   57.0180   31.0660   41.9430 C   0  0  0  0  0  0  0  0  0  0  0  0
   57.7650   32.2120   42.1310 C   0  0  0  0  0  0  0  0  0  0  0  0
   58.1190   33.0200   41.0980 F   0  0  0  0  0  0  0  0  0  0  0  0
   58.1690   32.5580   43.4080 C   0  0  0  0  0  0  0  0  0  0  0  0
   57.8390   31.7720   44.5050 C   0  0  0  0  0  0  0  0  0  0  0  0
   58.2510   32.1280   45.7810 O   0  0  0  0  0  0  0  0  0  0  0  0
   58.2860   33.4880   46.2090 C   0  0  0  0  0  0  0  0  0  0  0  0
   57.9850   28.4540   46.5340 C   0  0  0  0  0  0  0  0  0  0  0  0
   58.8920   29.4250   46.8510 C   0  0  0  0  0  0  0  0  0  0  0  0
   61.3670   30.2130   49.2960 C   0  0  0  0  0  0  0  0  0  0  0  0
   62.3100   31.1360   49.7030 C   0  0  0  0  0  0  0  0  0  0  0  0
   64.4891   34.0226   52.6462 H   0  0  0  0  0  0  0  0  0  0  0  0
   65.5631   33.3785   51.3584 H   0  0  0  0  0  0  0  0  0  0  0  0
   65.1020   35.1146   51.3584 H   0  0  0  0  0  0  0  0  0  0  0  0
   63.0220   34.6190   50.5560 H   0  0  0  0  0  0  0  0  0  0  0  0
   63.0425   32.4581   46.7018 H   0  0  0  0  0  0  0  0  0  0  0  0
   61.3458   30.8013   45.9785 H   0  0  0  0  0  0  0  0  0  0  0  0
   61.0088   27.5122   48.6038 H   0  0  0  0  0  0  0  0  0  0  0  0
   59.3913   25.7607   48.0406 H   0  0  0  0  0  0  0  0  0  0  0  0
   57.4160   25.1730   46.9800 H   0  0  0  0  0  0  0  0  0  0  0  0
   55.0130   25.2130   44.7070 H   0  0  0  0  0  0  0  0  0  0  0  0
   55.1470   27.8850   44.9420 H   0  0  0  0  0  0  0  0  0  0  0  0
   56.0663   29.3444   42.8365 H   0  0  0  0  0  0  0  0  0  0  0  0
   56.6976   30.7924   40.9269 H   0  0  0  0  0  0  0  0  0  0  0  0
   58.7623   33.4721   43.5576 H   0  0  0  0  0  0  0  0  0  0  0  0
   58.2870   33.5265   47.3083 H   0  0  0  0  0  0  0  0  0  0  0  0
   59.1968   33.9701   45.8244 H   0  0  0  0  0  0  0  0  0  0  0  0
   57.4012   34.0163   45.8244 H   0  0  0  0  0  0  0  0  0  0  0  0
   58.7399   30.4586   46.5066 H   0  0  0  0  0  0  0  0  0  0  0  0
   60.8865   29.5660   50.0447 H   0  0  0  0  0  0  0  0  0  0  0  0
   62.5737   31.2206   50.7676 H   0  0  0  0  0  0  0  0  0  0  0  0
  1  2  1  0
  2  3  1  0
  3  4  2  0
  3  5  2  0
  3  6  1  0
  6  7  2  0
  7  8  1  0
  8  9  2  0
  9 10  1  0
 10 11  2  0
 11 12  1  0
 12 13  2  0
 13 14  1  0
 14 15  1  0
 15 16  2  3
 15 17  1  0
 17 18  1  0
 18 19  2  0
 19 20  1  0
 20 21  2  0
 21 22  1  0
 22 23  2  0
 23 24  1  0
 23 25  1  0
 25 26  2  0
 26 27  1  0
 27 28  1  0
 18 29  1  0
 29 30  2  0
  9 31  1  0
 31 32  2  0
 32  6  1  0
 30 10  1  0
 29 13  1  0
 26 20  1  0
  1 33  1  0
  1 34  1  0
  1 35  1  0
  2 36  1  0
  7 37  1  0
  8 38  1  0
 11 39  1  0
 12 40  1  0
 14 41  1  0
 16 42  1  0
 17 43  1  0
 21 44  1  0
 22 45  1  0
 25 46  1  0
 28 47  1  0
 28 48  1  0
 28 49  1  0
 30 50  1  0
 31 51  1  0
 32 52  1  0
M  END
>  <smiles>  (41) 
CNS(=O)(=O)c1ccc(-c2ccc3[nH]c(=N)[nH]c(=Nc4ccc(F)cc4OC)c3c2)cc1

>  <score_type>  (41) 
oracle

>  <origin>  (41) 
adg

>  <m_score__min__energy>  (41) 
-8.5199999999999996

>  <m_primary>  (41) 
energy

$$$$
41:0
     RDKit          3D

 46 48  0  0  0  0  0  0  0  0999 V2000
   63.4410   33.1320   46.7500 C   0  0  0  0  0  0  0  0  0  0  0  0
   63.5280   34.0100   47.9900 C   0  0  0  0  0  0  0  0  0  0  0  0
   63.7830   33.1920   49.1770 N   0  0  0  0  0  0  0  0  0  0  0  0
   64.8670   32.4230   49.3990 C   0  0  0  0  0  0  0  0  0  0  0  0
   64.7990   31.7540   50.5700 N   0  0  0  0  0  0  0  0  0  0  0  0
   63.6120   32.1180   51.0990 C   0  0  0  0  0  0  0  0  0  0  0  0
   62.9770   32.9870   50.2380 C   0  0  0  0  0  0  0  0  0  0  0  0
   61.6510   33.6480   50.4720 C   0  0  0  0  0  0  0  0  0  0  0  0
   60.6380   33.1170   49.5610 N   0  0  0  0  0  0  0  0  0  0  0  0
   60.2790   33.8160   48.3580 C   0  0  0  0  0  0  0  0  0  0  0  0
   60.7480   34.9670   48.1450 O   0  0  0  0  0  0  0  0  0  0  0  0
   59.3490   33.2160   47.3710 C   0  0  0  0  0  0  0  0  0  0  0  0
   58.7870   33.9890   46.3400 C   0  0  0  0  0  0  0  0  0  0  0  0
   57.9050   33.4090   45.4230 C   0  0  0  0  0  0  0  0  0  0  0  0
   57.5650   32.0560   45.5180 C   0  0  0  0  0  0  0  0  0  0  0  0
   56.6590   31.5050   44.5530 N   0  0  0  0  0  0  0  0  0  0  0  0
   56.4560   29.8150   44.2220 S   0  0  0  0  0  0  0  0  0  0  0  0
   55.1870   29.3370   44.8710 O   0  0  0  0  0  0  0  0  0  0  0  0
   56.3890   29.5840   42.7380 O   0  0  0  0  0  0  0  0  0  0  0  0
   57.8330   28.9350   44.8760 C   0  0  0  0  0  0  0  0  0  0  0  0
   59.1400   29.2420   44.4670 C   0  0  0  0  0  0  0  0  0  0  0  0
   60.2260   28.5430   45.0050 C   0  0  0  0  0  0  0  0  0  0  0  0
   60.0130   27.5430   45.9600 C   0  0  0  0  0  0  0  0  0  0  0  0
   58.7130   27.2380   46.3750 C   0  0  0  0  0  0  0  0  0  0  0  0
   57.6240   27.9320   45.8350 C   0  0  0  0  0  0  0  0  0  0  0  0
   58.1150   31.2820   46.5540 C   0  0  0  0  0  0  0  0  0  0  0  0
   58.9940   31.8600   47.4750 C   0  0  0  0  0  0  0  0  0  0  0  0
   63.3367   32.0796   47.0525 H   0  0  0  0  0  0  0  0  0  0  0  0
   62.5679   33.4295   46.1506 H   0  0  0  0  0  0  0  0  0  0  0  0
   64.3555   33.2523   46.1506 H   0  0  0  0  0  0  0  0  0  0  0  0
   64.3473   34.7333   47.8653 H   0  0  0  0  0  0  0  0  0  0  0  0
   62.5729   34.5399   48.1200 H   0  0  0  0  0  0  0  0  0  0  0  0
   65.7149   32.3483   48.7022 H   0  0  0  0  0  0  0  0  0  0  0  0
   63.2139   31.7751   52.0654 H   0  0  0  0  0  0  0  0  0  0  0  0
   61.3347   33.4645   51.5094 H   0  0  0  0  0  0  0  0  0  0  0  0
   61.7581   34.7275   50.2895 H   0  0  0  0  0  0  0  0  0  0  0  0
   60.1260   32.2410   49.8180 H   0  0  0  0  0  0  0  0  0  0  0  0
   59.0424   35.0555   46.2542 H   0  0  0  0  0  0  0  0  0  0  0  0
   57.4742   34.0234   44.6187 H   0  0  0  0  0  0  0  0  0  0  0  0
   59.3108   30.0334   43.7223 H   0  0  0  0  0  0  0  0  0  0  0  0
   61.2488   28.7800   44.6767 H   0  0  0  0  0  0  0  0  0  0  0  0
   60.8682   26.9967   46.3844 H   0  0  0  0  0  0  0  0  0  0  0  0
   58.5460   26.4521   47.1264 H   0  0  0  0  0  0  0  0  0  0  0  0
   56.6022   27.6907   46.1630 H   0  0  0  0  0  0  0  0  0  0  0  0
   57.8529   30.2172   46.6407 H   0  0  0  0  0  0  0  0  0  0  0  0
   59.4114   31.2481   48.2882 H   0  0  0  0  0  0  0  0  0  0  0  0
  1  2  1  0
  2  3  1  0
  3  4  1  0
  4  5  2  0
  5  6  1  0
  6  7  2  0
  7  8  1  0
  8  9  1  0
  9 10  1  0
 10 11  2  0
 10 12  1  0
 12 13  2  0
 13 14  1  0
 14 15  2  0
 15 16  1  0
 16 17  1  0
 17 18  2  0
 17 19  2  0
 17 20  1  0
 20 21  2  0
 21 22  1  0
 22 23  2  0
 23 24  1  0
 24 25  2  0
 15 26  1  0
 26 27  2  0
  7  3  1  0
 27 12  1  0
 25 20  1  0
  1 28  1  0
  1 29  1  0
  1 30  1  0
  2 31  1  0
  2 32  1  0
  4 33  1  0
  6 34  1  0
  8 35  1  0
  8 36  1  0
  9 37  1  0
 13 38  1  0
 14 39  1  0
 21 40  1  0
 22 41  1  0
 23 42  1  0
 24 43  1  0
 25 44  1  0
 26 45  1  0
 27 46  1  0
M  CHG  1  16  -1
M  END
>  <UniqueID>  (42) 
40

>  <SMILES>  (42) 
CCn1cncc1CNC(=O)c1ccc([N-]S(=O)(=O)c2ccccc2)cc1

>  <Energy>  (42) 
78.16535431510798

>  <Genealogy>  (42) 
CCn1cncc1CNC(=O)c1ccc([N-]S(=O)(=O)c2ccccc2)cc1 (protonated)
CCn1cncc1CNC(=O)c1ccc([N-]S(=O)(=O)c2ccccc2)cc1 (3D coordinates assigned)
CCn1cncc1CNC(=O)c1ccc([N-]S(=O)(=O)c2ccccc2)cc1 (optimized conformer: 78.16535431510798 kcal/mol)

>  <smiles>  (42) 
CCn1cncc1CNC(=O)c1ccc(NS(=O)(=O)c2ccccc2)cc1

>  <score_type>  (42) 
oracle

>  <origin>  (42) 
adg

>  <m_score__min__energy>  (42) 
-9.7599999999999998

>  <m_primary>  (42) 
energy

$$$$
42:0
     RDKit          3D

 29 31  0  0  0  0  0  0  0  0999 V2000
   55.0230   23.3240   46.8060 C   0  0  0  0  0  0  0  0  0  0  0  0
   55.9220   24.4640   46.5630 N   0  0  0  0  0  0  0  0  0  0  0  0
   57.2410   24.4080   46.9810 C   0  0  0  0  0  0  0  0  0  0  0  0
   57.6910   23.3780   47.5510 O   0  0  0  0  0  0  0  0  0  0  0  0
   58.0790   25.4710   46.7900 N   0  0  0  0  0  0  0  0  0  0  0  0
   57.5920   26.5820   46.1950 C   0  0  0  0  0  0  0  0  0  0  0  0
   58.2290   27.7650   45.9100 C   0  0  0  0  0  0  0  0  0  0  0  0
   57.2390   28.5590   45.3140 C   0  0  0  0  0  0  0  0  0  0  0  0
   57.4310   29.9460   44.8230 C   0  0  0  0  0  0  0  0  0  0  0  0
   57.8490   30.9640   45.7000 C   0  0  0  0  0  0  0  0  0  0  0  0
   58.0280   32.2710   45.2360 C   0  0  0  0  0  0  0  0  0  0  0  0
   57.7940   32.5790   43.8950 C   0  0  0  0  0  0  0  0  0  0  0  0
   57.3790   31.5810   43.0100 C   0  0  0  0  0  0  0  0  0  0  0  0
   57.1500   31.9000   41.6730 O   0  0  0  0  0  0  0  0  0  0  0  0
   57.1960   30.2680   43.4720 C   0  0  0  0  0  0  0  0  0  0  0  0
   56.0610   27.8840   45.2490 N   0  0  0  0  0  0  0  0  0  0  0  0
   56.3030   26.6800   45.7920 C   0  0  0  0  0  0  0  0  0  0  0  0
   55.4330   25.6140   45.9810 C   0  0  0  0  0  0  0  0  0  0  0  0
   54.2260   25.7110   45.6280 O   0  0  0  0  0  0  0  0  0  0  0  0
   54.9051   23.1745   47.8894 H   0  0  0  0  0  0  0  0  0  0  0  0
   54.0408   23.5290   46.3551 H   0  0  0  0  0  0  0  0  0  0  0  0
   55.4513   22.4167   46.3551 H   0  0  0  0  0  0  0  0  0  0  0  0
   59.2787   28.0297   46.1052 H   0  0  0  0  0  0  0  0  0  0  0  0
   58.0363   30.7300   46.7584 H   0  0  0  0  0  0  0  0  0  0  0  0
   58.3544   33.0592   45.9304 H   0  0  0  0  0  0  0  0  0  0  0  0
   57.9365   33.6085   43.5347 H   0  0  0  0  0  0  0  0  0  0  0  0
   56.8420   32.8230   41.3930 H   0  0  0  0  0  0  0  0  0  0  0  0
   56.8666   29.4846   42.7736 H   0  0  0  0  0  0  0  0  0  0  0  0
   55.1460   28.2250   44.8800 H   0  0  0  0  0  0  0  0  0  0  0  0
  1  2  1  0
  2  3  1  0
  3  4  2  0
  3  5  1  0
  5  6  1  0
  6  7  1  0
  7  8  2  0
  8  9  1  0
  9 10  2  0
 10 11  1  0
 11 12  2  0
 12 13  1  0
 13 14  1  0
 13 15  2  0
  8 16  1  0
 16 17  1  0
 17 18  1  0
 18 19  2  0
 18  2  1  0
 17  6  2  0
 15  9  1  0
  1 20  1  0
  1 21  1  0
  1 22  1  0
  7 23  1  0
 10 24  1  0
 11 25  1  0
 12 26  1  0
 14 27  1  0
 15 28  1  0
 16 29  1  0
M  CHG  1   5  -1
M  END
>  <UniqueID>  (43) 
41

>  <SMILES>  (43) 
Cn1c(=O)[n-]c2cc(-c3cccc(O)c3)[nH]c2c1=O

>  <Energy>  (43) 
73.23196824053889

>  <Genealogy>  (43) 
Cn1c(=O)[n-]c2cc(-c3cccc(O)c3)[nH]c2c1=O (protonated)
Cn1c(=O)[n-]c2cc(-c3cccc(O)c3)[nH]c2c1=O (3D coordinates assigned)
Cn1c(=O)[n-]c2cc(-c3cccc(O)c3)[nH]c2c1=O (optimized conformer: 73.23196824053889 kcal/mol)

>  <smiles>  (43) 
Cn1c(=O)[nH]c2cc(-c3cccc(O)c3)[nH]c2c1=O

>  <score_type>  (43) 
oracle

>  <origin>  (43) 
adg

>  <m_score__min__energy>  (43) 
-8.2100000000000009

>  <m_primary>  (43) 
energy

$$$$
43:0
     RDKit          3D

 91 96  0  0  0  0  0  0  0  0999 V2000
   56.5700   21.1580   51.7000 C   0  0  0  0  0  0  0  0  0  0  0  0
   55.4100   20.8430   50.9370 O   0  0  0  0  0  0  0  0  0  0  0  0
   55.1250   21.3640   49.6650 C   0  0  0  0  0  0  0  0  0  0  0  0
   56.0270   21.2320   48.5910 C   0  0  0  0  0  0  0  0  0  0  0  0
   55.7220   21.7720   47.3400 C   0  0  0  0  0  0  0  0  0  0  0  0
   54.5150   22.4500   47.1390 C   0  0  0  0  0  0  0  0  0  0  0  0
   54.1320   23.1630   45.5760 S   0  0  0  0  0  0  0  0  0  0  0  0
   54.3850   24.6420   45.6300 O   0  0  0  0  0  0  0  0  0  0  0  0
   52.6820   22.9430   45.2440 O   0  0  0  0  0  0  0  0  0  0  0  0
   55.1560   22.4520   44.3710 N   0  0  0  0  0  0  0  0  0  0  0  0
   56.5190   22.8360   44.1640 C   0  0  0  0  0  0  0  0  0  0  0  0
   57.2840   22.0450   43.5520 O   0  0  0  0  0  0  0  0  0  0  0  0
   57.0570   24.1050   44.6920 C   0  0  0  0  0  0  0  0  0  0  0  0
   57.2260   24.2840   46.0700 C   0  0  0  0  0  0  0  0  0  0  0  0
   57.6980   25.4970   46.5780 C   0  0  0  0  0  0  0  0  0  0  0  0
   58.0050   26.5800   45.7200 C   0  0  0  0  0  0  0  0  0  0  0  0
   58.4850   27.8540   46.2520 N   0  0  0  0  0  0  0  0  0  0  0  0
   58.5700   29.0240   45.3460 C   0  0  0  0  0  0  0  0  0  0  0  0
   59.1330   30.3020   45.9820 C   0  0  0  0  0  0  0  0  0  0  0  0
   58.7480   30.4070   47.3930 N   0  0  0  0  0  0  0  0  0  0  0  0
   59.0680   31.7310   47.9770 C   0  0  0  0  0  0  0  0  0  0  0  0
   59.0670   32.8810   46.9750 C   0  0  0  0  0  0  0  0  0  0  0  0
   57.9260   33.0630   46.1670 C   0  0  0  0  0  0  0  0  0  0  0  0
   57.8400   34.1380   45.2810 C   0  0  0  0  0  0  0  0  0  0  0  0
   58.8900   35.0480   45.1810 C   0  0  0  0  0  0  0  0  0  0  0  0
   60.0400   34.8750   45.9510 C   0  0  0  0  0  0  0  0  0  0  0  0
   60.1540   33.7900   46.8370 C   0  0  0  0  0  0  0  0  0  0  0  0
   61.4260   33.6360   47.5770 C   0  0  0  0  0  0  0  0  0  0  0  0
   62.4590   32.8490   47.0430 C   0  0  0  0  0  0  0  0  0  0  0  0
   63.6540   32.6830   47.7490 C   0  0  0  0  0  0  0  0  0  0  0  0
   63.8190   33.2840   49.0010 C   0  0  0  0  0  0  0  0  0  0  0  0
   65.3200   33.0740   49.8850 Cl  0  0  0  0  0  0  0  0  0  0  0  0
   62.7830   34.0450   49.5510 C   0  0  0  0  0  0  0  0  0  0  0  0
   61.5870   34.2120   48.8480 C   0  0  0  0  0  0  0  0  0  0  0  0
   59.3430   29.2910   48.1340 C   0  0  0  0  0  0  0  0  0  0  0  0
   58.6690   27.9890   47.7140 C   0  0  0  0  0  0  0  0  0  0  0  0
   57.8120   26.3870   44.3310 C   0  0  0  0  0  0  0  0  0  0  0  0
   57.3420   25.1700   43.8290 C   0  0  0  0  0  0  0  0  0  0  0  0
   53.6160   22.5900   48.2010 C   0  0  0  0  0  0  0  0  0  0  0  0
   53.9030   22.0410   49.4630 C   0  0  0  0  0  0  0  0  0  0  0  0
   52.9710   22.2280   50.5510 N   0  0  0  0  0  0  0  0  0  0  0  0
   52.8190   23.6610   50.8470 C   0  0  0  0  0  0  0  0  0  0  0  0
   52.0690   23.8600   52.1570 C   0  0  0  0  0  0  0  0  0  0  0  0
   50.7430   24.3790   52.1600 C   0  0  0  0  0  0  0  0  0  0  0  0
   49.9890   24.6610   50.8830 C   0  0  0  0  0  0  0  0  0  0  0  0
   50.0810   24.5850   53.3820 C   0  0  0  0  0  0  0  0  0  0  0  0
   50.7130   24.3040   54.5890 C   0  0  0  0  0  0  0  0  0  0  0  0
   52.0140   23.8060   54.5990 C   0  0  0  0  0  0  0  0  0  0  0  0
   52.7080   23.5880   53.3990 C   0  0  0  0  0  0  0  0  0  0  0  0
   54.1020   23.0080   53.4760 C   0  0  0  0  0  0  0  0  0  0  0  0
   56.3324   21.0935   52.7721 H   0  0  0  0  0  0  0  0  0  0  0  0
   57.3723   20.4452   51.4587 H   0  0  0  0  0  0  0  0  0  0  0  0
   56.9016   22.1787   51.4587 H   0  0  0  0  0  0  0  0  0  0  0  0
   56.9782   20.6998   48.7389 H   0  0  0  0  0  0  0  0  0  0  0  0
   56.4341   21.6638   46.5086 H   0  0  0  0  0  0  0  0  0  0  0  0
   56.9849   23.4617   46.7596 H   0  0  0  0  0  0  0  0  0  0  0  0
   57.8333   25.6123   47.6635 H   0  0  0  0  0  0  0  0  0  0  0  0
   59.2164   28.7521   44.4985 H   0  0  0  0  0  0  0  0  0  0  0  0
   57.5363   29.2586   45.0519 H   0  0  0  0  0  0  0  0  0  0  0  0
   60.2305   30.2850   45.9100 H   0  0  0  0  0  0  0  0  0  0  0  0
   58.7220   31.1688   45.4437 H   0  0  0  0  0  0  0  0  0  0  0  0
   58.3227   31.9526   48.7551 H   0  0  0  0  0  0  0  0  0  0  0  0
   60.0926   31.6599   48.3708 H   0  0  0  0  0  0  0  0  0  0  0  0
   57.0926   32.3483   46.2358 H   0  0  0  0  0  0  0  0  0  0  0  0
   56.9411   34.2670   44.6603 H   0  0  0  0  0  0  0  0  0  0  0  0
   58.8121   35.9037   44.4942 H   0  0  0  0  0  0  0  0  0  0  0  0
   60.8666   35.5955   45.8639 H   0  0  0  0  0  0  0  0  0  0  0  0
   62.3274   32.3614   46.0658 H   0  0  0  0  0  0  0  0  0  0  0  0
   64.4662   32.0785   47.3190 H   0  0  0  0  0  0  0  0  0  0  0  0
   62.9096   34.5129   50.5385 H   0  0  0  0  0  0  0  0  0  0  0  0
   60.7680   34.7971   49.2918 H   0  0  0  0  0  0  0  0  0  0  0  0
   60.4191   29.2355   47.9127 H   0  0  0  0  0  0  0  0  0  0  0  0
   59.1997   29.4480   49.2133 H   0  0  0  0  0  0  0  0  0  0  0  0
   59.2880   27.1498   48.0642 H   0  0  0  0  0  0  0  0  0  0  0  0
   57.6651   27.9894   48.1636 H   0  0  0  0  0  0  0  0  0  0  0  0
   58.0357   27.2087   43.6348 H   0  0  0  0  0  0  0  0  0  0  0  0
   57.1947   25.0479   42.7458 H   0  0  0  0  0  0  0  0  0  0  0  0
   52.6735   23.1359   48.0472 H   0  0  0  0  0  0  0  0  0  0  0  0
   53.3090   21.7170   51.3990 H   0  0  0  0  0  0  0  0  0  0  0  0
   52.0460   21.8110   50.2980 H   0  0  0  0  0  0  0  0  0  0  0  0
   53.8148   24.1215   50.9268 H   0  0  0  0  0  0  0  0  0  0  0  0
   52.2463   24.1325   50.0348 H   0  0  0  0  0  0  0  0  0  0  0  0
   48.9841   25.0368   51.1259 H   0  0  0  0  0  0  0  0  0  0  0  0
   50.5313   25.4171   50.2963 H   0  0  0  0  0  0  0  0  0  0  0  0
   49.9021   23.7346   50.2963 H   0  0  0  0  0  0  0  0  0  0  0  0
   49.0516   24.9728   53.3844 H   0  0  0  0  0  0  0  0  0  0  0  0
   50.1840   24.4755   55.5381 H   0  0  0  0  0  0  0  0  0  0  0  0
   52.5028   23.5811   55.5584 H   0  0  0  0  0  0  0  0  0  0  0  0
   54.3913   22.8876   54.5304 H   0  0  0  0  0  0  0  0  0  0  0  0
   54.1195   22.0279   52.9768 H   0  0  0  0  0  0  0  0  0  0  0  0
   54.8095   23.6864   52.9768 H   0  0  0  0  0  0  0  0  0  0  0  0
  1  2  1  0
  2  3  1  0
  3  4  2  0
  4  5  1  0
  5  6  2  0
  6  7  1  0
  7  8  2  0
  7  9  2  0
  7 10  1  0
 10 11  1  0
 11 12  2  0
 11 13  1  0
 13 14  2  0
 14 15  1  0
 15 16  2  0
 16 17  1  0
 17 18  1  0
 18 19  1  0
 19 20  1  0
 20 21  1  0
 21 22  1  0
 22 23  2  0
 23 24  1  0
 24 25  2  0
 25 26  1  0
 26 27  2  0
 27 28  1  0
 28 29  2  0
 29 30  1  0
 30 31  2  0
 31 32  1  0
 31 33  1  0
 33 34  2  0
 20 35  1  0
 35 36  1  0
 16 37  1  0
 37 38  2  0
  6 39  1  0
 39 40  2  0
 40 41  1  0
 41 42  1  0
 42 43  1  0
 43 44  2  0
 44 45  1  0
 44 46  1  0
 46 47  2  0
 47 48  1  0
 48 49  2  0
 49 50  1  0
 40  3  1  0
 49 43  1  0
 38 13  1  0
 36 17  1  0
 27 22  1  0
 34 28  1  0
  1 51  1  0
  1 52  1  0
  1 53  1  0
  4 54  1  0
  5 55  1  0
 14 56  1  0
 15 57  1  0
 18 58  1  0
 18 59  1  0
 19 60  1  0
 19 61  1  0
 21 62  1  0
 21 63  1  0
 23 64  1  0
 24 65  1  0
 25 66  1  0
 26 67  1  0
 29 68  1  0
 30 69  1  0
 33 70  1  0
 34 71  1  0
 35 72  1  0
 35 73  1  0
 36 74  1  0
 36 75  1  0
 37 76  1  0
 38 77  1  0
 39 78  1  0
 41 79  1  0
 41 80  1  0
 42 81  1  0
 42 82  1  0
 45 83  1  0
 45 84  1  0
 45 85  1  0
 46 86  1  0
 47 87  1  0
 48 88  1  0
 50 89  1  0
 50 90  1  0
 50 91  1  0
M  CHG  2  10  -1  41   1
M  END
>  <UniqueID>  (44) 
42

>  <SMILES>  (44) 
COc1ccc(S(=O)(=O)[N-]C(=O)c2ccc(N3CCN(Cc4ccccc4-c4ccc(Cl)cc4)CC3)cc2)cc1[NH2+]Cc1c(C)cccc1C

>  <Energy>  (44) 
130.20459341344832

>  <Genealogy>  (44) 
COc1ccc(S(=O)(=O)[N-]C(=O)c2ccc(N3CCN(Cc4ccccc4-c4ccc(Cl)cc4)CC3)cc2)cc1[NH2+]Cc1c(C)cccc1C (protonated)
COc1ccc(S(=O)(=O)[N-]C(=O)c2ccc(N3CCN(Cc4ccccc4-c4ccc(Cl)cc4)CC3)cc2)cc1[NH2+]Cc1c(C)cccc1C (3D coordinates assigned)
COc1ccc(S(=O)(=O)[N-]C(=O)c2ccc(N3CCN(Cc4ccccc4-c4ccc(Cl)cc4)CC3)cc2)cc1[NH2+]Cc1c(C)cccc1C (nonaromatic ring conformer: 130.20459341344832 kcal/mol)

>  <smiles>  (44) 
COc1ccc(S(=O)(=O)NC(=O)c2ccc(N3CCN(Cc4ccccc4-c4ccc(Cl)cc4)CC3)cc2)cc1NCc1c(C)cccc1C

>  <score_type>  (44) 
oracle

>  <origin>  (44) 
adg

>  <m_score__min__energy>  (44) 
-10.67

>  <m_primary>  (44) 
energy

$$$$
44:0
     RDKit          3D

 32 34  0  0  0  0  0  0  0  0999 V2000
   57.4394   31.5758   41.6983 H   0  0  0  0  0  0  0  0  0  0  0  0
   57.1260   31.0820   42.6300 C   0  0  0  0  0  0  0  0  0  0  0  0
   56.4860   29.5320   42.7620 S   0  0  0  0  0  0  0  0  0  0  0  0
   56.3150   29.6320   44.4390 C   0  0  0  0  0  0  0  0  0  0  0  0
   55.8920   28.6890   45.2280 N   0  0  0  0  0  0  0  0  0  0  0  0
   56.6340   27.5350   45.6550 C   0  0  0  0  0  0  0  0  0  0  0  0
   55.9930   26.3310   46.0000 C   0  0  0  0  0  0  0  0  0  0  0  0
   54.8997   26.2468   45.9132 H   0  0  0  0  0  0  0  0  0  0  0  0
   56.7430   25.2410   46.4530 C   0  0  0  0  0  0  0  0  0  0  0  0
   56.2402   24.2959   46.7059 H   0  0  0  0  0  0  0  0  0  0  0  0
   58.1300   25.3500   46.5850 C   0  0  0  0  0  0  0  0  0  0  0  0
   58.7190   24.4882   46.9319 H   0  0  0  0  0  0  0  0  0  0  0  0
   58.7690   26.5550   46.2760 C   0  0  0  0  0  0  0  0  0  0  0  0
   60.6610   26.7110   46.4770 Br  0  0  0  0  0  0  0  0  0  0  0  0
   58.0210   27.6470   45.8230 C   0  0  0  0  0  0  0  0  0  0  0  0
   58.5242   28.5988   45.5974 H   0  0  0  0  0  0  0  0  0  0  0  0
   56.7550   30.8160   44.9120 N   0  0  0  0  0  0  0  0  0  0  0  0
   57.1890   31.6300   43.9100 C   0  0  0  0  0  0  0  0  0  0  0  0
   57.7680   32.9820   44.1910 C   0  0  0  0  0  0  0  0  0  0  0  0
   58.5138   33.2261   43.4201 H   0  0  0  0  0  0  0  0  0  0  0  0
   56.9610   33.7294   44.1799 H   0  0  0  0  0  0  0  0  0  0  0  0
   58.4280   32.9890   45.5420 C   0  0  0  0  0  0  0  0  0  0  0  0
   58.3520   34.1290   46.3610 C   0  0  0  0  0  0  0  0  0  0  0  0
   57.7845   35.0094   46.0251 H   0  0  0  0  0  0  0  0  0  0  0  0
   58.9970   34.1460   47.6030 C   0  0  0  0  0  0  0  0  0  0  0  0
   58.9299   35.0372   48.2442 H   0  0  0  0  0  0  0  0  0  0  0  0
   59.7260   33.0330   48.0300 C   0  0  0  0  0  0  0  0  0  0  0  0
   60.2291   33.0474   49.0081 H   0  0  0  0  0  0  0  0  0  0  0  0
   59.8160   31.9020   47.2150 C   0  0  0  0  0  0  0  0  0  0  0  0
   60.3930   31.0278   47.5509 H   0  0  0  0  0  0  0  0  0  0  0  0
   59.1740   31.8790   45.9730 C   0  0  0  0  0  0  0  0  0  0  0  0
   59.2532   30.9891   45.3313 H   0  0  0  0  0  0  0  0  0  0  0  0
  1  2  1  0
  2  3  1  0
  3  4  1  0
  4  5  2  0
  5  6  1  0
  6  7  2  0
  7  8  1  0
  7  9  1  0
  9 10  1  0
  9 11  2  0
 11 12  1  0
 11 13  1  0
 13 14  1  0
 13 15  2  0
 15 16  1  0
  4 17  1  0
 17 18  1  0
 18 19  1  0
 19 20  1  0
 19 21  1  0
 19 22  1  0
 22 23  2  0
 23 24  1  0
 23 25  1  0
 25 26  1  0
 25 27  2  0
 27 28  1  0
 27 29  1  0
 29 30  1  0
 29 31  2  0
 31 32  1  0
 18  2  2  0
 31 22  1  0
 15  6  1  0
M  CHG  1  17  -1
M  END
>  <UniqueID>  (45) 
43

>  <SMILES>  (45) 
Brc1cccc(/N=c2/[n-]c(Cc3ccccc3)cs2)c1

>  <Energy>  (45) 
69.64574100190154

>  <Genealogy>  (45) 
Brc1cccc(N=c2[n-]c(Cc3ccccc3)cs2)c1 (protonated)
Brc1cccc(/N=c2/[n-]c(Cc3ccccc3)cs2)c1 (cis-trans isomerization)
Brc1cccc(/N=c2/[n-]c(Cc3ccccc3)cs2)c1 (3D coordinates assigned)
Brc1cccc(/N=c2/[n-]c(Cc3ccccc3)cs2)c1 (optimized conformer: 69.64574100190154 kcal/mol)

>  <smiles>  (45) 
Brc1cccc(N=c2[nH]c(Cc3ccccc3)cs2)c1

>  <score_type>  (45) 
oracle

>  <origin>  (45) 
adg

>  <m_score__min__energy>  (45) 
-9.8599999999999994

>  <m_primary>  (45) 
energy

$$$$
45:0
     RDKit          3D

 46 49  0  0  0  0  0  0  0  0999 V2000
   58.5190   29.8640   46.5490 C   0  0  0  0  0  0  0  0  0  0  0  0
   57.4080   30.5360   45.9660 O   0  0  0  0  0  0  0  0  0  0  0  0
   57.3500   30.9730   44.6330 C   0  0  0  0  0  0  0  0  0  0  0  0
   56.8840   30.1380   43.5960 C   0  0  0  0  0  0  0  0  0  0  0  0
   56.8720   30.5920   42.2770 C   0  0  0  0  0  0  0  0  0  0  0  0
   57.3230   31.8780   41.9740 C   0  0  0  0  0  0  0  0  0  0  0  0
   57.7800   32.7180   42.9920 C   0  0  0  0  0  0  0  0  0  0  0  0
   57.7880   32.2780   44.3250 C   0  0  0  0  0  0  0  0  0  0  0  0
   58.2580   33.1540   45.3660 N   0  0  0  0  0  0  0  0  0  0  0  0
   57.4380   33.3990   46.5570 C   0  0  0  0  0  0  0  0  0  0  0  0
   58.2880   33.3450   47.8450 C   0  0  0  0  0  0  0  0  0  0  0  0
   59.7430   33.5150   47.5940 N   0  0  0  0  0  0  0  0  0  0  0  0
   60.4440   33.9220   48.7970 C   0  0  0  0  0  0  0  0  0  0  0  0
   59.8440   34.6050   49.6740 O   0  0  0  0  0  0  0  0  0  0  0  0
   61.8800   33.6000   49.0040 C   0  0  0  0  0  0  0  0  0  0  0  0
   62.6460   32.9840   47.9830 C   0  0  0  0  0  0  0  0  0  0  0  0
   64.0060   32.6970   48.1800 C   0  0  0  0  0  0  0  0  0  0  0  0
   64.5790   33.0280   49.4010 C   0  0  0  0  0  0  0  0  0  0  0  0
   66.1640   32.7990   49.9060 S   0  0  0  0  0  0  0  0  0  0  0  0
   65.9330   33.4710   51.4390 C   0  0  0  0  0  0  0  0  0  0  0  0
   64.6060   33.8810   51.5630 C   0  0  0  0  0  0  0  0  0  0  0  0
   63.8530   33.6300   50.4120 C   0  0  0  0  0  0  0  0  0  0  0  0
   62.5000   33.9310   50.2290 C   0  0  0  0  0  0  0  0  0  0  0  0
   59.9960   34.4860   46.5100 C   0  0  0  0  0  0  0  0  0  0  0  0
   59.4990   33.9140   45.1740 C   0  0  0  0  0  0  0  0  0  0  0  0
   58.4417   29.9107   47.6453 H   0  0  0  0  0  0  0  0  0  0  0  0
   58.5221   28.8125   46.2261 H   0  0  0  0  0  0  0  0  0  0  0  0
   59.4518   30.3495   46.2261 H   0  0  0  0  0  0  0  0  0  0  0  0
   56.5282   29.1235   43.8286 H   0  0  0  0  0  0  0  0  0  0  0  0
   56.5064   29.9353   41.4739 H   0  0  0  0  0  0  0  0  0  0  0  0
   57.3184   32.2302   40.9319 H   0  0  0  0  0  0  0  0  0  0  0  0
   58.1356   33.7299   42.7479 H   0  0  0  0  0  0  0  0  0  0  0  0
   56.9750   34.3934   46.4748 H   0  0  0  0  0  0  0  0  0  0  0  0
   56.6688   32.6149   46.6159 H   0  0  0  0  0  0  0  0  0  0  0  0
   57.9533   34.1477   48.5186 H   0  0  0  0  0  0  0  0  0  0  0  0
   58.1471   32.3481   48.2880 H   0  0  0  0  0  0  0  0  0  0  0  0
   60.1090   32.5790   47.2980 H   0  0  0  0  0  0  0  0  0  0  0  0
   62.1694   32.7279   47.0253 H   0  0  0  0  0  0  0  0  0  0  0  0
   64.6027   32.2220   47.3873 H   0  0  0  0  0  0  0  0  0  0  0  0
   66.7061   33.5694   52.2153 H   0  0  0  0  0  0  0  0  0  0  0  0
   64.1958   34.3513   52.4688 H   0  0  0  0  0  0  0  0  0  0  0  0
   61.9253   34.4198   51.0295 H   0  0  0  0  0  0  0  0  0  0  0  0
   59.4626   35.4232   46.7272 H   0  0  0  0  0  0  0  0  0  0  0  0
   61.0763   34.6820   46.4422 H   0  0  0  0  0  0  0  0  0  0  0  0
   59.3113   34.7416   44.4741 H   0  0  0  0  0  0  0  0  0  0  0  0
   60.2682   33.2398   44.7693 H   0  0  0  0  0  0  0  0  0  0  0  0
  1  2  1  0
  2  3  1  0
  3  4  2  0
  4  5  1  0
  5  6  2  0
  6  7  1  0
  7  8  2  0
  8  9  1  0
  9 10  1  0
 10 11  1  0
 11 12  1  0
 12 13  1  0
 13 14  2  0
 13 15  1  0
 15 16  2  0
 16 17  1  0
 17 18  2  0
 18 19  1  0
 19 20  1  0
 20 21  2  0
 21 22  1  0
 22 23  2  0
 12 24  1  0
 24 25  1  0
  8  3  1  0
 25  9  1  0
 23 15  1  0
 22 18  1  0
  1 26  1  0
  1 27  1  0
  1 28  1  0
  4 29  1  0
  5 30  1  0
  6 31  1  0
  7 32  1  0
 10 33  1  0
 10 34  1  0
 11 35  1  0
 11 36  1  0
 12 37  1  0
 16 38  1  0
 17 39  1  0
 20 40  1  0
 21 41  1  0
 23 42  1  0
 24 43  1  0
 24 44  1  0
 25 45  1  0
 25 46  1  0
M  CHG  1  12   1
M  END
>  <UniqueID>  (46) 
44

>  <SMILES>  (46) 
COc1ccccc1N1CC[NH+](C(=O)c2ccc3sccc3c2)CC1

>  <Energy>  (46) 
95.14235154756064

>  <Genealogy>  (46) 
COc1ccccc1N1CC[NH+](C(=O)c2ccc3sccc3c2)CC1 (protonated)
COc1ccccc1N1CC[NH+](C(=O)c2ccc3sccc3c2)CC1 (3D coordinates assigned)
COc1ccccc1N1CC[NH+](C(=O)c2ccc3sccc3c2)CC1 (nonaromatic ring conformer: 95.14235154756064 kcal/mol)

>  <smiles>  (46) 
COc1ccccc1N1CCN(C(=O)c2ccc3sccc3c2)CC1

>  <score_type>  (46) 
oracle

>  <origin>  (46) 
adg

>  <m_score__min__energy>  (46) 
-6.5

>  <m_primary>  (46) 
energy

$$$$
46:0
     RDKit          3D

 30 32  0  0  0  0  0  0  0  0999 V2000
   59.3790   34.2860   44.2020 O   0  0  0  0  0  0  0  0  0  0  0  0
   58.7120   33.7930   45.1510 C   0  0  0  0  0  0  0  0  0  0  0  0
   58.3670   34.6050   46.2250 O   0  0  0  0  0  0  0  0  0  0  0  0
   58.3000   32.3710   45.1220 C   0  0  0  0  0  0  0  0  0  0  0  0
   57.0730   32.0020   44.5420 C   0  0  0  0  0  0  0  0  0  0  0  0
   56.6760   30.6620   44.5110 C   0  0  0  0  0  0  0  0  0  0  0  0
   57.4980   29.6740   45.0570 C   0  0  0  0  0  0  0  0  0  0  0  0
   57.1120   28.3700   45.0260 N   0  0  0  0  0  0  0  0  0  0  0  0
   57.8850   27.3740   45.5420 C   0  0  0  0  0  0  0  0  0  0  0  0
   57.4020   25.9760   45.5000 C   0  0  0  0  0  0  0  0  0  0  0  0
   58.3210   24.9420   45.2380 C   0  0  0  0  0  0  0  0  0  0  0  0
   57.9110   23.6060   45.2510 C   0  0  0  0  0  0  0  0  0  0  0  0
   59.1740   22.2160   44.9060 Br  0  0  0  0  0  0  0  0  0  0  0  0
   56.5810   23.2870   45.5270 C   0  0  0  0  0  0  0  0  0  0  0  0
   55.6550   24.3020   45.7790 C   0  0  0  0  0  0  0  0  0  0  0  0
   56.0490   25.6450   45.7560 C   0  0  0  0  0  0  0  0  0  0  0  0
   55.0690   26.6200   45.9600 O   0  0  0  0  0  0  0  0  0  0  0  0
   59.1150   27.6910   46.1400 C   0  0  0  0  0  0  0  0  0  0  0  0
   59.5370   29.0220   46.1860 C   0  0  0  0  0  0  0  0  0  0  0  0
   58.7320   30.0290   45.6430 C   0  0  0  0  0  0  0  0  0  0  0  0
   59.1270   31.3740   45.6730 C   0  0  0  0  0  0  0  0  0  0  0  0
   56.4202   32.7743   44.1091 H   0  0  0  0  0  0  0  0  0  0  0  0
   55.7138   30.3852   44.0554 H   0  0  0  0  0  0  0  0  0  0  0  0
   59.3710   25.1879   45.0211 H   0  0  0  0  0  0  0  0  0  0  0  0
   56.2612   22.2347   45.5462 H   0  0  0  0  0  0  0  0  0  0  0  0
   54.6082   24.0440   45.9972 H   0  0  0  0  0  0  0  0  0  0  0  0
   55.1510   27.5670   45.6160 H   0  0  0  0  0  0  0  0  0  0  0  0
   59.7426   26.8963   46.5697 H   0  0  0  0  0  0  0  0  0  0  0  0
   60.5015   29.2780   46.6488 H   0  0  0  0  0  0  0  0  0  0  0  0
   60.0885   31.6516   46.1296 H   0  0  0  0  0  0  0  0  0  0  0  0
  1  2  2  0
  2  3  1  0
  2  4  1  0
  4  5  2  0
  5  6  1  0
  6  7  2  0
  7  8  1  0
  8  9  2  0
  9 10  1  0
 10 11  2  0
 11 12  1  0
 12 13  1  0
 12 14  2  0
 14 15  1  0
 15 16  2  0
 16 17  1  0
  9 18  1  0
 18 19  2  0
 19 20  1  0
 20 21  2  0
 21  4  1  0
 20  7  1  0
 16 10  1  0
  5 22  1  0
  6 23  1  0
 11 24  1  0
 14 25  1  0
 15 26  1  0
 17 27  1  0
 18 28  1  0
 19 29  1  0
 21 30  1  0
M  CHG  1   3  -1
M  END
>  <UniqueID>  (47) 
45

>  <SMILES>  (47) 
O=C([O-])c1ccc2nc(-c3cc(Br)ccc3O)ccc2c1

>  <Energy>  (47) 
43.460973264019316

>  <Genealogy>  (47) 
O=C([O-])c1ccc2nc(-c3cc(Br)ccc3O)ccc2c1 (protonated)
O=C([O-])c1ccc2nc(-c3cc(Br)ccc3O)ccc2c1 (3D coordinates assigned)
O=C([O-])c1ccc2nc(-c3cc(Br)ccc3O)ccc2c1 (optimized conformer: 43.460973264019316 kcal/mol)

>  <smiles>  (47) 
O=C(O)c1ccc2nc(-c3cc(Br)ccc3O)ccc2c1

>  <score_type>  (47) 
oracle

>  <origin>  (47) 
adg

>  <m_score__min__energy>  (47) 
-9.2899999999999991

>  <m_primary>  (47) 
energy

$$$$
47:0
     RDKit          3D

 29 31  0  0  1  0  0  0  0  0999 V2000
   57.7680   32.3350   41.4270 C   0  0  0  0  0  0  0  0  0  0  0  0
   57.7560   32.0890   42.9080 C   0  0  0  0  0  0  0  0  0  0  0  0
   58.2170   33.0990   43.7450 C   0  0  0  0  0  0  0  0  0  0  0  0
   58.2230   32.9120   45.1190 C   0  0  0  0  0  0  0  0  0  0  0  0
   57.7750   31.7320   45.6610 C   0  0  0  0  0  0  0  0  0  0  0  0
   57.3120   30.7160   44.8120 C   0  0  0  0  0  0  0  0  0  0  0  0
   56.8990   29.4840   45.3390 N   0  0  0  0  0  0  0  0  0  0  0  0
   57.5620   28.4320   45.5260 C   0  0  0  0  0  0  0  0  0  0  0  0
   57.3880   27.3880   44.6990 N   0  0  0  0  0  0  0  0  0  0  0  0
   58.0680   26.2320   44.8450 C   0  0  0  0  0  0  0  0  0  0  0  0
   58.9380   26.1800   45.8760 N   0  0  0  0  0  0  0  0  0  0  0  0
   59.1450   27.1820   46.7170 C   0  0  0  0  0  0  0  0  0  0  0  0
   59.9630   27.2830   47.7750 N   0  0  0  0  0  0  0  0  0  0  0  0
   59.7810   28.5120   48.2780 C   0  0  0  0  0  0  0  0  0  0  0  0
   58.8340   29.2140   47.5380 C   0  0  0  0  0  0  0  0  0  0  0  0
   58.4420   28.3550   46.5540 C   0  0  0  0  0  0  0  0  0  0  0  0
   57.3040   30.9000   43.4220 C   0  0  0  0  0  0  0  0  0  0  0  0
   57.8208   33.4169   41.2354 H   0  0  0  0  0  0  0  0  0  0  0  0
   58.6431   31.8404   40.9802 H   0  0  0  0  0  0  0  0  0  0  0  0
   56.8489   31.9279   40.9802 H   0  0  0  0  0  0  0  0  0  0  0  0
   58.5769   34.0464   43.3173 H   0  0  0  0  0  0  0  0  0  0  0  0
   58.5885   33.7129   45.7785 H   0  0  0  0  0  0  0  0  0  0  0  0
   57.7793   31.5851   46.7511 H   0  0  0  0  0  0  0  0  0  0  0  0
   56.6920   27.4850   43.9080 H   0  0  0  0  0  0  0  0  0  0  0  0
   57.9220   25.3810   44.1634 H   0  0  0  0  0  0  0  0  0  0  0  0
   60.6200   26.5590   48.1480 H   0  0  0  0  0  0  0  0  0  0  0  0
   60.3086   28.9117   49.1566 H   0  0  0  0  0  0  0  0  0  0  0  0
   58.4783   30.2406   47.7099 H   0  0  0  0  0  0  0  0  0  0  0  0
   56.9413   30.1042   42.7547 H   0  0  0  0  0  0  0  0  0  0  0  0
  1  2  1  0
  2  3  2  0
  3  4  1  0
  4  5  2  0
  5  6  1  0
  6  7  1  0
  7  8  2  0
  8  9  1  0
  9 10  1  0
 10 11  2  0
 11 12  1  0
 12 13  1  0
 13 14  1  0
 14 15  2  0
 15 16  1  0
  6 17  2  0
 17  2  1  0
 16  8  1  0
 16 12  2  0
  1 18  1  0
  1 19  1  0
  1 20  1  0
  3 21  1  0
  4 22  1  0
  5 23  1  0
  9 24  1  0
 10 25  1  0
 13 26  1  0
 14 27  1  0
 15 28  1  0
 17 29  1  0
M  END
>  <smiles>  (48) 
Cc1cccc(N=c2[nH]cnc3[nH]ccc23)c1

>  <score_type>  (48) 
oracle

>  <origin>  (48) 
adg

>  <m_score__min__energy>  (48) 
-6.7199999999999998

>  <m_primary>  (48) 
energy

$$$$
48:0
     RDKit          3D

 44 45  0  0  0  0  0  0  0  0999 V2000
   58.5590   30.3980   48.0360 C   0  0  0  0  0  0  0  0  0  0  0  0
   58.1010   31.1190   46.8980 O   0  0  0  0  0  0  0  0  0  0  0  0
   58.5490   32.3990   46.5290 C   0  0  0  0  0  0  0  0  0  0  0  0
   59.4480   33.1330   47.3270 C   0  0  0  0  0  0  0  0  0  0  0  0
   59.8780   34.3980   46.9200 C   0  0  0  0  0  0  0  0  0  0  0  0
   59.4180   34.9460   45.7220 C   0  0  0  0  0  0  0  0  0  0  0  0
   59.8310   36.1780   45.3370 F   0  0  0  0  0  0  0  0  0  0  0  0
   58.5250   34.2270   44.9230 C   0  0  0  0  0  0  0  0  0  0  0  0
   58.0920   32.9500   45.3160 C   0  0  0  0  0  0  0  0  0  0  0  0
   57.1690   32.2120   44.5030 N   0  0  0  0  0  0  0  0  0  0  0  0
   57.3810   31.9870   43.1020 C   0  0  0  0  0  0  0  0  0  0  0  0
   58.1610   32.7250   42.4420 O   0  0  0  0  0  0  0  0  0  0  0  0
   56.6900   30.8470   42.4130 C   0  0  0  0  0  0  0  0  0  0  0  0
   57.0190   29.6110   43.0460 O   0  0  0  0  0  0  0  0  0  0  0  0
   56.6880   29.3180   44.3760 C   0  0  0  0  0  0  0  0  0  0  0  0
   55.5620   29.6600   44.8330 O   0  0  0  0  0  0  0  0  0  0  0  0
   57.6580   28.5890   45.2300 C   0  0  0  0  0  0  0  0  0  0  0  0
   59.0060   28.9900   45.2210 C   0  0  0  0  0  0  0  0  0  0  0  0
   59.9540   28.3210   45.9960 C   0  0  0  0  0  0  0  0  0  0  0  0
   59.5720   27.2400   46.7920 C   0  0  0  0  0  0  0  0  0  0  0  0
   60.7950   26.3790   47.7810 S   0  0  0  0  0  0  0  0  0  0  0  0
   60.6350   27.5190   49.1900 C   0  0  0  0  0  0  0  0  0  0  0  0
   58.2390   26.8210   46.8040 C   0  0  0  0  0  0  0  0  0  0  0  0
   57.2700   27.4830   46.0230 C   0  0  0  0  0  0  0  0  0  0  0  0
   55.9330   27.0520   46.0010 O   0  0  0  0  0  0  0  0  0  0  0  0
   55.5190   25.6910   45.9520 C   0  0  0  0  0  0  0  0  0  0  0  0
   58.2323   30.9123   48.9518 H   0  0  0  0  0  0  0  0  0  0  0  0
   58.1413   29.3806   48.0180 H   0  0  0  0  0  0  0  0  0  0  0  0
   59.6575   30.3437   48.0180 H   0  0  0  0  0  0  0  0  0  0  0  0
   59.8127   32.7085   48.2740 H   0  0  0  0  0  0  0  0  0  0  0  0
   60.5824   34.9648   47.5466 H   0  0  0  0  0  0  0  0  0  0  0  0
   58.1594   34.6633   43.9817 H   0  0  0  0  0  0  0  0  0  0  0  0
   56.4660   31.6110   44.9930 H   0  0  0  0  0  0  0  0  0  0  0  0
   55.6018   31.0005   42.4608 H   0  0  0  0  0  0  0  0  0  0  0  0
   57.0205   30.8103   41.3645 H   0  0  0  0  0  0  0  0  0  0  0  0
   59.3164   29.8404   44.5961 H   0  0  0  0  0  0  0  0  0  0  0  0
   61.0047   28.6462   45.9796 H   0  0  0  0  0  0  0  0  0  0  0  0
   60.7144   26.9534   50.1301 H   0  0  0  0  0  0  0  0  0  0  0  0
   61.4364   28.2712   49.1459 H   0  0  0  0  0  0  0  0  0  0  0  0
   59.6575   28.0216   49.1459 H   0  0  0  0  0  0  0  0  0  0  0  0
   57.9428   25.9658   47.4293 H   0  0  0  0  0  0  0  0  0  0  0  0
   55.4020   25.3063   46.9759 H   0  0  0  0  0  0  0  0  0  0  0  0
   54.5583   25.6189   45.4211 H   0  0  0  0  0  0  0  0  0  0  0  0
   56.2768   25.0961   45.4211 H   0  0  0  0  0  0  0  0  0  0  0  0
  1  2  1  0
  2  3  1  0
  3  4  2  0
  4  5  1  0
  5  6  2  0
  6  7  1  0
  6  8  1  0
  8  9  2  0
  9 10  1  0
 10 11  1  0
 11 12  2  0
 11 13  1  0
 13 14  1  0
 14 15  1  0
 15 16  2  0
 15 17  1  0
 17 18  2  0
 18 19  1  0
 19 20  2  0
 20 21  1  0
 21 22  1  0
 20 23  1  0
 23 24  2  0
 24 25  1  0
 25 26  1  0
  9  3  1  0
 24 17  1  0
  1 27  1  0
  1 28  1  0
  1 29  1  0
  4 30  1  0
  5 31  1  0
  8 32  1  0
 10 33  1  0
 13 34  1  0
 13 35  1  0
 18 36  1  0
 19 37  1  0
 22 38  1  0
 22 39  1  0
 22 40  1  0
 23 41  1  0
 26 42  1  0
 26 43  1  0
 26 44  1  0
M  END
>  <UniqueID>  (49) 
46

>  <SMILES>  (49) 
COc1ccc(F)cc1NC(=O)COC(=O)c1ccc(SC)cc1OC

>  <Energy>  (49) 
41.405315431590886

>  <Genealogy>  (49) 
COc1ccc(F)cc1NC(=O)COC(=O)c1ccc(SC)cc1OC (3D coordinates assigned)
COc1ccc(F)cc1NC(=O)COC(=O)c1ccc(SC)cc1OC (optimized conformer: 41.405315431590886 kcal/mol)

>  <smiles>  (49) 
COc1ccc(F)cc1NC(=O)COC(=O)c1ccc(SC)cc1OC

>  <score_type>  (49) 
oracle

>  <origin>  (49) 
adg

>  <m_score__min__energy>  (49) 
-7.75

>  <m_primary>  (49) 
energy

$$$$
49:0
     RDKit          3D

 37 38  0  0  0  0  0  0  0  0999 V2000
   56.6240   24.3770   45.0430 C   0  0  0  0  0  0  0  0  0  0  0  0
   56.5800   25.9970   45.7800 S   0  0  0  0  0  0  0  0  0  0  0  0
   55.1460   26.3980   45.9810 O   0  0  0  0  0  0  0  0  0  0  0  0
   57.2720   25.9620   47.1150 O   0  0  0  0  0  0  0  0  0  0  0  0
   57.3490   27.1530   44.7340 N   0  0  0  0  0  0  0  0  0  0  0  0
   58.4000   27.8700   45.4640 C   0  0  0  0  0  0  0  0  0  0  0  0
   58.7790   29.1640   44.7300 C   0  0  0  0  0  0  0  0  0  0  0  0
   57.7520   30.2540   44.9070 C   0  0  0  0  0  0  0  0  0  0  0  0
   56.5330   29.9510   45.0130 O   0  0  0  0  0  0  0  0  0  0  0  0
   58.1610   31.6180   45.1150 N   0  0  0  0  0  0  0  0  0  0  0  0
   58.0350   32.5650   44.0020 C   0  0  0  0  0  0  0  0  0  0  0  0
   57.4250   33.8710   44.5060 C   0  0  0  0  0  0  0  0  0  0  0  0
   58.3010   34.4860   45.6010 C   0  0  0  0  0  0  0  0  0  0  0  0
   58.7000   33.4800   46.6540 C   0  0  0  0  0  0  0  0  0  0  0  0
   59.1980   33.9410   47.8830 C   0  0  0  0  0  0  0  0  0  0  0  0
   59.6650   33.0390   48.8400 C   0  0  0  0  0  0  0  0  0  0  0  0
   59.6620   31.6720   48.5710 C   0  0  0  0  0  0  0  0  0  0  0  0
   59.1810   31.1980   47.3470 C   0  0  0  0  0  0  0  0  0  0  0  0
   58.6770   32.0920   46.3820 C   0  0  0  0  0  0  0  0  0  0  0  0
   56.6447   23.6142   45.8353 H   0  0  0  0  0  0  0  0  0  0  0  0
   55.7294   24.2335   44.4192 H   0  0  0  0  0  0  0  0  0  0  0  0
   57.5250   24.2823   44.4192 H   0  0  0  0  0  0  0  0  0  0  0  0
   56.6160   27.8450   44.4570 H   0  0  0  0  0  0  0  0  0  0  0  0
   58.0353   28.1191   46.4714 H   0  0  0  0  0  0  0  0  0  0  0  0
   59.2891   27.2258   45.5305 H   0  0  0  0  0  0  0  0  0  0  0  0
   59.7429   29.5214   45.1213 H   0  0  0  0  0  0  0  0  0  0  0  0
   58.8373   28.9327   43.6562 H   0  0  0  0  0  0  0  0  0  0  0  0
   59.0299   32.7656   43.5778 H   0  0  0  0  0  0  0  0  0  0  0  0
   57.3841   32.1333   43.2274 H   0  0  0  0  0  0  0  0  0  0  0  0
   57.3429   34.5790   43.6681 H   0  0  0  0  0  0  0  0  0  0  0  0
   56.4296   33.6601   44.9240 H   0  0  0  0  0  0  0  0  0  0  0  0
   59.2122   34.8921   45.1375 H   0  0  0  0  0  0  0  0  0  0  0  0
   57.7142   35.2738   46.0960 H   0  0  0  0  0  0  0  0  0  0  0  0
   59.2203   35.0205   48.0931 H   0  0  0  0  0  0  0  0  0  0  0  0
   60.0359   33.4077   49.8077 H   0  0  0  0  0  0  0  0  0  0  0  0
   60.0391   30.9639   49.3236 H   0  0  0  0  0  0  0  0  0  0  0  0
   59.1962   30.1186   47.1358 H   0  0  0  0  0  0  0  0  0  0  0  0
  1  2  1  0
  2  3  2  0
  2  4  2  0
  2  5  1  0
  5  6  1  0
  6  7  1  0
  7  8  1  0
  8  9  2  0
  8 10  1  0
 10 11  1  0
 11 12  1  0
 12 13  1  0
 13 14  1  0
 14 15  2  0
 15 16  1  0
 16 17  2  0
 17 18  1  0
 18 19  2  0
 19 10  1  0
 19 14  1  0
  1 20  1  0
  1 21  1  0
  1 22  1  0
  5 23  1  0
  6 24  1  0
  6 25  1  0
  7 26  1  0
  7 27  1  0
 11 28  1  0
 11 29  1  0
 12 30  1  0
 12 31  1  0
 13 32  1  0
 13 33  1  0
 15 34  1  0
 16 35  1  0
 17 36  1  0
 18 37  1  0
M  END
>  <UniqueID>  (50) 
47

>  <SMILES>  (50) 
CS(=O)(=O)NCCC(=O)N1CCCc2ccccc21

>  <Energy>  (50) 
33.82683389148398

>  <Genealogy>  (50) 
CS(=O)(=O)NCCC(=O)N1CCCc2ccccc21 (3D coordinates assigned)
CS(=O)(=O)NCCC(=O)N1CCCc2ccccc21 (nonaromatic ring conformer: 33.82683389148398 kcal/mol)

>  <smiles>  (50) 
CS(=O)(=O)NCCC(=O)N1CCCc2ccccc21

>  <score_type>  (50) 
oracle

>  <origin>  (50) 
adg

>  <m_score__min__energy>  (50) 
-7.9100000000000001

>  <m_primary>  (50) 
energy

$$$$
50:0
     RDKit          3D

 37 40  0  0  0  0  0  0  0  0999 V2000
   55.6890   24.7340   45.3640 O   0  0  0  0  0  0  0  0  0  0  0  0
   56.5460   24.2550   44.5720 C   0  0  0  0  0  0  0  0  0  0  0  0
   57.5240   25.1130   43.9610 N   0  0  0  0  0  0  0  0  0  0  0  0
   57.8180   26.4460   44.4150 C   0  0  0  0  0  0  0  0  0  0  0  0
   57.8000   27.5410   43.5350 C   0  0  0  0  0  0  0  0  0  0  0  0
   58.0670   28.8290   44.0050 C   0  0  0  0  0  0  0  0  0  0  0  0
   58.3370   29.0490   45.3640 C   0  0  0  0  0  0  0  0  0  0  0  0
   58.5940   30.3800   45.8330 N   0  0  0  0  0  0  0  0  0  0  0  0
   57.8590   31.5570   45.4810 C   0  0  0  0  0  0  0  0  0  0  0  0
   56.7480   31.5500   44.8870 O   0  0  0  0  0  0  0  0  0  0  0  0
   58.6180   32.7490   45.8410 C   0  0  0  0  0  0  0  0  0  0  0  0
   58.3110   34.1010   45.6990 C   0  0  0  0  0  0  0  0  0  0  0  0
   59.2640   35.0430   46.1270 C   0  0  0  0  0  0  0  0  0  0  0  0
   60.4930   34.6180   46.6760 C   0  0  0  0  0  0  0  0  0  0  0  0
   60.7820   33.2480   46.8010 C   0  0  0  0  0  0  0  0  0  0  0  0
   59.8190   32.3340   46.3740 C   0  0  0  0  0  0  0  0  0  0  0  0
   59.8290   30.8760   46.3590 C   0  0  0  0  0  0  0  0  0  0  0  0
   60.7790   30.1460   46.7500 O   0  0  0  0  0  0  0  0  0  0  0  0
   58.3430   27.9570   46.2510 C   0  0  0  0  0  0  0  0  0  0  0  0
   58.7420   28.1630   47.9520 Cl  0  0  0  0  0  0  0  0  0  0  0  0
   58.0750   26.6680   45.7760 C   0  0  0  0  0  0  0  0  0  0  0  0
   56.5060   22.8180   44.2510 C   0  0  0  0  0  0  0  0  0  0  0  0
   56.7920   22.2530   43.0120 C   0  0  0  0  0  0  0  0  0  0  0  0
   56.6590   20.8600   42.9940 C   0  0  0  0  0  0  0  0  0  0  0  0
   56.2680   20.3210   44.2120 C   0  0  0  0  0  0  0  0  0  0  0  0
   56.0870   21.5790   45.3110 S   0  0  0  0  0  0  0  0  0  0  0  0
   57.9840   24.7890   43.0810 H   0  0  0  0  0  0  0  0  0  0  0  0
   57.5744   27.3832   42.4700 H   0  0  0  0  0  0  0  0  0  0  0  0
   58.0656   29.6770   43.3044 H   0  0  0  0  0  0  0  0  0  0  0  0
   57.3524   34.4218   45.2653 H   0  0  0  0  0  0  0  0  0  0  0  0
   59.0501   36.1179   46.0332 H   0  0  0  0  0  0  0  0  0  0  0  0
   61.2298   35.3641   47.0084 H   0  0  0  0  0  0  0  0  0  0  0  0
   61.7390   32.9071   47.2229 H   0  0  0  0  0  0  0  0  0  0  0  0
   58.0658   25.8204   46.4771 H   0  0  0  0  0  0  0  0  0  0  0  0
   57.0929   22.8429   42.1336 H   0  0  0  0  0  0  0  0  0  0  0  0
   56.8467   20.2494   42.0985 H   0  0  0  0  0  0  0  0  0  0  0  0
   56.1047   19.2536   44.4217 H   0  0  0  0  0  0  0  0  0  0  0  0
  1  2  2  0
  2  3  1  0
  3  4  1  0
  4  5  2  0
  5  6  1  0
  6  7  2  0
  7  8  1  0
  8  9  1  0
  9 10  2  0
  9 11  1  0
 11 12  2  0
 12 13  1  0
 13 14  2  0
 14 15  1  0
 15 16  2  0
 16 17  1  0
 17 18  2  0
  7 19  1  0
 19 20  1  0
 19 21  2  0
  2 22  1  0
 22 23  2  0
 23 24  1  0
 24 25  2  0
 25 26  1  0
 21  4  1  0
 26 22  1  0
 17  8  1  0
 16 11  1  0
  3 27  1  0
  5 28  1  0
  6 29  1  0
 12 30  1  0
 13 31  1  0
 14 32  1  0
 15 33  1  0
 21 34  1  0
 23 35  1  0
 24 36  1  0
 25 37  1  0
M  END
>  <UniqueID>  (51) 
48

>  <SMILES>  (51) 
O=C(Nc1ccc(N2C(=O)c3ccccc3C2=O)c(Cl)c1)c1cccs1

>  <Energy>  (51) 
109.88997267902012

>  <Genealogy>  (51) 
O=C(Nc1ccc(N2C(=O)c3ccccc3C2=O)c(Cl)c1)c1cccs1 (3D coordinates assigned)
O=C(Nc1ccc(N2C(=O)c3ccccc3C2=O)c(Cl)c1)c1cccs1 (nonaromatic ring conformer: 109.88997267902012 kcal/mol)

>  <smiles>  (51) 
O=C(Nc1ccc(N2C(=O)c3ccccc3C2=O)c(Cl)c1)c1cccs1

>  <score_type>  (51) 
oracle

>  <origin>  (51) 
adg

>  <m_score__min__energy>  (51) 
-8.1999999999999993

>  <m_primary>  (51) 
energy

$$$$
51:0
     RDKit          3D

 49 51  0  0  0  0  0  0  0  0999 V2000
   61.1400   26.3050   46.5770 C   0  0  0  0  0  0  0  0  0  0  0  0
   60.1250   26.4080   45.5850 O   0  0  0  0  0  0  0  0  0  0  0  0
   59.3160   27.5390   45.3900 C   0  0  0  0  0  0  0  0  0  0  0  0
   59.7010   28.5990   44.5450 C   0  0  0  0  0  0  0  0  0  0  0  0
   58.8750   29.7140   44.3900 C   0  0  0  0  0  0  0  0  0  0  0  0
   57.6740   29.8050   45.0990 C   0  0  0  0  0  0  0  0  0  0  0  0
   56.8560   30.9680   44.9430 N   0  0  0  0  0  0  0  0  0  0  0  0
   57.4930   32.5810   44.9580 S   0  0  0  0  0  0  0  0  0  0  0  0
   56.4800   33.4970   45.5870 O   0  0  0  0  0  0  0  0  0  0  0  0
   57.7230   33.0330   43.5430 O   0  0  0  0  0  0  0  0  0  0  0  0
   58.9970   32.6790   45.8690 C   0  0  0  0  0  0  0  0  0  0  0  0
   59.3560   31.6540   46.7510 C   0  0  0  0  0  0  0  0  0  0  0  0
   60.5700   31.7120   47.4420 C   0  0  0  0  0  0  0  0  0  0  0  0
   61.4580   32.7860   47.2420 C   0  0  0  0  0  0  0  0  0  0  0  0
   62.7680   32.8090   47.9480 C   0  0  0  0  0  0  0  0  0  0  0  0
   63.0210   31.9860   49.1750 C   0  0  0  0  0  0  0  0  0  0  0  0
   63.6920   33.5530   47.5250 O   0  0  0  0  0  0  0  0  0  0  0  0
   61.0870   33.8140   46.3520 C   0  0  0  0  0  0  0  0  0  0  0  0
   59.8630   33.7620   45.6790 C   0  0  0  0  0  0  0  0  0  0  0  0
   57.2730   28.7410   45.9170 C   0  0  0  0  0  0  0  0  0  0  0  0
   58.0790   27.6020   46.0490 C   0  0  0  0  0  0  0  0  0  0  0  0
   57.6770   26.5200   46.8940 N   0  0  0  0  0  0  0  0  0  0  0  0
   56.3280   25.4830   46.5570 S   0  0  0  0  0  0  0  0  0  0  0  0
   55.1890   26.3220   46.0460 O   0  0  0  0  0  0  0  0  0  0  0  0
   55.8900   24.8150   47.8320 O   0  0  0  0  0  0  0  0  0  0  0  0
   56.7200   24.2470   45.3600 C   0  0  0  0  0  0  0  0  0  0  0  0
   55.8260   23.9700   44.3120 C   0  0  0  0  0  0  0  0  0  0  0  0
   56.1490   23.0110   43.3480 C   0  0  0  0  0  0  0  0  0  0  0  0
   57.3710   22.3370   43.4100 C   0  0  0  0  0  0  0  0  0  0  0  0
   57.6910   21.4210   42.4630 F   0  0  0  0  0  0  0  0  0  0  0  0
   58.2670   22.6090   44.4490 C   0  0  0  0  0  0  0  0  0  0  0  0
   57.9410   23.5550   45.4260 C   0  0  0  0  0  0  0  0  0  0  0  0
   58.8320   23.8160   46.4170 F   0  0  0  0  0  0  0  0  0  0  0  0
   60.6822   26.3515   47.5762 H   0  0  0  0  0  0  0  0  0  0  0  0
   61.6705   25.3484   46.4608 H   0  0  0  0  0  0  0  0  0  0  0  0
   61.8519   27.1355   46.4608 H   0  0  0  0  0  0  0  0  0  0  0  0
   60.6577   28.5477   44.0045 H   0  0  0  0  0  0  0  0  0  0  0  0
   59.1707   30.5241   43.7071 H   0  0  0  0  0  0  0  0  0  0  0  0
   58.6804   30.7991   46.9014 H   0  0  0  0  0  0  0  0  0  0  0  0
   60.8338   30.9111   48.1484 H   0  0  0  0  0  0  0  0  0  0  0  0
   62.8334   32.5961   50.0709 H   0  0  0  0  0  0  0  0  0  0  0  0
   62.3491   31.1150   49.1773 H   0  0  0  0  0  0  0  0  0  0  0  0
   64.0661   31.6429   49.1773 H   0  0  0  0  0  0  0  0  0  0  0  0
   61.7657   34.6635   46.1858 H   0  0  0  0  0  0  0  0  0  0  0  0
   59.5789   34.5765   44.9965 H   0  0  0  0  0  0  0  0  0  0  0  0
   56.3182   28.7998   46.4600 H   0  0  0  0  0  0  0  0  0  0  0  0
   54.8693   24.5094   44.2501 H   0  0  0  0  0  0  0  0  0  0  0  0
   55.4391   22.7864   42.5383 H   0  0  0  0  0  0  0  0  0  0  0  0
   59.2292   22.0782   44.4977 H   0  0  0  0  0  0  0  0  0  0  0  0
  1  2  1  0
  2  3  1  0
  3  4  2  0
  4  5  1  0
  5  6  2  0
  6  7  1  0
  7  8  1  0
  8  9  2  0
  8 10  2  0
  8 11  1  0
 11 12  2  0
 12 13  1  0
 13 14  2  0
 14 15  1  0
 15 16  1  0
 15 17  2  0
 14 18  1  0
 18 19  2  0
  6 20  1  0
 20 21  2  0
 21 22  1  0
 22 23  1  0
 23 24  2  0
 23 25  2  0
 23 26  1  0
 26 27  2  0
 27 28  1  0
 28 29  2  0
 29 30  1  0
 29 31  1  0
 31 32  2  0
 32 33  1  0
 21  3  1  0
 32 26  1  0
 19 11  1  0
  1 34  1  0
  1 35  1  0
  1 36  1  0
  4 37  1  0
  5 38  1  0
 12 39  1  0
 13 40  1  0
 16 41  1  0
 16 42  1  0
 16 43  1  0
 18 44  1  0
 19 45  1  0
 20 46  1  0
 27 47  1  0
 28 48  1  0
 31 49  1  0
M  CHG  2   7  -1  22  -1
M  END
>  <UniqueID>  (52) 
49

>  <SMILES>  (52) 
COc1ccc([N-]S(=O)(=O)c2ccc(C(C)=O)cc2)cc1[N-]S(=O)(=O)c1ccc(F)cc1F

>  <Energy>  (52) 
65.18564112313236

>  <Genealogy>  (52) 
COc1ccc([N-]S(=O)(=O)c2ccc(C(C)=O)cc2)cc1[N-]S(=O)(=O)c1ccc(F)cc1F (protonated)
COc1ccc([N-]S(=O)(=O)c2ccc(C(C)=O)cc2)cc1[N-]S(=O)(=O)c1ccc(F)cc1F (3D coordinates assigned)
COc1ccc([N-]S(=O)(=O)c2ccc(C(C)=O)cc2)cc1[N-]S(=O)(=O)c1ccc(F)cc1F (optimized conformer: 65.18564112313236 kcal/mol)

>  <smiles>  (52) 
COc1ccc(NS(=O)(=O)c2ccc(C(C)=O)cc2)cc1NS(=O)(=O)c1ccc(F)cc1F

>  <score_type>  (52) 
oracle

>  <origin>  (52) 
adg

>  <m_score__min__energy>  (52) 
-11.48

>  <m_primary>  (52) 
energy

$$$$
52:0
     RDKit          3D

 50 52  0  0  0  0  0  0  0  0999 V2000
   64.1800   33.3950   48.6810 C   0  0  0  0  0  0  0  0  0  0  0  0
   62.9920   32.8020   47.4970 S   0  0  0  0  0  0  0  0  0  0  0  0
   62.8660   33.8380   46.4160 O   0  0  0  0  0  0  0  0  0  0  0  0
   63.5020   31.5210   46.8950 O   0  0  0  0  0  0  0  0  0  0  0  0
   61.4300   32.5450   48.2550 N   0  0  0  0  0  0  0  0  0  0  0  0
   60.6810   31.4430   47.6210 C   0  0  0  0  0  0  0  0  0  0  0  0
   59.8700   30.7030   48.6380 C   0  0  0  0  0  0  0  0  0  0  0  0
   60.0780   30.9030   49.8640 O   0  0  0  0  0  0  0  0  0  0  0  0
   58.8030   29.8510   48.2030 N   0  0  0  0  0  0  0  0  0  0  0  0
   58.9350   28.5980   47.5140 C   0  0  0  0  0  0  0  0  0  0  0  0
   59.8940   27.6400   47.8960 C   0  0  0  0  0  0  0  0  0  0  0  0
   60.0160   26.4440   47.1860 C   0  0  0  0  0  0  0  0  0  0  0  0
   59.2020   26.1990   46.0800 C   0  0  0  0  0  0  0  0  0  0  0  0
   58.2640   27.1510   45.6780 C   0  0  0  0  0  0  0  0  0  0  0  0
   58.1160   28.3520   46.3980 C   0  0  0  0  0  0  0  0  0  0  0  0
   57.1960   29.3340   46.0020 O   0  0  0  0  0  0  0  0  0  0  0  0
   57.1950   29.9990   44.7670 C   0  0  0  0  0  0  0  0  0  0  0  0
   56.2720   29.6840   43.7520 C   0  0  0  0  0  0  0  0  0  0  0  0
   56.2950   30.3810   42.5390 C   0  0  0  0  0  0  0  0  0  0  0  0
   57.2270   31.4020   42.3360 C   0  0  0  0  0  0  0  0  0  0  0  0
   58.1330   31.7330   43.3490 C   0  0  0  0  0  0  0  0  0  0  0  0
   58.1110   31.0380   44.5620 C   0  0  0  0  0  0  0  0  0  0  0  0
   60.6440   33.7970   48.3450 C   0  0  0  0  0  0  0  0  0  0  0  0
   59.5990   33.9540   47.2550 C   0  0  0  0  0  0  0  0  0  0  0  0
   59.9300   34.5510   46.0250 C   0  0  0  0  0  0  0  0  0  0  0  0
   58.9630   34.6930   45.0250 C   0  0  0  0  0  0  0  0  0  0  0  0
   57.6630   34.2290   45.2380 C   0  0  0  0  0  0  0  0  0  0  0  0
   57.3290   33.6150   46.4470 C   0  0  0  0  0  0  0  0  0  0  0  0
   58.2930   33.4710   47.4490 C   0  0  0  0  0  0  0  0  0  0  0  0
   63.8073   33.2090   49.6991 H   0  0  0  0  0  0  0  0  0  0  0  0
   65.1348   32.8678   48.5380 H   0  0  0  0  0  0  0  0  0  0  0  0
   64.3325   34.4750   48.5380 H   0  0  0  0  0  0  0  0  0  0  0  0
   60.0092   31.8567   46.8545 H   0  0  0  0  0  0  0  0  0  0  0  0
   61.3974   30.7451   47.1630 H   0  0  0  0  0  0  0  0  0  0  0  0
   60.5497   27.8348   48.7574 H   0  0  0  0  0  0  0  0  0  0  0  0
   60.7560   25.6929   47.4996 H   0  0  0  0  0  0  0  0  0  0  0  0
   59.2995   25.2547   45.5243 H   0  0  0  0  0  0  0  0  0  0  0  0
   57.6371   26.9621   44.7941 H   0  0  0  0  0  0  0  0  0  0  0  0
   55.5305   28.8876   43.9129 H   0  0  0  0  0  0  0  0  0  0  0  0
   55.5787   30.1249   41.7445 H   0  0  0  0  0  0  0  0  0  0  0  0
   57.2482   31.9454   41.3798 H   0  0  0  0  0  0  0  0  0  0  0  0
   58.8631   32.5405   43.1912 H   0  0  0  0  0  0  0  0  0  0  0  0
   58.8177   31.3091   45.3602 H   0  0  0  0  0  0  0  0  0  0  0  0
   60.1325   33.8142   49.3187 H   0  0  0  0  0  0  0  0  0  0  0  0
   61.3555   34.6270   48.2234 H   0  0  0  0  0  0  0  0  0  0  0  0
   60.9554   34.9082   45.8489 H   0  0  0  0  0  0  0  0  0  0  0  0
   59.2264   35.1706   44.0697 H   0  0  0  0  0  0  0  0  0  0  0  0
   56.9017   34.3473   44.4529 H   0  0  0  0  0  0  0  0  0  0  0  0
   56.3064   33.2443   46.6110 H   0  0  0  0  0  0  0  0  0  0  0  0
   58.0281   32.9766   48.3953 H   0  0  0  0  0  0  0  0  0  0  0  0
  1  2  1  0
  2  3  2  0
  2  4  2  0
  2  5  1  0
  5  6  1  0
  6  7  1  0
  7  8  2  0
  7  9  1  0
  9 10  1  0
 10 11  2  0
 11 12  1  0
 12 13  2  0
 13 14  1  0
 14 15  2  0
 15 16  1  0
 16 17  1  0
 17 18  2  0
 18 19  1  0
 19 20  2  0
 20 21  1  0
 21 22  2  0
  5 23  1  0
 23 24  1  0
 24 25  2  0
 25 26  1  0
 26 27  2  0
 27 28  1  0
 28 29  2  0
 15 10  1  0
 22 17  1  0
 29 24  1  0
  1 30  1  0
  1 31  1  0
  1 32  1  0
  6 33  1  0
  6 34  1  0
 11 35  1  0
 12 36  1  0
 13 37  1  0
 14 38  1  0
 18 39  1  0
 19 40  1  0
 20 41  1  0
 21 42  1  0
 22 43  1  0
 23 44  1  0
 23 45  1  0
 25 46  1  0
 26 47  1  0
 27 48  1  0
 28 49  1  0
 29 50  1  0
M  CHG  1   9  -1
M  END
>  <UniqueID>  (53) 
50

>  <SMILES>  (53) 
CS(=O)(=O)N(CC(=O)[N-]c1ccccc1Oc1ccccc1)Cc1ccccc1

>  <Energy>  (53) 
59.59112388923143

>  <Genealogy>  (53) 
CS(=O)(=O)N(CC(=O)[N-]c1ccccc1Oc1ccccc1)Cc1ccccc1 (protonated)
CS(=O)(=O)N(CC(=O)[N-]c1ccccc1Oc1ccccc1)Cc1ccccc1 (3D coordinates assigned)
CS(=O)(=O)N(CC(=O)[N-]c1ccccc1Oc1ccccc1)Cc1ccccc1 (optimized conformer: 59.59112388923143 kcal/mol)

>  <smiles>  (53) 
CS(=O)(=O)N(CC(=O)Nc1ccccc1Oc1ccccc1)Cc1ccccc1

>  <score_type>  (53) 
oracle

>  <origin>  (53) 
adg

>  <m_score__min__energy>  (53) 
-10.550000000000001

>  <m_primary>  (53) 
energy

$$$$
53:0
     RDKit          3D

 26 27  0  0  0  0  0  0  0  0999 V2000
   60.9332   34.3000   50.2569 H   0  0  0  0  0  0  0  0  0  0  0  0
   60.7610   34.1000   49.1890 C   0  0  0  0  0  0  0  0  0  0  0  0
   59.6430   34.5860   48.6260 C   0  0  0  0  0  0  0  0  0  0  0  0
   58.9889   35.2250   49.2375 H   0  0  0  0  0  0  0  0  0  0  0  0
   59.2410   34.3090   47.2250 C   0  0  0  0  0  0  0  0  0  0  0  0
   59.6460   35.2030   46.2210 C   0  0  0  0  0  0  0  0  0  0  0  0
   60.2412   36.0888   46.4878 H   0  0  0  0  0  0  0  0  0  0  0  0
   59.3000   34.9780   44.8860 C   0  0  0  0  0  0  0  0  0  0  0  0
   59.6175   35.6900   44.1100 H   0  0  0  0  0  0  0  0  0  0  0  0
   58.5530   33.8530   44.5340 C   0  0  0  0  0  0  0  0  0  0  0  0
   58.2763   33.6830   43.4830 H   0  0  0  0  0  0  0  0  0  0  0  0
   58.1560   32.9410   45.5190 C   0  0  0  0  0  0  0  0  0  0  0  0
   57.4010   31.7710   45.1530 C   0  0  0  0  0  0  0  0  0  0  0  0
   56.7950   30.8310   44.8590 N   0  0  0  0  0  0  0  0  0  0  0  0
   58.5020   33.1630   46.8600 C   0  0  0  0  0  0  0  0  0  0  0  0
   58.1960   32.4406   47.6310 H   0  0  0  0  0  0  0  0  0  0  0  0
   61.7780   33.3080   48.4520 C   0  0  0  0  0  0  0  0  0  0  0  0
   61.6500   31.9240   48.2260 C   0  0  0  0  0  0  0  0  0  0  0  0
   60.7741   31.3799   48.6090 H   0  0  0  0  0  0  0  0  0  0  0  0
   62.6410   31.2460   47.5130 C   0  0  0  0  0  0  0  0  0  0  0  0
   62.5490   30.1633   47.3415 H   0  0  0  0  0  0  0  0  0  0  0  0
   63.7190   31.9190   47.0300 N   0  0  0  0  0  0  0  0  0  0  0  0
   63.8650   33.2570   47.2200 C   0  0  0  0  0  0  0  0  0  0  0  0
   64.7471   33.7756   46.8163 H   0  0  0  0  0  0  0  0  0  0  0  0
   62.8970   33.9750   47.9270 C   0  0  0  0  0  0  0  0  0  0  0  0
   63.0110   35.0594   48.0720 H   0  0  0  0  0  0  0  0  0  0  0  0
  1  2  1  0
  2  3  2  0
  3  4  1  0
  3  5  1  0
  5  6  2  0
  6  7  1  0
  6  8  1  0
  8  9  1  0
  8 10  2  0
 10 11  1  0
 10 12  1  0
 12 13  1  0
 13 14  3  0
 12 15  2  0
 15 16  1  0
  2 17  1  0
 17 18  2  0
 18 19  1  0
 18 20  1  0
 20 21  1  0
 20 22  2  0
 22 23  1  0
 23 24  1  0
 23 25  2  0
 25 26  1  0
 15  5  1  0
 25 17  1  0
M  END
>  <UniqueID>  (54) 
51

>  <SMILES>  (54) 
N#Cc1cccc(/C=C/c2ccncc2)c1

>  <Energy>  (54) 
31.951637689445786

>  <Genealogy>  (54) 
N#Cc1cccc(/C=C/c2ccncc2)c1 (cis-trans isomerization)
N#Cc1cccc(/C=C/c2ccncc2)c1 (3D coordinates assigned)
N#Cc1cccc(/C=C/c2ccncc2)c1 (optimized conformer: 31.951637689445786 kcal/mol)

>  <smiles>  (54) 
N#Cc1cccc(C=Cc2ccncc2)c1

>  <score_type>  (54) 
oracle

>  <origin>  (54) 
adg

>  <m_score__min__energy>  (54) 
-6.4000000000000004

>  <m_primary>  (54) 
energy

$$$$
54:0
     RDKit          3D

 49 51  0  0  0  0  0  0  0  0999 V2000
   56.7940   29.8580   42.9420 O   0  0  0  0  0  0  0  0  0  0  0  0
   56.6640   30.0050   44.4310 S   0  0  0  0  0  0  0  0  0  0  0  0
   55.4020   29.3150   44.8800 O   0  0  0  0  0  0  0  0  0  0  0  0
   56.5830   31.6940   44.8430 N   0  0  0  0  0  0  0  0  0  0  0  0
   57.7770   32.3880   44.3680 C   0  0  0  0  0  0  0  0  0  0  0  0
   58.3140   33.2350   45.4840 C   0  0  0  0  0  0  0  0  0  0  0  0
   58.7190   34.5590   45.2430 C   0  0  0  0  0  0  0  0  0  0  0  0
   59.3230   35.3060   46.2620 C   0  0  0  0  0  0  0  0  0  0  0  0
   59.5490   34.7290   47.5160 C   0  0  0  0  0  0  0  0  0  0  0  0
   59.1530   33.4050   47.7660 C   0  0  0  0  0  0  0  0  0  0  0  0
   59.5500   32.6360   49.3060 S   0  0  0  0  0  0  0  0  0  0  0  0
   59.0750   31.2060   49.3100 O   0  0  0  0  0  0  0  0  0  0  0  0
   58.8530   33.3710   50.4190 O   0  0  0  0  0  0  0  0  0  0  0  0
   61.2670   32.6810   49.5920 N   0  0  0  0  0  0  0  0  0  0  0  0
   61.9750   31.6470   48.8290 C   0  0  0  0  0  0  0  0  0  0  0  0
   63.4870   31.7600   49.0920 C   0  0  0  0  0  0  0  0  0  0  0  0
   64.0780   33.0590   48.5200 C   0  0  0  0  0  0  0  0  0  0  0  0
   63.7740   33.1950   47.0240 C   0  0  0  0  0  0  0  0  0  0  0  0
   62.2650   33.1000   46.7550 C   0  0  0  0  0  0  0  0  0  0  0  0
   61.6840   31.7970   47.3230 C   0  0  0  0  0  0  0  0  0  0  0  0
   58.5230   32.6660   46.7520 C   0  0  0  0  0  0  0  0  0  0  0  0
   58.0830   29.3000   45.2050 C   0  0  0  0  0  0  0  0  0  0  0  0
   58.0080   28.8160   46.5230 C   0  0  0  0  0  0  0  0  0  0  0  0
   59.1560   28.3020   47.1400 C   0  0  0  0  0  0  0  0  0  0  0  0
   60.3830   28.2930   46.4580 C   0  0  0  0  0  0  0  0  0  0  0  0
   60.4660   28.8110   45.1600 C   0  0  0  0  0  0  0  0  0  0  0  0
   59.3190   29.3190   44.5360 C   0  0  0  0  0  0  0  0  0  0  0  0
   58.5361   31.6528   44.0625 H   0  0  0  0  0  0  0  0  0  0  0  0
   57.5254   33.0204   43.5038 H   0  0  0  0  0  0  0  0  0  0  0  0
   58.5613   35.0095   44.2519 H   0  0  0  0  0  0  0  0  0  0  0  0
   59.6203   36.3486   46.0759 H   0  0  0  0  0  0  0  0  0  0  0  0
   60.0383   35.3140   48.3087 H   0  0  0  0  0  0  0  0  0  0  0  0
   61.6229   30.6564   49.1528 H   0  0  0  0  0  0  0  0  0  0  0  0
   63.6606   31.7394   50.1780 H   0  0  0  0  0  0  0  0  0  0  0  0
   63.9819   30.9140   48.5926 H   0  0  0  0  0  0  0  0  0  0  0  0
   63.6429   33.9167   49.0539 H   0  0  0  0  0  0  0  0  0  0  0  0
   65.1697   33.0327   48.6524 H   0  0  0  0  0  0  0  0  0  0  0  0
   64.1413   34.1696   46.6700 H   0  0  0  0  0  0  0  0  0  0  0  0
   64.2762   32.3750   46.4897 H   0  0  0  0  0  0  0  0  0  0  0  0
   61.7609   33.9550   47.2291 H   0  0  0  0  0  0  0  0  0  0  0  0
   62.1023   33.1105   45.6671 H   0  0  0  0  0  0  0  0  0  0  0  0
   60.5948   31.7965   47.1694 H   0  0  0  0  0  0  0  0  0  0  0  0
   62.1586   30.9547   46.7983 H   0  0  0  0  0  0  0  0  0  0  0  0
   58.1912   31.6363   46.9510 H   0  0  0  0  0  0  0  0  0  0  0  0
   57.0524   28.8408   47.0672 H   0  0  0  0  0  0  0  0  0  0  0  0
   59.0956   27.9036   48.1636 H   0  0  0  0  0  0  0  0  0  0  0  0
   61.2791   27.8790   46.9434 H   0  0  0  0  0  0  0  0  0  0  0  0
   61.4303   28.8192   44.6308 H   0  0  0  0  0  0  0  0  0  0  0  0
   59.3860   29.7340   43.5195 H   0  0  0  0  0  0  0  0  0  0  0  0
  1  2  2  0
  2  3  2  0
  2  4  1  0
  4  5  1  0
  5  6  1  0
  6  7  2  0
  7  8  1  0
  8  9  2  0
  9 10  1  0
 10 11  1  0
 11 12  2  0
 11 13  2  0
 11 14  1  0
 14 15  1  0
 15 16  1  0
 16 17  1  0
 17 18  1  0
 18 19  1  0
 19 20  1  0
 10 21  2  0
  2 22  1  0
 22 23  2  0
 23 24  1  0
 24 25  2  0
 25 26  1  0
 26 27  2  0
 21  6  1  0
 27 22  1  0
 20 15  1  0
  5 28  1  0
  5 29  1  0
  7 30  1  0
  8 31  1  0
  9 32  1  0
 15 33  1  0
 16 34  1  0
 16 35  1  0
 17 36  1  0
 17 37  1  0
 18 38  1  0
 18 39  1  0
 19 40  1  0
 19 41  1  0
 20 42  1  0
 20 43  1  0
 21 44  1  0
 23 45  1  0
 24 46  1  0
 25 47  1  0
 26 48  1  0
 27 49  1  0
M  CHG  2   4  -1  14  -1
M  END
>  <UniqueID>  (55) 
52

>  <SMILES>  (55) 
O=S(=O)([N-]Cc1cccc(S(=O)(=O)[N-]C2CCCCC2)c1)c1ccccc1

>  <Energy>  (55) 
39.09589813279718

>  <Genealogy>  (55) 
O=S(=O)([N-]Cc1cccc(S(=O)(=O)[N-]C2CCCCC2)c1)c1ccccc1 (protonated)
O=S(=O)([N-]Cc1cccc(S(=O)(=O)[N-]C2CCCCC2)c1)c1ccccc1 (3D coordinates assigned)
O=S(=O)([N-]Cc1cccc(S(=O)(=O)[N-]C2CCCCC2)c1)c1ccccc1 (nonaromatic ring conformer: 39.09589813279718 kcal/mol)

>  <smiles>  (55) 
O=S(=O)(NCc1cccc(S(=O)(=O)NC2CCCCC2)c1)c1ccccc1

>  <score_type>  (55) 
oracle

>  <origin>  (55) 
adg

>  <m_score__min__energy>  (55) 
-13.15

>  <m_primary>  (55) 
energy

$$$$
55:0
     RDKit          3D

 53 53  0  0  0  0  0  0  0  0999 V2000
   63.3520   33.7970   46.4380 C   0  0  0  0  0  0  0  0  0  0  0  0
   63.1280   33.1150   47.7870 C   0  0  0  0  0  0  0  0  0  0  0  0
   62.1490   33.8910   48.6850 C   0  0  0  0  0  0  0  0  0  0  0  0
   60.6970   33.3820   48.6080 C   0  0  0  0  0  0  0  0  0  0  0  0
   60.5630   32.1240   47.7330 C   0  0  0  0  0  0  0  0  0  0  0  0
   59.2660   31.3320   48.0080 C   0  0  0  0  0  0  0  0  0  0  0  0
   59.0950   30.0750   47.1330 C   0  0  0  0  0  0  0  0  0  0  0  0
   60.3960   29.5090   46.5310 C   0  0  0  0  0  0  0  0  0  0  0  0
   60.1960   28.8020   45.1710 C   0  0  0  0  0  0  0  0  0  0  0  0
   59.6100   27.3890   45.3250 C   0  0  0  0  0  0  0  0  0  0  0  0
   58.1220   27.3040   44.9370 C   0  0  0  0  0  0  0  0  0  0  0  0
   57.7700   28.0040   43.6110 C   0  0  0  0  0  0  0  0  0  0  0  0
   57.6090   29.4480   43.7810 N   0  0  0  0  0  0  0  0  0  0  0  0
   56.5280   30.0280   44.5290 C   0  0  0  0  0  0  0  0  0  0  0  0
   55.7370   29.2870   45.1700 O   0  0  0  0  0  0  0  0  0  0  0  0
   56.2830   31.4400   44.5010 N   0  0  0  0  0  0  0  0  0  0  0  0
   57.1990   32.4630   44.9130 C   0  0  0  0  0  0  0  0  0  0  0  0
   57.0580   33.1170   46.1490 C   0  0  0  0  0  0  0  0  0  0  0  0
   57.9620   34.1150   46.5260 C   0  0  0  0  0  0  0  0  0  0  0  0
   59.0000   34.4810   45.6630 C   0  0  0  0  0  0  0  0  0  0  0  0
   59.8770   35.4480   46.0300 F   0  0  0  0  0  0  0  0  0  0  0  0
   59.1240   33.8590   44.4180 C   0  0  0  0  0  0  0  0  0  0  0  0
   58.2190   32.8640   44.0380 C   0  0  0  0  0  0  0  0  0  0  0  0
   58.3460   32.2750   42.8230 F   0  0  0  0  0  0  0  0  0  0  0  0
   63.6914   34.8305   46.6015 H   0  0  0  0  0  0  0  0  0  0  0  0
   64.1162   33.2455   45.8707 H   0  0  0  0  0  0  0  0  0  0  0  0
   62.4096   33.8060   45.8707 H   0  0  0  0  0  0  0  0  0  0  0  0
   62.7217   32.1082   47.6100 H   0  0  0  0  0  0  0  0  0  0  0  0
   64.0971   33.0750   48.3059 H   0  0  0  0  0  0  0  0  0  0  0  0
   62.4917   33.8052   49.7267 H   0  0  0  0  0  0  0  0  0  0  0  0
   62.1429   34.9314   48.3278 H   0  0  0  0  0  0  0  0  0  0  0  0
   60.3517   33.1436   49.6248 H   0  0  0  0  0  0  0  0  0  0  0  0
   60.0870   34.1752   48.1512 H   0  0  0  0  0  0  0  0  0  0  0  0
   60.5694   32.4298   46.6764 H   0  0  0  0  0  0  0  0  0  0  0  0
   61.4089   31.4637   47.9750 H   0  0  0  0  0  0  0  0  0  0  0  0
   59.2696   31.0200   49.0628 H   0  0  0  0  0  0  0  0  0  0  0  0
   58.4288   32.0026   47.7643 H   0  0  0  0  0  0  0  0  0  0  0  0
   58.6374   29.2895   47.7524 H   0  0  0  0  0  0  0  0  0  0  0  0
   58.4731   30.3814   46.2790 H   0  0  0  0  0  0  0  0  0  0  0  0
   61.1033   30.3396   46.3898 H   0  0  0  0  0  0  0  0  0  0  0  0
   60.7725   28.7517   47.2344 H   0  0  0  0  0  0  0  0  0  0  0  0
   59.5096   29.4041   44.5576 H   0  0  0  0  0  0  0  0  0  0  0  0
   61.1830   28.7055   44.6951 H   0  0  0  0  0  0  0  0  0  0  0  0
   60.1790   26.7024   44.6810 H   0  0  0  0  0  0  0  0  0  0  0  0
   59.6868   27.1172   46.3881 H   0  0  0  0  0  0  0  0  0  0  0  0
   57.8495   26.2420   44.8484 H   0  0  0  0  0  0  0  0  0  0  0  0
   57.5611   27.8258   45.7264 H   0  0  0  0  0  0  0  0  0  0  0  0
   58.5768   27.8192   42.8865 H   0  0  0  0  0  0  0  0  0  0  0  0
   56.8136   27.5947   43.2535 H   0  0  0  0  0  0  0  0  0  0  0  0
   58.2700   30.0640   43.2600 H   0  0  0  0  0  0  0  0  0  0  0  0
   56.2329   32.8426   46.8227 H   0  0  0  0  0  0  0  0  0  0  0  0
   57.8567   34.6123   47.5015 H   0  0  0  0  0  0  0  0  0  0  0  0
   59.9353   34.1529   43.7358 H   0  0  0  0  0  0  0  0  0  0  0  0
  1  2  1  0
  2  3  1  0
  3  4  1  0
  4  5  1  0
  5  6  1  0
  6  7  1  0
  7  8  1  0
  8  9  1  0
  9 10  1  0
 10 11  1  0
 11 12  1  0
 12 13  1  0
 13 14  1  0
 14 15  2  0
 14 16  1  0
 16 17  1  0
 17 18  2  0
 18 19  1  0
 19 20  2  0
 20 21  1  0
 20 22  1  0
 22 23  2  0
 23 24  1  0
 23 17  1  0
  1 25  1  0
  1 26  1  0
  1 27  1  0
  2 28  1  0
  2 29  1  0
  3 30  1  0
  3 31  1  0
  4 32  1  0
  4 33  1  0
  5 34  1  0
  5 35  1  0
  6 36  1  0
  6 37  1  0
  7 38  1  0
  7 39  1  0
  8 40  1  0
  8 41  1  0
  9 42  1  0
  9 43  1  0
 10 44  1  0
 10 45  1  0
 11 46  1  0
 11 47  1  0
 12 48  1  0
 12 49  1  0
 13 50  1  0
 18 51  1  0
 19 52  1  0
 22 53  1  0
M  CHG  1  16  -1
M  END
>  <UniqueID>  (56) 
53

>  <SMILES>  (56) 
CCCCCCCCCCCCNC(=O)[N-]c1ccc(F)cc1F

>  <Energy>  (56) 
37.215980958768654

>  <Genealogy>  (56) 
CCCCCCCCCCCCNC(=O)[N-]c1ccc(F)cc1F (protonated)
CCCCCCCCCCCCNC(=O)[N-]c1ccc(F)cc1F (3D coordinates assigned)
CCCCCCCCCCCCNC(=O)[N-]c1ccc(F)cc1F (optimized conformer: 37.215980958768654 kcal/mol)

>  <smiles>  (56) 
CCCCCCCCCCCCNC(=O)Nc1ccc(F)cc1F

>  <score_type>  (56) 
oracle

>  <origin>  (56) 
adg

>  <m_score__min__energy>  (56) 
-9.1300000000000008

>  <m_primary>  (56) 
energy

$$$$
56:0
     RDKit          3D

 36 37  0  0  0  0  0  0  0  0999 V2000
   60.1450   28.7700   44.8290 C   0  0  0  0  0  0  0  0  0  0  0  0
   59.0460   27.9110   45.3930 C   0  0  0  0  0  0  0  0  0  0  0  0
   59.4020   26.8440   46.2420 C   0  0  0  0  0  0  0  0  0  0  0  0
   58.4280   26.0000   46.7740 C   0  0  0  0  0  0  0  0  0  0  0  0
   57.0850   26.2020   46.4660 C   0  0  0  0  0  0  0  0  0  0  0  0
   56.7110   27.2570   45.6330 C   0  0  0  0  0  0  0  0  0  0  0  0
   57.6730   28.1290   45.0980 C   0  0  0  0  0  0  0  0  0  0  0  0
   57.0710   29.4560   44.0760 S   0  0  0  0  0  0  0  0  0  0  0  0
   56.6240   28.9860   42.7220 O   0  0  0  0  0  0  0  0  0  0  0  0
   55.8890   30.0740   44.7680 O   0  0  0  0  0  0  0  0  0  0  0  0
   58.2960   30.6810   43.8580 N   0  0  0  0  0  0  0  0  0  0  0  0
   57.7080   32.0230   43.6990 C   0  0  2  0  0  0  0  0  0  0  0  0
   58.1300   32.6210   42.3530 C   0  0  0  0  0  0  0  0  0  0  0  0
   58.1380   32.9470   44.8190 C   0  0  0  0  0  0  0  0  0  0  0  0
   58.9050   34.0970   44.5500 C   0  0  0  0  0  0  0  0  0  0  0  0
   59.2960   34.9450   45.5910 C   0  0  0  0  0  0  0  0  0  0  0  0
   58.9200   34.6580   46.9050 C   0  0  0  0  0  0  0  0  0  0  0  0
   58.1500   33.5260   47.1820 C   0  0  0  0  0  0  0  0  0  0  0  0
   57.7560   32.6750   46.1450 C   0  0  0  0  0  0  0  0  0  0  0  0
   60.7191   29.2187   45.6530 H   0  0  0  0  0  0  0  0  0  0  0  0
   60.8128   28.1520   44.2108 H   0  0  0  0  0  0  0  0  0  0  0  0
   59.7066   29.5673   44.2108 H   0  0  0  0  0  0  0  0  0  0  0  0
   60.4608   26.6750   46.4879 H   0  0  0  0  0  0  0  0  0  0  0  0
   58.7208   25.1733   47.4380 H   0  0  0  0  0  0  0  0  0  0  0  0
   56.3189   25.5297   46.8795 H   0  0  0  0  0  0  0  0  0  0  0  0
   55.6483   27.4077   45.3921 H   0  0  0  0  0  0  0  0  0  0  0  0
   58.8040   30.4340   42.9780 H   0  0  0  0  0  0  0  0  0  0  0  0
   56.6134   31.9203   43.7344 H   0  0  0  0  0  0  0  0  0  0  0  0
   58.7563   33.5085   42.5263 H   0  0  0  0  0  0  0  0  0  0  0  0
   58.7022   31.8741   41.7832 H   0  0  0  0  0  0  0  0  0  0  0  0
   57.2345   32.9098   41.7832 H   0  0  0  0  0  0  0  0  0  0  0  0
   59.1981   34.3295   43.5156 H   0  0  0  0  0  0  0  0  0  0  0  0
   59.9000   35.8385   45.3747 H   0  0  0  0  0  0  0  0  0  0  0  0
   59.2307   35.3244   47.7231 H   0  0  0  0  0  0  0  0  0  0  0  0
   57.8531   33.3037   48.2176 H   0  0  0  0  0  0  0  0  0  0  0  0
   57.1442   31.7883   46.3673 H   0  0  0  0  0  0  0  0  0  0  0  0
  1  2  1  0
  2  3  2  0
  3  4  1  0
  4  5  2  0
  5  6  1  0
  6  7  2  0
  7  8  1  0
  8  9  2  0
  8 10  2  0
  8 11  1  0
 11 12  1  0
 12 13  1  0
 12 14  1  0
 14 15  2  0
 15 16  1  0
 16 17  2  0
 17 18  1  0
 18 19  2  0
  7  2  1  0
 19 14  1  0
  1 20  1  0
  1 21  1  0
  1 22  1  0
  3 23  1  0
  4 24  1  0
  5 25  1  0
  6 26  1  0
 11 27  1  0
 12 28  1  6
 13 29  1  0
 13 30  1  0
 13 31  1  0
 15 32  1  0
 16 33  1  0
 17 34  1  0
 18 35  1  0
 19 36  1  0
M  END
>  <UniqueID>  (57) 
54

>  <SMILES>  (57) 
Cc1ccccc1S(=O)(=O)N[C@H](C)c1ccccc1

>  <Energy>  (57) 
35.64625354130937

>  <Genealogy>  (57) 
Cc1ccccc1S(=O)(=O)N[C@H](C)c1ccccc1 (chirality)
Cc1ccccc1S(=O)(=O)N[C@H](C)c1ccccc1 (3D coordinates assigned)
Cc1ccccc1S(=O)(=O)N[C@H](C)c1ccccc1 (optimized conformer: 35.64625354130937 kcal/mol)

>  <smiles>  (57) 
Cc1ccccc1S(=O)(=O)NC(C)c1ccccc1

>  <score_type>  (57) 
oracle

>  <origin>  (57) 
adg

>  <m_score__min__energy>  (57) 
-8.2400000000000002

>  <m_primary>  (57) 
energy

$$$$
57:0
     RDKit          3D

 35 37  0  0  1  0  0  0  0  0999 V2000
   60.0440   35.4940   46.3740 O   0  0  0  0  0  0  0  0  0  0  0  0
   60.2690   34.2590   46.6400 C   0  0  0  0  0  0  0  0  0  0  0  0
   59.2960   33.3310   46.0520 C   0  0  0  0  0  0  0  0  0  0  0  0
   59.2340   31.9940   46.3270 C   0  0  0  0  0  0  0  0  0  0  0  0
   58.2760   31.1410   45.7500 C   0  0  0  0  0  0  0  0  0  0  0  0
   57.3550   31.6810   44.8640 C   0  0  0  0  0  0  0  0  0  0  0  0
   56.3980   30.9090   44.2680 F   0  0  0  0  0  0  0  0  0  0  0  0
   57.3920   33.0330   44.5630 C   0  0  0  0  0  0  0  0  0  0  0  0
   58.3450   33.8370   45.1470 C   0  0  0  0  0  0  0  0  0  0  0  0
   61.3920   33.8530   47.4550 C   0  0  0  0  0  0  0  0  0  0  0  0
   62.5310   33.3860   46.8320 C   0  0  0  0  0  0  0  0  0  0  0  0
   63.6610   33.0610   47.4660 N   0  0  0  0  0  0  0  0  0  0  0  0
   63.6980   33.1920   48.7990 C   0  0  0  0  0  0  0  0  0  0  0  0
   65.0500   32.8080   49.6150 S   0  0  0  0  0  0  0  0  0  0  0  0
   62.6410   33.6340   49.4580 N   0  0  0  0  0  0  0  0  0  0  0  0
   61.4610   33.9750   48.8260 C   0  0  0  0  0  0  0  0  0  0  0  0
   60.5260   34.3370   49.5440 N   0  0  0  0  0  0  0  0  0  0  0  0
   59.6430   33.5820   50.3060 C   0  0  0  0  0  0  0  0  0  0  0  0
   59.0720   32.4580   49.6460 C   0  0  0  0  0  0  0  0  0  0  0  0
   58.1470   31.6740   50.2970 C   0  0  0  0  0  0  0  0  0  0  0  0
   57.7400   31.9470   51.6110 C   0  0  0  0  0  0  0  0  0  0  0  0
   58.3030   33.0550   52.2580 C   0  0  0  0  0  0  0  0  0  0  0  0
   59.2400   33.8570   51.6090 C   0  0  0  0  0  0  0  0  0  0  0  0
   59.9645   31.5665   47.0296 H   0  0  0  0  0  0  0  0  0  0  0  0
   58.2574   30.0690   45.9959 H   0  0  0  0  0  0  0  0  0  0  0  0
   56.6628   33.4623   43.8602 H   0  0  0  0  0  0  0  0  0  0  0  0
   58.3634   34.9083   44.8983 H   0  0  0  0  0  0  0  0  0  0  0  0
   62.5070   33.2736   45.7380 H   0  0  0  0  0  0  0  0  0  0  0  0
   64.5200   32.7080   46.9960 H   0  0  0  0  0  0  0  0  0  0  0  0
   62.7110   33.7230   50.5160 H   0  0  0  0  0  0  0  0  0  0  0  0
   59.3700   32.2157   48.6152 H   0  0  0  0  0  0  0  0  0  0  0  0
   57.7149   30.8092   49.7721 H   0  0  0  0  0  0  0  0  0  0  0  0
   57.0007   31.3101   52.1187 H   0  0  0  0  0  0  0  0  0  0  0  0
   58.0024   33.2943   53.2887 H   0  0  0  0  0  0  0  0  0  0  0  0
   59.6683   34.7223   52.1360 H   0  0  0  0  0  0  0  0  0  0  0  0
  1  2  2  0
  2  3  1  0
  3  4  2  0
  4  5  1  0
  5  6  2  0
  6  7  1  0
  6  8  1  0
  8  9  2  0
  2 10  1  0
 10 11  2  0
 11 12  1  0
 12 13  1  0
 13 14  2  0
 13 15  1  0
 15 16  1  0
 16 17  2  0
 17 18  1  0
 18 19  2  0
 19 20  1  0
 20 21  2  0
 21 22  1  0
 22 23  2  0
  9  3  1  0
 16 10  1  0
 23 18  1  0
  4 24  1  0
  5 25  1  0
  8 26  1  0
  9 27  1  0
 11 28  1  0
 12 29  1  0
 15 30  1  0
 19 31  1  0
 20 32  1  0
 21 33  1  0
 22 34  1  0
 23 35  1  0
M  END
>  <smiles>  (58) 
O=C(c1ccc(F)cc1)c1c[nH]c(=S)[nH]c1=Nc1ccccc1

>  <score_type>  (58) 
oracle

>  <origin>  (58) 
adg

>  <m_score__min__energy>  (58) 
-7.3300000000000001

>  <m_primary>  (58) 
energy

$$$$
58:0
     RDKit          3D

 43 46  0  0  1  0  0  0  0  0999 V2000
   56.0170   31.1950   44.4940 O   0  0  0  0  0  0  0  0  0  0  0  0
   57.2300   31.1560   44.7890 C   0  0  0  0  0  0  0  0  0  0  0  0
   58.0490   30.0070   44.7660 N   0  0  0  0  0  0  0  0  0  0  0  0
   57.9140   28.9460   45.4610 C   0  0  0  0  0  0  0  0  0  0  0  0
   57.0830   27.9180   45.1930 N   0  0  0  0  0  0  0  0  0  0  0  0
   57.2280   27.0090   46.1390 N   0  0  0  0  0  0  0  0  0  0  0  0
   58.1420   27.4270   47.0220 C   0  0  0  0  0  0  0  0  0  0  0  0
   58.6040   28.6790   46.6100 C   0  0  0  0  0  0  0  0  0  0  0  0
   59.6010   29.4170   47.3470 C   0  0  0  0  0  0  0  0  0  0  0  0
   59.9600   29.1730   48.5240 O   0  0  0  0  0  0  0  0  0  0  0  0
   60.2240   30.5220   46.6510 N   0  0  0  0  0  0  0  0  0  0  0  0
   61.2220   31.3250   47.2700 C   0  0  0  0  0  0  0  0  0  0  0  0
   61.4360   32.6030   46.7530 C   0  0  0  0  0  0  0  0  0  0  0  0
   62.3880   33.4360   47.3080 C   0  0  0  0  0  0  0  0  0  0  0  0
   63.1180   32.9810   48.3760 C   0  0  0  0  0  0  0  0  0  0  0  0
   62.9310   31.7100   48.9170 C   0  0  0  0  0  0  0  0  0  0  0  0
   61.9760   30.9080   48.3410 C   0  0  0  0  0  0  0  0  0  0  0  0
   63.6670   31.2460   49.9940 O   0  0  0  0  0  0  0  0  0  0  0  0
   64.5290   32.1380   50.6730 C   0  0  0  0  0  0  0  0  0  0  0  0
   65.1580   33.0740   49.6590 C   0  0  0  0  0  0  0  0  0  0  0  0
   64.0980   33.7530   48.9940 O   0  0  0  0  0  0  0  0  0  0  0  0
   57.8610   32.4100   45.2000 C   0  0  0  0  0  0  0  0  0  0  0  0
   57.7990   32.7190   46.5630 C   0  0  0  0  0  0  0  0  0  0  0  0
   58.3680   33.8840   47.0300 C   0  0  0  0  0  0  0  0  0  0  0  0
   59.0160   34.7840   46.1840 C   0  0  0  0  0  0  0  0  0  0  0  0
   59.0500   34.4350   44.8510 C   0  0  0  0  0  0  0  0  0  0  0  0
   58.4920   33.2790   44.3500 C   0  0  0  0  0  0  0  0  0  0  0  0
   56.4280   27.8460   44.3700 H   0  0  0  0  0  0  0  0  0  0  0  0
   56.7110   26.0990   46.1910 H   0  0  0  0  0  0  0  0  0  0  0  0
   58.4723   26.8796   47.9171 H   0  0  0  0  0  0  0  0  0  0  0  0
   59.9540   30.7590   45.6700 H   0  0  0  0  0  0  0  0  0  0  0  0
   60.8411   32.9506   45.8955 H   0  0  0  0  0  0  0  0  0  0  0  0
   62.5571   34.4440   46.9014 H   0  0  0  0  0  0  0  0  0  0  0  0
   61.8094   29.9004   48.7497 H   0  0  0  0  0  0  0  0  0  0  0  0
   63.9542   32.7208   51.4078 H   0  0  0  0  0  0  0  0  0  0  0  0
   65.3133   31.5736   51.1986 H   0  0  0  0  0  0  0  0  0  0  0  0
   65.8081   33.7998   50.1695 H   0  0  0  0  0  0  0  0  0  0  0  0
   65.7722   32.5125   48.9397 H   0  0  0  0  0  0  0  0  0  0  0  0
   57.2968   32.0330   47.2610 H   0  0  0  0  0  0  0  0  0  0  0  0
   58.3093   34.1115   48.1046 H   0  0  0  0  0  0  0  0  0  0  0  0
   59.4711   35.7134   46.5570 H   0  0  0  0  0  0  0  0  0  0  0  0
   59.5504   35.1172   44.1481 H   0  0  0  0  0  0  0  0  0  0  0  0
   58.5529   33.0556   43.2746 H   0  0  0  0  0  0  0  0  0  0  0  0
  1  2  2  0
  2  3  1  0
  3  4  2  0
  4  5  1  0
  5  6  1  0
  6  7  1  0
  7  8  2  0
  8  9  1  0
  9 10  2  0
  9 11  1  0
 11 12  1  0
 12 13  2  0
 13 14  1  0
 14 15  2  0
 15 16  1  0
 16 17  2  0
 16 18  1  0
 18 19  1  0
 19 20  1  0
 20 21  1  0
  2 22  1  0
 22 23  2  0
 23 24  1  0
 24 25  2  0
 25 26  1  0
 26 27  2  0
  8  4  1  0
 17 12  1  0
 27 22  1  0
 21 15  1  0
  5 28  1  0
  6 29  1  0
  7 30  1  0
 11 31  1  0
 13 32  1  0
 14 33  1  0
 17 34  1  0
 19 35  1  0
 19 36  1  0
 20 37  1  0
 20 38  1  0
 23 39  1  0
 24 40  1  0
 25 41  1  0
 26 42  1  0
 27 43  1  0
M  END
>  <smiles>  (59) 
O=C(N=c1[nH][nH]cc1C(=O)Nc1ccc2c(c1)OCCO2)c1ccccc1

>  <score_type>  (59) 
oracle

>  <origin>  (59) 
adg

>  <m_score__min__energy>  (59) 
-8.2599999999999998

>  <m_primary>  (59) 
energy

$$$$
59:0
     RDKit          3D

 46 48  0  0  1  0  0  0  0  0999 V2000
   55.7320   29.7170   43.6260 C   0  0  0  0  0  0  0  0  0  0  0  0
   56.2880   30.6340   44.4920 O   0  0  0  0  0  0  0  0  0  0  0  0
   57.2130   31.3950   43.7580 C   0  0  0  0  0  0  0  0  0  0  0  0
   57.7710   32.5050   44.6240 C   0  0  0  0  0  0  0  0  0  0  0  0
   60.9720   31.0630   48.8910 N   0  0  0  0  0  0  0  0  0  0  0  0
   60.1600   30.6720   48.0330 C   0  0  0  0  0  0  0  0  0  0  0  0
   59.3380   31.5790   47.4460 N   0  0  0  0  0  0  0  0  0  0  0  0
   58.4490   31.2260   46.5230 C   0  0  0  0  0  0  0  0  0  0  0  0
   57.6900   32.1000   45.9910 N   0  0  0  0  0  0  0  0  0  0  0  0
   62.1400   31.7750   48.7120 C   0  0  0  0  0  0  0  0  0  0  0  0
   63.0960   31.7660   49.7210 C   0  0  0  0  0  0  0  0  0  0  0  0
   64.2730   32.4680   49.4420 C   0  0  0  0  0  0  0  0  0  0  0  0
   64.4680   33.1030   48.2890 N   0  0  0  0  0  0  0  0  0  0  0  0
   63.5490   33.1200   47.2990 C   0  0  0  0  0  0  0  0  0  0  0  0
   62.3650   32.4510   47.5020 C   0  0  0  0  0  0  0  0  0  0  0  0
   60.0780   29.3750   47.6740 C   0  0  0  0  0  0  0  0  0  0  0  0
   60.7370   28.2620   48.0610 C   0  0  0  0  0  0  0  0  0  0  0  0
   60.1810   27.2200   47.3060 C   0  0  0  0  0  0  0  0  0  0  0  0
   59.2220   27.6950   46.4970 N   0  0  0  0  0  0  0  0  0  0  0  0
   58.3940   26.9650   45.5500 C   0  0  0  0  0  0  0  0  0  0  0  0
   58.4740   27.4910   44.1550 C   0  0  0  0  0  0  0  0  0  0  0  0
   56.9650   27.0680   46.0410 C   0  0  0  0  0  0  0  0  0  0  0  0
   59.1520   29.0170   46.7160 C   0  0  0  0  0  0  0  0  0  0  0  0
   58.3430   29.9480   46.1470 N   0  0  0  0  0  0  0  0  0  0  0  0
   55.2463   28.9159   44.2025 H   0  0  0  0  0  0  0  0  0  0  0  0
   54.9850   30.2173   42.9922 H   0  0  0  0  0  0  0  0  0  0  0  0
   56.5210   29.2860   42.9922 H   0  0  0  0  0  0  0  0  0  0  0  0
   58.0352   30.7456   43.4231 H   0  0  0  0  0  0  0  0  0  0  0  0
   56.7079   31.8357   42.8859 H   0  0  0  0  0  0  0  0  0  0  0  0
   58.8208   32.6931   44.3547 H   0  0  0  0  0  0  0  0  0  0  0  0
   57.1932   33.4283   44.4705 H   0  0  0  0  0  0  0  0  0  0  0  0
   59.3930   32.5780   47.7140 H   0  0  0  0  0  0  0  0  0  0  0  0
   62.9374   31.2419   50.6750 H   0  0  0  0  0  0  0  0  0  0  0  0
   65.0664   32.4962   50.2034 H   0  0  0  0  0  0  0  0  0  0  0  0
   63.7424   33.6540   46.3570 H   0  0  0  0  0  0  0  0  0  0  0  0
   61.5945   32.4454   46.7170 H   0  0  0  0  0  0  0  0  0  0  0  0
   61.5396   28.1885   48.8096 H   0  0  0  0  0  0  0  0  0  0  0  0
   60.4868   26.1652   47.3679 H   0  0  0  0  0  0  0  0  0  0  0  0
   58.7549   25.9269   45.5039 H   0  0  0  0  0  0  0  0  0  0  0  0
   58.6393   28.5782   44.1820 H   0  0  0  0  0  0  0  0  0  0  0  0
   59.3087   27.0061   43.6276 H   0  0  0  0  0  0  0  0  0  0  0  0
   57.5329   27.2762   43.6276 H   0  0  0  0  0  0  0  0  0  0  0  0
   56.9544   27.0688   47.1409 H   0  0  0  0  0  0  0  0  0  0  0  0
   56.5159   28.0008   45.6693 H   0  0  0  0  0  0  0  0  0  0  0  0
   56.3868   26.2092   45.6693 H   0  0  0  0  0  0  0  0  0  0  0  0
   57.6450   29.7030   45.4290 H   0  0  0  0  0  0  0  0  0  0  0  0
  1  2  1  0
  2  3  1  0
  3  4  1  0
  4  5  1  0
  5  6  2  0
  6  7  1  0
  7  8  1  0
  8  9  2  0
  9 10  1  0
 10 11  2  0
 11 12  1  0
 12 13  2  0
 13 14  1  0
 14 15  2  0
  8 16  1  0
 16 17  1  0
 17 18  2  0
 18 19  1  0
 19 20  1  0
 20 21  1  0
 20 22  1  0
 19 23  1  0
 23 24  1  0
 24  6  1  0
 15 10  1  0
 23 16  2  0
  1 25  1  0
  1 26  1  0
  1 27  1  0
  3 28  1  0
  3 29  1  0
  4 30  1  0
  4 31  1  0
  7 32  1  0
 11 33  1  0
 12 34  1  0
 14 35  1  0
 15 36  1  0
 17 37  1  0
 18 38  1  0
 20 39  1  0
 21 40  1  0
 21 41  1  0
 21 42  1  0
 22 43  1  0
 22 44  1  0
 22 45  1  0
 24 46  1  0
M  END
>  <smiles>  (60) 
COCCN=c1[nH]c(=Nc2ccncc2)c2ccn(C(C)C)c2[nH]1

>  <score_type>  (60) 
oracle

>  <origin>  (60) 
adg

>  <m_score__min__energy>  (60) 
-6.9000000000000004

>  <m_primary>  (60) 
energy

$$$$
60:0
     RDKit          3D

 32 33  0  0  0  0  0  0  0  0999 V2000
   55.2518   30.8512   43.8253 H   0  0  0  0  0  0  0  0  0  0  0  0
   55.8990   30.0300   44.1670 C   0  0  0  0  0  0  0  0  0  0  0  0
   55.5120   29.0260   44.9800 N   0  0  0  0  0  0  0  0  0  0  0  0
   56.5550   28.2320   45.1700 N   0  0  0  0  0  0  0  0  0  0  0  0
   56.5100   27.0570   45.9920 C   0  0  0  0  0  0  0  0  0  0  0  0
   57.5120   26.7480   46.6920 O   0  0  0  0  0  0  0  0  0  0  0  0
   55.3610   26.2580   46.0150 O   0  0  0  0  0  0  0  0  0  0  0  0
   55.3630   24.8980   45.6010 C   0  0  0  0  0  0  0  0  0  0  0  0
   55.3640   24.2452   46.4864 H   0  0  0  0  0  0  0  0  0  0  0  0
   54.4651   24.6969   44.9982 H   0  0  0  0  0  0  0  0  0  0  0  0
   56.2614   24.6996   44.9982 H   0  0  0  0  0  0  0  0  0  0  0  0
   57.6100   28.7180   44.4850 C   0  0  0  0  0  0  0  0  0  0  0  0
   58.7880   28.1600   44.4790 N   0  0  0  0  0  0  0  0  0  0  0  0
   59.9020   28.4010   45.4060 C   0  0  2  0  0  0  0  0  0  0  0  0
   60.0738   27.5110   46.0291 H   0  0  0  0  0  0  0  0  0  0  0  0
   59.5560   29.4910   46.4130 C   0  0  0  0  0  0  0  0  0  0  0  0
   59.2680   29.1110   47.7370 C   0  0  0  0  0  0  0  0  0  0  0  0
   59.2967   28.0474   48.0161 H   0  0  0  0  0  0  0  0  0  0  0  0
   58.9460   30.0700   48.7010 C   0  0  0  0  0  0  0  0  0  0  0  0
   58.7190   29.7586   49.7313 H   0  0  0  0  0  0  0  0  0  0  0  0
   58.9120   31.4230   48.3580 C   0  0  0  0  0  0  0  0  0  0  0  0
   58.6554   32.1770   49.1167 H   0  0  0  0  0  0  0  0  0  0  0  0
   59.2040   31.8180   47.0510 C   0  0  0  0  0  0  0  0  0  0  0  0
   59.1797   32.8845   46.7828 H   0  0  0  0  0  0  0  0  0  0  0  0
   59.5270   30.8640   46.0820 C   0  0  0  0  0  0  0  0  0  0  0  0
   59.7600   31.1841   45.0557 H   0  0  0  0  0  0  0  0  0  0  0  0
   61.2150   28.5940   44.6320 C   0  0  0  0  0  0  0  0  0  0  0  0
   62.0453   28.7160   45.3431 H   0  0  0  0  0  0  0  0  0  0  0  0
   61.4005   27.7135   43.9993 H   0  0  0  0  0  0  0  0  0  0  0  0
   61.1393   29.4907   43.9993 H   0  0  0  0  0  0  0  0  0  0  0  0
   57.2290   29.8740   43.8270 C   0  0  0  0  0  0  0  0  0  0  0  0
   57.8432   30.5197   43.1821 H   0  0  0  0  0  0  0  0  0  0  0  0
  1  2  1  0
  2  3  1  0
  3  4  1  0
  4  5  1  0
  5  6  2  0
  5  7  1  0
  7  8  1  0
  8  9  1  0
  8 10  1  0
  8 11  1  0
  4 12  1  0
 12 13  2  0
 13 14  1  0
 14 15  1  1
 14 16  1  0
 16 17  2  0
 17 18  1  0
 17 19  1  0
 19 20  1  0
 19 21  2  0
 21 22  1  0
 21 23  1  0
 23 24  1  0
 23 25  2  0
 25 26  1  0
 14 27  1  0
 27 28  1  0
 27 29  1  0
 27 30  1  0
 12 31  1  0
 31 32  1  0
 31  2  2  0
 25 16  1  0
M  CHG  1   3  -1
M  END
>  <UniqueID>  (61) 
55

>  <SMILES>  (61) 
COC(=O)n1[n-]cc/c1=N\[C@@H](C)c1ccccc1

>  <Energy>  (61) 
64.24856329864107

>  <Genealogy>  (61) 
COC(=O)n1[n-]ccc1=NC(C)c1ccccc1 (protonated)
COC(=O)n1[n-]ccc1=N[C@@H](C)c1ccccc1 (chirality)
COC(=O)n1[n-]cc/c1=N\[C@@H](C)c1ccccc1 (cis-trans isomerization)
COC(=O)n1[n-]cc/c1=N\[C@@H](C)c1ccccc1 (3D coordinates assigned)
COC(=O)n1[n-]cc/c1=N\[C@@H](C)c1ccccc1 (optimized conformer: 64.24856329864107 kcal/mol)

>  <smiles>  (61) 
COC(=O)n1[nH]ccc1=NC(C)c1ccccc1

>  <score_type>  (61) 
oracle

>  <origin>  (61) 
adg

>  <m_score__min__energy>  (61) 
-8.0999999999999996

>  <m_primary>  (61) 
energy

$$$$
61:0
     RDKit          3D

 28 30  0  0  0  0  0  0  0  0999 V2000
   55.1970   24.9580   46.3490 O   0  0  0  0  0  0  0  0  0  0  0  0
   56.0560   25.7920   45.9610 C   0  0  0  0  0  0  0  0  0  0  0  0
   57.3740   25.3860   45.7280 C   0  0  0  0  0  0  0  0  0  0  0  0
   58.3160   26.3230   45.2980 C   0  0  0  0  0  0  0  0  0  0  0  0
   57.9340   27.6560   45.1050 C   0  0  0  0  0  0  0  0  0  0  0  0
   58.8520   28.6230   44.6740 C   0  0  0  0  0  0  0  0  0  0  0  0
   58.4420   29.9470   44.4890 C   0  0  0  0  0  0  0  0  0  0  0  0
   57.1060   30.3190   44.7300 C   0  0  0  0  0  0  0  0  0  0  0  0
   56.6440   31.6640   44.5450 N   0  0  0  0  0  0  0  0  0  0  0  0
   57.5660   33.0940   44.8760 S   0  0  0  0  0  0  0  0  0  0  0  0
   56.6510   34.2870   44.8720 O   0  0  0  0  0  0  0  0  0  0  0  0
   58.6080   33.2680   43.8070 O   0  0  0  0  0  0  0  0  0  0  0  0
   58.3640   32.9450   46.4300 C   0  0  0  0  0  0  0  0  0  0  0  0
   58.5030   31.7740   47.1580 C   0  0  0  0  0  0  0  0  0  0  0  0
   59.1700   31.9640   48.3740 C   0  0  0  0  0  0  0  0  0  0  0  0
   59.5520   33.2820   48.5990 C   0  0  0  0  0  0  0  0  0  0  0  0
   59.0600   34.2110   47.2860 S   0  0  0  0  0  0  0  0  0  0  0  0
   56.1900   29.3510   45.1630 C   0  0  0  0  0  0  0  0  0  0  0  0
   56.5940   28.0250   45.3510 C   0  0  0  0  0  0  0  0  0  0  0  0
   55.6980   27.0900   45.7690 N   0  0  0  0  0  0  0  0  0  0  0  0
   57.6663   24.3368   45.8823 H   0  0  0  0  0  0  0  0  0  0  0  0
   59.3553   26.0146   45.1115 H   0  0  0  0  0  0  0  0  0  0  0  0
   59.8973   28.3400   44.4808 H   0  0  0  0  0  0  0  0  0  0  0  0
   59.1678   30.7023   44.1532 H   0  0  0  0  0  0  0  0  0  0  0  0
   58.1286   30.7978   46.8162 H   0  0  0  0  0  0  0  0  0  0  0  0
   59.3726   31.1485   49.0838 H   0  0  0  0  0  0  0  0  0  0  0  0
   60.0858   33.6542   49.4859 H   0  0  0  0  0  0  0  0  0  0  0  0
   55.1453   29.6360   45.3565 H   0  0  0  0  0  0  0  0  0  0  0  0
  1  2  2  0
  2  3  1  0
  3  4  2  0
  4  5  1  0
  5  6  2  0
  6  7  1  0
  7  8  2  0
  8  9  1  0
  9 10  1  0
 10 11  2  0
 10 12  2  0
 10 13  1  0
 13 14  2  0
 14 15  1  0
 15 16  2  0
 16 17  1  0
  8 18  1  0
 18 19  2  0
 19 20  1  0
 20  2  1  0
 19  5  1  0
 17 13  1  0
  3 21  1  0
  4 22  1  0
  6 23  1  0
  7 24  1  0
 14 25  1  0
 15 26  1  0
 16 27  1  0
 18 28  1  0
M  CHG  2   9  -1  20  -1
M  END
>  <UniqueID>  (62) 
56

>  <SMILES>  (62) 
O=c1ccc2ccc([N-]S(=O)(=O)c3cccs3)cc2[n-]1

>  <Energy>  (62) 
63.12067855007395

>  <Genealogy>  (62) 
O=c1ccc2ccc([N-]S(=O)(=O)c3cccs3)cc2[n-]1 (protonated)
O=c1ccc2ccc([N-]S(=O)(=O)c3cccs3)cc2[n-]1 (3D coordinates assigned)
O=c1ccc2ccc([N-]S(=O)(=O)c3cccs3)cc2[n-]1 (optimized conformer: 63.12067855007395 kcal/mol)

>  <smiles>  (62) 
O=c1ccc2ccc(NS(=O)(=O)c3cccs3)cc2[nH]1

>  <score_type>  (62) 
oracle

>  <origin>  (62) 
adg

>  <m_score__min__energy>  (62) 
-10.789999999999999

>  <m_primary>  (62) 
energy

$$$$
62:0
     RDKit          3D

 52 55  0  0  0  0  0  0  0  0999 V2000
   58.0830   32.2990   41.7830 C   0  0  0  0  0  0  0  0  0  0  0  0
   58.3100   31.8860   43.1270 O   0  0  0  0  0  0  0  0  0  0  0  0
   57.6750   30.7940   43.7390 C   0  0  0  0  0  0  0  0  0  0  0  0
   56.2960   30.5530   43.6020 C   0  0  0  0  0  0  0  0  0  0  0  0
   55.7080   29.4530   44.2290 C   0  0  0  0  0  0  0  0  0  0  0  0
   56.4810   28.5820   45.0000 C   0  0  0  0  0  0  0  0  0  0  0  0
   55.8980   27.5390   45.5810 O   0  0  0  0  0  0  0  0  0  0  0  0
   56.5660   26.6650   46.3230 C   0  0  0  0  0  0  0  0  0  0  0  0
   55.9550   25.6970   46.8450 O   0  0  0  0  0  0  0  0  0  0  0  0
   57.9390   26.8130   46.5260 C   0  0  0  0  0  0  0  0  0  0  0  0
   58.6130   27.8990   45.9470 C   0  0  0  0  0  0  0  0  0  0  0  0
   60.1050   28.0500   46.1960 C   0  0  0  0  0  0  0  0  0  0  0  0
   60.3940   28.8080   47.4410 N   0  0  0  0  0  0  0  0  0  0  0  0
   59.1300   29.0550   48.1820 C   0  0  0  0  0  0  0  0  0  0  0  0
   59.2620   30.2470   49.1420 C   0  0  0  0  0  0  0  0  0  0  0  0
   59.5640   31.5130   48.4260 N   0  0  0  0  0  0  0  0  0  0  0  0
   58.3520   32.3440   48.2640 C   0  0  0  0  0  0  0  0  0  0  0  0
   58.4880   33.2740   47.0860 C   0  0  0  0  0  0  0  0  0  0  0  0
   57.5950   33.1910   46.0040 C   0  0  0  0  0  0  0  0  0  0  0  0
   57.7450   34.0370   44.9010 C   0  0  0  0  0  0  0  0  0  0  0  0
   58.7870   34.9690   44.8690 C   0  0  0  0  0  0  0  0  0  0  0  0
   59.6830   35.0520   45.9380 C   0  0  0  0  0  0  0  0  0  0  0  0
   59.5380   34.2060   47.0410 C   0  0  0  0  0  0  0  0  0  0  0  0
   60.2470   31.2970   47.1250 C   0  0  0  0  0  0  0  0  0  0  0  0
   61.1560   30.0600   47.1660 C   0  0  0  0  0  0  0  0  0  0  0  0
   57.8700   28.8100   45.1540 C   0  0  0  0  0  0  0  0  0  0  0  0
   58.4520   29.9220   44.5100 C   0  0  0  0  0  0  0  0  0  0  0  0
   57.5532   33.2630   41.7802 H   0  0  0  0  0  0  0  0  0  0  0  0
   59.0473   32.4091   41.2654 H   0  0  0  0  0  0  0  0  0  0  0  0
   57.4732   31.5439   41.2654 H   0  0  0  0  0  0  0  0  0  0  0  0
   55.6783   31.2341   42.9983 H   0  0  0  0  0  0  0  0  0  0  0  0
   54.6291   29.2711   44.1151 H   0  0  0  0  0  0  0  0  0  0  0  0
   58.4897   26.0823   47.1366 H   0  0  0  0  0  0  0  0  0  0  0  0
   60.5531   27.0488   46.2791 H   0  0  0  0  0  0  0  0  0  0  0  0
   60.5323   28.6120   45.3524 H   0  0  0  0  0  0  0  0  0  0  0  0
   60.9950   28.2140   48.0600 H   0  0  0  0  0  0  0  0  0  0  0  0
   58.3277   29.2655   47.4595 H   0  0  0  0  0  0  0  0  0  0  0  0
   58.8980   28.1586   48.7758 H   0  0  0  0  0  0  0  0  0  0  0  0
   58.3158   30.3670   49.6901 H   0  0  0  0  0  0  0  0  0  0  0  0
   60.0974   30.0385   49.8266 H   0  0  0  0  0  0  0  0  0  0  0  0
   57.4841   31.6871   48.1053 H   0  0  0  0  0  0  0  0  0  0  0  0
   58.2172   32.9480   49.1734 H   0  0  0  0  0  0  0  0  0  0  0  0
   56.7752   32.4579   46.0250 H   0  0  0  0  0  0  0  0  0  0  0  0
   57.0424   33.9694   44.0573 H   0  0  0  0  0  0  0  0  0  0  0  0
   58.9013   35.6367   44.0024 H   0  0  0  0  0  0  0  0  0  0  0  0
   60.5035   35.7841   45.9114 H   0  0  0  0  0  0  0  0  0  0  0  0
   60.2493   34.2703   47.8776 H   0  0  0  0  0  0  0  0  0  0  0  0
   59.4878   31.1570   46.3415 H   0  0  0  0  0  0  0  0  0  0  0  0
   60.8711   32.1774   46.9121 H   0  0  0  0  0  0  0  0  0  0  0  0
   61.6620   29.9602   46.1944 H   0  0  0  0  0  0  0  0  0  0  0  0
   61.8796   30.2004   47.9825 H   0  0  0  0  0  0  0  0  0  0  0  0
   59.5313   30.1062   44.6153 H   0  0  0  0  0  0  0  0  0  0  0  0
  1  2  1  0
  2  3  1  0
  3  4  2  0
  4  5  1  0
  5  6  2  0
  6  7  1  0
  7  8  1  0
  8  9  2  0
  8 10  1  0
 10 11  2  0
 11 12  1  0
 12 13  1  0
 13 14  1  0
 14 15  1  0
 15 16  1  0
 16 17  1  0
 17 18  1  0
 18 19  2  0
 19 20  1  0
 20 21  2  0
 21 22  1  0
 22 23  2  0
 16 24  1  0
 24 25  1  0
 11 26  1  0
 26 27  2  0
 27  3  1  0
 26  6  1  0
 25 13  1  0
 23 18  1  0
  1 28  1  0
  1 29  1  0
  1 30  1  0
  4 31  1  0
  5 32  1  0
 10 33  1  0
 12 34  1  0
 12 35  1  0
 13 36  1  0
 14 37  1  0
 14 38  1  0
 15 39  1  0
 15 40  1  0
 17 41  1  0
 17 42  1  0
 19 43  1  0
 20 44  1  0
 21 45  1  0
 22 46  1  0
 23 47  1  0
 24 48  1  0
 24 49  1  0
 25 50  1  0
 25 51  1  0
 27 52  1  0
M  CHG  1  13   1
M  END
>  <UniqueID>  (63) 
57

>  <SMILES>  (63) 
COc1ccc2oc(=O)cc(C[NH+]3CCN(Cc4ccccc4)CC3)c2c1

>  <Energy>  (63) 
75.18102195507822

>  <Genealogy>  (63) 
COc1ccc2oc(=O)cc(C[NH+]3CCN(Cc4ccccc4)CC3)c2c1 (protonated)
COc1ccc2oc(=O)cc(C[NH+]3CCN(Cc4ccccc4)CC3)c2c1 (3D coordinates assigned)
COc1ccc2oc(=O)cc(C[NH+]3CCN(Cc4ccccc4)CC3)c2c1 (nonaromatic ring conformer: 75.18102195507822 kcal/mol)

>  <smiles>  (63) 
COc1ccc2oc(=O)cc(CN3CCN(Cc4ccccc4)CC3)c2c1

>  <score_type>  (63) 
oracle

>  <origin>  (63) 
adg

>  <m_score__min__energy>  (63) 
-7.2400000000000002

>  <m_primary>  (63) 
energy

$$$$
63:0
     RDKit          3D

 37 39  0  0  0  0  0  0  0  0999 V2000
   57.9080   29.3110   43.7550 O   0  0  0  0  0  0  0  0  0  0  0  0
   57.1380   29.8090   44.6210 C   0  0  0  0  0  0  0  0  0  0  0  0
   56.7470   31.1840   44.5420 N   0  0  0  0  0  0  0  0  0  0  0  0
   57.4130   32.3000   45.1520 C   0  0  0  0  0  0  0  0  0  0  0  0
   57.7690   32.3050   46.5140 C   0  0  0  0  0  0  0  0  0  0  0  0
   58.4390   33.4050   47.0610 C   0  0  0  0  0  0  0  0  0  0  0  0
   58.7700   34.4970   46.2550 C   0  0  0  0  0  0  0  0  0  0  0  0
   59.4210   35.5610   46.7880 F   0  0  0  0  0  0  0  0  0  0  0  0
   58.4410   34.4870   44.8970 C   0  0  0  0  0  0  0  0  0  0  0  0
   57.7720   33.3900   44.3470 C   0  0  0  0  0  0  0  0  0  0  0  0
   56.6550   29.0090   45.7080 N   0  0  0  0  0  0  0  0  0  0  0  0
   57.1040   27.6650   45.9680 C   0  0  0  0  0  0  0  0  0  0  0  0
   56.2910   26.5700   45.6200 C   0  0  0  0  0  0  0  0  0  0  0  0
   56.7100   25.2640   45.8850 C   0  0  0  0  0  0  0  0  0  0  0  0
   57.9420   25.0330   46.4950 C   0  0  0  0  0  0  0  0  0  0  0  0
   58.7670   26.1080   46.8320 C   0  0  0  0  0  0  0  0  0  0  0  0
   58.3660   27.4260   46.5590 C   0  0  0  0  0  0  0  0  0  0  0  0
   59.2650   28.5320   46.9400 C   0  0  0  0  0  0  0  0  0  0  0  0
   60.1860   29.0480   46.0150 C   0  0  0  0  0  0  0  0  0  0  0  0
   61.0460   30.0870   46.3840 C   0  0  0  0  0  0  0  0  0  0  0  0
   60.9980   30.6080   47.6810 C   0  0  0  0  0  0  0  0  0  0  0  0
   60.0920   30.0900   48.6100 C   0  0  0  0  0  0  0  0  0  0  0  0
   59.2300   29.0520   48.2430 C   0  0  0  0  0  0  0  0  0  0  0  0
   57.5200   31.4424   47.1496 H   0  0  0  0  0  0  0  0  0  0  0  0
   58.7057   33.4099   48.1282 H   0  0  0  0  0  0  0  0  0  0  0  0
   58.7087   35.3431   44.2603 H   0  0  0  0  0  0  0  0  0  0  0  0
   57.5255   33.3819   43.2750 H   0  0  0  0  0  0  0  0  0  0  0  0
   55.8870   29.4090   46.2900 H   0  0  0  0  0  0  0  0  0  0  0  0
   55.3187   26.7439   45.1359 H   0  0  0  0  0  0  0  0  0  0  0  0
   56.0658   24.4153   45.6115 H   0  0  0  0  0  0  0  0  0  0  0  0
   58.2643   24.0037   46.7109 H   0  0  0  0  0  0  0  0  0  0  0  0
   59.7377   25.9213   47.3146 H   0  0  0  0  0  0  0  0  0  0  0  0
   60.2314   28.6339   44.9969 H   0  0  0  0  0  0  0  0  0  0  0  0
   61.7606   30.4947   45.6538 H   0  0  0  0  0  0  0  0  0  0  0  0
   61.6740   31.4262   47.9700 H   0  0  0  0  0  0  0  0  0  0  0  0
   60.0568   30.4989   49.6306 H   0  0  0  0  0  0  0  0  0  0  0  0
   58.5220   28.6416   48.9781 H   0  0  0  0  0  0  0  0  0  0  0  0
  1  2  2  0
  2  3  1  0
  3  4  1  0
  4  5  2  0
  5  6  1  0
  6  7  2  0
  7  8  1  0
  7  9  1  0
  9 10  2  0
  2 11  1  0
 11 12  1  0
 12 13  2  0
 13 14  1  0
 14 15  2  0
 15 16  1  0
 16 17  2  0
 17 18  1  0
 18 19  2  0
 19 20  1  0
 20 21  2  0
 21 22  1  0
 22 23  2  0
 10  4  1  0
 17 12  1  0
 23 18  1  0
  5 24  1  0
  6 25  1  0
  9 26  1  0
 10 27  1  0
 11 28  1  0
 13 29  1  0
 14 30  1  0
 15 31  1  0
 16 32  1  0
 19 33  1  0
 20 34  1  0
 21 35  1  0
 22 36  1  0
 23 37  1  0
M  CHG  1   3  -1
M  END
>  <UniqueID>  (64) 
58

>  <SMILES>  (64) 
O=C([N-]c1ccc(F)cc1)Nc1ccccc1-c1ccccc1

>  <Energy>  (64) 
55.19857039065439

>  <Genealogy>  (64) 
O=C([N-]c1ccc(F)cc1)Nc1ccccc1-c1ccccc1 (protonated)
O=C([N-]c1ccc(F)cc1)Nc1ccccc1-c1ccccc1 (3D coordinates assigned)
O=C([N-]c1ccc(F)cc1)Nc1ccccc1-c1ccccc1 (optimized conformer: 55.19857039065439 kcal/mol)

>  <smiles>  (64) 
O=C(Nc1ccc(F)cc1)Nc1ccccc1-c1ccccc1

>  <score_type>  (64) 
oracle

>  <origin>  (64) 
adg

>  <m_score__min__energy>  (64) 
-8.9399999999999995

>  <m_primary>  (64) 
energy

$$$$
64:0
     RDKit          3D

 42 44  0  0  0  0  0  0  0  0999 V2000
   57.2470   25.3190   46.9140 O   0  0  0  0  0  0  0  0  0  0  0  0
   56.6580   26.1750   45.8260 S   0  0  0  0  0  0  0  0  0  0  0  0
   55.1690   26.2370   46.0050 O   0  0  0  0  0  0  0  0  0  0  0  0
   57.0220   25.4630   44.2850 N   0  0  0  0  0  0  0  0  0  0  0  0
   57.2590   24.0570   44.0850 C   0  0  0  0  0  0  0  0  0  0  0  0
   56.4980   23.2950   43.1770 C   0  0  0  0  0  0  0  0  0  0  0  0
   56.7520   21.9290   43.0160 C   0  0  0  0  0  0  0  0  0  0  0  0
   57.7680   21.3120   43.7510 C   0  0  0  0  0  0  0  0  0  0  0  0
   58.5330   22.0610   44.6470 C   0  0  0  0  0  0  0  0  0  0  0  0
   58.2820   23.4260   44.8130 C   0  0  0  0  0  0  0  0  0  0  0  0
   57.3060   27.8100   45.9010 C   0  0  0  0  0  0  0  0  0  0  0  0
   56.8570   28.7810   44.9980 C   0  0  0  0  0  0  0  0  0  0  0  0
   57.3810   30.0760   45.0390 C   0  0  0  0  0  0  0  0  0  0  0  0
   58.3590   30.4140   45.9850 C   0  0  0  0  0  0  0  0  0  0  0  0
   58.8970   31.7460   46.0210 N   0  0  0  0  0  0  0  0  0  0  0  0
   60.2790   31.9760   46.4540 C   0  0  0  0  0  0  0  0  0  0  0  0
   60.4190   33.3260   47.1700 C   0  0  0  0  0  0  0  0  0  0  0  0
   60.0840   34.5100   46.2480 C   0  0  0  0  0  0  0  0  0  0  0  0
   58.5960   34.5560   45.8890 C   0  0  0  0  0  0  0  0  0  0  0  0
   58.0990   33.0150   45.1500 S   0  0  0  0  0  0  0  0  0  0  0  0
   58.5140   32.9770   43.7060 O   0  0  0  0  0  0  0  0  0  0  0  0
   56.6060   32.8790   45.2520 O   0  0  0  0  0  0  0  0  0  0  0  0
   58.7960   29.4440   46.9010 C   0  0  0  0  0  0  0  0  0  0  0  0
   58.2730   28.1480   46.8580 C   0  0  0  0  0  0  0  0  0  0  0  0
   57.1460   26.1170   43.4810 H   0  0  0  0  0  0  0  0  0  0  0  0
   55.7005   23.7763   42.5920 H   0  0  0  0  0  0  0  0  0  0  0  0
   56.1505   21.3388   42.3090 H   0  0  0  0  0  0  0  0  0  0  0  0
   57.9647   20.2373   43.6237 H   0  0  0  0  0  0  0  0  0  0  0  0
   59.3347   21.5761   45.2233 H   0  0  0  0  0  0  0  0  0  0  0  0
   58.8900   24.0108   45.5190 H   0  0  0  0  0  0  0  0  0  0  0  0
   56.0891   28.5238   44.2536 H   0  0  0  0  0  0  0  0  0  0  0  0
   57.0244   30.8336   44.3257 H   0  0  0  0  0  0  0  0  0  0  0  0
   60.5777   31.1720   47.1427 H   0  0  0  0  0  0  0  0  0  0  0  0
   60.9258   31.9850   45.5643 H   0  0  0  0  0  0  0  0  0  0  0  0
   59.7347   33.3429   48.0311 H   0  0  0  0  0  0  0  0  0  0  0  0
   61.4664   33.4321   47.4888 H   0  0  0  0  0  0  0  0  0  0  0  0
   60.3549   35.4456   46.7592 H   0  0  0  0  0  0  0  0  0  0  0  0
   60.6542   34.3858   45.3156 H   0  0  0  0  0  0  0  0  0  0  0  0
   58.0065   34.7291   46.8014 H   0  0  0  0  0  0  0  0  0  0  0  0
   58.4230   35.3722   45.1721 H   0  0  0  0  0  0  0  0  0  0  0  0
   59.5528   29.7046   47.6555 H   0  0  0  0  0  0  0  0  0  0  0  0
   58.6212   27.3917   47.5769 H   0  0  0  0  0  0  0  0  0  0  0  0
  1  2  2  0
  2  3  2  0
  2  4  1  0
  4  5  1  0
  5  6  2  0
  6  7  1  0
  7  8  2  0
  8  9  1  0
  9 10  2  0
  2 11  1  0
 11 12  2  0
 12 13  1  0
 13 14  2  0
 14 15  1  0
 15 16  1  0
 16 17  1  0
 17 18  1  0
 18 19  1  0
 19 20  1  0
 20 21  2  0
 20 22  2  0
 14 23  1  0
 23 24  2  0
 10  5  1  0
 24 11  1  0
 20 15  1  0
  4 25  1  0
  6 26  1  0
  7 27  1  0
  8 28  1  0
  9 29  1  0
 10 30  1  0
 12 31  1  0
 13 32  1  0
 16 33  1  0
 16 34  1  0
 17 35  1  0
 17 36  1  0
 18 37  1  0
 18 38  1  0
 19 39  1  0
 19 40  1  0
 23 41  1  0
 24 42  1  0
M  END
>  <UniqueID>  (65) 
59

>  <SMILES>  (65) 
O=S(=O)(Nc1ccccc1)c1ccc(N2CCCCS2(=O)=O)cc1

>  <Energy>  (65) 
46.30058780117314

>  <Genealogy>  (65) 
O=S(=O)(Nc1ccccc1)c1ccc(N2CCCCS2(=O)=O)cc1 (3D coordinates assigned)
O=S(=O)(Nc1ccccc1)c1ccc(N2CCCCS2(=O)=O)cc1 (nonaromatic ring conformer: 46.30058780117314 kcal/mol)

>  <smiles>  (65) 
O=S(=O)(Nc1ccccc1)c1ccc(N2CCCCS2(=O)=O)cc1

>  <score_type>  (65) 
oracle

>  <origin>  (65) 
adg

>  <m_score__min__energy>  (65) 
-9.0399999999999991

>  <m_primary>  (65) 
energy

$$$$
65:0
     RDKit          3D

 58 61  0  0  1  0  0  0  0  0999 V2000
   66.8530   32.9940   50.2270 C   0  0  0  0  0  0  0  0  0  0  0  0
   65.4370   33.1840   50.1450 N   0  0  0  0  0  0  0  0  0  0  0  0
   64.8430   33.8640   51.2550 C   0  0  0  0  0  0  0  0  0  0  0  0
   64.7000   32.0610   49.6490 C   0  0  0  0  0  0  0  0  0  0  0  0
   63.4280   32.5290   49.0390 C   0  0  0  0  0  0  0  0  0  0  0  0
   62.2640   32.3790   49.8010 C   0  0  0  0  0  0  0  0  0  0  0  0
   61.0690   32.8050   49.2570 C   0  0  0  0  0  0  0  0  0  0  0  0
   61.0190   33.3730   47.9790 C   0  0  0  0  0  0  0  0  0  0  0  0
   59.7290   33.7720   47.5310 N   0  0  0  0  0  0  0  0  0  0  0  0
   59.1710   33.3470   46.4520 C   0  0  0  0  0  0  0  0  0  0  0  0
   59.1370   34.1840   45.3430 C   0  0  0  0  0  0  0  0  0  0  0  0
   58.5230   33.6670   44.2120 C   0  0  0  0  0  0  0  0  0  0  0  0
   57.9750   32.3810   44.2070 C   0  0  0  0  0  0  0  0  0  0  0  0
   58.0460   31.6080   45.3440 C   0  0  0  0  0  0  0  0  0  0  0  0
   57.4950   30.2600   45.4000 C   0  0  0  0  0  0  0  0  0  0  0  0
   58.0610   29.0940   45.8680 C   0  0  0  0  0  0  0  0  0  0  0  0
   57.1380   28.0840   45.7060 C   0  0  0  0  0  0  0  0  0  0  0  0
   57.2810   26.6630   46.0570 C   0  0  0  0  0  0  0  0  0  0  0  0
   56.3190   26.1440   46.6670 O   0  0  0  0  0  0  0  0  0  0  0  0
   58.4410   25.9590   45.7140 N   0  0  0  0  0  0  0  0  0  0  0  0
   58.6790   24.5570   46.0140 C   0  0  0  0  0  0  0  0  0  0  0  0
   58.0740   23.6430   45.0430 C   0  0  0  0  0  0  0  0  0  0  0  0
   58.7270   22.4540   44.7570 C   0  0  0  0  0  0  0  0  0  0  0  0
   58.1910   21.5530   43.8380 C   0  0  0  0  0  0  0  0  0  0  0  0
   56.9990   21.8110   43.1850 C   0  0  0  0  0  0  0  0  0  0  0  0
   56.3540   22.9880   43.4690 C   0  0  0  0  0  0  0  0  0  0  0  0
   55.1780   23.2810   42.8490 F   0  0  0  0  0  0  0  0  0  0  0  0
   56.8900   23.8670   44.3750 C   0  0  0  0  0  0  0  0  0  0  0  0
   56.0470   28.6440   45.1520 N   0  0  0  0  0  0  0  0  0  0  0  0
   56.2620   29.9350   44.9710 N   0  0  0  0  0  0  0  0  0  0  0  0
   58.6360   32.1130   46.4190 N   0  0  0  0  0  0  0  0  0  0  0  0
   62.1630   33.5230   47.2240 C   0  0  0  0  0  0  0  0  0  0  0  0
   63.3640   33.0920   47.7750 C   0  0  0  0  0  0  0  0  0  0  0  0
   67.1569   32.9532   51.2834 H   0  0  0  0  0  0  0  0  0  0  0  0
   67.1258   32.0512   49.7303 H   0  0  0  0  0  0  0  0  0  0  0  0
   67.3647   33.8315   49.7303 H   0  0  0  0  0  0  0  0  0  0  0  0
   65.2201   33.4323   52.1939 H   0  0  0  0  0  0  0  0  0  0  0  0
   65.1026   34.9321   51.2122 H   0  0  0  0  0  0  0  0  0  0  0  0
   63.7497   33.7503   51.2122 H   0  0  0  0  0  0  0  0  0  0  0  0
   65.2988   31.5366   48.8898 H   0  0  0  0  0  0  0  0  0  0  0  0
   64.4761   31.3755   50.4796 H   0  0  0  0  0  0  0  0  0  0  0  0
   62.3003   31.9337   50.8062 H   0  0  0  0  0  0  0  0  0  0  0  0
   60.1410   32.6962   49.8375 H   0  0  0  0  0  0  0  0  0  0  0  0
   59.5706   35.1948   45.3612 H   0  0  0  0  0  0  0  0  0  0  0  0
   58.4661   34.2809   43.3010 H   0  0  0  0  0  0  0  0  0  0  0  0
   57.4903   31.9893   43.3006 H   0  0  0  0  0  0  0  0  0  0  0  0
   59.0694   28.9885   46.2946 H   0  0  0  0  0  0  0  0  0  0  0  0
   59.1930   26.5060   45.1970 H   0  0  0  0  0  0  0  0  0  0  0  0
   59.7650   24.3828   46.0269 H   0  0  0  0  0  0  0  0  0  0  0  0
   58.2127   24.3501   46.9886 H   0  0  0  0  0  0  0  0  0  0  0  0
   59.6768   22.2193   45.2598 H   0  0  0  0  0  0  0  0  0  0  0  0
   58.7278   20.6162   43.6275 H   0  0  0  0  0  0  0  0  0  0  0  0
   56.5818   21.0954   42.4613 H   0  0  0  0  0  0  0  0  0  0  0  0
   56.3456   24.8007   44.5793 H   0  0  0  0  0  0  0  0  0  0  0  0
   55.1450   28.1880   44.8830 H   0  0  0  0  0  0  0  0  0  0  0  0
   58.7040   31.5500   47.2940 H   0  0  0  0  0  0  0  0  0  0  0  0
   62.1263   33.9689   46.2191 H   0  0  0  0  0  0  0  0  0  0  0  0
   64.2897   33.2010   47.1909 H   0  0  0  0  0  0  0  0  0  0  0  0
  1  2  1  0
  2  3  1  0
  2  4  1  0
  4  5  1  0
  5  6  2  0
  6  7  1  0
  7  8  2  0
  8  9  1  0
  9 10  2  0
 10 11  1  0
 11 12  2  0
 12 13  1  0
 13 14  2  0
 14 15  1  0
 15 16  1  0
 16 17  2  0
 17 18  1  0
 18 19  2  0
 18 20  1  0
 20 21  1  0
 21 22  1  0
 22 23  2  0
 23 24  1  0
 24 25  2  0
 25 26  1  0
 26 27  1  0
 26 28  2  0
 17 29  1  0
 29 30  1  0
 14 31  1  0
  8 32  1  0
 32 33  2  0
 33  5  1  0
 31 10  1  0
 30 15  2  0
 28 22  1  0
  1 34  1  0
  1 35  1  0
  1 36  1  0
  3 37  1  0
  3 38  1  0
  3 39  1  0
  4 40  1  0
  4 41  1  0
  6 42  1  0
  7 43  1  0
 11 44  1  0
 12 45  1  0
 13 46  1  0
 16 47  1  0
 20 48  1  0
 21 49  1  0
 21 50  1  0
 23 51  1  0
 24 52  1  0
 25 53  1  0
 28 54  1  0
 29 55  1  0
 31 56  1  0
 32 57  1  0
 33 58  1  0
M  END
>  <smiles>  (66) 
CN(C)Cc1ccc(N=c2cccc(-c3cc(C(=O)NCc4cccc(F)c4)[nH]n3)[nH]2)cc1

>  <score_type>  (66) 
oracle

>  <origin>  (66) 
adg

>  <m_score__min__energy>  (66) 
-10.31

>  <m_primary>  (66) 
energy

$$$$
66:0
     RDKit          3D

 58 60  0  0  0  0  0  0  0  0999 V2000
   64.7310   32.4170   47.3260 H   0  0  0  0  0  0  0  0  0  0  0  0
   63.7820   32.1920   47.5110 O   0  0  0  0  0  0  0  0  0  0  0  0
   63.0070   33.2150   46.9460 C   0  0  0  0  0  0  0  0  0  0  0  0
   62.1322   32.7721   46.4475 H   0  0  0  0  0  0  0  0  0  0  0  0
   63.6224   33.7649   46.2187 H   0  0  0  0  0  0  0  0  0  0  0  0
   62.5300   34.1910   48.0260 C   0  0  0  0  0  0  0  0  0  0  0  0
   61.4957   34.4942   47.8062 H   0  0  0  0  0  0  0  0  0  0  0  0
   63.1950   35.0672   48.0268 H   0  0  0  0  0  0  0  0  0  0  0  0
   62.5760   33.5640   49.3570 N   0  0  0  0  0  0  0  0  0  0  0  0
   61.5270   32.6610   49.7530 C   0  0  0  0  0  0  0  0  0  0  0  0
   60.3230   33.1600   50.2800 C   0  0  0  0  0  0  0  0  0  0  0  0
   60.2007   34.2419   50.4364 H   0  0  0  0  0  0  0  0  0  0  0  0
   59.2810   32.2880   50.6060 C   0  0  0  0  0  0  0  0  0  0  0  0
   58.3453   32.6836   51.0278 H   0  0  0  0  0  0  0  0  0  0  0  0
   59.4260   30.9150   50.3970 C   0  0  0  0  0  0  0  0  0  0  0  0
   58.5995   30.2318   50.6423 H   0  0  0  0  0  0  0  0  0  0  0  0
   60.6210   30.4070   49.8760 C   0  0  0  0  0  0  0  0  0  0  0  0
   60.7670   28.6560   49.5180 S   0  0  0  0  0  0  0  0  0  0  0  0
   59.9300   28.8470   47.9440 C   0  0  0  0  0  0  0  0  0  0  0  0
   60.3310   29.8430   47.0460 C   0  0  0  0  0  0  0  0  0  0  0  0
   61.1020   30.5701   47.3407 H   0  0  0  0  0  0  0  0  0  0  0  0
   59.7530   29.9150   45.7750 C   0  0  0  0  0  0  0  0  0  0  0  0
   60.0743   30.6962   45.0703 H   0  0  0  0  0  0  0  0  0  0  0  0
   58.7620   28.9920   45.3940 C   0  0  0  0  0  0  0  0  0  0  0  0
   58.2080   28.9950   44.0700 N   0  0  0  0  0  0  0  0  0  0  0  0
   58.7960   28.6600   43.2740 H   0  0  0  0  0  0  0  0  0  0  0  0
   56.7490   29.8420   43.6680 S   0  0  0  0  0  0  0  0  0  0  0  0
   56.2580   29.3880   42.3210 O   0  0  0  0  0  0  0  0  0  0  0  0
   55.6940   29.5270   44.6910 O   0  0  0  0  0  0  0  0  0  0  0  0
   57.0210   31.5870   43.6350 C   0  0  0  0  0  0  0  0  0  0  0  0
   56.1566   32.2376   43.4362 H   0  0  0  0  0  0  0  0  0  0  0  0
   58.2100   32.1710   43.8360 C   0  0  0  0  0  0  0  0  0  0  0  0
   58.9869   32.0321   43.0698 H   0  0  0  0  0  0  0  0  0  0  0  0
   58.5450   32.9870   45.0160 C   0  0  0  0  0  0  0  0  0  0  0  0
   58.0500   32.6520   46.2860 C   0  0  0  0  0  0  0  0  0  0  0  0
   57.4267   31.7545   46.4125 H   0  0  0  0  0  0  0  0  0  0  0  0
   58.3470   33.4560   47.3910 C   0  0  0  0  0  0  0  0  0  0  0  0
   57.9676   33.1825   48.3866 H   0  0  0  0  0  0  0  0  0  0  0  0
   59.1240   34.6050   47.2330 C   0  0  0  0  0  0  0  0  0  0  0  0
   59.3624   35.2327   48.1043 H   0  0  0  0  0  0  0  0  0  0  0  0
   59.5990   34.9570   45.9650 C   0  0  0  0  0  0  0  0  0  0  0  0
   60.2070   35.8650   45.8390 H   0  0  0  0  0  0  0  0  0  0  0  0
   59.3020   34.1560   44.8570 C   0  0  0  0  0  0  0  0  0  0  0  0
   59.6634   34.4442   43.8588 H   0  0  0  0  0  0  0  0  0  0  0  0
   58.3250   28.0350   46.3220 C   0  0  0  0  0  0  0  0  0  0  0  0
   57.5140   27.3425   46.0522 H   0  0  0  0  0  0  0  0  0  0  0  0
   58.9130   27.9560   47.5860 C   0  0  0  0  0  0  0  0  0  0  0  0
   58.5758   27.1916   48.3015 H   0  0  0  0  0  0  0  0  0  0  0  0
   61.6750   31.2770   49.5730 C   0  0  0  0  0  0  0  0  0  0  0  0
   62.6247   30.8736   49.1917 H   0  0  0  0  0  0  0  0  0  0  0  0
   63.7040   33.8250   50.2650 C   0  0  0  0  0  0  0  0  0  0  0  0
   64.3197   34.6367   49.8501 H   0  0  0  0  0  0  0  0  0  0  0  0
   63.3037   34.1102   51.2491 H   0  0  0  0  0  0  0  0  0  0  0  0
   64.5710   32.5750   50.4340 C   0  0  0  0  0  0  0  0  0  0  0  0
   65.1334   32.6505   51.3764 H   0  0  0  0  0  0  0  0  0  0  0  0
   63.9168   31.6908   50.4492 H   0  0  0  0  0  0  0  0  0  0  0  0
   65.4740   32.4490   49.3680 O   0  0  0  0  0  0  0  0  0  0  0  0
   64.9810   32.0040   48.6300 H   0  0  0  0  0  0  0  0  0  0  0  0
  1  2  1  0
  2  3  1  0
  3  4  1  0
  3  5  1  0
  3  6  1  0
  6  7  1  0
  6  8  1  0
  6  9  1  0
  9 10  1  0
 10 11  2  0
 11 12  1  0
 11 13  1  0
 13 14  1  0
 13 15  2  0
 15 16  1  0
 15 17  1  0
 17 18  1  0
 18 19  1  0
 19 20  2  0
 20 21  1  0
 20 22  1  0
 22 23  1  0
 22 24  2  0
 24 25  1  0
 25 26  1  0
 25 27  1  0
 27 28  2  0
 27 29  2  0
 27 30  1  0
 30 31  1  0
 30 32  2  0
 32 33  1  0
 32 34  1  0
 34 35  2  0
 35 36  1  0
 35 37  1  0
 37 38  1  0
 37 39  2  0
 39 40  1  0
 39 41  1  0
 41 42  1  0
 41 43  2  0
 43 44  1  0
 24 45  1  0
 45 46  1  0
 45 47  2  0
 47 48  1  0
 17 49  2  0
 49 50  1  0
  9 51  1  0
 51 52  1  0
 51 53  1  0
 51 54  1  0
 54 55  1  0
 54 56  1  0
 54 57  1  0
 57 58  1  0
 49 10  1  0
 47 19  1  0
 43 34  1  0
M  END
>  <UniqueID>  (67) 
60

>  <SMILES>  (67) 
O=S(=O)(/C=C\c1ccccc1)Nc1ccc(Sc2cccc(N(CCO)CCO)c2)cc1

>  <Energy>  (67) 
59.72474664365404

>  <Genealogy>  (67) 
O=S(=O)(/C=C\c1ccccc1)Nc1ccc(Sc2cccc(N(CCO)CCO)c2)cc1 (cis-trans isomerization)
O=S(=O)(/C=C\c1ccccc1)Nc1ccc(Sc2cccc(N(CCO)CCO)c2)cc1 (3D coordinates assigned)
O=S(=O)(/C=C\c1ccccc1)Nc1ccc(Sc2cccc(N(CCO)CCO)c2)cc1 (optimized conformer: 59.72474664365404 kcal/mol)

>  <smiles>  (67) 
O=S(=O)(C=Cc1ccccc1)Nc1ccc(Sc2cccc(N(CCO)CCO)c2)cc1

>  <score_type>  (67) 
oracle

>  <origin>  (67) 
adg

>  <m_score__min__energy>  (67) 
-9.5099999999999998

>  <m_primary>  (67) 
energy

$$$$
67:0
     RDKit          3D

 44 47  0  0  1  0  0  0  0  0999 V2000
   57.7780   26.8660   42.8280 C   0  0  0  0  0  0  0  0  0  0  0  0
   57.8830   28.0760   43.5440 N   0  0  0  0  0  0  0  0  0  0  0  0
   56.9820   29.1030   43.2380 C   0  0  0  0  0  0  0  0  0  0  0  0
   57.3060   30.3960   43.9100 C   0  0  0  0  0  0  0  0  0  0  0  0
   57.8020   31.4470   43.1290 C   0  0  0  0  0  0  0  0  0  0  0  0
   58.1170   32.6730   43.7000 C   0  0  0  0  0  0  0  0  0  0  0  0
   57.9210   32.8090   45.0710 C   0  0  0  0  0  0  0  0  0  0  0  0
   58.2120   34.0220   45.7590 N   0  0  0  0  0  0  0  0  0  0  0  0
   59.2010   34.1350   46.5900 C   0  0  0  0  0  0  0  0  0  0  0  0
   60.4000   33.4260   46.5830 C   0  0  0  0  0  0  0  0  0  0  0  0
   61.1430   33.8960   47.6690 C   0  0  0  0  0  0  0  0  0  0  0  0
   62.4930   33.3920   48.0150 C   0  0  0  0  0  0  0  0  0  0  0  0
   63.5430   33.2910   46.9710 C   0  0  0  0  0  0  0  0  0  0  0  0
   62.8820   32.0410   47.4770 C   0  0  0  0  0  0  0  0  0  0  0  0
   60.3970   34.8390   48.2770 N   0  0  0  0  0  0  0  0  0  0  0  0
   59.2610   34.9670   47.6320 N   0  0  0  0  0  0  0  0  0  0  0  0
   57.4380   31.7690   45.8060 N   0  0  0  0  0  0  0  0  0  0  0  0
   57.1440   30.6030   45.2250 N   0  0  0  0  0  0  0  0  0  0  0  0
   59.1270   28.3610   44.1360 C   0  0  0  0  0  0  0  0  0  0  0  0
   59.0820   28.1210   45.6070 C   0  0  0  0  0  0  0  0  0  0  0  0
   59.3950   26.9500   46.2350 N   0  0  0  0  0  0  0  0  0  0  0  0
   59.2430   27.0670   47.5640 C   0  0  0  0  0  0  0  0  0  0  0  0
   58.8170   28.3580   47.7950 C   0  0  0  0  0  0  0  0  0  0  0  0
   58.7330   28.9590   46.5970 N   0  0  0  0  0  0  0  0  0  0  0  0
   57.7052   26.0266   43.5352 H   0  0  0  0  0  0  0  0  0  0  0  0
   56.8787   26.8913   42.1951 H   0  0  0  0  0  0  0  0  0  0  0  0
   58.6682   26.7360   42.1951 H   0  0  0  0  0  0  0  0  0  0  0  0
   56.9926   29.2634   42.1498 H   0  0  0  0  0  0  0  0  0  0  0  0
   55.9934   28.7867   43.6021 H   0  0  0  0  0  0  0  0  0  0  0  0
   57.9441   31.2995   42.0482 H   0  0  0  0  0  0  0  0  0  0  0  0
   58.5060   33.5036   43.0927 H   0  0  0  0  0  0  0  0  0  0  0  0
   60.7021   32.6497   45.8646 H   0  0  0  0  0  0  0  0  0  0  0  0
   62.4510   33.8703   49.0047 H   0  0  0  0  0  0  0  0  0  0  0  0
   63.3374   33.6455   45.9502 H   0  0  0  0  0  0  0  0  0  0  0  0
   64.5839   33.6358   46.8834 H   0  0  0  0  0  0  0  0  0  0  0  0
   62.1881   31.4829   46.8312 H   0  0  0  0  0  0  0  0  0  0  0  0
   63.2298   31.0942   47.9158 H   0  0  0  0  0  0  0  0  0  0  0  0
   60.7360   35.3490   49.1270 H   0  0  0  0  0  0  0  0  0  0  0  0
   58.5200   35.6520   47.9320 H   0  0  0  0  0  0  0  0  0  0  0  0
   59.8958   27.7139   43.6886 H   0  0  0  0  0  0  0  0  0  0  0  0
   59.3668   29.4199   43.9592 H   0  0  0  0  0  0  0  0  0  0  0  0
   59.4227   26.2874   48.3189 H   0  0  0  0  0  0  0  0  0  0  0  0
   58.5897   28.8087   48.7723 H   0  0  0  0  0  0  0  0  0  0  0  0
   58.4290   29.9450   46.4880 H   0  0  0  0  0  0  0  0  0  0  0  0
  1  2  1  0
  2  3  1  0
  3  4  1  0
  4  5  2  0
  5  6  1  0
  6  7  2  0
  7  8  1  0
  8  9  2  0
  9 10  1  0
 10 11  2  0
 11 12  1  0
 12 13  1  0
 13 14  1  0
 11 15  1  0
 15 16  1  0
  7 17  1  0
 17 18  2  0
  2 19  1  0
 19 20  1  0
 20 21  2  0
 21 22  1  0
 22 23  2  0
 23 24  1  0
 18  4  1  0
 24 20  1  0
 16  9  1  0
 14 12  1  0
  1 25  1  0
  1 26  1  0
  1 27  1  0
  3 28  1  0
  3 29  1  0
  5 30  1  0
  6 31  1  0
 10 32  1  0
 12 33  1  0
 13 34  1  0
 13 35  1  0
 14 36  1  0
 14 37  1  0
 15 38  1  0
 16 39  1  0
 19 40  1  0
 19 41  1  0
 22 42  1  0
 23 43  1  0
 24 44  1  0
M  END
>  <smiles>  (68) 
CN(Cc1ccc(N=c2cc(C3CC3)[nH][nH]2)nn1)Cc1ncc[nH]1

>  <score_type>  (68) 
oracle

>  <origin>  (68) 
adg

>  <m_score__min__energy>  (68) 
-7.6399999999999997

>  <m_primary>  (68) 
energy

$$$$
68:0
     RDKit          3D

 45 48  0  0  0  0  0  0  0  0999 V2000
   59.0362   31.7090   50.8266 H   0  0  0  0  0  0  0  0  0  0  0  0
   59.2710   31.8760   49.7650 C   0  0  0  0  0  0  0  0  0  0  0  0
   59.3580   33.1330   49.3090 C   0  0  0  0  0  0  0  0  0  0  0  0
   59.5887   33.9327   50.0282 H   0  0  0  0  0  0  0  0  0  0  0  0
   59.1600   33.5040   47.8870 C   0  0  0  0  0  0  0  0  0  0  0  0
   59.9640   34.5160   47.3380 C   0  0  0  0  0  0  0  0  0  0  0  0
   60.7276   35.0050   47.9608 H   0  0  0  0  0  0  0  0  0  0  0  0
   59.8010   34.9060   46.0070 C   0  0  0  0  0  0  0  0  0  0  0  0
   60.4346   35.7015   45.5878 H   0  0  0  0  0  0  0  0  0  0  0  0
   58.8380   34.2910   45.2070 C   0  0  0  0  0  0  0  0  0  0  0  0
   58.7149   34.6055   44.1601 H   0  0  0  0  0  0  0  0  0  0  0  0
   58.0250   33.2730   45.7300 C   0  0  0  0  0  0  0  0  0  0  0  0
   56.9690   32.6090   44.8670 C   0  0  0  0  0  0  0  0  0  0  0  0
   55.9799   32.9519   45.2048 H   0  0  0  0  0  0  0  0  0  0  0  0
   57.1820   32.8939   43.8261 H   0  0  0  0  0  0  0  0  0  0  0  0
   56.9930   31.1300   44.9210 N   0  0  0  0  0  0  0  0  0  0  0  0
   55.8930   30.4670   44.1820 C   0  0  0  0  0  0  0  0  0  0  0  0
   55.3966   29.7496   44.8520 H   0  0  0  0  0  0  0  0  0  0  0  0
   55.1927   31.2451   43.8440 H   0  0  0  0  0  0  0  0  0  0  0  0
   56.4040   29.7170   42.9430 C   0  0  0  0  0  0  0  0  0  0  0  0
   55.5521   29.2333   42.4426 H   0  0  0  0  0  0  0  0  0  0  0  0
   56.8903   30.4455   42.2776 H   0  0  0  0  0  0  0  0  0  0  0  0
   57.3970   28.6860   43.3000 N   0  0  0  0  0  0  0  0  0  0  0  0
   58.0240   28.5440   42.4720 H   0  0  0  0  0  0  0  0  0  0  0  0
   58.2310   29.0310   44.4690 C   0  0  0  0  0  0  0  0  0  0  0  0
   57.7885   28.5745   45.3667 H   0  0  0  0  0  0  0  0  0  0  0  0
   59.2458   28.6491   44.2836 H   0  0  0  0  0  0  0  0  0  0  0  0
   58.3310   30.5460   44.6840 C   0  0  0  0  0  0  0  0  0  0  0  0
   58.9716   30.7455   45.5557 H   0  0  0  0  0  0  0  0  0  0  0  0
   58.7616   31.0036   43.7811 H   0  0  0  0  0  0  0  0  0  0  0  0
   58.1740   32.9040   47.0790 C   0  0  0  0  0  0  0  0  0  0  0  0
   57.5124   32.1373   47.5086 H   0  0  0  0  0  0  0  0  0  0  0  0
   59.4800   30.7120   48.8890 C   0  0  0  0  0  0  0  0  0  0  0  0
   60.3090   30.7120   47.8070 N   0  0  0  0  0  0  0  0  0  0  0  0
   60.1580   29.4570   47.3560 C   0  0  0  0  0  0  0  0  0  0  0  0
   59.2880   28.7670   48.1350 C   0  0  0  0  0  0  0  0  0  0  0  0
   58.8690   29.5530   49.0880 O   0  0  0  0  0  0  0  0  0  0  0  0
   58.9670   27.4420   47.8690 C   0  0  0  0  0  0  0  0  0  0  0  0
   58.2610   26.8838   48.5014 H   0  0  0  0  0  0  0  0  0  0  0  0
   59.5850   26.8460   46.7550 C   0  0  0  0  0  0  0  0  0  0  0  0
   59.3671   25.7988   46.4983 H   0  0  0  0  0  0  0  0  0  0  0  0
   60.4880   27.5970   45.9650 C   0  0  0  0  0  0  0  0  0  0  0  0
   60.9715   27.1295   45.0945 H   0  0  0  0  0  0  0  0  0  0  0  0
   60.7640   28.9020   46.2770 N   0  0  0  0  0  0  0  0  0  0  0  0
   61.4300   29.4560   45.6940 H   0  0  0  0  0  0  0  0  0  0  0  0
  1  2  1  0
  2  3  2  0
  3  4  1  0
  3  5  1  0
  5  6  2  0
  6  7  1  0
  6  8  1  0
  8  9  1  0
  8 10  2  0
 10 11  1  0
 10 12  1  0
 12 13  1  0
 13 14  1  0
 13 15  1  0
 13 16  1  0
 16 17  1  0
 17 18  1  0
 17 19  1  0
 17 20  1  0
 20 21  1  0
 20 22  1  0
 20 23  1  0
 23 24  1  0
 23 25  1  0
 25 26  1  0
 25 27  1  0
 25 28  1  0
 28 29  1  0
 28 30  1  0
 12 31  2  0
 31 32  1  0
  2 33  1  0
 33 34  2  0
 34 35  1  0
 35 36  2  0
 36 37  1  0
 36 38  1  0
 38 39  1  0
 38 40  2  0
 40 41  1  0
 40 42  1  0
 42 43  1  0
 42 44  2  0
 44 45  1  0
 31  5  1  0
 37 33  1  0
 28 16  1  0
 44 35  1  0
M  CHG  1  44   1
M  END
>  <UniqueID>  (69) 
61

>  <SMILES>  (69) 
C(=C/c1nc2[nH+]cccc2o1)\c1cccc(CN2CCNCC2)c1

>  <Energy>  (69) 
101.04125477825662

>  <Genealogy>  (69) 
C(=Cc1nc2[nH+]cccc2o1)c1cccc(CN2CCNCC2)c1 (protonated)
C(=C/c1nc2[nH+]cccc2o1)\c1cccc(CN2CCNCC2)c1 (cis-trans isomerization)
C(=C/c1nc2[nH+]cccc2o1)\c1cccc(CN2CCNCC2)c1 (3D coordinates assigned)
C(=C/c1nc2[nH+]cccc2o1)\c1cccc(CN2CCNCC2)c1 (nonaromatic ring conformer: 101.04125477825662 kcal/mol)

>  <smiles>  (69) 
C(=Cc1nc2ncccc2o1)c1cccc(CN2CCNCC2)c1

>  <score_type>  (69) 
oracle

>  <origin>  (69) 
adg

>  <m_score__min__energy>  (69) 
-7.3099999999999996

>  <m_primary>  (69) 
energy

$$$$
69:0
     RDKit          3D

 44 46  0  0  0  0  0  0  0  0999 V2000
   57.4900   26.9580   44.5290 N   0  0  0  0  0  0  0  0  0  0  0  0
   57.0350   26.1190   45.6400 C   0  0  1  0  0  0  0  0  0  0  0  0
   56.7810   24.6740   45.1670 C   0  0  0  0  0  0  0  0  0  0  0  0
   55.3200   24.3390   45.1580 C   0  0  0  0  0  0  0  0  0  0  0  0
   54.7210   23.3390   44.4320 C   0  0  0  0  0  0  0  0  0  0  0  0
   53.4090   23.3180   44.7230 N   0  0  0  0  0  0  0  0  0  0  0  0
   53.2550   24.3110   45.6260 C   0  0  0  0  0  0  0  0  0  0  0  0
   54.4020   24.9560   45.9220 N   0  0  0  0  0  0  0  0  0  0  0  0
   58.0720   26.1310   46.7290 C   0  0  0  0  0  0  0  0  0  0  0  0
   57.9270   25.3740   47.7270 O   0  0  0  0  0  0  0  0  0  0  0  0
   59.1510   27.0760   46.6770 N   0  0  0  0  0  0  0  0  0  0  0  0
   59.2950   28.2740   47.4560 C   0  0  0  0  0  0  0  0  0  0  0  0
   59.6530   28.2180   48.8180 C   0  0  0  0  0  0  0  0  0  0  0  0
   59.7140   29.3830   49.5840 C   0  0  0  0  0  0  0  0  0  0  0  0
   59.4270   30.6170   49.0040 C   0  0  0  0  0  0  0  0  0  0  0  0
   59.1070   30.6920   47.6480 C   0  0  0  0  0  0  0  0  0  0  0  0
   59.0750   29.5370   46.8570 C   0  0  0  0  0  0  0  0  0  0  0  0
   58.7750   29.6900   45.4620 N   0  0  0  0  0  0  0  0  0  0  0  0
   57.1810   29.8060   44.7900 S   0  0  0  0  0  0  0  0  0  0  0  0
   56.2410   28.9240   45.5640 O   0  0  0  0  0  0  0  0  0  0  0  0
   57.2290   29.3430   43.3620 O   0  0  0  0  0  0  0  0  0  0  0  0
   56.6470   31.4550   44.8480 N   0  0  0  0  0  0  0  0  0  0  0  0
   57.4680   32.5730   45.2110 C   0  0  0  0  0  0  0  0  0  0  0  0
   58.3470   33.1010   44.2560 C   0  0  0  0  0  0  0  0  0  0  0  0
   59.1740   34.1810   44.5740 C   0  0  0  0  0  0  0  0  0  0  0  0
   59.1280   34.7460   45.8500 C   0  0  0  0  0  0  0  0  0  0  0  0
   58.2530   34.2300   46.8100 C   0  0  0  0  0  0  0  0  0  0  0  0
   57.4250   33.1480   46.4960 C   0  0  0  0  0  0  0  0  0  0  0  0
   56.6520   27.3730   44.0600 H   0  0  0  0  0  0  0  0  0  0  0  0
   58.0210   27.7690   44.9220 H   0  0  0  0  0  0  0  0  0  0  0  0
   56.0879   26.5232   46.0268 H   0  0  0  0  0  0  0  0  0  0  0  0
   57.1790   24.5579   44.1481 H   0  0  0  0  0  0  0  0  0  0  0  0
   57.2835   23.9917   45.8684 H   0  0  0  0  0  0  0  0  0  0  0  0
   55.2313   22.6655   43.7277 H   0  0  0  0  0  0  0  0  0  0  0  0
   52.2856   24.5691   46.0773 H   0  0  0  0  0  0  0  0  0  0  0  0
   59.8863   27.2479   49.2812 H   0  0  0  0  0  0  0  0  0  0  0  0
   59.9892   29.3270   50.6476 H   0  0  0  0  0  0  0  0  0  0  0  0
   59.4527   31.5315   49.6148 H   0  0  0  0  0  0  0  0  0  0  0  0
   58.8776   31.6682   47.1958 H   0  0  0  0  0  0  0  0  0  0  0  0
   58.3861   32.6617   43.2483 H   0  0  0  0  0  0  0  0  0  0  0  0
   59.8624   34.5869   43.8181 H   0  0  0  0  0  0  0  0  0  0  0  0
   59.7797   35.5963   46.0995 H   0  0  0  0  0  0  0  0  0  0  0  0
   58.2157   34.6761   47.8148 H   0  0  0  0  0  0  0  0  0  0  0  0
   56.7381   32.7447   47.2546 H   0  0  0  0  0  0  0  0  0  0  0  0
  1  2  1  0
  2  3  1  0
  3  4  1  0
  4  5  2  0
  5  6  1  0
  6  7  1  0
  7  8  2  0
  2  9  1  0
  9 10  2  0
  9 11  1  0
 11 12  1  0
 12 13  2  0
 13 14  1  0
 14 15  2  0
 15 16  1  0
 16 17  2  0
 17 18  1  0
 18 19  1  0
 19 20  2  0
 19 21  2  0
 19 22  1  0
 22 23  1  0
 23 24  2  0
 24 25  1  0
 25 26  2  0
 26 27  1  0
 27 28  2  0
  8  4  1  0
 17 12  1  0
 28 23  1  0
  1 29  1  0
  1 30  1  0
  2 31  1  1
  3 32  1  0
  3 33  1  0
  5 34  1  0
  7 35  1  0
 13 36  1  0
 14 37  1  0
 15 38  1  0
 16 39  1  0
 24 40  1  0
 25 41  1  0
 26 42  1  0
 27 43  1  0
 28 44  1  0
M  CHG  4   6  -1  11  -1  18  -1  22  -1
M  END
>  <UniqueID>  (70) 
62

>  <SMILES>  (70) 
N[C@@H](Cc1c[n-]cn1)C(=O)[N-]c1ccccc1[N-]S(=O)(=O)[N-]c1ccccc1

>  <Energy>  (70) 
79.09084349918129

>  <Genealogy>  (70) 
NC(Cc1c[n-]cn1)C(=O)[N-]c1ccccc1[N-]S(=O)(=O)[N-]c1ccccc1 (protonated)
N[C@@H](Cc1c[n-]cn1)C(=O)[N-]c1ccccc1[N-]S(=O)(=O)[N-]c1ccccc1 (chirality)
N[C@@H](Cc1c[n-]cn1)C(=O)[N-]c1ccccc1[N-]S(=O)(=O)[N-]c1ccccc1 (3D coordinates assigned)
N[C@@H](Cc1c[n-]cn1)C(=O)[N-]c1ccccc1[N-]S(=O)(=O)[N-]c1ccccc1 (optimized conformer: 79.09084349918129 kcal/mol)

>  <smiles>  (70) 
NC(Cc1c[nH]cn1)C(=O)Nc1ccccc1NS(=O)(=O)Nc1ccccc1

>  <score_type>  (70) 
oracle

>  <origin>  (70) 
adg

>  <m_score__min__energy>  (70) 
-14.06

>  <m_primary>  (70) 
energy

$$$$
70:0
     RDKit          3D

 47 49  0  0  0  0  0  0  0  0999 V2000
   61.2320   33.7890   46.1810 C   0  0  0  0  0  0  0  0  0  0  0  0
   60.3900   33.3780   47.3600 C   0  0  0  0  0  0  0  0  0  0  0  0
   61.0220   33.1140   48.5850 C   0  0  0  0  0  0  0  0  0  0  0  0
   60.2790   32.7490   49.7080 C   0  0  0  0  0  0  0  0  0  0  0  0
   58.8820   32.6410   49.6350 C   0  0  0  0  0  0  0  0  0  0  0  0
   58.0960   32.2520   50.8310 C   0  0  0  0  0  0  0  0  0  0  0  0
   57.8510   33.1060   51.7270 O   0  0  0  0  0  0  0  0  0  0  0  0
   57.5680   30.9220   50.9380 N   0  0  0  0  0  0  0  0  0  0  0  0
   56.6270   30.4320   51.9060 C   0  0  0  0  0  0  0  0  0  0  0  0
   57.0550   29.4550   52.8180 C   0  0  0  0  0  0  0  0  0  0  0  0
   56.1780   28.9570   53.7870 C   0  0  0  0  0  0  0  0  0  0  0  0
   54.8680   29.4370   53.8580 C   0  0  0  0  0  0  0  0  0  0  0  0
   54.0160   28.9510   54.7960 F   0  0  0  0  0  0  0  0  0  0  0  0
   54.4400   30.4330   52.9750 C   0  0  0  0  0  0  0  0  0  0  0  0
   55.3160   30.9390   52.0100 C   0  0  0  0  0  0  0  0  0  0  0  0
   58.2430   32.9130   48.4140 C   0  0  0  0  0  0  0  0  0  0  0  0
   58.9790   33.2930   47.2790 C   0  0  0  0  0  0  0  0  0  0  0  0
   58.1090   33.6390   45.7730 S   0  0  0  0  0  0  0  0  0  0  0  0
   58.6620   34.8930   45.1550 O   0  0  0  0  0  0  0  0  0  0  0  0
   56.6460   33.8400   46.0610 O   0  0  0  0  0  0  0  0  0  0  0  0
   58.2930   32.3010   44.6830 N   0  0  0  0  0  0  0  0  0  0  0  0
   57.9280   30.9460   44.9980 C   0  0  0  0  0  0  0  0  0  0  0  0
   56.8350   30.3050   44.3820 C   0  0  0  0  0  0  0  0  0  0  0  0
   56.5100   28.9870   44.7140 C   0  0  0  0  0  0  0  0  0  0  0  0
   57.2610   28.2920   45.6700 C   0  0  0  0  0  0  0  0  0  0  0  0
   56.8550   26.6290   46.0820 S   0  0  0  0  0  0  0  0  0  0  0  0
   55.1380   26.4190   46.0160 N   0  0  0  0  0  0  0  0  0  0  0  0
   57.5120   25.6900   45.1100 O   0  0  0  0  0  0  0  0  0  0  0  0
   57.3450   26.3090   47.4660 O   0  0  0  0  0  0  0  0  0  0  0  0
   58.3510   28.9230   46.2830 C   0  0  0  0  0  0  0  0  0  0  0  0
   58.6820   30.2400   45.9490 C   0  0  0  0  0  0  0  0  0  0  0  0
   62.1666   34.2452   46.5392 H   0  0  0  0  0  0  0  0  0  0  0  0
   61.4662   32.9039   45.5713 H   0  0  0  0  0  0  0  0  0  0  0  0
   60.6782   34.5181   45.5713 H   0  0  0  0  0  0  0  0  0  0  0  0
   62.1163   33.1959   48.6606 H   0  0  0  0  0  0  0  0  0  0  0  0
   60.7928   32.5441   50.6588 H   0  0  0  0  0  0  0  0  0  0  0  0
   58.0874   29.0783   52.7704 H   0  0  0  0  0  0  0  0  0  0  0  0
   56.5201   28.1867   54.4938 H   0  0  0  0  0  0  0  0  0  0  0  0
   53.4121   30.8192   53.0397 H   0  0  0  0  0  0  0  0  0  0  0  0
   54.9809   31.7356   51.3295 H   0  0  0  0  0  0  0  0  0  0  0  0
   57.1485   32.8271   48.3453 H   0  0  0  0  0  0  0  0  0  0  0  0
   58.6920   32.5120   43.7400 H   0  0  0  0  0  0  0  0  0  0  0  0
   56.2341   30.8450   43.6355 H   0  0  0  0  0  0  0  0  0  0  0  0
   55.6595   28.4928   44.2216 H   0  0  0  0  0  0  0  0  0  0  0  0
   54.7240   27.0820   46.7070 H   0  0  0  0  0  0  0  0  0  0  0  0
   58.9490   28.3805   47.0300 H   0  0  0  0  0  0  0  0  0  0  0  0
   59.5402   30.7268   46.4354 H   0  0  0  0  0  0  0  0  0  0  0  0
  1  2  1  0
  2  3  2  0
  3  4  1  0
  4  5  2  0
  5  6  1  0
  6  7  2  0
  6  8  1  0
  8  9  1  0
  9 10  2  0
 10 11  1  0
 11 12  2  0
 12 13  1  0
 12 14  1  0
 14 15  2  0
  5 16  1  0
 16 17  2  0
 17 18  1  0
 18 19  2  0
 18 20  2  0
 18 21  1  0
 21 22  1  0
 22 23  2  0
 23 24  1  0
 24 25  2  0
 25 26  1  0
 26 27  1  0
 26 28  2  0
 26 29  2  0
 25 30  1  0
 30 31  2  0
 17  2  1  0
 31 22  1  0
 15  9  1  0
  1 32  1  0
  1 33  1  0
  1 34  1  0
  3 35  1  0
  4 36  1  0
 10 37  1  0
 11 38  1  0
 14 39  1  0
 15 40  1  0
 16 41  1  0
 21 42  1  0
 23 43  1  0
 24 44  1  0
 27 45  1  0
 30 46  1  0
 31 47  1  0
M  CHG  2   8  -1  27  -1
M  END
>  <UniqueID>  (71) 
63

>  <SMILES>  (71) 
Cc1ccc(C(=O)[N-]c2ccc(F)cc2)cc1S(=O)(=O)Nc1ccc(S([NH-])(=O)=O)cc1

>  <Energy>  (71) 
59.00877009193156

>  <Genealogy>  (71) 
Cc1ccc(C(=O)[N-]c2ccc(F)cc2)cc1S(=O)(=O)Nc1ccc(S([NH-])(=O)=O)cc1 (protonated)
Cc1ccc(C(=O)[N-]c2ccc(F)cc2)cc1S(=O)(=O)Nc1ccc(S([NH-])(=O)=O)cc1 (3D coordinates assigned)
Cc1ccc(C(=O)[N-]c2ccc(F)cc2)cc1S(=O)(=O)Nc1ccc(S([NH-])(=O)=O)cc1 (optimized conformer: 59.00877009193156 kcal/mol)

>  <smiles>  (71) 
Cc1ccc(C(=O)Nc2ccc(F)cc2)cc1S(=O)(=O)Nc1ccc(S(N)(=O)=O)cc1

>  <score_type>  (71) 
oracle

>  <origin>  (71) 
adg

>  <m_score__min__energy>  (71) 
-12.52

>  <m_primary>  (71) 
energy

$$$$
71:0
     RDKit          3D

 39 41  0  0  0  0  0  0  0  0999 V2000
   57.7030   31.1300   43.3070 O   0  0  0  0  0  0  0  0  0  0  0  0
   57.7720   30.8330   44.5290 C   0  0  0  0  0  0  0  0  0  0  0  0
   57.3590   31.8050   45.5030 N   0  0  0  0  0  0  0  0  0  0  0  0
   57.9590   32.9250   45.7980 C   0  0  0  0  0  0  0  0  0  0  0  0
   58.1150   33.2640   47.1470 C   0  0  0  0  0  0  0  0  0  0  0  0
   58.7620   34.4520   47.4960 C   0  0  0  0  0  0  0  0  0  0  0  0
   59.2520   35.2750   46.5300 N   0  0  0  0  0  0  0  0  0  0  0  0
   59.1340   34.9650   45.2110 C   0  0  0  0  0  0  0  0  0  0  0  0
   58.4930   33.7880   44.8180 C   0  0  0  0  0  0  0  0  0  0  0  0
   58.3520   29.5320   44.9360 C   0  0  0  0  0  0  0  0  0  0  0  0
   57.7960   28.3400   44.4420 C   0  0  0  0  0  0  0  0  0  0  0  0
   58.3460   27.1030   44.7880 C   0  0  0  0  0  0  0  0  0  0  0  0
   57.6380   25.6230   44.1660 Cl  0  0  0  0  0  0  0  0  0  0  0  0
   59.4570   27.0460   45.6290 C   0  0  0  0  0  0  0  0  0  0  0  0
   60.0270   28.2230   46.1200 C   0  0  0  0  0  0  0  0  0  0  0  0
   59.4880   29.4760   45.7720 C   0  0  0  0  0  0  0  0  0  0  0  0
   60.0700   30.6780   46.2120 O   0  0  0  0  0  0  0  0  0  0  0  0
   60.3930   30.9820   47.5680 C   0  0  0  0  0  0  0  0  0  0  0  0
   61.5730   31.9160   47.6270 C   0  0  0  0  0  0  0  0  0  0  0  0
   61.6500   33.0060   46.7430 C   0  0  0  0  0  0  0  0  0  0  0  0
   62.7560   33.8600   46.7720 C   0  0  0  0  0  0  0  0  0  0  0  0
   63.7890   33.6380   47.6870 C   0  0  0  0  0  0  0  0  0  0  0  0
   63.7150   32.5620   48.5760 C   0  0  0  0  0  0  0  0  0  0  0  0
   62.6110   31.7030   48.5490 C   0  0  0  0  0  0  0  0  0  0  0  0
   57.7288   32.5961   47.9311 H   0  0  0  0  0  0  0  0  0  0  0  0
   58.8757   34.7230   48.5560 H   0  0  0  0  0  0  0  0  0  0  0  0
   59.7340   36.1580   46.8070 H   0  0  0  0  0  0  0  0  0  0  0  0
   59.5454   35.6445   44.4501 H   0  0  0  0  0  0  0  0  0  0  0  0
   58.4051   33.5355   43.7510 H   0  0  0  0  0  0  0  0  0  0  0  0
   56.9205   28.3809   43.7774 H   0  0  0  0  0  0  0  0  0  0  0  0
   59.8856   26.0717   45.9064 H   0  0  0  0  0  0  0  0  0  0  0  0
   60.9031   28.1704   46.7831 H   0  0  0  0  0  0  0  0  0  0  0  0
   59.5270   31.4604   48.0489 H   0  0  0  0  0  0  0  0  0  0  0  0
   60.6479   30.0496   48.0930 H   0  0  0  0  0  0  0  0  0  0  0  0
   60.8364   33.1877   46.0253 H   0  0  0  0  0  0  0  0  0  0  0  0
   62.8136   34.7080   46.0738 H   0  0  0  0  0  0  0  0  0  0  0  0
   64.6598   34.3098   47.7074 H   0  0  0  0  0  0  0  0  0  0  0  0
   64.5265   32.3902   49.2984 H   0  0  0  0  0  0  0  0  0  0  0  0
   62.5558   30.8585   49.2517 H   0  0  0  0  0  0  0  0  0  0  0  0
  1  2  2  0
  2  3  1  0
  3  4  2  3
  4  5  1  0
  5  6  2  0
  6  7  1  0
  7  8  1  0
  8  9  2  0
  2 10  1  0
 10 11  2  0
 11 12  1  0
 12 13  1  0
 12 14  2  0
 14 15  1  0
 15 16  2  0
 16 17  1  0
 17 18  1  0
 18 19  1  0
 19 20  2  0
 20 21  1  0
 21 22  2  0
 22 23  1  0
 23 24  2  0
  9  4  1  0
 16 10  1  0
 24 19  1  0
  5 25  1  0
  6 26  1  0
  7 27  1  0
  8 28  1  0
  9 29  1  0
 11 30  1  0
 14 31  1  0
 15 32  1  0
 18 33  1  0
 18 34  1  0
 20 35  1  0
 21 36  1  0
 22 37  1  0
 23 38  1  0
 24 39  1  0
M  END
>  <UniqueID>  (72) 
64

>  <SMILES>  (72) 
O=C(N=c1cc[nH]cc1)c1cc(Cl)ccc1OCc1ccccc1

>  <Energy>  (72) 
52.58283741260629

>  <Genealogy>  (72) 
O=C(N=c1cc[nH]cc1)c1cc(Cl)ccc1OCc1ccccc1 (3D coordinates assigned)
O=C(N=c1cc[nH]cc1)c1cc(Cl)ccc1OCc1ccccc1 (optimized conformer: 52.58283741260629 kcal/mol)

>  <smiles>  (72) 
O=C(N=c1cc[nH]cc1)c1cc(Cl)ccc1OCc1ccccc1

>  <score_type>  (72) 
oracle

>  <origin>  (72) 
adg

>  <m_score__min__energy>  (72) 
-7.71

>  <m_primary>  (72) 
energy

$$$$
72:0
     RDKit          3D

 49 51  0  0  0  0  0  0  0  0999 V2000
   55.5120   30.0570   43.7270 C   0  0  0  0  0  0  0  0  0  0  0  0
   56.4000   30.0900   44.8400 O   0  0  0  0  0  0  0  0  0  0  0  0
   57.2090   29.0160   45.2440 C   0  0  0  0  0  0  0  0  0  0  0  0
   56.6690   27.7710   45.6230 C   0  0  0  0  0  0  0  0  0  0  0  0
   57.5040   26.7130   46.0020 C   0  0  0  0  0  0  0  0  0  0  0  0
   56.9020   25.4690   46.3860 N   0  0  0  0  0  0  0  0  0  0  0  0
   55.3910   24.8490   45.8010 S   0  0  0  0  0  0  0  0  0  0  0  0
   55.6290   24.0060   44.2500 C   0  0  0  0  0  0  0  0  0  0  0  0
   54.8540   23.8660   46.8030 O   0  0  0  0  0  0  0  0  0  0  0  0
   54.4010   25.9690   45.6450 O   0  0  0  0  0  0  0  0  0  0  0  0
   58.8980   26.8970   45.9870 C   0  0  0  0  0  0  0  0  0  0  0  0
   59.4390   28.1290   45.6150 C   0  0  0  0  0  0  0  0  0  0  0  0
   58.6030   29.1970   45.2740 C   0  0  0  0  0  0  0  0  0  0  0  0
   59.1870   30.4380   44.8610 N   0  0  0  0  0  0  0  0  0  0  0  0
   58.8210   31.6660   45.1420 C   0  0  0  0  0  0  0  0  0  0  0  0
   58.1930   32.5380   44.2040 C   0  0  0  0  0  0  0  0  0  0  0  0
   57.7680   32.1350   42.8840 C   0  0  0  0  0  0  0  0  0  0  0  0
   57.4160   31.8130   41.8280 N   0  0  0  0  0  0  0  0  0  0  0  0
   57.8780   33.8450   44.5880 C   0  0  0  0  0  0  0  0  0  0  0  0
   58.1390   34.2850   45.8440 N   0  0  0  0  0  0  0  0  0  0  0  0
   58.6980   33.4750   46.7850 C   0  0  0  0  0  0  0  0  0  0  0  0
   58.9240   33.9630   48.0810 C   0  0  0  0  0  0  0  0  0  0  0  0
   59.4970   33.1420   49.0680 C   0  0  0  0  0  0  0  0  0  0  0  0
   59.7300   33.6010   50.3760 O   0  0  0  0  0  0  0  0  0  0  0  0
   58.9780   33.2010   51.5180 C   0  0  0  0  0  0  0  0  0  0  0  0
   59.8510   31.8250   48.7550 C   0  0  0  0  0  0  0  0  0  0  0  0
   60.4220   31.0330   49.7650 O   0  0  0  0  0  0  0  0  0  0  0  0
   60.7060   29.6430   49.6430 C   0  0  0  0  0  0  0  0  0  0  0  0
   59.6290   31.3310   47.4550 C   0  0  0  0  0  0  0  0  0  0  0  0
   59.0490   32.1450   46.4590 C   0  0  0  0  0  0  0  0  0  0  0  0
   54.4735   30.0184   44.0875 H   0  0  0  0  0  0  0  0  0  0  0  0
   55.6550   30.9611   43.1169 H   0  0  0  0  0  0  0  0  0  0  0  0
   55.7217   29.1660   43.1169 H   0  0  0  0  0  0  0  0  0  0  0  0
   55.5783   27.6286   45.6211 H   0  0  0  0  0  0  0  0  0  0  0  0
   55.9234   22.9634   44.4407 H   0  0  0  0  0  0  0  0  0  0  0  0
   54.6910   24.0230   43.6757 H   0  0  0  0  0  0  0  0  0  0  0  0
   56.4197   24.5110   43.6757 H   0  0  0  0  0  0  0  0  0  0  0  0
   59.5639   26.0681   46.2691 H   0  0  0  0  0  0  0  0  0  0  0  0
   60.5308   28.2607   45.5899 H   0  0  0  0  0  0  0  0  0  0  0  0
   57.4118   34.5262   43.8609 H   0  0  0  0  0  0  0  0  0  0  0  0
   57.8800   35.2690   46.0850 H   0  0  0  0  0  0  0  0  0  0  0  0
   58.6498   34.9994   48.3275 H   0  0  0  0  0  0  0  0  0  0  0  0
   59.5184   33.4885   52.4320 H   0  0  0  0  0  0  0  0  0  0  0  0
   57.9957   33.6958   51.5019 H   0  0  0  0  0  0  0  0  0  0  0  0
   58.8393   32.1099   51.5019 H   0  0  0  0  0  0  0  0  0  0  0  0
   60.7969   29.1980   50.6449 H   0  0  0  0  0  0  0  0  0  0  0  0
   59.8903   29.1488   49.0949 H   0  0  0  0  0  0  0  0  0  0  0  0
   61.6502   29.5084   49.0949 H   0  0  0  0  0  0  0  0  0  0  0  0
   59.9117   30.2960   47.2126 H   0  0  0  0  0  0  0  0  0  0  0  0
  1  2  1  0
  2  3  1  0
  3  4  2  0
  4  5  1  0
  5  6  1  0
  6  7  1  0
  7  8  1  0
  7  9  2  0
  7 10  2  0
  5 11  2  0
 11 12  1  0
 12 13  2  0
 13 14  1  0
 14 15  2  3
 15 16  1  0
 16 17  1  0
 17 18  3  0
 16 19  2  0
 19 20  1  0
 20 21  1  0
 21 22  2  0
 22 23  1  0
 23 24  1  0
 24 25  1  0
 23 26  2  0
 26 27  1  0
 27 28  1  0
 26 29  1  0
 29 30  2  0
 13  3  1  0
 30 15  1  0
 30 21  1  0
  1 31  1  0
  1 32  1  0
  1 33  1  0
  4 34  1  0
  8 35  1  0
  8 36  1  0
  8 37  1  0
 11 38  1  0
 12 39  1  0
 19 40  1  0
 20 41  1  0
 22 42  1  0
 25 43  1  0
 25 44  1  0
 25 45  1  0
 28 46  1  0
 28 47  1  0
 28 48  1  0
 29 49  1  0
M  CHG  1   6  -1
M  END
>  <UniqueID>  (73) 
65

>  <SMILES>  (73) 
COc1cc([N-]S(C)(=O)=O)ccc1N=c1c(C#N)c[nH]c2cc(OC)c(OC)cc12

>  <Energy>  (73) 
68.91382220469141

>  <Genealogy>  (73) 
COc1cc([N-]S(C)(=O)=O)ccc1N=c1c(C#N)c[nH]c2cc(OC)c(OC)cc12 (protonated)
COc1cc([N-]S(C)(=O)=O)ccc1N=c1c(C#N)c[nH]c2cc(OC)c(OC)cc12 (3D coordinates assigned)
COc1cc([N-]S(C)(=O)=O)ccc1N=c1c(C#N)c[nH]c2cc(OC)c(OC)cc12 (optimized conformer: 68.91382220469141 kcal/mol)

>  <smiles>  (73) 
COc1cc(NS(C)(=O)=O)ccc1N=c1c(C#N)c[nH]c2cc(OC)c(OC)cc12

>  <score_type>  (73) 
oracle

>  <origin>  (73) 
adg

>  <m_score__min__energy>  (73) 
-9.2200000000000006

>  <m_primary>  (73) 
energy

$$$$
73:0
     RDKit          3D

 52 54  0  0  0  0  0  0  0  0999 V2000
   60.6000   31.5370   49.0900 H   0  0  0  0  0  0  0  0  0  0  0  0
   59.6480   31.2030   48.9870 O   0  0  0  0  0  0  0  0  0  0  0  0
   58.8340   30.9770   50.0940 C   0  0  0  0  0  0  0  0  0  0  0  0
   58.8630   29.7480   50.7650 C   0  0  0  0  0  0  0  0  0  0  0  0
   59.5321   28.9480   50.4153 H   0  0  0  0  0  0  0  0  0  0  0  0
   58.0440   29.5350   51.8780 C   0  0  0  0  0  0  0  0  0  0  0  0
   58.0622   28.5632   52.3931 H   0  0  0  0  0  0  0  0  0  0  0  0
   57.1990   30.5550   52.3410 C   0  0  0  0  0  0  0  0  0  0  0  0
   56.3450   30.3310   53.5310 C   0  0  0  0  0  0  0  0  0  0  0  0
   56.9750   30.9140   55.0760 Cl  0  0  0  0  0  0  0  0  0  0  0  0
   55.1310   29.7290   53.4540 C   0  0  0  0  0  0  0  0  0  0  0  0
   53.9560   30.4400   52.8960 C   0  0  0  0  0  0  0  0  0  0  0  0
   52.8230   30.6860   53.6910 C   0  0  0  0  0  0  0  0  0  0  0  0
   52.8187   30.3776   54.7469 H   0  0  0  0  0  0  0  0  0  0  0  0
   51.7020   31.3200   53.1480 C   0  0  0  0  0  0  0  0  0  0  0  0
   50.8233   31.5197   53.7789 H   0  0  0  0  0  0  0  0  0  0  0  0
   51.6980   31.7010   51.8000 C   0  0  0  0  0  0  0  0  0  0  0  0
   50.5820   32.3270   51.2570 O   0  0  0  0  0  0  0  0  0  0  0  0
   52.8150   31.4480   51.0000 C   0  0  0  0  0  0  0  0  0  0  0  0
   52.8111   31.7464   49.9413 H   0  0  0  0  0  0  0  0  0  0  0  0
   53.9380   30.8160   51.5430 C   0  0  0  0  0  0  0  0  0  0  0  0
   54.8120   30.6122   50.9069 H   0  0  0  0  0  0  0  0  0  0  0  0
   54.9290   28.3240   53.8910 C   0  0  0  0  0  0  0  0  0  0  0  0
   55.5690   27.8480   55.0450 C   0  0  0  0  0  0  0  0  0  0  0  0
   56.2109   28.5212   55.6322 H   0  0  0  0  0  0  0  0  0  0  0  0
   55.3950   26.5230   55.4520 C   0  0  0  0  0  0  0  0  0  0  0  0
   55.9053   26.1598   56.3562 H   0  0  0  0  0  0  0  0  0  0  0  0
   54.5780   25.6530   54.7210 C   0  0  0  0  0  0  0  0  0  0  0  0
   54.4570   24.3280   55.1690 O   0  0  0  0  0  0  0  0  0  0  0  0
   55.1730   23.2020   54.6550 C   0  0  0  0  0  0  0  0  0  0  0  0
   54.9321   23.0784   53.5888 H   0  0  0  0  0  0  0  0  0  0  0  0
   54.8757   22.3080   55.2227 H   0  0  0  0  0  0  0  0  0  0  0  0
   56.6850   23.3980   54.8080 C   0  0  0  0  0  0  0  0  0  0  0  0
   57.1626   22.4149   54.9319 H   0  0  0  0  0  0  0  0  0  0  0  0
   56.8644   24.0329   55.6882 H   0  0  0  0  0  0  0  0  0  0  0  0
   57.2650   24.0690   53.6240 N   0  0  0  0  0  0  0  0  0  0  0  0
   58.0410   23.1190   52.8070 C   0  0  0  0  0  0  0  0  0  0  0  0
   58.5977   22.4374   53.4669 H   0  0  0  0  0  0  0  0  0  0  0  0
   57.3566   22.5371   52.1722 H   0  0  0  0  0  0  0  0  0  0  0  0
   58.7478   23.6735   52.1722 H   0  0  0  0  0  0  0  0  0  0  0  0
   58.1330   25.1820   54.0360 C   0  0  0  0  0  0  0  0  0  0  0  0
   58.1707   25.2304   55.1343 H   0  0  0  0  0  0  0  0  0  0  0  0
   59.1470   25.0218   53.6410 H   0  0  0  0  0  0  0  0  0  0  0  0
   57.7306   26.1265   53.6410 H   0  0  0  0  0  0  0  0  0  0  0  0
   53.9040   26.1400   53.5860 C   0  0  0  0  0  0  0  0  0  0  0  0
   53.2373   25.4749   53.0175 H   0  0  0  0  0  0  0  0  0  0  0  0
   54.0780   27.4650   53.1780 C   0  0  0  0  0  0  0  0  0  0  0  0
   53.5441   27.8378   52.2914 H   0  0  0  0  0  0  0  0  0  0  0  0
   57.1600   31.7800   51.6510 C   0  0  0  0  0  0  0  0  0  0  0  0
   56.4838   32.5783   51.9908 H   0  0  0  0  0  0  0  0  0  0  0  0
   57.9760   31.9880   50.5360 C   0  0  0  0  0  0  0  0  0  0  0  0
   57.9431   32.9504   50.0044 H   0  0  0  0  0  0  0  0  0  0  0  0
  1  2  1  0
  2  3  1  0
  3  4  2  0
  4  5  1  0
  4  6  1  0
  6  7  1  0
  6  8  2  0
  8  9  1  0
  9 10  1  0
  9 11  2  0
 11 12  1  0
 12 13  2  0
 13 14  1  0
 13 15  1  0
 15 16  1  0
 15 17  2  0
 17 18  1  0
 17 19  1  0
 19 20  1  0
 19 21  2  0
 21 22  1  0
 11 23  1  0
 23 24  2  0
 24 25  1  0
 24 26  1  0
 26 27  1  0
 26 28  2  0
 28 29  1  0
 29 30  1  0
 30 31  1  0
 30 32  1  0
 30 33  1  0
 33 34  1  0
 33 35  1  0
 33 36  1  0
 36 37  1  0
 37 38  1  0
 37 39  1  0
 37 40  1  0
 36 41  1  0
 41 42  1  0
 41 43  1  0
 41 44  1  0
 28 45  1  0
 45 46  1  0
 45 47  2  0
 47 48  1  0
  8 49  1  0
 49 50  1  0
 49 51  2  0
 51 52  1  0
 51  3  1  0
 21 12  1  0
 47 23  1  0
M  CHG  1  18  -1
M  END
>  <UniqueID>  (74) 
66

>  <SMILES>  (74) 
CN(C)CCOc1ccc(/C(=C(/Cl)c2ccc(O)cc2)c2ccc([O-])cc2)cc1

>  <Energy>  (74) 
70.8850312820232

>  <Genealogy>  (74) 
CN(C)CCOc1ccc(C(=C(Cl)c2ccc(O)cc2)c2ccc([O-])cc2)cc1 (protonated)
CN(C)CCOc1ccc(/C(=C(/Cl)c2ccc(O)cc2)c2ccc([O-])cc2)cc1 (cis-trans isomerization)
CN(C)CCOc1ccc(/C(=C(/Cl)c2ccc(O)cc2)c2ccc([O-])cc2)cc1 (3D coordinates assigned)
CN(C)CCOc1ccc(/C(=C(/Cl)c2ccc(O)cc2)c2ccc([O-])cc2)cc1 (optimized conformer: 70.8850312820232 kcal/mol)

>  <smiles>  (74) 
CN(C)CCOc1ccc(C(=C(Cl)c2ccc(O)cc2)c2ccc(O)cc2)cc1

>  <score_type>  (74) 
oracle

>  <origin>  (74) 
adg

>  <m_score__min__energy>  (74) 
-9.4000000000000004

>  <m_primary>  (74) 
energy

$$$$
74:0
     RDKit          3D

 35 36  0  0  0  0  0  0  0  0999 V2000
   56.7500   34.6530   44.5750 O   0  0  0  0  0  0  0  0  0  0  0  0
   57.5340   33.7590   44.8520 C   0  0  0  0  0  0  0  0  0  0  0  0
   57.0110   32.3820   45.1490 C   0  0  0  0  0  0  0  0  0  0  0  0
   57.0030   31.3850   43.6220 S   0  0  0  0  0  0  0  0  0  0  0  0
   57.5080   29.8770   44.4570 C   0  0  0  0  0  0  0  0  0  0  0  0
   58.8700   29.5850   44.5900 C   0  0  0  0  0  0  0  0  0  0  0  0
   59.2790   28.4170   45.2390 C   0  0  0  0  0  0  0  0  0  0  0  0
   58.3260   27.5370   45.7610 C   0  0  0  0  0  0  0  0  0  0  0  0
   56.9640   27.8250   45.6350 C   0  0  0  0  0  0  0  0  0  0  0  0
   56.5480   28.9960   44.9830 C   0  0  0  0  0  0  0  0  0  0  0  0
   55.1910   29.2860   44.8570 O   0  0  0  0  0  0  0  0  0  0  0  0
   59.0100   34.0510   44.8710 C   0  0  0  0  0  0  0  0  0  0  0  0
   59.5730   34.3030   46.5450 S   0  0  0  0  0  0  0  0  0  0  0  0
   58.4780   33.9180   47.5010 O   0  0  0  0  0  0  0  0  0  0  0  0
   59.9070   35.7530   46.7510 O   0  0  0  0  0  0  0  0  0  0  0  0
   61.0120   33.3300   46.8380 C   0  0  0  0  0  0  0  0  0  0  0  0
   62.2940   33.8890   46.7220 C   0  0  0  0  0  0  0  0  0  0  0  0
   63.4250   33.1130   46.9890 C   0  0  0  0  0  0  0  0  0  0  0  0
   63.2830   31.7750   47.3700 C   0  0  0  0  0  0  0  0  0  0  0  0
   62.0090   31.2120   47.4840 C   0  0  0  0  0  0  0  0  0  0  0  0
   60.8750   31.9880   47.2220 C   0  0  0  0  0  0  0  0  0  0  0  0
   57.6565   31.8993   45.8975 H   0  0  0  0  0  0  0  0  0  0  0  0
   55.9855   32.4582   45.5397 H   0  0  0  0  0  0  0  0  0  0  0  0
   59.6213   30.2773   44.1823 H   0  0  0  0  0  0  0  0  0  0  0  0
   60.3506   28.1899   45.3392 H   0  0  0  0  0  0  0  0  0  0  0  0
   58.6484   26.6173   46.2712 H   0  0  0  0  0  0  0  0  0  0  0  0
   56.2163   27.1319   46.0480 H   0  0  0  0  0  0  0  0  0  0  0  0
   54.8690   30.2010   44.5600 H   0  0  0  0  0  0  0  0  0  0  0  0
   59.5530   33.2021   44.4299 H   0  0  0  0  0  0  0  0  0  0  0  0
   59.2003   34.9650   44.2893 H   0  0  0  0  0  0  0  0  0  0  0  0
   62.4088   34.9405   46.4202 H   0  0  0  0  0  0  0  0  0  0  0  0
   64.4282   33.5551   46.8994 H   0  0  0  0  0  0  0  0  0  0  0  0
   64.1743   31.1655   47.5800 H   0  0  0  0  0  0  0  0  0  0  0  0
   61.8979   30.1584   47.7798 H   0  0  0  0  0  0  0  0  0  0  0  0
   59.8729   31.5444   47.3174 H   0  0  0  0  0  0  0  0  0  0  0  0
  1  2  2  0
  2  3  1  0
  3  4  1  0
  4  5  1  0
  5  6  2  0
  6  7  1  0
  7  8  2  0
  8  9  1  0
  9 10  2  0
 10 11  1  0
  2 12  1  0
 12 13  1  0
 13 14  2  0
 13 15  2  0
 13 16  1  0
 16 17  2  0
 17 18  1  0
 18 19  2  0
 19 20  1  0
 20 21  2  0
 10  5  1  0
 21 16  1  0
  3 22  1  0
  3 23  1  0
  6 24  1  0
  7 25  1  0
  8 26  1  0
  9 27  1  0
 11 28  1  0
 12 29  1  0
 12 30  1  0
 17 31  1  0
 18 32  1  0
 19 33  1  0
 20 34  1  0
 21 35  1  0
M  END
>  <UniqueID>  (75) 
67

>  <SMILES>  (75) 
O=C(CSc1ccccc1O)CS(=O)(=O)c1ccccc1

>  <Energy>  (75) 
22.50371070608493

>  <Genealogy>  (75) 
O=C(CSc1ccccc1O)CS(=O)(=O)c1ccccc1 (3D coordinates assigned)
O=C(CSc1ccccc1O)CS(=O)(=O)c1ccccc1 (optimized conformer: 22.50371070608493 kcal/mol)

>  <smiles>  (75) 
O=C(CSc1ccccc1O)CS(=O)(=O)c1ccccc1

>  <score_type>  (75) 
oracle

>  <origin>  (75) 
adg

>  <m_score__min__energy>  (75) 
-9.2599999999999998

>  <m_primary>  (75) 
energy

$$$$
75:0
     RDKit          3D

 32 34  0  0  0  0  0  0  0  0999 V2000
   55.3760   29.8050   43.5610 O   0  0  0  0  0  0  0  0  0  0  0  0
   56.2310   29.6970   44.4800 C   0  0  0  0  0  0  0  0  0  0  0  0
   56.3260   28.4970   45.2580 N   0  0  0  0  0  0  0  0  0  0  0  0
   57.5220   27.9270   45.8100 C   0  0  0  0  0  0  0  0  0  0  0  0
   57.8210   28.0250   47.1830 C   0  0  0  0  0  0  0  0  0  0  0  0
   59.0060   27.4790   47.6870 C   0  0  0  0  0  0  0  0  0  0  0  0
   59.9060   26.8450   46.8300 C   0  0  0  0  0  0  0  0  0  0  0  0
   59.6310   26.7640   45.4640 C   0  0  0  0  0  0  0  0  0  0  0  0
   58.4470   27.3090   44.9500 C   0  0  0  0  0  0  0  0  0  0  0  0
   58.1330   27.1930   43.2250 Cl  0  0  0  0  0  0  0  0  0  0  0  0
   57.1810   30.7880   44.7250 C   0  0  0  0  0  0  0  0  0  0  0  0
   57.7690   31.1130   45.9320 C   0  0  0  0  0  0  0  0  0  0  0  0
   58.5680   32.2050   45.6300 C   0  0  0  0  0  0  0  0  0  0  0  0
   59.4310   32.9580   46.5750 C   0  0  0  0  0  0  0  0  0  0  0  0
   58.8690   33.8680   47.4910 C   0  0  0  0  0  0  0  0  0  0  0  0
   59.6850   34.5750   48.3800 C   0  0  0  0  0  0  0  0  0  0  0  0
   61.0680   34.3850   48.3660 C   0  0  0  0  0  0  0  0  0  0  0  0
   61.6390   33.4840   47.4630 C   0  0  0  0  0  0  0  0  0  0  0  0
   63.5320   33.2270   47.4440 Br  0  0  0  0  0  0  0  0  0  0  0  0
   60.8280   32.7740   46.5730 C   0  0  0  0  0  0  0  0  0  0  0  0
   58.4350   32.4790   44.3160 N   0  0  0  0  0  0  0  0  0  0  0  0
   57.6060   31.6200   43.8030 O   0  0  0  0  0  0  0  0  0  0  0  0
   57.1198   28.5329   47.8615 H   0  0  0  0  0  0  0  0  0  0  0  0
   59.2289   27.5497   48.7619 H   0  0  0  0  0  0  0  0  0  0  0  0
   60.8328   26.4088   47.2310 H   0  0  0  0  0  0  0  0  0  0  0  0
   60.3459   26.2708   44.7890 H   0  0  0  0  0  0  0  0  0  0  0  0
   57.6346   30.6201   46.9061 H   0  0  0  0  0  0  0  0  0  0  0  0
   57.7802   34.0239   47.5074 H   0  0  0  0  0  0  0  0  0  0  0  0
   59.2358   35.2828   49.0922 H   0  0  0  0  0  0  0  0  0  0  0  0
   61.7076   34.9439   49.0650 H   0  0  0  0  0  0  0  0  0  0  0  0
   61.2840   32.0660   45.8654 H   0  0  0  0  0  0  0  0  0  0  0  0
   58.9150   33.2260   43.7690 H   0  0  0  0  0  0  0  0  0  0  0  0
  1  2  2  0
  2  3  1  0
  3  4  1  0
  4  5  2  0
  5  6  1  0
  6  7  2  0
  7  8  1  0
  8  9  2  0
  9 10  1  0
  2 11  1  0
 11 12  2  0
 12 13  1  0
 13 14  1  0
 14 15  2  0
 15 16  1  0
 16 17  2  0
 17 18  1  0
 18 19  1  0
 18 20  2  0
 13 21  2  0
 21 22  1  0
  9  4  1  0
 22 11  1  0
 20 14  1  0
  5 23  1  0
  6 24  1  0
  7 25  1  0
  8 26  1  0
 12 27  1  0
 15 28  1  0
 16 29  1  0
 17 30  1  0
 20 31  1  0
 21 32  1  0
M  CHG  2   3  -1  21   1
M  END
>  <UniqueID>  (76) 
68

>  <SMILES>  (76) 
O=C([N-]c1ccccc1Cl)c1cc(-c2cccc(Br)c2)[nH+]o1

>  <Energy>  (76) 
70.84489692689753

>  <Genealogy>  (76) 
O=C([N-]c1ccccc1Cl)c1cc(-c2cccc(Br)c2)[nH+]o1 (protonated)
O=C([N-]c1ccccc1Cl)c1cc(-c2cccc(Br)c2)[nH+]o1 (3D coordinates assigned)
O=C([N-]c1ccccc1Cl)c1cc(-c2cccc(Br)c2)[nH+]o1 (optimized conformer: 70.84489692689753 kcal/mol)

>  <smiles>  (76) 
O=C(Nc1ccccc1Cl)c1cc(-c2cccc(Br)c2)no1

>  <score_type>  (76) 
oracle

>  <origin>  (76) 
adg

>  <m_score__min__energy>  (76) 
-8.6600000000000001

>  <m_primary>  (76) 
energy

$$$$
76:0
     RDKit          3D

 40 41  0  0  0  0  0  0  0  0999 V2000
   55.1260   29.3300   44.6970 N   0  0  0  0  0  0  0  0  0  0  0  0
   56.7970   29.7260   44.8940 S   0  0  0  0  0  0  0  0  0  0  0  0
   57.3540   29.0230   46.1010 O   0  0  0  0  0  0  0  0  0  0  0  0
   57.5550   29.2830   43.6750 O   0  0  0  0  0  0  0  0  0  0  0  0
   56.9760   31.4400   45.0770 N   0  0  0  0  0  0  0  0  0  0  0  0
   58.1480   32.0960   45.5770 C   0  0  0  0  0  0  0  0  0  0  0  0
   58.1660   33.4950   45.6220 C   0  0  0  0  0  0  0  0  0  0  0  0
   59.2970   34.1780   46.0790 C   0  0  0  0  0  0  0  0  0  0  0  0
   60.4350   33.4630   46.4970 C   0  0  0  0  0  0  0  0  0  0  0  0
   61.6030   34.0940   46.9530 O   0  0  0  0  0  0  0  0  0  0  0  0
   62.9200   33.8810   46.4400 C   0  0  0  0  0  0  0  0  0  0  0  0
   63.7540   33.0600   47.4260 C   0  0  0  0  0  0  0  0  0  0  0  0
   63.2070   33.1840   48.7830 N   0  0  0  0  0  0  0  0  0  0  0  0
   62.8880   31.8770   49.3710 C   0  0  0  0  0  0  0  0  0  0  0  0
   61.3940   31.7570   49.5680 C   0  0  0  0  0  0  0  0  0  0  0  0
   60.8330   30.4670   49.5250 C   0  0  0  0  0  0  0  0  0  0  0  0
   59.4560   30.2810   49.6480 C   0  0  0  0  0  0  0  0  0  0  0  0
   58.6140   31.3810   49.7980 C   0  0  0  0  0  0  0  0  0  0  0  0
   59.1500   32.6690   49.8400 C   0  0  0  0  0  0  0  0  0  0  0  0
   60.5310   32.8740   49.7290 C   0  0  0  0  0  0  0  0  0  0  0  0
   60.9920   34.1920   49.7900 O   0  0  0  0  0  0  0  0  0  0  0  0
   60.4080   32.0640   46.4710 C   0  0  0  0  0  0  0  0  0  0  0  0
   59.2780   31.3820   46.0120 C   0  0  0  0  0  0  0  0  0  0  0  0
   54.6900   29.3650   45.6460 H   0  0  0  0  0  0  0  0  0  0  0  0
   57.2821   34.0622   45.2948 H   0  0  0  0  0  0  0  0  0  0  0  0
   59.2975   35.2775   46.1120 H   0  0  0  0  0  0  0  0  0  0  0  0
   62.8530   33.3400   45.4846 H   0  0  0  0  0  0  0  0  0  0  0  0
   63.4053   34.8568   46.2905 H   0  0  0  0  0  0  0  0  0  0  0  0
   63.7370   32.0027   47.1231 H   0  0  0  0  0  0  0  0  0  0  0  0
   64.7874   33.4369   47.4210 H   0  0  0  0  0  0  0  0  0  0  0  0
   62.3230   33.7440   48.7230 H   0  0  0  0  0  0  0  0  0  0  0  0
   63.2331   31.0790   48.6971 H   0  0  0  0  0  0  0  0  0  0  0  0
   63.3921   31.7829   50.3441 H   0  0  0  0  0  0  0  0  0  0  0  0
   61.4890   29.5940   49.3927 H   0  0  0  0  0  0  0  0  0  0  0  0
   59.0346   29.2652   49.6266 H   0  0  0  0  0  0  0  0  0  0  0  0
   57.5272   31.2343   49.8833 H   0  0  0  0  0  0  0  0  0  0  0  0
   58.4801   33.5330   49.9617 H   0  0  0  0  0  0  0  0  0  0  0  0
   61.5320   34.6410   49.0650 H   0  0  0  0  0  0  0  0  0  0  0  0
   61.2847   31.4958   46.8152 H   0  0  0  0  0  0  0  0  0  0  0  0
   59.2727   30.2822   45.9910 H   0  0  0  0  0  0  0  0  0  0  0  0
  1  2  1  0
  2  3  2  0
  2  4  2  0
  2  5  1  0
  5  6  1  0
  6  7  2  0
  7  8  1  0
  8  9  2  0
  9 10  1  0
 10 11  1  0
 11 12  1  0
 12 13  1  0
 13 14  1  0
 14 15  1  0
 15 16  2  0
 16 17  1  0
 17 18  2  0
 18 19  1  0
 19 20  2  0
 20 21  1  0
  9 22  1  0
 22 23  2  0
 23  6  1  0
 20 15  1  0
  1 24  1  0
  7 25  1  0
  8 26  1  0
 11 27  1  0
 11 28  1  0
 12 29  1  0
 12 30  1  0
 13 31  1  0
 14 32  1  0
 14 33  1  0
 16 34  1  0
 17 35  1  0
 18 36  1  0
 19 37  1  0
 21 38  1  0
 22 39  1  0
 23 40  1  0
M  CHG  2   1  -1   5  -1
M  END
>  <UniqueID>  (77) 
69

>  <SMILES>  (77) 
[NH-]S(=O)(=O)[N-]c1ccc(OCCNCc2ccccc2O)cc1

>  <Energy>  (77) 
38.92604881801467

>  <Genealogy>  (77) 
[NH-]S(=O)(=O)[N-]c1ccc(OCCNCc2ccccc2O)cc1 (protonated)
[NH-]S(=O)(=O)[N-]c1ccc(OCCNCc2ccccc2O)cc1 (3D coordinates assigned)
[NH-]S(=O)(=O)[N-]c1ccc(OCCNCc2ccccc2O)cc1 (optimized conformer: 38.92604881801467 kcal/mol)

>  <smiles>  (77) 
NS(=O)(=O)Nc1ccc(OCCNCc2ccccc2O)cc1

>  <score_type>  (77) 
oracle

>  <origin>  (77) 
adg

>  <m_score__min__energy>  (77) 
-10.99

>  <m_primary>  (77) 
energy

$$$$
77:0
     RDKit          3D

 41 43  0  0  0  0  0  0  0  0999 V2000
   56.3950   30.2240   43.8750 C   0  0  0  0  0  0  0  0  0  0  0  0
   56.1640   31.4440   44.5720 O   0  0  0  0  0  0  0  0  0  0  0  0
   57.1790   32.2850   45.0530 C   0  0  0  0  0  0  0  0  0  0  0  0
   57.0920   33.6560   44.7840 C   0  0  0  0  0  0  0  0  0  0  0  0
   58.0870   34.5300   45.2290 C   0  0  0  0  0  0  0  0  0  0  0  0
   59.1860   34.0380   45.9380 C   0  0  0  0  0  0  0  0  0  0  0  0
   59.3000   32.6650   46.2090 C   0  0  0  0  0  0  0  0  0  0  0  0
   60.4730   32.1510   46.9520 C   0  0  0  0  0  0  0  0  0  0  0  0
   61.5250   32.9300   47.4090 C   0  0  0  0  0  0  0  0  0  0  0  0
   62.3280   32.0520   48.1160 C   0  0  0  0  0  0  0  0  0  0  0  0
   63.5540   32.4100   48.8980 C   0  0  0  0  0  0  0  0  0  0  0  0
   63.2320   33.3010   49.9040 F   0  0  0  0  0  0  0  0  0  0  0  0
   64.0900   31.2660   49.4570 F   0  0  0  0  0  0  0  0  0  0  0  0
   64.4910   32.9930   48.0660 F   0  0  0  0  0  0  0  0  0  0  0  0
   61.7730   30.8260   48.0930 N   0  0  0  0  0  0  0  0  0  0  0  0
   60.6610   30.8760   47.3760 N   0  0  0  0  0  0  0  0  0  0  0  0
   59.8560   29.7210   47.0830 C   0  0  0  0  0  0  0  0  0  0  0  0
   59.9210   29.1040   45.8220 C   0  0  0  0  0  0  0  0  0  0  0  0
   59.1020   28.0100   45.5300 C   0  0  0  0  0  0  0  0  0  0  0  0
   58.2240   27.5080   46.4990 C   0  0  0  0  0  0  0  0  0  0  0  0
   57.1600   26.1580   46.1150 S   0  0  0  0  0  0  0  0  0  0  0  0
   55.5320   26.7250   45.9980 N   0  0  0  0  0  0  0  0  0  0  0  0
   57.5730   25.5400   44.8090 O   0  0  0  0  0  0  0  0  0  0  0  0
   57.2510   25.1150   47.1920 O   0  0  0  0  0  0  0  0  0  0  0  0
   58.1730   28.1080   47.7650 C   0  0  0  0  0  0  0  0  0  0  0  0
   58.9900   29.2030   48.0570 C   0  0  0  0  0  0  0  0  0  0  0  0
   58.2770   31.7970   45.7870 C   0  0  0  0  0  0  0  0  0  0  0  0
   56.5489   29.4111   44.5999 H   0  0  0  0  0  0  0  0  0  0  0  0
   55.5248   29.9921   43.2433 H   0  0  0  0  0  0  0  0  0  0  0  0
   57.2897   30.3263   43.2433 H   0  0  0  0  0  0  0  0  0  0  0  0
   56.2340   34.0480   44.2182 H   0  0  0  0  0  0  0  0  0  0  0  0
   58.0051   35.6070   45.0209 H   0  0  0  0  0  0  0  0  0  0  0  0
   59.9666   34.7305   46.2860 H   0  0  0  0  0  0  0  0  0  0  0  0
   61.6856   34.0059   47.2460 H   0  0  0  0  0  0  0  0  0  0  0  0
   62.1540   29.9650   48.5460 H   0  0  0  0  0  0  0  0  0  0  0  0
   60.6194   29.4838   45.0617 H   0  0  0  0  0  0  0  0  0  0  0  0
   59.1470   27.5415   44.5358 H   0  0  0  0  0  0  0  0  0  0  0  0
   55.5280   27.4950   45.2910 H   0  0  0  0  0  0  0  0  0  0  0  0
   57.4877   27.7155   48.5307 H   0  0  0  0  0  0  0  0  0  0  0  0
   58.9539   29.6614   49.0563 H   0  0  0  0  0  0  0  0  0  0  0  0
   58.3353   30.7264   46.0328 H   0  0  0  0  0  0  0  0  0  0  0  0
  1  2  1  0
  2  3  1  0
  3  4  2  0
  4  5  1  0
  5  6  2  0
  6  7  1  0
  7  8  1  0
  8  9  2  0
  9 10  1  0
 10 11  1  0
 11 12  1  0
 11 13  1  0
 11 14  1  0
 10 15  2  0
 15 16  1  0
 16 17  1  0
 17 18  2  0
 18 19  1  0
 19 20  2  0
 20 21  1  0
 21 22  1  0
 21 23  2  0
 21 24  2  0
 20 25  1  0
 25 26  2  0
  7 27  2  0
 27  3  1  0
 16  8  1  0
 26 17  1  0
  1 28  1  0
  1 29  1  0
  1 30  1  0
  4 31  1  0
  5 32  1  0
  6 33  1  0
  9 34  1  0
 15 35  1  0
 18 36  1  0
 19 37  1  0
 22 38  1  0
 25 39  1  0
 26 40  1  0
 27 41  1  0
M  CHG  2  15   1  22  -1
M  END
>  <UniqueID>  (78) 
70

>  <SMILES>  (78) 
COc1cccc(-c2cc(C(F)(F)F)[nH+]n2-c2ccc(S([NH-])(=O)=O)cc2)c1

>  <Energy>  (78) 
80.18535422658276

>  <Genealogy>  (78) 
COc1cccc(-c2cc(C(F)(F)F)[nH+]n2-c2ccc(S([NH-])(=O)=O)cc2)c1 (protonated)
COc1cccc(-c2cc(C(F)(F)F)[nH+]n2-c2ccc(S([NH-])(=O)=O)cc2)c1 (3D coordinates assigned)
COc1cccc(-c2cc(C(F)(F)F)[nH+]n2-c2ccc(S([NH-])(=O)=O)cc2)c1 (optimized conformer: 80.18535422658276 kcal/mol)

>  <smiles>  (78) 
COc1cccc(-c2cc(C(F)(F)F)nn2-c2ccc(S(N)(=O)=O)cc2)c1

>  <score_type>  (78) 
oracle

>  <origin>  (78) 
adg

>  <m_score__min__energy>  (78) 
-9.3200000000000003

>  <m_primary>  (78) 
energy

$$$$
78:0
     RDKit          3D

 49 51  0  0  0  0  0  0  0  0999 V2000
   57.8360   26.1040   42.3370 C   0  0  0  0  0  0  0  0  0  0  0  0
   57.9310   26.3690   43.8150 C   0  0  0  0  0  0  0  0  0  0  0  0
   58.2010   27.6700   44.2770 C   0  0  0  0  0  0  0  0  0  0  0  0
   58.2920   27.9480   45.6600 C   0  0  0  0  0  0  0  0  0  0  0  0
   58.6120   29.3060   46.2050 C   0  0  0  0  0  0  0  0  0  0  0  0
   59.7200   29.4580   46.7970 O   0  0  0  0  0  0  0  0  0  0  0  0
   57.6790   30.4290   46.1660 N   0  0  1  0  0  0  0  0  0  0  0  0
   58.1140   31.4700   47.1470 C   0  0  0  0  0  0  0  0  0  0  0  0
   58.9430   32.5890   46.5100 C   0  0  0  0  0  0  0  0  0  0  0  0
   58.1470   33.3220   45.4200 C   0  0  0  0  0  0  0  0  0  0  0  0
   57.0210   32.4630   44.8190 C   0  0  0  0  0  0  0  0  0  0  0  0
   57.3770   30.9440   44.7660 C   0  0  1  0  0  0  0  0  0  0  0  0
   58.5440   30.7700   43.7470 C   0  0  0  0  0  0  0  0  0  0  0  0
   56.1960   30.1710   44.1780 C   0  0  0  0  0  0  0  0  0  0  0  0
   55.3450   29.3700   45.0040 N   0  0  0  0  0  0  0  0  0  0  0  0
   55.9150   30.2990   42.9560 O   0  0  0  0  0  0  0  0  0  0  0  0
   58.0930   26.8880   46.5670 C   0  0  0  0  0  0  0  0  0  0  0  0
   57.8330   25.5970   46.1150 C   0  0  0  0  0  0  0  0  0  0  0  0
   57.7650   25.3200   44.7450 C   0  0  0  0  0  0  0  0  0  0  0  0
   57.5550   23.9650   44.3110 N   0  0  0  0  0  0  0  0  0  0  0  0
   56.4850   23.6940   43.5060 C   0  0  0  0  0  0  0  0  0  0  0  0
   56.2700   22.4010   43.0210 C   0  0  0  0  0  0  0  0  0  0  0  0
   57.1590   21.3870   43.3590 C   0  0  0  0  0  0  0  0  0  0  0  0
   58.2500   21.6690   44.1780 C   0  0  0  0  0  0  0  0  0  0  0  0
   58.4380   22.9740   44.6530 C   0  0  0  0  0  0  0  0  0  0  0  0
   59.4200   23.2230   45.4040 O   0  0  0  0  0  0  0  0  0  0  0  0
   57.4690   25.0804   42.1709 H   0  0  0  0  0  0  0  0  0  0  0  0
   57.1393   26.8220   41.8798 H   0  0  0  0  0  0  0  0  0  0  0  0
   58.8302   26.2158   41.8798 H   0  0  0  0  0  0  0  0  0  0  0  0
   58.3435   28.4837   43.5507 H   0  0  0  0  0  0  0  0  0  0  0  0
   56.7750   30.1040   46.5780 H   0  0  0  0  0  0  0  0  0  0  0  0
   57.2183   31.9154   47.6046 H   0  0  0  0  0  0  0  0  0  0  0  0
   58.7533   30.9719   47.8908 H   0  0  0  0  0  0  0  0  0  0  0  0
   59.2308   33.3098   47.2894 H   0  0  0  0  0  0  0  0  0  0  0  0
   59.8341   32.1403   46.0467 H   0  0  0  0  0  0  0  0  0  0  0  0
   57.7015   34.2266   45.8595 H   0  0  0  0  0  0  0  0  0  0  0  0
   58.8472   33.5633   44.6067 H   0  0  0  0  0  0  0  0  0  0  0  0
   56.1170   32.5903   45.4327 H   0  0  0  0  0  0  0  0  0  0  0  0
   56.8647   32.8014   43.7841 H   0  0  0  0  0  0  0  0  0  0  0  0
   59.4889   30.6291   44.2922 H   0  0  0  0  0  0  0  0  0  0  0  0
   58.3508   29.8907   43.1149 H   0  0  0  0  0  0  0  0  0  0  0  0
   58.6157   31.6674   43.1149 H   0  0  0  0  0  0  0  0  0  0  0  0
   55.6000   29.1590   45.9960 H   0  0  0  0  0  0  0  0  0  0  0  0
   58.1438   27.0835   47.6483 H   0  0  0  0  0  0  0  0  0  0  0  0
   57.6794   24.7863   46.8424 H   0  0  0  0  0  0  0  0  0  0  0  0
   55.7867   24.5003   43.2373 H   0  0  0  0  0  0  0  0  0  0  0  0
   55.4042   22.1873   42.3769 H   0  0  0  0  0  0  0  0  0  0  0  0
   57.0015   20.3660   42.9812 H   0  0  0  0  0  0  0  0  0  0  0  0
   58.9589   20.8730   44.4499 H   0  0  0  0  0  0  0  0  0  0  0  0
  1  2  1  0
  2  3  2  0
  3  4  1  0
  4  5  1  0
  5  6  2  0
  5  7  1  0
  7  8  1  0
  8  9  1  0
  9 10  1  0
 10 11  1  0
 11 12  1  0
 12 13  1  6
 12 14  1  0
 14 15  1  0
 14 16  2  0
  4 17  2  0
 17 18  1  0
 18 19  2  0
 19 20  1  0
 20 21  1  0
 21 22  2  0
 22 23  1  0
 23 24  2  0
 24 25  1  0
 25 26  2  0
 19  2  1  0
 25 20  1  0
 12  7  1  0
  1 27  1  0
  1 28  1  0
  1 29  1  0
  3 30  1  0
  7 31  1  1
  8 32  1  0
  8 33  1  0
  9 34  1  0
  9 35  1  0
 10 36  1  0
 10 37  1  0
 11 38  1  0
 11 39  1  0
 13 40  1  0
 13 41  1  0
 13 42  1  0
 15 43  1  0
 17 44  1  0
 18 45  1  0
 21 46  1  0
 22 47  1  0
 23 48  1  0
 24 49  1  0
M  CHG  2   7   1  15  -1
M  END
>  <UniqueID>  (79) 
71

>  <SMILES>  (79) 
Cc1cc(C(=O)[N@H+]2CCCC[C@]2(C)C([NH-])=O)ccc1-n1ccccc1=O

>  <Energy>  (79) 
85.33454664316183

>  <Genealogy>  (79) 
Cc1cc(C(=O)[NH+]2CCCCC2(C)C([NH-])=O)ccc1-n1ccccc1=O (protonated)
Cc1cc(C(=O)[N@H+]2CCCC[C@]2(C)C([NH-])=O)ccc1-n1ccccc1=O (chirality)
Cc1cc(C(=O)[N@H+]2CCCC[C@]2(C)C([NH-])=O)ccc1-n1ccccc1=O (3D coordinates assigned)
Cc1cc(C(=O)[N@H+]2CCCC[C@]2(C)C([NH-])=O)ccc1-n1ccccc1=O (nonaromatic ring conformer: 85.33454664316183 kcal/mol)

>  <smiles>  (79) 
Cc1cc(C(=O)N2CCCCC2(C)C(N)=O)ccc1-n1ccccc1=O

>  <score_type>  (79) 
oracle

>  <origin>  (79) 
adg

>  <m_score__min__energy>  (79) 
-10.27

>  <m_primary>  (79) 
energy

$$$$
79:0
     RDKit          3D

 48 50  0  0  0  0  0  0  0  0999 V2000
   57.6200   32.6400   46.5850 H   0  0  0  0  0  0  0  0  0  0  0  0
   57.7830   33.6690   46.5610 N   0  0  0  0  0  0  0  0  0  0  0  0
   58.7550   34.2250   45.9040 C   0  0  0  0  0  0  0  0  0  0  0  0
   58.9650   33.9680   44.5040 N   0  0  0  0  0  0  0  0  0  0  0  0
   59.7560   34.4630   44.0330 H   0  0  0  0  0  0  0  0  0  0  0  0
   58.1270   33.0590   43.7210 C   0  0  0  0  0  0  0  0  0  0  0  0
   57.1569   33.5396   43.5263 H   0  0  0  0  0  0  0  0  0  0  0  0
   58.6383   32.8342   42.7734 H   0  0  0  0  0  0  0  0  0  0  0  0
   57.9010   31.7780   44.4620 C   0  0  0  0  0  0  0  0  0  0  0  0
   58.7750   31.2510   45.3350 N   0  0  0  0  0  0  0  0  0  0  0  0
   58.1350   30.1570   45.8040 C   0  0  0  0  0  0  0  0  0  0  0  0
   58.7050   29.2370   46.8020 C   0  0  0  0  0  0  0  0  0  0  0  0
   58.3287   28.2046   46.8520 H   0  0  0  0  0  0  0  0  0  0  0  0
   59.6680   29.6190   47.6510 C   0  0  0  0  0  0  0  0  0  0  0  0
   60.5988   29.0340   47.6889 H   0  0  0  0  0  0  0  0  0  0  0  0
   59.5330   30.7980   48.5430 C   0  0  0  0  0  0  0  0  0  0  0  0
   58.7090   30.7320   49.6860 C   0  0  0  0  0  0  0  0  0  0  0  0
   58.2128   29.7855   49.9468 H   0  0  0  0  0  0  0  0  0  0  0  0
   58.5180   31.8580   50.4890 C   0  0  0  0  0  0  0  0  0  0  0  0
   57.3920   31.7520   52.0290 Br  0  0  0  0  0  0  0  0  0  0  0  0
   59.1380   33.0630   50.1630 C   0  0  0  0  0  0  0  0  0  0  0  0
   58.9850   33.9487   50.7971 H   0  0  0  0  0  0  0  0  0  0  0  0
   59.9520   33.1470   49.0340 C   0  0  0  0  0  0  0  0  0  0  0  0
   60.4389   34.1011   48.7839 H   0  0  0  0  0  0  0  0  0  0  0  0
   60.1570   32.0250   48.2120 C   0  0  0  0  0  0  0  0  0  0  0  0
   61.0260   32.1230   47.0680 N   0  0  0  0  0  0  0  0  0  0  0  0
   60.6280   32.0790   46.1040 H   0  0  0  0  0  0  0  0  0  0  0  0
   62.7150   32.4880   47.2140 S   0  0  0  0  0  0  0  0  0  0  0  0
   63.0450   33.6730   46.3520 O   0  0  0  0  0  0  0  0  0  0  0  0
   63.5180   31.3040   46.7500 O   0  0  0  0  0  0  0  0  0  0  0  0
   63.0960   32.8840   48.8870 C   0  0  0  0  0  0  0  0  0  0  0  0
   62.9680   34.2070   49.3340 C   0  0  0  0  0  0  0  0  0  0  0  0
   62.6457   34.9933   48.6356 H   0  0  0  0  0  0  0  0  0  0  0  0
   63.2490   34.5290   50.6650 C   0  0  0  0  0  0  0  0  0  0  0  0
   63.1442   35.5672   51.0131 H   0  0  0  0  0  0  0  0  0  0  0  0
   63.6630   33.5330   51.5540 C   0  0  0  0  0  0  0  0  0  0  0  0
   63.8841   33.7875   52.6011 H   0  0  0  0  0  0  0  0  0  0  0  0
   63.7960   32.2130   51.1120 C   0  0  0  0  0  0  0  0  0  0  0  0
   64.1227   31.4295   51.8116 H   0  0  0  0  0  0  0  0  0  0  0  0
   63.5140   31.8880   49.7810 C   0  0  0  0  0  0  0  0  0  0  0  0
   63.6204   30.8492   49.4351 H   0  0  0  0  0  0  0  0  0  0  0  0
   56.9020   29.9830   45.2800 N   0  0  0  0  0  0  0  0  0  0  0  0
   56.7570   31.0170   44.4340 C   0  0  0  0  0  0  0  0  0  0  0  0
   55.8678   31.2210   43.8194 H   0  0  0  0  0  0  0  0  0  0  0  0
   59.6360   35.2090   46.6080 C   0  0  0  0  0  0  0  0  0  0  0  0
   59.5264   35.0866   47.6957 H   0  0  0  0  0  0  0  0  0  0  0  0
   60.6837   35.0327   46.3229 H   0  0  0  0  0  0  0  0  0  0  0  0
   59.3454   36.2309   46.3229 H   0  0  0  0  0  0  0  0  0  0  0  0
  1  2  1  0
  2  3  2  3
  3  4  1  0
  4  5  1  0
  4  6  1  0
  6  7  1  0
  6  8  1  0
  6  9  1  0
  9 10  1  0
 10 11  2  0
 11 12  1  0
 12 13  1  0
 12 14  2  0
 14 15  1  0
 14 16  1  0
 16 17  2  0
 17 18  1  0
 17 19  1  0
 19 20  1  0
 19 21  2  0
 21 22  1  0
 21 23  1  0
 23 24  1  0
 23 25  2  0
 25 26  1  0
 26 27  1  0
 26 28  1  0
 28 29  2  0
 28 30  2  0
 28 31  1  0
 31 32  2  0
 32 33  1  0
 32 34  1  0
 34 35  1  0
 34 36  2  0
 36 37  1  0
 36 38  1  0
 38 39  1  0
 38 40  2  0
 40 41  1  0
 11 42  1  0
 42 43  1  0
 43 44  1  0
  3 45  1  0
 45 46  1  0
 45 47  1  0
 45 48  1  0
 43  9  2  0
 25 16  1  0
 40 31  1  0
M  CHG  1  42  -1
M  END
>  <UniqueID>  (80) 
72

>  <SMILES>  (80) 
CC(=N)NCc1c[n-]c(/C=C/c2cc(Br)ccc2NS(=O)(=O)c2ccccc2)n1

>  <Energy>  (80) 
80.26357247971377

>  <Genealogy>  (80) 
CC(=N)NCc1c[n-]c(C=Cc2cc(Br)ccc2NS(=O)(=O)c2ccccc2)n1 (protonated)
CC(=N)NCc1c[n-]c(/C=C/c2cc(Br)ccc2NS(=O)(=O)c2ccccc2)n1 (cis-trans isomerization)
CC(=N)NCc1c[n-]c(/C=C/c2cc(Br)ccc2NS(=O)(=O)c2ccccc2)n1 (3D coordinates assigned)
CC(=N)NCc1c[n-]c(/C=C/c2cc(Br)ccc2NS(=O)(=O)c2ccccc2)n1 (optimized conformer: 80.26357247971377 kcal/mol)

>  <smiles>  (80) 
CC(=N)NCc1c[nH]c(C=Cc2cc(Br)ccc2NS(=O)(=O)c2ccccc2)n1

>  <score_type>  (80) 
oracle

>  <origin>  (80) 
adg

>  <m_score__min__energy>  (80) 
-10.390000000000001

>  <m_primary>  (80) 
energy

$$$$
80:0
     RDKit          3D

 48 51  0  0  0  0  0  0  0  0999 V2000
   57.7550   25.9640   43.5370 C   0  0  0  0  0  0  0  0  0  0  0  0
   58.2130   27.0290   44.5110 C   0  0  0  0  0  0  0  0  0  0  0  0
   58.9920   26.6820   45.6420 C   0  0  0  0  0  0  0  0  0  0  0  0
   59.4730   25.0240   45.9950 Cl  0  0  0  0  0  0  0  0  0  0  0  0
   59.4180   27.6660   46.5330 C   0  0  0  0  0  0  0  0  0  0  0  0
   59.0890   29.0070   46.3360 C   0  0  0  0  0  0  0  0  0  0  0  0
   59.5780   29.9810   47.2690 N   0  0  0  0  0  0  0  0  0  0  0  0
   59.0640   30.0070   48.6380 C   0  0  0  0  0  0  0  0  0  0  0  0
   58.8850   31.4630   49.0690 C   0  0  0  0  0  0  0  0  0  0  0  0
   60.1210   32.2670   48.8980 N   0  0  0  0  0  0  0  0  0  0  0  0
   59.8850   33.7120   48.6780 C   0  0  0  0  0  0  0  0  0  0  0  0
   59.2360   34.0290   47.3460 C   0  0  0  0  0  0  0  0  0  0  0  0
   59.9200   34.7910   46.3810 C   0  0  0  0  0  0  0  0  0  0  0  0
   59.3250   35.0680   45.1470 C   0  0  0  0  0  0  0  0  0  0  0  0
   58.0350   34.6070   44.8720 C   0  0  0  0  0  0  0  0  0  0  0  0
   57.3330   33.8810   45.8360 C   0  0  0  0  0  0  0  0  0  0  0  0
   57.9250   33.5990   47.0710 C   0  0  0  0  0  0  0  0  0  0  0  0
   61.2000   31.6700   48.0770 C   0  0  0  0  0  0  0  0  0  0  0  0
   60.6710   30.8730   46.8740 C   0  0  0  0  0  0  0  0  0  0  0  0
   58.3010   29.3840   45.2300 C   0  0  0  0  0  0  0  0  0  0  0  0
   57.9310   30.7290   45.0330 C   0  0  0  0  0  0  0  0  0  0  0  0
   57.1590   31.1010   43.9360 C   0  0  0  0  0  0  0  0  0  0  0  0
   56.7370   30.1400   43.0210 C   0  0  0  0  0  0  0  0  0  0  0  0
   57.0790   28.8000   43.2010 C   0  0  0  0  0  0  0  0  0  0  0  0
   57.8630   28.3930   44.3060 C   0  0  0  0  0  0  0  0  0  0  0  0
   57.3805   25.0932   44.0952 H   0  0  0  0  0  0  0  0  0  0  0  0
   56.9508   26.3674   42.9041 H   0  0  0  0  0  0  0  0  0  0  0  0
   58.6010   25.6577   42.9041 H   0  0  0  0  0  0  0  0  0  0  0  0
   60.0235   27.3801   47.4057 H   0  0  0  0  0  0  0  0  0  0  0  0
   58.0953   29.4874   48.6792 H   0  0  0  0  0  0  0  0  0  0  0  0
   59.7708   29.5015   49.3125 H   0  0  0  0  0  0  0  0  0  0  0  0
   58.0853   31.9137   48.4629 H   0  0  0  0  0  0  0  0  0  0  0  0
   58.6334   31.4640   50.1398 H   0  0  0  0  0  0  0  0  0  0  0  0
   59.2298   34.0826   49.4801 H   0  0  0  0  0  0  0  0  0  0  0  0
   60.8700   34.2017   48.6795 H   0  0  0  0  0  0  0  0  0  0  0  0
   60.9290   35.1710   46.5990 H   0  0  0  0  0  0  0  0  0  0  0  0
   59.8731   35.6498   44.3912 H   0  0  0  0  0  0  0  0  0  0  0  0
   57.5726   34.8161   43.8961 H   0  0  0  0  0  0  0  0  0  0  0  0
   56.3123   33.5302   45.6236 H   0  0  0  0  0  0  0  0  0  0  0  0
   57.3625   33.0378   47.8317 H   0  0  0  0  0  0  0  0  0  0  0  0
   61.8451   32.4794   47.7045 H   0  0  0  0  0  0  0  0  0  0  0  0
   61.7507   30.9673   48.7196 H   0  0  0  0  0  0  0  0  0  0  0  0
   60.3031   31.5756   46.1118 H   0  0  0  0  0  0  0  0  0  0  0  0
   61.4925   30.2611   46.4730 H   0  0  0  0  0  0  0  0  0  0  0  0
   58.2557   31.4937   45.7540 H   0  0  0  0  0  0  0  0  0  0  0  0
   56.8819   32.1557   43.7918 H   0  0  0  0  0  0  0  0  0  0  0  0
   56.1314   30.4389   42.1527 H   0  0  0  0  0  0  0  0  0  0  0  0
   56.7346   28.0496   42.4742 H   0  0  0  0  0  0  0  0  0  0  0  0
  1  2  1  0
  2  3  2  0
  3  4  1  0
  3  5  1  0
  5  6  2  0
  6  7  1  0
  7  8  1  0
  8  9  1  0
  9 10  1  0
 10 11  1  0
 11 12  1  0
 12 13  2  0
 13 14  1  0
 14 15  2  0
 15 16  1  0
 16 17  2  0
 10 18  1  0
 18 19  1  0
  6 20  1  0
 20 21  2  0
 21 22  1  0
 22 23  2  0
 23 24  1  0
 24 25  2  0
 25  2  1  0
 19  7  1  0
 25 20  1  0
 17 12  1  0
  1 26  1  0
  1 27  1  0
  1 28  1  0
  5 29  1  0
  8 30  1  0
  8 31  1  0
  9 32  1  0
  9 33  1  0
 11 34  1  0
 11 35  1  0
 13 36  1  0
 14 37  1  0
 15 38  1  0
 16 39  1  0
 17 40  1  0
 18 41  1  0
 18 42  1  0
 19 43  1  0
 19 44  1  0
 21 45  1  0
 22 46  1  0
 23 47  1  0
 24 48  1  0
M  END
>  <UniqueID>  (81) 
73

>  <SMILES>  (81) 
Cc1c(Cl)cc(N2CCN(Cc3ccccc3)CC2)c2ccccc12

>  <Energy>  (81) 
73.51844219003156

>  <Genealogy>  (81) 
Cc1c(Cl)cc(N2CCN(Cc3ccccc3)CC2)c2ccccc12 (3D coordinates assigned)
Cc1c(Cl)cc(N2CCN(Cc3ccccc3)CC2)c2ccccc12 (nonaromatic ring conformer: 73.51844219003156 kcal/mol)

>  <smiles>  (81) 
Cc1c(Cl)cc(N2CCN(Cc3ccccc3)CC2)c2ccccc12

>  <score_type>  (81) 
oracle

>  <origin>  (81) 
adg

>  <m_score__min__energy>  (81) 
-8.9299999999999997

>  <m_primary>  (81) 
energy

$$$$
81:0
     RDKit          3D

 30 31  0  0  0  0  0  0  0  0999 V2000
   56.9145   24.9625   47.2009 H   0  0  0  0  0  0  0  0  0  0  0  0
   57.1290   25.9170   46.6980 C   0  0  0  0  0  0  0  0  0  0  0  0
   56.1690   26.6320   46.0510 N   0  0  0  0  0  0  0  0  0  0  0  0
   56.6690   27.7570   45.5010 C   0  0  0  0  0  0  0  0  0  0  0  0
   55.9150   28.6110   44.8730 N   0  0  0  0  0  0  0  0  0  0  0  0
   56.3090   29.9080   44.4050 C   0  0  0  0  0  0  0  0  0  0  0  0
   55.5220   30.8770   44.5740 O   0  0  0  0  0  0  0  0  0  0  0  0
   57.5360   30.0960   43.6840 N   0  0  0  0  0  0  0  0  0  0  0  0
   58.0680   29.2620   43.3490 H   0  0  0  0  0  0  0  0  0  0  0  0
   58.0230   31.4190   43.3000 C   0  0  0  0  0  0  0  0  0  0  0  0
   57.2283   31.9559   42.7613 H   0  0  0  0  0  0  0  0  0  0  0  0
   58.9044   31.3018   42.6524 H   0  0  0  0  0  0  0  0  0  0  0  0
   58.4140   32.2060   44.5210 C   0  0  0  0  0  0  0  0  0  0  0  0
   58.8270   31.5370   45.6840 C   0  0  0  0  0  0  0  0  0  0  0  0
   58.8486   30.4374   45.7047 H   0  0  0  0  0  0  0  0  0  0  0  0
   59.2110   32.2620   46.8160 C   0  0  0  0  0  0  0  0  0  0  0  0
   59.5278   31.7318   47.7262 H   0  0  0  0  0  0  0  0  0  0  0  0
   59.1930   33.6610   46.7930 C   0  0  0  0  0  0  0  0  0  0  0  0
   59.6850   34.5910   48.2460 S   0  0  0  0  0  0  0  0  0  0  0  0
   61.3340   33.8230   48.3280 C   0  0  0  0  0  0  0  0  0  0  0  0
   61.6237   33.6881   49.3806 H   0  0  0  0  0  0  0  0  0  0  0  0
   61.3080   32.8443   47.8265 H   0  0  0  0  0  0  0  0  0  0  0  0
   62.0664   34.4727   47.8265 H   0  0  0  0  0  0  0  0  0  0  0  0
   58.7820   34.3340   45.6370 C   0  0  0  0  0  0  0  0  0  0  0  0
   58.7618   35.4337   45.6197 H   0  0  0  0  0  0  0  0  0  0  0  0
   58.3970   33.6110   44.5040 C   0  0  0  0  0  0  0  0  0  0  0  0
   58.0795   34.1441   43.5957 H   0  0  0  0  0  0  0  0  0  0  0  0
   58.3190   27.9230   45.8200 S   0  0  0  0  0  0  0  0  0  0  0  0
   58.4000   26.4790   46.6780 C   0  0  0  0  0  0  0  0  0  0  0  0
   59.3018   26.0534   47.1425 H   0  0  0  0  0  0  0  0  0  0  0  0
  1  2  1  0
  2  3  1  0
  3  4  1  0
  4  5  2  0
  5  6  1  0
  6  7  2  0
  6  8  1  0
  8  9  1  0
  8 10  1  0
 10 11  1  0
 10 12  1  0
 10 13  1  0
 13 14  2  0
 14 15  1  0
 14 16  1  0
 16 17  1  0
 16 18  2  0
 18 19  1  0
 19 20  1  0
 20 21  1  0
 20 22  1  0
 20 23  1  0
 18 24  1  0
 24 25  1  0
 24 26  2  0
 26 27  1  0
  4 28  1  0
 28 29  1  0
 29 30  1  0
 29  2  2  0
 26 13  1  0
M  CHG  1   3  -1
M  END
>  <UniqueID>  (82) 
74

>  <SMILES>  (82) 
CSc1ccc(CNC(=O)/N=c2/[n-]ccs2)cc1

>  <Energy>  (82) 
59.31089122213779

>  <Genealogy>  (82) 
CSc1ccc(CNC(=O)N=c2[n-]ccs2)cc1 (protonated)
CSc1ccc(CNC(=O)/N=c2/[n-]ccs2)cc1 (cis-trans isomerization)
CSc1ccc(CNC(=O)/N=c2/[n-]ccs2)cc1 (3D coordinates assigned)
CSc1ccc(CNC(=O)/N=c2/[n-]ccs2)cc1 (optimized conformer: 59.31089122213779 kcal/mol)

>  <smiles>  (82) 
CSc1ccc(CNC(=O)N=c2[nH]ccs2)cc1

>  <score_type>  (82) 
oracle

>  <origin>  (82) 
adg

>  <m_score__min__energy>  (82) 
-8.8000000000000007

>  <m_primary>  (82) 
energy

$$$$
82:0
     RDKit          3D

 40 42  0  0  0  0  0  0  0  0999 V2000
   56.3940   20.5610   43.9320 N   0  0  0  0  0  0  0  0  0  0  0  0
   56.9500   21.6530   44.3550 C   0  0  0  0  0  0  0  0  0  0  0  0
   58.2710   21.6180   44.6110 N   0  0  0  0  0  0  0  0  0  0  0  0
   58.9480   22.7150   45.0590 C   0  0  0  0  0  0  0  0  0  0  0  0
   60.2000   22.5580   45.2670 N   0  0  0  0  0  0  0  0  0  0  0  0
   58.2530   23.8870   45.2520 C   0  0  0  0  0  0  0  0  0  0  0  0
   58.9040   25.0000   45.7000 C   0  0  0  0  0  0  0  0  0  0  0  0
   58.2010   26.1590   45.8870 C   0  0  0  0  0  0  0  0  0  0  0  0
   58.8890   27.3970   46.3780 C   0  0  0  0  0  0  0  0  0  0  0  0
   58.0290   28.5520   46.5780 C   0  0  0  0  0  0  0  0  0  0  0  0
   58.5790   29.8600   46.7070 N   0  0  0  0  0  0  0  0  0  0  0  0
   58.0110   30.9250   45.9750 C   0  0  0  0  0  0  0  0  0  0  0  0
   57.0330   30.6660   45.2330 O   0  0  0  0  0  0  0  0  0  0  0  0
   58.4770   32.2980   46.0210 C   0  0  0  0  0  0  0  0  0  0  0  0
   58.3820   33.0460   44.8640 C   0  0  0  0  0  0  0  0  0  0  0  0
   58.8190   34.3770   44.8580 C   0  0  0  0  0  0  0  0  0  0  0  0
   59.3490   34.9700   45.9860 C   0  0  0  0  0  0  0  0  0  0  0  0
   59.4420   34.2180   47.1330 C   0  0  0  0  0  0  0  0  0  0  0  0
   59.9520   34.7400   48.2740 F   0  0  0  0  0  0  0  0  0  0  0  0
   59.0050   32.9070   47.1250 C   0  0  0  0  0  0  0  0  0  0  0  0
   56.8240   26.2440   45.6330 C   0  0  0  0  0  0  0  0  0  0  0  0
   56.1870   25.1070   45.1820 C   0  0  0  0  0  0  0  0  0  0  0  0
   56.8830   23.9270   44.9870 C   0  0  0  0  0  0  0  0  0  0  0  0
   56.2610   22.7970   44.5400 N   0  0  0  0  0  0  0  0  0  0  0  0
   57.0290   19.7480   43.7680 H   0  0  0  0  0  0  0  0  0  0  0  0
   58.7940   20.7070   44.4580 H   0  0  0  0  0  0  0  0  0  0  0  0
   60.9080   22.2370   44.5870 H   0  0  0  0  0  0  0  0  0  0  0  0
   59.9835   24.9656   45.9087 H   0  0  0  0  0  0  0  0  0  0  0  0
   59.3679   27.1602   47.3396 H   0  0  0  0  0  0  0  0  0  0  0  0
   59.5994   27.6819   45.5879 H   0  0  0  0  0  0  0  0  0  0  0  0
   57.3427   28.5841   45.7189 H   0  0  0  0  0  0  0  0  0  0  0  0
   57.6030   28.3680   47.5753 H   0  0  0  0  0  0  0  0  0  0  0  0
   59.4050   30.1030   47.3290 H   0  0  0  0  0  0  0  0  0  0  0  0
   57.9646   32.5982   43.9501 H   0  0  0  0  0  0  0  0  0  0  0  0
   58.7377   34.9640   43.9313 H   0  0  0  0  0  0  0  0  0  0  0  0
   59.6879   36.0163   45.9677 H   0  0  0  0  0  0  0  0  0  0  0  0
   59.0862   32.3239   48.0542 H   0  0  0  0  0  0  0  0  0  0  0  0
   56.2725   27.1831   45.7879 H   0  0  0  0  0  0  0  0  0  0  0  0
   55.1074   25.1387   44.9738 H   0  0  0  0  0  0  0  0  0  0  0  0
   55.2340   22.8080   44.3370 H   0  0  0  0  0  0  0  0  0  0  0  0
  1  2  2  3
  2  3  1  0
  3  4  1  0
  4  5  2  3
  4  6  1  0
  6  7  2  0
  7  8  1  0
  8  9  1  0
  9 10  1  0
 10 11  1  0
 11 12  1  0
 12 13  2  0
 12 14  1  0
 14 15  2  0
 15 16  1  0
 16 17  2  0
 17 18  1  0
 18 19  1  0
 18 20  2  0
  8 21  2  0
 21 22  1  0
 22 23  2  0
 23 24  1  0
 24  2  1  0
 23  6  1  0
 20 14  1  0
  1 25  1  0
  3 26  1  0
  5 27  1  0
  7 28  1  0
  9 29  1  0
  9 30  1  0
 10 31  1  0
 10 32  1  0
 11 33  1  0
 15 34  1  0
 16 35  1  0
 17 36  1  0
 20 37  1  0
 21 38  1  0
 22 39  1  0
 24 40  1  0
M  END
>  <smiles>  (83) 
N=c1[nH]c(=N)c2cc(CCNC(=O)c3cccc(F)c3)ccc2[nH]1

>  <score_type>  (83) 
oracle

>  <origin>  (83) 
adg

>  <m_score__min__energy>  (83) 
-8.4600000000000009

>  <m_primary>  (83) 
energy

$$$$
83:0
     RDKit          3D

 57 60  0  0  0  0  0  0  0  0999 V2000
   60.0800   31.3390   46.3550 C   0  0  0  0  0  0  0  0  0  0  0  0
   58.5400   31.4090   46.5400 C   0  0  1  0  0  0  0  0  0  0  0  0
   58.1350   30.3700   47.4960 N   0  0  0  0  0  0  0  0  0  0  0  0
   58.9020   29.2350   47.9360 C   0  0  0  0  0  0  0  0  0  0  0  0
   58.9220   28.1670   47.2640 O   0  0  0  0  0  0  0  0  0  0  0  0
   59.6430   29.3040   49.2350 C   0  0  0  0  0  0  0  0  0  0  0  0
   59.2130   30.5470   50.0410 C   0  0  0  0  0  0  0  0  0  0  0  0
   60.2070   31.6450   50.0240 N   0  0  0  0  0  0  0  0  0  0  0  0
   61.4060   31.3420   50.8410 C   0  0  0  0  0  0  0  0  0  0  0  0
   62.5910   32.2790   50.5300 C   0  0  0  0  0  0  0  0  0  0  0  0
   62.5370   32.8340   49.1250 C   0  0  0  0  0  0  0  0  0  0  0  0
   63.4870   32.4370   48.1700 C   0  0  0  0  0  0  0  0  0  0  0  0
   63.4150   32.9200   46.8610 C   0  0  0  0  0  0  0  0  0  0  0  0
   62.3930   33.7960   46.4920 C   0  0  0  0  0  0  0  0  0  0  0  0
   61.4350   34.1940   47.4290 C   0  0  0  0  0  0  0  0  0  0  0  0
   61.4970   33.7200   48.7510 C   0  0  0  0  0  0  0  0  0  0  0  0
   60.4510   34.1450   49.7620 C   0  0  0  0  0  0  0  0  0  0  0  0
   59.6100   32.9670   50.3210 C   0  0  0  0  0  0  0  0  0  0  0  0
   58.1500   32.7630   47.1670 C   0  0  0  0  0  0  0  0  0  0  0  0
   58.4360   33.9950   46.2760 C   0  0  0  0  0  0  0  0  0  0  0  0
   58.5790   33.7160   44.7630 C   0  0  0  0  0  0  0  0  0  0  0  0
   57.9540   32.4220   44.3040 C   0  0  0  0  0  0  0  0  0  0  0  0
   57.5690   32.3110   42.9600 C   0  0  0  0  0  0  0  0  0  0  0  0
   56.9920   31.1370   42.4840 C   0  0  0  0  0  0  0  0  0  0  0  0
   56.7300   30.0900   43.3600 C   0  0  0  0  0  0  0  0  0  0  0  0
   57.0670   30.1900   44.7150 C   0  0  0  0  0  0  0  0  0  0  0  0
   56.5630   29.1960   45.5500 O   0  0  0  0  0  0  0  0  0  0  0  0
   57.8160   31.3140   45.1810 C   0  0  0  0  0  0  0  0  0  0  0  0
   60.5671   31.3169   47.3410 H   0  0  0  0  0  0  0  0  0  0  0  0
   60.3412   30.4281   45.7965 H   0  0  0  0  0  0  0  0  0  0  0  0
   60.4227   32.2225   45.7965 H   0  0  0  0  0  0  0  0  0  0  0  0
   59.4269   28.3997   49.8228 H   0  0  0  0  0  0  0  0  0  0  0  0
   60.7205   29.3733   49.0249 H   0  0  0  0  0  0  0  0  0  0  0  0
   58.2709   30.9257   49.6178 H   0  0  0  0  0  0  0  0  0  0  0  0
   59.1065   30.2281   51.0883 H   0  0  0  0  0  0  0  0  0  0  0  0
   61.1434   31.4478   51.9039 H   0  0  0  0  0  0  0  0  0  0  0  0
   61.7216   30.3162   50.5999 H   0  0  0  0  0  0  0  0  0  0  0  0
   62.5736   33.1177   51.2415 H   0  0  0  0  0  0  0  0  0  0  0  0
   63.5156   31.6901   50.6214 H   0  0  0  0  0  0  0  0  0  0  0  0
   64.2915   31.7426   48.4539 H   0  0  0  0  0  0  0  0  0  0  0  0
   64.1656   32.6091   46.1194 H   0  0  0  0  0  0  0  0  0  0  0  0
   62.3412   34.1745   45.4605 H   0  0  0  0  0  0  0  0  0  0  0  0
   60.6293   34.8809   47.1306 H   0  0  0  0  0  0  0  0  0  0  0  0
   60.9607   34.6378   50.6030 H   0  0  0  0  0  0  0  0  0  0  0  0
   59.7548   34.8186   49.2409 H   0  0  0  0  0  0  0  0  0  0  0  0
   59.5295   33.0792   51.4123 H   0  0  0  0  0  0  0  0  0  0  0  0
   58.6245   33.0027   49.8337 H   0  0  0  0  0  0  0  0  0  0  0  0
   57.0722   32.7414   47.3859 H   0  0  0  0  0  0  0  0  0  0  0  0
   58.7723   32.8793   48.0665 H   0  0  0  0  0  0  0  0  0  0  0  0
   57.6087   34.7074   46.4105 H   0  0  0  0  0  0  0  0  0  0  0  0
   59.4149   34.3767   46.6018 H   0  0  0  0  0  0  0  0  0  0  0  0
   58.1017   34.5416   44.2147 H   0  0  0  0  0  0  0  0  0  0  0  0
   59.6570   33.6320   44.5607 H   0  0  0  0  0  0  0  0  0  0  0  0
   57.7243   33.1586   42.2763 H   0  0  0  0  0  0  0  0  0  0  0  0
   56.7439   31.0380   41.4169 H   0  0  0  0  0  0  0  0  0  0  0  0
   56.2527   29.1729   42.9844 H   0  0  0  0  0  0  0  0  0  0  0  0
   57.0620   28.8820   46.3720 H   0  0  0  0  0  0  0  0  0  0  0  0
  1  2  1  0
  2  3  1  1
  3  4  1  0
  4  5  2  0
  4  6  1  0
  6  7  1  0
  7  8  1  0
  8  9  1  0
  9 10  1  0
 10 11  1  0
 11 12  2  0
 12 13  1  0
 13 14  2  0
 14 15  1  0
 15 16  2  0
 16 17  1  0
 17 18  1  0
  2 19  1  0
 19 20  1  0
 20 21  1  0
 21 22  1  0
 22 23  2  0
 23 24  1  0
 24 25  2  0
 25 26  1  0
 26 27  1  0
 26 28  2  0
 28  2  1  0
 18  8  1  0
 28 22  1  0
 16 11  1  0
  1 29  1  0
  1 30  1  0
  1 31  1  0
  6 32  1  0
  6 33  1  0
  7 34  1  0
  7 35  1  0
  9 36  1  0
  9 37  1  0
 10 38  1  0
 10 39  1  0
 12 40  1  0
 13 41  1  0
 14 42  1  0
 15 43  1  0
 17 44  1  0
 17 45  1  0
 18 46  1  0
 18 47  1  0
 19 48  1  0
 19 49  1  0
 20 50  1  0
 20 51  1  0
 21 52  1  0
 21 53  1  0
 23 54  1  0
 24 55  1  0
 25 56  1  0
 27 57  1  0
M  CHG  1   3  -1
M  END
>  <UniqueID>  (84) 
75

>  <SMILES>  (84) 
C[C@@]1([N-]C(=O)CCN2CCc3ccccc3CC2)CCCc2cccc(O)c21

>  <Energy>  (84) 
93.89757731083499

>  <Genealogy>  (84) 
CC1([N-]C(=O)CCN2CCc3ccccc3CC2)CCCc2cccc(O)c21 (protonated)
C[C@@]1([N-]C(=O)CCN2CCc3ccccc3CC2)CCCc2cccc(O)c21 (chirality)
C[C@@]1([N-]C(=O)CCN2CCc3ccccc3CC2)CCCc2cccc(O)c21 (3D coordinates assigned)
C[C@@]1([N-]C(=O)CCN2CCc3ccccc3CC2)CCCc2cccc(O)c21 (nonaromatic ring conformer: 93.89757731083499 kcal/mol)

>  <smiles>  (84) 
CC1(NC(=O)CCN2CCc3ccccc3CC2)CCCc2cccc(O)c21

>  <score_type>  (84) 
oracle

>  <origin>  (84) 
adg

>  <m_score__min__energy>  (84) 
-10.449999999999999

>  <m_primary>  (84) 
energy

$$$$
84:0
     RDKit          3D

 48 51  0  0  0  0  0  0  0  0999 V2000
   59.9360   27.4970   49.4640 O   0  0  0  0  0  0  0  0  0  0  0  0
   59.7640   27.7120   48.2340 C   0  0  0  0  0  0  0  0  0  0  0  0
   60.2540   28.8460   47.6820 N   0  0  0  0  0  0  0  0  0  0  0  0
   60.0890   29.1310   46.3640 C   0  0  0  0  0  0  0  0  0  0  0  0
   60.5690   30.2070   45.9150 O   0  0  0  0  0  0  0  0  0  0  0  0
   59.4070   28.2660   45.5420 N   0  0  0  0  0  0  0  0  0  0  0  0
   59.1860   28.5960   44.1160 C   0  0  0  0  0  0  0  0  0  0  0  0
   57.7370   28.3280   43.6710 C   0  0  0  0  0  0  0  0  0  0  0  0
   56.5280   28.9720   44.8210 S   0  0  0  0  0  0  0  0  0  0  0  0
   55.9230   27.8310   45.5900 O   0  0  0  0  0  0  0  0  0  0  0  0
   55.4540   29.6980   44.0600 O   0  0  0  0  0  0  0  0  0  0  0  0
   57.3240   30.0530   45.9170 N   0  0  0  0  0  0  0  0  0  0  0  0
   57.7560   31.3840   45.6100 C   0  0  0  0  0  0  0  0  0  0  0  0
   58.1650   32.2130   46.6620 C   0  0  0  0  0  0  0  0  0  0  0  0
   58.6050   33.5150   46.4070 C   0  0  0  0  0  0  0  0  0  0  0  0
   58.6360   33.9990   45.0960 C   0  0  0  0  0  0  0  0  0  0  0  0
   59.0710   35.2590   44.8470 F   0  0  0  0  0  0  0  0  0  0  0  0
   58.2160   33.1830   44.0410 C   0  0  0  0  0  0  0  0  0  0  0  0
   57.7760   31.8790   44.2930 C   0  0  0  0  0  0  0  0  0  0  0  0
   58.9150   27.0930   46.0630 C   0  0  0  0  0  0  0  0  0  0  0  0
   58.2530   26.2030   45.2730 N   0  0  0  0  0  0  0  0  0  0  0  0
   57.7360   25.0450   45.7670 C   0  0  0  0  0  0  0  0  0  0  0  0
   57.0260   24.1360   44.8980 N   0  0  0  0  0  0  0  0  0  0  0  0
   55.5650   24.2430   44.7740 C   0  0  0  0  0  0  0  0  0  0  0  0
   55.0830   23.5910   43.4750 C   0  0  0  0  0  0  0  0  0  0  0  0
   55.6150   22.2890   43.3340 O   0  0  0  0  0  0  0  0  0  0  0  0
   57.0170   22.3700   43.1790 C   0  0  0  0  0  0  0  0  0  0  0  0
   57.6720   22.8910   44.4600 C   0  0  0  0  0  0  0  0  0  0  0  0
   57.8870   24.7580   47.0890 N   0  0  0  0  0  0  0  0  0  0  0  0
   58.5420   25.6020   47.9250 C   0  0  0  0  0  0  0  0  0  0  0  0
   59.0780   26.7980   47.4300 C   0  0  0  0  0  0  0  0  0  0  0  0
   59.4123   29.6612   43.9604 H   0  0  0  0  0  0  0  0  0  0  0  0
   59.8463   27.9526   43.5159 H   0  0  0  0  0  0  0  0  0  0  0  0
   57.5770   28.8016   42.6911 H   0  0  0  0  0  0  0  0  0  0  0  0
   57.6014   27.2374   43.6243 H   0  0  0  0  0  0  0  0  0  0  0  0
   58.1398   31.8372   47.6955 H   0  0  0  0  0  0  0  0  0  0  0  0
   58.9271   34.1591   47.2385 H   0  0  0  0  0  0  0  0  0  0  0  0
   58.2316   33.5672   43.0104 H   0  0  0  0  0  0  0  0  0  0  0  0
   57.4454   31.2402   43.4608 H   0  0  0  0  0  0  0  0  0  0  0  0
   55.0920   23.7375   45.6289 H   0  0  0  0  0  0  0  0  0  0  0  0
   55.2883   25.3075   44.7593 H   0  0  0  0  0  0  0  0  0  0  0  0
   53.9847   23.5313   43.4884 H   0  0  0  0  0  0  0  0  0  0  0  0
   55.4253   24.2031   42.6276 H   0  0  0  0  0  0  0  0  0  0  0  0
   57.4138   21.3696   42.9513 H   0  0  0  0  0  0  0  0  0  0  0  0
   57.2430   23.0655   42.3573 H   0  0  0  0  0  0  0  0  0  0  0  0
   57.5725   22.1336   45.2515 H   0  0  0  0  0  0  0  0  0  0  0  0
   58.7347   23.0926   44.2599 H   0  0  0  0  0  0  0  0  0  0  0  0
   58.6521   25.3478   48.9895 H   0  0  0  0  0  0  0  0  0  0  0  0
  1  2  2  0
  2  3  1  0
  3  4  1  0
  4  5  2  0
  4  6  1  0
  6  7  1  0
  7  8  1  0
  8  9  1  0
  9 10  2  0
  9 11  2  0
  9 12  1  0
 12 13  1  0
 13 14  2  0
 14 15  1  0
 15 16  2  0
 16 17  1  0
 16 18  1  0
 18 19  2  0
  6 20  1  0
 20 21  2  0
 21 22  1  0
 22 23  1  0
 23 24  1  0
 24 25  1  0
 25 26  1  0
 26 27  1  0
 27 28  1  0
 22 29  2  0
 29 30  1  0
 30 31  2  0
 31  2  1  0
 19 13  1  0
 31 20  1  0
 28 23  1  0
  7 32  1  0
  7 33  1  0
  8 34  1  0
  8 35  1  0
 14 36  1  0
 15 37  1  0
 18 38  1  0
 19 39  1  0
 24 40  1  0
 24 41  1  0
 25 42  1  0
 25 43  1  0
 27 44  1  0
 27 45  1  0
 28 46  1  0
 28 47  1  0
 30 48  1  0
M  CHG  2   3  -1  12  -1
M  END
>  <UniqueID>  (85) 
76

>  <SMILES>  (85) 
O=c1[n-]c(=O)n(CCS(=O)(=O)[N-]c2ccc(F)cc2)c2nc(N3CCOCC3)ncc12

>  <Energy>  (85) 
57.925702400199874

>  <Genealogy>  (85) 
O=c1[n-]c(=O)n(CCS(=O)(=O)[N-]c2ccc(F)cc2)c2nc(N3CCOCC3)ncc12 (protonated)
O=c1[n-]c(=O)n(CCS(=O)(=O)[N-]c2ccc(F)cc2)c2nc(N3CCOCC3)ncc12 (3D coordinates assigned)
O=c1[n-]c(=O)n(CCS(=O)(=O)[N-]c2ccc(F)cc2)c2nc(N3CCOCC3)ncc12 (nonaromatic ring conformer: 57.925702400199874 kcal/mol)

>  <smiles>  (85) 
O=c1[nH]c(=O)n(CCS(=O)(=O)Nc2ccc(F)cc2)c2nc(N3CCOCC3)ncc12

>  <score_type>  (85) 
oracle

>  <origin>  (85) 
adg

>  <m_score__min__energy>  (85) 
-11.19

>  <m_primary>  (85) 
energy

$$$$
85:0
     RDKit          3D

 38 39  0  0  0  0  0  0  0  0999 V2000
   61.9690   34.2340   49.2900 C   0  0  0  0  0  0  0  0  0  0  0  0
   60.7040   33.8690   48.5820 C   0  0  0  0  0  0  0  0  0  0  0  0
   59.5980   34.1900   49.0940 O   0  0  0  0  0  0  0  0  0  0  0  0
   60.7630   33.2450   47.2910 N   0  0  0  0  0  0  0  0  0  0  0  0
   59.6220   32.7100   46.5980 C   0  0  0  0  0  0  0  0  0  0  0  0
   58.5000   33.5060   46.3030 C   0  0  0  0  0  0  0  0  0  0  0  0
   57.4010   32.9540   45.6370 C   0  0  0  0  0  0  0  0  0  0  0  0
   57.4080   31.6110   45.2490 C   0  0  0  0  0  0  0  0  0  0  0  0
   56.2640   31.0780   44.5680 N   0  0  0  0  0  0  0  0  0  0  0  0
   55.8690   29.6990   44.5080 C   0  0  0  0  0  0  0  0  0  0  0  0
   54.8550   29.3890   43.8290 O   0  0  0  0  0  0  0  0  0  0  0  0
   56.6850   28.6030   45.1380 C   0  0  0  0  0  0  0  0  0  0  0  0
   55.8260   27.5190   45.6220 N   0  0  0  0  0  0  0  0  0  0  0  0
   56.7550   26.1070   46.0450 S   0  0  0  0  0  0  0  0  0  0  0  0
   56.9560   25.2650   44.8160 O   0  0  0  0  0  0  0  0  0  0  0  0
   55.9880   25.3050   47.0570 O   0  0  0  0  0  0  0  0  0  0  0  0
   58.3180   26.5410   46.7390 C   0  0  0  0  0  0  0  0  0  0  0  0
   58.4230   27.5750   47.6780 C   0  0  0  0  0  0  0  0  0  0  0  0
   59.6650   27.8860   48.2330 C   0  0  0  0  0  0  0  0  0  0  0  0
   60.7900   27.1580   47.8450 C   0  0  0  0  0  0  0  0  0  0  0  0
   60.6730   26.1660   46.9220 N   0  0  0  0  0  0  0  0  0  0  0  0
   59.4740   25.8480   46.3630 C   0  0  0  0  0  0  0  0  0  0  0  0
   58.4960   30.7980   45.6050 C   0  0  0  0  0  0  0  0  0  0  0  0
   59.5960   31.3470   46.2680 C   0  0  0  0  0  0  0  0  0  0  0  0
   61.8074   34.1874   50.3771 H   0  0  0  0  0  0  0  0  0  0  0  0
   62.7642   33.5287   49.0070 H   0  0  0  0  0  0  0  0  0  0  0  0
   62.2663   35.2546   49.0070 H   0  0  0  0  0  0  0  0  0  0  0  0
   61.6790   33.2610   46.7870 H   0  0  0  0  0  0  0  0  0  0  0  0
   58.4871   34.5659   46.5971 H   0  0  0  0  0  0  0  0  0  0  0  0
   56.5246   33.5813   45.4169 H   0  0  0  0  0  0  0  0  0  0  0  0
   57.3847   28.2008   44.3906 H   0  0  0  0  0  0  0  0  0  0  0  0
   57.2338   29.0232   45.9937 H   0  0  0  0  0  0  0  0  0  0  0  0
   57.5283   28.1407   47.9773 H   0  0  0  0  0  0  0  0  0  0  0  0
   59.7561   28.6978   48.9697 H   0  0  0  0  0  0  0  0  0  0  0  0
   61.7717   27.3863   48.2856 H   0  0  0  0  0  0  0  0  0  0  0  0
   59.4133   25.0446   45.6141 H   0  0  0  0  0  0  0  0  0  0  0  0
   58.4820   29.7255   45.3610 H   0  0  0  0  0  0  0  0  0  0  0  0
   60.4489   30.7051   46.5335 H   0  0  0  0  0  0  0  0  0  0  0  0
  1  2  1  0
  2  3  2  0
  2  4  1  0
  4  5  1  0
  5  6  2  0
  6  7  1  0
  7  8  2  0
  8  9  1  0
  9 10  1  0
 10 11  2  0
 10 12  1  0
 12 13  1  0
 13 14  1  0
 14 15  2  0
 14 16  2  0
 14 17  1  0
 17 18  2  0
 18 19  1  0
 19 20  2  0
 20 21  1  0
 21 22  2  0
  8 23  1  0
 23 24  2  0
 24  5  1  0
 22 17  1  0
  1 25  1  0
  1 26  1  0
  1 27  1  0
  4 28  1  0
  6 29  1  0
  7 30  1  0
 12 31  1  0
 12 32  1  0
 18 33  1  0
 19 34  1  0
 20 35  1  0
 22 36  1  0
 23 37  1  0
 24 38  1  0
M  CHG  2   9  -1  13  -1
M  END
>  <UniqueID>  (86) 
77

>  <SMILES>  (86) 
CC(=O)Nc1ccc([N-]C(=O)C[N-]S(=O)(=O)c2cccnc2)cc1

>  <Energy>  (86) 
40.9785827818881

>  <Genealogy>  (86) 
CC(=O)Nc1ccc([N-]C(=O)C[N-]S(=O)(=O)c2cccnc2)cc1 (protonated)
CC(=O)Nc1ccc([N-]C(=O)C[N-]S(=O)(=O)c2cccnc2)cc1 (3D coordinates assigned)
CC(=O)Nc1ccc([N-]C(=O)C[N-]S(=O)(=O)c2cccnc2)cc1 (optimized conformer: 40.9785827818881 kcal/mol)

>  <smiles>  (86) 
CC(=O)Nc1ccc(NC(=O)CNS(=O)(=O)c2cccnc2)cc1

>  <score_type>  (86) 
oracle

>  <origin>  (86) 
adg

>  <m_score__min__energy>  (86) 
-10.789999999999999

>  <m_primary>  (86) 
energy

$$$$
86:0
     RDKit          3D

 40 41  0  0  0  0  0  0  0  0999 V2000
   55.5450   24.8720   45.7150 C   0  0  0  0  0  0  0  0  0  0  0  0
   56.3740   25.7390   46.6560 C   0  0  0  0  0  0  0  0  0  0  0  0
   56.7880   27.0040   45.9760 C   0  0  0  0  0  0  0  0  0  0  0  0
   58.0850   27.4520   45.8220 C   0  0  0  0  0  0  0  0  0  0  0  0
   57.9920   28.6330   45.1190 C   0  0  0  0  0  0  0  0  0  0  0  0
   56.6390   28.8270   44.8800 C   0  0  0  0  0  0  0  0  0  0  0  0
   55.9940   29.9890   44.1700 C   0  0  2  0  0  0  0  0  0  0  0  0
   56.2730   30.0180   42.6630 C   0  0  0  0  0  0  0  0  0  0  0  0
   56.3740   31.2540   44.7990 N   0  0  0  0  0  0  0  0  0  0  0  0
   57.4070   32.1410   44.3440 C   0  0  0  0  0  0  0  0  0  0  0  0
   57.5050   32.4190   43.1180 O   0  0  0  0  0  0  0  0  0  0  0  0
   58.3610   32.7260   45.3120 C   0  0  0  0  0  0  0  0  0  0  0  0
   58.5380   34.1180   45.3980 C   0  0  0  0  0  0  0  0  0  0  0  0
   59.4420   34.6570   46.3150 C   0  0  0  0  0  0  0  0  0  0  0  0
   60.1710   33.8040   47.1450 C   0  0  0  0  0  0  0  0  0  0  0  0
   61.0750   34.3500   48.0640 O   0  0  0  0  0  0  0  0  0  0  0  0
   62.1840   33.6350   48.6090 C   0  0  0  0  0  0  0  0  0  0  0  0
   63.2090   33.3090   47.5250 C   0  0  0  0  0  0  0  0  0  0  0  0
   63.0440   34.1660   46.4510 F   0  0  0  0  0  0  0  0  0  0  0  0
   64.4840   33.4670   48.0350 F   0  0  0  0  0  0  0  0  0  0  0  0
   63.0580   32.0040   47.0920 F   0  0  0  0  0  0  0  0  0  0  0  0
   59.9890   32.4570   47.0540 N   0  0  0  0  0  0  0  0  0  0  0  0
   59.1150   31.9060   46.1700 C   0  0  0  0  0  0  0  0  0  0  0  0
   55.9500   27.8380   45.4050 O   0  0  0  0  0  0  0  0  0  0  0  0
   54.9033   24.2008   46.3047 H   0  0  0  0  0  0  0  0  0  0  0  0
   54.9177   25.5155   45.0807 H   0  0  0  0  0  0  0  0  0  0  0  0
   56.2160   24.2741   45.0807 H   0  0  0  0  0  0  0  0  0  0  0  0
   55.7735   25.9855   47.5440 H   0  0  0  0  0  0  0  0  0  0  0  0
   57.2760   25.1821   46.9499 H   0  0  0  0  0  0  0  0  0  0  0  0
   59.0026   26.9663   46.1855 H   0  0  0  0  0  0  0  0  0  0  0  0
   58.8203   29.2878   44.8105 H   0  0  0  0  0  0  0  0  0  0  0  0
   54.9078   29.8486   44.2723 H   0  0  0  0  0  0  0  0  0  0  0  0
   57.3539   30.1303   42.4923 H   0  0  0  0  0  0  0  0  0  0  0  0
   55.9255   29.0789   42.2076 H   0  0  0  0  0  0  0  0  0  0  0  0
   55.7398   30.8656   42.2076 H   0  0  0  0  0  0  0  0  0  0  0  0
   57.9618   34.7851   44.7400 H   0  0  0  0  0  0  0  0  0  0  0  0
   59.5788   35.7463   46.3830 H   0  0  0  0  0  0  0  0  0  0  0  0
   62.6634   34.2507   49.3843 H   0  0  0  0  0  0  0  0  0  0  0  0
   61.8164   32.6919   49.0396 H   0  0  0  0  0  0  0  0  0  0  0  0
   58.9972   30.8132   46.1259 H   0  0  0  0  0  0  0  0  0  0  0  0
  1  2  1  0
  2  3  1  0
  3  4  2  0
  4  5  1  0
  5  6  2  0
  6  7  1  0
  7  8  1  0
  7  9  1  0
  9 10  1  0
 10 11  2  0
 10 12  1  0
 12 13  2  0
 13 14  1  0
 14 15  2  0
 15 16  1  0
 16 17  1  0
 17 18  1  0
 18 19  1  0
 18 20  1  0
 18 21  1  0
 15 22  1  0
 22 23  2  0
  6 24  1  0
 24  3  1  0
 23 12  1  0
  1 25  1  0
  1 26  1  0
  1 27  1  0
  2 28  1  0
  2 29  1  0
  4 30  1  0
  5 31  1  0
  7 32  1  6
  8 33  1  0
  8 34  1  0
  8 35  1  0
 13 36  1  0
 14 37  1  0
 17 38  1  0
 17 39  1  0
 23 40  1  0
M  CHG  1   9  -1
M  END
>  <UniqueID>  (87) 
78

>  <SMILES>  (87) 
CCc1ccc([C@H](C)[N-]C(=O)c2ccc(OCC(F)(F)F)nc2)o1

>  <Energy>  (87) 
57.52337685674429

>  <Genealogy>  (87) 
CCc1ccc(C(C)[N-]C(=O)c2ccc(OCC(F)(F)F)nc2)o1 (protonated)
CCc1ccc([C@H](C)[N-]C(=O)c2ccc(OCC(F)(F)F)nc2)o1 (chirality)
CCc1ccc([C@H](C)[N-]C(=O)c2ccc(OCC(F)(F)F)nc2)o1 (3D coordinates assigned)
CCc1ccc([C@H](C)[N-]C(=O)c2ccc(OCC(F)(F)F)nc2)o1 (optimized conformer: 57.52337685674429 kcal/mol)

>  <smiles>  (87) 
CCc1ccc(C(C)NC(=O)c2ccc(OCC(F)(F)F)nc2)o1

>  <score_type>  (87) 
oracle

>  <origin>  (87) 
adg

>  <m_score__min__energy>  (87) 
-8.1300000000000008

>  <m_primary>  (87) 
energy

$$$$
87:0
     RDKit          3D

 32 32  0  0  0  0  0  0  0  0999 V2000
   56.3220   24.0860   43.3600 C   0  0  0  0  0  0  0  0  0  0  0  0
   55.5170   23.0450   44.0180 N   0  0  0  0  0  0  0  0  0  0  0  0
   56.2930   21.7940   44.0850 C   0  0  0  0  0  0  0  0  0  0  0  0
   55.1130   23.4940   45.3680 C   0  0  0  0  0  0  0  0  0  0  0  0
   54.0080   24.5600   45.3000 C   0  0  0  0  0  0  0  0  0  0  0  0
   54.5190   25.8760   45.6730 N   0  0  0  0  0  0  0  0  0  0  0  0
   55.8330   26.1000   46.1920 C   0  0  0  0  0  0  0  0  0  0  0  0
   56.2840   25.3720   47.1170 O   0  0  0  0  0  0  0  0  0  0  0  0
   56.6520   27.1980   45.6520 C   0  0  0  0  0  0  0  0  0  0  0  0
   57.8940   27.0340   45.5220 O   0  0  0  0  0  0  0  0  0  0  0  0
   56.0670   28.4350   45.2230 N   0  0  0  0  0  0  0  0  0  0  0  0
   56.7490   29.6940   45.1260 C   0  0  0  0  0  0  0  0  0  0  0  0
   56.3800   30.6600   44.1710 C   0  0  0  0  0  0  0  0  0  0  0  0
   57.0480   31.8870   44.1180 C   0  0  0  0  0  0  0  0  0  0  0  0
   58.0740   32.1670   45.0260 C   0  0  0  0  0  0  0  0  0  0  0  0
   58.9840   33.8440   44.9530 Br  0  0  0  0  0  0  0  0  0  0  0  0
   58.4260   31.2200   45.9950 C   0  0  0  0  0  0  0  0  0  0  0  0
   57.7590   29.9920   46.0490 C   0  0  0  0  0  0  0  0  0  0  0  0
   56.8063   24.7123   44.1236 H   0  0  0  0  0  0  0  0  0  0  0  0
   57.0912   23.6126   42.7322 H   0  0  0  0  0  0  0  0  0  0  0  0
   55.6703   24.7114   42.7322 H   0  0  0  0  0  0  0  0  0  0  0  0
   56.4612   21.5228   45.1377 H   0  0  0  0  0  0  0  0  0  0  0  0
   55.7353   20.9893   43.5837 H   0  0  0  0  0  0  0  0  0  0  0  0
   57.2617   21.9361   43.5837 H   0  0  0  0  0  0  0  0  0  0  0  0
   54.7404   22.6287   45.9358 H   0  0  0  0  0  0  0  0  0  0  0  0
   55.9905   23.9376   45.8611 H   0  0  0  0  0  0  0  0  0  0  0  0
   53.6161   24.6053   44.2732 H   0  0  0  0  0  0  0  0  0  0  0  0
   53.2126   24.2823   46.0073 H   0  0  0  0  0  0  0  0  0  0  0  0
   55.5638   30.4489   43.4644 H   0  0  0  0  0  0  0  0  0  0  0  0
   56.7661   32.6334   43.3608 H   0  0  0  0  0  0  0  0  0  0  0  0
   59.2279   31.4419   46.7145 H   0  0  0  0  0  0  0  0  0  0  0  0
   58.0292   29.2562   46.8207 H   0  0  0  0  0  0  0  0  0  0  0  0
  1  2  1  0
  2  3  1  0
  2  4  1  0
  4  5  1  0
  5  6  1  0
  6  7  1  0
  7  8  2  0
  7  9  1  0
  9 10  2  0
  9 11  1  0
 11 12  1  0
 12 13  2  0
 13 14  1  0
 14 15  2  0
 15 16  1  0
 15 17  1  0
 17 18  2  0
 18 12  1  0
  1 19  1  0
  1 20  1  0
  1 21  1  0
  3 22  1  0
  3 23  1  0
  3 24  1  0
  4 25  1  0
  4 26  1  0
  5 27  1  0
  5 28  1  0
 13 29  1  0
 14 30  1  0
 17 31  1  0
 18 32  1  0
M  CHG  2   6  -1  11  -1
M  END
>  <UniqueID>  (88) 
79

>  <SMILES>  (88) 
CN(C)CC[N-]C(=O)C(=O)[N-]c1ccc(Br)cc1

>  <Energy>  (88) 
30.585479166036876

>  <Genealogy>  (88) 
CN(C)CC[N-]C(=O)C(=O)[N-]c1ccc(Br)cc1 (protonated)
CN(C)CC[N-]C(=O)C(=O)[N-]c1ccc(Br)cc1 (3D coordinates assigned)
CN(C)CC[N-]C(=O)C(=O)[N-]c1ccc(Br)cc1 (optimized conformer: 30.585479166036876 kcal/mol)

>  <smiles>  (88) 
CN(C)CCNC(=O)C(=O)Nc1ccc(Br)cc1

>  <score_type>  (88) 
oracle

>  <origin>  (88) 
adg

>  <m_score__min__energy>  (88) 
-9.6999999999999993

>  <m_primary>  (88) 
energy

$$$$
88:0
     RDKit          3D

 52 56  0  0  0  0  0  0  0  0999 V2000
   63.1920   31.9820   47.4780 C   0  0  0  0  0  0  0  0  0  0  0  0
   61.8220   31.5900   47.5120 O   0  0  0  0  0  0  0  0  0  0  0  0
   60.7380   32.4750   47.3950 C   0  0  0  0  0  0  0  0  0  0  0  0
   60.8810   33.8620   47.5980 C   0  0  0  0  0  0  0  0  0  0  0  0
   59.7790   34.7120   47.4710 C   0  0  0  0  0  0  0  0  0  0  0  0
   58.5260   34.1920   47.1460 C   0  0  0  0  0  0  0  0  0  0  0  0
   58.3680   32.8190   46.9450 C   0  0  0  0  0  0  0  0  0  0  0  0
   59.4700   31.9570   47.0590 C   0  0  0  0  0  0  0  0  0  0  0  0
   59.2860   30.5090   46.8470 C   0  0  0  0  0  0  0  0  0  0  0  0
   59.5750   29.5550   47.8100 C   0  0  0  0  0  0  0  0  0  0  0  0
   60.1840   29.7870   49.0790 N   0  0  0  0  0  0  0  0  0  0  0  0
   59.0690   28.3460   47.3850 C   0  0  0  0  0  0  0  0  0  0  0  0
   58.4870   28.6090   46.1550 C   0  0  0  0  0  0  0  0  0  0  0  0
   57.7690   27.7210   45.3390 C   0  0  0  0  0  0  0  0  0  0  0  0
   57.6110   26.2880   45.6800 C   0  0  0  0  0  0  0  0  0  0  0  0
   58.7090   25.4120   45.6260 C   0  0  0  0  0  0  0  0  0  0  0  0
   58.5440   24.0560   45.9230 C   0  0  0  0  0  0  0  0  0  0  0  0
   57.2810   23.5600   46.2620 C   0  0  0  0  0  0  0  0  0  0  0  0
   57.0680   21.8200   46.6410 S   0  0  0  0  0  0  0  0  0  0  0  0
   57.3730   21.2840   44.9270 C   0  0  0  0  0  0  0  0  0  0  0  0
   56.1810   24.4260   46.3070 C   0  0  0  0  0  0  0  0  0  0  0  0
   56.3440   25.7820   46.0120 C   0  0  0  0  0  0  0  0  0  0  0  0
   57.1960   28.2160   44.2040 N   0  0  0  0  0  0  0  0  0  0  0  0
   57.3590   29.5190   43.8230 C   0  0  0  0  0  0  0  0  0  0  0  0
   56.7980   29.9760   42.6210 C   0  0  0  0  0  0  0  0  0  0  0  0
   57.0120   31.2880   42.2000 C   0  0  0  0  0  0  0  0  0  0  0  0
   57.8050   32.1470   42.9590 C   0  0  0  0  0  0  0  0  0  0  0  0
   58.3680   31.7110   44.1600 C   0  0  0  0  0  0  0  0  0  0  0  0
   58.1220   30.4030   44.6340 C   0  0  0  0  0  0  0  0  0  0  0  0
   58.6220   29.9140   45.8170 N   0  0  0  0  0  0  0  0  0  0  0  0
   63.5682   32.0896   48.5061 H   0  0  0  0  0  0  0  0  0  0  0  0
   63.7796   31.2159   46.9509 H   0  0  0  0  0  0  0  0  0  0  0  0
   63.2855   32.9429   46.9509 H   0  0  0  0  0  0  0  0  0  0  0  0
   61.8656   34.2781   47.8579 H   0  0  0  0  0  0  0  0  0  0  0  0
   59.9000   35.7940   47.6277 H   0  0  0  0  0  0  0  0  0  0  0  0
   57.6610   34.8645   47.0479 H   0  0  0  0  0  0  0  0  0  0  0  0
   57.3768   32.4118   46.6966 H   0  0  0  0  0  0  0  0  0  0  0  0
   59.8280   29.3170   49.9410 H   0  0  0  0  0  0  0  0  0  0  0  0
   60.9870   30.4490   49.1660 H   0  0  0  0  0  0  0  0  0  0  0  0
   59.1167   27.3800   47.9091 H   0  0  0  0  0  0  0  0  0  0  0  0
   59.7022   25.7951   45.3489 H   0  0  0  0  0  0  0  0  0  0  0  0
   59.4093   23.3777   45.8900 H   0  0  0  0  0  0  0  0  0  0  0  0
   57.9170   20.3280   44.9331 H   0  0  0  0  0  0  0  0  0  0  0  0
   56.4125   21.1560   44.4064 H   0  0  0  0  0  0  0  0  0  0  0  0
   57.9737   22.0444   44.4064 H   0  0  0  0  0  0  0  0  0  0  0  0
   55.1872   24.0379   46.5750 H   0  0  0  0  0  0  0  0  0  0  0  0
   55.4755   26.4564   46.0400 H   0  0  0  0  0  0  0  0  0  0  0  0
   56.6490   27.5690   43.5890 H   0  0  0  0  0  0  0  0  0  0  0  0
   56.1870   29.2967   42.0084 H   0  0  0  0  0  0  0  0  0  0  0  0
   56.5537   31.6461   41.2663 H   0  0  0  0  0  0  0  0  0  0  0  0
   57.9883   33.1739   42.6099 H   0  0  0  0  0  0  0  0  0  0  0  0
   59.0079   32.3910   44.7415 H   0  0  0  0  0  0  0  0  0  0  0  0
  1  2  1  0
  2  3  1  0
  3  4  2  0
  4  5  1  0
  5  6  2  0
  6  7  1  0
  7  8  2  0
  8  9  1  0
  9 10  2  0
 10 11  1  0
 10 12  1  0
 12 13  2  0
 13 14  1  0
 14 15  1  0
 15 16  2  0
 16 17  1  0
 17 18  2  0
 18 19  1  0
 19 20  1  0
 18 21  1  0
 21 22  2  0
 14 23  2  0
 23 24  1  0
 24 25  2  0
 25 26  1  0
 26 27  2  0
 27 28  1  0
 28 29  2  0
 29 30  1  0
  8  3  1  0
 30  9  1  0
 30 13  1  0
 22 15  1  0
 29 24  1  0
  1 31  1  0
  1 32  1  0
  1 33  1  0
  4 34  1  0
  5 35  1  0
  6 36  1  0
  7 37  1  0
 11 38  1  0
 11 39  1  0
 12 40  1  0
 16 41  1  0
 17 42  1  0
 20 43  1  0
 20 44  1  0
 20 45  1  0
 21 46  1  0
 22 47  1  0
 23 48  1  0
 25 49  1  0
 26 50  1  0
 27 51  1  0
 28 52  1  0
M  CHG  1  23   1
M  END
>  <UniqueID>  (89) 
80

>  <SMILES>  (89) 
COc1ccccc1-c1c(N)cc2c(-c3ccc(SC)cc3)[nH+]c3ccccc3n12

>  <Energy>  (89) 
107.56873358465202

>  <Genealogy>  (89) 
COc1ccccc1-c1c(N)cc2c(-c3ccc(SC)cc3)[nH+]c3ccccc3n12 (protonated)
COc1ccccc1-c1c(N)cc2c(-c3ccc(SC)cc3)[nH+]c3ccccc3n12 (3D coordinates assigned)
COc1ccccc1-c1c(N)cc2c(-c3ccc(SC)cc3)[nH+]c3ccccc3n12 (optimized conformer: 107.56873358465202 kcal/mol)

>  <smiles>  (89) 
COc1ccccc1-c1c(N)cc2c(-c3ccc(SC)cc3)nc3ccccc3n12

>  <score_type>  (89) 
oracle

>  <origin>  (89) 
adg

>  <m_score__min__energy>  (89) 
-7.0499999999999998

>  <m_primary>  (89) 
energy

$$$$
89:0
     RDKit          3D

 27 28  0  0  0  0  0  0  0  0999 V2000
   55.1610   30.1050   45.6180 H   0  0  0  0  0  0  0  0  0  0  0  0
   55.8360   29.8110   44.8780 N   0  0  0  0  0  0  0  0  0  0  0  0
   57.0100   29.3510   45.1750 C   0  0  0  0  0  0  0  0  0  0  0  0
   57.3550   28.0130   45.2200 C   0  0  0  0  0  0  0  0  0  0  0  0
   56.7086   27.1378   45.0583 H   0  0  0  0  0  0  0  0  0  0  0  0
   58.7080   28.0360   45.5170 C   0  0  0  0  0  0  0  0  0  0  0  0
   59.5720   26.8430   45.7540 C   0  0  0  0  0  0  0  0  0  0  0  0
   59.6877   26.6832   46.8362 H   0  0  0  0  0  0  0  0  0  0  0  0
   59.1052   25.9563   45.3003 H   0  0  0  0  0  0  0  0  0  0  0  0
   60.5601   27.0099   45.3003 H   0  0  0  0  0  0  0  0  0  0  0  0
   59.1200   29.3130   45.6550 N   0  0  0  0  0  0  0  0  0  0  0  0
   60.0830   29.6240   45.9120 H   0  0  0  0  0  0  0  0  0  0  0  0
   58.0880   30.1180   45.4460 N   0  0  0  0  0  0  0  0  0  0  0  0
   58.1610   31.5570   45.5010 C   0  0  0  0  0  0  0  0  0  0  0  0
   57.7020   32.3430   44.4300 C   0  0  0  0  0  0  0  0  0  0  0  0
   57.2833   31.8585   43.5356 H   0  0  0  0  0  0  0  0  0  0  0  0
   57.7750   33.7370   44.4960 C   0  0  0  0  0  0  0  0  0  0  0  0
   57.4204   34.3454   43.6509 H   0  0  0  0  0  0  0  0  0  0  0  0
   58.2970   34.3600   45.6320 C   0  0  0  0  0  0  0  0  0  0  0  0
   58.3671   35.4570   45.6725 H   0  0  0  0  0  0  0  0  0  0  0  0
   58.7320   33.5910   46.7210 C   0  0  0  0  0  0  0  0  0  0  0  0
   59.3280   34.2580   47.9260 C   0  0  0  0  0  0  0  0  0  0  0  0
   58.9188   33.8000   48.8386 H   0  0  0  0  0  0  0  0  0  0  0  0
   60.4208   34.1330   47.9113 H   0  0  0  0  0  0  0  0  0  0  0  0
   59.0813   35.3299   47.9113 H   0  0  0  0  0  0  0  0  0  0  0  0
   58.6750   32.1900   46.6450 C   0  0  0  0  0  0  0  0  0  0  0  0
   59.0359   31.5830   47.4884 H   0  0  0  0  0  0  0  0  0  0  0  0
  1  2  1  0
  2  3  2  0
  3  4  1  0
  4  5  1  0
  4  6  2  0
  6  7  1  0
  7  8  1  0
  7  9  1  0
  7 10  1  0
  6 11  1  0
 11 12  1  0
 11 13  1  0
 13 14  1  0
 14 15  2  0
 15 16  1  0
 15 17  1  0
 17 18  1  0
 17 19  2  0
 19 20  1  0
 19 21  1  0
 21 22  1  0
 22 23  1  0
 22 24  1  0
 22 25  1  0
 21 26  2  0
 26 27  1  0
 13  3  1  0
 26 14  1  0
M  END
>  <UniqueID>  (90) 
81

>  <SMILES>  (90) 
[H]/N=c1\cc(C)[nH]n1-c1cccc(C)c1

>  <Energy>  (90) 
62.046410021594795

>  <Genealogy>  (90) 
[H]/N=c1\cc(C)[nH]n1-c1cccc(C)c1 (cis-trans isomerization)
[H]/N=c1\cc(C)[nH]n1-c1cccc(C)c1 (3D coordinates assigned)
[H]/N=c1\cc(C)[nH]n1-c1cccc(C)c1 (optimized conformer: 62.046410021594795 kcal/mol)

>  <smiles>  (90) 
Cc1cccc(-n2[nH]c(C)cc2=N)c1

>  <score_type>  (90) 
oracle

>  <origin>  (90) 
adg

>  <m_score__min__energy>  (90) 
-5.8200000000000003

>  <m_primary>  (90) 
energy

$$$$
90:0
     RDKit          3D

 66 68  0  0  1  0  0  0  0  0999 V2000
   69.0800   26.1970   49.8210 C   0  0  0  0  0  0  0  0  0  0  0  0
   67.9090   27.1470   49.8520 C   0  0  0  0  0  0  0  0  0  0  0  0
   66.8470   26.7140   49.3780 O   0  0  0  0  0  0  0  0  0  0  0  0
   68.0700   28.3570   50.3660 O   0  0  0  0  0  0  0  0  0  0  0  0
   67.8800   28.9220   51.5840 C   0  0  0  0  0  0  0  0  0  0  0  0
   66.8770   30.0060   51.7720 C   0  0  1  0  0  0  0  0  0  0  0  0
   66.8910   30.9010   50.7080 O   0  0  0  0  0  0  0  0  0  0  0  0
   65.6780   31.5800   50.7420 C   0  0  2  0  0  0  0  0  0  0  0  0
   65.4680   32.5290   49.7010 N   0  0  0  0  0  0  0  0  0  0  0  0
   64.3860   32.7120   49.0650 C   0  0  0  0  0  0  0  0  0  0  0  0
   63.2260   32.4240   49.6460 N   0  0  0  0  0  0  0  0  0  0  0  0
   62.0620   32.5910   49.0400 N   0  0  0  0  0  0  0  0  0  0  0  0
   62.0000   33.0720   47.7840 C   0  0  0  0  0  0  0  0  0  0  0  0
   60.7510   33.2670   47.0920 C   0  0  0  0  0  0  0  0  0  0  0  0
   59.8780   32.2450   46.7710 C   0  0  0  0  0  0  0  0  0  0  0  0
   58.6860   32.5320   46.0980 C   0  0  0  0  0  0  0  0  0  0  0  0
   58.3640   33.8260   45.7460 C   0  0  0  0  0  0  0  0  0  0  0  0
   57.1120   34.1870   45.0300 C   0  0  0  0  0  0  0  0  0  0  0  0
   59.2420   34.8590   46.0680 C   0  0  0  0  0  0  0  0  0  0  0  0
   60.4160   34.5730   46.7320 C   0  0  0  0  0  0  0  0  0  0  0  0
   63.1950   33.3840   47.1460 C   0  0  0  0  0  0  0  0  0  0  0  0
   63.2370   33.8380   45.9730 O   0  0  0  0  0  0  0  0  0  0  0  0
   64.3510   33.1950   47.8050 N   0  0  0  0  0  0  0  0  0  0  0  0
   65.2790   31.9850   52.1150 C   0  0  1  0  0  0  0  0  0  0  0  0
   64.3120   33.0120   52.1130 O   0  0  0  0  0  0  0  0  0  0  0  0
   64.7180   34.3330   51.9850 C   0  0  0  0  0  0  0  0  0  0  0  0
   66.1070   34.6780   52.3880 C   0  0  0  0  0  0  0  0  0  0  0  0
   63.9840   35.2510   51.5490 O   0  0  0  0  0  0  0  0  0  0  0  0
   64.7740   30.7630   52.8560 C   0  0  1  0  0  0  0  0  0  0  0  0
   63.3940   30.6170   52.6000 O   0  0  0  0  0  0  0  0  0  0  0  0
   62.9030   29.6580   51.7280 C   0  0  0  0  0  0  0  0  0  0  0  0
   62.2990   28.3840   52.1350 C   0  0  0  0  0  0  0  0  0  0  0  0
   62.9870   29.9150   50.4970 O   0  0  0  0  0  0  0  0  0  0  0  0
   65.5720   29.5550   52.2680 C   0  0  2  0  0  0  0  0  0  0  0  0
   65.7840   28.7340   53.3970 O   0  0  0  0  0  0  0  0  0  0  0  0
   65.6820   27.3790   53.4760 C   0  0  0  0  0  0  0  0  0  0  0  0
   65.2560   26.6310   52.2390 C   0  0  0  0  0  0  0  0  0  0  0  0
   65.9080   26.6710   54.4850 O   0  0  0  0  0  0  0  0  0  0  0  0
   69.3812   25.9526   50.8503 H   0  0  0  0  0  0  0  0  0  0  0  0
   68.7906   25.2753   49.2950 H   0  0  0  0  0  0  0  0  0  0  0  0
   69.9223   26.6702   49.2950 H   0  0  0  0  0  0  0  0  0  0  0  0
   67.5943   28.1081   52.2665 H   0  0  0  0  0  0  0  0  0  0  0  0
   68.8345   29.4375   51.7662 H   0  0  0  0  0  0  0  0  0  0  0  0
   67.1963   30.6143   52.6311 H   0  0  0  0  0  0  0  0  0  0  0  0
   64.9209   30.8326   50.4624 H   0  0  0  0  0  0  0  0  0  0  0  0
   63.2230   32.0570   50.5990 H   0  0  0  0  0  0  0  0  0  0  0  0
   60.1202   31.2074   47.0444 H   0  0  0  0  0  0  0  0  0  0  0  0
   57.9954   31.7138   45.8458 H   0  0  0  0  0  0  0  0  0  0  0  0
   56.3233   34.4144   45.7623 H   0  0  0  0  0  0  0  0  0  0  0  0
   57.2920   35.0698   44.3990 H   0  0  0  0  0  0  0  0  0  0  0  0
   56.7943   33.3439   44.3990 H   0  0  0  0  0  0  0  0  0  0  0  0
   58.9999   35.8965   45.7941 H   0  0  0  0  0  0  0  0  0  0  0  0
   61.1044   35.3932   46.9838 H   0  0  0  0  0  0  0  0  0  0  0  0
   65.2480   33.4280   47.3330 H   0  0  0  0  0  0  0  0  0  0  0  0
   66.1605   32.3971   52.6279 H   0  0  0  0  0  0  0  0  0  0  0  0
   66.1767   34.6953   53.4857 H   0  0  0  0  0  0  0  0  0  0  0  0
   66.8024   33.9253   51.9882 H   0  0  0  0  0  0  0  0  0  0  0  0
   66.3694   35.6686   51.9882 H   0  0  0  0  0  0  0  0  0  0  0  0
   64.9135   30.8361   53.9447 H   0  0  0  0  0  0  0  0  0  0  0  0
   62.2713   28.3256   53.2331 H   0  0  0  0  0  0  0  0  0  0  0  0
   61.2749   28.3205   51.7385 H   0  0  0  0  0  0  0  0  0  0  0  0
   62.8980   27.5510   51.7385 H   0  0  0  0  0  0  0  0  0  0  0  0
   65.0475   29.0602   51.4373 H   0  0  0  0  0  0  0  0  0  0  0  0
   64.7311   25.7093   52.5304 H   0  0  0  0  0  0  0  0  0  0  0  0
   64.5825   27.2633   51.6418 H   0  0  0  0  0  0  0  0  0  0  0  0
   66.1434   26.3744   51.6418 H   0  0  0  0  0  0  0  0  0  0  0  0
  1  2  1  0
  2  3  2  0
  2  4  1  0
  4  5  1  0
  5  6  1  0
  6  7  1  0
  7  8  1  0
  8  9  1  0
  9 10  2  0
 10 11  1  0
 11 12  1  0
 12 13  2  0
 13 14  1  0
 14 15  2  0
 15 16  1  0
 16 17  2  0
 17 18  1  0
 17 19  1  0
 19 20  2  0
 13 21  1  0
 21 22  2  0
 21 23  1  0
  8 24  1  0
 24 25  1  0
 25 26  1  0
 26 27  1  0
 26 28  2  0
 24 29  1  0
 29 30  1  0
 30 31  1  0
 31 32  1  0
 31 33  2  0
 29 34  1  0
 34 35  1  0
 35 36  1  0
 36 37  1  0
 36 38  2  0
 34  6  1  0
 23 10  1  0
 20 14  1  0
  1 39  1  0
  1 40  1  0
  1 41  1  0
  5 42  1  0
  5 43  1  0
  6 44  1  1
  8 45  1  6
 11 46  1  0
 15 47  1  0
 16 48  1  0
 18 49  1  0
 18 50  1  0
 18 51  1  0
 19 52  1  0
 20 53  1  0
 23 54  1  0
 24 55  1  1
 27 56  1  0
 27 57  1  0
 27 58  1  0
 29 59  1  1
 32 60  1  0
 32 61  1  0
 32 62  1  0
 34 63  1  6
 37 64  1  0
 37 65  1  0
 37 66  1  0
M  END
>  <smiles>  (91) 
CC(=O)OCC1OC(N=c2[nH]nc(-c3ccc(C)cc3)c(=O)[nH]2)C(OC(C)=O)C(OC(C)=O)C1OC(C)=O

>  <score_type>  (91) 
oracle

>  <origin>  (91) 
adg

>  <m_score__min__energy>  (91) 
-8.5399999999999991

>  <m_primary>  (91) 
energy

$$$$
91:0
     RDKit          3D

 42 44  0  0  0  0  0  0  0  0999 V2000
   54.6920   29.6450   43.5420 O   0  0  0  0  0  0  0  0  0  0  0  0
   55.7510   29.7140   44.2220 C   0  0  0  0  0  0  0  0  0  0  0  0
   56.6780   30.8670   44.0400 C   0  0  0  0  0  0  0  0  0  0  0  0
   56.6680   31.6630   45.2210 O   0  0  0  0  0  0  0  0  0  0  0  0
   57.5890   32.6830   45.4990 C   0  0  0  0  0  0  0  0  0  0  0  0
   58.3430   33.3160   44.4910 C   0  0  0  0  0  0  0  0  0  0  0  0
   59.2450   34.3320   44.8210 C   0  0  0  0  0  0  0  0  0  0  0  0
   59.4050   34.7230   46.1510 C   0  0  0  0  0  0  0  0  0  0  0  0
   58.6630   34.0990   47.1570 C   0  0  0  0  0  0  0  0  0  0  0  0
   57.7580   33.0830   46.8310 C   0  0  0  0  0  0  0  0  0  0  0  0
   56.0420   28.7230   45.2150 N   0  0  0  0  0  0  0  0  0  0  0  0
   57.2570   27.9090   45.2100 C   0  0  0  0  0  0  0  0  0  0  0  0
   58.4280   28.7040   45.7400 C   0  0  0  0  0  0  0  0  0  0  0  0
   59.6740   28.6260   45.0920 C   0  0  0  0  0  0  0  0  0  0  0  0
   60.7790   29.3170   45.5980 C   0  0  0  0  0  0  0  0  0  0  0  0
   60.6570   30.0810   46.7610 C   0  0  0  0  0  0  0  0  0  0  0  0
   59.4280   30.1530   47.4220 C   0  0  0  0  0  0  0  0  0  0  0  0
   58.3200   29.4660   46.9200 C   0  0  0  0  0  0  0  0  0  0  0  0
   57.0730   26.6510   46.0320 C   0  0  0  0  0  0  0  0  0  0  0  0
   56.0470   25.7470   45.7070 C   0  0  0  0  0  0  0  0  0  0  0  0
   55.8850   24.5680   46.4410 C   0  0  0  0  0  0  0  0  0  0  0  0
   56.7520   24.2740   47.4960 C   0  0  0  0  0  0  0  0  0  0  0  0
   57.7840   25.1580   47.8190 C   0  0  0  0  0  0  0  0  0  0  0  0
   57.9500   26.3380   47.0890 C   0  0  0  0  0  0  0  0  0  0  0  0
   57.6966   30.4952   43.8548 H   0  0  0  0  0  0  0  0  0  0  0  0
   56.3523   31.4729   43.1816 H   0  0  0  0  0  0  0  0  0  0  0  0
   58.2216   33.0100   43.4414 H   0  0  0  0  0  0  0  0  0  0  0  0
   59.8300   34.8244   44.0302 H   0  0  0  0  0  0  0  0  0  0  0  0
   60.1155   35.5227   46.4074 H   0  0  0  0  0  0  0  0  0  0  0  0
   58.7903   34.4065   48.2054 H   0  0  0  0  0  0  0  0  0  0  0  0
   57.1751   32.5949   47.6260 H   0  0  0  0  0  0  0  0  0  0  0  0
   57.4629   27.6171   44.1696 H   0  0  0  0  0  0  0  0  0  0  0  0
   59.7796   28.0177   44.1816 H   0  0  0  0  0  0  0  0  0  0  0  0
   61.7471   29.2589   45.0789 H   0  0  0  0  0  0  0  0  0  0  0  0
   61.5274   30.6253   47.1561 H   0  0  0  0  0  0  0  0  0  0  0  0
   59.3327   30.7520   48.3397 H   0  0  0  0  0  0  0  0  0  0  0  0
   57.3573   29.5204   47.4494 H   0  0  0  0  0  0  0  0  0  0  0  0
   55.3677   25.9683   44.8706 H   0  0  0  0  0  0  0  0  0  0  0  0
   55.0731   23.8706   46.1871 H   0  0  0  0  0  0  0  0  0  0  0  0
   56.6220   23.3462   48.0725 H   0  0  0  0  0  0  0  0  0  0  0  0
   58.4671   24.9250   48.6492 H   0  0  0  0  0  0  0  0  0  0  0  0
   58.7701   27.0263   47.3412 H   0  0  0  0  0  0  0  0  0  0  0  0
  1  2  2  0
  2  3  1  0
  3  4  1  0
  4  5  1  0
  5  6  2  0
  6  7  1  0
  7  8  2  0
  8  9  1  0
  9 10  2  0
  2 11  1  0
 11 12  1  0
 12 13  1  0
 13 14  2  0
 14 15  1  0
 15 16  2  0
 16 17  1  0
 17 18  2  0
 12 19  1  0
 19 20  2  0
 20 21  1  0
 21 22  2  0
 22 23  1  0
 23 24  2  0
 10  5  1  0
 18 13  1  0
 24 19  1  0
  3 25  1  0
  3 26  1  0
  6 27  1  0
  7 28  1  0
  8 29  1  0
  9 30  1  0
 10 31  1  0
 12 32  1  0
 14 33  1  0
 15 34  1  0
 16 35  1  0
 17 36  1  0
 18 37  1  0
 20 38  1  0
 21 39  1  0
 22 40  1  0
 23 41  1  0
 24 42  1  0
M  CHG  1  11  -1
M  END
>  <UniqueID>  (92) 
82

>  <SMILES>  (92) 
O=C(COc1ccccc1)[N-]C(c1ccccc1)c1ccccc1

>  <Energy>  (92) 
41.475861517939904

>  <Genealogy>  (92) 
O=C(COc1ccccc1)[N-]C(c1ccccc1)c1ccccc1 (protonated)
O=C(COc1ccccc1)[N-]C(c1ccccc1)c1ccccc1 (3D coordinates assigned)
O=C(COc1ccccc1)[N-]C(c1ccccc1)c1ccccc1 (optimized conformer: 41.475861517939904 kcal/mol)

>  <smiles>  (92) 
O=C(COc1ccccc1)NC(c1ccccc1)c1ccccc1

>  <score_type>  (92) 
oracle

>  <origin>  (92) 
adg

>  <m_score__min__energy>  (92) 
-9.6999999999999993

>  <m_primary>  (92) 
energy

$$$$
92:0
     RDKit          3D

 42 44  0  0  0  0  0  0  0  0999 V2000
   59.2200   27.1270   47.4820 C   0  0  0  0  0  0  0  0  0  0  0  0
   58.6000   28.1490   46.5850 C   0  0  0  0  0  0  0  0  0  0  0  0
   58.8560   29.4680   46.6720 N   0  0  0  0  0  0  0  0  0  0  0  0
   58.0940   30.0880   45.7820 N   0  0  0  0  0  0  0  0  0  0  0  0
   58.0940   31.5160   45.6250 C   0  0  0  0  0  0  0  0  0  0  0  0
   58.1200   32.3670   46.7440 C   0  0  0  0  0  0  0  0  0  0  0  0
   58.1450   33.7540   46.5750 C   0  0  0  0  0  0  0  0  0  0  0  0
   58.1610   34.3030   45.2900 C   0  0  0  0  0  0  0  0  0  0  0  0
   58.1580   33.4650   44.1720 C   0  0  0  0  0  0  0  0  0  0  0  0
   58.1320   32.0760   44.3370 C   0  0  0  0  0  0  0  0  0  0  0  0
   57.3520   29.1770   45.1060 C   0  0  0  0  0  0  0  0  0  0  0  0
   56.3930   29.4860   43.9920 C   0  0  0  0  0  0  0  0  0  0  0  0
   57.6350   27.9210   45.6190 C   0  0  0  0  0  0  0  0  0  0  0  0
   57.0190   26.6000   45.2430 C   0  0  0  0  0  0  0  0  0  0  0  0
   55.7320   26.4120   45.9160 N   0  0  0  0  0  0  0  0  0  0  0  0
   55.4530   24.7340   46.2920 S   0  0  0  0  0  0  0  0  0  0  0  0
   55.9340   24.4610   47.6890 O   0  0  0  0  0  0  0  0  0  0  0  0
   53.9790   24.4440   46.2250 O   0  0  0  0  0  0  0  0  0  0  0  0
   56.3320   23.6870   45.1800 C   0  0  0  0  0  0  0  0  0  0  0  0
   55.8120   23.4360   43.9020 C   0  0  0  0  0  0  0  0  0  0  0  0
   56.4970   22.5980   43.0170 C   0  0  0  0  0  0  0  0  0  0  0  0
   57.7050   22.0110   43.4020 C   0  0  0  0  0  0  0  0  0  0  0  0
   58.2320   22.2640   44.6720 C   0  0  0  0  0  0  0  0  0  0  0  0
   57.5490   23.1020   45.5590 C   0  0  0  0  0  0  0  0  0  0  0  0
   59.0493   27.4085   48.5316 H   0  0  0  0  0  0  0  0  0  0  0  0
   58.7657   26.1443   47.2873 H   0  0  0  0  0  0  0  0  0  0  0  0
   60.3014   27.0760   47.2873 H   0  0  0  0  0  0  0  0  0  0  0  0
   58.1207   31.9390   47.7573 H   0  0  0  0  0  0  0  0  0  0  0  0
   58.1521   34.4145   47.4546 H   0  0  0  0  0  0  0  0  0  0  0  0
   58.1760   35.3950   45.1587 H   0  0  0  0  0  0  0  0  0  0  0  0
   58.1761   33.8979   43.1609 H   0  0  0  0  0  0  0  0  0  0  0  0
   58.1413   31.4194   43.4545 H   0  0  0  0  0  0  0  0  0  0  0  0
   55.4268   29.7973   44.4157 H   0  0  0  0  0  0  0  0  0  0  0  0
   56.8004   30.2984   43.3722 H   0  0  0  0  0  0  0  0  0  0  0  0
   56.2495   28.5886   43.3722 H   0  0  0  0  0  0  0  0  0  0  0  0
   56.8634   26.5722   44.1544 H   0  0  0  0  0  0  0  0  0  0  0  0
   57.6994   25.7939   45.5551 H   0  0  0  0  0  0  0  0  0  0  0  0
   54.8628   23.8996   43.5951 H   0  0  0  0  0  0  0  0  0  0  0  0
   56.0845   22.4006   42.0166 H   0  0  0  0  0  0  0  0  0  0  0  0
   58.2415   21.3497   42.7058 H   0  0  0  0  0  0  0  0  0  0  0  0
   59.1844   21.8036   44.9737 H   0  0  0  0  0  0  0  0  0  0  0  0
   57.9673   23.3028   46.5564 H   0  0  0  0  0  0  0  0  0  0  0  0
  1  2  1  0
  2  3  2  0
  3  4  1  0
  4  5  1  0
  5  6  2  0
  6  7  1  0
  7  8  2  0
  8  9  1  0
  9 10  2  0
  4 11  1  0
 11 12  1  0
 11 13  2  0
 13 14  1  0
 14 15  1  0
 15 16  1  0
 16 17  2  0
 16 18  2  0
 16 19  1  0
 19 20  2  0
 20 21  1  0
 21 22  2  0
 22 23  1  0
 23 24  2  0
 13  2  1  0
 24 19  1  0
 10  5  1  0
  1 25  1  0
  1 26  1  0
  1 27  1  0
  6 28  1  0
  7 29  1  0
  8 30  1  0
  9 31  1  0
 10 32  1  0
 12 33  1  0
 12 34  1  0
 12 35  1  0
 14 36  1  0
 14 37  1  0
 20 38  1  0
 21 39  1  0
 22 40  1  0
 23 41  1  0
 24 42  1  0
M  CHG  1  15  -1
M  END
>  <UniqueID>  (93) 
83

>  <SMILES>  (93) 
Cc1nn(-c2ccccc2)c(C)c1C[N-]S(=O)(=O)c1ccccc1

>  <Energy>  (93) 
75.68743647422426

>  <Genealogy>  (93) 
Cc1nn(-c2ccccc2)c(C)c1C[N-]S(=O)(=O)c1ccccc1 (protonated)
Cc1nn(-c2ccccc2)c(C)c1C[N-]S(=O)(=O)c1ccccc1 (3D coordinates assigned)
Cc1nn(-c2ccccc2)c(C)c1C[N-]S(=O)(=O)c1ccccc1 (optimized conformer: 75.68743647422426 kcal/mol)

>  <smiles>  (93) 
Cc1nn(-c2ccccc2)c(C)c1CNS(=O)(=O)c1ccccc1

>  <score_type>  (93) 
oracle

>  <origin>  (93) 
adg

>  <m_score__min__energy>  (93) 
-10.789999999999999

>  <m_primary>  (93) 
energy

$$$$
93:0
     RDKit          3D

 52 53  0  0  0  0  0  0  0  0999 V2000
   58.0780   21.4690   44.0540 C   0  0  0  0  0  0  0  0  0  0  0  0
   56.9010   21.3910   43.0850 C   0  0  0  0  0  0  0  0  0  0  0  0
   55.9400   22.4080   43.3710 O   0  0  0  0  0  0  0  0  0  0  0  0
   56.2090   23.6200   44.0280 C   0  0  0  0  0  0  0  0  0  0  0  0
   57.2890   24.4520   43.6740 C   0  0  0  0  0  0  0  0  0  0  0  0
   57.4830   25.6690   44.3310 C   0  0  0  0  0  0  0  0  0  0  0  0
   56.6090   26.0710   45.3570 C   0  0  0  0  0  0  0  0  0  0  0  0
   56.7010   27.3710   45.9540 N   0  0  0  0  0  0  0  0  0  0  0  0
   56.6810   28.6010   45.2250 C   0  0  0  0  0  0  0  0  0  0  0  0
   55.6380   29.3080   45.2060 O   0  0  0  0  0  0  0  0  0  0  0  0
   57.9150   29.0700   44.5210 C   0  0  0  0  0  0  0  0  0  0  0  0
   58.1360   30.4920   44.8170 N   0  0  0  0  0  0  0  0  0  0  0  0
   57.4250   31.5080   44.0340 C   0  0  0  0  0  0  0  0  0  0  0  0
   58.8740   30.9140   45.9830 C   0  0  0  0  0  0  0  0  0  0  0  0
   59.7850   30.1710   46.4440 O   0  0  0  0  0  0  0  0  0  0  0  0
   58.5500   32.1900   46.7100 C   0  0  0  0  0  0  0  0  0  0  0  0
   59.5900   33.5870   46.1550 S   0  0  0  0  0  0  0  0  0  0  0  0
   60.5270   33.8370   47.7040 C   0  0  0  0  0  0  0  0  0  0  0  0
   61.7120   32.9180   47.7770 C   0  0  0  0  0  0  0  0  0  0  0  0
   62.9390   33.0620   47.1490 C   0  0  0  0  0  0  0  0  0  0  0  0
   63.3900   34.2100   46.3010 C   0  0  0  0  0  0  0  0  0  0  0  0
   63.7180   32.0170   47.4830 N   0  0  0  0  0  0  0  0  0  0  0  0
   63.0300   31.2290   48.2590 O   0  0  0  0  0  0  0  0  0  0  0  0
   61.8240   31.7160   48.4600 C   0  0  0  0  0  0  0  0  0  0  0  0
   60.7920   31.0600   49.3210 C   0  0  0  0  0  0  0  0  0  0  0  0
   55.5500   25.2330   45.7200 C   0  0  0  0  0  0  0  0  0  0  0  0
   55.3590   24.0110   45.0690 C   0  0  0  0  0  0  0  0  0  0  0  0
   57.7038   21.4442   45.0881 H   0  0  0  0  0  0  0  0  0  0  0  0
   58.7485   20.6133   43.8861 H   0  0  0  0  0  0  0  0  0  0  0  0
   58.6298   22.4057   43.8861 H   0  0  0  0  0  0  0  0  0  0  0  0
   57.2706   21.5229   42.0574 H   0  0  0  0  0  0  0  0  0  0  0  0
   56.4182   20.4088   43.1953 H   0  0  0  0  0  0  0  0  0  0  0  0
   57.9817   24.1422   42.8776 H   0  0  0  0  0  0  0  0  0  0  0  0
   58.3244   26.3170   44.0443 H   0  0  0  0  0  0  0  0  0  0  0  0
   58.7796   28.4846   44.8670 H   0  0  0  0  0  0  0  0  0  0  0  0
   57.7922   28.9356   43.4362 H   0  0  0  0  0  0  0  0  0  0  0  0
   56.9298   32.2157   44.7152 H   0  0  0  0  0  0  0  0  0  0  0  0
   58.1418   32.0501   43.3998 H   0  0  0  0  0  0  0  0  0  0  0  0
   56.6701   31.0202   43.3998 H   0  0  0  0  0  0  0  0  0  0  0  0
   57.4943   32.4414   46.5302 H   0  0  0  0  0  0  0  0  0  0  0  0
   58.7473   32.0275   47.7799 H   0  0  0  0  0  0  0  0  0  0  0  0
   60.8778   34.8787   47.7468 H   0  0  0  0  0  0  0  0  0  0  0  0
   59.8624   33.6159   48.5522 H   0  0  0  0  0  0  0  0  0  0  0  0
   63.7153   35.0381   46.9479 H   0  0  0  0  0  0  0  0  0  0  0  0
   64.2290   33.8894   45.6660 H   0  0  0  0  0  0  0  0  0  0  0  0
   62.5571   34.5462   45.6660 H   0  0  0  0  0  0  0  0  0  0  0  0
   64.7050   31.8490   47.1860 H   0  0  0  0  0  0  0  0  0  0  0  0
   61.0429   31.2195   50.3801 H   0  0  0  0  0  0  0  0  0  0  0  0
   59.8052   31.4970   49.1081 H   0  0  0  0  0  0  0  0  0  0  0  0
   60.7689   29.9810   49.1081 H   0  0  0  0  0  0  0  0  0  0  0  0
   54.8628   25.5375   46.5231 H   0  0  0  0  0  0  0  0  0  0  0  0
   54.5343   23.3515   45.3772 H   0  0  0  0  0  0  0  0  0  0  0  0
  1  2  1  0
  2  3  1  0
  3  4  1  0
  4  5  2  0
  5  6  1  0
  6  7  2  0
  7  8  1  0
  8  9  1  0
  9 10  2  0
  9 11  1  0
 11 12  1  0
 12 13  1  0
 12 14  1  0
 14 15  2  0
 14 16  1  0
 16 17  1  0
 17 18  1  0
 18 19  1  0
 19 20  1  0
 20 21  1  0
 20 22  2  0
 22 23  1  0
 23 24  1  0
 24 25  1  0
  7 26  1  0
 26 27  2  0
 27  4  1  0
 24 19  2  0
  1 28  1  0
  1 29  1  0
  1 30  1  0
  2 31  1  0
  2 32  1  0
  5 33  1  0
  6 34  1  0
 11 35  1  0
 11 36  1  0
 13 37  1  0
 13 38  1  0
 13 39  1  0
 16 40  1  0
 16 41  1  0
 18 42  1  0
 18 43  1  0
 21 44  1  0
 21 45  1  0
 21 46  1  0
 22 47  1  0
 25 48  1  0
 25 49  1  0
 25 50  1  0
 26 51  1  0
 27 52  1  0
M  CHG  2   8  -1  22   1
M  END
>  <UniqueID>  (94) 
84

>  <SMILES>  (94) 
CCOc1ccc([N-]C(=O)CN(C)C(=O)CSCc2c(C)[nH+]oc2C)cc1

>  <Energy>  (94) 
74.95621235821548

>  <Genealogy>  (94) 
CCOc1ccc([N-]C(=O)CN(C)C(=O)CSCc2c(C)[nH+]oc2C)cc1 (protonated)
CCOc1ccc([N-]C(=O)CN(C)C(=O)CSCc2c(C)[nH+]oc2C)cc1 (3D coordinates assigned)
CCOc1ccc([N-]C(=O)CN(C)C(=O)CSCc2c(C)[nH+]oc2C)cc1 (optimized conformer: 74.95621235821548 kcal/mol)

>  <smiles>  (94) 
CCOc1ccc(NC(=O)CN(C)C(=O)CSCc2c(C)noc2C)cc1

>  <score_type>  (94) 
oracle

>  <origin>  (94) 
adg

>  <m_score__min__energy>  (94) 
-9.5899999999999999

>  <m_primary>  (94) 
energy

$$$$
94:0
     RDKit          3D

 19 19  0  0  0  0  0  0  0  0999 V2000
   60.8990   28.8270   44.8780 C   0  0  0  0  0  0  0  0  0  0  0  0
   59.4050   28.8960   45.0090 C   0  0  0  0  0  0  0  0  0  0  0  0
   58.6960   29.9690   44.4500 C   0  0  0  0  0  0  0  0  0  0  0  0
   57.3030   30.0100   44.5330 C   0  0  0  0  0  0  0  0  0  0  0  0
   56.6020   28.9780   45.1640 C   0  0  0  0  0  0  0  0  0  0  0  0
   55.2130   29.0330   45.2230 O   0  0  0  0  0  0  0  0  0  0  0  0
   57.3010   27.8940   45.7280 C   0  0  0  0  0  0  0  0  0  0  0  0
   56.5590   26.7540   46.3770 C   0  0  0  0  0  0  0  0  0  0  0  0
   55.2340   26.7230   45.9240 O   0  0  0  0  0  0  0  0  0  0  0  0
   58.7020   27.8510   45.6280 C   0  0  0  0  0  0  0  0  0  0  0  0
   61.3543   28.8060   45.8791 H   0  0  0  0  0  0  0  0  0  0  0  0
   61.1772   27.9150   44.3294 H   0  0  0  0  0  0  0  0  0  0  0  0
   61.2601   29.7094   44.3294 H   0  0  0  0  0  0  0  0  0  0  0  0
   59.2392   30.7810   43.9445 H   0  0  0  0  0  0  0  0  0  0  0  0
   56.7540   30.8589   44.0996 H   0  0  0  0  0  0  0  0  0  0  0  0
   57.0534   25.8053   46.1210 H   0  0  0  0  0  0  0  0  0  0  0  0
   56.5636   26.8957   47.4678 H   0  0  0  0  0  0  0  0  0  0  0  0
   55.1430   27.4580   45.2620 H   0  0  0  0  0  0  0  0  0  0  0  0
   59.2521   26.9913   46.0382 H   0  0  0  0  0  0  0  0  0  0  0  0
  1  2  1  0
  2  3  2  0
  3  4  1  0
  4  5  2  0
  5  6  1  0
  5  7  1  0
  7  8  1  0
  8  9  1  0
  7 10  2  0
 10  2  1  0
  1 11  1  0
  1 12  1  0
  1 13  1  0
  3 14  1  0
  4 15  1  0
  8 16  1  0
  8 17  1  0
  9 18  1  0
 10 19  1  0
M  CHG  1   6  -1
M  END
>  <UniqueID>  (95) 
85

>  <SMILES>  (95) 
Cc1ccc([O-])c(CO)c1

>  <Energy>  (95) 
16.56557217693385

>  <Genealogy>  (95) 
Cc1ccc([O-])c(CO)c1 (protonated)
Cc1ccc([O-])c(CO)c1 (3D coordinates assigned)
Cc1ccc([O-])c(CO)c1 (optimized conformer: 16.56557217693385 kcal/mol)

>  <smiles>  (95) 
Cc1ccc(O)c(CO)c1

>  <score_type>  (95) 
oracle

>  <origin>  (95) 
adg

>  <m_score__min__energy>  (95) 
-9.5399999999999991

>  <m_primary>  (95) 
energy

$$$$
95:0
     RDKit          3D

 32 34  0  0  0  0  0  0  0  0999 V2000
   57.5500   33.9630   44.8150 C   0  0  0  0  0  0  0  0  0  0  0  0
   58.8150   33.5300   45.4960 C   0  0  0  0  0  0  0  0  0  0  0  0
   59.8490   34.4510   45.7550 C   0  0  0  0  0  0  0  0  0  0  0  0
   61.0350   34.0410   46.3940 C   0  0  0  0  0  0  0  0  0  0  0  0
   61.2140   32.7040   46.7870 C   0  0  0  0  0  0  0  0  0  0  0  0
   62.4020   32.3300   47.4140 O   0  0  0  0  0  0  0  0  0  0  0  0
   60.1790   31.7960   46.5230 C   0  0  0  0  0  0  0  0  0  0  0  0
   59.0120   32.2000   45.8960 C   0  0  0  0  0  0  0  0  0  0  0  0
   58.1480   31.0260   45.7690 C   0  0  0  0  0  0  0  0  0  0  0  0
   57.0220   31.0020   45.2050 O   0  0  0  0  0  0  0  0  0  0  0  0
   58.7880   29.8790   46.3330 N   0  0  0  0  0  0  0  0  0  0  0  0
   58.2760   28.5370   46.4110 C   0  0  0  0  0  0  0  0  0  0  0  0
   59.0790   27.4970   46.9010 C   0  0  0  0  0  0  0  0  0  0  0  0
   58.5840   26.1940   46.9750 C   0  0  0  0  0  0  0  0  0  0  0  0
   57.2700   25.8980   46.5640 C   0  0  0  0  0  0  0  0  0  0  0  0
   56.7690   24.5020   46.6540 C   0  0  0  0  0  0  0  0  0  0  0  0
   55.5310   24.2720   46.6860 O   0  0  0  0  0  0  0  0  0  0  0  0
   57.6470   23.4260   46.7060 O   0  0  0  0  0  0  0  0  0  0  0  0
   56.4630   26.9470   46.0720 C   0  0  0  0  0  0  0  0  0  0  0  0
   55.1560   26.7150   45.6550 O   0  0  0  0  0  0  0  0  0  0  0  0
   56.9670   28.2500   45.9980 C   0  0  0  0  0  0  0  0  0  0  0  0
   60.0500   30.3620   46.8020 C   0  0  0  0  0  0  0  0  0  0  0  0
   60.8920   29.6510   47.4120 O   0  0  0  0  0  0  0  0  0  0  0  0
   56.7956   34.2212   45.5727 H   0  0  0  0  0  0  0  0  0  0  0  0
   57.7544   34.8423   44.1865 H   0  0  0  0  0  0  0  0  0  0  0  0
   57.1727   33.1429   44.1865 H   0  0  0  0  0  0  0  0  0  0  0  0
   59.7286   35.5023   45.4547 H   0  0  0  0  0  0  0  0  0  0  0  0
   61.8303   34.7758   46.5877 H   0  0  0  0  0  0  0  0  0  0  0  0
   62.5810   31.3850   47.7260 H   0  0  0  0  0  0  0  0  0  0  0  0
   60.1070   27.7097   47.2296 H   0  0  0  0  0  0  0  0  0  0  0  0
   59.2278   25.3889   47.3588 H   0  0  0  0  0  0  0  0  0  0  0  0
   56.3292   29.0586   45.6115 H   0  0  0  0  0  0  0  0  0  0  0  0
  1  2  1  0
  2  3  2  0
  3  4  1  0
  4  5  2  0
  5  6  1  0
  5  7  1  0
  7  8  2  0
  8  9  1  0
  9 10  2  0
  9 11  1  0
 11 12  1  0
 12 13  2  0
 13 14  1  0
 14 15  2  0
 15 16  1  0
 16 17  2  0
 16 18  1  0
 15 19  1  0
 19 20  1  0
 19 21  2  0
 11 22  1  0
 22 23  2  0
  8  2  1  0
 21 12  1  0
 22  7  1  0
  1 24  1  0
  1 25  1  0
  1 26  1  0
  3 27  1  0
  4 28  1  0
  6 29  1  0
 13 30  1  0
 14 31  1  0
 21 32  1  0
M  CHG  2  18  -1  20  -1
M  END
>  <UniqueID>  (96) 
86

>  <SMILES>  (96) 
Cc1ccc(O)c2c1C(=O)N(c1ccc(C(=O)[O-])c([O-])c1)C2=O

>  <Energy>  (96) 
74.55491038675669

>  <Genealogy>  (96) 
Cc1ccc(O)c2c1C(=O)N(c1ccc(C(=O)[O-])c([O-])c1)C2=O (protonated)
Cc1ccc(O)c2c1C(=O)N(c1ccc(C(=O)[O-])c([O-])c1)C2=O (3D coordinates assigned)
Cc1ccc(O)c2c1C(=O)N(c1ccc(C(=O)[O-])c([O-])c1)C2=O (nonaromatic ring conformer: 74.55491038675669 kcal/mol)

>  <smiles>  (96) 
Cc1ccc(O)c2c1C(=O)N(c1ccc(C(=O)O)c(O)c1)C2=O

>  <score_type>  (96) 
oracle

>  <origin>  (96) 
adg

>  <m_score__min__energy>  (96) 
-12.4

>  <m_primary>  (96) 
energy

$$$$
