0:0
     RDKit          3D

 57 60  0  0  0  0  0  0  0  0999 V2000
   59.4032   21.7194   44.9375 H   0  0  0  0  0  0  0  0  0  0  0  0
   58.6570   22.1990   44.2870 C   0  0  0  0  0  0  0  0  0  0  0  0
   58.6176   23.2956   44.2107 H   0  0  0  0  0  0  0  0  0  0  0  0
   57.7990   21.4500   43.5900 C   0  0  0  0  0  0  0  0  0  0  0  0
   57.8493   20.3545   43.6754 H   0  0  0  0  0  0  0  0  0  0  0  0
   56.7680   22.0690   42.6930 C   0  0  0  0  0  0  0  0  0  0  0  0
   57.1609   23.0097   42.2798 H   0  0  0  0  0  0  0  0  0  0  0  0
   56.5346   21.3731   41.8737 H   0  0  0  0  0  0  0  0  0  0  0  0
   55.5520   22.3440   43.4530 N   0  0  0  0  0  0  0  0  0  0  0  0
   55.5410   22.8650   44.6430 C   0  0  0  0  0  0  0  0  0  0  0  0
   55.4100   24.2110   44.7790 N   0  0  0  0  0  0  0  0  0  0  0  0
   55.3840   24.8040   46.0030 C   0  0  0  0  0  0  0  0  0  0  0  0
   55.2880   26.2360   46.0730 N   0  0  0  0  0  0  0  0  0  0  0  0
   56.2620   27.0950   45.9830 C   0  0  0  0  0  0  0  0  0  0  0  0
   57.4370   26.9070   46.6450 N   0  0  0  0  0  0  0  0  0  0  0  0
   58.4500   27.8110   46.5750 C   0  0  0  0  0  0  0  0  0  0  0  0
   59.7110   27.5380   47.2970 C   0  0  0  0  0  0  0  0  0  0  0  0
   60.5310   26.7210   46.8030 O   0  0  0  0  0  0  0  0  0  0  0  0
   60.0550   28.2020   48.5200 N   0  0  0  0  0  0  0  0  0  0  0  0
   59.6760   29.5340   48.8960 C   0  0  0  0  0  0  0  0  0  0  0  0
   58.9510   29.7880   50.0740 C   0  0  0  0  0  0  0  0  0  0  0  0
   58.6571   28.9545   50.7289 H   0  0  0  0  0  0  0  0  0  0  0  0
   58.6040   31.0970   50.4130 C   0  0  0  0  0  0  0  0  0  0  0  0
   58.0237   31.2902   51.3273 H   0  0  0  0  0  0  0  0  0  0  0  0
   58.9900   32.1620   49.5970 C   0  0  0  0  0  0  0  0  0  0  0  0
   58.7013   33.1890   49.8651 H   0  0  0  0  0  0  0  0  0  0  0  0
   59.7460   31.9290   48.4340 C   0  0  0  0  0  0  0  0  0  0  0  0
   60.1530   33.0610   47.5680 C   0  0  0  0  0  0  0  0  0  0  0  0
   59.3910   33.4280   46.6320 O   0  0  0  0  0  0  0  0  0  0  0  0
   61.4050   33.7430   47.7660 N   0  0  0  0  0  0  0  0  0  0  0  0
   62.4340   33.7470   46.7210 C   0  0  0  0  0  0  0  0  0  0  0  0
   62.0275   33.2931   45.8052 H   0  0  0  0  0  0  0  0  0  0  0  0
   62.7403   34.7830   46.5139 H   0  0  0  0  0  0  0  0  0  0  0  0
   63.6490   32.9420   47.1930 C   0  0  0  0  0  0  0  0  0  0  0  0
   63.3703   31.8805   47.2674 H   0  0  0  0  0  0  0  0  0  0  0  0
   64.4628   33.0768   46.4653 H   0  0  0  0  0  0  0  0  0  0  0  0
   64.1340   33.4310   48.5650 C   0  0  0  0  0  0  0  0  0  0  0  0
   64.9474   32.7761   48.9107 H   0  0  0  0  0  0  0  0  0  0  0  0
   64.4847   34.4680   48.4572 H   0  0  0  0  0  0  0  0  0  0  0  0
   63.0000   33.4110   49.6050 C   0  0  0  0  0  0  0  0  0  0  0  0
   62.6170   32.1020   49.8500 F   0  0  0  0  0  0  0  0  0  0  0  0
   63.4550   33.9670   50.7880 F   0  0  0  0  0  0  0  0  0  0  0  0
   61.7930   34.2120   49.1010 C   0  0  0  0  0  0  0  0  0  0  0  0
   60.9500   34.0765   49.7945 H   0  0  0  0  0  0  0  0  0  0  0  0
   62.0622   35.2772   49.0467 H   0  0  0  0  0  0  0  0  0  0  0  0
   60.0800   30.6050   48.0910 C   0  0  0  0  0  0  0  0  0  0  0  0
   60.6651   30.4102   47.1801 H   0  0  0  0  0  0  0  0  0  0  0  0
   58.2860   28.9580   45.7850 C   0  0  0  0  0  0  0  0  0  0  0  0
   59.0984   29.6931   45.6867 H   0  0  0  0  0  0  0  0  0  0  0  0
   57.0720   29.1470   45.1270 C   0  0  0  0  0  0  0  0  0  0  0  0
   56.9124   30.0471   44.5152 H   0  0  0  0  0  0  0  0  0  0  0  0
   56.0860   28.2200   45.2410 N   0  0  0  0  0  0  0  0  0  0  0  0
   55.5410   24.0090   47.1500 C   0  0  0  0  0  0  0  0  0  0  0  0
   55.5617   24.4652   48.1507 H   0  0  0  0  0  0  0  0  0  0  0  0
   55.6700   22.6300   46.9940 C   0  0  0  0  0  0  0  0  0  0  0  0
   55.7751   21.9840   47.8781 H   0  0  0  0  0  0  0  0  0  0  0  0
   55.6660   22.0840   45.7510 N   0  0  0  0  0  0  0  0  0  0  0  0
  1  2  1  0
  2  3  1  0
  2  4  2  0
  4  5  1  0
  4  6  1  0
  6  7  1  0
  6  8  1  0
  6  9  1  0
  9 10  2  0
 10 11  1  0
 11 12  2  0
 12 13  1  0
 13 14  2  3
 14 15  1  0
 15 16  2  0
 16 17  1  0
 17 18  2  0
 17 19  1  0
 19 20  1  0
 20 21  2  0
 21 22  1  0
 21 23  1  0
 23 24  1  0
 23 25  2  0
 25 26  1  0
 25 27  1  0
 27 28  1  0
 28 29  2  0
 28 30  1  0
 30 31  1  0
 31 32  1  0
 31 33  1  0
 31 34  1  0
 34 35  1  0
 34 36  1  0
 34 37  1  0
 37 38  1  0
 37 39  1  0
 37 40  1  0
 40 41  1  0
 40 42  1  0
 40 43  1  0
 43 44  1  0
 43 45  1  0
 27 46  2  0
 46 47  1  0
 16 48  1  0
 48 49  1  0
 48 50  2  0
 50 51  1  0
 50 52  1  0
 12 53  1  0
 53 54  1  0
 53 55  2  0
 55 56  1  0
 55 57  1  0
 57 10  1  0
 52 14  1  0
 46 20  1  0
 43 30  1  0
M  CHG  3  19  -1  52  -1  57  -1
M  END
>  <UniqueID>  (1) 
1

>  <SMILES>  (1) 
C=CC/N=c1/nc(N=c2nc(C(=O)[N-]c3cccc(C(=O)N4CCCC(F)(F)C4)c3)cc[n-]2)cc[n-]1

>  <Energy>  (1) 
71.76686523753949

>  <Genealogy>  (1) 
C=CCN=c1nc(N=c2nc(C(=O)[N-]c3cccc(C(=O)N4CCCC(F)(F)C4)c3)cc[n-]2)cc[n-]1 (protonated)
C=CC/N=c1/nc(N=c2nc(C(=O)[N-]c3cccc(C(=O)N4CCCC(F)(F)C4)c3)cc[n-]2)cc[n-]1 (cis-trans isomerization)
C=CC/N=c1/nc(N=c2nc(C(=O)[N-]c3cccc(C(=O)N4CCCC(F)(F)C4)c3)cc[n-]2)cc[n-]1 (3D coordinates assigned)
C=CC/N=c1/nc(N=c2nc(C(=O)[N-]c3cccc(C(=O)N4CCCC(F)(F)C4)c3)cc[n-]2)cc[n-]1 (nonaromatic ring conformer: 71.76686523753949 kcal/mol)

>  <smiles>  (1) 
C=CCN=c1nc(N=c2nc(C(=O)Nc3cccc(C(=O)N4CCCC(F)(F)C4)c3)cc[nH]2)cc[nH]1

>  <score_type>  (1) 
oracle

>  <origin>  (1) 
adg

>  <m_score__min__energy>  (1) 
-15.25

>  <m_primary>  (1) 
energy

$$$$
1:0
     RDKit          3D

 45 47  0  0  0  0  0  0  0  0999 V2000
   55.4370   29.4150   44.9350 N   0  0  0  0  0  0  0  0  0  0  0  0
   56.5070   29.7330   44.0450 C   0  0  0  0  0  0  0  0  0  0  0  0
   56.7540   28.9580   43.0810 O   0  0  0  0  0  0  0  0  0  0  0  0
   57.3170   30.9570   44.2480 C   0  0  0  0  0  0  0  0  0  0  0  0
   57.4060   31.9280   43.2340 C   0  0  0  0  0  0  0  0  0  0  0  0
   58.1640   33.0840   43.4250 C   0  0  0  0  0  0  0  0  0  0  0  0
   58.8460   33.2860   44.6250 C   0  0  0  0  0  0  0  0  0  0  0  0
   58.7820   32.3280   45.6510 C   0  0  0  0  0  0  0  0  0  0  0  0
   59.5060   32.5480   46.9670 C   0  0  2  0  0  0  0  0  0  0  0  0
   60.9210   33.1180   46.7090 C   0  0  0  0  0  0  0  0  0  0  0  0
   61.8170   32.9370   47.9390 C   0  0  0  0  0  0  0  0  0  0  0  0
   61.9230   31.4540   48.3570 C   0  0  0  0  0  0  0  0  0  0  0  0
   60.8710   30.6220   47.7340 N   0  0  0  0  0  0  0  0  0  0  0  0
   60.8870   29.2160   48.1960 C   0  0  0  0  0  0  0  0  0  0  0  0
   59.8060   28.3520   47.5800 C   0  0  0  0  0  0  0  0  0  0  0  0
   60.1400   27.2310   46.8070 C   0  0  0  0  0  0  0  0  0  0  0  0
   59.1360   26.4410   46.2450 C   0  0  0  0  0  0  0  0  0  0  0  0
   57.7910   26.7830   46.4510 C   0  0  0  0  0  0  0  0  0  0  0  0
   56.7000   25.9770   45.8760 C   0  0  0  0  0  0  0  0  0  0  0  0
   55.3560   26.4490   45.9410 N   0  0  0  0  0  0  0  0  0  0  0  0
   56.9420   24.8690   45.3240 O   0  0  0  0  0  0  0  0  0  0  0  0
   57.4890   27.8840   47.1940 N   0  0  0  0  0  0  0  0  0  0  0  0
   58.4500   28.6660   47.7520 C   0  0  0  0  0  0  0  0  0  0  0  0
   59.5440   31.2590   47.8300 C   0  0  0  0  0  0  0  0  0  0  0  0
   58.0080   31.1690   45.4560 C   0  0  0  0  0  0  0  0  0  0  0  0
   55.5140   28.6160   45.6020 H   0  0  0  0  0  0  0  0  0  0  0  0
   56.8741   31.7749   42.2834 H   0  0  0  0  0  0  0  0  0  0  0  0
   58.2239   33.8384   42.6267 H   0  0  0  0  0  0  0  0  0  0  0  0
   59.4381   34.2018   44.7691 H   0  0  0  0  0  0  0  0  0  0  0  0
   58.9413   33.2900   47.5505 H   0  0  0  0  0  0  0  0  0  0  0  0
   61.3712   32.5909   45.8549 H   0  0  0  0  0  0  0  0  0  0  0  0
   60.8326   34.1932   46.4942 H   0  0  0  0  0  0  0  0  0  0  0  0
   62.8236   33.3140   47.7051 H   0  0  0  0  0  0  0  0  0  0  0  0
   61.3698   33.4968   48.7736 H   0  0  0  0  0  0  0  0  0  0  0  0
   62.9069   31.0690   48.0509 H   0  0  0  0  0  0  0  0  0  0  0  0
   61.7943   31.4004   49.4481 H   0  0  0  0  0  0  0  0  0  0  0  0
   61.8645   28.7799   47.9425 H   0  0  0  0  0  0  0  0  0  0  0  0
   60.6995   29.2353   49.2797 H   0  0  0  0  0  0  0  0  0  0  0  0
   61.1967   26.9733   46.6429 H   0  0  0  0  0  0  0  0  0  0  0  0
   59.3973   25.5568   45.6450 H   0  0  0  0  0  0  0  0  0  0  0  0
   55.1490   27.4630   46.0790 H   0  0  0  0  0  0  0  0  0  0  0  0
   58.1631   29.5494   48.3413 H   0  0  0  0  0  0  0  0  0  0  0  0
   58.7771   30.5575   47.4698 H   0  0  0  0  0  0  0  0  0  0  0  0
   59.3472   31.5232   48.8795 H   0  0  0  0  0  0  0  0  0  0  0  0
   57.9421   30.4190   46.2579 H   0  0  0  0  0  0  0  0  0  0  0  0
  1  2  1  0
  2  3  2  0
  2  4  1  0
  4  5  2  0
  5  6  1  0
  6  7  2  0
  7  8  1  0
  8  9  1  0
  9 10  1  0
 10 11  1  0
 11 12  1  0
 12 13  1  0
 13 14  1  0
 14 15  1  0
 15 16  2  0
 16 17  1  0
 17 18  2  0
 18 19  1  0
 19 20  1  0
 19 21  2  0
 18 22  1  0
 22 23  2  0
 13 24  1  0
  8 25  2  0
 25  4  1  0
 24  9  1  0
 23 15  1  0
  1 26  1  0
  5 27  1  0
  6 28  1  0
  7 29  1  0
  9 30  1  1
 10 31  1  0
 10 32  1  0
 11 33  1  0
 11 34  1  0
 12 35  1  0
 12 36  1  0
 14 37  1  0
 14 38  1  0
 16 39  1  0
 17 40  1  0
 20 41  1  0
 23 42  1  0
 24 43  1  0
 24 44  1  0
 25 45  1  0
M  CHG  2   1  -1  20  -1
M  END
>  <UniqueID>  (2) 
2

>  <SMILES>  (2) 
[NH-]C(=O)c1cccc([C@@H]2CCCN(Cc3ccc(C([NH-])=O)nc3)C2)c1

>  <Energy>  (2) 
55.518651514227656

>  <Genealogy>  (2) 
[NH-]C(=O)c1cccc(C2CCCN(Cc3ccc(C([NH-])=O)nc3)C2)c1 (protonated)
[NH-]C(=O)c1cccc([C@@H]2CCCN(Cc3ccc(C([NH-])=O)nc3)C2)c1 (chirality)
[NH-]C(=O)c1cccc([C@@H]2CCCN(Cc3ccc(C([NH-])=O)nc3)C2)c1 (3D coordinates assigned)
[NH-]C(=O)c1cccc([C@@H]2CCCN(Cc3ccc(C([NH-])=O)nc3)C2)c1 (nonaromatic ring conformer: 55.518651514227656 kcal/mol)

>  <smiles>  (2) 
NC(=O)c1cccc(C2CCCN(Cc3ccc(C(N)=O)nc3)C2)c1

>  <score_type>  (2) 
oracle

>  <origin>  (2) 
adg

>  <m_score__min__energy>  (2) 
-13.949999999999999

>  <m_primary>  (2) 
energy

$$$$
2:0
     RDKit          3D

 40 42  0  0  0  0  0  0  0  0999 V2000
   55.7993   29.1949   44.6419 H   0  0  0  0  0  0  0  0  0  0  0  0
   56.3450   30.0590   44.2350 C   0  0  0  0  0  0  0  0  0  0  0  0
   56.7870   31.0390   45.0700 N   0  0  0  0  0  0  0  0  0  0  0  0
   57.4720   32.1210   44.6070 C   0  0  0  0  0  0  0  0  0  0  0  0
   57.9220   33.1790   45.5740 C   0  0  0  0  0  0  0  0  0  0  0  0
   57.1007   33.8924   45.7367 H   0  0  0  0  0  0  0  0  0  0  0  0
   58.7973   33.6946   45.1521 H   0  0  0  0  0  0  0  0  0  0  0  0
   58.2910   32.5960   46.8240 O   0  0  0  0  0  0  0  0  0  0  0  0
   59.6060   32.2950   47.2230 C   0  0  0  0  0  0  0  0  0  0  0  0
   60.7040   33.1060   46.8800 C   0  0  0  0  0  0  0  0  0  0  0  0
   60.5482   34.0164   46.2826 H   0  0  0  0  0  0  0  0  0  0  0  0
   61.9900   32.7580   47.2960 C   0  0  0  0  0  0  0  0  0  0  0  0
   63.3620   33.7650   46.8710 Cl  0  0  0  0  0  0  0  0  0  0  0  0
   62.1730   31.6010   48.0510 C   0  0  0  0  0  0  0  0  0  0  0  0
   63.1816   31.3138   48.3831 H   0  0  0  0  0  0  0  0  0  0  0  0
   61.1050   30.8290   48.3760 N   0  0  0  0  0  0  0  0  0  0  0  0
   59.8340   31.1460   47.9970 C   0  0  0  0  0  0  0  0  0  0  0  0
   58.8300   30.3820   48.3220 N   0  0  0  0  0  0  0  0  0  0  0  0
   58.9000   28.9790   48.6230 C   0  0  0  0  0  0  0  0  0  0  0  0
   59.5650   28.6040   49.6230 O   0  0  0  0  0  0  0  0  0  0  0  0
   58.2440   27.9930   47.8140 N   0  0  0  0  0  0  0  0  0  0  0  0
   58.4070   27.8180   46.3970 C   0  0  0  0  0  0  0  0  0  0  0  0
   59.5010   28.4060   45.7340 C   0  0  0  0  0  0  0  0  0  0  0  0
   60.2272   29.0030   46.3052 H   0  0  0  0  0  0  0  0  0  0  0  0
   59.6730   28.2390   44.3600 C   0  0  0  0  0  0  0  0  0  0  0  0
   60.5248   28.7135   43.8508 H   0  0  0  0  0  0  0  0  0  0  0  0
   58.7670   27.4720   43.6330 C   0  0  0  0  0  0  0  0  0  0  0  0
   58.9017   27.3454   42.5486 H   0  0  0  0  0  0  0  0  0  0  0  0
   57.6880   26.8630   44.2760 C   0  0  0  0  0  0  0  0  0  0  0  0
   56.9821   26.2530   43.6932 H   0  0  0  0  0  0  0  0  0  0  0  0
   57.4920   27.0200   45.6620 C   0  0  0  0  0  0  0  0  0  0  0  0
   56.3200   26.3610   46.2970 C   0  0  0  0  0  0  0  0  0  0  0  0
   55.1430   26.7040   46.0120 O   0  0  0  0  0  0  0  0  0  0  0  0
   56.5070   25.3400   47.2230 O   0  0  0  0  0  0  0  0  0  0  0  0
   57.7170   32.2510   43.2320 C   0  0  0  0  0  0  0  0  0  0  0  0
   58.2544   33.1290   42.8443 H   0  0  0  0  0  0  0  0  0  0  0  0
   57.2720   31.2550   42.3600 C   0  0  0  0  0  0  0  0  0  0  0  0
   57.4634   31.3415   41.2803 H   0  0  0  0  0  0  0  0  0  0  0  0
   56.5840   30.1500   42.8620 C   0  0  0  0  0  0  0  0  0  0  0  0
   56.2334   29.3585   42.1833 H   0  0  0  0  0  0  0  0  0  0  0  0
  1  2  1  0
  2  3  2  0
  3  4  1  0
  4  5  1  0
  5  6  1  0
  5  7  1  0
  5  8  1  0
  8  9  1  0
  9 10  2  0
 10 11  1  0
 10 12  1  0
 12 13  1  0
 12 14  2  0
 14 15  1  0
 14 16  1  0
 16 17  1  0
 17 18  2  0
 18 19  1  0
 19 20  2  0
 19 21  1  0
 21 22  1  0
 22 23  2  0
 23 24  1  0
 23 25  1  0
 25 26  1  0
 25 27  2  0
 27 28  1  0
 27 29  1  0
 29 30  1  0
 29 31  2  0
 31 32  1  0
 32 33  2  0
 32 34  1  0
  4 35  2  0
 35 36  1  0
 35 37  1  0
 37 38  1  0
 37 39  2  0
 39 40  1  0
 39  2  1  0
 17  9  1  0
 31 22  1  0
M  CHG  3  16  -1  21  -1  34  -1
M  END
>  <UniqueID>  (3) 
3

>  <SMILES>  (3) 
O=C(/N=c1\[n-]cc(Cl)cc1OCc1ccccn1)[N-]c1ccccc1C(=O)[O-]

>  <Energy>  (3) 
55.0348519855281

>  <Genealogy>  (3) 
O=C(N=c1[n-]cc(Cl)cc1OCc1ccccn1)[N-]c1ccccc1C(=O)[O-] (protonated)
O=C(/N=c1\[n-]cc(Cl)cc1OCc1ccccn1)[N-]c1ccccc1C(=O)[O-] (cis-trans isomerization)
O=C(/N=c1\[n-]cc(Cl)cc1OCc1ccccn1)[N-]c1ccccc1C(=O)[O-] (3D coordinates assigned)
O=C(/N=c1\[n-]cc(Cl)cc1OCc1ccccn1)[N-]c1ccccc1C(=O)[O-] (optimized conformer: 55.0348519855281 kcal/mol)

>  <smiles>  (3) 
O=C(N=c1[nH]cc(Cl)cc1OCc1ccccn1)Nc1ccccc1C(=O)O

>  <score_type>  (3) 
oracle

>  <origin>  (3) 
adg

>  <m_score__min__energy>  (3) 
-13.26

>  <m_primary>  (3) 
energy

$$$$
3:0
     RDKit          3D

 45 47  0  0  0  0  0  0  0  0999 V2000
   61.0850   30.8560   47.7010 C   0  0  0  0  0  0  0  0  0  0  0  0
   59.8230   31.1030   48.3130 O   0  0  0  0  0  0  0  0  0  0  0  0
   58.9470   32.0940   47.8600 C   0  0  0  0  0  0  0  0  0  0  0  0
   58.5190   32.9690   48.6610 O   0  0  0  0  0  0  0  0  0  0  0  0
   58.5270   32.1180   46.4420 C   0  0  0  0  0  0  0  0  0  0  0  0
   58.8750   33.1990   45.6150 C   0  0  0  0  0  0  0  0  0  0  0  0
   58.4680   33.2270   44.2780 C   0  0  0  0  0  0  0  0  0  0  0  0
   57.7130   32.1780   43.7520 C   0  0  0  0  0  0  0  0  0  0  0  0
   57.3630   31.0910   44.5590 C   0  0  0  0  0  0  0  0  0  0  0  0
   56.4070   29.7760   43.8820 S   0  0  0  0  0  0  0  0  0  0  0  0
   56.6340   29.6600   42.4000 O   0  0  0  0  0  0  0  0  0  0  0  0
   54.9510   30.0510   44.1190 O   0  0  0  0  0  0  0  0  0  0  0  0
   56.8400   28.2790   44.6460 N   0  0  0  0  0  0  0  0  0  0  0  0
   58.1730   28.0020   45.1090 C   0  0  0  0  0  0  0  0  0  0  0  0
   59.2730   28.6650   44.5320 C   0  0  0  0  0  0  0  0  0  0  0  0
   60.5640   28.4590   45.0180 C   0  0  0  0  0  0  0  0  0  0  0  0
   60.7790   27.5890   46.0840 C   0  0  0  0  0  0  0  0  0  0  0  0
   59.7010   26.9190   46.6680 C   0  0  0  0  0  0  0  0  0  0  0  0
   58.3910   27.1170   46.1950 C   0  0  0  0  0  0  0  0  0  0  0  0
   57.2830   26.3430   46.8090 C   0  0  0  0  0  0  0  0  0  0  0  0
   57.4820   25.7260   47.8890 O   0  0  0  0  0  0  0  0  0  0  0  0
   55.9580   26.3510   46.2590 N   0  0  0  0  0  0  0  0  0  0  0  0
   55.2960   25.2510   45.6190 C   0  0  0  0  0  0  0  0  0  0  0  0
   55.9720   24.3910   44.7390 C   0  0  0  0  0  0  0  0  0  0  0  0
   55.2660   23.3280   44.1760 C   0  0  0  0  0  0  0  0  0  0  0  0
   55.8400   22.5380   43.3820 O   0  0  0  0  0  0  0  0  0  0  0  0
   53.9590   23.1370   44.4900 N   0  0  0  0  0  0  0  0  0  0  0  0
   53.3200   23.9670   45.3550 C   0  0  0  0  0  0  0  0  0  0  0  0
   52.0750   23.7590   45.6440 N   0  0  0  0  0  0  0  0  0  0  0  0
   53.9920   25.0080   45.9150 N   0  0  0  0  0  0  0  0  0  0  0  0
   57.7700   31.0620   45.9020 C   0  0  0  0  0  0  0  0  0  0  0  0
   61.8473   30.7068   48.4799 H   0  0  0  0  0  0  0  0  0  0  0  0
   61.0187   29.9538   47.0752 H   0  0  0  0  0  0  0  0  0  0  0  0
   61.3637   31.7166   47.0752 H   0  0  0  0  0  0  0  0  0  0  0  0
   59.4716   34.0287   46.0222 H   0  0  0  0  0  0  0  0  0  0  0  0
   58.7437   34.0786   43.6386 H   0  0  0  0  0  0  0  0  0  0  0  0
   57.3924   32.2062   42.7001 H   0  0  0  0  0  0  0  0  0  0  0  0
   56.1070   27.5390   44.6920 H   0  0  0  0  0  0  0  0  0  0  0  0
   59.1124   29.3529   43.6888 H   0  0  0  0  0  0  0  0  0  0  0  0
   61.4140   28.9847   44.5584 H   0  0  0  0  0  0  0  0  0  0  0  0
   61.7980   27.4293   46.4664 H   0  0  0  0  0  0  0  0  0  0  0  0
   59.8785   26.2294   47.5065 H   0  0  0  0  0  0  0  0  0  0  0  0
   57.0334   24.5517   44.4992 H   0  0  0  0  0  0  0  0  0  0  0  0
   51.7950   23.2090   46.4870 H   0  0  0  0  0  0  0  0  0  0  0  0
   57.4950   30.2071   46.5372 H   0  0  0  0  0  0  0  0  0  0  0  0
  1  2  1  0
  2  3  1  0
  3  4  2  0
  3  5  1  0
  5  6  2  0
  6  7  1  0
  7  8  2  0
  8  9  1  0
  9 10  1  0
 10 11  2  0
 10 12  2  0
 10 13  1  0
 13 14  1  0
 14 15  2  0
 15 16  1  0
 16 17  2  0
 17 18  1  0
 18 19  2  0
 19 20  1  0
 20 21  2  0
 20 22  1  0
 22 23  1  0
 23 24  2  0
 24 25  1  0
 25 26  2  0
 25 27  1  0
 27 28  1  0
 28 29  2  3
 28 30  1  0
  9 31  2  0
 31  5  1  0
 19 14  1  0
 30 23  1  0
  1 32  1  0
  1 33  1  0
  1 34  1  0
  6 35  1  0
  7 36  1  0
  8 37  1  0
 13 38  1  0
 15 39  1  0
 16 40  1  0
 17 41  1  0
 18 42  1  0
 24 43  1  0
 29 44  1  0
 31 45  1  0
M  CHG  3  22  -1  27  -1  30  -1
M  END
>  <UniqueID>  (4) 
4

>  <SMILES>  (4) 
COC(=O)c1cccc(S(=O)(=O)Nc2ccccc2C(=O)[N-]c2cc(=O)[n-]c(=N)[n-]2)c1

>  <Energy>  (4) 
60.003139289054204

>  <Genealogy>  (4) 
COC(=O)c1cccc(S(=O)(=O)Nc2ccccc2C(=O)[N-]c2cc(=O)[n-]c(=N)[n-]2)c1 (protonated)
COC(=O)c1cccc(S(=O)(=O)Nc2ccccc2C(=O)[N-]c2cc(=O)[n-]c(=N)[n-]2)c1 (3D coordinates assigned)
COC(=O)c1cccc(S(=O)(=O)Nc2ccccc2C(=O)[N-]c2cc(=O)[n-]c(=N)[n-]2)c1 (optimized conformer: 60.003139289054204 kcal/mol)

>  <smiles>  (4) 
COC(=O)c1cccc(S(=O)(=O)Nc2ccccc2C(=O)Nc2cc(=O)[nH]c(=N)[nH]2)c1

>  <score_type>  (4) 
oracle

>  <origin>  (4) 
adg

>  <m_score__min__energy>  (4) 
-15.01

>  <m_primary>  (4) 
energy

$$$$
4:0
     RDKit          3D

 41 43  0  0  0  0  0  0  0  0999 V2000
   60.7750   29.7480   46.5080 C   0  0  0  0  0  0  0  0  0  0  0  0
   59.4700   29.0770   46.1720 C   0  0  0  0  0  0  0  0  0  0  0  0
   59.2360   27.7580   46.5910 C   0  0  0  0  0  0  0  0  0  0  0  0
   58.0210   27.1290   46.3120 C   0  0  0  0  0  0  0  0  0  0  0  0
   57.7260   25.3300   46.8850 Br  0  0  0  0  0  0  0  0  0  0  0  0
   57.0180   27.8120   45.6200 C   0  0  0  0  0  0  0  0  0  0  0  0
   57.2230   29.1380   45.2010 C   0  0  0  0  0  0  0  0  0  0  0  0
   56.2320   29.8590   44.5080 C   0  0  0  0  0  0  0  0  0  0  0  0
   55.1170   29.3340   44.2390 O   0  0  0  0  0  0  0  0  0  0  0  0
   56.4810   31.1750   44.1090 C   0  0  0  0  0  0  0  0  0  0  0  0
   57.7170   31.7650   44.4000 C   0  0  0  0  0  0  0  0  0  0  0  0
   58.0290   33.1610   43.9490 C   0  0  0  0  0  0  0  0  0  0  0  0
   58.6180   34.1620   45.3090 S   0  0  0  0  0  0  0  0  0  0  0  0
   57.4750   34.4410   46.2440 O   0  0  0  0  0  0  0  0  0  0  0  0
   59.1260   35.4690   44.7690 O   0  0  0  0  0  0  0  0  0  0  0  0
   59.9050   33.3800   46.1810 N   0  0  0  0  0  0  0  0  0  0  0  0
   60.1260   34.0430   47.4670 C   0  0  0  0  0  0  0  0  0  0  0  0
   61.5240   33.7620   47.9480 C   0  0  0  0  0  0  0  0  0  0  0  0
   62.5210   33.3780   47.0350 C   0  0  0  0  0  0  0  0  0  0  0  0
   63.8150   33.0910   47.4810 C   0  0  0  0  0  0  0  0  0  0  0  0
   64.1220   33.1760   48.8410 C   0  0  0  0  0  0  0  0  0  0  0  0
   63.1340   33.5410   49.7590 C   0  0  0  0  0  0  0  0  0  0  0  0
   61.8370   33.8280   49.3200 C   0  0  0  0  0  0  0  0  0  0  0  0
   60.8880   34.1600   50.2300 F   0  0  0  0  0  0  0  0  0  0  0  0
   58.6620   31.0540   45.0730 N   0  0  0  0  0  0  0  0  0  0  0  0
   58.4570   29.7720   45.4810 C   0  0  0  0  0  0  0  0  0  0  0  0
   60.8870   29.8056   47.6008 H   0  0  0  0  0  0  0  0  0  0  0  0
   61.6065   29.1656   46.0844 H   0  0  0  0  0  0  0  0  0  0  0  0
   60.7851   30.7631   46.0844 H   0  0  0  0  0  0  0  0  0  0  0  0
   60.0166   27.2150   47.1440 H   0  0  0  0  0  0  0  0  0  0  0  0
   56.0638   27.3101   45.4021 H   0  0  0  0  0  0  0  0  0  0  0  0
   55.7100   31.7443   43.5692 H   0  0  0  0  0  0  0  0  0  0  0  0
   58.8045   33.1217   43.1699 H   0  0  0  0  0  0  0  0  0  0  0  0
   57.1074   33.6146   43.5555 H   0  0  0  0  0  0  0  0  0  0  0  0
   59.6010   32.3940   46.3600 H   0  0  0  0  0  0  0  0  0  0  0  0
   59.9917   35.1281   47.3470 H   0  0  0  0  0  0  0  0  0  0  0  0
   59.4034   33.6609   48.2031 H   0  0  0  0  0  0  0  0  0  0  0  0
   62.2823   33.3028   45.9639 H   0  0  0  0  0  0  0  0  0  0  0  0
   64.5921   32.7979   46.7598 H   0  0  0  0  0  0  0  0  0  0  0  0
   65.1418   32.9555   49.1893 H   0  0  0  0  0  0  0  0  0  0  0  0
   63.3766   33.6029   50.8301 H   0  0  0  0  0  0  0  0  0  0  0  0
  1  2  1  0
  2  3  2  0
  3  4  1  0
  4  5  1  0
  4  6  2  0
  6  7  1  0
  7  8  1  0
  8  9  2  0
  8 10  1  0
 10 11  2  0
 11 12  1  0
 12 13  1  0
 13 14  2  0
 13 15  2  0
 13 16  1  0
 16 17  1  0
 17 18  1  0
 18 19  2  0
 19 20  1  0
 20 21  2  0
 21 22  1  0
 22 23  2  0
 23 24  1  0
 11 25  1  0
 25 26  1  0
 26  2  1  0
 26  7  2  0
 23 18  1  0
  1 27  1  0
  1 28  1  0
  1 29  1  0
  3 30  1  0
  6 31  1  0
 10 32  1  0
 12 33  1  0
 12 34  1  0
 16 35  1  0
 17 36  1  0
 17 37  1  0
 19 38  1  0
 20 39  1  0
 21 40  1  0
 22 41  1  0
M  CHG  1  25  -1
M  END
>  <UniqueID>  (5) 
5

>  <SMILES>  (5) 
Cc1cc(Br)cc2c(=O)cc(CS(=O)(=O)NCc3ccccc3F)[n-]c12

>  <Energy>  (5) 
38.10678093579397

>  <Genealogy>  (5) 
Cc1cc(Br)cc2c(=O)cc(CS(=O)(=O)NCc3ccccc3F)[n-]c12 (protonated)
Cc1cc(Br)cc2c(=O)cc(CS(=O)(=O)NCc3ccccc3F)[n-]c12 (3D coordinates assigned)
Cc1cc(Br)cc2c(=O)cc(CS(=O)(=O)NCc3ccccc3F)[n-]c12 (optimized conformer: 38.10678093579397 kcal/mol)

>  <smiles>  (5) 
Cc1cc(Br)cc2c(=O)cc(CS(=O)(=O)NCc3ccccc3F)[nH]c12

>  <score_type>  (5) 
oracle

>  <origin>  (5) 
adg

>  <m_score__min__energy>  (5) 
-9.9499999999999993

>  <m_primary>  (5) 
energy

$$$$
5:0
     RDKit          3D

 33 34  0  0  0  0  0  0  0  0999 V2000
   55.1420   29.3280   45.2410 O   0  0  0  0  0  0  0  0  0  0  0  0
   56.0190   29.8660   44.5140 C   0  0  0  0  0  0  0  0  0  0  0  0
   56.3160   31.2140   44.6820 O   0  0  0  0  0  0  0  0  0  0  0  0
   56.7300   29.0600   43.4710 C   0  0  0  0  0  0  0  0  0  0  0  0
   58.1650   28.6970   43.8960 C   0  0  0  0  0  0  0  0  0  0  0  0
   58.3390   28.0690   45.2810 C   0  0  0  0  0  0  0  0  0  0  0  0
   58.5620   28.8870   46.4100 C   0  0  0  0  0  0  0  0  0  0  0  0
   58.7050   28.3390   47.6810 C   0  0  0  0  0  0  0  0  0  0  0  0
   58.5910   26.9690   47.8680 C   0  0  0  0  0  0  0  0  0  0  0  0
   58.3130   26.1290   46.7900 C   0  0  0  0  0  0  0  0  0  0  0  0
   58.1120   24.4130   47.1350 Cl  0  0  0  0  0  0  0  0  0  0  0  0
   58.1730   26.6610   45.4820 C   0  0  0  0  0  0  0  0  0  0  0  0
   57.7950   25.7170   44.3460 C   0  0  0  0  0  0  0  0  0  0  0  0
   56.5440   24.9000   44.6370 C   0  0  0  0  0  0  0  0  0  0  0  0
   55.5040   25.4030   45.4500 C   0  0  0  0  0  0  0  0  0  0  0  0
   55.5770   26.6800   45.9940 O   0  0  0  0  0  0  0  0  0  0  0  0
   54.4100   24.6370   45.7120 N   0  0  0  0  0  0  0  0  0  0  0  0
   54.2770   23.3780   45.2260 C   0  0  0  0  0  0  0  0  0  0  0  0
   53.1370   22.6400   45.5200 O   0  0  0  0  0  0  0  0  0  0  0  0
   55.2830   22.8250   44.4370 C   0  0  0  0  0  0  0  0  0  0  0  0
   56.4220   23.5790   44.1480 C   0  0  0  0  0  0  0  0  0  0  0  0
   57.3340   23.0610   43.4470 O   0  0  0  0  0  0  0  0  0  0  0  0
   56.1667   28.1316   43.2955 H   0  0  0  0  0  0  0  0  0  0  0  0
   56.7918   29.6689   42.5570 H   0  0  0  0  0  0  0  0  0  0  0  0
   58.5607   27.9854   43.1564 H   0  0  0  0  0  0  0  0  0  0  0  0
   58.7005   29.6565   43.9468 H   0  0  0  0  0  0  0  0  0  0  0  0
   58.6238   29.9778   46.2824 H   0  0  0  0  0  0  0  0  0  0  0  0
   58.9092   28.9943   48.5406 H   0  0  0  0  0  0  0  0  0  0  0  0
   58.7208   26.5424   48.8736 H   0  0  0  0  0  0  0  0  0  0  0  0
   57.6196   26.3140   43.4389 H   0  0  0  0  0  0  0  0  0  0  0  0
   58.6265   25.0081   44.2194 H   0  0  0  0  0  0  0  0  0  0  0  0
   55.1700   27.4750   45.5160 H   0  0  0  0  0  0  0  0  0  0  0  0
   55.1809   21.8024   44.0448 H   0  0  0  0  0  0  0  0  0  0  0  0
  1  2  2  0
  2  3  1  0
  2  4  1  0
  4  5  1  0
  5  6  1  0
  6  7  2  0
  7  8  1  0
  8  9  2  0
  9 10  1  0
 10 11  1  0
 10 12  2  0
 12 13  1  0
 13 14  1  0
 14 15  2  0
 15 16  1  0
 15 17  1  0
 17 18  1  0
 18 19  1  0
 18 20  2  0
 20 21  1  0
 21 22  2  0
 12  6  1  0
 21 14  1  0
  4 23  1  0
  4 24  1  0
  5 25  1  0
  5 26  1  0
  7 27  1  0
  8 28  1  0
  9 29  1  0
 13 30  1  0
 13 31  1  0
 16 32  1  0
 20 33  1  0
M  CHG  3   3  -1  17  -1  19  -1
M  END
>  <UniqueID>  (6) 
6

>  <SMILES>  (6) 
O=C([O-])CCc1cccc(Cl)c1Cc1c(O)[n-]c([O-])cc1=O

>  <Energy>  (6) 
42.546531523559636

>  <Genealogy>  (6) 
O=C([O-])CCc1cccc(Cl)c1Cc1c(O)[n-]c([O-])cc1=O (protonated)
O=C([O-])CCc1cccc(Cl)c1Cc1c(O)[n-]c([O-])cc1=O (3D coordinates assigned)
O=C([O-])CCc1cccc(Cl)c1Cc1c(O)[n-]c([O-])cc1=O (optimized conformer: 42.546531523559636 kcal/mol)

>  <smiles>  (6) 
O=C(O)CCc1cccc(Cl)c1Cc1c(O)[nH]c(O)cc1=O

>  <score_type>  (6) 
oracle

>  <origin>  (6) 
adg

>  <m_score__min__energy>  (6) 
-14.32

>  <m_primary>  (6) 
energy

$$$$
6:0
     RDKit          3D

 25 26  0  0  0  0  0  0  0  0999 V2000
   56.2830   29.4010   42.4240 N   0  0  0  0  0  0  0  0  0  0  0  0
   56.9080   30.5640   42.9750 C   0  0  0  0  0  0  0  0  0  0  0  0
   57.3240   31.5530   42.0890 C   0  0  0  0  0  0  0  0  0  0  0  0
   57.9380   32.7090   42.5650 C   0  0  0  0  0  0  0  0  0  0  0  0
   58.1230   32.8460   43.9470 C   0  0  0  0  0  0  0  0  0  0  0  0
   58.7710   34.0580   44.4930 C   0  0  0  0  0  0  0  0  0  0  0  0
   58.8810   34.0090   45.9680 C   0  0  0  0  0  0  0  0  0  0  0  0
   60.0740   34.0230   46.6070 N   0  0  0  0  0  0  0  0  0  0  0  0
   59.8070   33.9680   47.9280 C   0  0  0  0  0  0  0  0  0  0  0  0
   60.6970   33.9640   48.8180 O   0  0  0  0  0  0  0  0  0  0  0  0
   58.5040   33.9230   48.0640 O   0  0  0  0  0  0  0  0  0  0  0  0
   57.9130   33.9470   46.9060 N   0  0  0  0  0  0  0  0  0  0  0  0
   57.7080   31.8620   44.8210 C   0  0  0  0  0  0  0  0  0  0  0  0
   57.0960   30.7120   44.3490 C   0  0  0  0  0  0  0  0  0  0  0  0
   56.6680   29.6960   45.2430 N   0  0  0  0  0  0  0  0  0  0  0  0
   57.3580   29.4420   46.2740 O   0  0  0  0  0  0  0  0  0  0  0  0
   55.5400   28.9650   45.0570 O   0  0  0  0  0  0  0  0  0  0  0  0
   55.8990   29.4270   41.4530 H   0  0  0  0  0  0  0  0  0  0  0  0
   56.2200   28.5240   43.0180 H   0  0  0  0  0  0  0  0  0  0  0  0
   57.1673   31.4213   41.0082 H   0  0  0  0  0  0  0  0  0  0  0  0
   58.2700   33.4961   41.8720 H   0  0  0  0  0  0  0  0  0  0  0  0
   59.7801   34.1455   44.0640 H   0  0  0  0  0  0  0  0  0  0  0  0
   58.1497   34.9258   44.2265 H   0  0  0  0  0  0  0  0  0  0  0  0
   56.8790   33.9220   46.7070 H   0  0  0  0  0  0  0  0  0  0  0  0
   57.8645   31.9918   45.9021 H   0  0  0  0  0  0  0  0  0  0  0  0
  1  2  1  0
  2  3  2  0
  3  4  1  0
  4  5  2  0
  5  6  1  0
  6  7  1  0
  7  8  2  0
  8  9  1  0
  9 10  2  0
  9 11  1  0
 11 12  1  0
  5 13  1  0
 13 14  2  0
 14 15  1  0
 15 16  2  0
 15 17  1  0
 14  2  1  0
 12  7  1  0
  1 18  1  0
  1 19  1  0
  3 20  1  0
  4 21  1  0
  6 22  1  0
  6 23  1  0
 12 24  1  0
 13 25  1  0
M  CHG  2  15   1  17  -1
M  END
>  <smiles>  (7) 
Nc1ccc(Cc2nc(=O)o[nH]2)cc1[N+](=O)[O-]

>  <score_type>  (7) 
oracle

>  <origin>  (7) 
adg

>  <m_score__min__energy>  (7) 
-6.5199999999999996

>  <m_primary>  (7) 
energy

$$$$
7:0
     RDKit          3D

 57 60  0  0  0  0  0  0  0  0999 V2000
   60.2600   29.2240   47.7200 O   0  0  0  0  0  0  0  0  0  0  0  0
   59.3750   29.1370   46.8260 C   0  0  0  0  0  0  0  0  0  0  0  0
   59.0390   30.2830   46.0250 N   0  0  0  0  0  0  0  0  0  0  0  0
   59.4310   31.6290   46.3440 C   0  0  0  0  0  0  0  0  0  0  0  0
   58.5080   32.6910   46.3100 C   0  0  0  0  0  0  0  0  0  0  0  0
   58.9210   33.9920   46.6060 C   0  0  0  0  0  0  0  0  0  0  0  0
   60.2560   34.2500   46.9230 C   0  0  0  0  0  0  0  0  0  0  0  0
   61.1940   33.2080   46.9300 C   0  0  0  0  0  0  0  0  0  0  0  0
   62.8900   33.5390   47.2910 S   0  0  0  0  0  0  0  0  0  0  0  0
   63.6860   32.2710   47.1460 O   0  0  0  0  0  0  0  0  0  0  0  0
   63.4210   34.5370   46.3000 O   0  0  0  0  0  0  0  0  0  0  0  0
   63.0900   34.1720   48.9080 N   0  0  0  0  0  0  0  0  0  0  0  0
   61.8000   34.2160   49.6430 C   0  0  0  0  0  0  0  0  0  0  0  0
   61.6540   33.0820   50.6680 C   0  0  0  0  0  0  0  0  0  0  0  0
   62.7930   33.1160   51.7020 C   0  0  0  0  0  0  0  0  0  0  0  0
   64.1050   33.6760   51.1230 C   0  0  0  0  0  0  0  0  0  0  0  0
   64.1770   33.4560   49.6100 C   0  0  0  0  0  0  0  0  0  0  0  0
   60.7760   31.9020   46.6390 C   0  0  0  0  0  0  0  0  0  0  0  0
   58.7320   27.8320   46.5880 C   0  0  0  0  0  0  0  0  0  0  0  0
   59.3750   26.6640   46.2160 C   0  0  0  0  0  0  0  0  0  0  0  0
   58.3920   25.7040   46.0980 C   0  0  0  0  0  0  0  0  0  0  0  0
   58.5960   24.3230   45.6220 C   0  0  0  0  0  0  0  0  0  0  0  0
   59.6240   23.6960   45.9900 O   0  0  0  0  0  0  0  0  0  0  0  0
   57.6380   23.6740   44.7660 N   0  0  0  0  0  0  0  0  0  0  0  0
   56.5970   24.3720   44.0260 C   0  0  0  0  0  0  0  0  0  0  0  0
   56.1020   23.3800   42.9820 C   0  0  0  0  0  0  0  0  0  0  0  0
   56.5650   22.0090   43.4640 C   0  0  0  0  0  0  0  0  0  0  0  0
   57.7430   22.2740   44.3920 C   0  0  0  0  0  0  0  0  0  0  0  0
   57.1950   26.3430   46.3940 C   0  0  0  0  0  0  0  0  0  0  0  0
   55.8960   25.7380   46.4400 N   0  0  0  0  0  0  0  0  0  0  0  0
   54.9100   26.3560   45.9870 O   0  0  0  0  0  0  0  0  0  0  0  0
   55.6930   24.5400   47.0840 O   0  0  0  0  0  0  0  0  0  0  0  0
   57.4010   27.6410   46.6950 N   0  0  0  0  0  0  0  0  0  0  0  0
   58.5870   30.1210   45.0970 H   0  0  0  0  0  0  0  0  0  0  0  0
   57.4573   32.4956   46.0493 H   0  0  0  0  0  0  0  0  0  0  0  0
   58.1923   34.8158   46.5893 H   0  0  0  0  0  0  0  0  0  0  0  0
   60.5730   35.2744   47.1681 H   0  0  0  0  0  0  0  0  0  0  0  0
   61.7308   35.1778   50.1723 H   0  0  0  0  0  0  0  0  0  0  0  0
   60.9954   34.0957   48.9026 H   0  0  0  0  0  0  0  0  0  0  0  0
   60.6921   33.1920   51.1901 H   0  0  0  0  0  0  0  0  0  0  0  0
   61.6977   32.1217   50.1333 H   0  0  0  0  0  0  0  0  0  0  0  0
   62.4827   33.7488   52.5466 H   0  0  0  0  0  0  0  0  0  0  0  0
   62.9851   32.0802   52.0186 H   0  0  0  0  0  0  0  0  0  0  0  0
   64.1587   34.7546   51.3323 H   0  0  0  0  0  0  0  0  0  0  0  0
   64.9480   33.1488   51.5935 H   0  0  0  0  0  0  0  0  0  0  0  0
   65.1453   33.8246   49.2405 H   0  0  0  0  0  0  0  0  0  0  0  0
   64.0673   32.3797   49.4112 H   0  0  0  0  0  0  0  0  0  0  0  0
   61.5097   31.0824   46.6418 H   0  0  0  0  0  0  0  0  0  0  0  0
   60.4537   26.5287   46.0482 H   0  0  0  0  0  0  0  0  0  0  0  0
   55.7768   24.6628   44.6988 H   0  0  0  0  0  0  0  0  0  0  0  0
   56.9757   25.2952   43.5631 H   0  0  0  0  0  0  0  0  0  0  0  0
   55.0047   23.4118   42.9125 H   0  0  0  0  0  0  0  0  0  0  0  0
   56.4954   23.6130   41.9815 H   0  0  0  0  0  0  0  0  0  0  0  0
   55.7554   21.5002   44.0078 H   0  0  0  0  0  0  0  0  0  0  0  0
   56.8487   21.3580   42.6239 H   0  0  0  0  0  0  0  0  0  0  0  0
   57.6814   21.6327   45.2836 H   0  0  0  0  0  0  0  0  0  0  0  0
   58.7037   22.0540   43.9035 H   0  0  0  0  0  0  0  0  0  0  0  0
  1  2  2  0
  2  3  1  0
  3  4  1  0
  4  5  2  0
  5  6  1  0
  6  7  2  0
  7  8  1  0
  8  9  1  0
  9 10  2  0
  9 11  2  0
  9 12  1  0
 12 13  1  0
 13 14  1  0
 14 15  1  0
 15 16  1  0
 16 17  1  0
  8 18  2  0
  2 19  1  0
 19 20  2  0
 20 21  1  0
 21 22  1  0
 22 23  2  0
 22 24  1  0
 24 25  1  0
 25 26  1  0
 26 27  1  0
 27 28  1  0
 21 29  2  0
 29 30  1  0
 30 31  2  0
 30 32  1  0
 29 33  1  0
 18  4  1  0
 33 19  1  0
 17 12  1  0
 28 24  1  0
  3 34  1  0
  5 35  1  0
  6 36  1  0
  7 37  1  0
 13 38  1  0
 13 39  1  0
 14 40  1  0
 14 41  1  0
 15 42  1  0
 15 43  1  0
 16 44  1  0
 16 45  1  0
 17 46  1  0
 17 47  1  0
 18 48  1  0
 20 49  1  0
 25 50  1  0
 25 51  1  0
 26 52  1  0
 26 53  1  0
 27 54  1  0
 27 55  1  0
 28 56  1  0
 28 57  1  0
M  CHG  3  30   1  32  -1  33  -1
M  END
>  <UniqueID>  (8) 
7

>  <SMILES>  (8) 
O=C(Nc1cccc(S(=O)(=O)N2CCCCC2)c1)c1cc(C(=O)N2CCCC2)c([N+](=O)[O-])[n-]1

>  <Energy>  (8) 
96.04287857395963

>  <Genealogy>  (8) 
O=C(Nc1cccc(S(=O)(=O)N2CCCCC2)c1)c1cc(C(=O)N2CCCC2)c([N+](=O)[O-])[n-]1 (protonated)
O=C(Nc1cccc(S(=O)(=O)N2CCCCC2)c1)c1cc(C(=O)N2CCCC2)c([N+](=O)[O-])[n-]1 (3D coordinates assigned)
O=C(Nc1cccc(S(=O)(=O)N2CCCCC2)c1)c1cc(C(=O)N2CCCC2)c([N+](=O)[O-])[n-]1 (nonaromatic ring conformer: 96.04287857395963 kcal/mol)

>  <smiles>  (8) 
O=C(Nc1cccc(S(=O)(=O)N2CCCCC2)c1)c1cc(C(=O)N2CCCC2)c([N+](=O)[O-])[nH]1

>  <score_type>  (8) 
oracle

>  <origin>  (8) 
adg

>  <m_score__min__energy>  (8) 
-13.210000000000001

>  <m_primary>  (8) 
energy

$$$$
8:0
     RDKit          3D

 58 61  0  0  0  0  0  0  0  0999 V2000
   59.3514   26.3111   47.1846 H   0  0  0  0  0  0  0  0  0  0  0  0
   59.7220   27.2850   47.5370 C   0  0  0  0  0  0  0  0  0  0  0  0
   60.4848   27.3296   48.3283 H   0  0  0  0  0  0  0  0  0  0  0  0
   59.2430   28.4200   47.0010 C   0  0  0  0  0  0  0  0  0  0  0  0
   59.7530   29.5800   47.4920 N   0  0  0  0  0  0  0  0  0  0  0  0
   59.3460   30.8100   47.0930 C   0  0  0  0  0  0  0  0  0  0  0  0
   60.0070   31.9610   47.6380 N   0  0  0  0  0  0  0  0  0  0  0  0
   60.9670   32.6960   46.8020 C   0  0  0  0  0  0  0  0  0  0  0  0
   61.6426   31.9770   46.3156 H   0  0  0  0  0  0  0  0  0  0  0  0
   60.4048   33.2709   46.0514 H   0  0  0  0  0  0  0  0  0  0  0  0
   61.7990   33.6760   47.6390 C   0  0  0  0  0  0  0  0  0  0  0  0
   62.6327   34.0575   47.0313 H   0  0  0  0  0  0  0  0  0  0  0  0
   61.1587   34.5109   47.9598 H   0  0  0  0  0  0  0  0  0  0  0  0
   62.3610   32.9600   48.8860 C   0  0  0  0  0  0  0  0  0  0  0  0
   63.0046   32.1609   48.4895 H   0  0  0  0  0  0  0  0  0  0  0  0
   63.2490   33.8540   49.7280 C   0  0  0  0  0  0  0  0  0  0  0  0
   62.9710   35.0830   49.7760 O   0  0  0  0  0  0  0  0  0  0  0  0
   64.3770   33.3650   50.4860 N   0  0  0  0  0  0  0  0  0  0  0  0
   64.6700   34.0010   51.7810 C   0  0  0  0  0  0  0  0  0  0  0  0
   64.8878   35.0661   51.6135 H   0  0  0  0  0  0  0  0  0  0  0  0
   63.7914   33.8747   52.4307 H   0  0  0  0  0  0  0  0  0  0  0  0
   65.8740   33.3510   52.4750 C   0  0  0  0  0  0  0  0  0  0  0  0
   66.1404   33.9451   53.3616 H   0  0  0  0  0  0  0  0  0  0  0  0
   65.5976   32.3259   52.7625 H   0  0  0  0  0  0  0  0  0  0  0  0
   67.0880   33.2810   51.5360 C   0  0  0  0  0  0  0  0  0  0  0  0
   67.5366   34.2834   51.4729 H   0  0  0  0  0  0  0  0  0  0  0  0
   67.7796   32.5378   51.9594 H   0  0  0  0  0  0  0  0  0  0  0  0
   66.7400   32.8110   50.1050 C   0  0  0  0  0  0  0  0  0  0  0  0
   66.9023   33.6495   49.4118 H   0  0  0  0  0  0  0  0  0  0  0  0
   67.3899   31.9542   49.8737 H   0  0  0  0  0  0  0  0  0  0  0  0
   65.2900   32.3360   49.9650 C   0  0  0  0  0  0  0  0  0  0  0  0
   65.0664   32.1527   48.9037 H   0  0  0  0  0  0  0  0  0  0  0  0
   65.1550   31.4065   50.5376 H   0  0  0  0  0  0  0  0  0  0  0  0
   61.2740   32.2440   49.7350 C   0  0  0  0  0  0  0  0  0  0  0  0
   61.5826   31.1996   49.8897 H   0  0  0  0  0  0  0  0  0  0  0  0
   61.1856   32.7928   50.6842 H   0  0  0  0  0  0  0  0  0  0  0  0
   59.8890   32.2510   49.0720 C   0  0  0  0  0  0  0  0  0  0  0  0
   59.2565   31.4858   49.5457 H   0  0  0  0  0  0  0  0  0  0  0  0
   59.4375   33.2460   49.1990 H   0  0  0  0  0  0  0  0  0  0  0  0
   58.3300   30.9300   46.1300 C   0  0  0  0  0  0  0  0  0  0  0  0
   57.8010   32.2560   45.7170 C   0  0  0  0  0  0  0  0  0  0  0  0
   57.3360   33.0450   46.5840 O   0  0  0  0  0  0  0  0  0  0  0  0
   57.7490   32.6650   44.2770 C   0  0  0  0  0  0  0  0  0  0  0  0
   57.6105   33.7542   44.2100 H   0  0  0  0  0  0  0  0  0  0  0  0
   58.6901   32.3839   43.7818 H   0  0  0  0  0  0  0  0  0  0  0  0
   56.9082   32.1573   43.7818 H   0  0  0  0  0  0  0  0  0  0  0  0
   57.7950   29.7550   45.5810 C   0  0  0  0  0  0  0  0  0  0  0  0
   57.0168   29.8329   44.8075 H   0  0  0  0  0  0  0  0  0  0  0  0
   58.2280   28.4720   45.9940 C   0  0  0  0  0  0  0  0  0  0  0  0
   57.7250   27.3510   45.4070 C   0  0  0  0  0  0  0  0  0  0  0  0
   57.7074   27.3264   44.3074 H   0  0  0  0  0  0  0  0  0  0  0  0
   57.2000   26.1630   46.1160 C   0  0  0  0  0  0  0  0  0  0  0  0
   57.9370   25.1110   46.5220 N   0  0  0  0  0  0  0  0  0  0  0  0
   57.0140   24.2460   46.9930 C   0  0  0  0  0  0  0  0  0  0  0  0
   57.3210   23.1270   47.4830 O   0  0  0  0  0  0  0  0  0  0  0  0
   55.7360   24.6680   46.8930 N   0  0  0  0  0  0  0  0  0  0  0  0
   55.8720   25.8780   46.3240 C   0  0  0  0  0  0  0  0  0  0  0  0
   54.8020   26.7020   45.9990 O   0  0  0  0  0  0  0  0  0  0  0  0
  1  2  1  0
  2  3  1  0
  2  4  2  0
  4  5  1  0
  5  6  2  0
  6  7  1  0
  7  8  1  0
  8  9  1  0
  8 10  1  0
  8 11  1  0
 11 12  1  0
 11 13  1  0
 11 14  1  0
 14 15  1  0
 14 16  1  0
 16 17  2  0
 16 18  1  0
 18 19  1  0
 19 20  1  0
 19 21  1  0
 19 22  1  0
 22 23  1  0
 22 24  1  0
 22 25  1  0
 25 26  1  0
 25 27  1  0
 25 28  1  0
 28 29  1  0
 28 30  1  0
 28 31  1  0
 31 32  1  0
 31 33  1  0
 14 34  1  0
 34 35  1  0
 34 36  1  0
 34 37  1  0
 37 38  1  0
 37 39  1  0
  6 40  1  0
 40 41  1  0
 41 42  2  0
 41 43  1  0
 43 44  1  0
 43 45  1  0
 43 46  1  0
 40 47  2  0
 47 48  1  0
 47 49  1  0
 49 50  2  0
 50 51  1  0
 50 52  1  0
 52 53  1  0
 53 54  1  0
 54 55  2  0
 54 56  1  0
 56 57  1  0
 57 58  1  0
 49  4  1  0
 57 52  2  0
 37  7  1  0
 31 18  1  0
M  CHG  3  53  -1  56  -1  58  -1
M  END
>  <UniqueID>  (9) 
8

>  <SMILES>  (9) 
C=c1nc(N2CCC(C(=O)N3CCCCC3)CC2)c(C(C)=O)c/c1=C\c1[n-]c(=O)[n-]c1[O-]

>  <Energy>  (9) 
118.45878793975108

>  <Genealogy>  (9) 
C=c1nc(N2CCC(C(=O)N3CCCCC3)CC2)c(C(C)=O)cc1=Cc1[n-]c(=O)[n-]c1[O-] (protonated)
C=c1nc(N2CCC(C(=O)N3CCCCC3)CC2)c(C(C)=O)c/c1=C\c1[n-]c(=O)[n-]c1[O-] (cis-trans isomerization)
C=c1nc(N2CCC(C(=O)N3CCCCC3)CC2)c(C(C)=O)c/c1=C\c1[n-]c(=O)[n-]c1[O-] (3D coordinates assigned)
C=c1nc(N2CCC(C(=O)N3CCCCC3)CC2)c(C(C)=O)c/c1=C\c1[n-]c(=O)[n-]c1[O-] (nonaromatic ring conformer: 118.45878793975108 kcal/mol)

>  <smiles>  (9) 
C=c1nc(N2CCC(C(=O)N3CCCCC3)CC2)c(C(C)=O)cc1=Cc1[nH]c(=O)[nH]c1O

>  <score_type>  (9) 
oracle

>  <origin>  (9) 
adg

>  <m_score__min__energy>  (9) 
-16.949999999999999

>  <m_primary>  (9) 
energy

$$$$
9:0
     RDKit          3D

 37 37  0  0  0  0  0  0  0  0999 V2000
   60.3370   34.1930   49.5100 C   0  0  0  0  0  0  0  0  0  0  0  0
   59.3370   34.3300   48.5050 O   0  0  0  0  0  0  0  0  0  0  0  0
   59.0730   33.3720   47.5150 C   0  0  0  0  0  0  0  0  0  0  0  0
   59.8560   32.2110   47.4860 C   0  0  0  0  0  0  0  0  0  0  0  0
   59.6360   31.2280   46.5170 C   0  0  0  0  0  0  0  0  0  0  0  0
   58.6180   31.3940   45.5580 C   0  0  0  0  0  0  0  0  0  0  0  0
   58.3560   30.4390   44.5640 O   0  0  0  0  0  0  0  0  0  0  0  0
   57.0830   30.2350   43.9600 C   0  0  0  0  0  0  0  0  0  0  0  0
   56.4130   29.0690   44.6130 C   0  0  0  0  0  0  0  0  0  0  0  0
   55.1560   28.9770   44.5700 O   0  0  0  0  0  0  0  0  0  0  0  0
   57.1970   28.1010   45.3280 N   0  0  0  0  0  0  0  0  0  0  0  0
   56.6410   26.9720   46.0220 C   0  0  0  0  0  0  0  0  0  0  0  0
   55.4010   26.7400   45.9880 O   0  0  0  0  0  0  0  0  0  0  0  0
   57.5420   26.0240   46.7540 C   0  0  0  0  0  0  0  0  0  0  0  0
   58.9140   26.1840   46.2730 N   0  0  0  0  0  0  0  0  0  0  0  0
   59.6240   27.6180   46.9530 S   0  0  0  0  0  0  0  0  0  0  0  0
   60.7600   27.2050   48.2610 C   0  0  0  0  0  0  0  0  0  0  0  0
   60.3490   28.3890   45.8840 O   0  0  0  0  0  0  0  0  0  0  0  0
   58.5300   28.4790   47.5190 O   0  0  0  0  0  0  0  0  0  0  0  0
   57.8320   32.5510   45.5910 C   0  0  0  0  0  0  0  0  0  0  0  0
   58.0540   33.5350   46.5590 C   0  0  0  0  0  0  0  0  0  0  0  0
   59.8694   34.2571   50.5036 H   0  0  0  0  0  0  0  0  0  0  0  0
   60.8350   33.2182   49.4013 H   0  0  0  0  0  0  0  0  0  0  0  0
   61.0788   34.9979   49.4013 H   0  0  0  0  0  0  0  0  0  0  0  0
   60.6515   32.0715   48.2328 H   0  0  0  0  0  0  0  0  0  0  0  0
   60.2598   30.3221   46.5034 H   0  0  0  0  0  0  0  0  0  0  0  0
   56.4649   31.1355   44.0904 H   0  0  0  0  0  0  0  0  0  0  0  0
   57.2102   30.0355   42.8858 H   0  0  0  0  0  0  0  0  0  0  0  0
   58.2330   28.2310   45.3550 H   0  0  0  0  0  0  0  0  0  0  0  0
   57.5039   26.2407   47.8318 H   0  0  0  0  0  0  0  0  0  0  0  0
   57.2094   24.9909   46.5751 H   0  0  0  0  0  0  0  0  0  0  0  0
   58.8830   26.3250   45.2360 H   0  0  0  0  0  0  0  0  0  0  0  0
   60.2780   27.3802   49.2342 H   0  0  0  0  0  0  0  0  0  0  0  0
   61.0449   26.1458   48.1784 H   0  0  0  0  0  0  0  0  0  0  0  0
   61.6587   27.8339   48.1784 H   0  0  0  0  0  0  0  0  0  0  0  0
   57.0320   32.6877   44.8485 H   0  0  0  0  0  0  0  0  0  0  0  0
   57.4293   34.4403   46.5731 H   0  0  0  0  0  0  0  0  0  0  0  0
  1  2  1  0
  2  3  1  0
  3  4  2  0
  4  5  1  0
  5  6  2  0
  6  7  1  0
  7  8  1  0
  8  9  1  0
  9 10  2  0
  9 11  1  0
 11 12  1  0
 12 13  2  0
 12 14  1  0
 14 15  1  0
 15 16  1  0
 16 17  1  0
 16 18  2  0
 16 19  2  0
  6 20  1  0
 20 21  2  0
 21  3  1  0
  1 22  1  0
  1 23  1  0
  1 24  1  0
  4 25  1  0
  5 26  1  0
  8 27  1  0
  8 28  1  0
 11 29  1  0
 14 30  1  0
 14 31  1  0
 15 32  1  0
 17 33  1  0
 17 34  1  0
 17 35  1  0
 20 36  1  0
 21 37  1  0
M  END
>  <UniqueID>  (10) 
9

>  <SMILES>  (10) 
COc1ccc(OCC(=O)NC(=O)CNS(C)(=O)=O)cc1

>  <Energy>  (10) 
24.09859063778243

>  <Genealogy>  (10) 
COc1ccc(OCC(=O)NC(=O)CNS(C)(=O)=O)cc1 (3D coordinates assigned)
COc1ccc(OCC(=O)NC(=O)CNS(C)(=O)=O)cc1 (optimized conformer: 24.09859063778243 kcal/mol)

>  <smiles>  (10) 
COc1ccc(OCC(=O)NC(=O)CNS(C)(=O)=O)cc1

>  <score_type>  (10) 
oracle

>  <origin>  (10) 
adg

>  <m_score__min__energy>  (10) 
-7.96

>  <m_primary>  (10) 
energy

$$$$
10:0
     RDKit          3D

 68 72  0  0  0  0  0  0  0  0999 V2000
   58.4810   26.8880   43.9020 C   0  0  0  0  0  0  0  0  0  0  0  0
   58.7590   27.4700   45.2590 C   0  0  0  0  0  0  0  0  0  0  0  0
   59.9780   27.2000   45.9030 C   0  0  0  0  0  0  0  0  0  0  0  0
   60.2760   27.7930   47.1330 C   0  0  0  0  0  0  0  0  0  0  0  0
   59.3430   28.6350   47.7570 C   0  0  0  0  0  0  0  0  0  0  0  0
   59.6540   29.3830   49.0000 C   0  0  0  0  0  0  0  0  0  0  0  0
   59.1220   29.0560   50.1910 N   0  0  0  0  0  0  0  0  0  0  0  0
   59.5150   30.0350   51.0300 C   0  0  0  0  0  0  0  0  0  0  0  0
   59.1140   30.0980   52.4580 C   0  0  0  0  0  0  0  0  0  0  0  0
   60.1080   30.2030   53.4480 C   0  0  0  0  0  0  0  0  0  0  0  0
   59.7630   30.2960   54.7980 C   0  0  0  0  0  0  0  0  0  0  0  0
   58.4240   30.2750   55.1810 C   0  0  0  0  0  0  0  0  0  0  0  0
   57.4230   30.1610   54.2160 C   0  0  0  0  0  0  0  0  0  0  0  0
   57.7510   30.0700   52.8480 C   0  0  0  0  0  0  0  0  0  0  0  0
   56.7550   29.9430   51.8660 O   0  0  0  0  0  0  0  0  0  0  0  0
   55.6810   30.8550   51.6650 C   0  0  0  0  0  0  0  0  0  0  0  0
   54.4180   30.3950   52.4180 C   0  0  0  0  0  0  0  0  0  0  0  0
   53.1490   31.0290   51.9900 N   0  0  0  0  0  0  0  0  0  0  0  0
   52.5640   30.4700   50.7620 C   0  0  0  0  0  0  0  0  0  0  0  0
   51.4020   31.3660   50.2810 C   0  0  0  0  0  0  0  0  0  0  0  0
   51.0480   32.3510   51.2390 O   0  0  0  0  0  0  0  0  0  0  0  0
   50.8240   31.7370   52.4940 C   0  0  0  0  0  0  0  0  0  0  0  0
   52.1440   31.1770   53.0620 C   0  0  0  0  0  0  0  0  0  0  0  0
   60.2550   30.9900   50.4230 N   0  0  0  0  0  0  0  0  0  0  0  0
   60.3360   30.5830   49.1410 C   0  0  0  0  0  0  0  0  0  0  0  0
   60.9800   31.4080   48.0730 C   0  0  0  0  0  0  0  0  0  0  0  0
   58.0830   28.8040   47.1650 C   0  0  0  0  0  0  0  0  0  0  0  0
   57.8150   28.3070   45.8840 C   0  0  0  0  0  0  0  0  0  0  0  0
   56.6080   28.6590   45.1900 N   0  0  0  0  0  0  0  0  0  0  0  0
   56.4000   30.0200   44.1210 S   0  0  0  0  0  0  0  0  0  0  0  0
   56.7490   29.5920   42.7210 O   0  0  0  0  0  0  0  0  0  0  0  0
   54.9560   30.4460   44.1490 O   0  0  0  0  0  0  0  0  0  0  0  0
   57.4320   31.3890   44.5460 C   0  0  0  0  0  0  0  0  0  0  0  0
   57.8010   31.5950   45.8850 C   0  0  0  0  0  0  0  0  0  0  0  0
   58.5210   32.7380   46.2490 C   0  0  0  0  0  0  0  0  0  0  0  0
   58.8720   33.6840   45.2830 C   0  0  0  0  0  0  0  0  0  0  0  0
   58.5210   33.4760   43.9430 C   0  0  0  0  0  0  0  0  0  0  0  0
   57.8050   32.3310   43.5740 C   0  0  0  0  0  0  0  0  0  0  0  0
   58.0094   25.9008   44.0160 H   0  0  0  0  0  0  0  0  0  0  0  0
   57.8046   27.5557   43.3482 H   0  0  0  0  0  0  0  0  0  0  0  0
   59.4255   26.7815   43.3482 H   0  0  0  0  0  0  0  0  0  0  0  0
   60.7030   26.5171   45.4359 H   0  0  0  0  0  0  0  0  0  0  0  0
   61.2461   27.5988   47.6139 H   0  0  0  0  0  0  0  0  0  0  0  0
   61.1684   30.2119   53.1556 H   0  0  0  0  0  0  0  0  0  0  0  0
   60.5505   30.3860   55.5607 H   0  0  0  0  0  0  0  0  0  0  0  0
   58.1556   30.3484   56.2452 H   0  0  0  0  0  0  0  0  0  0  0  0
   56.3676   30.1419   54.5255 H   0  0  0  0  0  0  0  0  0  0  0  0
   55.9782   31.8477   52.0339 H   0  0  0  0  0  0  0  0  0  0  0  0
   55.4526   30.8960   50.5898 H   0  0  0  0  0  0  0  0  0  0  0  0
   54.3174   29.3087   52.2775 H   0  0  0  0  0  0  0  0  0  0  0  0
   54.5662   30.6971   53.4653 H   0  0  0  0  0  0  0  0  0  0  0  0
   53.3355   30.4212   49.9794 H   0  0  0  0  0  0  0  0  0  0  0  0
   52.1816   29.4596   50.9693 H   0  0  0  0  0  0  0  0  0  0  0  0
   51.7055   31.8698   49.3515 H   0  0  0  0  0  0  0  0  0  0  0  0
   50.5248   30.7218   50.1215 H   0  0  0  0  0  0  0  0  0  0  0  0
   50.4151   32.4809   53.1936 H   0  0  0  0  0  0  0  0  0  0  0  0
   50.1118   30.9088   52.3639 H   0  0  0  0  0  0  0  0  0  0  0  0
   52.5301   31.8668   53.8269 H   0  0  0  0  0  0  0  0  0  0  0  0
   51.9491   30.1890   53.5047 H   0  0  0  0  0  0  0  0  0  0  0  0
   61.5937   32.1942   48.5370 H   0  0  0  0  0  0  0  0  0  0  0  0
   61.6180   30.7657   47.4482 H   0  0  0  0  0  0  0  0  0  0  0  0
   60.2020   31.8710   47.4482 H   0  0  0  0  0  0  0  0  0  0  0  0
   57.2929   29.3354   47.7158 H   0  0  0  0  0  0  0  0  0  0  0  0
   57.5231   30.8553   46.6503 H   0  0  0  0  0  0  0  0  0  0  0  0
   58.8115   32.8921   47.2987 H   0  0  0  0  0  0  0  0  0  0  0  0
   59.4230   34.5905   45.5740 H   0  0  0  0  0  0  0  0  0  0  0  0
   58.8085   34.2136   43.1793 H   0  0  0  0  0  0  0  0  0  0  0  0
   57.5341   32.1690   42.5203 H   0  0  0  0  0  0  0  0  0  0  0  0
  1  2  1  0
  2  3  2  0
  3  4  1  0
  4  5  2  0
  5  6  1  0
  6  7  1  0
  7  8  2  0
  8  9  1  0
  9 10  2  0
 10 11  1  0
 11 12  2  0
 12 13  1  0
 13 14  2  0
 14 15  1  0
 15 16  1  0
 16 17  1  0
 17 18  1  0
 18 19  1  0
 19 20  1  0
 20 21  1  0
 21 22  1  0
 22 23  1  0
  8 24  1  0
 24 25  1  0
 25 26  1  0
  5 27  1  0
 27 28  2  0
 28 29  1  0
 29 30  1  0
 30 31  2  0
 30 32  2  0
 30 33  1  0
 33 34  2  0
 34 35  1  0
 35 36  2  0
 36 37  1  0
 37 38  2  0
 28  2  1  0
 38 33  1  0
 25  6  2  0
 14  9  1  0
 23 18  1  0
  1 39  1  0
  1 40  1  0
  1 41  1  0
  3 42  1  0
  4 43  1  0
 10 44  1  0
 11 45  1  0
 12 46  1  0
 13 47  1  0
 16 48  1  0
 16 49  1  0
 17 50  1  0
 17 51  1  0
 19 52  1  0
 19 53  1  0
 20 54  1  0
 20 55  1  0
 22 56  1  0
 22 57  1  0
 23 58  1  0
 23 59  1  0
 26 60  1  0
 26 61  1  0
 26 62  1  0
 27 63  1  0
 34 64  1  0
 35 65  1  0
 36 66  1  0
 37 67  1  0
 38 68  1  0
M  CHG  2  24  -1  29  -1
M  END
>  <UniqueID>  (11) 
10

>  <SMILES>  (11) 
Cc1ccc(-c2nc(-c3ccccc3OCCN3CCOCC3)[n-]c2C)cc1[N-]S(=O)(=O)c1ccccc1

>  <Energy>  (11) 
120.33033920034144

>  <Genealogy>  (11) 
Cc1ccc(-c2nc(-c3ccccc3OCCN3CCOCC3)[n-]c2C)cc1[N-]S(=O)(=O)c1ccccc1 (protonated)
Cc1ccc(-c2nc(-c3ccccc3OCCN3CCOCC3)[n-]c2C)cc1[N-]S(=O)(=O)c1ccccc1 (3D coordinates assigned)
Cc1ccc(-c2nc(-c3ccccc3OCCN3CCOCC3)[n-]c2C)cc1[N-]S(=O)(=O)c1ccccc1 (nonaromatic ring conformer: 120.33033920034144 kcal/mol)

>  <smiles>  (11) 
Cc1ccc(-c2nc(-c3ccccc3OCCN3CCOCC3)[nH]c2C)cc1NS(=O)(=O)c1ccccc1

>  <score_type>  (11) 
oracle

>  <origin>  (11) 
adg

>  <m_score__min__energy>  (11) 
-13.369999999999999

>  <m_primary>  (11) 
energy

$$$$
11:0
     RDKit          3D

 63 67  0  0  0  0  0  0  0  0999 V2000
   58.1660   25.2360   48.5840 H   0  0  0  0  0  0  0  0  0  0  0  0
   58.1060   25.1480   47.5780 O   0  0  0  0  0  0  0  0  0  0  0  0
   57.0450   25.7020   46.8660 C   0  0  0  0  0  0  0  0  0  0  0  0
   55.8450   25.1110   46.7540 N   0  0  0  0  0  0  0  0  0  0  0  0
   55.1530   25.9860   45.9960 C   0  0  0  0  0  0  0  0  0  0  0  0
   53.9550   25.7960   45.6670 O   0  0  0  0  0  0  0  0  0  0  0  0
   55.8430   27.0880   45.6290 N   0  0  0  0  0  0  0  0  0  0  0  0
   57.0560   26.8910   46.1730 C   0  0  0  0  0  0  0  0  0  0  0  0
   58.1450   27.8820   46.1490 C   0  0  0  0  0  0  0  0  0  0  0  0
   58.3349   28.4010   45.1979 H   0  0  0  0  0  0  0  0  0  0  0  0
   58.9330   28.2070   47.2040 C   0  0  0  0  0  0  0  0  0  0  0  0
   58.5280   29.2980   47.9930 C   0  0  0  0  0  0  0  0  0  0  0  0
   57.5317   29.7363   47.8338 H   0  0  0  0  0  0  0  0  0  0  0  0
   59.3630   29.8380   48.9750 C   0  0  0  0  0  0  0  0  0  0  0  0
   58.9480   31.0750   49.6670 C   0  0  0  0  0  0  0  0  0  0  0  0
   58.2480   30.9930   50.7110 O   0  0  0  0  0  0  0  0  0  0  0  0
   59.3150   32.3690   49.1530 N   0  0  0  0  0  0  0  0  0  0  0  0
   58.4220   33.0730   48.2270 C   0  0  0  0  0  0  0  0  0  0  0  0
   57.6540   32.3769   47.8587 H   0  0  0  0  0  0  0  0  0  0  0  0
   57.9388   33.9106   48.7513 H   0  0  0  0  0  0  0  0  0  0  0  0
   59.2180   33.6040   47.0620 C   0  0  0  0  0  0  0  0  0  0  0  0
   58.6720   33.7770   45.8390 C   0  0  0  0  0  0  0  0  0  0  0  0
   58.6495   34.7956   45.4244 H   0  0  0  0  0  0  0  0  0  0  0  0
   58.1040   32.6870   45.0240 C   0  0  0  0  0  0  0  0  0  0  0  0
   57.7050   31.4820   45.6170 C   0  0  0  0  0  0  0  0  0  0  0  0
   57.7957   31.3489   46.7051 H   0  0  0  0  0  0  0  0  0  0  0  0
   57.1920   30.4490   44.8280 C   0  0  0  0  0  0  0  0  0  0  0  0
   56.8619   29.5115   45.2992 H   0  0  0  0  0  0  0  0  0  0  0  0
   57.0970   30.6030   43.4430 C   0  0  0  0  0  0  0  0  0  0  0  0
   56.6864   29.7906   42.8253 H   0  0  0  0  0  0  0  0  0  0  0  0
   57.5230   31.7870   42.8450 C   0  0  0  0  0  0  0  0  0  0  0  0
   57.4597   31.9053   41.7532 H   0  0  0  0  0  0  0  0  0  0  0  0
   58.0310   32.8250   43.6320 C   0  0  0  0  0  0  0  0  0  0  0  0
   58.3751   33.7548   43.1556 H   0  0  0  0  0  0  0  0  0  0  0  0
   60.6070   34.0580   47.3350 C   0  0  0  0  0  0  0  0  0  0  0  0
   61.2780   34.6080   46.4180 O   0  0  0  0  0  0  0  0  0  0  0  0
   61.2230   33.8430   48.6740 C   0  0  0  0  0  0  0  0  0  0  0  0
   62.4200   34.4050   48.9550 C   0  0  0  0  0  0  0  0  0  0  0  0
   62.5965   35.4353   48.6124 H   0  0  0  0  0  0  0  0  0  0  0  0
   63.5030   33.7300   49.6890 C   0  0  0  0  0  0  0  0  0  0  0  0
   64.2160   32.6970   49.0670 C   0  0  0  0  0  0  0  0  0  0  0  0
   63.9865   32.4219   48.0270 H   0  0  0  0  0  0  0  0  0  0  0  0
   65.2170   32.0150   49.7620 C   0  0  0  0  0  0  0  0  0  0  0  0
   65.7846   31.2153   49.2637 H   0  0  0  0  0  0  0  0  0  0  0  0
   65.4980   32.3470   51.0880 C   0  0  0  0  0  0  0  0  0  0  0  0
   66.2914   31.8133   51.6318 H   0  0  0  0  0  0  0  0  0  0  0  0
   64.7730   33.3560   51.7250 C   0  0  0  0  0  0  0  0  0  0  0  0
   64.9923   33.6132   52.7718 H   0  0  0  0  0  0  0  0  0  0  0  0
   63.7680   34.0400   51.0330 C   0  0  0  0  0  0  0  0  0  0  0  0
   63.1847   34.8215   51.5420 H   0  0  0  0  0  0  0  0  0  0  0  0
   60.4380   33.1010   49.7400 C   0  0  0  0  0  0  0  0  0  0  0  0
   61.1054   32.3887   50.2472 H   0  0  0  0  0  0  0  0  0  0  0  0
   60.0405   33.8353   50.4561 H   0  0  0  0  0  0  0  0  0  0  0  0
   60.5960   29.2130   49.2300 C   0  0  0  0  0  0  0  0  0  0  0  0
   61.5500   29.6980   50.2850 C   0  0  0  0  0  0  0  0  0  0  0  0
   61.1338   29.4864   51.2810 H   0  0  0  0  0  0  0  0  0  0  0  0
   62.5143   29.1807   50.1731 H   0  0  0  0  0  0  0  0  0  0  0  0
   61.7002   30.7819   50.1731 H   0  0  0  0  0  0  0  0  0  0  0  0
   60.9390   28.1070   48.5260 N   0  0  0  0  0  0  0  0  0  0  0  0
   60.1580   27.5610   47.5570 C   0  0  0  0  0  0  0  0  0  0  0  0
   60.5370   26.3670   47.0870 C   0  0  0  0  0  0  0  0  0  0  0  0
   59.9465   25.8724   46.3017 H   0  0  0  0  0  0  0  0  0  0  0  0
   61.4390   25.8800   47.4859 H   0  0  0  0  0  0  0  0  0  0  0  0
  1  2  1  0
  2  3  1  0
  3  4  1  0
  4  5  1  0
  5  6  2  0
  5  7  1  0
  7  8  1  0
  8  9  1  0
  9 10  1  0
  9 11  2  3
 11 12  1  0
 12 13  1  0
 12 14  2  0
 14 15  1  0
 15 16  2  0
 15 17  1  0
 17 18  1  0
 18 19  1  0
 18 20  1  0
 18 21  1  0
 21 22  2  3
 22 23  1  0
 22 24  1  0
 24 25  2  0
 25 26  1  0
 25 27  1  0
 27 28  1  0
 27 29  2  0
 29 30  1  0
 29 31  1  0
 31 32  1  0
 31 33  2  0
 33 34  1  0
 21 35  1  0
 35 36  2  0
 35 37  1  0
 37 38  2  0
 38 39  1  0
 38 40  1  0
 40 41  2  0
 41 42  1  0
 41 43  1  0
 43 44  1  0
 43 45  2  0
 45 46  1  0
 45 47  1  0
 47 48  1  0
 47 49  2  0
 49 50  1  0
 37 51  1  0
 51 52  1  0
 51 53  1  0
 14 54  1  0
 54 55  1  0
 55 56  1  0
 55 57  1  0
 55 58  1  0
 54 59  2  0
 59 60  1  0
 60 61  2  0
 61 62  1  0
 61 63  1  0
  8  3  2  0
 60 11  1  0
 51 17  1  0
 33 24  1  0
 49 40  1  0
M  CHG  2   4  -1   7  -1
M  END
>  <UniqueID>  (12) 
11

>  <SMILES>  (12) 
C=c1nc(C)c(C(=O)N2CC(=Cc3ccccc3)C(=O)/C(=C/c3ccccc3)C2)cc1=Cc1[n-]c(=O)[n-]c1O

>  <Energy>  (12) 
139.8274749488612

>  <Genealogy>  (12) 
C=c1nc(C)c(C(=O)N2CC(=Cc3ccccc3)C(=O)C(=Cc3ccccc3)C2)cc1=Cc1[n-]c(=O)[n-]c1O (protonated)
C=c1nc(C)c(C(=O)N2CC(=Cc3ccccc3)C(=O)/C(=C/c3ccccc3)C2)cc1=Cc1[n-]c(=O)[n-]c1O (cis-trans isomerization)
C=c1nc(C)c(C(=O)N2CC(=Cc3ccccc3)C(=O)/C(=C/c3ccccc3)C2)cc1=Cc1[n-]c(=O)[n-]c1O (3D coordinates assigned)
C=c1nc(C)c(C(=O)N2CC(=Cc3ccccc3)C(=O)/C(=C/c3ccccc3)C2)cc1=Cc1[n-]c(=O)[n-]c1O (nonaromatic ring conformer: 139.8274749488612 kcal/mol)

>  <smiles>  (12) 
C=c1nc(C)c(C(=O)N2CC(=Cc3ccccc3)C(=O)C(=Cc3ccccc3)C2)cc1=Cc1[nH]c(=O)[nH]c1O

>  <score_type>  (12) 
oracle

>  <origin>  (12) 
adg

>  <m_score__min__energy>  (12) 
-16.370000000000001

>  <m_primary>  (12) 
energy

$$$$
12:0
     RDKit          3D

 46 48  0  0  0  0  0  0  0  0999 V2000
   57.0070   34.2150   44.8690 C   0  0  0  0  0  0  0  0  0  0  0  0
   58.1030   34.0100   45.8720 C   0  0  0  0  0  0  0  0  0  0  0  0
   59.4120   34.4170   45.5810 C   0  0  0  0  0  0  0  0  0  0  0  0
   60.4270   34.2660   46.5310 C   0  0  0  0  0  0  0  0  0  0  0  0
   60.1430   33.7040   47.7860 C   0  0  0  0  0  0  0  0  0  0  0  0
   61.2230   33.5760   48.8200 C   0  0  0  0  0  0  0  0  0  0  0  0
   60.7670   34.1680   50.0700 N   0  0  0  0  0  0  0  0  0  0  0  0
   60.4140   33.3870   51.2160 C   0  0  0  0  0  0  0  0  0  0  0  0
   60.6710   33.8160   52.3740 O   0  0  0  0  0  0  0  0  0  0  0  0
   59.7480   32.0800   51.0540 C   0  0  0  0  0  0  0  0  0  0  0  0
   58.4040   31.8970   51.4130 C   0  0  0  0  0  0  0  0  0  0  0  0
   57.8130   30.6430   51.2410 C   0  0  0  0  0  0  0  0  0  0  0  0
   56.6070   30.4650   51.5600 O   0  0  0  0  0  0  0  0  0  0  0  0
   58.5600   29.5860   50.7170 C   0  0  0  0  0  0  0  0  0  0  0  0
   59.9030   29.7980   50.3670 C   0  0  0  0  0  0  0  0  0  0  0  0
   60.7300   28.7140   49.8060 C   0  0  0  0  0  0  0  0  0  0  0  0
   61.5190   28.0840   50.5630 O   0  0  0  0  0  0  0  0  0  0  0  0
   60.6010   28.3440   48.4260 N   0  0  0  0  0  0  0  0  0  0  0  0
   59.5710   28.7650   47.5190 C   0  0  0  0  0  0  0  0  0  0  0  0
   59.4390   30.1020   47.1080 C   0  0  0  0  0  0  0  0  0  0  0  0
   58.4080   30.4740   46.2400 C   0  0  0  0  0  0  0  0  0  0  0  0
   57.4820   29.5230   45.7780 C   0  0  0  0  0  0  0  0  0  0  0  0
   56.3910   29.9190   44.8580 C   0  0  0  0  0  0  0  0  0  0  0  0
   55.1520   29.2100   44.8520 N   0  0  0  0  0  0  0  0  0  0  0  0
   56.5460   30.8880   44.0680 O   0  0  0  0  0  0  0  0  0  0  0  0
   57.6060   28.1900   46.2130 C   0  0  0  0  0  0  0  0  0  0  0  0
   58.6360   27.8200   47.0800 C   0  0  0  0  0  0  0  0  0  0  0  0
   60.4520   31.0320   50.5440 N   0  0  0  0  0  0  0  0  0  0  0  0
   58.8260   33.3280   48.0890 C   0  0  0  0  0  0  0  0  0  0  0  0
   57.8120   33.4800   47.1390 C   0  0  0  0  0  0  0  0  0  0  0  0
   56.0573   34.3926   45.3948 H   0  0  0  0  0  0  0  0  0  0  0  0
   57.2451   35.0842   44.2383 H   0  0  0  0  0  0  0  0  0  0  0  0
   56.9148   33.3185   44.2383 H   0  0  0  0  0  0  0  0  0  0  0  0
   59.6424   34.8577   44.5998 H   0  0  0  0  0  0  0  0  0  0  0  0
   61.4516   34.5887   46.2942 H   0  0  0  0  0  0  0  0  0  0  0  0
   61.4539   32.5125   48.9801 H   0  0  0  0  0  0  0  0  0  0  0  0
   62.1273   34.0980   48.4740 H   0  0  0  0  0  0  0  0  0  0  0  0
   57.8210   32.7334   51.8261 H   0  0  0  0  0  0  0  0  0  0  0  0
   58.1003   28.5961   50.5797 H   0  0  0  0  0  0  0  0  0  0  0  0
   60.1497   30.8592   47.4706 H   0  0  0  0  0  0  0  0  0  0  0  0
   58.3207   31.5214   45.9155 H   0  0  0  0  0  0  0  0  0  0  0  0
   54.4470   29.3550   45.6080 H   0  0  0  0  0  0  0  0  0  0  0  0
   56.8858   27.4339   45.8672 H   0  0  0  0  0  0  0  0  0  0  0  0
   58.7135   26.7771   47.4210 H   0  0  0  0  0  0  0  0  0  0  0  0
   58.5900   32.9114   49.0793 H   0  0  0  0  0  0  0  0  0  0  0  0
   56.7818   33.1831   47.3851 H   0  0  0  0  0  0  0  0  0  0  0  0
  1  2  1  0
  2  3  2  0
  3  4  1  0
  4  5  2  0
  5  6  1  0
  6  7  1  0
  7  8  1  0
  8  9  2  0
  8 10  1  0
 10 11  2  0
 11 12  1  0
 12 13  2  0
 12 14  1  0
 14 15  2  0
 15 16  1  0
 16 17  2  0
 16 18  1  0
 18 19  1  0
 19 20  2  0
 20 21  1  0
 21 22  2  0
 22 23  1  0
 23 24  1  0
 23 25  2  0
 22 26  1  0
 26 27  2  0
 15 28  1  0
  5 29  1  0
 29 30  2  0
 30  2  1  0
 28 10  1  0
 27 19  1  0
  1 31  1  0
  1 32  1  0
  1 33  1  0
  3 34  1  0
  4 35  1  0
  6 36  1  0
  6 37  1  0
 11 38  1  0
 14 39  1  0
 20 40  1  0
 21 41  1  0
 24 42  1  0
 26 43  1  0
 27 44  1  0
 29 45  1  0
 30 46  1  0
M  CHG  4   7  -1  18  -1  24  -1  28  -1
M  END
>  <UniqueID>  (13) 
12

>  <SMILES>  (13) 
Cc1ccc(C[N-]C(=O)c2cc(=O)cc(C(=O)[N-]c3ccc(C([NH-])=O)cc3)[n-]2)cc1

>  <Energy>  (13) 
49.46371061726334

>  <Genealogy>  (13) 
Cc1ccc(C[N-]C(=O)c2cc(=O)cc(C(=O)[N-]c3ccc(C([NH-])=O)cc3)[n-]2)cc1 (protonated)
Cc1ccc(C[N-]C(=O)c2cc(=O)cc(C(=O)[N-]c3ccc(C([NH-])=O)cc3)[n-]2)cc1 (3D coordinates assigned)
Cc1ccc(C[N-]C(=O)c2cc(=O)cc(C(=O)[N-]c3ccc(C([NH-])=O)cc3)[n-]2)cc1 (optimized conformer: 49.46371061726334 kcal/mol)

>  <smiles>  (13) 
Cc1ccc(CNC(=O)c2cc(=O)cc(C(=O)Nc3ccc(C(N)=O)cc3)[nH]2)cc1

>  <score_type>  (13) 
oracle

>  <origin>  (13) 
adg

>  <m_score__min__energy>  (13) 
-15.210000000000001

>  <m_primary>  (13) 
energy

$$$$
13:0
     RDKit          3D

 41 43  0  0  0  0  0  0  0  0999 V2000
   59.5690   29.2760   51.4930 C   0  0  0  0  0  0  0  0  0  0  0  0
   59.3250   29.9130   50.3430 C   0  0  0  0  0  0  0  0  0  0  0  0
   58.4830   31.0020   50.2150 C   0  0  0  0  0  0  0  0  0  0  0  0
   58.5120   31.3440   48.8790 C   0  0  0  0  0  0  0  0  0  0  0  0
   57.7900   32.3910   48.3150 O   0  0  0  0  0  0  0  0  0  0  0  0
   59.3300   30.5300   48.1780 N   0  0  0  0  0  0  0  0  0  0  0  0
   59.5630   30.6270   46.7290 C   0  0  0  0  0  0  0  0  0  0  0  0
   58.2500   30.6590   45.9720 C   0  0  0  0  0  0  0  0  0  0  0  0
   57.4650   29.4880   45.9680 C   0  0  0  0  0  0  0  0  0  0  0  0
   56.2890   29.4150   45.2210 C   0  0  0  0  0  0  0  0  0  0  0  0
   55.5260   28.2540   45.2380 O   0  0  0  0  0  0  0  0  0  0  0  0
   55.8830   30.5040   44.4520 C   0  0  0  0  0  0  0  0  0  0  0  0
   56.6490   31.6680   44.4300 C   0  0  0  0  0  0  0  0  0  0  0  0
   57.8280   31.7700   45.1890 C   0  0  0  0  0  0  0  0  0  0  0  0
   58.5780   33.0420   45.1210 C   0  0  0  0  0  0  0  0  0  0  0  0
   59.0440   33.4430   44.0220 O   0  0  0  0  0  0  0  0  0  0  0  0
   58.8700   33.7510   46.3320 N   0  0  0  0  0  0  0  0  0  0  0  0
   60.1060   33.7140   47.0620 C   0  0  0  0  0  0  0  0  0  0  0  0
   61.2570   33.2510   46.4100 C   0  0  0  0  0  0  0  0  0  0  0  0
   62.4750   33.1800   47.0920 C   0  0  0  0  0  0  0  0  0  0  0  0
   62.5500   33.5560   48.4370 C   0  0  0  0  0  0  0  0  0  0  0  0
   64.0770   33.4630   49.2930 Cl  0  0  0  0  0  0  0  0  0  0  0  0
   61.4000   33.9940   49.1020 C   0  0  0  0  0  0  0  0  0  0  0  0
   60.1800   34.0680   48.4220 C   0  0  0  0  0  0  0  0  0  0  0  0
   59.8350   29.6350   49.0710 C   0  0  0  0  0  0  0  0  0  0  0  0
   60.6800   28.6380   48.7650 C   0  0  0  0  0  0  0  0  0  0  0  0
   60.2538   28.4153   51.5104 H   0  0  0  0  0  0  0  0  0  0  0  0
   59.0849   29.6126   52.4216 H   0  0  0  0  0  0  0  0  0  0  0  0
   57.9086   31.4941   51.0136 H   0  0  0  0  0  0  0  0  0  0  0  0
   58.1200   32.8620   47.4820 H   0  0  0  0  0  0  0  0  0  0  0  0
   60.1247   31.5483   46.5152 H   0  0  0  0  0  0  0  0  0  0  0  0
   60.1348   29.7450   46.4047 H   0  0  0  0  0  0  0  0  0  0  0  0
   57.7844   28.6193   46.5625 H   0  0  0  0  0  0  0  0  0  0  0  0
   54.9567   30.4447   43.8616 H   0  0  0  0  0  0  0  0  0  0  0  0
   56.3269   32.5181   43.8107 H   0  0  0  0  0  0  0  0  0  0  0  0
   61.2015   32.9418   45.3558 H   0  0  0  0  0  0  0  0  0  0  0  0
   63.3766   32.8276   46.5697 H   0  0  0  0  0  0  0  0  0  0  0  0
   61.4553   34.2810   50.1625 H   0  0  0  0  0  0  0  0  0  0  0  0
   59.2762   34.4037   48.9515 H   0  0  0  0  0  0  0  0  0  0  0  0
   61.0386   27.9596   49.5531 H   0  0  0  0  0  0  0  0  0  0  0  0
   61.0139   28.4994   47.7261 H   0  0  0  0  0  0  0  0  0  0  0  0
  1  2  2  0
  2  3  1  0
  3  4  2  0
  4  5  1  0
  4  6  1  0
  6  7  1  0
  7  8  1  0
  8  9  2  0
  9 10  1  0
 10 11  1  0
 10 12  2  0
 12 13  1  0
 13 14  2  0
 14 15  1  0
 15 16  2  0
 15 17  1  0
 17 18  1  0
 18 19  2  0
 19 20  1  0
 20 21  2  0
 21 22  1  0
 21 23  1  0
 23 24  2  0
  6 25  1  0
 25 26  2  0
 25  2  1  0
 14  8  1  0
 24 18  1  0
  1 27  1  0
  1 28  1  0
  3 29  1  0
  5 30  1  0
  7 31  1  0
  7 32  1  0
  9 33  1  0
 12 34  1  0
 13 35  1  0
 19 36  1  0
 20 37  1  0
 23 38  1  0
 24 39  1  0
 26 40  1  0
 26 41  1  0
M  CHG  2  11  -1  17  -1
M  END
>  <UniqueID>  (14) 
13

>  <SMILES>  (14) 
C=c1cc(O)n(Cc2cc([O-])ccc2C(=O)[N-]c2ccc(Cl)cc2)c1=C

>  <Energy>  (14) 
84.40505995805081

>  <Genealogy>  (14) 
C=c1cc(O)n(Cc2cc([O-])ccc2C(=O)[N-]c2ccc(Cl)cc2)c1=C (protonated)
C=c1cc(O)n(Cc2cc([O-])ccc2C(=O)[N-]c2ccc(Cl)cc2)c1=C (3D coordinates assigned)
C=c1cc(O)n(Cc2cc([O-])ccc2C(=O)[N-]c2ccc(Cl)cc2)c1=C (optimized conformer: 84.40505995805081 kcal/mol)

>  <smiles>  (14) 
C=c1cc(O)n(Cc2cc(O)ccc2C(=O)Nc2ccc(Cl)cc2)c1=C

>  <score_type>  (14) 
oracle

>  <origin>  (14) 
adg

>  <m_score__min__energy>  (14) 
-11.51

>  <m_primary>  (14) 
energy

$$$$
14:0
     RDKit          3D

 61 64  0  0  0  0  0  0  0  0999 V2000
   55.5290   29.5280   44.8160 O   0  0  0  0  0  0  0  0  0  0  0  0
   56.4690   30.3180   44.5360 C   0  0  0  0  0  0  0  0  0  0  0  0
   57.6840   29.8080   43.8620 C   0  0  0  0  0  0  0  0  0  0  0  0
   58.8440   29.5350   44.4760 C   0  0  0  0  0  0  0  0  0  0  0  0
   59.0210   28.6170   45.6220 C   0  0  0  0  0  0  0  0  0  0  0  0
   60.0140   28.8350   46.5900 C   0  0  0  0  0  0  0  0  0  0  0  0
   60.1160   27.9860   47.6940 C   0  0  0  0  0  0  0  0  0  0  0  0
   59.2080   26.9390   47.8620 C   0  0  0  0  0  0  0  0  0  0  0  0
   58.1770   26.7400   46.9370 C   0  0  0  0  0  0  0  0  0  0  0  0
   57.2330   25.6900   47.1960 N   0  0  0  0  0  0  0  0  0  0  0  0
   55.9180   25.1540   46.1920 S   0  0  0  0  0  0  0  0  0  0  0  0
   54.9840   26.3140   45.9970 O   0  0  0  0  0  0  0  0  0  0  0  0
   55.1440   24.0540   46.8600 O   0  0  0  0  0  0  0  0  0  0  0  0
   56.4870   24.6400   44.6170 N   0  0  0  0  0  0  0  0  0  0  0  0
   57.8190   24.0220   44.7150 C   0  0  0  0  0  0  0  0  0  0  0  0
   57.7440   22.6250   44.1160 C   0  0  0  0  0  0  0  0  0  0  0  0
   56.2720   22.2960   44.0890 C   0  0  0  0  0  0  0  0  0  0  0  0
   55.5950   23.6490   44.0040 C   0  0  0  0  0  0  0  0  0  0  0  0
   58.0980   27.5740   45.8080 C   0  0  0  0  0  0  0  0  0  0  0  0
   56.3200   31.7070   44.8520 N   0  0  0  0  0  0  0  0  0  0  0  0
   57.3460   32.5460   45.3930 C   0  0  0  0  0  0  0  0  0  0  0  0
   57.6730   33.7690   44.7890 C   0  0  0  0  0  0  0  0  0  0  0  0
   58.6830   34.5690   45.3280 C   0  0  0  0  0  0  0  0  0  0  0  0
   59.3770   34.1510   46.4660 C   0  0  0  0  0  0  0  0  0  0  0  0
   59.0720   32.9200   47.0630 C   0  0  0  0  0  0  0  0  0  0  0  0
   59.9230   32.4040   48.5190 S   0  0  0  0  0  0  0  0  0  0  0  0
   60.4290   33.6140   49.2520 O   0  0  0  0  0  0  0  0  0  0  0  0
   61.1080   31.5660   48.1270 O   0  0  0  0  0  0  0  0  0  0  0  0
   58.8880   31.4780   49.5760 N   0  0  0  0  0  0  0  0  0  0  0  0
   59.6240   30.3380   50.1470 C   0  0  0  0  0  0  0  0  0  0  0  0
   58.7830   29.6380   51.2330 C   0  0  0  0  0  0  0  0  0  0  0  0
   57.4530   30.1190   51.2380 O   0  0  0  0  0  0  0  0  0  0  0  0
   57.4400   31.4950   51.5710 C   0  0  0  0  0  0  0  0  0  0  0  0
   58.3540   32.3260   50.6500 C   0  0  0  0  0  0  0  0  0  0  0  0
   58.0700   32.1120   46.5100 C   0  0  0  0  0  0  0  0  0  0  0  0
   57.6312   29.6405   42.7761 H   0  0  0  0  0  0  0  0  0  0  0  0
   59.7441   30.0385   44.0935 H   0  0  0  0  0  0  0  0  0  0  0  0
   60.7135   29.6766   46.4786 H   0  0  0  0  0  0  0  0  0  0  0  0
   60.9147   28.1428   48.4339 H   0  0  0  0  0  0  0  0  0  0  0  0
   59.3036   26.2662   48.7270 H   0  0  0  0  0  0  0  0  0  0  0  0
   58.5510   24.6261   44.1589 H   0  0  0  0  0  0  0  0  0  0  0  0
   58.1339   23.9662   45.7675 H   0  0  0  0  0  0  0  0  0  0  0  0
   58.1617   22.6167   43.0984 H   0  0  0  0  0  0  0  0  0  0  0  0
   58.3227   21.8922   44.6975 H   0  0  0  0  0  0  0  0  0  0  0  0
   56.0252   21.6796   43.2120 H   0  0  0  0  0  0  0  0  0  0  0  0
   55.9516   21.7169   44.9677 H   0  0  0  0  0  0  0  0  0  0  0  0
   55.4136   23.9105   42.9510 H   0  0  0  0  0  0  0  0  0  0  0  0
   54.6287   23.6272   44.5291 H   0  0  0  0  0  0  0  0  0  0  0  0
   57.3059   27.4084   45.0629 H   0  0  0  0  0  0  0  0  0  0  0  0
   57.1330   34.0986   43.8892 H   0  0  0  0  0  0  0  0  0  0  0  0
   58.9326   35.5304   44.8553 H   0  0  0  0  0  0  0  0  0  0  0  0
   60.1641   34.7889   46.8943 H   0  0  0  0  0  0  0  0  0  0  0  0
   59.8528   29.6183   49.3472 H   0  0  0  0  0  0  0  0  0  0  0  0
   60.5539   30.7088   50.6028 H   0  0  0  0  0  0  0  0  0  0  0  0
   58.7726   28.5557   51.0369 H   0  0  0  0  0  0  0  0  0  0  0  0
   59.2340   29.8497   52.2137 H   0  0  0  0  0  0  0  0  0  0  0  0
   56.4103   31.8714   51.4812 H   0  0  0  0  0  0  0  0  0  0  0  0
   57.8154   31.5967   52.5999 H   0  0  0  0  0  0  0  0  0  0  0  0
   57.7746   33.1506   50.2093 H   0  0  0  0  0  0  0  0  0  0  0  0
   59.1894   32.7312   51.2398 H   0  0  0  0  0  0  0  0  0  0  0  0
   57.8508   31.1307   46.9561 H   0  0  0  0  0  0  0  0  0  0  0  0
  1  2  2  0
  2  3  1  0
  3  4  2  3
  4  5  1  0
  5  6  2  0
  6  7  1  0
  7  8  2  0
  8  9  1  0
  9 10  1  0
 10 11  1  0
 11 12  2  0
 11 13  2  0
 11 14  1  0
 14 15  1  0
 15 16  1  0
 16 17  1  0
 17 18  1  0
  9 19  2  0
  2 20  1  0
 20 21  1  0
 21 22  2  0
 22 23  1  0
 23 24  2  0
 24 25  1  0
 25 26  1  0
 26 27  2  0
 26 28  2  0
 26 29  1  0
 29 30  1  0
 30 31  1  0
 31 32  1  0
 32 33  1  0
 33 34  1  0
 25 35  2  0
 19  5  1  0
 35 21  1  0
 18 14  1  0
 34 29  1  0
  3 36  1  0
  4 37  1  0
  6 38  1  0
  7 39  1  0
  8 40  1  0
 15 41  1  0
 15 42  1  0
 16 43  1  0
 16 44  1  0
 17 45  1  0
 17 46  1  0
 18 47  1  0
 18 48  1  0
 19 49  1  0
 22 50  1  0
 23 51  1  0
 24 52  1  0
 30 53  1  0
 30 54  1  0
 31 55  1  0
 31 56  1  0
 33 57  1  0
 33 58  1  0
 34 59  1  0
 34 60  1  0
 35 61  1  0
M  CHG  2  10  -1  20  -1
M  END
>  <UniqueID>  (15) 
14

>  <SMILES>  (15) 
O=C(C=Cc1cccc([N-]S(=O)(=O)N2CCCC2)c1)[N-]c1cccc(S(=O)(=O)N2CCOCC2)c1

>  <Energy>  (15) 
89.13101956706393

>  <Genealogy>  (15) 
O=C(C=Cc1cccc([N-]S(=O)(=O)N2CCCC2)c1)[N-]c1cccc(S(=O)(=O)N2CCOCC2)c1 (protonated)
O=C(C=Cc1cccc([N-]S(=O)(=O)N2CCCC2)c1)[N-]c1cccc(S(=O)(=O)N2CCOCC2)c1 (3D coordinates assigned)
O=C(C=Cc1cccc([N-]S(=O)(=O)N2CCCC2)c1)[N-]c1cccc(S(=O)(=O)N2CCOCC2)c1 (nonaromatic ring conformer: 89.13101956706393 kcal/mol)

>  <smiles>  (15) 
O=C(C=Cc1cccc(NS(=O)(=O)N2CCCC2)c1)Nc1cccc(S(=O)(=O)N2CCOCC2)c1

>  <score_type>  (15) 
oracle

>  <origin>  (15) 
adg

>  <m_score__min__energy>  (15) 
-14.5

>  <m_primary>  (15) 
energy

$$$$
15:0
     RDKit          3D

 50 52  0  0  0  0  0  0  0  0999 V2000
   57.7640   31.7060   42.6690 C   0  0  0  0  0  0  0  0  0  0  0  0
   57.9550   31.5940   43.9930 C   0  0  0  0  0  0  0  0  0  0  0  0
   58.0990   30.3990   44.7060 C   0  0  0  0  0  0  0  0  0  0  0  0
   58.0190   29.1430   44.2270 C   0  0  0  0  0  0  0  0  0  0  0  0
   57.4430   28.0120   44.9910 C   0  0  0  0  0  0  0  0  0  0  0  0
   56.0670   27.9720   45.2560 C   0  0  0  0  0  0  0  0  0  0  0  0
   55.2350   29.0040   44.8370 O   0  0  0  0  0  0  0  0  0  0  0  0
   55.5370   26.9230   45.9360 N   0  0  0  0  0  0  0  0  0  0  0  0
   56.3150   25.8950   46.3570 C   0  0  0  0  0  0  0  0  0  0  0  0
   55.8030   24.9370   46.9910 O   0  0  0  0  0  0  0  0  0  0  0  0
   57.6470   25.8960   46.0910 N   0  0  0  0  0  0  0  0  0  0  0  0
   58.2250   26.9200   45.4120 C   0  0  0  0  0  0  0  0  0  0  0  0
   59.4580   26.8690   45.1530 O   0  0  0  0  0  0  0  0  0  0  0  0
   58.3200   30.7570   46.0280 C   0  0  0  0  0  0  0  0  0  0  0  0
   58.3150   32.1340   46.0680 C   0  0  0  0  0  0  0  0  0  0  0  0
   58.5650   32.9340   47.2800 C   0  0  0  0  0  0  0  0  0  0  0  0
   57.6760   33.7480   47.6540 O   0  0  0  0  0  0  0  0  0  0  0  0
   59.8060   32.8250   48.0090 N   0  0  0  0  0  0  0  0  0  0  0  0
   60.7800   31.7750   47.6750 C   0  0  0  0  0  0  0  0  0  0  0  0
   61.9470   31.7410   48.6760 C   0  0  0  0  0  0  0  0  0  0  0  0
   62.5370   33.0770   48.9290 N   0  0  0  0  0  0  0  0  0  0  0  0
   63.8290   33.3230   48.2540 C   0  0  0  0  0  0  0  0  0  0  0  0
   63.7930   33.0910   46.7370 C   0  0  0  0  0  0  0  0  0  0  0  0
   61.6070   34.2290   48.8700 C   0  0  0  0  0  0  0  0  0  0  0  0
   60.1480   33.8050   49.0460 C   0  0  0  0  0  0  0  0  0  0  0  0
   58.0730   32.6500   44.8420 N   0  0  0  0  0  0  0  0  0  0  0  0
   58.0740   34.0810   44.5020 C   0  0  0  0  0  0  0  0  0  0  0  0
   56.7300   34.7100   44.8470 C   0  0  0  0  0  0  0  0  0  0  0  0
   57.6631   32.7006   42.2100 H   0  0  0  0  0  0  0  0  0  0  0  0
   57.7083   30.8032   42.0430 H   0  0  0  0  0  0  0  0  0  0  0  0
   58.4017   28.9464   43.2146 H   0  0  0  0  0  0  0  0  0  0  0  0
   58.4699   30.0749   46.8779 H   0  0  0  0  0  0  0  0  0  0  0  0
   60.2711   30.7999   47.6878 H   0  0  0  0  0  0  0  0  0  0  0  0
   61.1903   31.9931   46.6780 H   0  0  0  0  0  0  0  0  0  0  0  0
   61.5782   31.3352   49.6296 H   0  0  0  0  0  0  0  0  0  0  0  0
   62.7361   31.1124   48.2376 H   0  0  0  0  0  0  0  0  0  0  0  0
   64.1223   34.3671   48.4377 H   0  0  0  0  0  0  0  0  0  0  0  0
   64.5485   32.6024   48.6700 H   0  0  0  0  0  0  0  0  0  0  0  0
   63.6273   32.0228   46.5333 H   0  0  0  0  0  0  0  0  0  0  0  0
   62.9755   33.6797   46.2953 H   0  0  0  0  0  0  0  0  0  0  0  0
   64.7505   33.4043   46.2953 H   0  0  0  0  0  0  0  0  0  0  0  0
   61.8690   34.9368   49.6703 H   0  0  0  0  0  0  0  0  0  0  0  0
   61.7061   34.6918   47.8770 H   0  0  0  0  0  0  0  0  0  0  0  0
   60.0128   33.3527   50.0396 H   0  0  0  0  0  0  0  0  0  0  0  0
   59.4926   34.6839   48.9568 H   0  0  0  0  0  0  0  0  0  0  0  0
   58.8679   34.5879   45.0701 H   0  0  0  0  0  0  0  0  0  0  0  0
   58.2526   34.1910   43.4222 H   0  0  0  0  0  0  0  0  0  0  0  0
   56.6192   34.7618   45.9402 H   0  0  0  0  0  0  0  0  0  0  0  0
   56.6809   35.7246   44.4250 H   0  0  0  0  0  0  0  0  0  0  0  0
   55.9195   34.0977   44.4250 H   0  0  0  0  0  0  0  0  0  0  0  0
  1  2  2  0
  2  3  1  0
  3  4  2  3
  4  5  1  0
  5  6  2  0
  6  7  1  0
  6  8  1  0
  8  9  1  0
  9 10  2  0
  9 11  1  0
 11 12  1  0
 12 13  2  0
  3 14  1  0
 14 15  2  0
 15 16  1  0
 16 17  2  0
 16 18  1  0
 18 19  1  0
 19 20  1  0
 20 21  1  0
 21 22  1  0
 22 23  1  0
 21 24  1  0
 24 25  1  0
 15 26  1  0
 26 27  1  0
 27 28  1  0
 26  2  1  0
 12  5  1  0
 25 18  1  0
  1 29  1  0
  1 30  1  0
  4 31  1  0
 14 32  1  0
 19 33  1  0
 19 34  1  0
 20 35  1  0
 20 36  1  0
 22 37  1  0
 22 38  1  0
 23 39  1  0
 23 40  1  0
 23 41  1  0
 24 42  1  0
 24 43  1  0
 25 44  1  0
 25 45  1  0
 27 46  1  0
 27 47  1  0
 28 48  1  0
 28 49  1  0
 28 50  1  0
M  CHG  3   7  -1   8  -1  11  -1
M  END
>  <UniqueID>  (16) 
15

>  <SMILES>  (16) 
C=c1c(=Cc2c([O-])[n-]c(=O)[n-]c2=O)cc(C(=O)N2CCN(CC)CC2)n1CC

>  <Energy>  (16) 
101.41813629468636

>  <Genealogy>  (16) 
C=c1c(=Cc2c([O-])[n-]c(=O)[n-]c2=O)cc(C(=O)N2CCN(CC)CC2)n1CC (protonated)
C=c1c(=Cc2c([O-])[n-]c(=O)[n-]c2=O)cc(C(=O)N2CCN(CC)CC2)n1CC (3D coordinates assigned)
C=c1c(=Cc2c([O-])[n-]c(=O)[n-]c2=O)cc(C(=O)N2CCN(CC)CC2)n1CC (nonaromatic ring conformer: 101.41813629468636 kcal/mol)

>  <smiles>  (16) 
C=c1c(=Cc2c(O)[nH]c(=O)[nH]c2=O)cc(C(=O)N2CCN(CC)CC2)n1CC

>  <score_type>  (16) 
oracle

>  <origin>  (16) 
adg

>  <m_score__min__energy>  (16) 
-16.039999999999999

>  <m_primary>  (16) 
energy

$$$$
16:0
     RDKit          3D

 55 58  0  0  0  0  0  0  0  0999 V2000
   57.7680   27.4450   44.1380 C   0  0  0  0  0  0  0  0  0  0  0  0
   58.2960   27.0410   45.3060 C   0  0  0  0  0  0  0  0  0  0  0  0
   58.0380   25.8310   45.9690 C   0  0  0  0  0  0  0  0  0  0  0  0
   57.4180   24.7080   45.5550 C   0  0  0  0  0  0  0  0  0  0  0  0
   55.9730   24.4450   45.6330 C   0  0  0  0  0  0  0  0  0  0  0  0
   55.4210   23.2480   45.3700 N   0  0  0  0  0  0  0  0  0  0  0  0
   54.0950   23.4950   45.4320 C   0  0  0  0  0  0  0  0  0  0  0  0
   53.2300   22.5970   45.2580 O   0  0  0  0  0  0  0  0  0  0  0  0
   53.7670   24.7800   45.6850 N   0  0  0  0  0  0  0  0  0  0  0  0
   54.9670   25.3720   45.7960 C   0  0  0  0  0  0  0  0  0  0  0  0
   55.1380   26.7350   46.0080 O   0  0  0  0  0  0  0  0  0  0  0  0
   58.5770   25.9620   47.2370 C   0  0  0  0  0  0  0  0  0  0  0  0
   59.1940   27.1950   47.2880 C   0  0  0  0  0  0  0  0  0  0  0  0
   59.9940   27.6790   48.4340 C   0  0  0  0  0  0  0  0  0  0  0  0
   61.1020   27.1310   48.6780 O   0  0  0  0  0  0  0  0  0  0  0  0
   59.5210   28.7400   49.2880 N   0  0  0  0  0  0  0  0  0  0  0  0
   58.6050   29.7710   48.7810 C   0  0  0  0  0  0  0  0  0  0  0  0
   59.0370   31.1550   49.2750 C   0  0  0  0  0  0  0  0  0  0  0  0
   59.3200   31.1610   50.7200 N   0  0  0  0  0  0  0  0  0  0  0  0
   59.5200   32.4140   51.4130 C   0  0  0  0  0  0  0  0  0  0  0  0
   59.6750   33.7060   50.6670 C   0  0  0  0  0  0  0  0  0  0  0  0
   59.5460   32.4420   52.6740 O   0  0  0  0  0  0  0  0  0  0  0  0
   59.2870   29.9000   51.4740 C   0  0  0  0  0  0  0  0  0  0  0  0
   59.9820   28.7860   50.6820 C   0  0  0  0  0  0  0  0  0  0  0  0
   59.0380   27.8470   46.1110 N   0  0  0  0  0  0  0  0  0  0  0  0
   59.5070   29.1780   45.8210 C   0  0  0  0  0  0  0  0  0  0  0  0
   60.7340   29.3750   45.6100 O   0  0  0  0  0  0  0  0  0  0  0  0
   58.5710   30.2630   45.7320 N   0  0  0  0  0  0  0  0  0  0  0  0
   58.9350   31.6540   45.7820 C   0  0  0  0  0  0  0  0  0  0  0  0
   58.0750   32.6070   45.2130 C   0  0  0  0  0  0  0  0  0  0  0  0
   58.3900   33.9680   45.2690 C   0  0  0  0  0  0  0  0  0  0  0  0
   59.5610   34.3900   45.9060 C   0  0  0  0  0  0  0  0  0  0  0  0
   59.9540   36.0980   45.9800 Cl  0  0  0  0  0  0  0  0  0  0  0  0
   60.4120   33.4510   46.4970 C   0  0  0  0  0  0  0  0  0  0  0  0
   60.0990   32.0890   46.4430 C   0  0  0  0  0  0  0  0  0  0  0  0
   58.0491   28.4210   43.7157 H   0  0  0  0  0  0  0  0  0  0  0  0
   57.0548   26.7996   43.6043 H   0  0  0  0  0  0  0  0  0  0  0  0
   58.0485   23.9184   45.1204 H   0  0  0  0  0  0  0  0  0  0  0  0
   58.5236   25.2231   48.0501 H   0  0  0  0  0  0  0  0  0  0  0  0
   58.6171   29.7581   47.6811 H   0  0  0  0  0  0  0  0  0  0  0  0
   57.5900   29.5603   49.1490 H   0  0  0  0  0  0  0  0  0  0  0  0
   59.9456   31.4577   48.7338 H   0  0  0  0  0  0  0  0  0  0  0  0
   58.2104   31.8561   49.0876 H   0  0  0  0  0  0  0  0  0  0  0  0
   59.7743   34.5340   51.3844 H   0  0  0  0  0  0  0  0  0  0  0  0
   60.5739   33.6588   50.0348 H   0  0  0  0  0  0  0  0  0  0  0  0
   58.7904   33.8728   50.0348 H   0  0  0  0  0  0  0  0  0  0  0  0
   59.8041   30.0385   52.4349 H   0  0  0  0  0  0  0  0  0  0  0  0
   58.2388   29.6147   51.6469 H   0  0  0  0  0  0  0  0  0  0  0  0
   61.0673   28.9652   50.6926 H   0  0  0  0  0  0  0  0  0  0  0  0
   59.7359   27.8243   51.1559 H   0  0  0  0  0  0  0  0  0  0  0  0
   57.5710   30.0200   45.5540 H   0  0  0  0  0  0  0  0  0  0  0  0
   57.1474   32.2807   44.7200 H   0  0  0  0  0  0  0  0  0  0  0  0
   57.7161   34.7074   44.8116 H   0  0  0  0  0  0  0  0  0  0  0  0
   61.3290   33.7841   47.0051 H   0  0  0  0  0  0  0  0  0  0  0  0
   60.7653   31.3546   46.9191 H   0  0  0  0  0  0  0  0  0  0  0  0
  1  2  2  0
  2  3  1  0
  3  4  2  3
  4  5  1  0
  5  6  1  0
  6  7  1  0
  7  8  2  0
  7  9  1  0
  9 10  1  0
 10 11  1  0
  3 12  1  0
 12 13  2  0
 13 14  1  0
 14 15  2  0
 14 16  1  0
 16 17  1  0
 17 18  1  0
 18 19  1  0
 19 20  1  0
 20 21  1  0
 20 22  2  0
 19 23  1  0
 23 24  1  0
 13 25  1  0
 25 26  1  0
 26 27  2  0
 26 28  1  0
 28 29  1  0
 29 30  2  0
 30 31  1  0
 31 32  2  0
 32 33  1  0
 32 34  1  0
 34 35  2  0
 25  2  1  0
 35 29  1  0
 10  5  2  0
 24 16  1  0
  1 36  1  0
  1 37  1  0
  4 38  1  0
 12 39  1  0
 17 40  1  0
 17 41  1  0
 18 42  1  0
 18 43  1  0
 21 44  1  0
 21 45  1  0
 21 46  1  0
 23 47  1  0
 23 48  1  0
 24 49  1  0
 24 50  1  0
 28 51  1  0
 30 52  1  0
 31 53  1  0
 34 54  1  0
 35 55  1  0
M  CHG  3   6  -1   9  -1  11  -1
M  END
>  <UniqueID>  (17) 
16

>  <SMILES>  (17) 
C=c1c(=Cc2[n-]c(=O)[n-]c2[O-])cc(C(=O)N2CCN(C(C)=O)CC2)n1C(=O)Nc1ccc(Cl)cc1

>  <Energy>  (17) 
139.2206558053891

>  <Genealogy>  (17) 
C=c1c(=Cc2[n-]c(=O)[n-]c2[O-])cc(C(=O)N2CCN(C(C)=O)CC2)n1C(=O)Nc1ccc(Cl)cc1 (protonated)
C=c1c(=Cc2[n-]c(=O)[n-]c2[O-])cc(C(=O)N2CCN(C(C)=O)CC2)n1C(=O)Nc1ccc(Cl)cc1 (3D coordinates assigned)
C=c1c(=Cc2[n-]c(=O)[n-]c2[O-])cc(C(=O)N2CCN(C(C)=O)CC2)n1C(=O)Nc1ccc(Cl)cc1 (nonaromatic ring conformer: 139.2206558053891 kcal/mol)

>  <smiles>  (17) 
C=c1c(=Cc2[nH]c(=O)[nH]c2O)cc(C(=O)N2CCN(C(C)=O)CC2)n1C(=O)Nc1ccc(Cl)cc1

>  <score_type>  (17) 
oracle

>  <origin>  (17) 
adg

>  <m_score__min__energy>  (17) 
-16.48

>  <m_primary>  (17) 
energy

$$$$
17:0
     RDKit          3D

 45 47  0  0  0  0  0  0  0  0999 V2000
   61.5330   33.8080   46.7160 C   0  0  0  0  0  0  0  0  0  0  0  0
   61.0660   32.4280   47.1680 C   0  0  0  0  0  0  0  0  0  0  0  0
   59.7760   32.0530   46.4900 C   0  0  0  0  0  0  0  0  0  0  0  0
   58.7710   33.0320   46.2780 C   0  0  0  0  0  0  0  0  0  0  0  0
   57.5730   32.6990   45.6210 C   0  0  0  0  0  0  0  0  0  0  0  0
   57.4160   31.3910   45.1730 C   0  0  0  0  0  0  0  0  0  0  0  0
   56.3840   30.8770   44.5480 O   0  0  0  0  0  0  0  0  0  0  0  0
   56.6500   29.6050   44.3090 C   0  0  0  0  0  0  0  0  0  0  0  0
   57.9170   29.2860   44.7880 C   0  0  0  0  0  0  0  0  0  0  0  0
   58.5680   27.9380   44.7740 C   0  0  0  0  0  0  0  0  0  0  0  0
   58.5950   27.3720   46.1560 C   0  0  0  0  0  0  0  0  0  0  0  0
   59.6230   27.5140   46.8710 O   0  0  0  0  0  0  0  0  0  0  0  0
   57.4480   26.6780   46.6570 N   0  0  0  0  0  0  0  0  0  0  0  0
   56.8960   25.4730   46.1000 C   0  0  0  0  0  0  0  0  0  0  0  0
   57.7460   24.4020   45.7650 C   0  0  0  0  0  0  0  0  0  0  0  0
   59.1620   24.5390   45.9950 N   0  0  0  0  0  0  0  0  0  0  0  0
   57.2150   23.2460   45.2300 N   0  0  0  0  0  0  0  0  0  0  0  0
   58.0670   22.0800   44.9190 C   0  0  0  0  0  0  0  0  0  0  0  0
   57.8380   21.6120   43.4830 C   0  0  0  0  0  0  0  0  0  0  0  0
   55.8680   23.1780   44.9630 C   0  0  0  0  0  0  0  0  0  0  0  0
   55.3660   22.1440   44.4430 O   0  0  0  0  0  0  0  0  0  0  0  0
   55.0520   24.2270   45.2470 N   0  0  0  0  0  0  0  0  0  0  0  0
   55.5340   25.3680   45.7950 C   0  0  0  0  0  0  0  0  0  0  0  0
   54.7530   26.3370   45.9950 O   0  0  0  0  0  0  0  0  0  0  0  0
   58.3910   30.4480   45.3550 C   0  0  0  0  0  0  0  0  0  0  0  0
   59.5860   30.7370   46.0110 C   0  0  0  0  0  0  0  0  0  0  0  0
   61.7438   34.4308   47.5979 H   0  0  0  0  0  0  0  0  0  0  0  0
   62.4468   33.7063   46.1121 H   0  0  0  0  0  0  0  0  0  0  0  0
   60.7453   34.2821   46.1121 H   0  0  0  0  0  0  0  0  0  0  0  0
   61.8365   31.6852   46.9138 H   0  0  0  0  0  0  0  0  0  0  0  0
   60.9000   32.4500   48.2552 H   0  0  0  0  0  0  0  0  0  0  0  0
   58.9305   34.0615   46.6310 H   0  0  0  0  0  0  0  0  0  0  0  0
   56.7841   33.4497   45.4660 H   0  0  0  0  0  0  0  0  0  0  0  0
   55.9701   28.9019   43.8056 H   0  0  0  0  0  0  0  0  0  0  0  0
   57.9993   27.2651   44.1154 H   0  0  0  0  0  0  0  0  0  0  0  0
   59.5988   28.0375   44.4033 H   0  0  0  0  0  0  0  0  0  0  0  0
   59.8640   23.8480   45.6570 H   0  0  0  0  0  0  0  0  0  0  0  0
   59.5520   25.3810   46.4730 H   0  0  0  0  0  0  0  0  0  0  0  0
   59.1232   22.3611   45.0431 H   0  0  0  0  0  0  0  0  0  0  0  0
   57.8076   21.2595   45.6041 H   0  0  0  0  0  0  0  0  0  0  0  0
   57.3545   20.6240   43.4921 H   0  0  0  0  0  0  0  0  0  0  0  0
   57.1905   22.3323   42.9615 H   0  0  0  0  0  0  0  0  0  0  0  0
   58.8040   21.5428   42.9615 H   0  0  0  0  0  0  0  0  0  0  0  0
   54.0330   24.1580   45.0240 H   0  0  0  0  0  0  0  0  0  0  0  0
   60.3571   29.9652   46.1516 H   0  0  0  0  0  0  0  0  0  0  0  0
  1  2  1  0
  2  3  1  0
  3  4  2  0
  4  5  1  0
  5  6  2  0
  6  7  1  0
  7  8  1  0
  8  9  2  0
  9 10  1  0
 10 11  1  0
 11 12  2  0
 11 13  1  0
 13 14  1  0
 14 15  2  0
 15 16  1  0
 15 17  1  0
 17 18  1  0
 18 19  1  0
 17 20  1  0
 20 21  2  0
 20 22  1  0
 22 23  1  0
 23 24  2  0
  9 25  1  0
 25 26  2  0
 26  3  1  0
 25  6  1  0
 23 14  1  0
  1 27  1  0
  1 28  1  0
  1 29  1  0
  2 30  1  0
  2 31  1  0
  4 32  1  0
  5 33  1  0
  8 34  1  0
 10 35  1  0
 10 36  1  0
 16 37  1  0
 16 38  1  0
 18 39  1  0
 18 40  1  0
 19 41  1  0
 19 42  1  0
 19 43  1  0
 22 44  1  0
 26 45  1  0
M  CHG  1  13  -1
M  END
>  <UniqueID>  (18) 
17

>  <SMILES>  (18) 
CCc1ccc2occ(CC(=O)[N-]c3c(N)n(CC)c(=O)[nH]c3=O)c2c1

>  <Energy>  (18) 
84.48960562498357

>  <Genealogy>  (18) 
CCc1ccc2occ(CC(=O)[N-]c3c(N)n(CC)c(=O)[nH]c3=O)c2c1 (protonated)
CCc1ccc2occ(CC(=O)[N-]c3c(N)n(CC)c(=O)[nH]c3=O)c2c1 (3D coordinates assigned)
CCc1ccc2occ(CC(=O)[N-]c3c(N)n(CC)c(=O)[nH]c3=O)c2c1 (optimized conformer: 84.48960562498357 kcal/mol)

>  <smiles>  (18) 
CCc1ccc2occ(CC(=O)Nc3c(N)n(CC)c(=O)[nH]c3=O)c2c1

>  <score_type>  (18) 
oracle

>  <origin>  (18) 
adg

>  <m_score__min__energy>  (18) 
-9.6300000000000008

>  <m_primary>  (18) 
energy

$$$$
18:0
     RDKit          3D

 33 35  0  0  0  0  0  0  0  0999 V2000
   56.6460   30.4910   42.5960 C   0  0  0  0  0  0  0  0  0  0  0  0
   57.1850   30.2300   43.9370 N   0  0  0  0  0  0  0  0  0  0  0  0
   56.9540   29.0180   44.5290 C   0  0  0  0  0  0  0  0  0  0  0  0
   57.4540   28.7370   45.8100 C   0  0  0  0  0  0  0  0  0  0  0  0
   57.2370   27.4720   46.4520 N   0  0  0  0  0  0  0  0  0  0  0  0
   56.3870   26.4170   45.9810 C   0  0  0  0  0  0  0  0  0  0  0  0
   55.1410   26.5970   45.9890 O   0  0  0  0  0  0  0  0  0  0  0  0
   56.9260   25.1190   45.5150 C   0  0  0  0  0  0  0  0  0  0  0  0
   56.2330   24.4090   44.5080 C   0  0  0  0  0  0  0  0  0  0  0  0
   56.7690   23.2060   44.0630 C   0  0  0  0  0  0  0  0  0  0  0  0
   56.3250   22.3280   43.0990 C   0  0  0  0  0  0  0  0  0  0  0  0
   57.2650   21.3030   43.0800 C   0  0  0  0  0  0  0  0  0  0  0  0
   58.2430   21.5330   43.9850 N   0  0  0  0  0  0  0  0  0  0  0  0
   57.9300   22.6970   44.5760 C   0  0  0  0  0  0  0  0  0  0  0  0
   58.6340   23.3520   45.5820 C   0  0  0  0  0  0  0  0  0  0  0  0
   58.1220   24.5730   46.0670 C   0  0  0  0  0  0  0  0  0  0  0  0
   58.7820   25.2310   47.1040 O   0  0  0  0  0  0  0  0  0  0  0  0
   58.1440   29.7350   46.4970 C   0  0  0  0  0  0  0  0  0  0  0  0
   58.3610   30.9760   45.8980 C   0  0  0  0  0  0  0  0  0  0  0  0
   59.2420   32.2180   46.7760 Cl  0  0  0  0  0  0  0  0  0  0  0  0
   57.8710   31.2120   44.6060 C   0  0  0  0  0  0  0  0  0  0  0  0
   58.0640   32.3360   44.0660 O   0  0  0  0  0  0  0  0  0  0  0  0
   55.6591   30.9689   42.6841 H   0  0  0  0  0  0  0  0  0  0  0  0
   57.3290   31.1582   42.0498 H   0  0  0  0  0  0  0  0  0  0  0  0
   56.5461   29.5415   42.0498 H   0  0  0  0  0  0  0  0  0  0  0  0
   56.3694   28.2548   43.9944 H   0  0  0  0  0  0  0  0  0  0  0  0
   55.2941   24.7983   44.0875 H   0  0  0  0  0  0  0  0  0  0  0  0
   55.4216   22.4181   42.4779 H   0  0  0  0  0  0  0  0  0  0  0  0
   57.2191   20.4250   42.4189 H   0  0  0  0  0  0  0  0  0  0  0  0
   59.0710   20.9270   44.1800 H   0  0  0  0  0  0  0  0  0  0  0  0
   59.5647   22.9287   45.9878 H   0  0  0  0  0  0  0  0  0  0  0  0
   58.5670   26.1900   47.3480 H   0  0  0  0  0  0  0  0  0  0  0  0
   58.5181   29.5434   47.5135 H   0  0  0  0  0  0  0  0  0  0  0  0
  1  2  1  0
  2  3  1  0
  3  4  2  0
  4  5  1  0
  5  6  1  0
  6  7  2  0
  6  8  1  0
  8  9  2  0
  9 10  1  0
 10 11  1  0
 11 12  2  0
 12 13  1  0
 13 14  1  0
 14 15  1  0
 15 16  2  0
 16 17  1  0
  4 18  1  0
 18 19  2  0
 19 20  1  0
 19 21  1  0
 21 22  2  0
 21  2  1  0
 16  8  1  0
 14 10  2  0
  1 23  1  0
  1 24  1  0
  1 25  1  0
  3 26  1  0
  9 27  1  0
 11 28  1  0
 12 29  1  0
 13 30  1  0
 15 31  1  0
 17 32  1  0
 18 33  1  0
M  CHG  1   5  -1
M  END
>  <UniqueID>  (19) 
18

>  <SMILES>  (19) 
Cn1cc([N-]C(=O)c2cc3cc[nH]c3cc2O)cc(Cl)c1=O

>  <Energy>  (19) 
77.98748038644756

>  <Genealogy>  (19) 
Cn1cc([N-]C(=O)c2cc3cc[nH]c3cc2O)cc(Cl)c1=O (protonated)
Cn1cc([N-]C(=O)c2cc3cc[nH]c3cc2O)cc(Cl)c1=O (3D coordinates assigned)
Cn1cc([N-]C(=O)c2cc3cc[nH]c3cc2O)cc(Cl)c1=O (optimized conformer: 77.98748038644756 kcal/mol)

>  <smiles>  (19) 
Cn1cc(NC(=O)c2cc3cc[nH]c3cc2O)cc(Cl)c1=O

>  <score_type>  (19) 
oracle

>  <origin>  (19) 
adg

>  <m_score__min__energy>  (19) 
-9.5399999999999991

>  <m_primary>  (19) 
energy

$$$$
19:0
     RDKit          3D

 59 62  0  0  0  0  0  0  0  0999 V2000
   58.4050   19.0840   47.7400 C   0  0  0  0  0  0  0  0  0  0  0  0
   57.7140   20.2040   47.0330 C   0  0  0  0  0  0  0  0  0  0  0  0
   57.3470   21.2140   47.6920 O   0  0  0  0  0  0  0  0  0  0  0  0
   57.3840   20.0770   45.6410 N   0  0  0  0  0  0  0  0  0  0  0  0
   56.8930   21.1530   44.8260 C   0  0  0  0  0  0  0  0  0  0  0  0
   57.4400   21.3520   43.5490 C   0  0  0  0  0  0  0  0  0  0  0  0
   56.9820   22.3920   42.7360 C   0  0  0  0  0  0  0  0  0  0  0  0
   55.9850   23.2540   43.1960 C   0  0  0  0  0  0  0  0  0  0  0  0
   55.4510   23.1000   44.4870 C   0  0  0  0  0  0  0  0  0  0  0  0
   54.3950   24.0120   44.9850 C   0  0  0  0  0  0  0  0  0  0  0  0
   53.2530   23.9840   44.4530 O   0  0  0  0  0  0  0  0  0  0  0  0
   54.6450   24.9740   46.0190 N   0  0  0  0  0  0  0  0  0  0  0  0
   55.8890   25.6410   46.2730 C   0  0  0  0  0  0  0  0  0  0  0  0
   56.1830   26.8970   45.7130 C   0  0  0  0  0  0  0  0  0  0  0  0
   57.4170   27.5060   45.9590 C   0  0  0  0  0  0  0  0  0  0  0  0
   58.3780   26.8620   46.7490 C   0  0  0  0  0  0  0  0  0  0  0  0
   59.9510   27.6140   47.0250 S   0  0  0  0  0  0  0  0  0  0  0  0
   60.8150   26.6760   47.8210 O   0  0  0  0  0  0  0  0  0  0  0  0
   60.6230   27.8550   45.7020 O   0  0  0  0  0  0  0  0  0  0  0  0
   59.8000   29.1280   47.8880 N   0  0  0  0  0  0  0  0  0  0  0  0
   59.1200   30.1600   47.0710 C   0  0  0  0  0  0  0  0  0  0  0  0
   60.1020   31.1740   46.4580 C   0  0  0  0  0  0  0  0  0  0  0  0
   60.9340   31.8540   47.4860 N   0  0  0  0  0  0  0  0  0  0  0  0
   60.4330   33.2050   47.8080 C   0  0  0  0  0  0  0  0  0  0  0  0
   59.4270   33.6420   46.7880 C   0  0  0  0  0  0  0  0  0  0  0  0
   59.6980   34.3390   45.6170 C   0  0  0  0  0  0  0  0  0  0  0  0
   58.5490   34.6330   44.8740 C   0  0  0  0  0  0  0  0  0  0  0  0
   57.3760   34.1710   45.4560 C   0  0  0  0  0  0  0  0  0  0  0  0
   57.7670   33.3990   46.8990 S   0  0  0  0  0  0  0  0  0  0  0  0
   61.1140   31.0560   48.7220 C   0  0  0  0  0  0  0  0  0  0  0  0
   61.1120   29.5550   48.4190 C   0  0  0  0  0  0  0  0  0  0  0  0
   58.0900   25.6050   47.2980 C   0  0  0  0  0  0  0  0  0  0  0  0
   56.8560   24.9960   47.0530 C   0  0  0  0  0  0  0  0  0  0  0  0
   55.9090   22.0440   45.2950 C   0  0  0  0  0  0  0  0  0  0  0  0
   58.3169   19.2268   48.8271 H   0  0  0  0  0  0  0  0  0  0  0  0
   57.9391   18.1287   47.4567 H   0  0  0  0  0  0  0  0  0  0  0  0
   59.4678   19.0718   47.4567 H   0  0  0  0  0  0  0  0  0  0  0  0
   57.4260   19.1210   45.2190 H   0  0  0  0  0  0  0  0  0  0  0  0
   58.2351   20.6844   43.1855 H   0  0  0  0  0  0  0  0  0  0  0  0
   57.4079   22.5318   41.7315 H   0  0  0  0  0  0  0  0  0  0  0  0
   55.6149   24.0589   42.5440 H   0  0  0  0  0  0  0  0  0  0  0  0
   55.4393   27.4021   45.0791 H   0  0  0  0  0  0  0  0  0  0  0  0
   57.6344   28.4954   45.5303 H   0  0  0  0  0  0  0  0  0  0  0  0
   58.5750   29.6610   46.2561 H   0  0  0  0  0  0  0  0  0  0  0  0
   58.4405   30.7148   47.7347 H   0  0  0  0  0  0  0  0  0  0  0  0
   60.7669   30.6437   45.7604 H   0  0  0  0  0  0  0  0  0  0  0  0
   59.5090   31.9451   45.9444 H   0  0  0  0  0  0  0  0  0  0  0  0
   59.9601   33.1897   48.8010 H   0  0  0  0  0  0  0  0  0  0  0  0
   61.2770   33.9105   47.8039 H   0  0  0  0  0  0  0  0  0  0  0  0
   60.7121   34.6300   45.3057 H   0  0  0  0  0  0  0  0  0  0  0  0
   58.5729   35.1786   43.9191 H   0  0  0  0  0  0  0  0  0  0  0  0
   56.3631   34.2896   45.0437 H   0  0  0  0  0  0  0  0  0  0  0  0
   62.0735   31.3266   49.1870 H   0  0  0  0  0  0  0  0  0  0  0  0
   60.2774   31.2746   49.4019 H   0  0  0  0  0  0  0  0  0  0  0  0
   61.8910   29.3366   47.6737 H   0  0  0  0  0  0  0  0  0  0  0  0
   61.3099   29.0069   49.3519 H   0  0  0  0  0  0  0  0  0  0  0  0
   58.8377   25.0959   47.9239 H   0  0  0  0  0  0  0  0  0  0  0  0
   56.6433   24.0031   47.4760 H   0  0  0  0  0  0  0  0  0  0  0  0
   55.4936   21.9127   46.3051 H   0  0  0  0  0  0  0  0  0  0  0  0
  1  2  1  0
  2  3  2  0
  2  4  1  0
  4  5  1  0
  5  6  2  0
  6  7  1  0
  7  8  2  0
  8  9  1  0
  9 10  1  0
 10 11  2  0
 10 12  1  0
 12 13  1  0
 13 14  2  0
 14 15  1  0
 15 16  2  0
 16 17  1  0
 17 18  2  0
 17 19  2  0
 17 20  1  0
 20 21  1  0
 21 22  1  0
 22 23  1  0
 23 24  1  0
 24 25  1  0
 25 26  2  0
 26 27  1  0
 27 28  2  0
 28 29  1  0
 23 30  1  0
 30 31  1  0
 16 32  1  0
 32 33  2  0
  9 34  2  0
 34  5  1  0
 33 13  1  0
 31 20  1  0
 29 25  1  0
  1 35  1  0
  1 36  1  0
  1 37  1  0
  4 38  1  0
  6 39  1  0
  7 40  1  0
  8 41  1  0
 14 42  1  0
 15 43  1  0
 21 44  1  0
 21 45  1  0
 22 46  1  0
 22 47  1  0
 24 48  1  0
 24 49  1  0
 26 50  1  0
 27 51  1  0
 28 52  1  0
 30 53  1  0
 30 54  1  0
 31 55  1  0
 31 56  1  0
 32 57  1  0
 33 58  1  0
 34 59  1  0
M  CHG  1  12  -1
M  END
>  <UniqueID>  (20) 
19

>  <SMILES>  (20) 
CC(=O)Nc1cccc(C(=O)[N-]c2ccc(S(=O)(=O)N3CCN(Cc4cccs4)CC3)cc2)c1

>  <Energy>  (20) 
105.94170747919067

>  <Genealogy>  (20) 
CC(=O)Nc1cccc(C(=O)[N-]c2ccc(S(=O)(=O)N3CCN(Cc4cccs4)CC3)cc2)c1 (protonated)
CC(=O)Nc1cccc(C(=O)[N-]c2ccc(S(=O)(=O)N3CCN(Cc4cccs4)CC3)cc2)c1 (3D coordinates assigned)
CC(=O)Nc1cccc(C(=O)[N-]c2ccc(S(=O)(=O)N3CCN(Cc4cccs4)CC3)cc2)c1 (nonaromatic ring conformer: 105.94170747919067 kcal/mol)

>  <smiles>  (20) 
CC(=O)Nc1cccc(C(=O)Nc2ccc(S(=O)(=O)N3CCN(Cc4cccs4)CC3)cc2)c1

>  <score_type>  (20) 
oracle

>  <origin>  (20) 
adg

>  <m_score__min__energy>  (20) 
-11.98

>  <m_primary>  (20) 
energy

$$$$
20:0
     RDKit          3D

 42 44  0  0  0  0  0  0  0  0999 V2000
   57.5360   32.6200   44.4440 C   0  0  0  0  0  0  0  0  0  0  0  0
   58.5320   33.4020   45.0930 O   0  0  0  0  0  0  0  0  0  0  0  0
   58.8060   33.3530   46.4680 C   0  0  0  0  0  0  0  0  0  0  0  0
   59.1300   34.5010   47.2150 C   0  0  0  0  0  0  0  0  0  0  0  0
   59.3910   34.4000   48.5840 C   0  0  0  0  0  0  0  0  0  0  0  0
   59.3320   33.1550   49.2290 C   0  0  0  0  0  0  0  0  0  0  0  0
   59.5430   33.0550   50.7150 C   0  0  0  0  0  0  0  0  0  0  0  0
   58.0690   32.4260   51.5120 S   0  0  0  0  0  0  0  0  0  0  0  0
   57.4900   33.5160   52.3690 O   0  0  0  0  0  0  0  0  0  0  0  0
   57.0470   32.0370   50.4820 O   0  0  0  0  0  0  0  0  0  0  0  0
   58.4540   31.0410   52.5340 C   0  0  0  0  0  0  0  0  0  0  0  0
   60.0140   30.7060   53.0720 S   0  0  0  0  0  0  0  0  0  0  0  0
   59.5660   29.2420   53.7540 C   0  0  0  0  0  0  0  0  0  0  0  0
   60.5920   28.2270   54.5160 S   0  0  0  0  0  0  0  0  0  0  0  0
   58.2560   28.9770   53.5750 N   0  0  0  0  0  0  0  0  0  0  0  0
   57.6180   29.9720   52.8980 C   0  0  0  0  0  0  0  0  0  0  0  0
   56.1820   29.8580   52.5720 C   0  0  0  0  0  0  0  0  0  0  0  0
   55.6620   28.7260   52.3880 O   0  0  0  0  0  0  0  0  0  0  0  0
   55.3840   31.0440   52.4160 N   0  0  0  0  0  0  0  0  0  0  0  0
   53.9470   31.0530   52.4830 C   0  0  0  0  0  0  0  0  0  0  0  0
   53.2920   30.1630   53.3480 C   0  0  0  0  0  0  0  0  0  0  0  0
   51.8960   30.1360   53.4130 C   0  0  0  0  0  0  0  0  0  0  0  0
   51.1410   30.9870   52.6010 C   0  0  0  0  0  0  0  0  0  0  0  0
   51.7820   31.8610   51.7180 C   0  0  0  0  0  0  0  0  0  0  0  0
   51.0300   32.6950   50.8990 O   0  0  0  0  0  0  0  0  0  0  0  0
   53.1780   31.8920   51.6530 C   0  0  0  0  0  0  0  0  0  0  0  0
   59.0070   32.0120   48.4840 C   0  0  0  0  0  0  0  0  0  0  0  0
   58.7490   32.1120   47.1140 C   0  0  0  0  0  0  0  0  0  0  0  0
   56.9073   32.1264   45.1997 H   0  0  0  0  0  0  0  0  0  0  0  0
   56.9107   33.2710   43.8153 H   0  0  0  0  0  0  0  0  0  0  0  0
   58.0200   31.8581   43.8153 H   0  0  0  0  0  0  0  0  0  0  0  0
   59.1780   35.4817   46.7191 H   0  0  0  0  0  0  0  0  0  0  0  0
   59.6444   35.3023   49.1599 H   0  0  0  0  0  0  0  0  0  0  0  0
   60.3831   32.3743   50.9170 H   0  0  0  0  0  0  0  0  0  0  0  0
   59.7647   34.0564   51.1127 H   0  0  0  0  0  0  0  0  0  0  0  0
   55.8670   31.9440   52.1970 H   0  0  0  0  0  0  0  0  0  0  0  0
   53.8814   29.4818   53.9794 H   0  0  0  0  0  0  0  0  0  0  0  0
   51.3912   29.4445   54.1037 H   0  0  0  0  0  0  0  0  0  0  0  0
   50.0426   30.9691   52.6567 H   0  0  0  0  0  0  0  0  0  0  0  0
   53.6783   32.5747   50.9505 H   0  0  0  0  0  0  0  0  0  0  0  0
   58.9549   31.0318   48.9805 H   0  0  0  0  0  0  0  0  0  0  0  0
   58.4991   31.2084   46.5386 H   0  0  0  0  0  0  0  0  0  0  0  0
  1  2  1  0
  2  3  1  0
  3  4  2  0
  4  5  1  0
  5  6  2  0
  6  7  1  0
  7  8  1  0
  8  9  2  0
  8 10  2  0
  8 11  1  0
 11 12  1  0
 12 13  1  0
 13 14  2  0
 13 15  1  0
 15 16  1  0
 16 17  1  0
 17 18  2  0
 17 19  1  0
 19 20  1  0
 20 21  2  0
 21 22  1  0
 22 23  2  0
 23 24  1  0
 24 25  1  0
 24 26  2  0
  6 27  1  0
 27 28  2  0
 28  3  1  0
 16 11  2  0
 26 20  1  0
  1 29  1  0
  1 30  1  0
  1 31  1  0
  4 32  1  0
  5 33  1  0
  7 34  1  0
  7 35  1  0
 19 36  1  0
 21 37  1  0
 22 38  1  0
 23 39  1  0
 26 40  1  0
 27 41  1  0
 28 42  1  0
M  CHG  2  15  -1  25  -1
M  END
>  <UniqueID>  (21) 
20

>  <SMILES>  (21) 
COc1ccc(CS(=O)(=O)c2sc(=S)[n-]c2C(=O)Nc2cccc([O-])c2)cc1

>  <Energy>  (21) 
73.95445527801455

>  <Genealogy>  (21) 
COc1ccc(CS(=O)(=O)c2sc(=S)[n-]c2C(=O)Nc2cccc([O-])c2)cc1 (protonated)
COc1ccc(CS(=O)(=O)c2sc(=S)[n-]c2C(=O)Nc2cccc([O-])c2)cc1 (3D coordinates assigned)
COc1ccc(CS(=O)(=O)c2sc(=S)[n-]c2C(=O)Nc2cccc([O-])c2)cc1 (optimized conformer: 73.95445527801455 kcal/mol)

>  <smiles>  (21) 
COc1ccc(CS(=O)(=O)c2sc(=S)[nH]c2C(=O)Nc2cccc(O)c2)cc1

>  <score_type>  (21) 
oracle

>  <origin>  (21) 
adg

>  <m_score__min__energy>  (21) 
-11.91

>  <m_primary>  (21) 
energy

$$$$
21:0
     RDKit          3D

 36 38  0  0  0  0  0  0  0  0999 V2000
   56.7990   23.7540   46.8130 C   0  0  0  0  0  0  0  0  0  0  0  0
   57.2600   25.1470   46.4970 C   0  0  0  0  0  0  0  0  0  0  0  0
   58.5870   25.5270   46.7570 C   0  0  0  0  0  0  0  0  0  0  0  0
   59.0130   26.8320   46.4980 C   0  0  0  0  0  0  0  0  0  0  0  0
   58.1120   27.7770   45.9880 C   0  0  0  0  0  0  0  0  0  0  0  0
   58.5140   29.0870   45.7100 C   0  0  0  0  0  0  0  0  0  0  0  0
   57.5990   30.0070   45.1740 C   0  0  0  0  0  0  0  0  0  0  0  0
   58.0760   31.3900   44.7960 C   0  0  0  0  0  0  0  0  0  0  0  0
   57.0060   32.3870   44.9670 N   0  0  0  0  0  0  0  0  0  0  0  0
   57.5280   33.7520   45.1440 C   0  0  0  0  0  0  0  0  0  0  0  0
   58.3360   33.8480   46.4040 C   0  0  0  0  0  0  0  0  0  0  0  0
   59.2570   34.8340   46.6960 C   0  0  0  0  0  0  0  0  0  0  0  0
   59.7930   34.5080   47.9260 C   0  0  0  0  0  0  0  0  0  0  0  0
   59.1700   33.3440   48.3320 C   0  0  0  0  0  0  0  0  0  0  0  0
   58.2800   32.9490   47.4050 N   0  0  0  0  0  0  0  0  0  0  0  0
   56.2690   29.5930   44.9560 C   0  0  0  0  0  0  0  0  0  0  0  0
   55.4160   30.3870   44.4820 O   0  0  0  0  0  0  0  0  0  0  0  0
   55.8990   28.3160   45.2430 N   0  0  0  0  0  0  0  0  0  0  0  0
   56.7750   27.4040   45.7410 C   0  0  0  0  0  0  0  0  0  0  0  0
   56.3520   26.0960   46.0030 C   0  0  0  0  0  0  0  0  0  0  0  0
   56.7550   23.6210   47.9040 H   0  0  0  0  0  0  0  0  0  0  0  0
   55.7994   23.5922   46.3833 H   0  0  0  0  0  0  0  0  0  0  0  0
   57.5047   23.0279   46.3833 H   0  0  0  0  0  0  0  0  0  0  0  0
   59.2954   24.7922   47.1672 H   0  0  0  0  0  0  0  0  0  0  0  0
   60.0567   27.1183   46.6945 H   0  0  0  0  0  0  0  0  0  0  0  0
   59.5498   29.3975   45.9118 H   0  0  0  0  0  0  0  0  0  0  0  0
   58.9272   31.6636   45.4367 H   0  0  0  0  0  0  0  0  0  0  0  0
   58.3755   31.3782   43.7376 H   0  0  0  0  0  0  0  0  0  0  0  0
   56.4370   32.3800   44.0890 H   0  0  0  0  0  0  0  0  0  0  0  0
   58.1652   34.0097   44.2852 H   0  0  0  0  0  0  0  0  0  0  0  0
   56.6806   34.4501   45.2116 H   0  0  0  0  0  0  0  0  0  0  0  0
   59.5125   35.7044   46.0738 H   0  0  0  0  0  0  0  0  0  0  0  0
   60.5654   35.0663   48.4753 H   0  0  0  0  0  0  0  0  0  0  0  0
   59.3725   32.8171   49.2761 H   0  0  0  0  0  0  0  0  0  0  0  0
   57.6790   32.0970   47.4470 H   0  0  0  0  0  0  0  0  0  0  0  0
   55.3052   25.8111   45.8212 H   0  0  0  0  0  0  0  0  0  0  0  0
  1  2  1  0
  2  3  2  0
  3  4  1  0
  4  5  2  0
  5  6  1  0
  6  7  2  0
  7  8  1  0
  8  9  1  0
  9 10  1  0
 10 11  1  0
 11 12  2  0
 12 13  1  0
 13 14  2  0
 14 15  1  0
  7 16  1  0
 16 17  2  0
 16 18  1  0
 18 19  1  0
 19 20  2  0
 20  2  1  0
 19  5  1  0
 15 11  1  0
  1 21  1  0
  1 22  1  0
  1 23  1  0
  3 24  1  0
  4 25  1  0
  6 26  1  0
  8 27  1  0
  8 28  1  0
  9 29  1  0
 10 30  1  0
 10 31  1  0
 12 32  1  0
 13 33  1  0
 14 34  1  0
 15 35  1  0
 20 36  1  0
M  CHG  1  18  -1
M  END
>  <UniqueID>  (22) 
21

>  <SMILES>  (22) 
Cc1ccc2cc(CNCc3ccc[nH]3)c(=O)[n-]c2c1

>  <Energy>  (22) 
62.93230219816845

>  <Genealogy>  (22) 
Cc1ccc2cc(CNCc3ccc[nH]3)c(=O)[n-]c2c1 (protonated)
Cc1ccc2cc(CNCc3ccc[nH]3)c(=O)[n-]c2c1 (3D coordinates assigned)
Cc1ccc2cc(CNCc3ccc[nH]3)c(=O)[n-]c2c1 (optimized conformer: 62.93230219816845 kcal/mol)

>  <smiles>  (22) 
Cc1ccc2cc(CNCc3ccc[nH]3)c(=O)[nH]c2c1

>  <score_type>  (22) 
oracle

>  <origin>  (22) 
adg

>  <m_score__min__energy>  (22) 
-9.4299999999999997

>  <m_primary>  (22) 
energy

$$$$
22:0
     RDKit          3D

 67 71  0  0  0  0  0  0  0  0999 V2000
   56.3210   28.7970   45.2400 O   0  0  0  0  0  0  0  0  0  0  0  0
   57.4770   28.3080   45.1150 C   0  0  0  0  0  0  0  0  0  0  0  0
   57.6500   26.9460   44.5150 C   0  0  0  0  0  0  0  0  0  0  0  0
   57.2550   25.8750   45.4850 C   0  0  0  0  0  0  0  0  0  0  0  0
   58.1940   24.5330   45.8830 S   0  0  0  0  0  0  0  0  0  0  0  0
   57.0020   23.8940   46.8830 C   0  0  0  0  0  0  0  0  0  0  0  0
   57.1150   22.8150   47.5230 O   0  0  0  0  0  0  0  0  0  0  0  0
   55.8910   24.6610   46.9270 N   0  0  0  0  0  0  0  0  0  0  0  0
   56.0310   25.7650   46.1430 C   0  0  0  0  0  0  0  0  0  0  0  0
   55.0160   26.7100   46.0130 O   0  0  0  0  0  0  0  0  0  0  0  0
   58.6360   29.0420   45.5340 N   0  0  0  0  0  0  0  0  0  0  0  0
   59.0300   29.3360   46.8830 C   0  0  0  0  0  0  0  0  0  0  0  0
   59.7060   28.3510   47.6080 C   0  0  0  0  0  0  0  0  0  0  0  0
   60.1450   28.6040   48.9080 C   0  0  0  0  0  0  0  0  0  0  0  0
   59.9340   29.8540   49.5000 C   0  0  0  0  0  0  0  0  0  0  0  0
   60.4530   30.0700   50.8220 N   0  0  0  0  0  0  0  0  0  0  0  0
   61.6930   30.7140   51.1490 C   0  0  0  0  0  0  0  0  0  0  0  0
   61.8950   31.0700   52.3400 O   0  0  0  0  0  0  0  0  0  0  0  0
   62.7650   30.9550   50.1200 C   0  0  0  0  0  0  0  0  0  0  0  0
   62.3180   31.9920   49.1270 C   0  0  0  0  0  0  0  0  0  0  0  0
   62.1840   31.6670   47.7690 C   0  0  0  0  0  0  0  0  0  0  0  0
   61.7550   32.6280   46.8490 C   0  0  0  0  0  0  0  0  0  0  0  0
   61.4390   33.9290   47.2810 C   0  0  0  0  0  0  0  0  0  0  0  0
   61.0050   34.9350   46.4020 O   0  0  0  0  0  0  0  0  0  0  0  0
   59.6490   35.3530   46.2300 C   0  0  0  0  0  0  0  0  0  0  0  0
   58.8340   34.2860   45.5500 C   0  0  0  0  0  0  0  0  0  0  0  0
   57.6790   33.7730   46.1660 C   0  0  0  0  0  0  0  0  0  0  0  0
   56.9110   32.7990   45.5230 C   0  0  0  0  0  0  0  0  0  0  0  0
   57.2810   32.3380   44.2570 C   0  0  0  0  0  0  0  0  0  0  0  0
   58.4190   32.8550   43.6300 C   0  0  0  0  0  0  0  0  0  0  0  0
   59.1900   33.8280   44.2700 C   0  0  0  0  0  0  0  0  0  0  0  0
   61.5580   34.2460   48.6390 C   0  0  0  0  0  0  0  0  0  0  0  0
   61.9910   33.2860   49.5580 C   0  0  0  0  0  0  0  0  0  0  0  0
   59.2140   30.8500   48.7930 C   0  0  0  0  0  0  0  0  0  0  0  0
   58.8640   32.1580   49.4000 C   0  0  0  0  0  0  0  0  0  0  0  0
   58.7600   33.1640   48.6460 O   0  0  0  0  0  0  0  0  0  0  0  0
   58.6110   32.3140   50.8540 C   0  0  0  0  0  0  0  0  0  0  0  0
   57.7270   31.4400   51.5130 C   0  0  0  0  0  0  0  0  0  0  0  0
   57.4690   31.5910   52.8790 C   0  0  0  0  0  0  0  0  0  0  0  0
   58.0960   32.6080   53.6030 C   0  0  0  0  0  0  0  0  0  0  0  0
   58.9870   33.4730   52.9620 C   0  0  0  0  0  0  0  0  0  0  0  0
   59.2490   33.3260   51.5960 C   0  0  0  0  0  0  0  0  0  0  0  0
   58.8040   30.5910   47.4740 C   0  0  0  0  0  0  0  0  0  0  0  0
   57.0205   26.8667   43.6164 H   0  0  0  0  0  0  0  0  0  0  0  0
   58.7107   26.8100   44.2574 H   0  0  0  0  0  0  0  0  0  0  0  0
   55.1450   27.5300   45.4330 H   0  0  0  0  0  0  0  0  0  0  0  0
   59.8935   27.3685   47.1502 H   0  0  0  0  0  0  0  0  0  0  0  0
   60.6616   27.8137   49.4725 H   0  0  0  0  0  0  0  0  0  0  0  0
   63.6779   31.3057   50.6236 H   0  0  0  0  0  0  0  0  0  0  0  0
   62.9641   30.0139   49.5864 H   0  0  0  0  0  0  0  0  0  0  0  0
   62.4182   30.6486   47.4256 H   0  0  0  0  0  0  0  0  0  0  0  0
   61.6643   32.3663   45.7844 H   0  0  0  0  0  0  0  0  0  0  0  0
   59.2109   35.5654   47.2164 H   0  0  0  0  0  0  0  0  0  0  0  0
   59.6391   36.2544   45.5996 H   0  0  0  0  0  0  0  0  0  0  0  0
   57.3787   34.1401   47.1585 H   0  0  0  0  0  0  0  0  0  0  0  0
   56.0137   32.3945   46.0142 H   0  0  0  0  0  0  0  0  0  0  0  0
   56.6772   31.5685   43.7536 H   0  0  0  0  0  0  0  0  0  0  0  0
   58.7073   32.4949   42.6314 H   0  0  0  0  0  0  0  0  0  0  0  0
   60.0799   34.2377   43.7698 H   0  0  0  0  0  0  0  0  0  0  0  0
   61.3086   35.2596   48.9861 H   0  0  0  0  0  0  0  0  0  0  0  0
   62.0756   33.5464   50.6234 H   0  0  0  0  0  0  0  0  0  0  0  0
   57.2357   30.6327   50.9500 H   0  0  0  0  0  0  0  0  0  0  0  0
   56.7709   30.9076   53.3845 H   0  0  0  0  0  0  0  0  0  0  0  0
   57.8886   32.7278   54.6766 H   0  0  0  0  0  0  0  0  0  0  0  0
   59.4834   34.2714   53.5331 H   0  0  0  0  0  0  0  0  0  0  0  0
   59.9574   34.0049   51.0988 H   0  0  0  0  0  0  0  0  0  0  0  0
   58.3000   31.3803   46.8970 H   0  0  0  0  0  0  0  0  0  0  0  0
  1  2  2  0
  2  3  1  0
  3  4  1  0
  4  5  1  0
  5  6  1  0
  6  7  2  0
  6  8  1  0
  8  9  1  0
  9 10  1  0
  2 11  1  0
 11 12  1  0
 12 13  2  0
 13 14  1  0
 14 15  2  0
 15 16  1  0
 16 17  1  0
 17 18  2  0
 17 19  1  0
 19 20  1  0
 20 21  2  0
 21 22  1  0
 22 23  2  0
 23 24  1  0
 24 25  1  0
 25 26  1  0
 26 27  2  0
 27 28  1  0
 28 29  2  0
 29 30  1  0
 30 31  2  0
 23 32  1  0
 32 33  2  0
 15 34  1  0
 34 35  1  0
 35 36  2  0
 35 37  1  0
 37 38  2  0
 38 39  1  0
 39 40  2  0
 40 41  1  0
 41 42  2  0
 34 43  2  0
  9  4  2  0
 43 12  1  0
 33 20  1  0
 42 37  1  0
 31 26  1  0
  3 44  1  0
  3 45  1  0
 10 46  1  0
 13 47  1  0
 14 48  1  0
 19 49  1  0
 19 50  1  0
 21 51  1  0
 22 52  1  0
 25 53  1  0
 25 54  1  0
 27 55  1  0
 28 56  1  0
 29 57  1  0
 30 58  1  0
 31 59  1  0
 32 60  1  0
 33 61  1  0
 38 62  1  0
 39 63  1  0
 40 64  1  0
 41 65  1  0
 42 66  1  0
 43 67  1  0
M  CHG  3   8  -1  11  -1  16  -1
M  END
>  <UniqueID>  (23) 
22

>  <SMILES>  (23) 
O=C(Cc1sc(=O)[n-]c1O)[N-]c1ccc([N-]C(=O)Cc2ccc(OCc3ccccc3)cc2)c(C(=O)c2ccccc2)c1

>  <Energy>  (23) 
117.43713324748322

>  <Genealogy>  (23) 
O=C(Cc1sc(=O)[n-]c1O)[N-]c1ccc([N-]C(=O)Cc2ccc(OCc3ccccc3)cc2)c(C(=O)c2ccccc2)c1 (protonated)
O=C(Cc1sc(=O)[n-]c1O)[N-]c1ccc([N-]C(=O)Cc2ccc(OCc3ccccc3)cc2)c(C(=O)c2ccccc2)c1 (3D coordinates assigned)
O=C(Cc1sc(=O)[n-]c1O)[N-]c1ccc([N-]C(=O)Cc2ccc(OCc3ccccc3)cc2)c(C(=O)c2ccccc2)c1 (optimized conformer: 117.43713324748322 kcal/mol)

>  <smiles>  (23) 
O=C(Cc1sc(=O)[nH]c1O)Nc1ccc(NC(=O)Cc2ccc(OCc3ccccc3)cc2)c(C(=O)c2ccccc2)c1

>  <score_type>  (23) 
oracle

>  <origin>  (23) 
adg

>  <m_score__min__energy>  (23) 
-16.109999999999999

>  <m_primary>  (23) 
energy

$$$$
23:0
     RDKit          3D

 42 44  0  0  0  0  0  0  0  0999 V2000
   54.8539   27.2200   53.4470 H   0  0  0  0  0  0  0  0  0  0  0  0
   54.1280   27.9610   53.0810 C   0  0  0  0  0  0  0  0  0  0  0  0
   53.0803   27.6695   52.9156 H   0  0  0  0  0  0  0  0  0  0  0  0
   54.5210   29.2220   52.8360 C   0  0  0  0  0  0  0  0  0  0  0  0
   53.7230   30.2790   52.3690 C   0  0  0  0  0  0  0  0  0  0  0  0
   52.3880   30.3860   52.2250 C   0  0  0  0  0  0  0  0  0  0  0  0
   51.7684   30.1468   53.1019 H   0  0  0  0  0  0  0  0  0  0  0  0
   51.6860   30.7940   51.0000 C   0  0  0  0  0  0  0  0  0  0  0  0
   51.6550   30.0530   49.8780 N   0  0  0  0  0  0  0  0  0  0  0  0
   51.0190   30.8520   48.9930 C   0  0  0  0  0  0  0  0  0  0  0  0
   50.7800   30.4970   47.8100 O   0  0  0  0  0  0  0  0  0  0  0  0
   50.6720   32.0660   49.4730 N   0  0  0  0  0  0  0  0  0  0  0  0
   51.1140   32.0200   50.7400 C   0  0  0  0  0  0  0  0  0  0  0  0
   51.0220   33.0840   51.6290 O   0  0  0  0  0  0  0  0  0  0  0  0
   54.5950   31.3060   52.0450 C   0  0  0  0  0  0  0  0  0  0  0  0
   54.3256   32.2828   51.6169 H   0  0  0  0  0  0  0  0  0  0  0  0
   55.8640   30.8710   52.3610 C   0  0  0  0  0  0  0  0  0  0  0  0
   57.0820   31.6750   52.1320 C   0  0  0  0  0  0  0  0  0  0  0  0
   57.5980   32.2780   53.1140 O   0  0  0  0  0  0  0  0  0  0  0  0
   57.5920   31.8900   50.7930 N   0  0  1  0  0  0  0  0  0  0  0  0
   56.8330   32.2550   50.1710 H   0  0  0  0  0  0  0  0  0  0  0  0
   58.6890   32.8650   50.7840 C   0  0  0  0  0  0  0  0  0  0  0  0
   58.2876   33.8848   50.6894 H   0  0  0  0  0  0  0  0  0  0  0  0
   59.2665   32.8157   51.7189 H   0  0  0  0  0  0  0  0  0  0  0  0
   59.5680   32.5340   49.5820 C   0  0  0  0  0  0  0  0  0  0  0  0
   59.4007   33.2608   48.7735 H   0  0  0  0  0  0  0  0  0  0  0  0
   60.6369   32.5750   49.8387 H   0  0  0  0  0  0  0  0  0  0  0  0
   59.1510   31.1350   49.1340 C   0  0  1  0  0  0  0  0  0  0  0  0
   58.7146   31.1231   48.1244 H   0  0  0  0  0  0  0  0  0  0  0  0
   60.2810   30.2810   49.0930 O   0  0  0  0  0  0  0  0  0  0  0  0
   59.8690   28.9330   49.0340 C   0  0  0  0  0  0  0  0  0  0  0  0
   59.7492   28.5412   50.0549 H   0  0  0  0  0  0  0  0  0  0  0  0
   58.9093   28.8659   48.5006 H   0  0  0  0  0  0  0  0  0  0  0  0
   60.6272   28.3409   48.5006 H   0  0  0  0  0  0  0  0  0  0  0  0
   58.1450   30.6730   50.1880 C   0  0  0  0  0  0  0  0  0  0  0  0
   57.3440   30.0841   49.7173 H   0  0  0  0  0  0  0  0  0  0  0  0
   58.6242   30.0336   50.9440 H   0  0  0  0  0  0  0  0  0  0  0  0
   55.8210   29.6190   52.8750 N   0  0  0  0  0  0  0  0  0  0  0  0
   56.9600   28.8390   53.3700 C   0  0  0  0  0  0  0  0  0  0  0  0
   56.9560   28.8418   54.4700 H   0  0  0  0  0  0  0  0  0  0  0  0
   56.8817   27.8041   53.0056 H   0  0  0  0  0  0  0  0  0  0  0  0
   57.8967   29.2861   53.0056 H   0  0  0  0  0  0  0  0  0  0  0  0
  1  2  1  0
  2  3  1  0
  2  4  2  0
  4  5  1  0
  5  6  2  0
  6  7  1  0
  6  8  1  0
  8  9  1  0
  9 10  1  0
 10 11  2  0
 10 12  1  0
 12 13  1  0
 13 14  1  0
  5 15  1  0
 15 16  1  0
 15 17  2  0
 17 18  1  0
 18 19  2  0
 18 20  1  0
 20 21  1  6
 20 22  1  0
 22 23  1  0
 22 24  1  0
 22 25  1  0
 25 26  1  0
 25 27  1  0
 25 28  1  0
 28 29  1  6
 28 30  1  0
 30 31  1  0
 31 32  1  0
 31 33  1  0
 31 34  1  0
 28 35  1  0
 35 36  1  0
 35 37  1  0
 17 38  1  0
 38 39  1  0
 39 40  1  0
 39 41  1  0
 39 42  1  0
 38  4  1  0
 13  8  2  0
 35 20  1  0
M  CHG  4   9  -1  12  -1  14  -1  20   1
M  END
>  <UniqueID>  (24) 
23

>  <SMILES>  (24) 
C=c1/c(=C\c2[n-]c(=O)[n-]c2[O-])cc(C(=O)[N@H+]2CC[C@@H](OC)C2)n1C

>  <Energy>  (24) 
125.4800041777869

>  <Genealogy>  (24) 
C=c1c(=Cc2[n-]c(=O)[n-]c2[O-])cc(C(=O)[NH+]2CCC(OC)C2)n1C (protonated)
C=c1c(=Cc2[n-]c(=O)[n-]c2[O-])cc(C(=O)[N@H+]2CC[C@@H](OC)C2)n1C (chirality)
C=c1/c(=C\c2[n-]c(=O)[n-]c2[O-])cc(C(=O)[N@H+]2CC[C@@H](OC)C2)n1C (cis-trans isomerization)
C=c1/c(=C\c2[n-]c(=O)[n-]c2[O-])cc(C(=O)[N@H+]2CC[C@@H](OC)C2)n1C (3D coordinates assigned)
C=c1/c(=C\c2[n-]c(=O)[n-]c2[O-])cc(C(=O)[N@H+]2CC[C@@H](OC)C2)n1C (nonaromatic ring conformer: 125.4800041777869 kcal/mol)

>  <smiles>  (24) 
C=c1c(=Cc2[nH]c(=O)[nH]c2O)cc(C(=O)N2CCC(OC)C2)n1C

>  <score_type>  (24) 
oracle

>  <origin>  (24) 
adg

>  <m_score__min__energy>  (24) 
-15.48

>  <m_primary>  (24) 
energy

$$$$
24:0
     RDKit          3D

 53 56  0  0  0  0  0  0  0  0999 V2000
   57.7960   26.6310   43.7000 C   0  0  0  0  0  0  0  0  0  0  0  0
   57.6750   27.8550   44.2470 C   0  0  0  0  0  0  0  0  0  0  0  0
   57.3830   28.9220   43.3750 C   0  0  0  0  0  0  0  0  0  0  0  0
   57.4830   30.2440   43.7980 C   0  0  0  0  0  0  0  0  0  0  0  0
   57.8780   30.5410   45.1060 C   0  0  0  0  0  0  0  0  0  0  0  0
   58.0340   31.9510   45.5320 C   0  0  0  0  0  0  0  0  0  0  0  0
   57.0740   32.7540   45.3770 O   0  0  0  0  0  0  0  0  0  0  0  0
   59.2570   32.4250   46.1250 N   0  0  0  0  0  0  0  0  0  0  0  0
   59.8590   33.6850   45.6720 C   0  0  0  0  0  0  0  0  0  0  0  0
   60.2380   34.5420   46.8810 C   0  0  0  0  0  0  0  0  0  0  0  0
   60.9980   33.7290   47.8350 N   0  0  0  0  0  0  0  0  0  0  0  0
   62.4220   33.9000   47.9650 C   0  0  0  0  0  0  0  0  0  0  0  0
   63.1000   34.2370   46.9560 O   0  0  0  0  0  0  0  0  0  0  0  0
   63.1030   33.6940   49.2640 C   0  0  0  0  0  0  0  0  0  0  0  0
   62.4830   34.0740   50.4650 C   0  0  0  0  0  0  0  0  0  0  0  0
   63.1380   33.8960   51.6850 C   0  0  0  0  0  0  0  0  0  0  0  0
   64.4140   33.3300   51.7220 C   0  0  0  0  0  0  0  0  0  0  0  0
   65.0470   32.9250   50.5340 C   0  0  0  0  0  0  0  0  0  0  0  0
   66.4430   32.3520   50.5600 C   0  0  0  0  0  0  0  0  0  0  0  0
   66.9580   32.4630   51.8390 F   0  0  0  0  0  0  0  0  0  0  0  0
   67.2620   33.0410   49.6820 F   0  0  0  0  0  0  0  0  0  0  0  0
   66.4380   31.0180   50.1910 F   0  0  0  0  0  0  0  0  0  0  0  0
   64.3950   33.1370   49.3060 C   0  0  0  0  0  0  0  0  0  0  0  0
   60.3490   32.5080   48.3240 C   0  0  0  0  0  0  0  0  0  0  0  0
   59.9690   31.6240   47.1330 C   0  0  0  0  0  0  0  0  0  0  0  0
   58.1330   29.4920   46.0000 C   0  0  0  0  0  0  0  0  0  0  0  0
   57.9600   28.1410   45.6230 C   0  0  0  0  0  0  0  0  0  0  0  0
   58.0650   27.2170   46.6120 C   0  0  0  0  0  0  0  0  0  0  0  0
   57.3200   25.9470   46.7030 C   0  0  0  0  0  0  0  0  0  0  0  0
   57.8430   24.8170   47.2090 N   0  0  0  0  0  0  0  0  0  0  0  0
   56.8000   23.9590   47.2000 C   0  0  0  0  0  0  0  0  0  0  0  0
   56.8970   22.7680   47.5940 O   0  0  0  0  0  0  0  0  0  0  0  0
   55.6390   24.4810   46.7450 N   0  0  0  0  0  0  0  0  0  0  0  0
   55.9820   25.7430   46.4470 C   0  0  0  0  0  0  0  0  0  0  0  0
   55.0840   26.6970   45.9850 O   0  0  0  0  0  0  0  0  0  0  0  0
   58.0235   25.7638   44.3373 H   0  0  0  0  0  0  0  0  0  0  0  0
   57.6674   26.4980   42.6157 H   0  0  0  0  0  0  0  0  0  0  0  0
   57.0707   28.7067   42.3425 H   0  0  0  0  0  0  0  0  0  0  0  0
   57.2498   31.0606   43.0988 H   0  0  0  0  0  0  0  0  0  0  0  0
   60.7611   33.4672   45.0815 H   0  0  0  0  0  0  0  0  0  0  0  0
   59.1335   34.2320   45.0520 H   0  0  0  0  0  0  0  0  0  0  0  0
   60.8539   35.3913   46.5502 H   0  0  0  0  0  0  0  0  0  0  0  0
   59.3249   34.9189   47.3650 H   0  0  0  0  0  0  0  0  0  0  0  0
   61.4753   34.5145   50.4446 H   0  0  0  0  0  0  0  0  0  0  0  0
   62.6472   34.2027   52.6204 H   0  0  0  0  0  0  0  0  0  0  0  0
   64.9269   33.2003   52.6864 H   0  0  0  0  0  0  0  0  0  0  0  0
   64.9004   32.8644   48.3678 H   0  0  0  0  0  0  0  0  0  0  0  0
   61.0419   31.9615   48.9807 H   0  0  0  0  0  0  0  0  0  0  0  0
   59.4434   32.7735   48.8891 H   0  0  0  0  0  0  0  0  0  0  0  0
   60.8810   31.2015   46.6861 H   0  0  0  0  0  0  0  0  0  0  0  0
   59.3145   30.8103   47.4788 H   0  0  0  0  0  0  0  0  0  0  0  0
   58.4758   29.7258   47.0188 H   0  0  0  0  0  0  0  0  0  0  0  0
   58.7740   27.4365   47.4239 H   0  0  0  0  0  0  0  0  0  0  0  0
  1  2  2  0
  2  3  1  0
  3  4  2  0
  4  5  1  0
  5  6  1  0
  6  7  2  0
  6  8  1  0
  8  9  1  0
  9 10  1  0
 10 11  1  0
 11 12  1  0
 12 13  2  0
 12 14  1  0
 14 15  2  0
 15 16  1  0
 16 17  2  0
 17 18  1  0
 18 19  1  0
 19 20  1  0
 19 21  1  0
 19 22  1  0
 18 23  2  0
 11 24  1  0
 24 25  1  0
  5 26  2  0
 26 27  1  0
 27 28  2  3
 28 29  1  0
 29 30  1  0
 30 31  1  0
 31 32  2  0
 31 33  1  0
 33 34  1  0
 34 35  1  0
 27  2  1  0
 34 29  2  0
 25  8  1  0
 23 14  1  0
  1 36  1  0
  1 37  1  0
  3 38  1  0
  4 39  1  0
  9 40  1  0
  9 41  1  0
 10 42  1  0
 10 43  1  0
 15 44  1  0
 16 45  1  0
 17 46  1  0
 23 47  1  0
 24 48  1  0
 24 49  1  0
 25 50  1  0
 25 51  1  0
 26 52  1  0
 28 53  1  0
M  CHG  3  30  -1  33  -1  35  -1
M  END
>  <UniqueID>  (25) 
24

>  <SMILES>  (25) 
C=c1ccc(C(=O)N2CCN(C(=O)c3cccc(C(F)(F)F)c3)CC2)cc1=Cc1[n-]c(=O)[n-]c1[O-]

>  <Energy>  (25) 
117.51517747389313

>  <Genealogy>  (25) 
C=c1ccc(C(=O)N2CCN(C(=O)c3cccc(C(F)(F)F)c3)CC2)cc1=Cc1[n-]c(=O)[n-]c1[O-] (protonated)
C=c1ccc(C(=O)N2CCN(C(=O)c3cccc(C(F)(F)F)c3)CC2)cc1=Cc1[n-]c(=O)[n-]c1[O-] (3D coordinates assigned)
C=c1ccc(C(=O)N2CCN(C(=O)c3cccc(C(F)(F)F)c3)CC2)cc1=Cc1[n-]c(=O)[n-]c1[O-] (nonaromatic ring conformer: 117.51517747389313 kcal/mol)

>  <smiles>  (25) 
C=c1ccc(C(=O)N2CCN(C(=O)c3cccc(C(F)(F)F)c3)CC2)cc1=Cc1[nH]c(=O)[nH]c1O

>  <score_type>  (25) 
oracle

>  <origin>  (25) 
adg

>  <m_score__min__energy>  (25) 
-18.539999999999999

>  <m_primary>  (25) 
energy

$$$$
25:0
     RDKit          3D

 47 49  0  0  0  0  0  0  0  0999 V2000
   57.9600   32.0730   43.4250 C   0  0  0  0  0  0  0  0  0  0  0  0
   58.3610   32.2210   44.8670 C   0  0  0  0  0  0  0  0  0  0  0  0
   58.5010   31.2030   45.8030 C   0  0  0  0  0  0  0  0  0  0  0  0
   58.3850   29.7500   45.5920 C   0  0  0  0  0  0  0  0  0  0  0  0
   59.5320   28.9540   45.4520 C   0  0  0  0  0  0  0  0  0  0  0  0
   59.4150   27.5650   45.3710 C   0  0  0  0  0  0  0  0  0  0  0  0
   58.1560   26.9640   45.4330 C   0  0  0  0  0  0  0  0  0  0  0  0
   57.0010   27.7480   45.5490 C   0  0  0  0  0  0  0  0  0  0  0  0
   55.7270   27.1000   45.6220 N   0  0  0  0  0  0  0  0  0  0  0  0
   55.5110   25.3840   45.7490 S   0  0  0  0  0  0  0  0  0  0  0  0
   56.3870   24.5020   44.4670 C   0  0  0  0  0  0  0  0  0  0  0  0
   54.0480   25.0800   45.6180 O   0  0  0  0  0  0  0  0  0  0  0  0
   55.9760   24.9310   47.1020 O   0  0  0  0  0  0  0  0  0  0  0  0
   57.1210   29.1430   45.6370 C   0  0  0  0  0  0  0  0  0  0  0  0
   58.8130   31.7520   46.9910 N   0  0  0  0  0  0  0  0  0  0  0  0
   58.8720   33.0830   46.7770 C   0  0  0  0  0  0  0  0  0  0  0  0
   59.2460   34.0490   47.8350 C   0  0  0  0  0  0  0  0  0  0  0  0
   59.1890   35.2780   47.5950 O   0  0  0  0  0  0  0  0  0  0  0  0
   59.7850   33.6140   49.0950 N   0  0  0  0  0  0  0  0  0  0  0  0
   59.2450   32.7530   49.9110 C   0  0  0  0  0  0  0  0  0  0  0  0
   59.0950   31.4450   49.5430 N   0  0  0  0  0  0  0  0  0  0  0  0
   58.5320   30.5210   50.3640 C   0  0  0  0  0  0  0  0  0  0  0  0
   58.0810   30.8950   51.6280 C   0  0  0  0  0  0  0  0  0  0  0  0
   58.1990   32.2260   52.0320 C   0  0  0  0  0  0  0  0  0  0  0  0
   58.7800   33.1730   51.1750 C   0  0  0  0  0  0  0  0  0  0  0  0
   58.9000   34.5390   51.6030 N   0  0  0  0  0  0  0  0  0  0  0  0
   58.6060   33.4010   45.4850 N   0  0  0  0  0  0  0  0  0  0  0  0
   58.5590   34.7430   44.9020 C   0  0  0  0  0  0  0  0  0  0  0  0
   56.9294   31.6926   43.3682 H   0  0  0  0  0  0  0  0  0  0  0  0
   58.0177   33.0517   42.9261 H   0  0  0  0  0  0  0  0  0  0  0  0
   58.6396   31.3665   42.9261 H   0  0  0  0  0  0  0  0  0  0  0  0
   60.5250   29.4250   45.4060 H   0  0  0  0  0  0  0  0  0  0  0  0
   60.3155   26.9435   45.2582 H   0  0  0  0  0  0  0  0  0  0  0  0
   58.0708   25.8681   45.3905 H   0  0  0  0  0  0  0  0  0  0  0  0
   57.0915   23.7926   44.9257 H   0  0  0  0  0  0  0  0  0  0  0  0
   55.6673   23.9521   43.8428 H   0  0  0  0  0  0  0  0  0  0  0  0
   56.9418   25.2179   43.8428 H   0  0  0  0  0  0  0  0  0  0  0  0
   56.2192   29.7641   45.7418 H   0  0  0  0  0  0  0  0  0  0  0  0
   59.0150   31.2450   47.8800 H   0  0  0  0  0  0  0  0  0  0  0  0
   58.4321   29.4774   50.0309 H   0  0  0  0  0  0  0  0  0  0  0  0
   57.6358   30.1481   52.3017 H   0  0  0  0  0  0  0  0  0  0  0  0
   57.8359   32.5329   53.0239 H   0  0  0  0  0  0  0  0  0  0  0  0
   59.0080   34.7940   52.6140 H   0  0  0  0  0  0  0  0  0  0  0  0
   58.8910   35.3080   50.8980 H   0  0  0  0  0  0  0  0  0  0  0  0
   58.5328   35.4919   45.7073 H   0  0  0  0  0  0  0  0  0  0  0  0
   59.4520   34.9042   44.2803 H   0  0  0  0  0  0  0  0  0  0  0  0
   57.6569   34.8413   44.2803 H   0  0  0  0  0  0  0  0  0  0  0  0
  1  2  1  0
  2  3  2  0
  3  4  1  0
  4  5  2  0
  5  6  1  0
  6  7  2  0
  7  8  1  0
  8  9  1  0
  9 10  1  0
 10 11  1  0
 10 12  2  0
 10 13  2  0
  8 14  2  0
  3 15  1  0
 15 16  2  0
 16 17  1  0
 17 18  2  0
 17 19  1  0
 19 20  2  3
 20 21  1  0
 21 22  1  0
 22 23  2  0
 23 24  1  0
 24 25  2  0
 25 26  1  0
 16 27  1  0
 27 28  1  0
 27  2  1  0
 14  4  1  0
 25 20  1  0
  1 29  1  0
  1 30  1  0
  1 31  1  0
  5 32  1  0
  6 33  1  0
  7 34  1  0
 11 35  1  0
 11 36  1  0
 11 37  1  0
 14 38  1  0
 15 39  1  0
 22 40  1  0
 23 41  1  0
 24 42  1  0
 26 43  1  0
 26 44  1  0
 28 45  1  0
 28 46  1  0
 28 47  1  0
M  CHG  3   9  -1  15   1  21  -1
M  END
>  <UniqueID>  (26) 
25

>  <SMILES>  (26) 
Cc1c(-c2cccc([N-]S(C)(=O)=O)c2)[nH+]c(C(=O)N=c2[n-]cccc2N)n1C

>  <Energy>  (26) 
93.66731350839655

>  <Genealogy>  (26) 
Cc1c(-c2cccc([N-]S(C)(=O)=O)c2)[nH+]c(C(=O)N=c2[n-]cccc2N)n1C (protonated)
Cc1c(-c2cccc([N-]S(C)(=O)=O)c2)[nH+]c(C(=O)N=c2[n-]cccc2N)n1C (3D coordinates assigned)
Cc1c(-c2cccc([N-]S(C)(=O)=O)c2)[nH+]c(C(=O)N=c2[n-]cccc2N)n1C (optimized conformer: 93.66731350839655 kcal/mol)

>  <smiles>  (26) 
Cc1c(-c2cccc(NS(C)(=O)=O)c2)nc(C(=O)N=c2[nH]cccc2N)n1C

>  <score_type>  (26) 
oracle

>  <origin>  (26) 
adg

>  <m_score__min__energy>  (26) 
-9.5500000000000007

>  <m_primary>  (26) 
energy

$$$$
26:0
     RDKit          3D

 51 54  0  0  0  0  0  0  0  0999 V2000
   54.4010   29.3890   44.9400 H   0  0  0  0  0  0  0  0  0  0  0  0
   55.4380   29.2900   44.8710 N   0  0  0  0  0  0  0  0  0  0  0  0
   56.2150   30.2170   44.1170 C   0  0  0  0  0  0  0  0  0  0  0  0
   56.1560   30.1840   42.8590 O   0  0  0  0  0  0  0  0  0  0  0  0
   57.1130   31.1890   44.7930 C   0  0  0  0  0  0  0  0  0  0  0  0
   56.6320   32.4760   45.0860 C   0  0  0  0  0  0  0  0  0  0  0  0
   55.5897   32.7337   44.8467 H   0  0  0  0  0  0  0  0  0  0  0  0
   57.4600   33.4320   45.6770 C   0  0  0  0  0  0  0  0  0  0  0  0
   57.0645   34.4346   45.8970 H   0  0  0  0  0  0  0  0  0  0  0  0
   58.7930   33.1250   45.9930 C   0  0  0  0  0  0  0  0  0  0  0  0
   59.6770   34.1440   46.6070 C   0  0  0  0  0  0  0  0  0  0  0  0
   59.9530   35.1980   45.9710 O   0  0  0  0  0  0  0  0  0  0  0  0
   60.1990   33.9320   47.9310 N   0  0  0  0  0  0  0  0  0  0  0  0
   61.4400   33.7230   48.2620 C   0  0  0  0  0  0  0  0  0  0  0  0
   61.8910   33.9700   49.5250 N   0  0  0  0  0  0  0  0  0  0  0  0
   63.1850   33.7570   49.8830 C   0  0  0  0  0  0  0  0  0  0  0  0
   63.5121   33.9647   50.9125 H   0  0  0  0  0  0  0  0  0  0  0  0
   64.1000   33.2740   48.9430 C   0  0  0  0  0  0  0  0  0  0  0  0
   65.3890   33.0500   49.2950 F   0  0  0  0  0  0  0  0  0  0  0  0
   63.6670   33.0160   47.6420 C   0  0  0  0  0  0  0  0  0  0  0  0
   64.3759   32.6392   46.8900 H   0  0  0  0  0  0  0  0  0  0  0  0
   62.3320   33.2370   47.2960 C   0  0  0  0  0  0  0  0  0  0  0  0
   61.9832   33.0312   46.2733 H   0  0  0  0  0  0  0  0  0  0  0  0
   59.2750   31.8350   45.7150 C   0  0  0  0  0  0  0  0  0  0  0  0
   60.3177   31.5821   45.9576 H   0  0  0  0  0  0  0  0  0  0  0  0
   58.4480   30.8670   45.1340 C   0  0  0  0  0  0  0  0  0  0  0  0
   58.9770   29.5940   44.9080 O   0  0  0  0  0  0  0  0  0  0  0  0
   58.9290   28.5450   45.8400 C   0  0  0  0  0  0  0  0  0  0  0  0
   60.0160   28.2340   46.6780 C   0  0  0  0  0  0  0  0  0  0  0  0
   60.9469   28.8158   46.6084 H   0  0  0  0  0  0  0  0  0  0  0  0
   59.9150   27.1890   47.5970 C   0  0  0  0  0  0  0  0  0  0  0  0
   60.7640   26.9542   48.2558 H   0  0  0  0  0  0  0  0  0  0  0  0
   58.7390   26.4400   47.6830 C   0  0  0  0  0  0  0  0  0  0  0  0
   58.6616   25.6272   48.4202 H   0  0  0  0  0  0  0  0  0  0  0  0
   57.6580   26.7170   46.8370 C   0  0  0  0  0  0  0  0  0  0  0  0
   56.4640   25.9330   46.9720 N   0  0  0  0  0  0  0  0  0  0  0  0
   55.6540   25.4020   45.9110 C   0  0  0  0  0  0  0  0  0  0  0  0
   54.5170   25.8930   45.6770 O   0  0  0  0  0  0  0  0  0  0  0  0
   56.1760   24.3150   45.0520 C   0  0  0  0  0  0  0  0  0  0  0  0
   55.4440   23.8780   43.9310 C   0  0  0  0  0  0  0  0  0  0  0  0
   54.4766   24.3454   43.6949 H   0  0  0  0  0  0  0  0  0  0  0  0
   55.9370   22.8550   43.1160 C   0  0  0  0  0  0  0  0  0  0  0  0
   55.3600   22.5240   42.2399 H   0  0  0  0  0  0  0  0  0  0  0  0
   57.1610   22.2530   43.4130 C   0  0  0  0  0  0  0  0  0  0  0  0
   57.5457   21.4449   42.7735 H   0  0  0  0  0  0  0  0  0  0  0  0
   57.8970   22.6760   44.5210 C   0  0  0  0  0  0  0  0  0  0  0  0
   58.8635   22.2036   44.7506 H   0  0  0  0  0  0  0  0  0  0  0  0
   57.4090   23.6980   45.3390 C   0  0  0  0  0  0  0  0  0  0  0  0
   57.9919   24.0231   46.2134 H   0  0  0  0  0  0  0  0  0  0  0  0
   57.7550   27.7880   45.9300 C   0  0  0  0  0  0  0  0  0  0  0  0
   56.8988   28.0333   45.2844 H   0  0  0  0  0  0  0  0  0  0  0  0
  1  2  1  0
  2  3  1  0
  3  4  2  0
  3  5  1  0
  5  6  2  0
  6  7  1  0
  6  8  1  0
  8  9  1  0
  8 10  2  0
 10 11  1  0
 11 12  2  0
 11 13  1  0
 13 14  2  0
 14 15  1  0
 15 16  1  0
 16 17  1  0
 16 18  2  0
 18 19  1  0
 18 20  1  0
 20 21  1  0
 20 22  2  0
 22 23  1  0
 10 24  1  0
 24 25  1  0
 24 26  2  0
 26 27  1  0
 27 28  1  0
 28 29  2  0
 29 30  1  0
 29 31  1  0
 31 32  1  0
 31 33  2  0
 33 34  1  0
 33 35  1  0
 35 36  1  0
 36 37  1  0
 37 38  2  0
 37 39  1  0
 39 40  2  0
 40 41  1  0
 40 42  1  0
 42 43  1  0
 42 44  2  0
 44 45  1  0
 44 46  1  0
 46 47  1  0
 46 48  2  0
 48 49  1  0
 35 50  2  0
 50 51  1  0
 26  5  1  0
 50 28  1  0
 22 14  1  0
 48 39  1  0
M  CHG  3   2  -1  15  -1  36  -1
M  END
>  <UniqueID>  (27) 
26

>  <SMILES>  (27) 
[NH-]C(=O)c1ccc(C(=O)/N=c2/ccc(F)c[n-]2)cc1Oc1cccc([N-]C(=O)c2ccccc2)c1

>  <Energy>  (27) 
76.14319166435122

>  <Genealogy>  (27) 
[NH-]C(=O)c1ccc(C(=O)N=c2ccc(F)c[n-]2)cc1Oc1cccc([N-]C(=O)c2ccccc2)c1 (protonated)
[NH-]C(=O)c1ccc(C(=O)/N=c2/ccc(F)c[n-]2)cc1Oc1cccc([N-]C(=O)c2ccccc2)c1 (cis-trans isomerization)
[NH-]C(=O)c1ccc(C(=O)/N=c2/ccc(F)c[n-]2)cc1Oc1cccc([N-]C(=O)c2ccccc2)c1 (3D coordinates assigned)
[NH-]C(=O)c1ccc(C(=O)/N=c2/ccc(F)c[n-]2)cc1Oc1cccc([N-]C(=O)c2ccccc2)c1 (optimized conformer: 76.14319166435122 kcal/mol)

>  <smiles>  (27) 
NC(=O)c1ccc(C(=O)N=c2ccc(F)c[nH]2)cc1Oc1cccc(NC(=O)c2ccccc2)c1

>  <score_type>  (27) 
oracle

>  <origin>  (27) 
adg

>  <m_score__min__energy>  (27) 
-15.859999999999999

>  <m_primary>  (27) 
energy

$$$$
27:0
     RDKit          3D

 41 43  0  0  0  0  0  0  0  0999 V2000
   54.7750   30.0190   43.7600 O   0  0  0  0  0  0  0  0  0  0  0  0
   55.9270   29.7240   44.1760 C   0  0  0  0  0  0  0  0  0  0  0  0
   57.1250   30.3770   43.5650 C   0  0  0  0  0  0  0  0  0  0  0  0
   57.5510   31.5510   44.4010 C   0  0  0  0  0  0  0  0  0  0  0  0
   57.7560   32.8070   43.8060 C   0  0  0  0  0  0  0  0  0  0  0  0
   58.1880   33.8900   44.5790 C   0  0  0  0  0  0  0  0  0  0  0  0
   58.4260   33.7250   45.9460 C   0  0  0  0  0  0  0  0  0  0  0  0
   58.2360   32.4740   46.5420 C   0  0  0  0  0  0  0  0  0  0  0  0
   57.8040   31.3890   45.7740 C   0  0  0  0  0  0  0  0  0  0  0  0
   56.1100   28.7670   45.2270 N   0  0  0  0  0  0  0  0  0  0  0  0
   57.2530   27.9250   45.4340 C   0  0  0  0  0  0  0  0  0  0  0  0
   58.5730   28.2770   45.0910 C   0  0  0  0  0  0  0  0  0  0  0  0
   59.4980   27.2770   45.3550 C   0  0  0  0  0  0  0  0  0  0  0  0
   58.6820   25.9550   45.9950 S   0  0  0  0  0  0  0  0  0  0  0  0
   57.1430   26.6330   45.9480 C   0  0  0  0  0  0  0  0  0  0  0  0
   55.9140   25.9520   46.3870 C   0  0  0  0  0  0  0  0  0  0  0  0
   54.7940   26.3030   45.9280 O   0  0  0  0  0  0  0  0  0  0  0  0
   55.9990   24.8860   47.3400 N   0  0  0  0  0  0  0  0  0  0  0  0
   55.5640   23.5210   47.0630 C   0  0  0  0  0  0  0  0  0  0  0  0
   56.2050   23.0150   45.8010 C   0  0  0  0  0  0  0  0  0  0  0  0
   57.5210   22.5240   45.8140 C   0  0  0  0  0  0  0  0  0  0  0  0
   58.1190   22.0790   44.6300 C   0  0  0  0  0  0  0  0  0  0  0  0
   57.4090   22.1270   43.4270 C   0  0  0  0  0  0  0  0  0  0  0  0
   56.1020   22.6190   43.4040 C   0  0  0  0  0  0  0  0  0  0  0  0
   55.4180   22.6710   42.2350 F   0  0  0  0  0  0  0  0  0  0  0  0
   55.5010   23.0640   44.5860 C   0  0  0  0  0  0  0  0  0  0  0  0
   57.9487   29.6499   43.5110 H   0  0  0  0  0  0  0  0  0  0  0  0
   56.8700   30.7266   42.5537 H   0  0  0  0  0  0  0  0  0  0  0  0
   57.5763   32.9393   42.7289 H   0  0  0  0  0  0  0  0  0  0  0  0
   58.3406   34.8732   44.1099 H   0  0  0  0  0  0  0  0  0  0  0  0
   58.7626   34.5784   46.5530 H   0  0  0  0  0  0  0  0  0  0  0  0
   58.4270   32.3437   47.6174 H   0  0  0  0  0  0  0  0  0  0  0  0
   57.6616   30.4055   46.2455 H   0  0  0  0  0  0  0  0  0  0  0  0
   58.8443   29.2503   44.6560 H   0  0  0  0  0  0  0  0  0  0  0  0
   60.5815   27.3392   45.1757 H   0  0  0  0  0  0  0  0  0  0  0  0
   55.8523   22.8709   47.9022 H   0  0  0  0  0  0  0  0  0  0  0  0
   54.4712   23.5123   46.9376 H   0  0  0  0  0  0  0  0  0  0  0  0
   58.0835   22.4892   46.7586 H   0  0  0  0  0  0  0  0  0  0  0  0
   59.1483   21.6912   44.6459 H   0  0  0  0  0  0  0  0  0  0  0  0
   57.8803   21.7767   42.4969 H   0  0  0  0  0  0  0  0  0  0  0  0
   54.4727   23.4540   44.5643 H   0  0  0  0  0  0  0  0  0  0  0  0
  1  2  2  0
  2  3  1  0
  3  4  1  0
  4  5  2  0
  5  6  1  0
  6  7  2  0
  7  8  1  0
  8  9  2  0
  2 10  1  0
 10 11  1  0
 11 12  1  0
 12 13  2  0
 13 14  1  0
 14 15  1  0
 15 16  1  0
 16 17  2  0
 16 18  1  0
 18 19  1  0
 19 20  1  0
 20 21  2  0
 21 22  1  0
 22 23  2  0
 23 24  1  0
 24 25  1  0
 24 26  2  0
  9  4  1  0
 15 11  2  0
 26 20  1  0
  3 27  1  0
  3 28  1  0
  5 29  1  0
  6 30  1  0
  7 31  1  0
  8 32  1  0
  9 33  1  0
 12 34  1  0
 13 35  1  0
 19 36  1  0
 19 37  1  0
 21 38  1  0
 22 39  1  0
 23 40  1  0
 26 41  1  0
M  CHG  2  10  -1  18  -1
M  END
>  <UniqueID>  (28) 
27

>  <SMILES>  (28) 
O=C(Cc1ccccc1)[N-]c1ccsc1C(=O)[N-]Cc1cccc(F)c1

>  <Energy>  (28) 
67.3221980976759

>  <Genealogy>  (28) 
O=C(Cc1ccccc1)[N-]c1ccsc1C(=O)[N-]Cc1cccc(F)c1 (protonated)
O=C(Cc1ccccc1)[N-]c1ccsc1C(=O)[N-]Cc1cccc(F)c1 (3D coordinates assigned)
O=C(Cc1ccccc1)[N-]c1ccsc1C(=O)[N-]Cc1cccc(F)c1 (optimized conformer: 67.3221980976759 kcal/mol)

>  <smiles>  (28) 
O=C(Cc1ccccc1)Nc1ccsc1C(=O)NCc1cccc(F)c1

>  <score_type>  (28) 
oracle

>  <origin>  (28) 
adg

>  <m_score__min__energy>  (28) 
-12.789999999999999

>  <m_primary>  (28) 
energy

$$$$
28:0
     RDKit          3D

 45 47  0  0  0  0  0  0  0  0999 V2000
   60.8450   34.2260   49.4790 C   0  0  0  0  0  0  0  0  0  0  0  0
   60.0270   34.1470   50.6420 O   0  0  0  0  0  0  0  0  0  0  0  0
   59.1560   33.0840   50.9280 C   0  0  0  0  0  0  0  0  0  0  0  0
   58.2800   33.2200   52.0090 C   0  0  0  0  0  0  0  0  0  0  0  0
   57.4030   32.1860   52.3440 C   0  0  0  0  0  0  0  0  0  0  0  0
   57.3660   31.0100   51.5890 C   0  0  0  0  0  0  0  0  0  0  0  0
   56.4670   30.0030   51.9810 O   0  0  0  0  0  0  0  0  0  0  0  0
   55.1130   30.1950   52.2970 C   0  0  0  0  0  0  0  0  0  0  0  0
   54.6750   29.8930   53.5880 C   0  0  0  0  0  0  0  0  0  0  0  0
   53.3270   30.0270   53.9230 C   0  0  0  0  0  0  0  0  0  0  0  0
   52.4040   30.4770   52.9750 C   0  0  0  0  0  0  0  0  0  0  0  0
   51.1000   30.5690   53.3390 F   0  0  0  0  0  0  0  0  0  0  0  0
   52.8300   30.8180   51.6730 C   0  0  0  0  0  0  0  0  0  0  0  0
   51.8730   31.2820   50.6360 C   0  0  0  0  0  0  0  0  0  0  0  0
   51.4060   32.6300   50.6150 N   0  0  0  0  0  0  0  0  0  0  0  0
   51.4550   30.4800   49.7570 O   0  0  0  0  0  0  0  0  0  0  0  0
   54.1970   30.6950   51.3550 C   0  0  0  0  0  0  0  0  0  0  0  0
   58.2470   30.8580   50.4930 C   0  0  0  0  0  0  0  0  0  0  0  0
   58.2670   29.6200   49.7700 N   0  0  0  0  0  0  0  0  0  0  0  0
   58.9700   29.3590   48.5490 C   0  0  0  0  0  0  0  0  0  0  0  0
   59.8410   28.4500   48.4910 O   0  0  0  0  0  0  0  0  0  0  0  0
   58.7280   30.2320   47.3870 C   0  0  0  0  0  0  0  0  0  0  0  0
   59.4550   31.4080   47.1930 C   0  0  0  0  0  0  0  0  0  0  0  0
   59.1490   32.2180   46.0990 C   0  0  0  0  0  0  0  0  0  0  0  0
   59.7930   33.2910   45.9370 O   0  0  0  0  0  0  0  0  0  0  0  0
   58.1610   31.8540   45.2200 N   0  0  0  0  0  0  0  0  0  0  0  0
   57.8160   32.7280   44.0860 C   0  0  0  0  0  0  0  0  0  0  0  0
   57.4450   30.7060   45.4490 C   0  0  0  0  0  0  0  0  0  0  0  0
   56.5020   30.3690   44.6840 O   0  0  0  0  0  0  0  0  0  0  0  0
   57.7400   29.9150   46.5130 N   0  0  0  0  0  0  0  0  0  0  0  0
   59.1430   31.8950   50.1770 C   0  0  0  0  0  0  0  0  0  0  0  0
   61.8987   34.3278   49.7780 H   0  0  0  0  0  0  0  0  0  0  0  0
   60.7204   33.3116   48.8803 H   0  0  0  0  0  0  0  0  0  0  0  0
   60.5478   35.0996   48.8803 H   0  0  0  0  0  0  0  0  0  0  0  0
   58.2815   34.1479   52.5998 H   0  0  0  0  0  0  0  0  0  0  0  0
   56.7347   32.2980   53.2105 H   0  0  0  0  0  0  0  0  0  0  0  0
   55.3956   29.5480   54.3441 H   0  0  0  0  0  0  0  0  0  0  0  0
   52.9888   29.7769   54.9394 H   0  0  0  0  0  0  0  0  0  0  0  0
   51.0590   33.0640   49.7300 H   0  0  0  0  0  0  0  0  0  0  0  0
   54.5519   30.9938   50.3576 H   0  0  0  0  0  0  0  0  0  0  0  0
   60.2562   31.6914   47.8914 H   0  0  0  0  0  0  0  0  0  0  0  0
   57.4369   33.6884   44.4654 H   0  0  0  0  0  0  0  0  0  0  0  0
   58.7121   32.9040   43.4728 H   0  0  0  0  0  0  0  0  0  0  0  0
   57.0413   32.2444   43.4728 H   0  0  0  0  0  0  0  0  0  0  0  0
   59.8401   31.7750   49.3346 H   0  0  0  0  0  0  0  0  0  0  0  0
  1  2  1  0
  2  3  1  0
  3  4  2  0
  4  5  1  0
  5  6  2  0
  6  7  1  0
  7  8  1  0
  8  9  2  0
  9 10  1  0
 10 11  2  0
 11 12  1  0
 11 13  1  0
 13 14  1  0
 14 15  1  0
 14 16  2  0
 13 17  2  0
  6 18  1  0
 18 19  1  0
 19 20  1  0
 20 21  2  0
 20 22  1  0
 22 23  2  0
 23 24  1  0
 24 25  2  0
 24 26  1  0
 26 27  1  0
 26 28  1  0
 28 29  2  0
 28 30  1  0
 18 31  2  0
 31  3  1  0
 17  8  1  0
 30 22  1  0
  1 32  1  0
  1 33  1  0
  1 34  1  0
  4 35  1  0
  5 36  1  0
  9 37  1  0
 10 38  1  0
 15 39  1  0
 17 40  1  0
 23 41  1  0
 27 42  1  0
 27 43  1  0
 27 44  1  0
 31 45  1  0
M  CHG  3  15  -1  19  -1  30  -1
M  END
>  <UniqueID>  (29) 
28

>  <SMILES>  (29) 
COc1ccc(Oc2ccc(F)c(C([NH-])=O)c2)c([N-]C(=O)c2cc(=O)n(C)c(=O)[n-]2)c1

>  <Energy>  (29) 
61.8607486993694

>  <Genealogy>  (29) 
COc1ccc(Oc2ccc(F)c(C([NH-])=O)c2)c([N-]C(=O)c2cc(=O)n(C)c(=O)[n-]2)c1 (protonated)
COc1ccc(Oc2ccc(F)c(C([NH-])=O)c2)c([N-]C(=O)c2cc(=O)n(C)c(=O)[n-]2)c1 (3D coordinates assigned)
COc1ccc(Oc2ccc(F)c(C([NH-])=O)c2)c([N-]C(=O)c2cc(=O)n(C)c(=O)[n-]2)c1 (optimized conformer: 61.8607486993694 kcal/mol)

>  <smiles>  (29) 
COc1ccc(Oc2ccc(F)c(C(N)=O)c2)c(NC(=O)c2cc(=O)n(C)c(=O)[nH]2)c1

>  <score_type>  (29) 
oracle

>  <origin>  (29) 
adg

>  <m_score__min__energy>  (29) 
-14.07

>  <m_primary>  (29) 
energy

$$$$
29:0
     RDKit          3D

 64 68  0  0  0  0  0  0  0  0999 V2000
   60.6380   31.6070   51.7820 N   0  0  0  0  0  0  0  0  0  0  0  0
   61.9580   31.1510   52.1110 C   0  0  0  0  0  0  0  0  0  0  0  0
   62.5850   31.6550   53.2620 C   0  0  0  0  0  0  0  0  0  0  0  0
   63.9040   31.3040   53.5620 C   0  0  0  0  0  0  0  0  0  0  0  0
   64.6120   30.4530   52.7120 C   0  0  0  0  0  0  0  0  0  0  0  0
   63.9970   29.9330   51.5720 C   0  0  0  0  0  0  0  0  0  0  0  0
   62.6640   30.2500   51.2760 C   0  0  0  0  0  0  0  0  0  0  0  0
   62.0620   29.6530   50.1170 N   0  0  0  0  0  0  0  0  0  0  0  0
   60.7320   29.1190   50.0660 C   0  0  0  0  0  0  0  0  0  0  0  0
   60.1080   28.9450   51.1440 O   0  0  0  0  0  0  0  0  0  0  0  0
   60.0670   28.8000   48.7820 C   0  0  0  0  0  0  0  0  0  0  0  0
   59.1640   29.7110   48.2110 C   0  0  0  0  0  0  0  0  0  0  0  0
   58.5710   29.4370   46.9750 C   0  0  0  0  0  0  0  0  0  0  0  0
   58.8800   28.2530   46.2850 C   0  0  0  0  0  0  0  0  0  0  0  0
   58.2970   28.0030   44.9210 C   0  0  0  0  0  0  0  0  0  0  0  0
   57.8980   29.2640   44.2970 N   0  0  0  0  0  0  0  0  0  0  0  0
   56.7180   29.9600   44.7140 C   0  0  0  0  0  0  0  0  0  0  0  0
   55.7480   29.3220   45.2040 O   0  0  0  0  0  0  0  0  0  0  0  0
   56.5980   31.3770   44.5270 N   0  0  0  0  0  0  0  0  0  0  0  0
   57.5340   32.3670   44.9790 C   0  0  0  0  0  0  0  0  0  0  0  0
   58.1220   33.2220   44.0390 C   0  0  0  0  0  0  0  0  0  0  0  0
   58.9950   34.2310   44.4520 C   0  0  0  0  0  0  0  0  0  0  0  0
   59.2580   34.4190   45.8100 C   0  0  0  0  0  0  0  0  0  0  0  0
   58.6300   33.6140   46.7680 C   0  0  0  0  0  0  0  0  0  0  0  0
   58.8160   33.9110   48.1640 N   0  0  0  0  0  0  0  0  0  0  0  0
   59.7400   33.2600   49.0510 C   0  0  0  0  0  0  0  0  0  0  0  0
   59.3810   33.0080   50.2300 O   0  0  0  0  0  0  0  0  0  0  0  0
   61.1040   32.8790   48.6130 C   0  0  0  0  0  0  0  0  0  0  0  0
   61.2300   32.0630   47.4780 C   0  0  0  0  0  0  0  0  0  0  0  0
   62.4680   31.5260   47.1230 C   0  0  0  0  0  0  0  0  0  0  0  0
   63.6000   31.8000   47.8880 C   0  0  0  0  0  0  0  0  0  0  0  0
   63.5140   32.6570   48.9940 C   0  0  0  0  0  0  0  0  0  0  0  0
   64.6640   32.9580   49.7430 C   0  0  0  0  0  0  0  0  0  0  0  0
   64.5940   33.8550   50.8130 C   0  0  0  0  0  0  0  0  0  0  0  0
   63.3790   34.4530   51.1450 C   0  0  0  0  0  0  0  0  0  0  0  0
   62.2240   34.1510   50.4220 C   0  0  0  0  0  0  0  0  0  0  0  0
   62.2660   33.2290   49.3530 C   0  0  0  0  0  0  0  0  0  0  0  0
   57.7940   32.5660   46.3450 C   0  0  0  0  0  0  0  0  0  0  0  0
   59.7890   27.3450   46.8520 C   0  0  0  0  0  0  0  0  0  0  0  0
   60.3750   27.6170   48.0920 C   0  0  0  0  0  0  0  0  0  0  0  0
   60.2840   32.5170   52.1570 H   0  0  0  0  0  0  0  0  0  0  0  0
   60.0390   31.1100   51.0870 H   0  0  0  0  0  0  0  0  0  0  0  0
   62.0339   32.3310   53.9323 H   0  0  0  0  0  0  0  0  0  0  0  0
   64.3848   31.6989   54.4691 H   0  0  0  0  0  0  0  0  0  0  0  0
   65.6558   30.1918   52.9407 H   0  0  0  0  0  0  0  0  0  0  0  0
   64.5624   29.2696   50.9010 H   0  0  0  0  0  0  0  0  0  0  0  0
   58.9219   30.6452   48.7389 H   0  0  0  0  0  0  0  0  0  0  0  0
   57.8581   30.1529   46.5401 H   0  0  0  0  0  0  0  0  0  0  0  0
   59.0505   27.5091   44.2900 H   0  0  0  0  0  0  0  0  0  0  0  0
   57.4102   27.3605   45.0248 H   0  0  0  0  0  0  0  0  0  0  0  0
   58.5140   29.7140   43.5810 H   0  0  0  0  0  0  0  0  0  0  0  0
   57.8952   33.0984   42.9697 H   0  0  0  0  0  0  0  0  0  0  0  0
   59.4766   34.8793   43.7051 H   0  0  0  0  0  0  0  0  0  0  0  0
   59.9613   35.2025   46.1286 H   0  0  0  0  0  0  0  0  0  0  0  0
   60.3447   31.8448   46.8627 H   0  0  0  0  0  0  0  0  0  0  0  0
   62.5508   30.8829   46.2344 H   0  0  0  0  0  0  0  0  0  0  0  0
   64.5645   31.3422   47.6231 H   0  0  0  0  0  0  0  0  0  0  0  0
   65.6237   32.4857   49.4863 H   0  0  0  0  0  0  0  0  0  0  0  0
   65.4984   34.0893   51.3936 H   0  0  0  0  0  0  0  0  0  0  0  0
   63.3305   35.1664   51.9809 H   0  0  0  0  0  0  0  0  0  0  0  0
   61.2726   34.6354   50.6871 H   0  0  0  0  0  0  0  0  0  0  0  0
   57.3396   31.8962   47.0899 H   0  0  0  0  0  0  0  0  0  0  0  0
   60.0409   26.4165   46.3187 H   0  0  0  0  0  0  0  0  0  0  0  0
   61.0830   26.8982   48.5303 H   0  0  0  0  0  0  0  0  0  0  0  0
  1  2  1  0
  2  3  2  0
  3  4  1  0
  4  5  2  0
  5  6  1  0
  6  7  2  0
  7  8  1  0
  8  9  1  0
  9 10  2  0
  9 11  1  0
 11 12  2  0
 12 13  1  0
 13 14  2  0
 14 15  1  0
 15 16  1  0
 16 17  1  0
 17 18  2  0
 17 19  1  0
 19 20  1  0
 20 21  2  0
 21 22  1  0
 22 23  2  0
 23 24  1  0
 24 25  1  0
 25 26  1  0
 26 27  2  0
 26 28  1  0
 28 29  2  0
 29 30  1  0
 30 31  2  0
 31 32  1  0
 32 33  2  0
 33 34  1  0
 34 35  2  0
 35 36  1  0
 36 37  2  0
 24 38  2  0
 14 39  1  0
 39 40  2  0
  7  2  1  0
 40 11  1  0
 38 20  1  0
 37 28  1  0
 37 32  1  0
  1 41  1  0
  1 42  1  0
  3 43  1  0
  4 44  1  0
  5 45  1  0
  6 46  1  0
 12 47  1  0
 13 48  1  0
 15 49  1  0
 15 50  1  0
 16 51  1  0
 21 52  1  0
 22 53  1  0
 23 54  1  0
 29 55  1  0
 30 56  1  0
 31 57  1  0
 33 58  1  0
 34 59  1  0
 35 60  1  0
 36 61  1  0
 38 62  1  0
 39 63  1  0
 40 64  1  0
M  CHG  3   8  -1  19  -1  25  -1
M  END
>  <UniqueID>  (30) 
29

>  <SMILES>  (30) 
Nc1ccccc1[N-]C(=O)c1ccc(CNC(=O)[N-]c2cccc([N-]C(=O)c3cccc4ccccc34)c2)cc1

>  <Energy>  (30) 
94.29710469591625

>  <Genealogy>  (30) 
Nc1ccccc1[N-]C(=O)c1ccc(CNC(=O)[N-]c2cccc([N-]C(=O)c3cccc4ccccc34)c2)cc1 (protonated)
Nc1ccccc1[N-]C(=O)c1ccc(CNC(=O)[N-]c2cccc([N-]C(=O)c3cccc4ccccc34)c2)cc1 (3D coordinates assigned)
Nc1ccccc1[N-]C(=O)c1ccc(CNC(=O)[N-]c2cccc([N-]C(=O)c3cccc4ccccc34)c2)cc1 (optimized conformer: 94.29710469591625 kcal/mol)

>  <smiles>  (30) 
Nc1ccccc1NC(=O)c1ccc(CNC(=O)Nc2cccc(NC(=O)c3cccc4ccccc34)c2)cc1

>  <score_type>  (30) 
oracle

>  <origin>  (30) 
adg

>  <m_score__min__energy>  (30) 
-14.220000000000001

>  <m_primary>  (30) 
energy

$$$$
30:0
     RDKit          3D

 41 43  0  0  0  0  0  0  0  0999 V2000
   60.0320   29.2530   45.0900 C   0  0  0  0  0  0  0  0  0  0  0  0
   59.6290   29.0800   46.3610 C   0  0  0  0  0  0  0  0  0  0  0  0
   58.6670   28.1570   46.7980 C   0  0  0  0  0  0  0  0  0  0  0  0
   57.9620   27.2940   46.0320 C   0  0  0  0  0  0  0  0  0  0  0  0
   57.2990   26.0610   46.5120 C   0  0  0  0  0  0  0  0  0  0  0  0
   57.9160   24.9720   47.0040 N   0  0  0  0  0  0  0  0  0  0  0  0
   56.9010   24.1160   47.2490 C   0  0  0  0  0  0  0  0  0  0  0  0
   57.0840   22.9670   47.7300 O   0  0  0  0  0  0  0  0  0  0  0  0
   55.6760   24.5860   46.9340 N   0  0  0  0  0  0  0  0  0  0  0  0
   55.9460   25.8150   46.4650 C   0  0  0  0  0  0  0  0  0  0  0  0
   54.9760   26.6940   46.0010 O   0  0  0  0  0  0  0  0  0  0  0  0
   58.5590   28.3360   48.1700 C   0  0  0  0  0  0  0  0  0  0  0  0
   59.4480   29.3310   48.5140 C   0  0  0  0  0  0  0  0  0  0  0  0
   59.6050   29.8760   49.9030 C   0  0  0  0  0  0  0  0  0  0  0  0
   60.1050   29.7880   47.4220 N   0  0  0  0  0  0  0  0  0  0  0  0
   61.0870   30.8860   47.4240 C   0  0  0  0  0  0  0  0  0  0  0  0
   60.4080   32.2130   47.1770 C   0  0  0  0  0  0  0  0  0  0  0  0
   59.4590   32.3240   46.1460 C   0  0  0  0  0  0  0  0  0  0  0  0
   58.7970   33.5420   45.8950 C   0  0  0  0  0  0  0  0  0  0  0  0
   57.7820   33.6620   44.8130 C   0  0  0  0  0  0  0  0  0  0  0  0
   57.7680   32.7370   43.6330 C   0  0  0  0  0  0  0  0  0  0  0  0
   56.9020   34.5650   44.8780 O   0  0  0  0  0  0  0  0  0  0  0  0
   59.1110   34.6570   46.6910 C   0  0  0  0  0  0  0  0  0  0  0  0
   60.0600   34.5580   47.7100 C   0  0  0  0  0  0  0  0  0  0  0  0
   60.7090   33.3470   47.9570 C   0  0  0  0  0  0  0  0  0  0  0  0
   61.6520   33.2840   48.9780 O   0  0  0  0  0  0  0  0  0  0  0  0
   60.7962   30.0079   44.8532 H   0  0  0  0  0  0  0  0  0  0  0  0
   59.5975   28.6396   44.2869 H   0  0  0  0  0  0  0  0  0  0  0  0
   57.8738   27.5284   44.9609 H   0  0  0  0  0  0  0  0  0  0  0  0
   57.8917   27.7886   48.8520 H   0  0  0  0  0  0  0  0  0  0  0  0
   59.3776   29.0866   50.6345 H   0  0  0  0  0  0  0  0  0  0  0  0
   60.6393   30.2219   50.0464 H   0  0  0  0  0  0  0  0  0  0  0  0
   58.9132   30.7191   50.0464 H   0  0  0  0  0  0  0  0  0  0  0  0
   61.5928   30.9158   48.4004 H   0  0  0  0  0  0  0  0  0  0  0  0
   61.8167   30.7081   46.6203 H   0  0  0  0  0  0  0  0  0  0  0  0
   59.2295   31.4455   45.5250 H   0  0  0  0  0  0  0  0  0  0  0  0
   57.7522   31.6947   43.9843 H   0  0  0  0  0  0  0  0  0  0  0  0
   56.8727   32.9324   43.0245 H   0  0  0  0  0  0  0  0  0  0  0  0
   58.6688   32.9052   43.0245 H   0  0  0  0  0  0  0  0  0  0  0  0
   58.6044   35.6163   46.5094 H   0  0  0  0  0  0  0  0  0  0  0  0
   60.2980   35.4402   48.3224 H   0  0  0  0  0  0  0  0  0  0  0  0
  1  2  2  0
  2  3  1  0
  3  4  2  3
  4  5  1  0
  5  6  1  0
  6  7  1  0
  7  8  2  0
  7  9  1  0
  9 10  1  0
 10 11  1  0
  3 12  1  0
 12 13  2  0
 13 14  1  0
 13 15  1  0
 15 16  1  0
 16 17  1  0
 17 18  2  0
 18 19  1  0
 19 20  1  0
 20 21  1  0
 20 22  2  0
 19 23  2  0
 23 24  1  0
 24 25  2  0
 25 26  1  0
 15  2  1  0
 25 17  1  0
 10  5  2  0
  1 27  1  0
  1 28  1  0
  4 29  1  0
 12 30  1  0
 14 31  1  0
 14 32  1  0
 14 33  1  0
 16 34  1  0
 16 35  1  0
 18 36  1  0
 21 37  1  0
 21 38  1  0
 21 39  1  0
 23 40  1  0
 24 41  1  0
M  CHG  4   6  -1   9  -1  11  -1  26  -1
M  END
>  <UniqueID>  (31) 
30

>  <SMILES>  (31) 
C=c1c(=Cc2[n-]c(=O)[n-]c2[O-])cc(C)n1Cc1cc(C(C)=O)ccc1[O-]

>  <Energy>  (31) 
106.18906923002955

>  <Genealogy>  (31) 
C=c1c(=Cc2[n-]c(=O)[n-]c2[O-])cc(C)n1Cc1cc(C(C)=O)ccc1[O-] (protonated)
C=c1c(=Cc2[n-]c(=O)[n-]c2[O-])cc(C)n1Cc1cc(C(C)=O)ccc1[O-] (3D coordinates assigned)
C=c1c(=Cc2[n-]c(=O)[n-]c2[O-])cc(C)n1Cc1cc(C(C)=O)ccc1[O-] (optimized conformer: 106.18906923002955 kcal/mol)

>  <smiles>  (31) 
C=c1c(=Cc2[nH]c(=O)[nH]c2O)cc(C)n1Cc1cc(C(C)=O)ccc1O

>  <score_type>  (31) 
oracle

>  <origin>  (31) 
adg

>  <m_score__min__energy>  (31) 
-15.77

>  <m_primary>  (31) 
energy

$$$$
31:0
     RDKit          3D

 67 70  0  0  0  0  0  0  0  0999 V2000
   60.0600   29.2500   51.0500 O   0  0  0  0  0  0  0  0  0  0  0  0
   59.7140   29.8090   49.9740 C   0  0  0  0  0  0  0  0  0  0  0  0
   58.8870   29.0570   48.9830 C   0  0  0  0  0  0  0  0  0  0  0  0
   58.3390   29.9860   48.0030 N   0  0  0  0  0  0  0  0  0  0  0  0
   59.0890   30.5380   46.9130 C   0  0  0  0  0  0  0  0  0  0  0  0
   60.3440   30.6050   47.0070 O   0  0  0  0  0  0  0  0  0  0  0  0
   58.4230   31.0800   45.7120 C   0  0  0  0  0  0  0  0  0  0  0  0
   57.9770   32.4230   45.6550 C   0  0  0  0  0  0  0  0  0  0  0  0
   57.9960   33.2920   46.7950 N   0  0  0  0  0  0  0  0  0  0  0  0
   59.4130   34.1140   47.3620 S   0  0  0  0  0  0  0  0  0  0  0  0
   59.6100   33.8440   48.8290 O   0  0  0  0  0  0  0  0  0  0  0  0
   59.2670   35.5940   47.1350 O   0  0  0  0  0  0  0  0  0  0  0  0
   60.8240   33.5210   46.4460 C   0  0  0  0  0  0  0  0  0  0  0  0
   61.9820   33.2650   47.3700 C   0  0  0  0  0  0  0  0  0  0  0  0
   62.3170   34.2030   48.3620 C   0  0  0  0  0  0  0  0  0  0  0  0
   63.3740   33.9500   49.2420 C   0  0  0  0  0  0  0  0  0  0  0  0
   64.0960   32.7560   49.1460 C   0  0  0  0  0  0  0  0  0  0  0  0
   63.7600   31.8120   48.1700 C   0  0  0  0  0  0  0  0  0  0  0  0
   62.7040   32.0630   47.2860 C   0  0  0  0  0  0  0  0  0  0  0  0
   57.5020   32.9410   44.4450 C   0  0  0  0  0  0  0  0  0  0  0  0
   57.4030   32.1300   43.3150 C   0  0  0  0  0  0  0  0  0  0  0  0
   57.7830   30.7910   43.3800 C   0  0  0  0  0  0  0  0  0  0  0  0
   58.2950   30.2600   44.5700 C   0  0  0  0  0  0  0  0  0  0  0  0
   58.7330   28.8920   44.6000 N   0  0  0  0  0  0  0  0  0  0  0  0
   57.7730   27.8240   44.8990 C   0  0  0  0  0  0  0  0  0  0  0  0
   57.9980   27.2840   46.3110 C   0  0  0  0  0  0  0  0  0  0  0  0
   59.7040   26.8070   46.5120 S   0  0  0  0  0  0  0  0  0  0  0  0
   60.0120   26.5970   47.9680 O   0  0  0  0  0  0  0  0  0  0  0  0
   59.9730   25.5390   45.7510 O   0  0  0  0  0  0  0  0  0  0  0  0
   60.7080   28.1290   45.8600 C   0  0  0  0  0  0  0  0  0  0  0  0
   60.1630   28.5790   44.5040 C   0  0  0  0  0  0  0  0  0  0  0  0
   60.1000   31.1640   49.7020 N   0  0  0  0  0  0  0  0  0  0  0  0
   60.9730   31.9250   50.5920 C   0  0  0  0  0  0  0  0  0  0  0  0
   60.1510   32.7270   51.5650 C   0  0  0  0  0  0  0  0  0  0  0  0
   58.7480   32.7330   51.4720 C   0  0  0  0  0  0  0  0  0  0  0  0
   57.9840   33.4630   52.3890 C   0  0  0  0  0  0  0  0  0  0  0  0
   58.6130   34.1870   53.4060 C   0  0  0  0  0  0  0  0  0  0  0  0
   60.0070   34.1800   53.5110 C   0  0  0  0  0  0  0  0  0  0  0  0
   60.7760   33.4500   52.5980 C   0  0  0  0  0  0  0  0  0  0  0  0
   62.1290   33.4490   52.7200 F   0  0  0  0  0  0  0  0  0  0  0  0
   59.5147   28.3125   48.4715 H   0  0  0  0  0  0  0  0  0  0  0  0
   58.0639   28.5465   49.5045 H   0  0  0  0  0  0  0  0  0  0  0  0
   60.5558   32.5852   45.9339 H   0  0  0  0  0  0  0  0  0  0  0  0
   61.1176   34.2849   45.7110 H   0  0  0  0  0  0  0  0  0  0  0  0
   61.7457   35.1392   48.4463 H   0  0  0  0  0  0  0  0  0  0  0  0
   63.6380   34.6911   50.0108 H   0  0  0  0  0  0  0  0  0  0  0  0
   64.9281   32.5593   49.8380 H   0  0  0  0  0  0  0  0  0  0  0  0
   64.3260   30.8716   48.0971 H   0  0  0  0  0  0  0  0  0  0  0  0
   62.4387   31.3164   46.5230 H   0  0  0  0  0  0  0  0  0  0  0  0
   57.2038   33.9981   44.3846 H   0  0  0  0  0  0  0  0  0  0  0  0
   57.0243   32.5480   42.3706 H   0  0  0  0  0  0  0  0  0  0  0  0
   57.6803   30.1487   42.4930 H   0  0  0  0  0  0  0  0  0  0  0  0
   56.7510   28.2237   44.8226 H   0  0  0  0  0  0  0  0  0  0  0  0
   57.9142   27.0056   44.1777 H   0  0  0  0  0  0  0  0  0  0  0  0
   57.7486   28.0649   47.0444 H   0  0  0  0  0  0  0  0  0  0  0  0
   57.3548   26.4060   46.4703 H   0  0  0  0  0  0  0  0  0  0  0  0
   60.6915   28.9780   46.5593 H   0  0  0  0  0  0  0  0  0  0  0  0
   61.7401   27.7702   45.7335 H   0  0  0  0  0  0  0  0  0  0  0  0
   60.7081   29.4760   44.1750 H   0  0  0  0  0  0  0  0  0  0  0  0
   60.2994   27.7633   43.7787 H   0  0  0  0  0  0  0  0  0  0  0  0
   59.7520   31.6250   48.8310 H   0  0  0  0  0  0  0  0  0  0  0  0
   61.6193   31.2303   51.1484 H   0  0  0  0  0  0  0  0  0  0  0  0
   61.5885   32.6108   49.9912 H   0  0  0  0  0  0  0  0  0  0  0  0
   58.2492   32.1616   50.6753 H   0  0  0  0  0  0  0  0  0  0  0  0
   56.8869   33.4672   52.3096 H   0  0  0  0  0  0  0  0  0  0  0  0
   58.0106   34.7626   54.1242 H   0  0  0  0  0  0  0  0  0  0  0  0
   60.5001   34.7493   54.3127 H   0  0  0  0  0  0  0  0  0  0  0  0
  1  2  2  0
  2  3  1  0
  3  4  1  0
  4  5  1  0
  5  6  2  0
  5  7  1  0
  7  8  1  0
  8  9  1  0
  9 10  1  0
 10 11  2  0
 10 12  2  0
 10 13  1  0
 13 14  1  0
 14 15  2  0
 15 16  1  0
 16 17  2  0
 17 18  1  0
 18 19  2  0
  8 20  2  0
 20 21  1  0
 21 22  2  0
 22 23  1  0
 23 24  1  0
 24 25  1  0
 25 26  1  0
 26 27  1  0
 27 28  2  0
 27 29  2  0
 27 30  1  0
 30 31  1  0
  2 32  1  0
 32 33  1  0
 33 34  1  0
 34 35  2  0
 35 36  1  0
 36 37  2  0
 37 38  1  0
 38 39  2  0
 39 40  1  0
 23  7  2  0
 31 24  1  0
 39 34  1  0
 19 14  1  0
  3 41  1  0
  3 42  1  0
 13 43  1  0
 13 44  1  0
 15 45  1  0
 16 46  1  0
 17 47  1  0
 18 48  1  0
 19 49  1  0
 20 50  1  0
 21 51  1  0
 22 52  1  0
 25 53  1  0
 25 54  1  0
 26 55  1  0
 26 56  1  0
 30 57  1  0
 30 58  1  0
 31 59  1  0
 31 60  1  0
 32 61  1  0
 33 62  1  0
 33 63  1  0
 35 64  1  0
 36 65  1  0
 37 66  1  0
 38 67  1  0
M  CHG  2   4  -1   9  -1
M  END
>  <UniqueID>  (32) 
31

>  <SMILES>  (32) 
O=C(C[N-]C(=O)c1c([N-]S(=O)(=O)Cc2ccccc2)cccc1N1CCS(=O)(=O)CC1)NCc1ccccc1F

>  <Energy>  (32) 
71.78311671975541

>  <Genealogy>  (32) 
O=C(C[N-]C(=O)c1c([N-]S(=O)(=O)Cc2ccccc2)cccc1N1CCS(=O)(=O)CC1)NCc1ccccc1F (protonated)
O=C(C[N-]C(=O)c1c([N-]S(=O)(=O)Cc2ccccc2)cccc1N1CCS(=O)(=O)CC1)NCc1ccccc1F (3D coordinates assigned)
O=C(C[N-]C(=O)c1c([N-]S(=O)(=O)Cc2ccccc2)cccc1N1CCS(=O)(=O)CC1)NCc1ccccc1F (nonaromatic ring conformer: 71.78311671975541 kcal/mol)

>  <smiles>  (32) 
O=C(CNC(=O)c1c(NS(=O)(=O)Cc2ccccc2)cccc1N1CCS(=O)(=O)CC1)NCc1ccccc1F

>  <score_type>  (32) 
oracle

>  <origin>  (32) 
adg

>  <m_score__min__energy>  (32) 
-13.25

>  <m_primary>  (32) 
energy

$$$$
32:0
     RDKit          3D

 37 40  0  0  0  0  0  0  0  0999 V2000
   54.5930   27.0830   46.7520 H   0  0  0  0  0  0  0  0  0  0  0  0
   55.1970   26.7060   45.9870 N   0  0  0  0  0  0  0  0  0  0  0  0
   56.5240   27.1930   45.7940 C   0  0  0  0  0  0  0  0  0  0  0  0
   57.4940   26.4000   45.9230 O   0  0  0  0  0  0  0  0  0  0  0  0
   56.7610   28.6130   45.4480 C   0  0  0  0  0  0  0  0  0  0  0  0
   55.9310   29.2750   44.5000 C   0  0  0  0  0  0  0  0  0  0  0  0
   55.1064   28.7253   44.0227 H   0  0  0  0  0  0  0  0  0  0  0  0
   56.1520   30.6230   44.1660 C   0  0  0  0  0  0  0  0  0  0  0  0
   55.5155   31.1386   43.4318 H   0  0  0  0  0  0  0  0  0  0  0  0
   57.2020   31.2820   44.7950 C   0  0  0  0  0  0  0  0  0  0  0  0
   57.5940   32.5530   44.6250 N   0  0  0  0  0  0  0  0  0  0  0  0
   58.6450   32.6570   45.4790 C   0  0  0  0  0  0  0  0  0  0  0  0
   59.4420   33.8930   45.5860 C   0  0  0  0  0  0  0  0  0  0  0  0
   59.4748   34.5508   44.7049 H   0  0  0  0  0  0  0  0  0  0  0  0
   60.1290   34.2800   46.6680 C   0  0  0  0  0  0  0  0  0  0  0  0
   59.7294   35.1252   47.2475 H   0  0  0  0  0  0  0  0  0  0  0  0
   61.3810   33.6600   47.1430 C   0  0  0  0  0  0  0  0  0  0  0  0
   62.8990   33.9160   46.4580 S   0  0  0  0  0  0  0  0  0  0  0  0
   63.7080   32.7180   47.3120 C   0  0  0  0  0  0  0  0  0  0  0  0
   64.7804   32.4847   47.2377 H   0  0  0  0  0  0  0  0  0  0  0  0
   62.7890   32.0730   48.1280 C   0  0  0  0  0  0  0  0  0  0  0  0
   63.0589   31.2370   48.7900 H   0  0  0  0  0  0  0  0  0  0  0  0
   61.4810   32.5840   48.0330 C   0  0  0  0  0  0  0  0  0  0  0  0
   60.3490   32.0290   48.8120 C   0  0  0  0  0  0  0  0  0  0  0  0
   60.0880   30.6490   48.8170 C   0  0  0  0  0  0  0  0  0  0  0  0
   60.7299   29.9622   48.2458 H   0  0  0  0  0  0  0  0  0  0  0  0
   59.0080   30.1540   49.5520 C   0  0  0  0  0  0  0  0  0  0  0  0
   58.8019   29.0735   49.5634 H   0  0  0  0  0  0  0  0  0  0  0  0
   58.2110   31.0030   50.2530 N   0  0  0  0  0  0  0  0  0  0  0  0
   58.4340   32.3440   50.2600 C   0  0  0  0  0  0  0  0  0  0  0  0
   57.7720   33.0074   50.8360 H   0  0  0  0  0  0  0  0  0  0  0  0
   59.5010   32.8810   49.5380 C   0  0  0  0  0  0  0  0  0  0  0  0
   59.6769   33.9668   49.5377 H   0  0  0  0  0  0  0  0  0  0  0  0
   58.9390   31.5090   46.1470 N   0  0  0  0  0  0  0  0  0  0  0  0
   58.0030   30.6610   45.7000 C   0  0  0  0  0  0  0  0  0  0  0  0
   57.8200   29.3290   46.0580 C   0  0  0  0  0  0  0  0  0  0  0  0
   58.4792   28.8456   46.7940 H   0  0  0  0  0  0  0  0  0  0  0  0
  1  2  1  0
  2  3  1  0
  3  4  2  0
  3  5  1  0
  5  6  2  0
  6  7  1  0
  6  8  1  0
  8  9  1  0
  8 10  2  0
 10 11  1  0
 11 12  1  0
 12 13  1  0
 13 14  1  0
 13 15  2  0
 15 16  1  0
 15 17  1  0
 17 18  1  0
 18 19  1  0
 19 20  1  0
 19 21  2  0
 21 22  1  0
 21 23  1  0
 23 24  1  0
 24 25  2  0
 25 26  1  0
 25 27  1  0
 27 28  1  0
 27 29  2  0
 29 30  1  0
 30 31  1  0
 30 32  2  0
 32 33  1  0
 12 34  2  0
 34 35  1  0
 35 36  2  0
 36 37  1  0
 36  5  1  0
 35 10  1  0
 23 17  2  0
 32 24  1  0
M  CHG  2   2  -1  11  -1
M  END
>  <UniqueID>  (33) 
32

>  <SMILES>  (33) 
[NH-]C(=O)c1ccc2[n-]c(/C=C\c3sccc3-c3ccncc3)nc2c1

>  <Energy>  (33) 
114.57129996070522

>  <Genealogy>  (33) 
[NH-]C(=O)c1ccc2[n-]c(C=Cc3sccc3-c3ccncc3)nc2c1 (protonated)
[NH-]C(=O)c1ccc2[n-]c(/C=C\c3sccc3-c3ccncc3)nc2c1 (cis-trans isomerization)
[NH-]C(=O)c1ccc2[n-]c(/C=C\c3sccc3-c3ccncc3)nc2c1 (3D coordinates assigned)
[NH-]C(=O)c1ccc2[n-]c(/C=C\c3sccc3-c3ccncc3)nc2c1 (optimized conformer: 114.57129996070522 kcal/mol)

>  <smiles>  (33) 
NC(=O)c1ccc2[nH]c(C=Cc3sccc3-c3ccncc3)nc2c1

>  <score_type>  (33) 
oracle

>  <origin>  (33) 
adg

>  <m_score__min__energy>  (33) 
-12.32

>  <m_primary>  (33) 
energy

$$$$
33:0
     RDKit          3D

 92 97  0  0  0  0  0  0  0  0999 V2000
   58.4080   20.0980   54.4640 C   0  0  0  0  0  0  0  0  0  0  0  0
   57.0570   20.6650   54.1190 C   0  0  0  0  0  0  0  0  0  0  0  0
   55.9160   20.0310   54.6350 C   0  0  0  0  0  0  0  0  0  0  0  0
   54.6450   20.5630   54.4200 C   0  0  0  0  0  0  0  0  0  0  0  0
   54.4950   21.7460   53.7010 C   0  0  0  0  0  0  0  0  0  0  0  0
   55.6130   22.3680   53.1460 C   0  0  0  0  0  0  0  0  0  0  0  0
   56.9030   21.8170   53.2940 C   0  0  0  0  0  0  0  0  0  0  0  0
   58.0880   22.5630   52.7040 C   0  0  0  0  0  0  0  0  0  0  0  0
   58.7690   21.7860   51.6530 N   0  0  0  0  0  0  0  0  0  0  0  0
   60.2040   21.7490   51.5530 C   0  0  0  0  0  0  0  0  0  0  0  0
   60.7480   20.9520   50.7380 O   0  0  0  0  0  0  0  0  0  0  0  0
   61.0900   22.7080   52.3250 C   0  0  0  0  0  0  0  0  0  0  0  0
   61.1670   22.3380   53.8320 C   0  0  0  0  0  0  0  0  0  0  0  0
   60.9390   23.5360   54.7750 C   0  0  0  0  0  0  0  0  0  0  0  0
   61.7970   24.7470   54.3620 C   0  0  0  0  0  0  0  0  0  0  0  0
   61.6580   25.1240   52.8640 C   0  0  0  0  0  0  0  0  0  0  0  0
   60.7220   24.1900   52.0790 C   0  0  0  0  0  0  0  0  0  0  0  0
   58.0020   21.1390   50.6220 C   0  0  0  0  0  0  0  0  0  0  0  0
   58.1940   19.7780   50.3410 C   0  0  0  0  0  0  0  0  0  0  0  0
   57.3870   19.1310   49.4050 C   0  0  0  0  0  0  0  0  0  0  0  0
   56.4080   19.8440   48.7100 C   0  0  0  0  0  0  0  0  0  0  0  0
   56.2590   21.2310   48.9030 C   0  0  0  0  0  0  0  0  0  0  0  0
   55.2350   22.0420   48.1930 C   0  0  0  0  0  0  0  0  0  0  0  0
   55.3750   23.2830   47.7020 C   0  0  0  0  0  0  0  0  0  0  0  0
   54.7910   23.7710   46.4480 C   0  0  0  0  0  0  0  0  0  0  0  0
   53.5650   23.5900   46.2440 O   0  0  0  0  0  0  0  0  0  0  0  0
   55.6080   24.4380   45.4720 N   0  0  0  0  0  0  0  0  0  0  0  0
   57.0630   24.5880   45.5520 C   0  0  0  0  0  0  0  0  0  0  0  0
   57.4880   26.0310   45.7080 C   0  0  0  0  0  0  0  0  0  0  0  0
   58.8580   26.3580   45.7440 C   0  0  0  0  0  0  0  0  0  0  0  0
   59.2610   27.6880   45.8720 C   0  0  0  0  0  0  0  0  0  0  0  0
   58.3120   28.7050   45.9990 C   0  0  0  0  0  0  0  0  0  0  0  0
   58.7470   30.1020   46.1350 C   0  0  0  0  0  0  0  0  0  0  0  0
   58.2220   30.9850   45.4040 O   0  0  0  0  0  0  0  0  0  0  0  0
   59.7810   30.4660   47.0670 N   0  0  0  0  0  0  0  0  0  0  0  0
   61.1920   30.5170   46.6650 C   0  0  0  0  0  0  0  0  0  0  0  0
   61.9360   31.6100   47.4400 C   0  0  0  0  0  0  0  0  0  0  0  0
   61.4720   33.0240   47.0580 C   0  0  0  0  0  0  0  0  0  0  0  0
   60.0410   33.3430   47.5260 C   0  0  0  0  0  0  0  0  0  0  0  0
   59.5570   32.3920   48.6000 C   0  0  0  0  0  0  0  0  0  0  0  0
   59.2100   32.8890   49.8710 C   0  0  0  0  0  0  0  0  0  0  0  0
   58.7180   32.0300   50.8580 C   0  0  0  0  0  0  0  0  0  0  0  0
   58.5640   30.6660   50.5880 C   0  0  0  0  0  0  0  0  0  0  0  0
   58.9030   30.1590   49.3300 C   0  0  0  0  0  0  0  0  0  0  0  0
   59.4090   31.0120   48.3380 C   0  0  0  0  0  0  0  0  0  0  0  0
   56.9460   28.3900   45.9900 C   0  0  0  0  0  0  0  0  0  0  0  0
   56.5300   27.0620   45.8250 C   0  0  0  0  0  0  0  0  0  0  0  0
   55.1680   26.7730   45.7750 O   0  0  0  0  0  0  0  0  0  0  0  0
   57.0450   21.8610   49.8880 C   0  0  0  0  0  0  0  0  0  0  0  0
   58.5179   20.0519   55.5575 H   0  0  0  0  0  0  0  0  0  0  0  0
   58.4991   19.0857   54.0433 H   0  0  0  0  0  0  0  0  0  0  0  0
   59.1943   20.7421   54.0433 H   0  0  0  0  0  0  0  0  0  0  0  0
   56.0257   19.1034   55.2159 H   0  0  0  0  0  0  0  0  0  0  0  0
   53.7592   20.0471   54.8191 H   0  0  0  0  0  0  0  0  0  0  0  0
   53.4966   22.1891   53.5710 H   0  0  0  0  0  0  0  0  0  0  0  0
   55.4867   23.3046   52.5831 H   0  0  0  0  0  0  0  0  0  0  0  0
   57.7307   23.5085   52.2700 H   0  0  0  0  0  0  0  0  0  0  0  0
   58.8111   22.7415   53.5135 H   0  0  0  0  0  0  0  0  0  0  0  0
   62.1088   22.5922   51.9268 H   0  0  0  0  0  0  0  0  0  0  0  0
   60.3997   21.5786   54.0431 H   0  0  0  0  0  0  0  0  0  0  0  0
   62.1856   21.9683   54.0213 H   0  0  0  0  0  0  0  0  0  0  0  0
   59.8772   23.8213   54.7410 H   0  0  0  0  0  0  0  0  0  0  0  0
   61.2300   23.2362   55.7926 H   0  0  0  0  0  0  0  0  0  0  0  0
   61.4917   25.6126   54.9683 H   0  0  0  0  0  0  0  0  0  0  0  0
   62.8483   24.4696   54.5288 H   0  0  0  0  0  0  0  0  0  0  0  0
   61.2624   26.1483   52.7983 H   0  0  0  0  0  0  0  0  0  0  0  0
   62.6575   25.0322   52.4139 H   0  0  0  0  0  0  0  0  0  0  0  0
   59.6853   24.3626   52.4038 H   0  0  0  0  0  0  0  0  0  0  0  0
   60.8286   24.4057   51.0056 H   0  0  0  0  0  0  0  0  0  0  0  0
   58.9850   19.2181   50.8614 H   0  0  0  0  0  0  0  0  0  0  0  0
   57.5222   18.0562   49.2139 H   0  0  0  0  0  0  0  0  0  0  0  0
   55.7473   19.3176   48.0055 H   0  0  0  0  0  0  0  0  0  0  0  0
   54.2506   21.5712   48.0544 H   0  0  0  0  0  0  0  0  0  0  0  0
   55.9773   23.9927   48.2881 H   0  0  0  0  0  0  0  0  0  0  0  0
   57.4296   24.0166   46.4175 H   0  0  0  0  0  0  0  0  0  0  0  0
   57.4902   24.2134   44.6101 H   0  0  0  0  0  0  0  0  0  0  0  0
   59.6132   25.5616   45.6709 H   0  0  0  0  0  0  0  0  0  0  0  0
   60.3325   27.9369   45.8729 H   0  0  0  0  0  0  0  0  0  0  0  0
   61.6619   29.5441   46.8716 H   0  0  0  0  0  0  0  0  0  0  0  0
   61.2459   30.7458   45.5904 H   0  0  0  0  0  0  0  0  0  0  0  0
   61.7614   31.4603   48.5157 H   0  0  0  0  0  0  0  0  0  0  0  0
   63.0037   31.5298   47.1877 H   0  0  0  0  0  0  0  0  0  0  0  0
   62.1589   33.7519   47.5144 H   0  0  0  0  0  0  0  0  0  0  0  0
   61.4758   33.0822   45.9595 H   0  0  0  0  0  0  0  0  0  0  0  0
   60.0209   34.3673   47.9266 H   0  0  0  0  0  0  0  0  0  0  0  0
   59.3736   33.2350   46.6583 H   0  0  0  0  0  0  0  0  0  0  0  0
   59.3269   33.9609   50.0888 H   0  0  0  0  0  0  0  0  0  0  0  0
   58.4515   32.4272   51.8486 H   0  0  0  0  0  0  0  0  0  0  0  0
   58.1760   29.9920   51.3659 H   0  0  0  0  0  0  0  0  0  0  0  0
   58.7725   29.0877   49.1174 H   0  0  0  0  0  0  0  0  0  0  0  0
   56.1985   29.1876   46.1128 H   0  0  0  0  0  0  0  0  0  0  0  0
   56.9077   22.9343   50.0857 H   0  0  0  0  0  0  0  0  0  0  0  0
  1  2  1  0
  2  3  2  0
  3  4  1  0
  4  5  2  0
  5  6  1  0
  6  7  2  0
  7  8  1  0
  8  9  1  0
  9 10  1  0
 10 11  2  0
 10 12  1  0
 12 13  1  0
 13 14  1  0
 14 15  1  0
 15 16  1  0
 16 17  1  0
  9 18  1  0
 18 19  2  0
 19 20  1  0
 20 21  2  0
 21 22  1  0
 22 23  1  0
 23 24  2  3
 24 25  1  0
 25 26  2  0
 25 27  1  0
 27 28  1  0
 28 29  1  0
 29 30  2  0
 30 31  1  0
 31 32  2  0
 32 33  1  0
 33 34  2  0
 33 35  1  0
 35 36  1  0
 36 37  1  0
 37 38  1  0
 38 39  1  0
 39 40  1  0
 40 41  2  0
 41 42  1  0
 42 43  2  0
 43 44  1  0
 44 45  2  0
 32 46  1  0
 46 47  2  0
 47 48  1  0
 22 49  2  0
  7  2  1  0
 17 12  1  0
 49 18  1  0
 47 29  1  0
 45 35  1  0
 45 40  1  0
  1 50  1  0
  1 51  1  0
  1 52  1  0
  3 53  1  0
  4 54  1  0
  5 55  1  0
  6 56  1  0
  8 57  1  0
  8 58  1  0
 12 59  1  0
 13 60  1  0
 13 61  1  0
 14 62  1  0
 14 63  1  0
 15 64  1  0
 15 65  1  0
 16 66  1  0
 16 67  1  0
 17 68  1  0
 17 69  1  0
 19 70  1  0
 20 71  1  0
 21 72  1  0
 23 73  1  0
 24 74  1  0
 28 75  1  0
 28 76  1  0
 30 77  1  0
 31 78  1  0
 36 79  1  0
 36 80  1  0
 37 81  1  0
 37 82  1  0
 38 83  1  0
 38 84  1  0
 39 85  1  0
 39 86  1  0
 41 87  1  0
 42 88  1  0
 43 89  1  0
 44 90  1  0
 46 91  1  0
 49 92  1  0
M  CHG  2  27  -1  48  -1
M  END
>  <UniqueID>  (34) 
33

>  <SMILES>  (34) 
Cc1ccccc1CN(C(=O)C1CCCCC1)c1cccc(C=CC(=O)[N-]Cc2ccc(C(=O)N3CCCCc4ccccc43)cc2[O-])c1

>  <Energy>  (34) 
138.95146823728393

>  <Genealogy>  (34) 
Cc1ccccc1CN(C(=O)C1CCCCC1)c1cccc(C=CC(=O)[N-]Cc2ccc(C(=O)N3CCCCc4ccccc43)cc2[O-])c1 (protonated)
Cc1ccccc1CN(C(=O)C1CCCCC1)c1cccc(C=CC(=O)[N-]Cc2ccc(C(=O)N3CCCCc4ccccc43)cc2[O-])c1 (3D coordinates assigned)
Cc1ccccc1CN(C(=O)C1CCCCC1)c1cccc(C=CC(=O)[N-]Cc2ccc(C(=O)N3CCCCc4ccccc43)cc2[O-])c1 (nonaromatic ring conformer: 138.95146823728393 kcal/mol)

>  <smiles>  (34) 
Cc1ccccc1CN(C(=O)C1CCCCC1)c1cccc(C=CC(=O)NCc2ccc(C(=O)N3CCCCc4ccccc43)cc2O)c1

>  <score_type>  (34) 
oracle

>  <origin>  (34) 
adg

>  <m_score__min__energy>  (34) 
-14.449999999999999

>  <m_primary>  (34) 
energy

$$$$
34:0
     RDKit          3D

 53 56  0  0  0  0  0  0  0  0999 V2000
   58.4870   32.3360   52.3520 C   0  0  0  0  0  0  0  0  0  0  0  0
   57.8860   31.9480   51.0020 C   0  0  0  0  0  0  0  0  0  0  0  0
   58.9270   31.8220   49.9730 N   0  0  0  0  0  0  0  0  0  0  0  0
   59.3470   30.5300   49.4860 C   0  0  0  0  0  0  0  0  0  0  0  0
   60.1780   29.7030   50.2650 C   0  0  0  0  0  0  0  0  0  0  0  0
   60.5720   28.4480   49.7910 C   0  0  0  0  0  0  0  0  0  0  0  0
   60.1420   28.0040   48.5390 C   0  0  0  0  0  0  0  0  0  0  0  0
   59.3170   28.8160   47.7570 C   0  0  0  0  0  0  0  0  0  0  0  0
   58.9200   30.0720   48.2270 C   0  0  0  0  0  0  0  0  0  0  0  0
   59.7430   33.2660   49.4380 S   0  0  0  0  0  0  0  0  0  0  0  0
   61.2340   33.0870   49.5210 O   0  0  0  0  0  0  0  0  0  0  0  0
   59.3470   34.4000   50.3430 O   0  0  0  0  0  0  0  0  0  0  0  0
   59.2970   33.6460   47.7770 C   0  0  0  0  0  0  0  0  0  0  0  0
   59.9440   34.6800   47.0870 C   0  0  0  0  0  0  0  0  0  0  0  0
   59.5910   34.9700   45.7680 C   0  0  0  0  0  0  0  0  0  0  0  0
   58.5810   34.2430   45.1340 C   0  0  0  0  0  0  0  0  0  0  0  0
   57.9010   33.2260   45.8270 C   0  0  0  0  0  0  0  0  0  0  0  0
   56.8620   32.4480   45.2120 N   0  0  0  0  0  0  0  0  0  0  0  0
   57.0330   31.4190   44.2290 C   0  0  0  0  0  0  0  0  0  0  0  0
   57.2790   31.7100   43.0280 O   0  0  0  0  0  0  0  0  0  0  0  0
   56.8620   30.0150   44.6180 C   0  0  0  0  0  0  0  0  0  0  0  0
   57.8670   29.0660   44.7000 C   0  0  0  0  0  0  0  0  0  0  0  0
   57.1960   27.9230   45.0950 C   0  0  0  0  0  0  0  0  0  0  0  0
   57.7130   26.7540   45.3390 N   0  0  0  0  0  0  0  0  0  0  0  0
   56.9770   25.5700   45.6770 C   0  0  0  0  0  0  0  0  0  0  0  0
   55.9340   25.6810   46.3740 O   0  0  0  0  0  0  0  0  0  0  0  0
   57.3690   24.2420   45.1680 C   0  0  0  0  0  0  0  0  0  0  0  0
   56.7030   23.5220   44.1830 C   0  0  0  0  0  0  0  0  0  0  0  0
   57.3240   22.3070   43.8670 C   0  0  0  0  0  0  0  0  0  0  0  0
   58.4860   22.0700   44.5910 C   0  0  0  0  0  0  0  0  0  0  0  0
   58.7400   23.3740   45.6220 S   0  0  0  0  0  0  0  0  0  0  0  0
   55.8900   28.1940   45.2500 N   0  0  0  0  0  0  0  0  0  0  0  0
   55.6750   29.4670   44.9570 N   0  0  0  0  0  0  0  0  0  0  0  0
   58.2780   32.9210   47.1410 C   0  0  0  0  0  0  0  0  0  0  0  0
   57.8613   31.9321   53.1616 H   0  0  0  0  0  0  0  0  0  0  0  0
   59.5033   31.9231   52.4332 H   0  0  0  0  0  0  0  0  0  0  0  0
   58.5290   33.4322   52.4332 H   0  0  0  0  0  0  0  0  0  0  0  0
   57.3649   30.9848   51.1049 H   0  0  0  0  0  0  0  0  0  0  0  0
   57.1850   32.7375   50.6932 H   0  0  0  0  0  0  0  0  0  0  0  0
   60.5195   30.0462   51.2527 H   0  0  0  0  0  0  0  0  0  0  0  0
   61.2224   27.8088   50.4061 H   0  0  0  0  0  0  0  0  0  0  0  0
   60.4525   27.0158   48.1688 H   0  0  0  0  0  0  0  0  0  0  0  0
   58.9791   28.4670   46.7701 H   0  0  0  0  0  0  0  0  0  0  0  0
   58.2690   30.7061   47.6073 H   0  0  0  0  0  0  0  0  0  0  0  0
   60.7314   35.2641   47.5857 H   0  0  0  0  0  0  0  0  0  0  0  0
   60.1102   35.7741   45.2259 H   0  0  0  0  0  0  0  0  0  0  0  0
   58.3168   34.4666   44.0899 H   0  0  0  0  0  0  0  0  0  0  0  0
   58.9412   29.1912   44.4992 H   0  0  0  0  0  0  0  0  0  0  0  0
   55.7791   23.8720   43.6993 H   0  0  0  0  0  0  0  0  0  0  0  0
   56.9291   21.6065   43.1165 H   0  0  0  0  0  0  0  0  0  0  0  0
   59.1293   21.1819   44.5046 H   0  0  0  0  0  0  0  0  0  0  0  0
   55.1460   27.5260   45.5500 H   0  0  0  0  0  0  0  0  0  0  0  0
   57.7710   32.1063   47.6788 H   0  0  0  0  0  0  0  0  0  0  0  0
  1  2  1  0
  2  3  1  0
  3  4  1  0
  4  5  2  0
  5  6  1  0
  6  7  2  0
  7  8  1  0
  8  9  2  0
  3 10  1  0
 10 11  2  0
 10 12  2  0
 10 13  1  0
 13 14  2  0
 14 15  1  0
 15 16  2  0
 16 17  1  0
 17 18  1  0
 18 19  1  0
 19 20  2  0
 19 21  1  0
 21 22  2  0
 22 23  1  0
 23 24  2  3
 24 25  1  0
 25 26  2  0
 25 27  1  0
 27 28  2  0
 28 29  1  0
 29 30  2  0
 30 31  1  0
 23 32  1  0
 32 33  1  0
 17 34  2  0
  9  4  1  0
 34 13  1  0
 33 21  1  0
 31 27  1  0
  1 35  1  0
  1 36  1  0
  1 37  1  0
  2 38  1  0
  2 39  1  0
  5 40  1  0
  6 41  1  0
  7 42  1  0
  8 43  1  0
  9 44  1  0
 14 45  1  0
 15 46  1  0
 16 47  1  0
 22 48  1  0
 28 49  1  0
 29 50  1  0
 30 51  1  0
 32 52  1  0
 34 53  1  0
M  CHG  2  18  -1  33  -1
M  END
>  <UniqueID>  (35) 
34

>  <SMILES>  (35) 
CCN(c1ccccc1)S(=O)(=O)c1cccc([N-]C(=O)c2cc(=NC(=O)c3cccs3)[nH][n-]2)c1

>  <Energy>  (35) 
125.82992163667153

>  <Genealogy>  (35) 
CCN(c1ccccc1)S(=O)(=O)c1cccc([N-]C(=O)c2cc(=NC(=O)c3cccs3)[nH][n-]2)c1 (protonated)
CCN(c1ccccc1)S(=O)(=O)c1cccc([N-]C(=O)c2cc(=NC(=O)c3cccs3)[nH][n-]2)c1 (3D coordinates assigned)
CCN(c1ccccc1)S(=O)(=O)c1cccc([N-]C(=O)c2cc(=NC(=O)c3cccs3)[nH][n-]2)c1 (optimized conformer: 125.82992163667153 kcal/mol)

>  <smiles>  (35) 
CCN(c1ccccc1)S(=O)(=O)c1cccc(NC(=O)c2cc(=NC(=O)c3cccs3)[nH][nH]2)c1

>  <score_type>  (35) 
oracle

>  <origin>  (35) 
adg

>  <m_score__min__energy>  (35) 
-13.99

>  <m_primary>  (35) 
energy

$$$$
35:0
     RDKit          3D

 49 52  0  0  0  0  0  0  0  0999 V2000
   61.5800   29.7360   49.6000 N   0  0  0  0  0  0  0  0  0  0  0  0
   60.5520   29.7680   48.6020 C   0  0  0  0  0  0  0  0  0  0  0  0
   59.7750   28.6300   48.3750 C   0  0  0  0  0  0  0  0  0  0  0  0
   58.7790   28.6150   47.3780 C   0  0  0  0  0  0  0  0  0  0  0  0
   58.0080   27.4600   47.1660 C   0  0  0  0  0  0  0  0  0  0  0  0
   58.2060   26.4320   47.8720 O   0  0  0  0  0  0  0  0  0  0  0  0
   57.0190   27.4510   46.1710 C   0  0  0  0  0  0  0  0  0  0  0  0
   56.1700   26.2550   45.9090 C   0  0  0  0  0  0  0  0  0  0  0  0
   56.6850   25.1460   45.6040 O   0  0  0  0  0  0  0  0  0  0  0  0
   54.7860   26.3430   45.9950 O   0  0  0  0  0  0  0  0  0  0  0  0
   56.8300   28.6060   45.4040 C   0  0  0  0  0  0  0  0  0  0  0  0
   57.5760   29.7440   45.5890 N   0  0  0  0  0  0  0  0  0  0  0  0
   57.2560   30.8840   44.6810 C   0  0  0  0  0  0  0  0  0  0  0  0
   58.4910   31.6240   44.1670 C   0  0  0  0  0  0  0  0  0  0  0  0
   58.1150   32.1130   42.7750 C   0  0  0  0  0  0  0  0  0  0  0  0
   57.0200   31.1840   42.2560 C   0  0  0  0  0  0  0  0  0  0  0  0
   56.3940   30.4990   43.4710 C   0  0  0  0  0  0  0  0  0  0  0  0
   58.5510   29.7690   46.5780 C   0  0  0  0  0  0  0  0  0  0  0  0
   59.3440   30.9120   46.8370 C   0  0  0  0  0  0  0  0  0  0  0  0
   60.3260   30.9180   47.8340 C   0  0  0  0  0  0  0  0  0  0  0  0
   61.0870   32.1120   48.0600 N   0  0  0  0  0  0  0  0  0  0  0  0
   60.5570   33.1190   48.9830 C   0  0  0  0  0  0  0  0  0  0  0  0
   61.4990   34.3250   49.0670 C   0  0  0  0  0  0  0  0  0  0  0  0
   62.8950   33.8770   49.1100 N   0  0  0  0  0  0  0  0  0  0  0  0
   63.3090   33.2090   47.8620 C   0  0  0  0  0  0  0  0  0  0  0  0
   62.1690   32.4630   47.1350 C   0  0  0  0  0  0  0  0  0  0  0  0
   62.1890   30.5680   49.7640 H   0  0  0  0  0  0  0  0  0  0  0  0
   61.7260   28.9000   50.2090 H   0  0  0  0  0  0  0  0  0  0  0  0
   59.9432   27.7300   48.9847 H   0  0  0  0  0  0  0  0  0  0  0  0
   56.0548   28.6022   44.6236 H   0  0  0  0  0  0  0  0  0  0  0  0
   56.6749   31.5536   45.3321 H   0  0  0  0  0  0  0  0  0  0  0  0
   58.7314   32.4742   44.8223 H   0  0  0  0  0  0  0  0  0  0  0  0
   59.3796   30.9759   44.1482 H   0  0  0  0  0  0  0  0  0  0  0  0
   57.7411   33.1462   42.8258 H   0  0  0  0  0  0  0  0  0  0  0  0
   58.9882   32.1025   42.1061 H   0  0  0  0  0  0  0  0  0  0  0  0
   56.2574   31.7649   41.7166 H   0  0  0  0  0  0  0  0  0  0  0  0
   57.4363   30.4405   41.5603 H   0  0  0  0  0  0  0  0  0  0  0  0
   55.3609   30.8486   43.6139 H   0  0  0  0  0  0  0  0  0  0  0  0
   56.3597   29.4076   43.3383 H   0  0  0  0  0  0  0  0  0  0  0  0
   59.1842   31.8208   46.2382 H   0  0  0  0  0  0  0  0  0  0  0  0
   59.5722   33.4541   48.6254 H   0  0  0  0  0  0  0  0  0  0  0  0
   60.4669   32.6699   49.9831 H   0  0  0  0  0  0  0  0  0  0  0  0
   61.3499   34.9644   48.1844 H   0  0  0  0  0  0  0  0  0  0  0  0
   61.2759   34.8908   49.9835 H   0  0  0  0  0  0  0  0  0  0  0  0
   63.0070   33.2050   49.9070 H   0  0  0  0  0  0  0  0  0  0  0  0
   63.7121   33.9719   47.1797 H   0  0  0  0  0  0  0  0  0  0  0  0
   64.0549   32.4506   48.1419 H   0  0  0  0  0  0  0  0  0  0  0  0
   61.7664   33.1098   46.3416 H   0  0  0  0  0  0  0  0  0  0  0  0
   62.5775   31.5342   46.7102 H   0  0  0  0  0  0  0  0  0  0  0  0
  1  2  1  0
  2  3  2  0
  3  4  1  0
  4  5  1  0
  5  6  2  0
  5  7  1  0
  7  8  1  0
  8  9  2  0
  8 10  1  0
  7 11  2  0
 11 12  1  0
 12 13  1  0
 13 14  1  0
 14 15  1  0
 15 16  1  0
 16 17  1  0
 12 18  1  0
 18 19  1  0
 19 20  2  0
 20 21  1  0
 21 22  1  0
 22 23  1  0
 23 24  1  0
 24 25  1  0
 25 26  1  0
 20  2  1  0
 26 21  1  0
 18  4  2  0
 17 13  1  0
  1 27  1  0
  1 28  1  0
  3 29  1  0
 11 30  1  0
 13 31  1  0
 14 32  1  0
 14 33  1  0
 15 34  1  0
 15 35  1  0
 16 36  1  0
 16 37  1  0
 17 38  1  0
 17 39  1  0
 19 40  1  0
 22 41  1  0
 22 42  1  0
 23 43  1  0
 23 44  1  0
 24 45  1  0
 25 46  1  0
 25 47  1  0
 26 48  1  0
 26 49  1  0
M  CHG  1  10  -1
M  END
>  <UniqueID>  (36) 
35

>  <SMILES>  (36) 
Nc1cc2c(=O)c(C(=O)[O-])cn(C3CCCC3)c2cc1N1CCNCC1

>  <Energy>  (36) 
78.76163754524212

>  <Genealogy>  (36) 
Nc1cc2c(=O)c(C(=O)[O-])cn(C3CCCC3)c2cc1N1CCNCC1 (protonated)
Nc1cc2c(=O)c(C(=O)[O-])cn(C3CCCC3)c2cc1N1CCNCC1 (3D coordinates assigned)
Nc1cc2c(=O)c(C(=O)[O-])cn(C3CCCC3)c2cc1N1CCNCC1 (nonaromatic ring conformer: 78.76163754524212 kcal/mol)

>  <smiles>  (36) 
Nc1cc2c(=O)c(C(=O)O)cn(C3CCCC3)c2cc1N1CCNCC1

>  <score_type>  (36) 
oracle

>  <origin>  (36) 
adg

>  <m_score__min__energy>  (36) 
-10.1

>  <m_primary>  (36) 
energy

$$$$
36:0
     RDKit          3D

 43 45  0  0  0  0  0  0  0  0999 V2000
   55.8750   29.8130   44.9980 O   0  0  0  0  0  0  0  0  0  0  0  0
   57.1630   30.2390   44.6340 C   0  0  1  0  0  0  0  0  0  0  0  0
   57.3770   31.6710   45.1990 C   0  0  0  0  0  0  0  0  0  0  0  0
   58.6400   31.9260   45.9460 N   0  0  2  0  0  0  0  0  0  0  0  0
   58.6220   31.4370   47.3390 C   0  0  0  0  0  0  0  0  0  0  0  0
   59.9480   31.6640   48.0210 C   0  0  0  0  0  0  0  0  0  0  0  0
   60.7830   32.6570   47.6560 C   0  0  0  0  0  0  0  0  0  0  0  0
   62.0190   32.9240   48.4410 C   0  0  0  0  0  0  0  0  0  0  0  0
   63.1850   32.1610   48.2290 C   0  0  0  0  0  0  0  0  0  0  0  0
   64.3400   32.4070   48.9770 C   0  0  0  0  0  0  0  0  0  0  0  0
   64.3470   33.4110   49.9490 C   0  0  0  0  0  0  0  0  0  0  0  0
   65.7980   33.7170   50.8860 Cl  0  0  0  0  0  0  0  0  0  0  0  0
   63.1960   34.1690   50.1750 C   0  0  0  0  0  0  0  0  0  0  0  0
   62.0370   33.9270   49.4300 C   0  0  0  0  0  0  0  0  0  0  0  0
   60.5300   33.4470   46.3850 C   0  0  0  0  0  0  0  0  0  0  0  0
   59.0760   33.3380   45.9080 C   0  0  0  0  0  0  0  0  0  0  0  0
   58.1740   29.2390   45.1520 C   0  0  0  0  0  0  0  0  0  0  0  0
   59.4770   29.2090   44.6230 C   0  0  0  0  0  0  0  0  0  0  0  0
   60.4120   28.2870   45.1010 C   0  0  0  0  0  0  0  0  0  0  0  0
   60.0540   27.3800   46.1010 C   0  0  0  0  0  0  0  0  0  0  0  0
   60.9640   26.4870   46.5640 F   0  0  0  0  0  0  0  0  0  0  0  0
   58.7580   27.3910   46.6220 C   0  0  0  0  0  0  0  0  0  0  0  0
   57.8180   28.3110   46.1480 C   0  0  0  0  0  0  0  0  0  0  0  0
   55.8650   29.7310   45.9890 H   0  0  0  0  0  0  0  0  0  0  0  0
   57.2889   30.2873   43.5423 H   0  0  0  0  0  0  0  0  0  0  0  0
   57.3479   32.3696   44.3498 H   0  0  0  0  0  0  0  0  0  0  0  0
   56.5764   31.8057   45.9412 H   0  0  0  0  0  0  0  0  0  0  0  0
   59.3690   31.3680   45.4380 H   0  0  0  0  0  0  0  0  0  0  0  0
   57.8377   31.9712   47.8954 H   0  0  0  0  0  0  0  0  0  0  0  0
   58.4226   30.3553   47.3228 H   0  0  0  0  0  0  0  0  0  0  0  0
   60.2435   30.9966   48.8440 H   0  0  0  0  0  0  0  0  0  0  0  0
   63.1861   31.3658   47.4690 H   0  0  0  0  0  0  0  0  0  0  0  0
   65.2459   31.8086   48.8000 H   0  0  0  0  0  0  0  0  0  0  0  0
   63.2008   34.9585   50.9409 H   0  0  0  0  0  0  0  0  0  0  0  0
   61.1327   34.5245   49.6179 H   0  0  0  0  0  0  0  0  0  0  0  0
   60.7609   34.5055   46.5752 H   0  0  0  0  0  0  0  0  0  0  0  0
   61.1736   33.0292   45.5968 H   0  0  0  0  0  0  0  0  0  0  0  0
   58.4300   33.9373   46.5664 H   0  0  0  0  0  0  0  0  0  0  0  0
   59.0037   33.7123   44.8762 H   0  0  0  0  0  0  0  0  0  0  0  0
   59.7615   29.9150   43.8289 H   0  0  0  0  0  0  0  0  0  0  0  0
   61.4318   28.2755   44.6889 H   0  0  0  0  0  0  0  0  0  0  0  0
   58.4763   26.6740   47.4072 H   0  0  0  0  0  0  0  0  0  0  0  0
   56.7962   28.3094   46.5553 H   0  0  0  0  0  0  0  0  0  0  0  0
  1  2  1  0
  2  3  1  0
  3  4  1  0
  4  5  1  0
  5  6  1  0
  6  7  2  0
  7  8  1  0
  8  9  2  0
  9 10  1  0
 10 11  2  0
 11 12  1  0
 11 13  1  0
 13 14  2  0
  7 15  1  0
 15 16  1  0
  2 17  1  0
 17 18  2  0
 18 19  1  0
 19 20  2  0
 20 21  1  0
 20 22  1  0
 22 23  2  0
 16  4  1  0
 23 17  1  0
 14  8  1  0
  1 24  1  0
  2 25  1  6
  3 26  1  0
  3 27  1  0
  4 28  1  6
  5 29  1  0
  5 30  1  0
  6 31  1  0
  9 32  1  0
 10 33  1  0
 13 34  1  0
 14 35  1  0
 15 36  1  0
 15 37  1  0
 16 38  1  0
 16 39  1  0
 18 40  1  0
 19 41  1  0
 22 42  1  0
 23 43  1  0
M  CHG  1   4   1
M  END
>  <UniqueID>  (37) 
36

>  <SMILES>  (37) 
O[C@@H](C[N@@H+]1CC=C(c2ccc(Cl)cc2)CC1)c1ccc(F)cc1

>  <Energy>  (37) 
57.15934164552786

>  <Genealogy>  (37) 
OC(C[NH+]1CC=C(c2ccc(Cl)cc2)CC1)c1ccc(F)cc1 (protonated)
O[C@@H](C[N@@H+]1CC=C(c2ccc(Cl)cc2)CC1)c1ccc(F)cc1 (chirality)
O[C@@H](C[N@@H+]1CC=C(c2ccc(Cl)cc2)CC1)c1ccc(F)cc1 (3D coordinates assigned)
O[C@@H](C[N@@H+]1CC=C(c2ccc(Cl)cc2)CC1)c1ccc(F)cc1 (nonaromatic ring conformer: 57.15934164552786 kcal/mol)

>  <smiles>  (37) 
OC(CN1CC=C(c2ccc(Cl)cc2)CC1)c1ccc(F)cc1

>  <score_type>  (37) 
oracle

>  <origin>  (37) 
adg

>  <m_score__min__energy>  (37) 
-6.1799999999999997

>  <m_primary>  (37) 
energy

$$$$
37:0
     RDKit          3D

 50 53  0  0  0  0  0  0  0  0999 V2000
   61.1638   29.8580   48.4013 H   0  0  0  0  0  0  0  0  0  0  0  0
   61.1330   30.8190   47.8670 C   0  0  0  0  0  0  0  0  0  0  0  0
   60.0660   31.0230   47.0760 C   0  0  0  0  0  0  0  0  0  0  0  0
   58.7160   32.1460   47.3860 S   0  0  0  0  0  0  0  0  0  0  0  0
   58.2930   31.9420   45.6520 C   0  0  0  0  0  0  0  0  0  0  0  0
   57.9320   33.1040   44.8790 S   0  0  0  0  0  0  0  0  0  0  0  0
   58.7560   30.7280   45.0120 N   0  0  2  0  0  0  0  0  0  0  0  0
   59.0280   30.8900   44.0100 H   0  0  0  0  0  0  0  0  0  0  0  0
   57.7200   29.7030   45.0700 C   0  0  0  0  0  0  0  0  0  0  0  0
   56.5550   30.0140   44.8510 O   0  0  0  0  0  0  0  0  0  0  0  0
   58.0270   28.2230   45.1930 C   0  0  0  0  0  0  0  0  0  0  0  0
   57.9453   27.7593   44.1989 H   0  0  0  0  0  0  0  0  0  0  0  0
   59.0447   28.1190   45.5974 H   0  0  0  0  0  0  0  0  0  0  0  0
   57.0600   27.5140   46.1520 C   0  0  0  0  0  0  0  0  0  0  0  0
   57.4889   27.5316   47.1648 H   0  0  0  0  0  0  0  0  0  0  0  0
   56.0977   28.0457   46.1158 H   0  0  0  0  0  0  0  0  0  0  0  0
   56.8120   26.0770   45.7530 C   0  0  0  0  0  0  0  0  0  0  0  0
   57.9040   25.2430   45.4550 C   0  0  0  0  0  0  0  0  0  0  0  0
   58.9285   25.6360   45.5322 H   0  0  0  0  0  0  0  0  0  0  0  0
   57.6970   23.9200   45.0620 C   0  0  0  0  0  0  0  0  0  0  0  0
   58.5574   23.2773   44.8241 H   0  0  0  0  0  0  0  0  0  0  0  0
   56.4000   23.4100   44.9700 C   0  0  0  0  0  0  0  0  0  0  0  0
   56.2387   22.3701   44.6498 H   0  0  0  0  0  0  0  0  0  0  0  0
   55.3080   24.2220   45.2850 C   0  0  0  0  0  0  0  0  0  0  0  0
   54.2877   23.8153   45.2255 H   0  0  0  0  0  0  0  0  0  0  0  0
   55.5070   25.5510   45.6760 C   0  0  0  0  0  0  0  0  0  0  0  0
   54.4020   26.3370   45.9870 O   0  0  0  0  0  0  0  0  0  0  0  0
   59.9290   30.3870   45.7650 C   0  0  0  0  0  0  0  0  0  0  0  0
   60.8430   29.6700   45.2710 O   0  0  0  0  0  0  0  0  0  0  0  0
   62.2700   31.7330   48.1040 C   0  0  0  0  0  0  0  0  0  0  0  0
   62.6390   32.0510   49.3230 O   0  0  0  0  0  0  0  0  0  0  0  0
   63.6350   32.9040   49.2700 C   0  0  0  0  0  0  0  0  0  0  0  0
   64.3080   33.4840   50.4640 C   0  0  0  0  0  0  0  0  0  0  0  0
   63.6340   34.4630   51.2220 C   0  0  0  0  0  0  0  0  0  0  0  0
   62.6253   34.7830   50.9217 H   0  0  0  0  0  0  0  0  0  0  0  0
   64.2300   35.0310   52.3480 C   0  0  0  0  0  0  0  0  0  0  0  0
   63.6886   35.7899   52.9320 H   0  0  0  0  0  0  0  0  0  0  0  0
   65.5090   34.6390   52.7340 C   0  0  0  0  0  0  0  0  0  0  0  0
   65.9775   35.0900   53.6212 H   0  0  0  0  0  0  0  0  0  0  0  0
   66.1970   33.6750   51.9970 C   0  0  0  0  0  0  0  0  0  0  0  0
   67.2112   33.3785   52.3026 H   0  0  0  0  0  0  0  0  0  0  0  0
   65.6090   33.0780   50.8680 C   0  0  0  0  0  0  0  0  0  0  0  0
   66.3870   32.0180   50.1300 C   0  0  0  0  0  0  0  0  0  0  0  0
   66.8765   31.3510   50.8549 H   0  0  0  0  0  0  0  0  0  0  0  0
   65.7020   31.4334   49.4983 H   0  0  0  0  0  0  0  0  0  0  0  0
   67.1501   32.4963   49.4983 H   0  0  0  0  0  0  0  0  0  0  0  0
   63.9390   33.1650   47.9450 C   0  0  0  0  0  0  0  0  0  0  0  0
   64.7238   33.8374   47.5682 H   0  0  0  0  0  0  0  0  0  0  0  0
   63.0630   32.4150   47.1930 C   0  0  0  0  0  0  0  0  0  0  0  0
   63.0041   32.3666   46.0956 H   0  0  0  0  0  0  0  0  0  0  0  0
  1  2  1  0
  2  3  2  0
  3  4  1  0
  4  5  1  0
  5  6  2  0
  5  7  1  0
  7  8  1  6
  7  9  1  0
  9 10  2  0
  9 11  1  0
 11 12  1  0
 11 13  1  0
 11 14  1  0
 14 15  1  0
 14 16  1  0
 14 17  1  0
 17 18  2  0
 18 19  1  0
 18 20  1  0
 20 21  1  0
 20 22  2  0
 22 23  1  0
 22 24  1  0
 24 25  1  0
 24 26  2  0
 26 27  1  0
  7 28  1  0
 28 29  2  0
  2 30  1  0
 30 31  1  0
 31 32  1  0
 32 33  1  0
 33 34  2  0
 34 35  1  0
 34 36  1  0
 36 37  1  0
 36 38  2  0
 38 39  1  0
 38 40  1  0
 40 41  1  0
 40 42  2  0
 42 43  1  0
 43 44  1  0
 43 45  1  0
 43 46  1  0
 32 47  2  0
 47 48  1  0
 47 49  1  0
 49 50  1  0
 28  3  1  0
 49 30  2  0
 26 17  1  0
 42 33  1  0
M  CHG  2   7   1  27  -1
M  END
>  <UniqueID>  (38) 
37

>  <SMILES>  (38) 
Cc1ccccc1-c1ccc(/C=C2\SC(=S)[N@H+](C(=O)CCc3ccccc3[O-])C2=O)o1

>  <Energy>  (38) 
103.71405302901994

>  <Genealogy>  (38) 
Cc1ccccc1-c1ccc(C=C2SC(=S)[NH+](C(=O)CCc3ccccc3[O-])C2=O)o1 (protonated)
Cc1ccccc1-c1ccc(C=C2SC(=S)[N@H+](C(=O)CCc3ccccc3[O-])C2=O)o1 (chirality)
Cc1ccccc1-c1ccc(/C=C2\SC(=S)[N@H+](C(=O)CCc3ccccc3[O-])C2=O)o1 (cis-trans isomerization)
Cc1ccccc1-c1ccc(/C=C2\SC(=S)[N@H+](C(=O)CCc3ccccc3[O-])C2=O)o1 (3D coordinates assigned)
Cc1ccccc1-c1ccc(/C=C2\SC(=S)[N@H+](C(=O)CCc3ccccc3[O-])C2=O)o1 (nonaromatic ring conformer: 103.71405302901994 kcal/mol)

>  <smiles>  (38) 
Cc1ccccc1-c1ccc(C=C2SC(=S)N(C(=O)CCc3ccccc3O)C2=O)o1

>  <score_type>  (38) 
oracle

>  <origin>  (38) 
adg

>  <m_score__min__energy>  (38) 
-12.5

>  <m_primary>  (38) 
energy

$$$$
38:0
     RDKit          3D

 60 62  0  0  0  0  0  0  0  0999 V2000
   58.1500   26.6700   43.0290 C   0  0  0  0  0  0  0  0  0  0  0  0
   57.7590   25.3830   43.7340 C   0  0  0  0  0  0  0  0  0  0  0  0
   57.7460   25.5950   45.1410 O   0  0  0  0  0  0  0  0  0  0  0  0
   56.8620   26.4840   45.7610 C   0  0  0  0  0  0  0  0  0  0  0  0
   55.8460   26.0480   46.3680 O   0  0  0  0  0  0  0  0  0  0  0  0
   57.1390   27.9290   45.7050 C   0  0  0  0  0  0  0  0  0  0  0  0
   56.2150   29.0340   44.8350 S   0  0  0  0  0  0  0  0  0  0  0  0
   57.1950   30.3430   45.2540 C   0  0  0  0  0  0  0  0  0  0  0  0
   57.0450   31.5740   44.8610 N   0  0  0  0  0  0  0  0  0  0  0  0
   57.8210   32.7080   45.2800 C   0  0  0  0  0  0  0  0  0  0  0  0
   57.8130   33.0670   46.6350 C   0  0  0  0  0  0  0  0  0  0  0  0
   58.5310   34.1860   47.0720 C   0  0  0  0  0  0  0  0  0  0  0  0
   59.2390   34.9680   46.1560 C   0  0  0  0  0  0  0  0  0  0  0  0
   59.2210   34.6410   44.7980 C   0  0  0  0  0  0  0  0  0  0  0  0
   58.5050   33.5230   44.3570 C   0  0  0  0  0  0  0  0  0  0  0  0
   58.2320   29.9600   46.0290 N   0  0  0  0  0  0  0  0  0  0  0  0
   58.2060   28.6250   46.2930 C   0  0  0  0  0  0  0  0  0  0  0  0
   59.2210   28.0030   47.1580 C   0  0  0  0  0  0  0  0  0  0  0  0
   59.8110   26.9720   46.7350 O   0  0  0  0  0  0  0  0  0  0  0  0
   59.5620   28.5570   48.4490 N   0  0  0  0  0  0  0  0  0  0  0  0
   60.6180   27.8900   49.2230 C   0  0  0  0  0  0  0  0  0  0  0  0
   60.5810   28.2910   50.6980 C   0  0  0  0  0  0  0  0  0  0  0  0
   60.5640   29.7530   50.8690 N   0  0  0  0  0  0  0  0  0  0  0  0
   61.8240   30.3440   50.4640 C   0  0  0  0  0  0  0  0  0  0  0  0
   62.9040   29.7020   50.5760 O   0  0  0  0  0  0  0  0  0  0  0  0
   61.8300   31.6730   50.0090 O   0  0  0  0  0  0  0  0  0  0  0  0
   62.3130   32.1320   48.7420 C   0  0  0  0  0  0  0  0  0  0  0  0
   61.7410   33.5200   48.4060 C   0  0  0  0  0  0  0  0  0  0  0  0
   61.9650   31.1160   47.6390 C   0  0  0  0  0  0  0  0  0  0  0  0
   63.8410   32.2450   48.8510 C   0  0  0  0  0  0  0  0  0  0  0  0
   59.3760   30.3460   50.2180 C   0  0  0  0  0  0  0  0  0  0  0  0
   59.2160   29.9610   48.7320 C   0  0  0  0  0  0  0  0  0  0  0  0
   58.3844   27.4414   43.7773 H   0  0  0  0  0  0  0  0  0  0  0  0
   59.0338   26.4893   42.3995 H   0  0  0  0  0  0  0  0  0  0  0  0
   57.3151   27.0115   42.3995 H   0  0  0  0  0  0  0  0  0  0  0  0
   56.7575   25.0729   43.4012 H   0  0  0  0  0  0  0  0  0  0  0  0
   58.4880   24.5963   43.4896 H   0  0  0  0  0  0  0  0  0  0  0  0
   57.2403   32.4670   47.3575 H   0  0  0  0  0  0  0  0  0  0  0  0
   58.5379   34.4506   48.1397 H   0  0  0  0  0  0  0  0  0  0  0  0
   59.8105   35.8410   46.5041 H   0  0  0  0  0  0  0  0  0  0  0  0
   59.7699   35.2627   44.0753 H   0  0  0  0  0  0  0  0  0  0  0  0
   58.4760   33.2793   43.2847 H   0  0  0  0  0  0  0  0  0  0  0  0
   60.4816   26.8012   49.1466 H   0  0  0  0  0  0  0  0  0  0  0  0
   61.5901   28.1969   48.8098 H   0  0  0  0  0  0  0  0  0  0  0  0
   59.6760   27.8685   51.1588 H   0  0  0  0  0  0  0  0  0  0  0  0
   61.4900   27.9019   51.1800 H   0  0  0  0  0  0  0  0  0  0  0  0
   60.4680   29.9410   51.8950 H   0  0  0  0  0  0  0  0  0  0  0  0
   61.5184   34.0602   49.3380 H   0  0  0  0  0  0  0  0  0  0  0  0
   62.4782   34.0883   47.8199 H   0  0  0  0  0  0  0  0  0  0  0  0
   60.8174   33.4039   47.8199 H   0  0  0  0  0  0  0  0  0  0  0  0
   61.6413   30.1711   48.0998 H   0  0  0  0  0  0  0  0  0  0  0  0
   61.1528   31.5165   47.0145 H   0  0  0  0  0  0  0  0  0  0  0  0
   62.8522   30.9345   47.0145 H   0  0  0  0  0  0  0  0  0  0  0  0
   64.1323   32.2665   49.9115 H   0  0  0  0  0  0  0  0  0  0  0  0
   64.3087   31.3790   48.3598 H   0  0  0  0  0  0  0  0  0  0  0  0
   64.1762   33.1704   48.3598 H   0  0  0  0  0  0  0  0  0  0  0  0
   58.4803   30.0096   50.7607 H   0  0  0  0  0  0  0  0  0  0  0  0
   59.5068   31.4377   50.2513 H   0  0  0  0  0  0  0  0  0  0  0  0
   58.1686   30.1273   48.4399 H   0  0  0  0  0  0  0  0  0  0  0  0
   59.9135   30.5886   48.1578 H   0  0  0  0  0  0  0  0  0  0  0  0
  1  2  1  0
  2  3  1  0
  3  4  1  0
  4  5  2  0
  4  6  1  0
  6  7  1  0
  7  8  1  0
  8  9  2  3
  9 10  1  0
 10 11  2  0
 11 12  1  0
 12 13  2  0
 13 14  1  0
 14 15  2  0
  8 16  1  0
 16 17  1  0
 17 18  1  0
 18 19  2  0
 18 20  1  0
 20 21  1  0
 21 22  1  0
 22 23  1  0
 23 24  1  0
 24 25  2  0
 24 26  1  0
 26 27  1  0
 27 28  1  0
 27 29  1  0
 27 30  1  0
 23 31  1  0
 31 32  1  0
 17  6  2  0
 32 20  1  0
 15 10  1  0
  1 33  1  0
  1 34  1  0
  1 35  1  0
  2 36  1  0
  2 37  1  0
 11 38  1  0
 12 39  1  0
 13 40  1  0
 14 41  1  0
 15 42  1  0
 21 43  1  0
 21 44  1  0
 22 45  1  0
 22 46  1  0
 23 47  1  0
 28 48  1  0
 28 49  1  0
 28 50  1  0
 29 51  1  0
 29 52  1  0
 29 53  1  0
 30 54  1  0
 30 55  1  0
 30 56  1  0
 31 57  1  0
 31 58  1  0
 32 59  1  0
 32 60  1  0
M  CHG  2  16  -1  23   1
M  END
>  <UniqueID>  (39) 
38

>  <SMILES>  (39) 
CCOC(=O)c1sc(=Nc2ccccc2)[n-]c1C(=O)N1CC[NH+](C(=O)OC(C)(C)C)CC1

>  <Energy>  (39) 
101.91890315818901

>  <Genealogy>  (39) 
CCOC(=O)c1sc(=Nc2ccccc2)[n-]c1C(=O)N1CC[NH+](C(=O)OC(C)(C)C)CC1 (protonated)
CCOC(=O)c1sc(=Nc2ccccc2)[n-]c1C(=O)N1CC[NH+](C(=O)OC(C)(C)C)CC1 (3D coordinates assigned)
CCOC(=O)c1sc(=Nc2ccccc2)[n-]c1C(=O)N1CC[NH+](C(=O)OC(C)(C)C)CC1 (nonaromatic ring conformer: 101.91890315818901 kcal/mol)

>  <smiles>  (39) 
CCOC(=O)c1sc(=Nc2ccccc2)[nH]c1C(=O)N1CCN(C(=O)OC(C)(C)C)CC1

>  <score_type>  (39) 
oracle

>  <origin>  (39) 
adg

>  <m_score__min__energy>  (39) 
-8.2200000000000006

>  <m_primary>  (39) 
energy

$$$$
39:0
     RDKit          3D

 37 39  0  0  0  0  0  0  0  0999 V2000
   54.3800   27.0920   46.3700 H   0  0  0  0  0  0  0  0  0  0  0  0
   55.2530   26.8410   45.9260 O   0  0  0  0  0  0  0  0  0  0  0  0
   56.1280   25.9250   46.5040 C   0  0  0  0  0  0  0  0  0  0  0  0
   55.7920   24.6510   46.7650 N   0  0  0  0  0  0  0  0  0  0  0  0
   56.9400   24.1310   47.2480 C   0  0  0  0  0  0  0  0  0  0  0  0
   57.0430   22.9290   47.6090 O   0  0  0  0  0  0  0  0  0  0  0  0
   57.9750   24.9960   47.3070 N   0  0  0  0  0  0  0  0  0  0  0  0
   57.4450   26.1470   46.8550 C   0  0  0  0  0  0  0  0  0  0  0  0
   58.2270   27.3910   46.6840 C   0  0  0  0  0  0  0  0  0  0  0  0
   59.0446   27.5787   47.3956 H   0  0  0  0  0  0  0  0  0  0  0  0
   58.0130   28.3190   45.7160 C   0  0  0  0  0  0  0  0  0  0  0  0
   57.9070   29.6880   46.0560 C   0  0  0  0  0  0  0  0  0  0  0  0
   57.9401   29.9837   47.1150 H   0  0  0  0  0  0  0  0  0  0  0  0
   57.7610   30.6740   45.0740 C   0  0  0  0  0  0  0  0  0  0  0  0
   57.6540   32.1050   45.4400 C   0  0  0  0  0  0  0  0  0  0  0  0
   56.6730   32.7680   45.0020 O   0  0  0  0  0  0  0  0  0  0  0  0
   58.6350   32.7580   46.2730 N   0  0  0  0  0  0  0  0  0  0  0  0
   58.2410   33.8430   47.1760 C   0  0  0  0  0  0  0  0  0  0  0  0
   57.2878   34.2748   46.8370 H   0  0  0  0  0  0  0  0  0  0  0  0
   58.1211   33.4477   48.1955 H   0  0  0  0  0  0  0  0  0  0  0  0
   59.3230   34.9260   47.1710 C   0  0  0  0  0  0  0  0  0  0  0  0
   59.3619   35.3936   46.1761 H   0  0  0  0  0  0  0  0  0  0  0  0
   59.0760   35.6776   47.9353 H   0  0  0  0  0  0  0  0  0  0  0  0
   60.5870   34.3680   47.4720 O   0  0  0  0  0  0  0  0  0  0  0  0
   60.9790   33.4800   46.4410 C   0  0  0  0  0  0  0  0  0  0  0  0
   60.9754   34.0193   45.4823 H   0  0  0  0  0  0  0  0  0  0  0  0
   61.9867   33.1032   46.6702 H   0  0  0  0  0  0  0  0  0  0  0  0
   60.0230   32.2840   46.3460 C   0  0  0  0  0  0  0  0  0  0  0  0
   60.2572   31.7007   45.4432 H   0  0  0  0  0  0  0  0  0  0  0  0
   60.1435   31.6524   47.2385 H   0  0  0  0  0  0  0  0  0  0  0  0
   57.6820   30.2810   43.7370 C   0  0  0  0  0  0  0  0  0  0  0  0
   57.5423   31.0367   42.9500 H   0  0  0  0  0  0  0  0  0  0  0  0
   57.7770   28.9710   43.4070 N   0  0  0  0  0  0  0  0  0  0  0  0
   57.9420   27.9790   44.3260 C   0  0  0  0  0  0  0  0  0  0  0  0
   57.9840   26.7250   43.8520 C   0  0  0  0  0  0  0  0  0  0  0  0
   58.1153   25.8797   44.5436 H   0  0  0  0  0  0  0  0  0  0  0  0
   57.8872   26.5418   42.7717 H   0  0  0  0  0  0  0  0  0  0  0  0
  1  2  1  0
  2  3  1  0
  3  4  1  0
  4  5  1  0
  5  6  2  0
  5  7  1  0
  7  8  1  0
  8  9  1  0
  9 10  1  0
  9 11  2  0
 11 12  1  0
 12 13  1  0
 12 14  2  0
 14 15  1  0
 15 16  2  0
 15 17  1  0
 17 18  1  0
 18 19  1  0
 18 20  1  0
 18 21  1  0
 21 22  1  0
 21 23  1  0
 21 24  1  0
 24 25  1  0
 25 26  1  0
 25 27  1  0
 25 28  1  0
 28 29  1  0
 28 30  1  0
 14 31  1  0
 31 32  1  0
 31 33  2  0
 33 34  1  0
 34 35  2  0
 35 36  1  0
 35 37  1  0
  8  3  2  0
 34 11  1  0
 28 17  1  0
M  CHG  2   4  -1   7  -1
M  END
>  <UniqueID>  (40) 
39

>  <SMILES>  (40) 
C=c1ncc(C(=O)N2CCOCC2)c/c1=C\c1[n-]c(=O)[n-]c1O

>  <Energy>  (40) 
90.00825186107532

>  <Genealogy>  (40) 
C=c1ncc(C(=O)N2CCOCC2)cc1=Cc1[n-]c(=O)[n-]c1O (protonated)
C=c1ncc(C(=O)N2CCOCC2)c/c1=C\c1[n-]c(=O)[n-]c1O (cis-trans isomerization)
C=c1ncc(C(=O)N2CCOCC2)c/c1=C\c1[n-]c(=O)[n-]c1O (3D coordinates assigned)
C=c1ncc(C(=O)N2CCOCC2)c/c1=C\c1[n-]c(=O)[n-]c1O (nonaromatic ring conformer: 90.00825186107532 kcal/mol)

>  <smiles>  (40) 
C=c1ncc(C(=O)N2CCOCC2)cc1=Cc1[nH]c(=O)[nH]c1O

>  <score_type>  (40) 
oracle

>  <origin>  (40) 
adg

>  <m_score__min__energy>  (40) 
-12.390000000000001

>  <m_primary>  (40) 
energy

$$$$
40:0
     RDKit          3D

 37 39  0  0  0  0  0  0  0  0999 V2000
   58.4160   28.0610   46.0500 O   0  0  0  0  0  0  0  0  0  0  0  0
   57.2010   28.0420   45.7150 C   0  0  0  0  0  0  0  0  0  0  0  0
   56.5260   29.2900   45.5100 N   0  0  0  0  0  0  0  0  0  0  0  0
   57.0480   30.4280   44.8110 C   0  0  0  0  0  0  0  0  0  0  0  0
   56.9090   30.5640   43.4190 C   0  0  0  0  0  0  0  0  0  0  0  0
   57.4640   31.6650   42.7620 C   0  0  0  0  0  0  0  0  0  0  0  0
   58.1660   32.6320   43.4840 C   0  0  0  0  0  0  0  0  0  0  0  0
   58.3130   32.5100   44.8740 C   0  0  0  0  0  0  0  0  0  0  0  0
   59.0770   33.5230   45.6280 C   0  0  0  0  0  0  0  0  0  0  0  0
   58.6220   34.6970   45.7040 O   0  0  0  0  0  0  0  0  0  0  0  0
   60.3190   33.2000   46.2830 N   0  0  0  0  0  0  0  0  0  0  0  0
   60.6420   31.8780   46.7940 C   0  0  0  0  0  0  0  0  0  0  0  0
   61.9950   32.0210   47.4780 C   0  0  0  0  0  0  0  0  0  0  0  0
   62.1990   33.5170   47.6990 C   0  0  0  0  0  0  0  0  0  0  0  0
   61.2540   34.2180   46.7320 C   0  0  0  0  0  0  0  0  0  0  0  0
   57.7740   31.3880   45.5260 C   0  0  0  0  0  0  0  0  0  0  0  0
   56.4900   26.7480   45.6130 C   0  0  0  0  0  0  0  0  0  0  0  0
   57.1420   25.5970   45.1520 C   0  0  0  0  0  0  0  0  0  0  0  0
   56.4410   24.3940   45.0850 C   0  0  0  0  0  0  0  0  0  0  0  0
   55.1050   24.3650   45.4860 C   0  0  0  0  0  0  0  0  0  0  0  0
   54.4470   23.2930   45.4330 O   0  0  0  0  0  0  0  0  0  0  0  0
   54.5160   25.5030   45.9340 N   0  0  0  0  0  0  0  0  0  0  0  0
   55.1870   26.6540   45.9980 N   0  0  0  0  0  0  0  0  0  0  0  0
   56.3618   29.8015   42.8453 H   0  0  0  0  0  0  0  0  0  0  0  0
   57.3476   31.7702   41.6733 H   0  0  0  0  0  0  0  0  0  0  0  0
   58.6060   33.4937   42.9606 H   0  0  0  0  0  0  0  0  0  0  0  0
   59.8800   31.5489   47.5158 H   0  0  0  0  0  0  0  0  0  0  0  0
   60.6702   31.1274   45.9904 H   0  0  0  0  0  0  0  0  0  0  0  0
   61.9946   31.4890   48.4408 H   0  0  0  0  0  0  0  0  0  0  0  0
   62.8024   31.5903   46.8676 H   0  0  0  0  0  0  0  0  0  0  0  0
   61.9531   33.7869   48.7366 H   0  0  0  0  0  0  0  0  0  0  0  0
   63.2445   33.8108   47.5241 H   0  0  0  0  0  0  0  0  0  0  0  0
   60.7181   35.0317   47.2425 H   0  0  0  0  0  0  0  0  0  0  0  0
   61.7985   34.6674   45.8885 H   0  0  0  0  0  0  0  0  0  0  0  0
   57.9239   31.2628   46.6085 H   0  0  0  0  0  0  0  0  0  0  0  0
   58.1975   25.6421   44.8457 H   0  0  0  0  0  0  0  0  0  0  0  0
   56.9342   23.4805   44.7211 H   0  0  0  0  0  0  0  0  0  0  0  0
  1  2  2  0
  2  3  1  0
  3  4  1  0
  4  5  2  0
  5  6  1  0
  6  7  2  0
  7  8  1  0
  8  9  1  0
  9 10  2  0
  9 11  1  0
 11 12  1  0
 12 13  1  0
 13 14  1  0
 14 15  1  0
  8 16  2  0
  2 17  1  0
 17 18  1  0
 18 19  2  0
 19 20  1  0
 20 21  2  0
 20 22  1  0
 22 23  1  0
 16  4  1  0
 23 17  2  0
 15 11  1  0
  5 24  1  0
  6 25  1  0
  7 26  1  0
 12 27  1  0
 12 28  1  0
 13 29  1  0
 13 30  1  0
 14 31  1  0
 14 32  1  0
 15 33  1  0
 15 34  1  0
 16 35  1  0
 18 36  1  0
 19 37  1  0
M  CHG  2   3  -1  22  -1
M  END
>  <UniqueID>  (41) 
40

>  <SMILES>  (41) 
O=C([N-]c1cccc(C(=O)N2CCCC2)c1)c1ccc(=O)[n-]n1

>  <Energy>  (41) 
50.17533804509285

>  <Genealogy>  (41) 
O=C([N-]c1cccc(C(=O)N2CCCC2)c1)c1ccc(=O)[n-]n1 (protonated)
O=C([N-]c1cccc(C(=O)N2CCCC2)c1)c1ccc(=O)[n-]n1 (3D coordinates assigned)
O=C([N-]c1cccc(C(=O)N2CCCC2)c1)c1ccc(=O)[n-]n1 (nonaromatic ring conformer: 50.17533804509285 kcal/mol)

>  <smiles>  (41) 
O=C(Nc1cccc(C(=O)N2CCCC2)c1)c1ccc(=O)[nH]n1

>  <score_type>  (41) 
oracle

>  <origin>  (41) 
adg

>  <m_score__min__energy>  (41) 
-12.27

>  <m_primary>  (41) 
energy

$$$$
41:0
     RDKit          3D

 38 40  0  0  1  0  0  0  0  0999 V2000
   57.4010   31.8420   42.3080 C   0  0  0  0  0  0  0  0  0  0  0  0
   57.8320   32.1170   43.7460 C   0  0  0  0  0  0  0  0  0  0  0  0
   58.2020   33.2980   44.1410 N   0  0  0  0  0  0  0  0  0  0  0  0
   58.5750   33.5270   45.3990 C   0  0  0  0  0  0  0  0  0  0  0  0
   58.9660   34.5120   46.0510 N   0  0  0  0  0  0  0  0  0  0  0  0
   60.0280   34.3760   47.0180 C   0  0  0  0  0  0  0  0  0  0  0  0
   61.2610   33.8300   46.7270 C   0  0  0  0  0  0  0  0  0  0  0  0
   62.0060   33.8710   47.9040 C   0  0  0  0  0  0  0  0  0  0  0  0
   63.4120   33.3810   48.0560 C   0  0  0  0  0  0  0  0  0  0  0  0
   63.9800   33.0760   46.8410 O   0  0  0  0  0  0  0  0  0  0  0  0
   61.2170   34.4300   48.8540 N   0  0  0  0  0  0  0  0  0  0  0  0
   60.0290   34.7300   48.3090 N   0  0  0  0  0  0  0  0  0  0  0  0
   58.3800   31.8200   46.1520 S   0  0  0  0  0  0  0  0  0  0  0  0
   57.8290   31.0840   44.6560 C   0  0  0  0  0  0  0  0  0  0  0  0
   57.5060   29.6770   44.6440 C   0  0  0  0  0  0  0  0  0  0  0  0
   56.4100   29.3540   45.2120 O   0  0  0  0  0  0  0  0  0  0  0  0
   58.2440   28.6350   44.0900 N   0  0  0  0  0  0  0  0  0  0  0  0
   57.7960   27.2730   44.1530 C   0  0  0  0  0  0  0  0  0  0  0  0
   57.3550   26.7070   45.3340 C   0  0  0  0  0  0  0  0  0  0  0  0
   56.9390   25.3900   45.3210 C   0  0  0  0  0  0  0  0  0  0  0  0
   56.9530   24.6300   44.1680 C   0  0  0  0  0  0  0  0  0  0  0  0
   56.4200   22.9480   44.1590 Cl  0  0  0  0  0  0  0  0  0  0  0  0
   57.3950   25.2010   42.9920 C   0  0  0  0  0  0  0  0  0  0  0  0
   57.8130   26.5160   42.9900 C   0  0  0  0  0  0  0  0  0  0  0  0
   56.4737   31.2503   42.3099 H   0  0  0  0  0  0  0  0  0  0  0  0
   57.2262   32.7959   41.7888 H   0  0  0  0  0  0  0  0  0  0  0  0
   58.1924   31.2816   41.7888 H   0  0  0  0  0  0  0  0  0  0  0  0
   58.2230   34.1490   43.4630 H   0  0  0  0  0  0  0  0  0  0  0  0
   61.5921   33.4380   45.7540 H   0  0  0  0  0  0  0  0  0  0  0  0
   64.0115   34.1643   48.5429 H   0  0  0  0  0  0  0  0  0  0  0  0
   63.3912   32.4644   48.6638 H   0  0  0  0  0  0  0  0  0  0  0  0
   64.6960   32.4070   46.9830 H   0  0  0  0  0  0  0  0  0  0  0  0
   61.5250   34.5850   49.8470 H   0  0  0  0  0  0  0  0  0  0  0  0
   59.1380   28.8070   43.6130 H   0  0  0  0  0  0  0  0  0  0  0  0
   57.3357   27.2929   46.2648 H   0  0  0  0  0  0  0  0  0  0  0  0
   56.5860   24.9328   46.2571 H   0  0  0  0  0  0  0  0  0  0  0  0
   57.4140   24.6122   42.0631 H   0  0  0  0  0  0  0  0  0  0  0  0
   58.1650   26.9711   42.0525 H   0  0  0  0  0  0  0  0  0  0  0  0
  1  2  1  0
  2  3  1  0
  3  4  1  0
  4  5  2  0
  5  6  1  0
  6  7  1  0
  7  8  2  0
  8  9  1  0
  9 10  1  0
  8 11  1  0
 11 12  1  0
  4 13  1  0
 13 14  1  0
 14 15  1  0
 15 16  2  0
 15 17  1  0
 17 18  1  0
 18 19  2  0
 19 20  1  0
 20 21  2  0
 21 22  1  0
 21 23  1  0
 23 24  2  0
 14  2  2  0
 24 18  1  0
 12  6  2  0
  1 25  1  0
  1 26  1  0
  1 27  1  0
  3 28  1  0
  7 29  1  0
  9 30  1  0
  9 31  1  0
 10 32  1  0
 11 33  1  0
 17 34  1  0
 19 35  1  0
 20 36  1  0
 23 37  1  0
 24 38  1  0
M  END
>  <smiles>  (42) 
Cc1[nH]c(=Nc2cc(CO)[nH]n2)sc1C(=O)Nc1ccc(Cl)cc1

>  <score_type>  (42) 
oracle

>  <origin>  (42) 
adg

>  <m_score__min__energy>  (42) 
-8.0899999999999999

>  <m_primary>  (42) 
energy

$$$$
42:0
     RDKit          3D

 49 51  0  0  0  0  0  0  0  0999 V2000
   55.1390   29.3520   44.8430 O   0  0  0  0  0  0  0  0  0  0  0  0
   56.2300   29.8150   44.4120 C   0  0  0  0  0  0  0  0  0  0  0  0
   57.1450   28.9320   43.6020 C   0  0  0  0  0  0  0  0  0  0  0  0
   58.1590   28.3190   44.4560 N   0  0  0  0  0  0  0  0  0  0  0  0
   57.8220   27.6190   45.6620 C   0  0  0  0  0  0  0  0  0  0  0  0
   56.6160   27.3870   45.9470 O   0  0  0  0  0  0  0  0  0  0  0  0
   58.8980   27.2260   46.6280 C   0  0  0  0  0  0  0  0  0  0  0  0
   59.7080   28.4330   47.0120 C   0  0  0  0  0  0  0  0  0  0  0  0
   60.4270   29.1390   46.0350 C   0  0  0  0  0  0  0  0  0  0  0  0
   61.1330   30.2950   46.3760 C   0  0  0  0  0  0  0  0  0  0  0  0
   61.1440   30.7620   47.7020 C   0  0  0  0  0  0  0  0  0  0  0  0
   61.8530   31.9680   48.0410 N   0  0  0  0  0  0  0  0  0  0  0  0
   63.1050   32.3870   47.4280 C   0  0  0  0  0  0  0  0  0  0  0  0
   63.3320   33.8440   47.8720 C   0  0  0  0  0  0  0  0  0  0  0  0
   62.3330   34.1300   49.0010 C   0  0  0  0  0  0  0  0  0  0  0  0
   61.4380   32.9580   48.9670 C   0  0  0  0  0  0  0  0  0  0  0  0
   60.4460   32.8190   49.7320 O   0  0  0  0  0  0  0  0  0  0  0  0
   60.4150   30.0570   48.6760 C   0  0  0  0  0  0  0  0  0  0  0  0
   59.7020   28.9060   48.3320 C   0  0  0  0  0  0  0  0  0  0  0  0
   56.6020   31.1490   44.7750 N   0  0  0  0  0  0  0  0  0  0  0  0
   57.6890   31.8970   44.1600 C   0  0  0  0  0  0  0  0  0  0  0  0
   58.2550   32.8660   45.1570 C   0  0  0  0  0  0  0  0  0  0  0  0
   58.9710   33.9940   44.7200 C   0  0  0  0  0  0  0  0  0  0  0  0
   59.4670   34.9160   45.6480 C   0  0  0  0  0  0  0  0  0  0  0  0
   59.2440   34.7230   47.0160 C   0  0  0  0  0  0  0  0  0  0  0  0
   58.5220   33.6090   47.4560 C   0  0  0  0  0  0  0  0  0  0  0  0
   58.0220   32.6870   46.5310 C   0  0  0  0  0  0  0  0  0  0  0  0
   56.5511   28.1406   43.1214 H   0  0  0  0  0  0  0  0  0  0  0  0
   57.6478   29.5468   42.8410 H   0  0  0  0  0  0  0  0  0  0  0  0
   59.1650   28.4540   44.2080 H   0  0  0  0  0  0  0  0  0  0  0  0
   58.4387   26.7934   47.5291 H   0  0  0  0  0  0  0  0  0  0  0  0
   59.5570   26.4842   46.1533 H   0  0  0  0  0  0  0  0  0  0  0  0
   60.4346   28.7800   44.9952 H   0  0  0  0  0  0  0  0  0  0  0  0
   61.6854   30.8450   45.5999 H   0  0  0  0  0  0  0  0  0  0  0  0
   63.9317   31.7493   47.7743 H   0  0  0  0  0  0  0  0  0  0  0  0
   63.0634   32.3030   46.3320 H   0  0  0  0  0  0  0  0  0  0  0  0
   64.3617   33.9715   48.2375 H   0  0  0  0  0  0  0  0  0  0  0  0
   63.1837   34.5380   47.0316 H   0  0  0  0  0  0  0  0  0  0  0  0
   62.8459   34.2061   49.9711 H   0  0  0  0  0  0  0  0  0  0  0  0
   61.7992   35.0832   48.8723 H   0  0  0  0  0  0  0  0  0  0  0  0
   60.4061   30.4144   49.7163 H   0  0  0  0  0  0  0  0  0  0  0  0
   59.1315   28.3666   49.1025 H   0  0  0  0  0  0  0  0  0  0  0  0
   58.4769   31.2006   43.8372 H   0  0  0  0  0  0  0  0  0  0  0  0
   57.3078   32.4483   43.2878 H   0  0  0  0  0  0  0  0  0  0  0  0
   59.1419   34.1523   43.6449 H   0  0  0  0  0  0  0  0  0  0  0  0
   60.0329   35.7935   45.3020 H   0  0  0  0  0  0  0  0  0  0  0  0
   59.6365   35.4473   47.7450 H   0  0  0  0  0  0  0  0  0  0  0  0
   58.3471   33.4578   48.5314 H   0  0  0  0  0  0  0  0  0  0  0  0
   57.4443   31.8186   46.8803 H   0  0  0  0  0  0  0  0  0  0  0  0
  1  2  2  0
  2  3  1  0
  3  4  1  0
  4  5  1  0
  5  6  2  0
  5  7  1  0
  7  8  1  0
  8  9  2  0
  9 10  1  0
 10 11  2  0
 11 12  1  0
 12 13  1  0
 13 14  1  0
 14 15  1  0
 15 16  1  0
 16 17  2  0
 11 18  1  0
 18 19  2  0
  2 20  1  0
 20 21  1  0
 21 22  1  0
 22 23  2  0
 23 24  1  0
 24 25  2  0
 25 26  1  0
 26 27  2  0
 19  8  1  0
 27 22  1  0
 16 12  1  0
  3 28  1  0
  3 29  1  0
  4 30  1  0
  7 31  1  0
  7 32  1  0
  9 33  1  0
 10 34  1  0
 13 35  1  0
 13 36  1  0
 14 37  1  0
 14 38  1  0
 15 39  1  0
 15 40  1  0
 18 41  1  0
 19 42  1  0
 21 43  1  0
 21 44  1  0
 23 45  1  0
 24 46  1  0
 25 47  1  0
 26 48  1  0
 27 49  1  0
M  CHG  1  20  -1
M  END
>  <UniqueID>  (43) 
41

>  <SMILES>  (43) 
O=C(CNC(=O)Cc1ccc(N2CCCC2=O)cc1)[N-]Cc1ccccc1

>  <Energy>  (43) 
53.67943723379418

>  <Genealogy>  (43) 
O=C(CNC(=O)Cc1ccc(N2CCCC2=O)cc1)[N-]Cc1ccccc1 (protonated)
O=C(CNC(=O)Cc1ccc(N2CCCC2=O)cc1)[N-]Cc1ccccc1 (3D coordinates assigned)
O=C(CNC(=O)Cc1ccc(N2CCCC2=O)cc1)[N-]Cc1ccccc1 (nonaromatic ring conformer: 53.67943723379418 kcal/mol)

>  <smiles>  (43) 
O=C(CNC(=O)Cc1ccc(N2CCCC2=O)cc1)NCc1ccccc1

>  <score_type>  (43) 
oracle

>  <origin>  (43) 
adg

>  <m_score__min__energy>  (43) 
-10.44

>  <m_primary>  (43) 
energy

$$$$
43:0
     RDKit          3D

 49 52  0  0  0  0  0  0  0  0999 V2000
   59.1038   35.6986   44.1300 H   0  0  0  0  0  0  0  0  0  0  0  0
   58.8630   35.0060   44.9500 C   0  0  0  0  0  0  0  0  0  0  0  0
   57.9140   34.0800   44.7600 C   0  0  0  0  0  0  0  0  0  0  0  0
   57.4983   33.9381   43.7515 H   0  0  0  0  0  0  0  0  0  0  0  0
   57.4000   33.2260   45.8940 C   0  0  0  0  0  0  0  0  0  0  0  0
   57.1549   32.2286   45.5003 H   0  0  0  0  0  0  0  0  0  0  0  0
   56.5146   33.7269   46.3124 H   0  0  0  0  0  0  0  0  0  0  0  0
   58.3890   33.0740   46.9900 N   0  0  1  0  0  0  0  0  0  0  0  0
   57.8780   32.6660   47.8080 H   0  0  0  0  0  0  0  0  0  0  0  0
   59.4900   32.1670   46.6980 C   0  0  0  0  0  0  0  0  0  0  0  0
   60.6230   32.6410   46.4090 O   0  0  0  0  0  0  0  0  0  0  0  0
   59.3540   30.6980   46.7400 C   0  0  0  0  0  0  0  0  0  0  0  0
   58.7830   29.9470   45.7350 C   0  0  0  0  0  0  0  0  0  0  0  0
   58.3516   30.3241   44.7960 H   0  0  0  0  0  0  0  0  0  0  0  0
   58.8590   28.6220   46.1400 C   0  0  0  0  0  0  0  0  0  0  0  0
   58.4470   27.5490   45.4360 C   0  0  0  0  0  0  0  0  0  0  0  0
   59.0785   27.2014   44.6051 H   0  0  0  0  0  0  0  0  0  0  0  0
   57.2000   26.8140   45.7140 C   0  0  0  0  0  0  0  0  0  0  0  0
   57.1740   25.5720   46.2300 N   0  0  0  0  0  0  0  0  0  0  0  0
   55.8560   25.3290   46.3940 C   0  0  0  0  0  0  0  0  0  0  0  0
   55.4200   24.2410   46.8520 O   0  0  0  0  0  0  0  0  0  0  0  0
   55.0430   26.3460   46.0390 N   0  0  0  0  0  0  0  0  0  0  0  0
   55.9090   27.2840   45.6220 C   0  0  0  0  0  0  0  0  0  0  0  0
   55.5260   28.5560   45.2150 O   0  0  0  0  0  0  0  0  0  0  0  0
   59.4970   28.6260   47.3840 C   0  0  0  0  0  0  0  0  0  0  0  0
   59.7700   27.5500   48.1390 C   0  0  0  0  0  0  0  0  0  0  0  0
   60.2788   27.6718   49.1066 H   0  0  0  0  0  0  0  0  0  0  0  0
   59.4849   26.5466   47.7900 H   0  0  0  0  0  0  0  0  0  0  0  0
   59.8010   29.9010   47.7400 N   0  0  0  0  0  0  0  0  0  0  0  0
   60.5300   30.3440   48.9390 C   0  0  0  0  0  0  0  0  0  0  0  0
   60.9503   29.4654   49.4502 H   0  0  0  0  0  0  0  0  0  0  0  0
   61.3333   31.0287   48.6293 H   0  0  0  0  0  0  0  0  0  0  0  0
   59.6120   31.0750   49.8870 C   0  0  0  0  0  0  0  0  0  0  0  0
   58.5220   30.4100   50.4730 C   0  0  0  0  0  0  0  0  0  0  0  0
   58.3308   29.3540   50.2313 H   0  0  0  0  0  0  0  0  0  0  0  0
   57.6790   31.0840   51.3620 C   0  0  0  0  0  0  0  0  0  0  0  0
   56.8239   30.5590   51.8127 H   0  0  0  0  0  0  0  0  0  0  0  0
   57.9210   32.4240   51.6790 C   0  0  0  0  0  0  0  0  0  0  0  0
   57.1020   33.0730   52.5420 F   0  0  0  0  0  0  0  0  0  0  0  0
   59.0110   33.0910   51.1090 C   0  0  0  0  0  0  0  0  0  0  0  0
   59.2510   34.3880   51.4200 F   0  0  0  0  0  0  0  0  0  0  0  0
   59.8560   32.4180   50.2200 C   0  0  0  0  0  0  0  0  0  0  0  0
   60.7162   32.9432   49.7793 H   0  0  0  0  0  0  0  0  0  0  0  0
   58.8900   34.4050   47.4030 C   0  0  0  0  0  0  0  0  0  0  0  0
   59.5943   34.2768   48.2382 H   0  0  0  0  0  0  0  0  0  0  0  0
   58.0267   35.0168   47.7038 H   0  0  0  0  0  0  0  0  0  0  0  0
   59.6100   35.1280   46.2510 C   0  0  0  0  0  0  0  0  0  0  0  0
   60.6110   34.6890   46.1276 H   0  0  0  0  0  0  0  0  0  0  0  0
   59.6709   36.1960   46.5073 H   0  0  0  0  0  0  0  0  0  0  0  0
  1  2  1  0
  2  3  2  0
  3  4  1  0
  3  5  1  0
  5  6  1  0
  5  7  1  0
  5  8  1  0
  8  9  1  1
  8 10  1  0
 10 11  2  0
 10 12  1  0
 12 13  2  0
 13 14  1  0
 13 15  1  0
 15 16  2  0
 16 17  1  0
 16 18  1  0
 18 19  1  0
 19 20  1  0
 20 21  2  0
 20 22  1  0
 22 23  1  0
 23 24  1  0
 15 25  1  0
 25 26  2  0
 26 27  1  0
 26 28  1  0
 25 29  1  0
 29 30  1  0
 30 31  1  0
 30 32  1  0
 30 33  1  0
 33 34  2  0
 34 35  1  0
 34 36  1  0
 36 37  1  0
 36 38  2  0
 38 39  1  0
 38 40  1  0
 40 41  1  0
 40 42  2  0
 42 43  1  0
  8 44  1  0
 44 45  1  0
 44 46  1  0
 44 47  1  0
 47 48  1  0
 47 49  1  0
 47  2  1  0
 29 12  1  0
 42 33  1  0
 23 18  2  0
M  CHG  4   8   1  19  -1  22  -1  24  -1
M  END
>  <UniqueID>  (44) 
42

>  <SMILES>  (44) 
C=c1/c(=C/c2[n-]c(=O)[n-]c2[O-])cc(C(=O)[N@@H+]2CC=CCC2)n1Cc1ccc(F)c(F)c1

>  <Energy>  (44) 
130.7450087121225

>  <Genealogy>  (44) 
C=c1c(=Cc2[n-]c(=O)[n-]c2[O-])cc(C(=O)[NH+]2CC=CCC2)n1Cc1ccc(F)c(F)c1 (protonated)
C=c1c(=Cc2[n-]c(=O)[n-]c2[O-])cc(C(=O)[N@@H+]2CC=CCC2)n1Cc1ccc(F)c(F)c1 (chirality)
C=c1/c(=C/c2[n-]c(=O)[n-]c2[O-])cc(C(=O)[N@@H+]2CC=CCC2)n1Cc1ccc(F)c(F)c1 (cis-trans isomerization)
C=c1/c(=C/c2[n-]c(=O)[n-]c2[O-])cc(C(=O)[N@@H+]2CC=CCC2)n1Cc1ccc(F)c(F)c1 (3D coordinates assigned)
C=c1/c(=C/c2[n-]c(=O)[n-]c2[O-])cc(C(=O)[N@@H+]2CC=CCC2)n1Cc1ccc(F)c(F)c1 (nonaromatic ring conformer: 130.7450087121225 kcal/mol)

>  <smiles>  (44) 
C=c1c(=Cc2[nH]c(=O)[nH]c2O)cc(C(=O)N2CC=CCC2)n1Cc1ccc(F)c(F)c1

>  <score_type>  (44) 
oracle

>  <origin>  (44) 
adg

>  <m_score__min__energy>  (44) 
-15.02

>  <m_primary>  (44) 
energy

$$$$
44:0
     RDKit          3D

 67 71  0  0  0  0  0  0  0  0999 V2000
   57.7730   27.3700   42.7130 C   0  0  0  0  0  0  0  0  0  0  0  0
   57.6650   28.2060   43.7510 C   0  0  0  0  0  0  0  0  0  0  0  0
   56.7090   29.3700   43.7350 C   0  0  0  0  0  0  0  0  0  0  0  0
   57.4040   30.6020   44.1670 N   0  0  0  0  0  0  0  0  0  0  0  0
   57.6030   31.6210   43.2800 C   0  0  0  0  0  0  0  0  0  0  0  0
   57.2050   31.5190   42.0850 O   0  0  0  0  0  0  0  0  0  0  0  0
   58.2330   32.7560   43.6670 N   0  0  0  0  0  0  0  0  0  0  0  0
   58.6390   32.9660   44.9540 C   0  0  0  0  0  0  0  0  0  0  0  0
   59.1820   34.1690   45.2430 C   0  0  0  0  0  0  0  0  0  0  0  0
   58.4250   31.9390   45.9280 C   0  0  0  0  0  0  0  0  0  0  0  0
   58.8110   32.0930   47.2300 C   0  0  0  0  0  0  0  0  0  0  0  0
   60.1700   31.8480   47.7620 C   0  0  0  0  0  0  0  0  0  0  0  0
   60.8630   30.6320   47.8540 C   0  0  0  0  0  0  0  0  0  0  0  0
   60.3810   29.3060   47.4090 C   0  0  0  0  0  0  0  0  0  0  0  0
   60.5740   28.8780   46.0860 C   0  0  0  0  0  0  0  0  0  0  0  0
   60.1150   27.6250   45.6740 C   0  0  0  0  0  0  0  0  0  0  0  0
   59.4630   26.7700   46.5810 C   0  0  0  0  0  0  0  0  0  0  0  0
   58.9430   25.4540   46.1440 C   0  0  0  0  0  0  0  0  0  0  0  0
   59.7360   24.6270   45.6150 O   0  0  0  0  0  0  0  0  0  0  0  0
   57.5560   25.0940   46.3100 N   0  0  0  0  0  0  0  0  0  0  0  0
   57.1960   23.7100   46.6370 C   0  0  0  0  0  0  0  0  0  0  0  0
   56.3630   23.0760   45.5120 C   0  0  0  0  0  0  0  0  0  0  0  0
   55.4670   24.0970   44.7610 C   0  0  0  0  0  0  0  0  0  0  0  0
   54.1580   23.4470   44.2970 C   0  0  0  0  0  0  0  0  0  0  0  0
   55.1800   25.3430   45.6200 C   0  0  0  0  0  0  0  0  0  0  0  0
   56.4940   26.0560   45.9730 C   0  0  0  0  0  0  0  0  0  0  0  0
   59.2450   27.2120   47.8960 C   0  0  0  0  0  0  0  0  0  0  0  0
   59.6970   28.4710   48.3060 C   0  0  0  0  0  0  0  0  0  0  0  0
   62.0590   30.8170   48.4610 N   0  0  0  0  0  0  0  0  0  0  0  0
   62.1150   32.1210   48.7830 C   0  0  0  0  0  0  0  0  0  0  0  0
   63.1430   32.7790   49.4560 C   0  0  0  0  0  0  0  0  0  0  0  0
   62.9930   34.1580   49.7040 C   0  0  0  0  0  0  0  0  0  0  0  0
   61.8300   34.8370   49.2790 C   0  0  0  0  0  0  0  0  0  0  0  0
   60.8040   34.1450   48.6090 C   0  0  0  0  0  0  0  0  0  0  0  0
   60.9810   32.7780   48.3810 C   0  0  0  0  0  0  0  0  0  0  0  0
   57.8230   30.7320   45.4680 C   0  0  0  0  0  0  0  0  0  0  0  0
   57.7120   29.7430   46.2440 O   0  0  0  0  0  0  0  0  0  0  0  0
   58.4808   26.5290   42.7555 H   0  0  0  0  0  0  0  0  0  0  0  0
   57.1541   27.5233   41.8166 H   0  0  0  0  0  0  0  0  0  0  0  0
   58.2908   28.0393   44.6401 H   0  0  0  0  0  0  0  0  0  0  0  0
   56.3216   29.5091   42.7149 H   0  0  0  0  0  0  0  0  0  0  0  0
   55.8777   29.1637   44.4252 H   0  0  0  0  0  0  0  0  0  0  0  0
   58.3720   33.5010   42.9440 H   0  0  0  0  0  0  0  0  0  0  0  0
   59.5244   34.3866   46.2655 H   0  0  0  0  0  0  0  0  0  0  0  0
   59.2817   34.9308   44.4558 H   0  0  0  0  0  0  0  0  0  0  0  0
   58.0449   32.4282   47.9446 H   0  0  0  0  0  0  0  0  0  0  0  0
   61.0901   29.5337   45.3693 H   0  0  0  0  0  0  0  0  0  0  0  0
   60.2644   27.3043   44.6325 H   0  0  0  0  0  0  0  0  0  0  0  0
   58.1156   23.1230   46.7780 H   0  0  0  0  0  0  0  0  0  0  0  0
   56.5951   23.7130   47.5583 H   0  0  0  0  0  0  0  0  0  0  0  0
   57.0495   22.6144   44.7870 H   0  0  0  0  0  0  0  0  0  0  0  0
   55.6945   22.3373   45.9784 H   0  0  0  0  0  0  0  0  0  0  0  0
   56.0242   24.4255   43.8713 H   0  0  0  0  0  0  0  0  0  0  0  0
   53.5639   23.1520   45.1745 H   0  0  0  0  0  0  0  0  0  0  0  0
   53.5861   24.1658   43.6918 H   0  0  0  0  0  0  0  0  0  0  0  0
   54.3850   22.5569   43.6918 H   0  0  0  0  0  0  0  0  0  0  0  0
   54.5325   26.0315   45.0572 H   0  0  0  0  0  0  0  0  0  0  0  0
   54.6789   25.0321   46.5485 H   0  0  0  0  0  0  0  0  0  0  0  0
   56.8171   26.6576   45.1106 H   0  0  0  0  0  0  0  0  0  0  0  0
   56.3153   26.6944   46.8508 H   0  0  0  0  0  0  0  0  0  0  0  0
   58.7149   26.5635   48.6090 H   0  0  0  0  0  0  0  0  0  0  0  0
   59.5153   28.8083   49.3371 H   0  0  0  0  0  0  0  0  0  0  0  0
   62.7770   30.0900   48.6760 H   0  0  0  0  0  0  0  0  0  0  0  0
   64.0434   32.2386   49.7834 H   0  0  0  0  0  0  0  0  0  0  0  0
   63.7860   34.7085   50.2314 H   0  0  0  0  0  0  0  0  0  0  0  0
   61.7253   35.9147   49.4731 H   0  0  0  0  0  0  0  0  0  0  0  0
   59.8927   34.6633   48.2758 H   0  0  0  0  0  0  0  0  0  0  0  0
  1  2  2  0
  2  3  1  0
  3  4  1  0
  4  5  1  0
  5  6  2  0
  5  7  1  0
  7  8  1  0
  8  9  2  0
  8 10  1  0
 10 11  2  3
 11 12  1  0
 12 13  2  0
 13 14  1  0
 14 15  2  0
 15 16  1  0
 16 17  2  0
 17 18  1  0
 18 19  2  0
 18 20  1  0
 20 21  1  0
 21 22  1  0
 22 23  1  0
 23 24  1  0
 23 25  1  0
 25 26  1  0
 17 27  1  0
 27 28  2  0
 13 29  1  0
 29 30  1  0
 30 31  2  0
 31 32  1  0
 32 33  2  0
 33 34  1  0
 34 35  2  0
 10 36  1  0
 36 37  2  0
 36  4  1  0
 35 12  1  0
 28 14  1  0
 35 30  1  0
 26 20  1  0
  1 38  1  0
  1 39  1  0
  2 40  1  0
  3 41  1  0
  3 42  1  0
  7 43  1  0
  9 44  1  0
  9 45  1  0
 11 46  1  0
 15 47  1  0
 16 48  1  0
 21 49  1  0
 21 50  1  0
 22 51  1  0
 22 52  1  0
 23 53  1  0
 24 54  1  0
 24 55  1  0
 24 56  1  0
 25 57  1  0
 25 58  1  0
 26 59  1  0
 26 60  1  0
 27 61  1  0
 28 62  1  0
 29 63  1  0
 31 64  1  0
 32 65  1  0
 33 66  1  0
 34 67  1  0
M  END
>  <UniqueID>  (45) 
43

>  <SMILES>  (45) 
C=CCn1c(=O)[nH]c(=C)c(=Cc2c(-c3ccc(C(=O)N4CCC(C)CC4)cc3)[nH]c3ccccc23)c1=O

>  <Energy>  (45) 
133.75871071581554

>  <Genealogy>  (45) 
C=CCn1c(=O)[nH]c(=C)c(=Cc2c(-c3ccc(C(=O)N4CCC(C)CC4)cc3)[nH]c3ccccc23)c1=O (3D coordinates assigned)
C=CCn1c(=O)[nH]c(=C)c(=Cc2c(-c3ccc(C(=O)N4CCC(C)CC4)cc3)[nH]c3ccccc23)c1=O (nonaromatic ring conformer: 133.75871071581554 kcal/mol)

>  <smiles>  (45) 
C=CCn1c(=O)[nH]c(=C)c(=Cc2c(-c3ccc(C(=O)N4CCC(C)CC4)cc3)[nH]c3ccccc23)c1=O

>  <score_type>  (45) 
oracle

>  <origin>  (45) 
adg

>  <m_score__min__energy>  (45) 
-9.6099999999999994

>  <m_primary>  (45) 
energy

$$$$
45:0
     RDKit          3D

 47 49  0  0  0  0  0  0  0  0999 V2000
   56.6210   30.8070   41.9420 O   0  0  0  0  0  0  0  0  0  0  0  0
   56.6560   30.5930   43.1870 C   0  0  0  0  0  0  0  0  0  0  0  0
   55.9630   29.3840   43.7470 C   0  0  0  0  0  0  0  0  0  0  0  0
   56.2140   29.2910   45.1860 N   0  0  0  0  0  0  0  0  0  0  0  0
   57.7630   28.5530   45.4720 S   0  0  0  0  0  0  0  0  0  0  0  0
   58.4130   29.2160   46.6520 O   0  0  0  0  0  0  0  0  0  0  0  0
   58.6340   28.7360   44.2590 O   0  0  0  0  0  0  0  0  0  0  0  0
   57.5650   26.8340   45.8240 C   0  0  0  0  0  0  0  0  0  0  0  0
   58.6910   25.9970   45.8580 C   0  0  0  0  0  0  0  0  0  0  0  0
   58.5480   24.6310   46.1200 C   0  0  0  0  0  0  0  0  0  0  0  0
   57.2820   24.0890   46.3470 C   0  0  0  0  0  0  0  0  0  0  0  0
   56.1540   24.9130   46.3050 C   0  0  0  0  0  0  0  0  0  0  0  0
   56.2890   26.2810   46.0420 C   0  0  0  0  0  0  0  0  0  0  0  0
   55.1510   27.0790   45.9920 O   0  0  0  0  0  0  0  0  0  0  0  0
   57.3310   31.5580   44.0730 C   0  0  0  0  0  0  0  0  0  0  0  0
   58.1080   32.6260   43.6610 C   0  0  0  0  0  0  0  0  0  0  0  0
   58.5190   33.2590   44.8170 C   0  0  0  0  0  0  0  0  0  0  0  0
   57.9690   32.5330   45.8580 C   0  0  0  0  0  0  0  0  0  0  0  0
   58.0960   32.8570   47.3140 C   0  0  0  0  0  0  0  0  0  0  0  0
   59.3550   33.6460   47.5760 C   0  0  0  0  0  0  0  0  0  0  0  0
   59.2530   34.8330   47.9960 O   0  0  0  0  0  0  0  0  0  0  0  0
   60.6650   33.0640   47.4030 N   0  0  0  0  0  0  0  0  0  0  0  0
   61.7680   33.9110   46.9380 C   0  0  0  0  0  0  0  0  0  0  0  0
   63.1060   33.3490   47.4280 C   0  0  0  0  0  0  0  0  0  0  0  0
   63.2300   31.9830   47.0830 O   0  0  0  0  0  0  0  0  0  0  0  0
   62.2630   31.2290   47.7930 C   0  0  0  0  0  0  0  0  0  0  0  0
   60.8440   31.6070   47.3560 C   0  0  0  0  0  0  0  0  0  0  0  0
   57.2660   31.5290   45.3870 O   0  0  0  0  0  0  0  0  0  0  0  0
   54.8807   29.4686   43.5698 H   0  0  0  0  0  0  0  0  0  0  0  0
   56.3501   28.4814   43.2516 H   0  0  0  0  0  0  0  0  0  0  0  0
   56.2640   30.2610   45.5710 H   0  0  0  0  0  0  0  0  0  0  0  0
   59.6912   26.4178   45.6776 H   0  0  0  0  0  0  0  0  0  0  0  0
   59.4356   23.9818   46.1473 H   0  0  0  0  0  0  0  0  0  0  0  0
   57.1723   23.0151   46.5586 H   0  0  0  0  0  0  0  0  0  0  0  0
   55.1560   24.4846   46.4794 H   0  0  0  0  0  0  0  0  0  0  0  0
   58.3486   32.9117   42.6263 H   0  0  0  0  0  0  0  0  0  0  0  0
   59.1525   34.1549   44.8942 H   0  0  0  0  0  0  0  0  0  0  0  0
   57.2254   33.4508   47.6292 H   0  0  0  0  0  0  0  0  0  0  0  0
   58.1425   31.9168   47.8832 H   0  0  0  0  0  0  0  0  0  0  0  0
   61.7662   33.9395   45.8384 H   0  0  0  0  0  0  0  0  0  0  0  0
   61.6357   34.9267   47.3390 H   0  0  0  0  0  0  0  0  0  0  0  0
   63.9272   33.9148   46.9638 H   0  0  0  0  0  0  0  0  0  0  0  0
   63.1497   33.4429   48.5231 H   0  0  0  0  0  0  0  0  0  0  0  0
   62.4267   30.1589   47.5977 H   0  0  0  0  0  0  0  0  0  0  0  0
   62.3687   31.4450   48.8664 H   0  0  0  0  0  0  0  0  0  0  0  0
   60.6752   31.2540   46.3279 H   0  0  0  0  0  0  0  0  0  0  0  0
   60.1226   31.1366   48.0403 H   0  0  0  0  0  0  0  0  0  0  0  0
  1  2  2  0
  2  3  1  0
  3  4  1  0
  4  5  1  0
  5  6  2  0
  5  7  2  0
  5  8  1  0
  8  9  2  0
  9 10  1  0
 10 11  2  0
 11 12  1  0
 12 13  2  0
 13 14  1  0
  2 15  1  0
 15 16  2  0
 16 17  1  0
 17 18  2  0
 18 19  1  0
 19 20  1  0
 20 21  2  0
 20 22  1  0
 22 23  1  0
 23 24  1  0
 24 25  1  0
 25 26  1  0
 26 27  1  0
 18 28  1  0
 13  8  1  0
 28 15  1  0
 27 22  1  0
  3 29  1  0
  3 30  1  0
  4 31  1  0
  9 32  1  0
 10 33  1  0
 11 34  1  0
 12 35  1  0
 16 36  1  0
 17 37  1  0
 19 38  1  0
 19 39  1  0
 23 40  1  0
 23 41  1  0
 24 42  1  0
 24 43  1  0
 26 44  1  0
 26 45  1  0
 27 46  1  0
 27 47  1  0
M  CHG  1  14  -1
M  END
>  <UniqueID>  (46) 
44

>  <SMILES>  (46) 
O=C(CNS(=O)(=O)c1ccccc1[O-])c1ccc(CC(=O)N2CCOCC2)o1

>  <Energy>  (46) 
73.17880729529824

>  <Genealogy>  (46) 
O=C(CNS(=O)(=O)c1ccccc1[O-])c1ccc(CC(=O)N2CCOCC2)o1 (protonated)
O=C(CNS(=O)(=O)c1ccccc1[O-])c1ccc(CC(=O)N2CCOCC2)o1 (3D coordinates assigned)
O=C(CNS(=O)(=O)c1ccccc1[O-])c1ccc(CC(=O)N2CCOCC2)o1 (nonaromatic ring conformer: 73.17880729529824 kcal/mol)

>  <smiles>  (46) 
O=C(CNS(=O)(=O)c1ccccc1O)c1ccc(CC(=O)N2CCOCC2)o1

>  <score_type>  (46) 
oracle

>  <origin>  (46) 
adg

>  <m_score__min__energy>  (46) 
-12.82

>  <m_primary>  (46) 
energy

$$$$
46:0
     RDKit          3D

 41 43  0  0  0  0  0  0  0  0999 V2000
   60.3750   28.6710   49.1170 O   0  0  0  0  0  0  0  0  0  0  0  0
   60.4080   28.9090   47.8800 C   0  0  0  0  0  0  0  0  0  0  0  0
   61.0280   30.1970   47.4000 C   0  0  0  0  0  0  0  0  0  0  0  0
   59.9870   31.1130   46.8800 N   0  0  0  0  0  0  0  0  0  0  0  0
   58.7350   31.0500   47.6590 C   0  0  0  0  0  0  0  0  0  0  0  0
   58.8500   31.8370   48.9710 C   0  0  0  0  0  0  0  0  0  0  0  0
   59.1860   33.1850   48.7130 O   0  0  0  0  0  0  0  0  0  0  0  0
   60.4560   33.2480   48.0980 C   0  0  0  0  0  0  0  0  0  0  0  0
   60.4590   32.5090   46.7500 C   0  0  0  0  0  0  0  0  0  0  0  0
   60.0310   27.8630   46.9770 N   0  0  0  0  0  0  0  0  0  0  0  0
   58.7130   27.4750   46.5660 C   0  0  0  0  0  0  0  0  0  0  0  0
   58.2350   26.2210   46.9690 C   0  0  0  0  0  0  0  0  0  0  0  0
   56.9180   25.8450   46.7010 C   0  0  0  0  0  0  0  0  0  0  0  0
   56.0580   26.7230   46.0350 C   0  0  0  0  0  0  0  0  0  0  0  0
   54.7450   26.3440   45.7860 O   0  0  0  0  0  0  0  0  0  0  0  0
   56.5240   27.9770   45.6170 C   0  0  0  0  0  0  0  0  0  0  0  0
   55.6250   28.8800   44.9650 N   0  0  0  0  0  0  0  0  0  0  0  0
   55.9840   29.7530   43.8880 C   0  0  0  0  0  0  0  0  0  0  0  0
   55.7060   29.4110   42.7090 O   0  0  0  0  0  0  0  0  0  0  0  0
   56.7430   30.9960   44.1230 C   0  0  0  0  0  0  0  0  0  0  0  0
   57.6650   31.5530   43.2580 C   0  0  0  0  0  0  0  0  0  0  0  0
   58.1370   32.6820   43.8920 C   0  0  0  0  0  0  0  0  0  0  0  0
   57.4730   32.7480   45.0990 C   0  0  0  0  0  0  0  0  0  0  0  0
   56.6530   31.7290   45.2090 O   0  0  0  0  0  0  0  0  0  0  0  0
   57.8460   28.3600   45.9010 C   0  0  0  0  0  0  0  0  0  0  0  0
   61.5503   30.6815   48.2382 H   0  0  0  0  0  0  0  0  0  0  0  0
   61.7375   29.9697   46.5908 H   0  0  0  0  0  0  0  0  0  0  0  0
   57.9178   31.4749   47.0576 H   0  0  0  0  0  0  0  0  0  0  0  0
   58.5333   29.9968   47.9043 H   0  0  0  0  0  0  0  0  0  0  0  0
   57.8869   31.7993   49.5011 H   0  0  0  0  0  0  0  0  0  0  0  0
   59.6410   31.3855   49.5879 H   0  0  0  0  0  0  0  0  0  0  0  0
   60.7211   34.3022   47.9297 H   0  0  0  0  0  0  0  0  0  0  0  0
   61.1883   32.7647   48.7614 H   0  0  0  0  0  0  0  0  0  0  0  0
   59.7985   33.0432   46.0511 H   0  0  0  0  0  0  0  0  0  0  0  0
   61.4945   32.4835   46.3798 H   0  0  0  0  0  0  0  0  0  0  0  0
   58.9030   25.5275   47.5008 H   0  0  0  0  0  0  0  0  0  0  0  0
   56.5557   24.8549   47.0147 H   0  0  0  0  0  0  0  0  0  0  0  0
   57.9610   31.1741   42.2686 H   0  0  0  0  0  0  0  0  0  0  0  0
   58.8907   33.3876   43.5123 H   0  0  0  0  0  0  0  0  0  0  0  0
   57.6099   33.5353   45.8549 H   0  0  0  0  0  0  0  0  0  0  0  0
   58.2040   29.3562   45.6018 H   0  0  0  0  0  0  0  0  0  0  0  0
  1  2  2  0
  2  3  1  0
  3  4  1  0
  4  5  1  0
  5  6  1  0
  6  7  1  0
  7  8  1  0
  8  9  1  0
  2 10  1  0
 10 11  1  0
 11 12  2  0
 12 13  1  0
 13 14  2  0
 14 15  1  0
 14 16  1  0
 16 17  1  0
 17 18  1  0
 18 19  2  0
 18 20  1  0
 20 21  2  0
 21 22  1  0
 22 23  2  0
 23 24  1  0
 16 25  2  0
  9  4  1  0
 25 11  1  0
 24 20  1  0
  3 26  1  0
  3 27  1  0
  5 28  1  0
  5 29  1  0
  6 30  1  0
  6 31  1  0
  8 32  1  0
  8 33  1  0
  9 34  1  0
  9 35  1  0
 12 36  1  0
 13 37  1  0
 21 38  1  0
 22 39  1  0
 23 40  1  0
 25 41  1  0
M  CHG  3  10  -1  15  -1  17  -1
M  END
>  <UniqueID>  (47) 
45

>  <SMILES>  (47) 
O=C(CN1CCOCC1)[N-]c1ccc([O-])c([N-]C(=O)c2ccco2)c1

>  <Energy>  (47) 
81.97821586292011

>  <Genealogy>  (47) 
O=C(CN1CCOCC1)[N-]c1ccc([O-])c([N-]C(=O)c2ccco2)c1 (protonated)
O=C(CN1CCOCC1)[N-]c1ccc([O-])c([N-]C(=O)c2ccco2)c1 (3D coordinates assigned)
O=C(CN1CCOCC1)[N-]c1ccc([O-])c([N-]C(=O)c2ccco2)c1 (nonaromatic ring conformer: 81.97821586292011 kcal/mol)

>  <smiles>  (47) 
O=C(CN1CCOCC1)Nc1ccc(O)c(NC(=O)c2ccco2)c1

>  <score_type>  (47) 
oracle

>  <origin>  (47) 
adg

>  <m_score__min__energy>  (47) 
-13.98

>  <m_primary>  (47) 
energy

$$$$
47:0
     RDKit          3D

 62 66  0  0  0  0  0  0  0  0999 V2000
   57.1770   31.3210   44.2680 C   0  0  0  0  0  0  0  0  0  0  0  0
   56.9920   32.2920   45.1610 C   0  0  0  0  0  0  0  0  0  0  0  0
   58.0930   33.1230   45.7000 C   0  0  0  0  0  0  0  0  0  0  0  0
   58.5410   34.2060   44.9290 C   0  0  0  0  0  0  0  0  0  0  0  0
   59.5790   35.0200   45.3840 C   0  0  0  0  0  0  0  0  0  0  0  0
   60.1680   34.7770   46.6230 C   0  0  0  0  0  0  0  0  0  0  0  0
   59.7100   33.7280   47.4370 C   0  0  0  0  0  0  0  0  0  0  0  0
   60.3490   33.5150   48.7990 C   0  0  1  0  0  0  0  0  0  0  0  0
   59.4250   33.9990   49.8290 N   0  0  0  0  0  0  0  0  0  0  0  0
   59.4230   33.4820   51.1640 C   0  0  0  0  0  0  0  0  0  0  0  0
   58.7830   34.1890   52.1940 C   0  0  0  0  0  0  0  0  0  0  0  0
   58.7830   33.6860   53.4980 C   0  0  0  0  0  0  0  0  0  0  0  0
   59.4170   32.4730   53.7780 C   0  0  0  0  0  0  0  0  0  0  0  0
   60.0470   31.7590   52.7540 C   0  0  0  0  0  0  0  0  0  0  0  0
   60.0500   32.2620   51.4400 C   0  0  0  0  0  0  0  0  0  0  0  0
   60.6810   31.5240   50.3340 C   0  0  0  0  0  0  0  0  0  0  0  0
   61.1820   30.3870   50.5560 O   0  0  0  0  0  0  0  0  0  0  0  0
   60.7150   32.0910   49.0050 N   0  0  0  0  0  0  0  0  0  0  0  0
   61.4170   31.3600   47.9290 C   0  0  0  0  0  0  0  0  0  0  0  0
   60.5490   30.2640   47.3650 C   0  0  0  0  0  0  0  0  0  0  0  0
   59.9350   29.3390   48.2200 C   0  0  0  0  0  0  0  0  0  0  0  0
   59.1420   28.3120   47.7000 C   0  0  0  0  0  0  0  0  0  0  0  0
   58.9460   28.1940   46.3120 C   0  0  0  0  0  0  0  0  0  0  0  0
   58.0960   27.1170   45.7520 C   0  0  0  0  0  0  0  0  0  0  0  0
   57.5080   27.3000   44.6500 O   0  0  0  0  0  0  0  0  0  0  0  0
   57.9470   25.8610   46.4350 N   0  0  0  0  0  0  0  0  0  0  0  0
   56.9830   24.8770   46.0290 C   0  0  0  0  0  0  0  0  0  0  0  0
   57.4000   23.5470   45.8730 C   0  0  0  0  0  0  0  0  0  0  0  0
   56.5000   22.5680   45.4480 C   0  0  0  0  0  0  0  0  0  0  0  0
   55.1730   22.9070   45.1820 C   0  0  0  0  0  0  0  0  0  0  0  0
   54.7370   24.2220   45.3610 C   0  0  0  0  0  0  0  0  0  0  0  0
   55.6280   25.2150   45.7980 C   0  0  0  0  0  0  0  0  0  0  0  0
   55.1310   26.5340   46.0550 N   0  0  0  0  0  0  0  0  0  0  0  0
   59.5490   29.1360   45.4600 C   0  0  0  0  0  0  0  0  0  0  0  0
   60.3430   30.1610   45.9810 C   0  0  0  0  0  0  0  0  0  0  0  0
   58.6670   32.8960   46.9730 C   0  0  0  0  0  0  0  0  0  0  0  0
   58.1830   31.8740   47.7850 O   0  0  0  0  0  0  0  0  0  0  0  0
   56.3185   30.7372   43.9045 H   0  0  0  0  0  0  0  0  0  0  0  0
   58.1883   31.1030   43.8941 H   0  0  0  0  0  0  0  0  0  0  0  0
   55.9693   32.4865   45.5162 H   0  0  0  0  0  0  0  0  0  0  0  0
   58.0699   34.4153   43.9573 H   0  0  0  0  0  0  0  0  0  0  0  0
   59.9332   35.8558   44.7628 H   0  0  0  0  0  0  0  0  0  0  0  0
   60.9982   35.4117   46.9664 H   0  0  0  0  0  0  0  0  0  0  0  0
   61.2874   34.0853   48.8632 H   0  0  0  0  0  0  0  0  0  0  0  0
   58.9110   34.8910   49.6450 H   0  0  0  0  0  0  0  0  0  0  0  0
   58.2798   35.1421   51.9741 H   0  0  0  0  0  0  0  0  0  0  0  0
   58.2841   34.2449   54.3034 H   0  0  0  0  0  0  0  0  0  0  0  0
   59.4206   32.0792   54.8051 H   0  0  0  0  0  0  0  0  0  0  0  0
   60.5414   30.8018   52.9763 H   0  0  0  0  0  0  0  0  0  0  0  0
   61.6749   32.0645   47.1245 H   0  0  0  0  0  0  0  0  0  0  0  0
   62.3262   30.9055   48.3495 H   0  0  0  0  0  0  0  0  0  0  0  0
   60.0780   29.4216   49.3075 H   0  0  0  0  0  0  0  0  0  0  0  0
   58.6676   27.5905   48.3814 H   0  0  0  0  0  0  0  0  0  0  0  0
   58.7050   25.5580   47.0860 H   0  0  0  0  0  0  0  0  0  0  0  0
   58.4437   23.2733   46.0871 H   0  0  0  0  0  0  0  0  0  0  0  0
   56.8374   21.5285   45.3228 H   0  0  0  0  0  0  0  0  0  0  0  0
   54.4693   22.1379   44.8309 H   0  0  0  0  0  0  0  0  0  0  0  0
   53.6875   24.4814   45.1580 H   0  0  0  0  0  0  0  0  0  0  0  0
   55.4470   27.3420   45.4730 H   0  0  0  0  0  0  0  0  0  0  0  0
   54.3890   26.7130   46.7650 H   0  0  0  0  0  0  0  0  0  0  0  0
   59.3943   29.0654   44.3732 H   0  0  0  0  0  0  0  0  0  0  0  0
   60.8089   30.8909   45.3026 H   0  0  0  0  0  0  0  0  0  0  0  0
  1  2  2  0
  2  3  1  0
  3  4  2  0
  4  5  1  0
  5  6  2  0
  6  7  1  0
  7  8  1  0
  8  9  1  0
  9 10  1  0
 10 11  2  0
 11 12  1  0
 12 13  2  0
 13 14  1  0
 14 15  2  0
 15 16  1  0
 16 17  2  0
 16 18  1  0
 18 19  1  0
 19 20  1  0
 20 21  2  0
 21 22  1  0
 22 23  2  0
 23 24  1  0
 24 25  2  0
 24 26  1  0
 26 27  1  0
 27 28  2  0
 28 29  1  0
 29 30  2  0
 30 31  1  0
 31 32  2  0
 32 33  1  0
 23 34  1  0
 34 35  2  0
  7 36  2  0
 36 37  1  0
 36  3  1  0
 18  8  1  0
 35 20  1  0
 15 10  1  0
 32 27  1  0
  1 38  1  0
  1 39  1  0
  2 40  1  0
  4 41  1  0
  5 42  1  0
  6 43  1  0
  8 44  1  6
  9 45  1  0
 11 46  1  0
 12 47  1  0
 13 48  1  0
 14 49  1  0
 19 50  1  0
 19 51  1  0
 21 52  1  0
 22 53  1  0
 26 54  1  0
 28 55  1  0
 29 56  1  0
 30 57  1  0
 31 58  1  0
 33 59  1  0
 33 60  1  0
 34 61  1  0
 35 62  1  0
M  CHG  1  37  -1
M  END
>  <UniqueID>  (48) 
46

>  <SMILES>  (48) 
C=Cc1cccc([C@H]2Nc3ccccc3C(=O)N2Cc2ccc(C(=O)Nc3ccccc3N)cc2)c1[O-]

>  <Energy>  (48) 
82.78937115427141

>  <Genealogy>  (48) 
C=Cc1cccc(C2Nc3ccccc3C(=O)N2Cc2ccc(C(=O)Nc3ccccc3N)cc2)c1[O-] (protonated)
C=Cc1cccc([C@H]2Nc3ccccc3C(=O)N2Cc2ccc(C(=O)Nc3ccccc3N)cc2)c1[O-] (chirality)
C=Cc1cccc([C@H]2Nc3ccccc3C(=O)N2Cc2ccc(C(=O)Nc3ccccc3N)cc2)c1[O-] (3D coordinates assigned)
C=Cc1cccc([C@H]2Nc3ccccc3C(=O)N2Cc2ccc(C(=O)Nc3ccccc3N)cc2)c1[O-] (nonaromatic ring conformer: 82.78937115427141 kcal/mol)

>  <smiles>  (48) 
C=Cc1cccc(C2Nc3ccccc3C(=O)N2Cc2ccc(C(=O)Nc3ccccc3N)cc2)c1O

>  <score_type>  (48) 
oracle

>  <origin>  (48) 
adg

>  <m_score__min__energy>  (48) 
-10.77

>  <m_primary>  (48) 
energy

$$$$
48:0
     RDKit          3D

 58 61  0  0  0  0  0  0  0  0999 V2000
   57.9653   32.6625   42.4153 H   0  0  0  0  0  0  0  0  0  0  0  0
   57.5460   31.9440   43.1350 C   0  0  0  0  0  0  0  0  0  0  0  0
   56.9580   30.4070   42.7790 S   0  0  0  0  0  0  0  0  0  0  0  0
   56.5780   30.0940   44.3830 C   0  0  0  0  0  0  0  0  0  0  0  0
   56.0320   28.9890   44.7950 N   0  0  0  0  0  0  0  0  0  0  0  0
   56.6500   28.0040   45.6370 C   0  0  0  0  0  0  0  0  0  0  0  0
   56.0640   26.7510   45.8790 C   0  0  0  0  0  0  0  0  0  0  0  0
   55.1009   26.4923   45.4147 H   0  0  0  0  0  0  0  0  0  0  0  0
   56.7100   25.8350   46.7120 C   0  0  0  0  0  0  0  0  0  0  0  0
   56.1300   24.5820   46.9330 O   0  0  0  0  0  0  0  0  0  0  0  0
   56.6510   23.6490   47.8730 C   0  0  0  0  0  0  0  0  0  0  0  0
   56.4513   24.0067   48.8939 H   0  0  0  0  0  0  0  0  0  0  0  0
   56.1680   22.6717   47.7258 H   0  0  0  0  0  0  0  0  0  0  0  0
   57.7364   23.5475   47.7258 H   0  0  0  0  0  0  0  0  0  0  0  0
   57.8890   26.1730   47.3020 N   0  0  0  0  0  0  0  0  0  0  0  0
   58.4710   27.3890   47.1280 C   0  0  0  0  0  0  0  0  0  0  0  0
   59.6080   27.6220   47.7250 N   0  0  0  0  0  0  0  0  0  0  0  0
   60.3180   28.8680   47.7990 C   0  0  0  0  0  0  0  0  0  0  0  0
   60.6010   29.6150   46.6430 C   0  0  0  0  0  0  0  0  0  0  0  0
   60.3145   29.2258   45.6549 H   0  0  0  0  0  0  0  0  0  0  0  0
   61.2460   30.8520   46.7450 C   0  0  0  0  0  0  0  0  0  0  0  0
   61.4735   31.4263   45.8348 H   0  0  0  0  0  0  0  0  0  0  0  0
   61.6040   31.3640   47.9980 C   0  0  0  0  0  0  0  0  0  0  0  0
   62.2350   32.6140   48.0610 O   0  0  0  0  0  0  0  0  0  0  0  0
   63.0870   33.0420   49.0900 C   0  0  0  0  0  0  0  0  0  0  0  0
   64.4030   32.5640   49.1160 C   0  0  0  0  0  0  0  0  0  0  0  0
   64.7511   31.8757   48.3318 H   0  0  0  0  0  0  0  0  0  0  0  0
   65.2770   32.9580   50.1350 C   0  0  0  0  0  0  0  0  0  0  0  0
   66.3127   32.5875   50.1439 H   0  0  0  0  0  0  0  0  0  0  0  0
   64.8360   33.8220   51.1420 C   0  0  0  0  0  0  0  0  0  0  0  0
   65.5260   34.1353   51.9393 H   0  0  0  0  0  0  0  0  0  0  0  0
   63.5190   34.2870   51.1350 C   0  0  0  0  0  0  0  0  0  0  0  0
   63.1700   34.9611   51.9311 H   0  0  0  0  0  0  0  0  0  0  0  0
   62.6430   33.8960   50.1160 C   0  0  0  0  0  0  0  0  0  0  0  0
   61.6041   34.2575   50.1173 H   0  0  0  0  0  0  0  0  0  0  0  0
   61.2740   30.6380   49.1570 C   0  0  0  0  0  0  0  0  0  0  0  0
   61.5246   31.0447   50.1478 H   0  0  0  0  0  0  0  0  0  0  0  0
   60.6290   29.4020   49.0550 C   0  0  0  0  0  0  0  0  0  0  0  0
   60.3644   28.8461   49.9666 H   0  0  0  0  0  0  0  0  0  0  0  0
   57.8500   28.3300   46.2800 C   0  0  0  0  0  0  0  0  0  0  0  0
   58.3078   29.3180   46.1243 H   0  0  0  0  0  0  0  0  0  0  0  0
   56.8760   31.1150   45.1610 O   0  0  0  0  0  0  0  0  0  0  0  0
   57.4050   32.1400   44.5060 C   0  0  0  0  0  0  0  0  0  0  0  0
   57.8430   33.3850   45.2080 C   0  0  0  0  0  0  0  0  0  0  0  0
   58.5030   33.9646   44.5458 H   0  0  0  0  0  0  0  0  0  0  0  0
   56.9587   33.9854   45.4681 H   0  0  0  0  0  0  0  0  0  0  0  0
   58.5880   33.0260   46.4670 C   0  0  0  0  0  0  0  0  0  0  0  0
   58.2350   32.0400   47.1020 O   0  0  0  0  0  0  0  0  0  0  0  0
   59.7180   33.8180   46.9110 N   0  0  0  0  0  0  0  0  0  0  0  0
   60.5980   33.2570   46.8360 H   0  0  0  0  0  0  0  0  0  0  0  0
   59.8660   35.0120   46.0640 C   0  0  0  0  0  0  0  0  0  0  0  0
   59.9763   35.9020   46.7010 H   0  0  0  0  0  0  0  0  0  0  0  0
   60.7575   34.9028   45.4289 H   0  0  0  0  0  0  0  0  0  0  0  0
   58.9748   35.1238   45.4289 H   0  0  0  0  0  0  0  0  0  0  0  0
   59.5490   34.1980   48.3230 C   0  0  0  0  0  0  0  0  0  0  0  0
   59.9112   33.3837   48.9677 H   0  0  0  0  0  0  0  0  0  0  0  0
   60.1254   35.1121   48.5282 H   0  0  0  0  0  0  0  0  0  0  0  0
   58.4841   34.3822   48.5282 H   0  0  0  0  0  0  0  0  0  0  0  0
  1  2  1  0
  2  3  1  0
  3  4  1  0
  4  5  2  0
  5  6  1  0
  6  7  1  0
  7  8  1  0
  7  9  2  0
  9 10  1  0
 10 11  1  0
 11 12  1  0
 11 13  1  0
 11 14  1  0
  9 15  1  0
 15 16  1  0
 16 17  2  0
 17 18  1  0
 18 19  2  0
 19 20  1  0
 19 21  1  0
 21 22  1  0
 21 23  2  0
 23 24  1  0
 24 25  1  0
 25 26  2  0
 26 27  1  0
 26 28  1  0
 28 29  1  0
 28 30  2  0
 30 31  1  0
 30 32  1  0
 32 33  1  0
 32 34  2  0
 34 35  1  0
 23 36  1  0
 36 37  1  0
 36 38  2  0
 38 39  1  0
 16 40  1  0
 40 41  1  0
  4 42  1  0
 42 43  1  0
 43 44  1  0
 44 45  1  0
 44 46  1  0
 44 47  1  0
 47 48  2  0
 47 49  1  0
 49 50  1  0
 49 51  1  0
 51 52  1  0
 51 53  1  0
 51 54  1  0
 49 55  1  0
 55 56  1  0
 55 57  1  0
 55 58  1  0
 43  2  2  0
 40  6  2  0
 38 18  1  0
 34 25  1  0
M  CHG  2  15  -1  49   1
M  END
>  <UniqueID>  (49) 
47

>  <SMILES>  (49) 
COc1cc(/N=c2\oc(CC(=O)[NH+](C)C)cs2)c/c(=N\c2ccc(Oc3ccccc3)cc2)[n-]1

>  <Energy>  (49) 
108.7181049053692

>  <Genealogy>  (49) 
COc1cc(N=c2oc(CC(=O)[NH+](C)C)cs2)cc(=Nc2ccc(Oc3ccccc3)cc2)[n-]1 (protonated)
COc1cc(/N=c2\oc(CC(=O)[NH+](C)C)cs2)c/c(=N\c2ccc(Oc3ccccc3)cc2)[n-]1 (cis-trans isomerization)
COc1cc(/N=c2\oc(CC(=O)[NH+](C)C)cs2)c/c(=N\c2ccc(Oc3ccccc3)cc2)[n-]1 (3D coordinates assigned)
COc1cc(/N=c2\oc(CC(=O)[NH+](C)C)cs2)c/c(=N\c2ccc(Oc3ccccc3)cc2)[n-]1 (optimized conformer: 108.7181049053692 kcal/mol)

>  <smiles>  (49) 
COc1cc(N=c2oc(CC(=O)N(C)C)cs2)cc(=Nc2ccc(Oc3ccccc3)cc2)[nH]1

>  <score_type>  (49) 
oracle

>  <origin>  (49) 
adg

>  <m_score__min__energy>  (49) 
-8.0199999999999996

>  <m_primary>  (49) 
energy

$$$$
49:0
     RDKit          3D

 38 40  0  0  1  0  0  0  0  0999 V2000
   60.7200   30.7410   48.6940 C   0  0  0  0  0  0  0  0  0  0  0  0
   59.8110   30.0090   47.7650 C   0  0  0  0  0  0  0  0  0  0  0  0
   60.2350   29.1900   46.7460 C   0  0  0  0  0  0  0  0  0  0  0  0
   57.9410   32.6820   45.0830 C   0  0  0  0  0  0  0  0  0  0  0  0
   58.4340   33.8230   45.3690 N   0  0  0  0  0  0  0  0  0  0  0  0
   57.7970   27.6280   44.5220 C   0  0  0  0  0  0  0  0  0  0  0  0
   56.8240   27.2700   45.2310 O   0  0  0  0  0  0  0  0  0  0  0  0
   57.6910   27.8300   43.0440 C   0  0  0  0  0  0  0  0  0  0  0  0
   56.6340   29.2120   42.6240 S   0  0  0  0  0  0  0  0  0  0  0  0
   57.0610   30.4860   43.9550 C   0  0  0  0  0  0  0  0  0  0  0  0
   57.0140   30.6760   45.0440 N   0  0  0  0  0  0  0  0  0  0  0  0
   58.0700   29.2240   46.7590 N   0  0  0  0  0  0  0  0  0  0  0  0
   59.1080   28.6910   46.1060 C   0  0  0  0  0  0  0  0  0  0  0  0
   59.1030   27.8740   45.0820 N   0  0  0  0  0  0  0  0  0  0  0  0
   58.8050   34.0770   46.7180 C   0  0  0  0  0  0  0  0  0  0  0  0
   58.1720   33.4890   47.6480 O   0  0  0  0  0  0  0  0  0  0  0  0
   59.9090   35.0060   47.0700 C   0  0  0  0  0  0  0  0  0  0  0  0
   61.0910   34.2350   47.3850 C   0  0  0  0  0  0  0  0  0  0  0  0
   61.9220   33.4870   46.5820 C   0  0  0  0  0  0  0  0  0  0  0  0
   62.9620   32.8600   47.1070 C   0  0  0  0  0  0  0  0  0  0  0  0
   63.1640   32.9930   48.4930 C   0  0  0  0  0  0  0  0  0  0  0  0
   61.8170   34.0600   49.0710 S   0  0  0  0  0  0  0  0  0  0  0  0
   57.8770   32.0730   43.3100 S   0  0  0  0  0  0  0  0  0  0  0  0
   57.4010   31.6990   45.7500 N   0  0  0  0  0  0  0  0  0  0  0  0
   58.5030   29.9980   47.7320 O   0  0  0  0  0  0  0  0  0  0  0  0
   60.4404   30.5158   49.7338 H   0  0  0  0  0  0  0  0  0  0  0  0
   61.7583   30.4239   48.5166 H   0  0  0  0  0  0  0  0  0  0  0  0
   60.6317   31.8230   48.5166 H   0  0  0  0  0  0  0  0  0  0  0  0
   61.2803   28.9692   46.4841 H   0  0  0  0  0  0  0  0  0  0  0  0
   58.6965   28.0173   42.6391 H   0  0  0  0  0  0  0  0  0  0  0  0
   57.2473   26.9217   42.6102 H   0  0  0  0  0  0  0  0  0  0  0  0
   57.0720   29.0230   46.4920 H   0  0  0  0  0  0  0  0  0  0  0  0
   60.1180   35.6699   46.2182 H   0  0  0  0  0  0  0  0  0  0  0  0
   59.6196   35.6144   47.9396 H   0  0  0  0  0  0  0  0  0  0  0  0
   61.7212   33.4105   45.5032 H   0  0  0  0  0  0  0  0  0  0  0  0
   63.6414   32.2589   46.4849 H   0  0  0  0  0  0  0  0  0  0  0  0
   63.9672   32.5454   49.0967 H   0  0  0  0  0  0  0  0  0  0  0  0
   57.2780   31.7190   46.8120 H   0  0  0  0  0  0  0  0  0  0  0  0
  1  2  1  0
  2  3  2  0
  3  4  1  0
  4  5  2  0
  5  6  1  0
  6  7  2  0
  6  8  1  0
  8  9  1  0
  9 10  1  0
 10 11  2  0
 11 12  1  0
 12 13  1  0
 13 14  2  0
 14 15  1  0
 15 16  2  0
 15 17  1  0
 17 18  1  0
 18 19  2  0
 19 20  1  0
 20 21  2  0
 21 22  1  0
 13 23  1  0
  4 24  1  0
 24 25  1  0
 25  2  1  0
 23 10  1  0
 22 18  1  0
  1 26  1  0
  1 27  1  0
  1 28  1  0
  3 29  1  0
  8 30  1  0
  8 31  1  0
 12 32  1  0
 17 33  1  0
 17 34  1  0
 19 35  1  0
 20 36  1  0
 21 37  1  0
 24 38  1  0
M  END
>  <smiles>  (50) 
Cc1cc(=NC(=O)CSc2n[nH]c(=NC(=O)Cc3cccs3)s2)[nH]o1

>  <score_type>  (50) 
oracle

>  <origin>  (50) 
adg

>  <m_score__min__energy>  (50) 
-9.0700000000000003

>  <m_primary>  (50) 
energy

$$$$
50:0
     RDKit          3D

 37 40  0  0  0  0  0  0  0  0999 V2000
   54.7200   25.9410   46.3980 H   0  0  0  0  0  0  0  0  0  0  0  0
   54.7450   25.0260   45.9620 O   0  0  0  0  0  0  0  0  0  0  0  0
   55.6190   24.0470   46.4220 C   0  0  0  0  0  0  0  0  0  0  0  0
   55.3490   22.7310   46.4010 N   0  0  0  0  0  0  0  0  0  0  0  0
   56.4840   22.1850   46.8910 C   0  0  0  0  0  0  0  0  0  0  0  0
   56.6880   20.5730   47.0570 S   0  0  0  0  0  0  0  0  0  0  0  0
   57.4470   23.0780   47.2080 N   0  0  0  0  0  0  0  0  0  0  0  0
   56.8760   24.2640   46.9360 C   0  0  0  0  0  0  0  0  0  0  0  0
   57.5920   25.5470   47.0080 C   0  0  0  0  0  0  0  0  0  0  0  0
   58.3685   25.6430   47.7812 H   0  0  0  0  0  0  0  0  0  0  0  0
   57.3840   26.6150   46.2140 C   0  0  0  0  0  0  0  0  0  0  0  0
   56.1360   27.1060   46.0490 N   0  0  0  0  0  0  0  0  0  0  0  0
   56.2600   28.1880   45.2620 C   0  0  0  0  0  0  0  0  0  0  0  0
   55.1820   28.9810   44.8920 O   0  0  0  0  0  0  0  0  0  0  0  0
   57.5700   28.4020   44.8850 C   0  0  0  0  0  0  0  0  0  0  0  0
   58.0540   29.4860   43.9560 C   0  0  0  0  0  0  0  0  0  0  0  0
   59.1173   29.3156   43.7318 H   0  0  0  0  0  0  0  0  0  0  0  0
   57.4484   29.4488   43.0385 H   0  0  0  0  0  0  0  0  0  0  0  0
   57.8970   30.8490   44.5680 C   0  0  0  0  0  0  0  0  0  0  0  0
   57.3940   31.9830   43.9370 C   0  0  0  0  0  0  0  0  0  0  0  0
   57.0494   32.0184   42.8930 H   0  0  0  0  0  0  0  0  0  0  0  0
   57.3880   33.0360   44.7870 N   0  0  0  0  0  0  0  0  0  0  0  0
   57.0630   34.0060   44.5770 H   0  0  0  0  0  0  0  0  0  0  0  0
   57.8880   32.5790   45.9470 C   0  0  0  0  0  0  0  0  0  0  0  0
   58.0820   33.3000   47.1240 C   0  0  0  0  0  0  0  0  0  0  0  0
   57.8144   34.3651   47.1873 H   0  0  0  0  0  0  0  0  0  0  0  0
   58.6300   32.6240   48.2270 C   0  0  0  0  0  0  0  0  0  0  0  0
   58.7934   33.1634   49.1717 H   0  0  0  0  0  0  0  0  0  0  0  0
   58.9730   31.2560   48.1320 C   0  0  0  0  0  0  0  0  0  0  0  0
   59.7220   30.3560   49.6390 Br  0  0  0  0  0  0  0  0  0  0  0  0
   58.7670   30.5550   46.9300 C   0  0  0  0  0  0  0  0  0  0  0  0
   59.0340   29.4916   46.8413 H   0  0  0  0  0  0  0  0  0  0  0  0
   58.2140   31.2490   45.8540 C   0  0  0  0  0  0  0  0  0  0  0  0
   58.3060   27.3820   45.4780 C   0  0  0  0  0  0  0  0  0  0  0  0
   59.6090   27.1560   45.2690 C   0  0  0  0  0  0  0  0  0  0  0  0
   60.1120   26.3233   45.7823 H   0  0  0  0  0  0  0  0  0  0  0  0
   60.1765   27.8030   44.5840 H   0  0  0  0  0  0  0  0  0  0  0  0
  1  2  1  0
  2  3  1  0
  3  4  1  0
  4  5  1  0
  5  6  2  0
  5  7  1  0
  7  8  1  0
  8  9  1  0
  9 10  1  0
  9 11  2  0
 11 12  1  0
 12 13  1  0
 13 14  1  0
 13 15  2  0
 15 16  1  0
 16 17  1  0
 16 18  1  0
 16 19  1  0
 19 20  2  0
 20 21  1  0
 20 22  1  0
 22 23  1  0
 22 24  1  0
 24 25  2  0
 25 26  1  0
 25 27  1  0
 27 28  1  0
 27 29  2  0
 29 30  1  0
 29 31  1  0
 31 32  1  0
 31 33  2  0
 15 34  1  0
 34 35  2  0
 35 36  1  0
 35 37  1  0
  8  3  2  0
 34 11  1  0
 33 19  1  0
 33 24  1  0
M  CHG  4   4  -1   7  -1  12  -1  14  -1
M  END
>  <UniqueID>  (51) 
48

>  <SMILES>  (51) 
C=c1c(Cc2c[nH]c3ccc(Br)cc23)c([O-])[n-]/c1=C/c1[n-]c(=S)[n-]c1O

>  <Energy>  (51) 
140.24829658604392

>  <Genealogy>  (51) 
C=c1c(Cc2c[nH]c3ccc(Br)cc23)c([O-])[n-]c1=Cc1[n-]c(=S)[n-]c1O (protonated)
C=c1c(Cc2c[nH]c3ccc(Br)cc23)c([O-])[n-]/c1=C/c1[n-]c(=S)[n-]c1O (cis-trans isomerization)
C=c1c(Cc2c[nH]c3ccc(Br)cc23)c([O-])[n-]/c1=C/c1[n-]c(=S)[n-]c1O (3D coordinates assigned)
C=c1c(Cc2c[nH]c3ccc(Br)cc23)c([O-])[n-]/c1=C/c1[n-]c(=S)[n-]c1O (optimized conformer: 140.24829658604392 kcal/mol)

>  <smiles>  (51) 
C=c1c(Cc2c[nH]c3ccc(Br)cc23)c(O)[nH]c1=Cc1[nH]c(=S)[nH]c1O

>  <score_type>  (51) 
oracle

>  <origin>  (51) 
adg

>  <m_score__min__energy>  (51) 
-17.280000000000001

>  <m_primary>  (51) 
energy

$$$$
51:0
     RDKit          3D

 45 47  0  0  0  0  0  0  0  0999 V2000
   59.3160   31.0390   47.2180 O   0  0  0  0  0  0  0  0  0  0  0  0
   58.5260   31.9000   47.6920 C   0  0  0  0  0  0  0  0  0  0  0  0
   57.9940   32.9780   46.8010 C   0  0  0  0  0  0  0  0  0  0  0  0
   59.0740   33.4940   45.9560 N   0  0  0  0  0  0  0  0  0  0  0  0
   60.0330   34.6290   46.8530 S   0  0  0  0  0  0  0  0  0  0  0  0
   60.3160   35.8300   45.9970 O   0  0  0  0  0  0  0  0  0  0  0  0
   59.2810   35.0750   48.0760 O   0  0  0  0  0  0  0  0  0  0  0  0
   61.5560   33.8980   47.3330 C   0  0  0  0  0  0  0  0  0  0  0  0
   61.8160   33.3110   48.5610 C   0  0  0  0  0  0  0  0  0  0  0  0
   63.1320   32.8530   48.6780 C   0  0  0  0  0  0  0  0  0  0  0  0
   63.9050   33.0830   47.5460 C   0  0  0  0  0  0  0  0  0  0  0  0
   62.9500   33.8590   46.3980 S   0  0  0  0  0  0  0  0  0  0  0  0
   58.1080   31.8400   49.0660 N   0  0  0  0  0  0  0  0  0  0  0  0
   58.5360   30.8280   49.9950 C   0  0  0  0  0  0  0  0  0  0  0  0
   59.3650   29.9470   49.6350 O   0  0  0  0  0  0  0  0  0  0  0  0
   58.0070   30.8120   51.3750 C   0  0  0  0  0  0  0  0  0  0  0  0
   58.6900   31.4360   52.4270 C   0  0  0  0  0  0  0  0  0  0  0  0
   58.1630   31.3720   53.7120 C   0  0  0  0  0  0  0  0  0  0  0  0
   56.9650   30.6930   53.9300 C   0  0  0  0  0  0  0  0  0  0  0  0
   56.4960   30.6220   55.1000 O   0  0  0  0  0  0  0  0  0  0  0  0
   56.3140   30.1140   52.8740 N   0  0  0  0  0  0  0  0  0  0  0  0
   55.0660   29.3660   53.0560 C   0  0  0  0  0  0  0  0  0  0  0  0
   53.8920   30.2210   52.6630 C   0  0  0  0  0  0  0  0  0  0  0  0
   52.8580   30.4620   53.5840 C   0  0  0  0  0  0  0  0  0  0  0  0
   51.7830   31.2840   53.2350 C   0  0  0  0  0  0  0  0  0  0  0  0
   51.7370   31.8790   51.9680 C   0  0  0  0  0  0  0  0  0  0  0  0
   50.6680   32.6980   51.6230 O   0  0  0  0  0  0  0  0  0  0  0  0
   52.7690   31.6510   51.0510 C   0  0  0  0  0  0  0  0  0  0  0  0
   53.8450   30.8280   51.3970 C   0  0  0  0  0  0  0  0  0  0  0  0
   56.8380   30.1720   51.6450 N   0  0  0  0  0  0  0  0  0  0  0  0
   57.1961   32.5669   46.1651 H   0  0  0  0  0  0  0  0  0  0  0  0
   57.5896   33.7949   47.4168 H   0  0  0  0  0  0  0  0  0  0  0  0
   59.7030   32.6950   45.7080 H   0  0  0  0  0  0  0  0  0  0  0  0
   61.0659   33.2154   49.3599 H   0  0  0  0  0  0  0  0  0  0  0  0
   63.5189   32.3575   49.5806 H   0  0  0  0  0  0  0  0  0  0  0  0
   64.9620   32.8049   47.4216 H   0  0  0  0  0  0  0  0  0  0  0  0
   57.4380   32.5720   49.3940 H   0  0  0  0  0  0  0  0  0  0  0  0
   59.6327   31.9706   52.2385 H   0  0  0  0  0  0  0  0  0  0  0  0
   58.6874   31.8536   54.5505 H   0  0  0  0  0  0  0  0  0  0  0  0
   55.0867   28.4641   52.4267 H   0  0  0  0  0  0  0  0  0  0  0  0
   54.9669   29.0805   54.1137 H   0  0  0  0  0  0  0  0  0  0  0  0
   52.8950   30.0022   54.5826 H   0  0  0  0  0  0  0  0  0  0  0  0
   50.9721   31.4639   53.9562 H   0  0  0  0  0  0  0  0  0  0  0  0
   52.7337   32.1199   50.0566 H   0  0  0  0  0  0  0  0  0  0  0  0
   54.6573   30.6553   50.6756 H   0  0  0  0  0  0  0  0  0  0  0  0
  1  2  2  0
  2  3  1  0
  3  4  1  0
  4  5  1  0
  5  6  2  0
  5  7  2  0
  5  8  1  0
  8  9  2  0
  9 10  1  0
 10 11  2  0
 11 12  1  0
  2 13  1  0
 13 14  1  0
 14 15  2  0
 14 16  1  0
 16 17  1  0
 17 18  2  0
 18 19  1  0
 19 20  2  0
 19 21  1  0
 21 22  1  0
 22 23  1  0
 23 24  2  0
 24 25  1  0
 25 26  2  0
 26 27  1  0
 26 28  1  0
 28 29  2  0
 21 30  1  0
 12  8  1  0
 30 16  2  0
 29 23  1  0
  3 31  1  0
  3 32  1  0
  4 33  1  0
  9 34  1  0
 10 35  1  0
 11 36  1  0
 13 37  1  0
 17 38  1  0
 18 39  1  0
 22 40  1  0
 22 41  1  0
 24 42  1  0
 25 43  1  0
 28 44  1  0
 29 45  1  0
M  CHG  1  27  -1
M  END
>  <UniqueID>  (52) 
49

>  <SMILES>  (52) 
O=C(CNS(=O)(=O)c1cccs1)NC(=O)c1ccc(=O)n(Cc2ccc([O-])cc2)n1

>  <Energy>  (52) 
70.40038409216827

>  <Genealogy>  (52) 
O=C(CNS(=O)(=O)c1cccs1)NC(=O)c1ccc(=O)n(Cc2ccc([O-])cc2)n1 (protonated)
O=C(CNS(=O)(=O)c1cccs1)NC(=O)c1ccc(=O)n(Cc2ccc([O-])cc2)n1 (3D coordinates assigned)
O=C(CNS(=O)(=O)c1cccs1)NC(=O)c1ccc(=O)n(Cc2ccc([O-])cc2)n1 (optimized conformer: 70.40038409216827 kcal/mol)

>  <smiles>  (52) 
O=C(CNS(=O)(=O)c1cccs1)NC(=O)c1ccc(=O)n(Cc2ccc(O)cc2)n1

>  <score_type>  (52) 
oracle

>  <origin>  (52) 
adg

>  <m_score__min__energy>  (52) 
-12.92

>  <m_primary>  (52) 
energy

$$$$
52:0
     RDKit          3D

 47 50  0  0  0  0  0  0  0  0999 V2000
   54.4750   28.6220   53.8820 C   0  0  0  0  0  0  0  0  0  0  0  0
   55.1460   29.6960   53.4460 C   0  0  0  0  0  0  0  0  0  0  0  0
   56.1770   30.1270   54.2250 N   0  0  0  0  0  0  0  0  0  0  0  0
   57.0640   31.0690   53.8230 C   0  0  0  0  0  0  0  0  0  0  0  0
   56.9720   31.6170   52.5430 C   0  0  0  0  0  0  0  0  0  0  0  0
   57.9780   32.5990   52.0760 C   0  0  0  0  0  0  0  0  0  0  0  0
   57.9910   33.7510   52.5910 O   0  0  0  0  0  0  0  0  0  0  0  0
   58.9440   32.2700   51.0590 N   0  0  0  0  0  0  0  0  0  0  0  0
   58.5840   31.4050   49.9260 C   0  0  0  0  0  0  0  0  0  0  0  0
   59.0930   32.0110   48.6120 C   0  0  0  0  0  0  0  0  0  0  0  0
   60.4780   32.4960   48.7270 N   0  0  0  0  0  0  0  0  0  0  0  0
   61.1220   33.0420   47.5560 C   0  0  0  0  0  0  0  0  0  0  0  0
   60.6340   32.8230   46.4130 O   0  0  0  0  0  0  0  0  0  0  0  0
   62.3850   33.8520   47.6520 C   0  0  0  0  0  0  0  0  0  0  0  0
   63.6740   33.0430   47.5890 C   0  0  0  0  0  0  0  0  0  0  0  0
   63.2290   33.8520   46.3850 C   0  0  0  0  0  0  0  0  0  0  0  0
   61.1880   32.3560   50.0080 C   0  0  0  0  0  0  0  0  0  0  0  0
   60.2930   32.8460   51.1490 C   0  0  0  0  0  0  0  0  0  0  0  0
   55.9230   31.2050   51.7120 C   0  0  0  0  0  0  0  0  0  0  0  0
   54.9370   30.3080   52.1690 C   0  0  0  0  0  0  0  0  0  0  0  0
   53.8580   30.1150   51.3680 C   0  0  0  0  0  0  0  0  0  0  0  0
   52.6460   30.9550   51.3310 C   0  0  0  0  0  0  0  0  0  0  0  0
   52.3500   31.9100   52.2340 N   0  0  0  0  0  0  0  0  0  0  0  0
   51.2300   32.4760   51.7350 C   0  0  0  0  0  0  0  0  0  0  0  0
   50.6320   33.4190   52.3150 O   0  0  0  0  0  0  0  0  0  0  0  0
   50.8070   31.9580   50.5630 N   0  0  0  0  0  0  0  0  0  0  0  0
   51.7180   31.0030   50.3130 C   0  0  0  0  0  0  0  0  0  0  0  0
   51.6900   30.1930   49.1810 O   0  0  0  0  0  0  0  0  0  0  0  0
   53.6319   28.2255   53.2973 H   0  0  0  0  0  0  0  0  0  0  0  0
   54.7670   28.1364   54.8248 H   0  0  0  0  0  0  0  0  0  0  0  0
   57.8583   31.4025   54.5071 H   0  0  0  0  0  0  0  0  0  0  0  0
   59.0377   30.4130   50.0681 H   0  0  0  0  0  0  0  0  0  0  0  0
   57.4888   31.3146   49.8782 H   0  0  0  0  0  0  0  0  0  0  0  0
   59.0503   31.2421   47.8266 H   0  0  0  0  0  0  0  0  0  0  0  0
   58.4523   32.8701   48.3640 H   0  0  0  0  0  0  0  0  0  0  0  0
   61.9817   34.6217   48.3264 H   0  0  0  0  0  0  0  0  0  0  0  0
   64.5516   33.3609   48.1710 H   0  0  0  0  0  0  0  0  0  0  0  0
   63.9400   31.9898   47.7626 H   0  0  0  0  0  0  0  0  0  0  0  0
   63.7844   34.7560   46.0946 H   0  0  0  0  0  0  0  0  0  0  0  0
   63.0393   33.6273   45.3250 H   0  0  0  0  0  0  0  0  0  0  0  0
   61.4429   31.2985   50.1713 H   0  0  0  0  0  0  0  0  0  0  0  0
   62.1085   32.9576   49.9824 H   0  0  0  0  0  0  0  0  0  0  0  0
   60.7439   32.5527   52.1085 H   0  0  0  0  0  0  0  0  0  0  0  0
   60.2073   33.9402   51.0756 H   0  0  0  0  0  0  0  0  0  0  0  0
   55.8676   31.5889   50.6827 H   0  0  0  0  0  0  0  0  0  0  0  0
   53.8905   29.2538   50.6844 H   0  0  0  0  0  0  0  0  0  0  0  0
   52.5090   30.0710   48.5990 H   0  0  0  0  0  0  0  0  0  0  0  0
  1  2  2  0
  2  3  1  0
  3  4  2  0
  4  5  1  0
  5  6  1  0
  6  7  2  0
  6  8  1  0
  8  9  1  0
  9 10  1  0
 10 11  1  0
 11 12  1  0
 12 13  2  0
 12 14  1  0
 14 15  1  0
 15 16  1  0
 11 17  1  0
 17 18  1  0
  5 19  2  0
 19 20  1  0
 20 21  2  3
 21 22  1  0
 22 23  1  0
 23 24  1  0
 24 25  2  0
 24 26  1  0
 26 27  1  0
 27 28  1  0
 20  2  1  0
 27 22  2  0
 18  8  1  0
 16 14  1  0
  1 29  1  0
  1 30  1  0
  4 31  1  0
  9 32  1  0
  9 33  1  0
 10 34  1  0
 10 35  1  0
 14 36  1  0
 15 37  1  0
 15 38  1  0
 16 39  1  0
 16 40  1  0
 17 41  1  0
 17 42  1  0
 18 43  1  0
 18 44  1  0
 19 45  1  0
 21 46  1  0
 28 47  1  0
M  CHG  2  23  -1  26  -1
M  END
>  <UniqueID>  (53) 
50

>  <SMILES>  (53) 
C=c1ncc(C(=O)N2CCN(C(=O)C3CC3)CC2)cc1=Cc1[n-]c(=O)[n-]c1O

>  <Energy>  (53) 
365.90841169217737

>  <Genealogy>  (53) 
C=c1ncc(C(=O)N2CCN(C(=O)C3CC3)CC2)cc1=Cc1[n-]c(=O)[n-]c1O (protonated)
C=c1ncc(C(=O)N2CCN(C(=O)C3CC3)CC2)cc1=Cc1[n-]c(=O)[n-]c1O (3D coordinates assigned)
C=c1ncc(C(=O)N2CCN(C(=O)C3CC3)CC2)cc1=Cc1[n-]c(=O)[n-]c1O (nonaromatic ring conformer: 365.90841169217737 kcal/mol)

>  <smiles>  (53) 
C=c1ncc(C(=O)N2CCN(C(=O)C3CC3)CC2)cc1=Cc1[nH]c(=O)[nH]c1O

>  <score_type>  (53) 
oracle

>  <origin>  (53) 
adg

>  <m_score__min__energy>  (53) 
-13.289999999999999

>  <m_primary>  (53) 
energy

$$$$
53:0
     RDKit          3D

 70 73  0  0  0  0  0  0  0  0999 V2000
   58.8453   28.2848   42.6682 H   0  0  0  0  0  0  0  0  0  0  0  0
   58.3090   27.4070   43.0580 C   0  0  0  0  0  0  0  0  0  0  0  0
   57.7268   26.7704   42.3755 H   0  0  0  0  0  0  0  0  0  0  0  0
   58.3650   27.1130   44.3650 C   0  0  0  0  0  0  0  0  0  0  0  0
   57.7390   26.0360   45.0030 C   0  0  0  0  0  0  0  0  0  0  0  0
   56.9730   25.0820   44.4390 C   0  0  0  0  0  0  0  0  0  0  0  0
   57.3240   24.6295   43.4998 H   0  0  0  0  0  0  0  0  0  0  0  0
   55.6980   24.6060   44.9970 C   0  0  0  0  0  0  0  0  0  0  0  0
   55.2120   23.3700   44.7830 N   0  0  0  0  0  0  0  0  0  0  0  0
   53.9900   23.4020   45.3630 C   0  0  0  0  0  0  0  0  0  0  0  0
   53.2190   22.4010   45.3870 O   0  0  0  0  0  0  0  0  0  0  0  0
   53.6540   24.5920   45.9050 N   0  0  0  0  0  0  0  0  0  0  0  0
   54.7390   25.3470   45.6620 C   0  0  0  0  0  0  0  0  0  0  0  0
   54.8240   26.6960   45.9920 O   0  0  0  0  0  0  0  0  0  0  0  0
   58.0820   26.1240   46.3490 C   0  0  0  0  0  0  0  0  0  0  0  0
   57.7857   25.4317   47.1508 H   0  0  0  0  0  0  0  0  0  0  0  0
   58.8670   27.2510   46.4790 C   0  0  0  0  0  0  0  0  0  0  0  0
   59.4390   27.7350   47.7470 C   0  0  0  0  0  0  0  0  0  0  0  0
   59.7510   26.8910   48.6350 O   0  0  0  0  0  0  0  0  0  0  0  0
   59.5100   29.1550   48.0270 N   0  0  2  0  0  0  0  0  0  0  0  0
   58.9280   29.6630   47.3160 H   0  0  0  0  0  0  0  0  0  0  0  0
   60.9130   29.6490   47.9170 C   0  0  0  0  0  0  0  0  0  0  0  0
   61.5927   28.8391   48.2205 H   0  0  0  0  0  0  0  0  0  0  0  0
   61.0693   29.9529   46.8714 H   0  0  0  0  0  0  0  0  0  0  0  0
   61.2000   30.8890   48.8020 C   0  0  0  0  0  0  0  0  0  0  0  0
   61.5686   30.5506   49.7816 H   0  0  0  0  0  0  0  0  0  0  0  0
   61.9518   31.5089   48.2915 H   0  0  0  0  0  0  0  0  0  0  0  0
   59.9280   31.7470   49.0130 C   0  0  2  0  0  0  0  0  0  0  0  0
   59.6432   32.0800   48.0040 H   0  0  0  0  0  0  0  0  0  0  0  0
   60.1520   32.9760   49.8250 N   0  0  0  0  0  0  0  0  0  0  0  0
   60.7840   32.8100   51.1540 C   0  0  0  0  0  0  0  0  0  0  0  0
   60.3066   33.5024   51.8630 H   0  0  0  0  0  0  0  0  0  0  0  0
   60.6483   31.7639   51.4659 H   0  0  0  0  0  0  0  0  0  0  0  0
   62.2910   33.1010   51.1160 C   0  0  0  0  0  0  0  0  0  0  0  0
   62.6880   33.0829   52.1417 H   0  0  0  0  0  0  0  0  0  0  0  0
   62.7836   32.3328   50.5018 H   0  0  0  0  0  0  0  0  0  0  0  0
   62.5420   34.3690   50.5440 O   0  0  0  0  0  0  0  0  0  0  0  0
   62.1370   34.3640   49.1920 C   0  0  0  0  0  0  0  0  0  0  0  0
   62.4128   35.3227   48.7284 H   0  0  0  0  0  0  0  0  0  0  0  0
   62.6386   33.5329   48.6746 H   0  0  0  0  0  0  0  0  0  0  0  0
   60.6200   34.1700   49.0840 C   0  0  0  0  0  0  0  0  0  0  0  0
   60.1195   35.0595   49.4941 H   0  0  0  0  0  0  0  0  0  0  0  0
   60.3740   34.0247   48.0217 H   0  0  0  0  0  0  0  0  0  0  0  0
   58.7750   30.9150   49.6290 C   0  0  0  0  0  0  0  0  0  0  0  0
   58.7619   31.0822   50.7161 H   0  0  0  0  0  0  0  0  0  0  0  0
   57.8378   31.2438   49.1563 H   0  0  0  0  0  0  0  0  0  0  0  0
   58.9260   29.4050   49.3640 C   0  0  0  0  0  0  0  0  0  0  0  0
   59.5838   28.9696   50.1306 H   0  0  0  0  0  0  0  0  0  0  0  0
   57.9290   28.9419   49.4022 H   0  0  0  0  0  0  0  0  0  0  0  0
   59.0430   27.8550   45.2820 N   0  0  0  0  0  0  0  0  0  0  0  0
   59.8080   29.0920   45.0460 C   0  0  0  0  0  0  0  0  0  0  0  0
   60.6478   29.1364   45.7551 H   0  0  0  0  0  0  0  0  0  0  0  0
   60.1782   29.0828   44.0102 H   0  0  0  0  0  0  0  0  0  0  0  0
   58.9410   30.3060   45.2340 C   0  0  0  0  0  0  0  0  0  0  0  0
   59.1750   31.0880   46.1990 O   0  0  0  0  0  0  0  0  0  0  0  0
   57.8930   30.6430   44.3050 N   0  0  0  0  0  0  0  0  0  0  0  0
   56.6620   29.8480   44.3700 C   0  0  0  0  0  0  0  0  0  0  0  0
   56.3929   29.6742   45.4223 H   0  0  0  0  0  0  0  0  0  0  0  0
   55.8477   30.3913   43.8682 H   0  0  0  0  0  0  0  0  0  0  0  0
   56.8222   28.8823   43.8682 H   0  0  0  0  0  0  0  0  0  0  0  0
   58.0640   31.6490   43.2250 C   0  0  0  0  0  0  0  0  0  0  0  0
   59.0765   31.5145   42.8165 H   0  0  0  0  0  0  0  0  0  0  0  0
   57.0880   31.4220   42.0640 C   0  0  0  0  0  0  0  0  0  0  0  0
   56.0900   31.1899   42.4640 H   0  0  0  0  0  0  0  0  0  0  0  0
   57.0335   32.3315   41.4476 H   0  0  0  0  0  0  0  0  0  0  0  0
   57.4405   30.5819   41.4476 H   0  0  0  0  0  0  0  0  0  0  0  0
   57.9760   33.0800   43.7720 C   0  0  0  0  0  0  0  0  0  0  0  0
   57.9777   33.0529   44.8717 H   0  0  0  0  0  0  0  0  0  0  0  0
   58.8401   33.6616   43.4182 H   0  0  0  0  0  0  0  0  0  0  0  0
   57.0472   33.5513   43.4182 H   0  0  0  0  0  0  0  0  0  0  0  0
  1  2  1  0
  2  3  1  0
  2  4  2  0
  4  5  1  0
  5  6  2  0
  6  7  1  0
  6  8  1  0
  8  9  1  0
  9 10  1  0
 10 11  2  0
 10 12  1  0
 12 13  1  0
 13 14  1  0
  5 15  1  0
 15 16  1  0
 15 17  2  0
 17 18  1  0
 18 19  2  0
 18 20  1  0
 20 21  1  1
 20 22  1  0
 22 23  1  0
 22 24  1  0
 22 25  1  0
 25 26  1  0
 25 27  1  0
 25 28  1  0
 28 29  1  1
 28 30  1  0
 30 31  1  0
 31 32  1  0
 31 33  1  0
 31 34  1  0
 34 35  1  0
 34 36  1  0
 34 37  1  0
 37 38  1  0
 38 39  1  0
 38 40  1  0
 38 41  1  0
 41 42  1  0
 41 43  1  0
 28 44  1  0
 44 45  1  0
 44 46  1  0
 44 47  1  0
 47 48  1  0
 47 49  1  0
 17 50  1  0
 50 51  1  0
 51 52  1  0
 51 53  1  0
 51 54  1  0
 54 55  2  0
 54 56  1  0
 56 57  1  0
 57 58  1  0
 57 59  1  0
 57 60  1  0
 56 61  1  0
 61 62  1  0
 61 63  1  0
 63 64  1  0
 63 65  1  0
 63 66  1  0
 61 67  1  0
 67 68  1  0
 67 69  1  0
 67 70  1  0
 50  4  1  0
 13  8  2  0
 47 20  1  0
 41 30  1  0
M  CHG  4   9  -1  12  -1  14  -1  20   1
M  END
>  <UniqueID>  (54) 
51

>  <SMILES>  (54) 
C=c1/c(=C/c2[n-]c(=O)[n-]c2[O-])cc(C(=O)[NH+]2CCC(N3CCOCC3)CC2)n1CC(=O)N(C)C(C)C

>  <Energy>  (54) 
162.6393130841291

>  <Genealogy>  (54) 
C=c1c(=Cc2[n-]c(=O)[n-]c2[O-])cc(C(=O)[NH+]2CCC(N3CCOCC3)CC2)n1CC(=O)N(C)C(C)C (protonated)
C=c1/c(=C/c2[n-]c(=O)[n-]c2[O-])cc(C(=O)[NH+]2CCC(N3CCOCC3)CC2)n1CC(=O)N(C)C(C)C (cis-trans isomerization)
C=c1/c(=C/c2[n-]c(=O)[n-]c2[O-])cc(C(=O)[NH+]2CCC(N3CCOCC3)CC2)n1CC(=O)N(C)C(C)C (3D coordinates assigned)
C=c1/c(=C/c2[n-]c(=O)[n-]c2[O-])cc(C(=O)[NH+]2CCC(N3CCOCC3)CC2)n1CC(=O)N(C)C(C)C (nonaromatic ring conformer: 162.6393130841291 kcal/mol)

>  <smiles>  (54) 
C=c1c(=Cc2[nH]c(=O)[nH]c2O)cc(C(=O)N2CCC(N3CCOCC3)CC2)n1CC(=O)N(C)C(C)C

>  <score_type>  (54) 
oracle

>  <origin>  (54) 
adg

>  <m_score__min__energy>  (54) 
-16.170000000000002

>  <m_primary>  (54) 
energy

$$$$
54:0
     RDKit          3D

 30 31  0  0  0  0  0  0  0  0999 V2000
   55.8900   27.6340   45.6150 O   0  0  0  0  0  0  0  0  0  0  0  0
   56.1910   28.7510   45.1160 C   0  0  0  0  0  0  0  0  0  0  0  0
   55.1980   29.6990   44.9030 O   0  0  0  0  0  0  0  0  0  0  0  0
   57.6150   29.0760   44.8000 C   0  0  0  0  0  0  0  0  0  0  0  0
   57.7950   30.5700   44.6870 C   0  0  0  0  0  0  0  0  0  0  0  0
   57.6550   31.1890   43.4410 C   0  0  0  0  0  0  0  0  0  0  0  0
   57.7800   32.5700   43.3320 C   0  0  0  0  0  0  0  0  0  0  0  0
   58.0440   33.3280   44.4710 C   0  0  0  0  0  0  0  0  0  0  0  0
   58.1910   32.7320   45.6960 N   0  0  0  0  0  0  0  0  0  0  0  0
   58.4660   33.5900   46.8640 C   0  0  0  0  0  0  0  0  0  0  0  0
   59.9420   33.5870   47.2070 C   0  0  0  0  0  0  0  0  0  0  0  0
   60.8850   33.8140   46.1890 C   0  0  0  0  0  0  0  0  0  0  0  0
   62.2540   33.7920   46.4710 C   0  0  0  0  0  0  0  0  0  0  0  0
   62.6960   33.5400   47.7690 C   0  0  0  0  0  0  0  0  0  0  0  0
   61.7720   33.3090   48.7900 C   0  0  0  0  0  0  0  0  0  0  0  0
   60.3980   33.3290   48.5200 C   0  0  0  0  0  0  0  0  0  0  0  0
   59.2890   33.0370   49.8530 Cl  0  0  0  0  0  0  0  0  0  0  0  0
   58.0450   31.3690   45.8220 C   0  0  0  0  0  0  0  0  0  0  0  0
   58.1240   30.8220   46.9580 O   0  0  0  0  0  0  0  0  0  0  0  0
   58.2622   28.6915   45.6021 H   0  0  0  0  0  0  0  0  0  0  0  0
   57.8863   28.6080   43.8422 H   0  0  0  0  0  0  0  0  0  0  0  0
   57.4459   30.5836   42.5467 H   0  0  0  0  0  0  0  0  0  0  0  0
   57.6712   33.0604   42.3534 H   0  0  0  0  0  0  0  0  0  0  0  0
   58.1357   34.4208   44.3855 H   0  0  0  0  0  0  0  0  0  0  0  0
   58.1522   34.6193   46.6356 H   0  0  0  0  0  0  0  0  0  0  0  0
   57.9060   33.1976   47.7257 H   0  0  0  0  0  0  0  0  0  0  0  0
   60.5427   34.0105   45.1623 H   0  0  0  0  0  0  0  0  0  0  0  0
   62.9833   33.9737   45.6679 H   0  0  0  0  0  0  0  0  0  0  0  0
   63.7736   33.5231   47.9890 H   0  0  0  0  0  0  0  0  0  0  0  0
   62.1254   33.1101   49.8125 H   0  0  0  0  0  0  0  0  0  0  0  0
  1  2  2  0
  2  3  1  0
  2  4  1  0
  4  5  1  0
  5  6  2  0
  6  7  1  0
  7  8  2  0
  8  9  1  0
  9 10  1  0
 10 11  1  0
 11 12  2  0
 12 13  1  0
 13 14  2  0
 14 15  1  0
 15 16  2  0
 16 17  1  0
  9 18  1  0
 18 19  2  0
 18  5  1  0
 16 11  1  0
  4 20  1  0
  4 21  1  0
  6 22  1  0
  7 23  1  0
  8 24  1  0
 10 25  1  0
 10 26  1  0
 12 27  1  0
 13 28  1  0
 14 29  1  0
 15 30  1  0
M  CHG  1   3  -1
M  END
>  <UniqueID>  (55) 
52

>  <SMILES>  (55) 
O=C([O-])Cc1cccn(Cc2ccccc2Cl)c1=O

>  <Energy>  (55) 
33.91527928410514

>  <Genealogy>  (55) 
O=C([O-])Cc1cccn(Cc2ccccc2Cl)c1=O (protonated)
O=C([O-])Cc1cccn(Cc2ccccc2Cl)c1=O (3D coordinates assigned)
O=C([O-])Cc1cccn(Cc2ccccc2Cl)c1=O (optimized conformer: 33.91527928410514 kcal/mol)

>  <smiles>  (55) 
O=C(O)Cc1cccn(Cc2ccccc2Cl)c1=O

>  <score_type>  (55) 
oracle

>  <origin>  (55) 
adg

>  <m_score__min__energy>  (55) 
-9.9100000000000001

>  <m_primary>  (55) 
energy

$$$$
55:0
     RDKit          3D

 38 40  0  0  0  0  0  0  0  0999 V2000
   59.2040   34.0820   53.4170 C   0  0  0  0  0  0  0  0  0  0  0  0
   58.5260   33.9890   52.2740 C   0  0  0  0  0  0  0  0  0  0  0  0
   58.6720   32.8350   51.3590 C   0  0  0  0  0  0  0  0  0  0  0  0
   57.9990   31.6660   51.7070 C   0  0  0  0  0  0  0  0  0  0  0  0
   58.1340   30.5210   50.9340 C   0  0  0  0  0  0  0  0  0  0  0  0
   57.5040   29.4790   51.2680 O   0  0  0  0  0  0  0  0  0  0  0  0
   58.9510   30.5130   49.8400 N   0  0  0  0  0  0  0  0  0  0  0  0
   59.0640   29.3700   49.1580 N   0  0  0  0  0  0  0  0  0  0  0  0
   59.8560   29.2350   48.0670 C   0  0  0  0  0  0  0  0  0  0  0  0
   59.9410   27.8960   47.3910 C   0  0  0  0  0  0  0  0  0  0  0  0
   58.5820   27.4680   46.9060 C   0  0  0  0  0  0  0  0  0  0  0  0
   57.8640   28.2810   46.0140 C   0  0  0  0  0  0  0  0  0  0  0  0
   56.5870   27.9020   45.5870 C   0  0  0  0  0  0  0  0  0  0  0  0
   56.0160   26.7130   46.0520 C   0  0  0  0  0  0  0  0  0  0  0  0
   54.7480   26.3380   45.6280 O   0  0  0  0  0  0  0  0  0  0  0  0
   56.7220   25.9030   46.9470 C   0  0  0  0  0  0  0  0  0  0  0  0
   57.9990   26.2790   47.3760 C   0  0  0  0  0  0  0  0  0  0  0  0
   60.6290   30.3180   47.6520 C   0  0  0  0  0  0  0  0  0  0  0  0
   61.4890   30.1790   46.5590 O   0  0  0  0  0  0  0  0  0  0  0  0
   60.5350   31.5290   48.3480 C   0  0  0  0  0  0  0  0  0  0  0  0
   61.2800   32.4830   47.9990 O   0  0  0  0  0  0  0  0  0  0  0  0
   59.6400   31.6450   49.4480 C   0  0  0  0  0  0  0  0  0  0  0  0
   59.4380   32.8680   50.1660 C   0  0  0  0  0  0  0  0  0  0  0  0
   59.9480   34.1950   49.6370 C   0  0  0  0  0  0  0  0  0  0  0  0
   59.0659   34.9573   54.0687 H   0  0  0  0  0  0  0  0  0  0  0  0
   59.9019   33.2835   53.7091 H   0  0  0  0  0  0  0  0  0  0  0  0
   57.8332   34.7985   52.0007 H   0  0  0  0  0  0  0  0  0  0  0  0
   57.3567   31.6502   52.5998 H   0  0  0  0  0  0  0  0  0  0  0  0
   60.6269   27.9652   46.5338 H   0  0  0  0  0  0  0  0  0  0  0  0
   60.3132   27.1540   48.1127 H   0  0  0  0  0  0  0  0  0  0  0  0
   58.3075   29.2194   45.6497 H   0  0  0  0  0  0  0  0  0  0  0  0
   56.0310   28.5401   44.8844 H   0  0  0  0  0  0  0  0  0  0  0  0
   56.2723   24.9687   47.3142 H   0  0  0  0  0  0  0  0  0  0  0  0
   58.5490   25.6416   48.0840 H   0  0  0  0  0  0  0  0  0  0  0  0
   62.1720   30.8870   46.3120 H   0  0  0  0  0  0  0  0  0  0  0  0
   60.2010   34.8534   50.4811 H   0  0  0  0  0  0  0  0  0  0  0  0
   60.8448   34.0248   49.0231 H   0  0  0  0  0  0  0  0  0  0  0  0
   59.1680   34.6692   49.0231 H   0  0  0  0  0  0  0  0  0  0  0  0
  1  2  2  0
  2  3  1  0
  3  4  2  0
  4  5  1  0
  5  6  2  0
  5  7  1  0
  7  8  1  0
  8  9  1  0
  9 10  1  0
 10 11  1  0
 11 12  2  0
 12 13  1  0
 13 14  2  0
 14 15  1  0
 14 16  1  0
 16 17  2  0
  9 18  2  0
 18 19  1  0
 18 20  1  0
 20 21  2  0
 20 22  1  0
 22 23  2  0
 23 24  1  0
 23  3  1  0
 22  7  1  0
 17 11  1  0
  1 25  1  0
  1 26  1  0
  2 27  1  0
  4 28  1  0
 10 29  1  0
 10 30  1  0
 12 31  1  0
 13 32  1  0
 16 33  1  0
 17 34  1  0
 19 35  1  0
 24 36  1  0
 24 37  1  0
 24 38  1  0
M  CHG  2   8  -1  15  -1
M  END
>  <UniqueID>  (56) 
53

>  <SMILES>  (56) 
C=Cc1cc(=O)n2[n-]c(Cc3ccc([O-])cc3)c(O)c(=O)c2c1C

>  <Energy>  (56) 
58.14753003276967

>  <Genealogy>  (56) 
C=Cc1cc(=O)n2[n-]c(Cc3ccc([O-])cc3)c(O)c(=O)c2c1C (protonated)
C=Cc1cc(=O)n2[n-]c(Cc3ccc([O-])cc3)c(O)c(=O)c2c1C (3D coordinates assigned)
C=Cc1cc(=O)n2[n-]c(Cc3ccc([O-])cc3)c(O)c(=O)c2c1C (optimized conformer: 58.14753003276967 kcal/mol)

>  <smiles>  (56) 
C=Cc1cc(=O)n2[nH]c(Cc3ccc(O)cc3)c(O)c(=O)c2c1C

>  <score_type>  (56) 
oracle

>  <origin>  (56) 
adg

>  <m_score__min__energy>  (56) 
-11.08

>  <m_primary>  (56) 
energy

$$$$
56:0
     RDKit          3D

 43 45  0  0  0  0  0  0  0  0999 V2000
   61.1310   30.3350   46.8130 C   0  0  0  0  0  0  0  0  0  0  0  0
   60.0630   31.2750   47.9440 S   0  0  0  0  0  0  0  0  0  0  0  0
   59.6290   32.5170   46.7070 C   0  0  0  0  0  0  0  0  0  0  0  0
   58.4780   32.3530   45.9030 C   0  0  0  0  0  0  0  0  0  0  0  0
   57.6660   31.1730   45.9890 N   0  0  0  0  0  0  0  0  0  0  0  0
   57.5770   30.1880   44.9430 C   0  0  0  0  0  0  0  0  0  0  0  0
   56.7040   30.3500   43.8490 C   0  0  0  0  0  0  0  0  0  0  0  0
   56.6340   29.3730   42.8510 C   0  0  0  0  0  0  0  0  0  0  0  0
   57.4230   28.2240   42.9390 C   0  0  0  0  0  0  0  0  0  0  0  0
   58.2820   28.0480   44.0260 C   0  0  0  0  0  0  0  0  0  0  0  0
   58.3560   29.0230   45.0260 C   0  0  0  0  0  0  0  0  0  0  0  0
   58.0870   33.3820   45.0380 C   0  0  0  0  0  0  0  0  0  0  0  0
   58.8490   34.5450   44.9290 C   0  0  0  0  0  0  0  0  0  0  0  0
   60.0070   34.6950   45.6910 C   0  0  0  0  0  0  0  0  0  0  0  0
   60.4070   33.6880   46.5820 C   0  0  0  0  0  0  0  0  0  0  0  0
   61.6010   33.8650   47.3610 N   0  0  0  0  0  0  0  0  0  0  0  0
   62.9110   33.8690   46.7030 C   0  0  0  0  0  0  0  0  0  0  0  0
   63.9630   33.1160   47.5470 C   0  0  0  0  0  0  0  0  0  0  0  0
   63.5830   32.9710   48.9670 N   0  0  0  0  0  0  0  0  0  0  0  0
   62.8550   34.1440   49.4690 C   0  0  0  0  0  0  0  0  0  0  0  0
   61.4940   34.2600   48.7690 C   0  0  0  0  0  0  0  0  0  0  0  0
   61.8309   29.7190   47.3967 H   0  0  0  0  0  0  0  0  0  0  0  0
   60.5108   29.6844   46.1789 H   0  0  0  0  0  0  0  0  0  0  0  0
   61.6976   31.0328   46.1789 H   0  0  0  0  0  0  0  0  0  0  0  0
   57.0220   31.0880   46.8060 H   0  0  0  0  0  0  0  0  0  0  0  0
   56.0745   31.2494   43.7796 H   0  0  0  0  0  0  0  0  0  0  0  0
   55.9564   29.5097   41.9953 H   0  0  0  0  0  0  0  0  0  0  0  0
   57.3678   27.4575   42.1520 H   0  0  0  0  0  0  0  0  0  0  0  0
   58.9011   27.1415   44.0958 H   0  0  0  0  0  0  0  0  0  0  0  0
   59.0292   28.8760   45.8834 H   0  0  0  0  0  0  0  0  0  0  0  0
   57.1709   33.2723   44.4391 H   0  0  0  0  0  0  0  0  0  0  0  0
   58.5362   35.3446   44.2413 H   0  0  0  0  0  0  0  0  0  0  0  0
   60.6110   35.6091   45.5928 H   0  0  0  0  0  0  0  0  0  0  0  0
   62.8211   33.3796   45.7220 H   0  0  0  0  0  0  0  0  0  0  0  0
   63.2394   34.9125   46.5876 H   0  0  0  0  0  0  0  0  0  0  0  0
   64.0998   32.1121   47.1186 H   0  0  0  0  0  0  0  0  0  0  0  0
   64.8880   33.7107   47.5180 H   0  0  0  0  0  0  0  0  0  0  0  0
   62.9890   32.1150   49.0860 H   0  0  0  0  0  0  0  0  0  0  0  0
   64.4500   32.8420   49.5380 H   0  0  0  0  0  0  0  0  0  0  0  0
   62.6988   34.0388   50.5528 H   0  0  0  0  0  0  0  0  0  0  0  0
   63.4446   35.0492   49.2617 H   0  0  0  0  0  0  0  0  0  0  0  0
   60.7707   33.6033   49.2745 H   0  0  0  0  0  0  0  0  0  0  0  0
   61.1584   35.3064   48.8186 H   0  0  0  0  0  0  0  0  0  0  0  0
  1  2  1  0
  2  3  1  0
  3  4  2  0
  4  5  1  0
  5  6  1  0
  6  7  2  0
  7  8  1  0
  8  9  2  0
  9 10  1  0
 10 11  2  0
  4 12  1  0
 12 13  2  0
 13 14  1  0
 14 15  2  0
 15 16  1  0
 16 17  1  0
 17 18  1  0
 18 19  1  0
 19 20  1  0
 20 21  1  0
 15  3  1  0
 21 16  1  0
 11  6  1  0
  1 22  1  0
  1 23  1  0
  1 24  1  0
  5 25  1  0
  7 26  1  0
  8 27  1  0
  9 28  1  0
 10 29  1  0
 11 30  1  0
 12 31  1  0
 13 32  1  0
 14 33  1  0
 17 34  1  0
 17 35  1  0
 18 36  1  0
 18 37  1  0
 19 38  1  0
 19 39  1  0
 20 40  1  0
 20 41  1  0
 21 42  1  0
 21 43  1  0
M  CHG  1  19   1
M  END
>  <UniqueID>  (57) 
54

>  <SMILES>  (57) 
CSc1c(Nc2ccccc2)cccc1N1CC[NH2+]CC1

>  <Energy>  (57) 
55.42981586909886

>  <Genealogy>  (57) 
CSc1c(Nc2ccccc2)cccc1N1CC[NH2+]CC1 (protonated)
CSc1c(Nc2ccccc2)cccc1N1CC[NH2+]CC1 (3D coordinates assigned)
CSc1c(Nc2ccccc2)cccc1N1CC[NH2+]CC1 (nonaromatic ring conformer: 55.42981586909886 kcal/mol)

>  <smiles>  (57) 
CSc1c(Nc2ccccc2)cccc1N1CCNCC1

>  <score_type>  (57) 
oracle

>  <origin>  (57) 
adg

>  <m_score__min__energy>  (57) 
-5.8700000000000001

>  <m_primary>  (57) 
energy

$$$$
57:0
     RDKit          3D

 45 47  0  0  0  0  0  0  0  0999 V2000
   58.9420   32.7110   49.7260 O   0  0  0  0  0  0  0  0  0  0  0  0
   59.5030   33.4200   48.8450 C   0  0  0  0  0  0  0  0  0  0  0  0
   60.5870   34.3830   49.2520 C   0  0  0  0  0  0  0  0  0  0  0  0
   61.9330   33.7010   49.2980 C   0  0  0  0  0  0  0  0  0  0  0  0
   62.8550   33.9190   48.2600 C   0  0  0  0  0  0  0  0  0  0  0  0
   64.1180   33.3210   48.2970 C   0  0  0  0  0  0  0  0  0  0  0  0
   64.4740   32.5080   49.3750 C   0  0  0  0  0  0  0  0  0  0  0  0
   63.5720   32.2960   50.4210 C   0  0  0  0  0  0  0  0  0  0  0  0
   62.3040   32.8930   50.3930 C   0  0  0  0  0  0  0  0  0  0  0  0
   61.4150   32.6880   51.4470 O   0  0  0  0  0  0  0  0  0  0  0  0
   59.1180   33.2800   47.4660 N   0  0  0  0  0  0  0  0  0  0  0  0
   57.7690   32.8240   47.1300 C   0  0  0  0  0  0  0  0  0  0  0  0
   57.2750   33.5240   45.8600 C   0  0  0  0  0  0  0  0  0  0  0  0
   58.2700   33.5090   44.7680 N   0  0  0  0  0  0  0  0  0  0  0  0
   58.1250   32.4520   43.7460 C   0  0  0  0  0  0  0  0  0  0  0  0
   57.4380   31.2080   44.2520 C   0  0  0  0  0  0  0  0  0  0  0  0
   56.1730   30.8430   43.7590 C   0  0  0  0  0  0  0  0  0  0  0  0
   55.5440   29.6820   44.2180 C   0  0  0  0  0  0  0  0  0  0  0  0
   56.1780   28.8670   45.1610 C   0  0  0  0  0  0  0  0  0  0  0  0
   55.5510   27.7160   45.6190 O   0  0  0  0  0  0  0  0  0  0  0  0
   57.4470   29.2100   45.6400 C   0  0  0  0  0  0  0  0  0  0  0  0
   58.0790   30.3710   45.1820 C   0  0  0  0  0  0  0  0  0  0  0  0
   59.6470   33.8880   45.1460 C   0  0  0  0  0  0  0  0  0  0  0  0
   60.1310   33.1780   46.4140 C   0  0  0  0  0  0  0  0  0  0  0  0
   60.6268   35.2070   48.5244 H   0  0  0  0  0  0  0  0  0  0  0  0
   60.3550   34.7646   50.2573 H   0  0  0  0  0  0  0  0  0  0  0  0
   62.5809   34.5646   47.4126 H   0  0  0  0  0  0  0  0  0  0  0  0
   64.8313   33.4909   47.4770 H   0  0  0  0  0  0  0  0  0  0  0  0
   65.4661   32.0336   49.4009 H   0  0  0  0  0  0  0  0  0  0  0  0
   63.8582   31.6579   51.2701 H   0  0  0  0  0  0  0  0  0  0  0  0
   60.4310   32.5050   51.2850 H   0  0  0  0  0  0  0  0  0  0  0  0
   57.7839   31.7368   46.9633 H   0  0  0  0  0  0  0  0  0  0  0  0
   57.0905   33.0672   47.9610 H   0  0  0  0  0  0  0  0  0  0  0  0
   56.3641   33.0154   45.5112 H   0  0  0  0  0  0  0  0  0  0  0  0
   57.0849   34.5765   46.1173 H   0  0  0  0  0  0  0  0  0  0  0  0
   57.5374   32.8569   42.9089 H   0  0  0  0  0  0  0  0  0  0  0  0
   59.1405   32.1572   43.4428 H   0  0  0  0  0  0  0  0  0  0  0  0
   55.6755   31.4744   43.0081 H   0  0  0  0  0  0  0  0  0  0  0  0
   54.5489   29.4091   43.8368 H   0  0  0  0  0  0  0  0  0  0  0  0
   57.9483   28.5661   46.3776 H   0  0  0  0  0  0  0  0  0  0  0  0
   59.0822   30.6302   45.5513 H   0  0  0  0  0  0  0  0  0  0  0  0
   60.3229   33.6282   44.3180 H   0  0  0  0  0  0  0  0  0  0  0  0
   59.6488   34.9688   45.3504 H   0  0  0  0  0  0  0  0  0  0  0  0
   60.3161   32.1173   46.1888 H   0  0  0  0  0  0  0  0  0  0  0  0
   61.0596   33.6547   46.7612 H   0  0  0  0  0  0  0  0  0  0  0  0
  1  2  2  0
  2  3  1  0
  3  4  1  0
  4  5  2  0
  5  6  1  0
  6  7  2  0
  7  8  1  0
  8  9  2  0
  9 10  1  0
  2 11  1  0
 11 12  1  0
 12 13  1  0
 13 14  1  0
 14 15  1  0
 15 16  1  0
 16 17  2  0
 17 18  1  0
 18 19  2  0
 19 20  1  0
 19 21  1  0
 21 22  2  0
 14 23  1  0
 23 24  1  0
  9  4  1  0
 24 11  1  0
 22 16  1  0
  3 25  1  0
  3 26  1  0
  5 27  1  0
  6 28  1  0
  7 29  1  0
  8 30  1  0
 10 31  1  0
 12 32  1  0
 12 33  1  0
 13 34  1  0
 13 35  1  0
 15 36  1  0
 15 37  1  0
 17 38  1  0
 18 39  1  0
 21 40  1  0
 22 41  1  0
 23 42  1  0
 23 43  1  0
 24 44  1  0
 24 45  1  0
M  CHG  1  20  -1
M  END
>  <UniqueID>  (58) 
55

>  <SMILES>  (58) 
O=C(Cc1ccccc1O)N1CCN(Cc2ccc([O-])cc2)CC1

>  <Energy>  (58) 
56.52311896423041

>  <Genealogy>  (58) 
O=C(Cc1ccccc1O)N1CCN(Cc2ccc([O-])cc2)CC1 (protonated)
O=C(Cc1ccccc1O)N1CCN(Cc2ccc([O-])cc2)CC1 (3D coordinates assigned)
O=C(Cc1ccccc1O)N1CCN(Cc2ccc([O-])cc2)CC1 (nonaromatic ring conformer: 56.52311896423041 kcal/mol)

>  <smiles>  (58) 
O=C(Cc1ccccc1O)N1CCN(Cc2ccc(O)cc2)CC1

>  <score_type>  (58) 
oracle

>  <origin>  (58) 
adg

>  <m_score__min__energy>  (58) 
-10.789999999999999

>  <m_primary>  (58) 
energy

$$$$
58:0
     RDKit          3D

 63 67  0  0  0  0  0  0  0  0999 V2000
   56.9400   24.3110   47.8740 C   0  0  0  0  0  0  0  0  0  0  0  0
   56.7660   24.3880   46.4120 N   0  0  0  0  0  0  0  0  0  0  0  0
   56.1230   25.6640   46.0000 C   0  0  0  0  0  0  0  0  0  0  0  0
   57.1120   26.7180   45.4630 C   0  0  0  0  0  0  0  0  0  0  0  0
   58.4370   26.5310   46.0630 N   0  0  0  0  0  0  0  0  0  0  0  0
   59.0830   27.5910   46.7930 C   0  0  0  0  0  0  0  0  0  0  0  0
   59.0380   28.9130   46.3170 C   0  0  0  0  0  0  0  0  0  0  0  0
   59.6710   29.9420   47.0230 C   0  0  0  0  0  0  0  0  0  0  0  0
   60.3850   29.6620   48.1990 C   0  0  0  0  0  0  0  0  0  0  0  0
   60.9940   30.7410   48.9300 N   0  0  0  0  0  0  0  0  0  0  0  0
   61.9330   31.6730   48.3680 C   0  0  0  0  0  0  0  0  0  0  0  0
   62.1280   31.7250   47.1240 O   0  0  0  0  0  0  0  0  0  0  0  0
   62.6750   32.6140   49.2620 C   0  0  0  0  0  0  0  0  0  0  0  0
   61.7100   34.1390   49.5300 S   0  0  0  0  0  0  0  0  0  0  0  0
   60.1390   33.2940   49.7520 C   0  0  0  0  0  0  0  0  0  0  0  0
   59.8330   32.6360   50.8830 N   0  0  0  0  0  0  0  0  0  0  0  0
   58.6300   32.0830   50.6290 C   0  0  0  0  0  0  0  0  0  0  0  0
   57.9110   31.2240   51.5940 C   0  0  0  0  0  0  0  0  0  0  0  0
   56.6260   31.5750   52.0460 C   0  0  0  0  0  0  0  0  0  0  0  0
   55.9370   30.7450   52.9370 C   0  0  0  0  0  0  0  0  0  0  0  0
   56.5270   29.5640   53.3920 C   0  0  0  0  0  0  0  0  0  0  0  0
   57.8120   29.2170   52.9700 C   0  0  0  0  0  0  0  0  0  0  0  0
   58.5020   30.0400   52.0740 C   0  0  0  0  0  0  0  0  0  0  0  0
   58.1600   32.3620   49.3950 N   0  0  0  0  0  0  0  0  0  0  0  0
   59.1090   33.1350   48.8350 C   0  0  0  0  0  0  0  0  0  0  0  0
   58.9980   33.6530   47.4480 C   0  0  0  0  0  0  0  0  0  0  0  0
   59.7310   34.8010   47.0830 C   0  0  0  0  0  0  0  0  0  0  0  0
   59.6470   35.3160   45.7860 C   0  0  0  0  0  0  0  0  0  0  0  0
   58.8410   34.6900   44.8360 C   0  0  0  0  0  0  0  0  0  0  0  0
   58.1320   33.5370   45.1740 C   0  0  0  0  0  0  0  0  0  0  0  0
   58.2170   33.0120   46.4680 C   0  0  0  0  0  0  0  0  0  0  0  0
   60.4360   28.3390   48.6690 C   0  0  0  0  0  0  0  0  0  0  0  0
   59.7930   27.3140   47.9720 C   0  0  0  0  0  0  0  0  0  0  0  0
   59.0790   25.2160   45.9470 C   0  0  0  0  0  0  0  0  0  0  0  0
   58.0290   24.1210   45.6910 C   0  0  0  0  0  0  0  0  0  0  0  0
   56.0428   24.7080   48.3714 H   0  0  0  0  0  0  0  0  0  0  0  0
   57.0900   23.2624   48.1707 H   0  0  0  0  0  0  0  0  0  0  0  0
   57.8170   24.9051   48.1707 H   0  0  0  0  0  0  0  0  0  0  0  0
   55.3899   25.4430   45.2102 H   0  0  0  0  0  0  0  0  0  0  0  0
   55.6583   26.0922   46.9004 H   0  0  0  0  0  0  0  0  0  0  0  0
   57.1916   26.6165   44.3706 H   0  0  0  0  0  0  0  0  0  0  0  0
   56.7410   27.7200   45.7244 H   0  0  0  0  0  0  0  0  0  0  0  0
   58.5018   29.1399   45.3837 H   0  0  0  0  0  0  0  0  0  0  0  0
   59.6088   30.9765   46.6544 H   0  0  0  0  0  0  0  0  0  0  0  0
   60.6760   30.9050   49.9130 H   0  0  0  0  0  0  0  0  0  0  0  0
   62.8559   32.1255   50.2309 H   0  0  0  0  0  0  0  0  0  0  0  0
   63.6305   32.8777   48.7850 H   0  0  0  0  0  0  0  0  0  0  0  0
   56.1598   32.5081   51.6967 H   0  0  0  0  0  0  0  0  0  0  0  0
   54.9293   31.0231   53.2795 H   0  0  0  0  0  0  0  0  0  0  0  0
   55.9792   28.9067   54.0832 H   0  0  0  0  0  0  0  0  0  0  0  0
   58.2823   28.2951   53.3427 H   0  0  0  0  0  0  0  0  0  0  0  0
   59.5128   29.7603   51.7423 H   0  0  0  0  0  0  0  0  0  0  0  0
   60.3746   35.2957   47.8253 H   0  0  0  0  0  0  0  0  0  0  0  0
   60.2176   36.2164   45.5146 H   0  0  0  0  0  0  0  0  0  0  0  0
   58.7642   35.1051   43.8202 H   0  0  0  0  0  0  0  0  0  0  0  0
   57.5040   33.0390   44.4206 H   0  0  0  0  0  0  0  0  0  0  0  0
   57.6698   32.0920   46.7213 H   0  0  0  0  0  0  0  0  0  0  0  0
   60.9866   28.1089   49.5930 H   0  0  0  0  0  0  0  0  0  0  0  0
   59.8432   26.2820   48.3495 H   0  0  0  0  0  0  0  0  0  0  0  0
   59.7929   25.2349   45.1103 H   0  0  0  0  0  0  0  0  0  0  0  0
   59.6018   24.9925   46.8886 H   0  0  0  0  0  0  0  0  0  0  0  0
   57.8195   24.0746   44.6121 H   0  0  0  0  0  0  0  0  0  0  0  0
   58.4354   23.1669   46.0578 H   0  0  0  0  0  0  0  0  0  0  0  0
  1  2  1  0
  2  3  1  0
  3  4  1  0
  4  5  1  0
  5  6  1  0
  6  7  2  0
  7  8  1  0
  8  9  2  0
  9 10  1  0
 10 11  1  0
 11 12  2  0
 11 13  1  0
 13 14  1  0
 14 15  1  0
 15 16  1  0
 16 17  2  0
 17 18  1  0
 18 19  2  0
 19 20  1  0
 20 21  2  0
 21 22  1  0
 22 23  2  0
 17 24  1  0
 24 25  1  0
 25 26  1  0
 26 27  2  0
 27 28  1  0
 28 29  2  0
 29 30  1  0
 30 31  2  0
  9 32  1  0
 32 33  2  0
  5 34  1  0
 34 35  1  0
 35  2  1  0
 33  6  1  0
 25 15  2  0
 31 26  1  0
 23 18  1  0
  1 36  1  0
  1 37  1  0
  1 38  1  0
  3 39  1  0
  3 40  1  0
  4 41  1  0
  4 42  1  0
  7 43  1  0
  8 44  1  0
 10 45  1  0
 13 46  1  0
 13 47  1  0
 19 48  1  0
 20 49  1  0
 21 50  1  0
 22 51  1  0
 23 52  1  0
 27 53  1  0
 28 54  1  0
 29 55  1  0
 30 56  1  0
 31 57  1  0
 32 58  1  0
 33 59  1  0
 34 60  1  0
 34 61  1  0
 35 62  1  0
 35 63  1  0
M  CHG  1  24  -1
M  END
>  <UniqueID>  (59) 
56

>  <SMILES>  (59) 
CN1CCN(c2ccc(NC(=O)CSc3nc(-c4ccccc4)[n-]c3-c3ccccc3)cc2)CC1

>  <Energy>  (59) 
107.5885010543705

>  <Genealogy>  (59) 
CN1CCN(c2ccc(NC(=O)CSc3nc(-c4ccccc4)[n-]c3-c3ccccc3)cc2)CC1 (protonated)
CN1CCN(c2ccc(NC(=O)CSc3nc(-c4ccccc4)[n-]c3-c3ccccc3)cc2)CC1 (3D coordinates assigned)
CN1CCN(c2ccc(NC(=O)CSc3nc(-c4ccccc4)[n-]c3-c3ccccc3)cc2)CC1 (nonaromatic ring conformer: 107.5885010543705 kcal/mol)

>  <smiles>  (59) 
CN1CCN(c2ccc(NC(=O)CSc3nc(-c4ccccc4)[nH]c3-c3ccccc3)cc2)CC1

>  <score_type>  (59) 
oracle

>  <origin>  (59) 
adg

>  <m_score__min__energy>  (59) 
-10.1

>  <m_primary>  (59) 
energy

$$$$
59:0
     RDKit          3D

 55 58  0  0  0  0  0  0  0  0999 V2000
   57.0780   26.5150   46.4140 C   0  0  0  0  0  0  0  0  0  0  0  0
   57.2840   27.6900   45.7960 C   0  0  0  0  0  0  0  0  0  0  0  0
   56.1900   28.2860   45.2590 N   0  0  0  0  0  0  0  0  0  0  0  0
   56.2380   29.4800   44.6310 C   0  0  0  0  0  0  0  0  0  0  0  0
   55.1650   29.9780   44.1930 O   0  0  0  0  0  0  0  0  0  0  0  0
   57.4310   30.1280   44.4710 N   0  0  0  0  0  0  0  0  0  0  0  0
   57.4810   31.4550   43.8200 C   0  0  0  0  0  0  0  0  0  0  0  0
   57.9150   32.5030   44.8120 C   0  0  0  0  0  0  0  0  0  0  0  0
   57.7280   32.2910   46.1880 C   0  0  0  0  0  0  0  0  0  0  0  0
   58.1760   33.2380   47.1150 C   0  0  0  0  0  0  0  0  0  0  0  0
   58.8200   34.3970   46.6750 C   0  0  0  0  0  0  0  0  0  0  0  0
   59.0170   34.6120   45.3100 C   0  0  0  0  0  0  0  0  0  0  0  0
   58.5680   33.6700   44.3800 C   0  0  0  0  0  0  0  0  0  0  0  0
   58.5820   29.5620   44.9550 C   0  0  0  0  0  0  0  0  0  0  0  0
   59.6890   30.1050   44.6790 O   0  0  0  0  0  0  0  0  0  0  0  0
   58.5470   28.3540   45.7110 C   0  0  0  0  0  0  0  0  0  0  0  0
   59.6680   27.8500   46.3090 C   0  0  0  0  0  0  0  0  0  0  0  0
   60.0720   28.0850   47.7140 C   0  0  0  0  0  0  0  0  0  0  0  0
   60.3640   26.9960   48.5440 C   0  0  0  0  0  0  0  0  0  0  0  0
   60.7280   27.2070   49.8760 C   0  0  0  0  0  0  0  0  0  0  0  0
   60.7900   28.5040   50.3920 C   0  0  0  0  0  0  0  0  0  0  0  0
   60.4740   29.6080   49.5750 C   0  0  0  0  0  0  0  0  0  0  0  0
   60.5230   30.9340   50.0360 O   0  0  0  0  0  0  0  0  0  0  0  0
   59.3950   31.7130   50.4310 C   0  0  0  0  0  0  0  0  0  0  0  0
   59.8110   33.1160   50.7400 C   0  0  0  0  0  0  0  0  0  0  0  0
   58.9520   33.9400   51.1560 O   0  0  0  0  0  0  0  0  0  0  0  0
   61.1600   33.5270   50.4880 N   0  0  0  0  0  0  0  0  0  0  0  0
   61.8960   33.3480   49.2690 C   0  0  0  0  0  0  0  0  0  0  0  0
   63.0440   32.5440   49.2910 C   0  0  0  0  0  0  0  0  0  0  0  0
   63.7990   32.3550   48.1290 C   0  0  0  0  0  0  0  0  0  0  0  0
   63.4200   32.9840   46.9390 C   0  0  0  0  0  0  0  0  0  0  0  0
   62.2910   33.8060   46.9130 C   0  0  0  0  0  0  0  0  0  0  0  0
   61.5340   33.9950   48.0730 C   0  0  0  0  0  0  0  0  0  0  0  0
   60.0900   29.3860   48.2490 C   0  0  0  0  0  0  0  0  0  0  0  0
   57.9225   25.9785   46.8712 H   0  0  0  0  0  0  0  0  0  0  0  0
   56.0648   26.0894   46.4628 H   0  0  0  0  0  0  0  0  0  0  0  0
   58.1979   31.4243   42.9862 H   0  0  0  0  0  0  0  0  0  0  0  0
   56.4792   31.7090   43.4434 H   0  0  0  0  0  0  0  0  0  0  0  0
   57.2271   31.3764   46.5381 H   0  0  0  0  0  0  0  0  0  0  0  0
   58.0211   33.0700   48.1910 H   0  0  0  0  0  0  0  0  0  0  0  0
   59.1721   35.1408   47.4049 H   0  0  0  0  0  0  0  0  0  0  0  0
   59.5264   35.5241   44.9656 H   0  0  0  0  0  0  0  0  0  0  0  0
   58.7265   33.8429   43.3053 H   0  0  0  0  0  0  0  0  0  0  0  0
   60.3252   27.2167   45.6950 H   0  0  0  0  0  0  0  0  0  0  0  0
   60.3067   25.9720   48.1463 H   0  0  0  0  0  0  0  0  0  0  0  0
   60.9668   26.3487   50.5212 H   0  0  0  0  0  0  0  0  0  0  0  0
   61.0864   28.6639   51.4392 H   0  0  0  0  0  0  0  0  0  0  0  0
   58.6591   31.7251   49.6135 H   0  0  0  0  0  0  0  0  0  0  0  0
   58.9517   31.2660   51.3330 H   0  0  0  0  0  0  0  0  0  0  0  0
   63.3531   32.0585   50.2284 H   0  0  0  0  0  0  0  0  0  0  0  0
   64.6909   31.7116   48.1512 H   0  0  0  0  0  0  0  0  0  0  0  0
   64.0108   32.8315   46.0237 H   0  0  0  0  0  0  0  0  0  0  0  0
   61.9970   34.3055   45.9781 H   0  0  0  0  0  0  0  0  0  0  0  0
   60.6520   34.6520   48.0507 H   0  0  0  0  0  0  0  0  0  0  0  0
   59.7988   30.2380   47.6172 H   0  0  0  0  0  0  0  0  0  0  0  0
  1  2  2  0
  2  3  1  0
  3  4  1  0
  4  5  2  0
  4  6  1  0
  6  7  1  0
  7  8  1  0
  8  9  2  0
  9 10  1  0
 10 11  2  0
 11 12  1  0
 12 13  2  0
  6 14  1  0
 14 15  2  0
 14 16  1  0
 16 17  2  3
 17 18  1  0
 18 19  2  0
 19 20  1  0
 20 21  2  0
 21 22  1  0
 22 23  1  0
 23 24  1  0
 24 25  1  0
 25 26  2  0
 25 27  1  0
 27 28  1  0
 28 29  2  0
 29 30  1  0
 30 31  2  0
 31 32  1  0
 32 33  2  0
 22 34  2  0
 16  2  1  0
 34 18  1  0
 13  8  1  0
 33 28  1  0
  1 35  1  0
  1 36  1  0
  7 37  1  0
  7 38  1  0
  9 39  1  0
 10 40  1  0
 11 41  1  0
 12 42  1  0
 13 43  1  0
 17 44  1  0
 19 45  1  0
 20 46  1  0
 21 47  1  0
 24 48  1  0
 24 49  1  0
 29 50  1  0
 30 51  1  0
 31 52  1  0
 32 53  1  0
 33 54  1  0
 34 55  1  0
M  CHG  2   3  -1  27  -1
M  END
>  <UniqueID>  (60) 
57

>  <SMILES>  (60) 
C=c1[n-]c(=O)n(Cc2ccccc2)c(=O)c1=Cc1cccc(OCC(=O)[N-]c2ccccc2)c1

>  <Energy>  (60) 
85.69258471612045

>  <Genealogy>  (60) 
C=c1[n-]c(=O)n(Cc2ccccc2)c(=O)c1=Cc1cccc(OCC(=O)[N-]c2ccccc2)c1 (protonated)
C=c1[n-]c(=O)n(Cc2ccccc2)c(=O)c1=Cc1cccc(OCC(=O)[N-]c2ccccc2)c1 (3D coordinates assigned)
C=c1[n-]c(=O)n(Cc2ccccc2)c(=O)c1=Cc1cccc(OCC(=O)[N-]c2ccccc2)c1 (optimized conformer: 85.69258471612045 kcal/mol)

>  <smiles>  (60) 
C=c1[nH]c(=O)n(Cc2ccccc2)c(=O)c1=Cc1cccc(OCC(=O)Nc2ccccc2)c1

>  <score_type>  (60) 
oracle

>  <origin>  (60) 
adg

>  <m_score__min__energy>  (60) 
-12.44

>  <m_primary>  (60) 
energy

$$$$
60:0
     RDKit          3D

 42 44  0  0  0  0  0  0  0  0999 V2000
   61.5504   26.5428   46.3216 H   0  0  0  0  0  0  0  0  0  0  0  0
   60.4710   26.7170   46.2010 C   0  0  0  0  0  0  0  0  0  0  0  0
   60.0020   27.9950   45.9090 C   0  0  0  0  0  0  0  0  0  0  0  0
   60.7107   28.8298   45.8051 H   0  0  0  0  0  0  0  0  0  0  0  0
   58.6340   28.2180   45.7480 C   0  0  0  0  0  0  0  0  0  0  0  0
   58.2715   29.2312   45.5200 H   0  0  0  0  0  0  0  0  0  0  0  0
   57.7120   27.1610   45.8740 C   0  0  0  0  0  0  0  0  0  0  0  0
   56.2640   27.4410   45.6900 C   0  0  0  0  0  0  0  0  0  0  0  0
   55.4140   26.5520   45.9730 O   0  0  0  0  0  0  0  0  0  0  0  0
   55.8200   28.7200   45.2200 N   0  0  0  0  0  0  0  0  0  0  0  0
   56.2390   29.3180   43.9560 C   0  0  0  0  0  0  0  0  0  0  0  0
   57.2055   28.8873   43.6555 H   0  0  0  0  0  0  0  0  0  0  0  0
   55.4740   29.1072   43.1942 H   0  0  0  0  0  0  0  0  0  0  0  0
   56.3870   30.8320   44.0980 C   0  0  0  0  0  0  0  0  0  0  0  0
   56.7472   31.2545   43.1484 H   0  0  0  0  0  0  0  0  0  0  0  0
   55.4106   31.2705   44.3516 H   0  0  0  0  0  0  0  0  0  0  0  0
   57.3420   31.1370   45.1570 N   0  0  0  0  0  0  0  0  0  0  0  0
   58.0060   32.2200   45.4730 C   0  0  0  0  0  0  0  0  0  0  0  0
   57.3980   33.4210   45.0840 C   0  0  0  0  0  0  0  0  0  0  0  0
   56.3843   33.4019   44.6574 H   0  0  0  0  0  0  0  0  0  0  0  0
   58.0560   34.6340   45.2290 C   0  0  0  0  0  0  0  0  0  0  0  0
   57.5618   35.5652   44.9149 H   0  0  0  0  0  0  0  0  0  0  0  0
   59.3030   34.6780   45.7550 N   0  0  0  0  0  0  0  0  0  0  0  0
   59.7710   35.6110   45.8310 H   0  0  0  0  0  0  0  0  0  0  0  0
   59.9340   33.5540   46.1970 C   0  0  0  0  0  0  0  0  0  0  0  0
   61.2150   33.6720   46.7610 C   0  0  0  0  0  0  0  0  0  0  0  0
   61.7053   34.6559   46.8009 H   0  0  0  0  0  0  0  0  0  0  0  0
   61.8690   32.5530   47.2700 C   0  0  0  0  0  0  0  0  0  0  0  0
   63.4660   32.7150   47.9790 Cl  0  0  0  0  0  0  0  0  0  0  0  0
   61.2400   31.3120   47.2430 C   0  0  0  0  0  0  0  0  0  0  0  0
   61.7483   30.4331   47.6662 H   0  0  0  0  0  0  0  0  0  0  0  0
   59.9690   31.1740   46.6830 C   0  0  0  0  0  0  0  0  0  0  0  0
   59.4799   30.1888   46.6918 H   0  0  0  0  0  0  0  0  0  0  0  0
   59.2960   32.2790   46.1030 C   0  0  0  0  0  0  0  0  0  0  0  0
   58.1880   25.8640   46.1870 C   0  0  0  0  0  0  0  0  0  0  0  0
   57.2720   24.8120   46.3560 O   0  0  0  0  0  0  0  0  0  0  0  0
   56.7990   24.3370   47.6120 C   0  0  0  0  0  0  0  0  0  0  0  0
   57.3228   24.8630   48.4238 H   0  0  0  0  0  0  0  0  0  0  0  0
   55.7180   24.5242   47.6913 H   0  0  0  0  0  0  0  0  0  0  0  0
   56.9908   23.2568   47.6913 H   0  0  0  0  0  0  0  0  0  0  0  0
   59.5750   25.6570   46.3410 C   0  0  0  0  0  0  0  0  0  0  0  0
   59.9534   24.6506   46.5736 H   0  0  0  0  0  0  0  0  0  0  0  0
  1  2  1  0
  2  3  2  0
  3  4  1  0
  3  5  1  0
  5  6  1  0
  5  7  2  0
  7  8  1  0
  8  9  2  0
  8 10  1  0
 10 11  1  0
 11 12  1  0
 11 13  1  0
 11 14  1  0
 14 15  1  0
 14 16  1  0
 14 17  1  0
 17 18  2  0
 18 19  1  0
 19 20  1  0
 19 21  2  0
 21 22  1  0
 21 23  1  0
 23 24  1  0
 23 25  1  0
 25 26  2  0
 26 27  1  0
 26 28  1  0
 28 29  1  0
 28 30  2  0
 30 31  1  0
 30 32  1  0
 32 33  1  0
 32 34  2  0
  7 35  1  0
 35 36  1  0
 36 37  1  0
 37 38  1  0
 37 39  1  0
 37 40  1  0
 35 41  2  0
 41 42  1  0
 41  2  1  0
 34 18  1  0
 34 25  1  0
M  CHG  1  10  -1
M  END
>  <UniqueID>  (61) 
58

>  <SMILES>  (61) 
COc1ccccc1C(=O)[N-]CC/N=c1/cc[nH]c2cc(Cl)ccc12

>  <Energy>  (61) 
61.15381712263827

>  <Genealogy>  (61) 
COc1ccccc1C(=O)[N-]CCN=c1cc[nH]c2cc(Cl)ccc12 (protonated)
COc1ccccc1C(=O)[N-]CC/N=c1/cc[nH]c2cc(Cl)ccc12 (cis-trans isomerization)
COc1ccccc1C(=O)[N-]CC/N=c1/cc[nH]c2cc(Cl)ccc12 (3D coordinates assigned)
COc1ccccc1C(=O)[N-]CC/N=c1/cc[nH]c2cc(Cl)ccc12 (optimized conformer: 61.15381712263827 kcal/mol)

>  <smiles>  (61) 
COc1ccccc1C(=O)NCCN=c1cc[nH]c2cc(Cl)ccc12

>  <score_type>  (61) 
oracle

>  <origin>  (61) 
adg

>  <m_score__min__energy>  (61) 
-10.199999999999999

>  <m_primary>  (61) 
energy

$$$$
61:0
     RDKit          3D

 66 70  0  0  0  0  0  0  0  0999 V2000
   58.3650   31.2900   47.7420 O   0  0  0  0  0  0  0  0  0  0  0  0
   59.0630   30.6400   48.5670 C   0  0  0  0  0  0  0  0  0  0  0  0
   59.6710   31.2990   49.6800 N   0  0  0  0  0  0  0  0  0  0  0  0
   61.0770   31.5010   49.8840 C   0  0  0  0  0  0  0  0  0  0  0  0
   61.7840   30.7610   50.8470 C   0  0  0  0  0  0  0  0  0  0  0  0
   63.1530   30.9700   51.0340 C   0  0  0  0  0  0  0  0  0  0  0  0
   63.8330   31.9020   50.2520 C   0  0  0  0  0  0  0  0  0  0  0  0
   63.1460   32.6300   49.2790 C   0  0  0  0  0  0  0  0  0  0  0  0
   61.7700   32.4370   49.0840 C   0  0  0  0  0  0  0  0  0  0  0  0
   61.0720   33.2550   48.1270 N   0  0  0  0  0  0  0  0  0  0  0  0
   59.9390   34.0870   48.5500 C   0  0  0  0  0  0  0  0  0  0  0  0
   58.8620   34.2150   47.4480 C   0  0  0  0  0  0  0  0  0  0  0  0
   59.3270   33.7280   46.1330 N   0  0  0  0  0  0  0  0  0  0  0  0
   58.3780   34.0280   45.0350 C   0  0  0  0  0  0  0  0  0  0  0  0
   57.8420   32.8000   44.3230 C   0  0  0  0  0  0  0  0  0  0  0  0
   57.3270   31.7170   45.0570 C   0  0  0  0  0  0  0  0  0  0  0  0
   56.8290   30.5890   44.3970 C   0  0  0  0  0  0  0  0  0  0  0  0
   56.8590   30.5220   43.0020 C   0  0  0  0  0  0  0  0  0  0  0  0
   57.3870   31.5840   42.2640 C   0  0  0  0  0  0  0  0  0  0  0  0
   57.8810   32.7170   42.9200 C   0  0  0  0  0  0  0  0  0  0  0  0
   60.7060   34.1530   45.8500 C   0  0  0  0  0  0  0  0  0  0  0  0
   61.6500   33.3970   46.7830 C   0  0  0  0  0  0  0  0  0  0  0  0
   59.2980   29.2430   48.3660 N   0  0  0  0  0  0  0  0  0  0  0  0
   59.0750   28.5950   47.1060 C   0  0  0  0  0  0  0  0  0  0  0  0
   59.8180   28.9750   45.9820 C   0  0  0  0  0  0  0  0  0  0  0  0
   59.5910   28.3600   44.7480 C   0  0  0  0  0  0  0  0  0  0  0  0
   58.6020   27.3810   44.6230 C   0  0  0  0  0  0  0  0  0  0  0  0
   57.8340   26.9970   45.7390 C   0  0  0  0  0  0  0  0  0  0  0  0
   56.7340   26.0100   45.6080 C   0  0  0  0  0  0  0  0  0  0  0  0
   55.5840   26.3170   46.0270 O   0  0  0  0  0  0  0  0  0  0  0  0
   56.9330   24.6820   44.9890 C   0  0  0  0  0  0  0  0  0  0  0  0
   58.0860   23.9360   45.2880 C   0  0  0  0  0  0  0  0  0  0  0  0
   58.3000   22.6940   44.6830 C   0  0  0  0  0  0  0  0  0  0  0  0
   57.3770   22.1950   43.7600 C   0  0  0  0  0  0  0  0  0  0  0  0
   56.2350   22.9350   43.4470 C   0  0  0  0  0  0  0  0  0  0  0  0
   56.0080   24.1730   44.0590 C   0  0  0  0  0  0  0  0  0  0  0  0
   58.0800   27.6110   46.9800 C   0  0  0  0  0  0  0  0  0  0  0  0
   61.2567   30.0129   51.4572 H   0  0  0  0  0  0  0  0  0  0  0  0
   63.6955   30.3973   51.8006 H   0  0  0  0  0  0  0  0  0  0  0  0
   64.9107   32.0639   50.4015 H   0  0  0  0  0  0  0  0  0  0  0  0
   63.6876   33.3607   48.6603 H   0  0  0  0  0  0  0  0  0  0  0  0
   59.4809   33.6341   49.4416 H   0  0  0  0  0  0  0  0  0  0  0  0
   60.3231   35.0953   48.7642 H   0  0  0  0  0  0  0  0  0  0  0  0
   57.9808   33.6290   47.7482 H   0  0  0  0  0  0  0  0  0  0  0  0
   58.6243   35.2836   47.3400 H   0  0  0  0  0  0  0  0  0  0  0  0
   57.5261   34.5814   45.4569 H   0  0  0  0  0  0  0  0  0  0  0  0
   58.9352   34.6096   44.2858 H   0  0  0  0  0  0  0  0  0  0  0  0
   57.3157   31.7571   46.1562 H   0  0  0  0  0  0  0  0  0  0  0  0
   56.4127   29.7526   44.9777 H   0  0  0  0  0  0  0  0  0  0  0  0
   56.4671   29.6336   42.4851 H   0  0  0  0  0  0  0  0  0  0  0  0
   57.4145   31.5296   41.1657 H   0  0  0  0  0  0  0  0  0  0  0  0
   58.3023   33.5476   42.3346 H   0  0  0  0  0  0  0  0  0  0  0  0
   60.9570   33.9241   44.8038 H   0  0  0  0  0  0  0  0  0  0  0  0
   60.8060   35.2365   46.0115 H   0  0  0  0  0  0  0  0  0  0  0  0
   61.8397   32.3965   46.3670 H   0  0  0  0  0  0  0  0  0  0  0  0
   62.5866   33.9678   46.8664 H   0  0  0  0  0  0  0  0  0  0  0  0
   59.5350   28.6580   49.1990 H   0  0  0  0  0  0  0  0  0  0  0  0
   60.5831   29.7604   46.0705 H   0  0  0  0  0  0  0  0  0  0  0  0
   60.1924   28.6473   43.8729 H   0  0  0  0  0  0  0  0  0  0  0  0
   58.4222   26.9073   43.6467 H   0  0  0  0  0  0  0  0  0  0  0  0
   58.8238   24.3314   46.0017 H   0  0  0  0  0  0  0  0  0  0  0  0
   59.1967   22.1084   44.9340 H   0  0  0  0  0  0  0  0  0  0  0  0
   57.5499   21.2202   43.2805 H   0  0  0  0  0  0  0  0  0  0  0  0
   55.5113   22.5436   42.7169 H   0  0  0  0  0  0  0  0  0  0  0  0
   55.1042   24.7495   43.8123 H   0  0  0  0  0  0  0  0  0  0  0  0
   57.4882   27.3183   47.8599 H   0  0  0  0  0  0  0  0  0  0  0  0
  1  2  2  0
  2  3  1  0
  3  4  1  0
  4  5  2  0
  5  6  1  0
  6  7  2  0
  7  8  1  0
  8  9  2  0
  9 10  1  0
 10 11  1  0
 11 12  1  0
 12 13  1  0
 13 14  1  0
 14 15  1  0
 15 16  2  0
 16 17  1  0
 17 18  2  0
 18 19  1  0
 19 20  2  0
 13 21  1  0
 21 22  1  0
  2 23  1  0
 23 24  1  0
 24 25  2  0
 25 26  1  0
 26 27  2  0
 27 28  1  0
 28 29  1  0
 29 30  2  0
 29 31  1  0
 31 32  2  0
 32 33  1  0
 33 34  2  0
 34 35  1  0
 35 36  2  0
 28 37  2  0
  9  4  1  0
 22 10  1  0
 37 24  1  0
 20 15  1  0
 36 31  1  0
  5 38  1  0
  6 39  1  0
  7 40  1  0
  8 41  1  0
 11 42  1  0
 11 43  1  0
 12 44  1  0
 12 45  1  0
 14 46  1  0
 14 47  1  0
 16 48  1  0
 17 49  1  0
 18 50  1  0
 19 51  1  0
 20 52  1  0
 21 53  1  0
 21 54  1  0
 22 55  1  0
 22 56  1  0
 23 57  1  0
 25 58  1  0
 26 59  1  0
 27 60  1  0
 32 61  1  0
 33 62  1  0
 34 63  1  0
 35 64  1  0
 36 65  1  0
 37 66  1  0
M  CHG  1   3  -1
M  END
>  <UniqueID>  (62) 
59

>  <SMILES>  (62) 
O=C([N-]c1ccccc1N1CCN(Cc2ccccc2)CC1)Nc1cccc(C(=O)c2ccccc2)c1

>  <Energy>  (62) 
99.9427891553158

>  <Genealogy>  (62) 
O=C([N-]c1ccccc1N1CCN(Cc2ccccc2)CC1)Nc1cccc(C(=O)c2ccccc2)c1 (protonated)
O=C([N-]c1ccccc1N1CCN(Cc2ccccc2)CC1)Nc1cccc(C(=O)c2ccccc2)c1 (3D coordinates assigned)
O=C([N-]c1ccccc1N1CCN(Cc2ccccc2)CC1)Nc1cccc(C(=O)c2ccccc2)c1 (nonaromatic ring conformer: 99.9427891553158 kcal/mol)

>  <smiles>  (62) 
O=C(Nc1cccc(C(=O)c2ccccc2)c1)Nc1ccccc1N1CCN(Cc2ccccc2)CC1

>  <score_type>  (62) 
oracle

>  <origin>  (62) 
adg

>  <m_score__min__energy>  (62) 
-11.699999999999999

>  <m_primary>  (62) 
energy

$$$$
62:0
     RDKit          3D

 71 75  0  0  0  0  0  0  0  0999 V2000
   67.4970   28.4100   50.8550 C   0  0  0  0  0  0  0  0  0  0  0  0
   67.8620   29.4500   51.9090 C   0  0  0  0  0  0  0  0  0  0  0  0
   66.7010   30.1460   52.3630 O   0  0  0  0  0  0  0  0  0  0  0  0
   65.7700   30.8010   51.5420 C   0  0  0  0  0  0  0  0  0  0  0  0
   66.0810   31.9710   50.8190 C   0  0  0  0  0  0  0  0  0  0  0  0
   65.0990   32.6090   50.0570 C   0  0  0  0  0  0  0  0  0  0  0  0
   63.7980   32.0930   50.0060 C   0  0  0  0  0  0  0  0  0  0  0  0
   62.7500   32.8170   49.2510 C   0  0  0  0  0  0  0  0  0  0  0  0
   62.9450   32.9950   47.8840 C   0  0  0  0  0  0  0  0  0  0  0  0
   62.0040   33.7000   47.1480 C   0  0  0  0  0  0  0  0  0  0  0  0
   62.1890   33.8440   45.9090 O   0  0  0  0  0  0  0  0  0  0  0  0
   60.9030   34.2330   47.7630 N   0  0  0  0  0  0  0  0  0  0  0  0
   59.8910   34.9650   46.9720 C   0  0  0  0  0  0  0  0  0  0  0  0
   59.0390   34.0010   46.1850 C   0  0  0  0  0  0  0  0  0  0  0  0
   58.6150   34.3220   44.8840 C   0  0  0  0  0  0  0  0  0  0  0  0
   57.8030   33.4370   44.1690 C   0  0  0  0  0  0  0  0  0  0  0  0
   57.4050   32.2280   44.7450 C   0  0  0  0  0  0  0  0  0  0  0  0
   56.6200   31.3690   44.0500 F   0  0  0  0  0  0  0  0  0  0  0  0
   57.8180   31.9020   46.0410 C   0  0  0  0  0  0  0  0  0  0  0  0
   58.6310   32.7860   46.7590 C   0  0  0  0  0  0  0  0  0  0  0  0
   60.7240   34.0570   49.1160 C   0  0  0  0  0  0  0  0  0  0  0  0
   59.7090   34.5600   49.6770 O   0  0  0  0  0  0  0  0  0  0  0  0
   61.6360   33.3460   49.8640 N   0  0  0  0  0  0  0  0  0  0  0  0
   61.4270   33.1800   51.3230 C   0  0  0  0  0  0  0  0  0  0  0  0
   60.0410   32.6710   51.6230 C   0  0  0  0  0  0  0  0  0  0  0  0
   59.4850   31.6310   50.8620 C   0  0  0  0  0  0  0  0  0  0  0  0
   58.2140   31.1360   51.1590 C   0  0  0  0  0  0  0  0  0  0  0  0
   57.4540   31.6920   52.2080 C   0  0  0  0  0  0  0  0  0  0  0  0
   56.1010   31.1780   52.5560 C   0  0  0  0  0  0  0  0  0  0  0  0
   55.9100   30.6970   53.7070 O   0  0  0  0  0  0  0  0  0  0  0  0
   55.0100   31.2090   51.6150 N   0  0  0  0  0  0  0  0  0  0  0  0
   53.6910   30.7450   51.9410 C   0  0  0  0  0  0  0  0  0  0  0  0
   52.5940   31.6200   51.8420 C   0  0  0  0  0  0  0  0  0  0  0  0
   51.2990   31.1600   52.0910 C   0  0  0  0  0  0  0  0  0  0  0  0
   51.0840   29.8250   52.4330 C   0  0  0  0  0  0  0  0  0  0  0  0
   52.1640   28.9450   52.5340 C   0  0  0  0  0  0  0  0  0  0  0  0
   53.4710   29.3940   52.2910 C   0  0  0  0  0  0  0  0  0  0  0  0
   54.5660   28.4810   52.4460 N   0  0  0  0  0  0  0  0  0  0  0  0
   58.0120   32.7470   52.9550 C   0  0  0  0  0  0  0  0  0  0  0  0
   59.2890   33.2330   52.6640 C   0  0  0  0  0  0  0  0  0  0  0  0
   63.5010   30.8990   50.6790 C   0  0  0  0  0  0  0  0  0  0  0  0
   64.4810   30.2630   51.4440 C   0  0  0  0  0  0  0  0  0  0  0  0
   67.1719   27.4836   51.3511 H   0  0  0  0  0  0  0  0  0  0  0  0
   66.6805   28.7955   50.2268 H   0  0  0  0  0  0  0  0  0  0  0  0
   68.3754   28.2007   50.2268 H   0  0  0  0  0  0  0  0  0  0  0  0
   68.3362   28.9453   52.7636 H   0  0  0  0  0  0  0  0  0  0  0  0
   68.5539   30.1774   51.4594 H   0  0  0  0  0  0  0  0  0  0  0  0
   67.1004   32.3828   50.8551 H   0  0  0  0  0  0  0  0  0  0  0  0
   65.3488   33.5207   49.4946 H   0  0  0  0  0  0  0  0  0  0  0  0
   63.8372   32.5803   47.3920 H   0  0  0  0  0  0  0  0  0  0  0  0
   59.2489   35.5439   47.6522 H   0  0  0  0  0  0  0  0  0  0  0  0
   60.4056   35.6393   46.2717 H   0  0  0  0  0  0  0  0  0  0  0  0
   58.9235   35.2736   44.4266 H   0  0  0  0  0  0  0  0  0  0  0  0
   57.4765   33.6931   43.1503 H   0  0  0  0  0  0  0  0  0  0  0  0
   57.5038   30.9509   46.4957 H   0  0  0  0  0  0  0  0  0  0  0  0
   58.9524   32.5278   47.7788 H   0  0  0  0  0  0  0  0  0  0  0  0
   62.1643   32.4619   51.7112 H   0  0  0  0  0  0  0  0  0  0  0  0
   61.5484   34.1613   51.8050 H   0  0  0  0  0  0  0  0  0  0  0  0
   60.0554   31.2025   50.0247 H   0  0  0  0  0  0  0  0  0  0  0  0
   57.8016   30.3043   50.5689 H   0  0  0  0  0  0  0  0  0  0  0  0
   55.1610   31.5480   50.6390 H   0  0  0  0  0  0  0  0  0  0  0  0
   52.7571   32.6725   51.5669 H   0  0  0  0  0  0  0  0  0  0  0  0
   50.4470   31.8519   52.0173 H   0  0  0  0  0  0  0  0  0  0  0  0
   50.0623   29.4646   52.6235 H   0  0  0  0  0  0  0  0  0  0  0  0
   51.9889   27.8936   52.8057 H   0  0  0  0  0  0  0  0  0  0  0  0
   54.5290   27.5310   52.0140 H   0  0  0  0  0  0  0  0  0  0  0  0
   55.3870   28.7020   53.0530 H   0  0  0  0  0  0  0  0  0  0  0  0
   57.4352   33.1941   53.7780 H   0  0  0  0  0  0  0  0  0  0  0  0
   59.7068   34.0613   53.2551 H   0  0  0  0  0  0  0  0  0  0  0  0
   62.4941   30.4626   50.6041 H   0  0  0  0  0  0  0  0  0  0  0  0
   64.2380   29.3306   51.9746 H   0  0  0  0  0  0  0  0  0  0  0  0
  1  2  1  0
  2  3  1  0
  3  4  1  0
  4  5  2  0
  5  6  1  0
  6  7  2  0
  7  8  1  0
  8  9  2  0
  9 10  1  0
 10 11  2  0
 10 12  1  0
 12 13  1  0
 13 14  1  0
 14 15  2  0
 15 16  1  0
 16 17  2  0
 17 18  1  0
 17 19  1  0
 19 20  2  0
 12 21  1  0
 21 22  2  0
 21 23  1  0
 23 24  1  0
 24 25  1  0
 25 26  2  0
 26 27  1  0
 27 28  2  0
 28 29  1  0
 29 30  2  0
 29 31  1  0
 31 32  1  0
 32 33  2  0
 33 34  1  0
 34 35  2  0
 35 36  1  0
 36 37  2  0
 37 38  1  0
 28 39  1  0
 39 40  2  0
  7 41  1  0
 41 42  2  0
 42  4  1  0
 23  8  1  0
 40 25  1  0
 20 14  1  0
 37 32  1  0
  1 43  1  0
  1 44  1  0
  1 45  1  0
  2 46  1  0
  2 47  1  0
  5 48  1  0
  6 49  1  0
  9 50  1  0
 13 51  1  0
 13 52  1  0
 15 53  1  0
 16 54  1  0
 19 55  1  0
 20 56  1  0
 24 57  1  0
 24 58  1  0
 26 59  1  0
 27 60  1  0
 31 61  1  0
 33 62  1  0
 34 63  1  0
 35 64  1  0
 36 65  1  0
 38 66  1  0
 38 67  1  0
 39 68  1  0
 40 69  1  0
 41 70  1  0
 42 71  1  0
M  END
>  <UniqueID>  (63) 
60

>  <SMILES>  (63) 
CCOc1ccc(-c2cc(=O)n(Cc3ccc(F)cc3)c(=O)n2Cc2ccc(C(=O)Nc3ccccc3N)cc2)cc1

>  <Energy>  (63) 
95.31483204846462

>  <Genealogy>  (63) 
CCOc1ccc(-c2cc(=O)n(Cc3ccc(F)cc3)c(=O)n2Cc2ccc(C(=O)Nc3ccccc3N)cc2)cc1 (3D coordinates assigned)
CCOc1ccc(-c2cc(=O)n(Cc3ccc(F)cc3)c(=O)n2Cc2ccc(C(=O)Nc3ccccc3N)cc2)cc1 (optimized conformer: 95.31483204846462 kcal/mol)

>  <smiles>  (63) 
CCOc1ccc(-c2cc(=O)n(Cc3ccc(F)cc3)c(=O)n2Cc2ccc(C(=O)Nc3ccccc3N)cc2)cc1

>  <score_type>  (63) 
oracle

>  <origin>  (63) 
adg

>  <m_score__min__energy>  (63) 
-9.9000000000000004

>  <m_primary>  (63) 
energy

$$$$
63:0
     RDKit          3D

 20 21  0  0  0  0  0  0  0  0999 V2000
   55.2100   26.6670   45.9830 N   0  0  0  0  0  0  0  0  0  0  0  0
   56.5220   26.3660   46.4510 C   0  0  0  0  0  0  0  0  0  0  0  0
   56.6790   25.4880   47.3410 O   0  0  0  0  0  0  0  0  0  0  0  0
   57.6850   27.0580   45.8690 C   0  0  0  0  0  0  0  0  0  0  0  0
   58.6910   26.3830   45.5240 O   0  0  0  0  0  0  0  0  0  0  0  0
   57.7100   28.5240   45.7000 C   0  0  0  0  0  0  0  0  0  0  0  0
   56.6690   29.3430   45.2570 C   0  0  0  0  0  0  0  0  0  0  0  0
   55.4160   28.9030   44.8380 O   0  0  0  0  0  0  0  0  0  0  0  0
   57.0120   30.6530   45.2560 N   0  0  0  0  0  0  0  0  0  0  0  0
   58.2790   30.6550   45.7090 C   0  0  0  0  0  0  0  0  0  0  0  0
   59.0380   31.7600   45.9120 N   0  0  0  0  0  0  0  0  0  0  0  0
   60.2990   31.6210   46.4210 C   0  0  0  0  0  0  0  0  0  0  0  0
   60.8030   30.3430   46.7480 C   0  0  0  0  0  0  0  0  0  0  0  0
   60.0060   29.2040   46.5410 C   0  0  0  0  0  0  0  0  0  0  0  0
   58.7380   29.3960   45.9950 C   0  0  0  0  0  0  0  0  0  0  0  0
   55.0090   26.7400   44.9610 H   0  0  0  0  0  0  0  0  0  0  0  0
   55.1360   27.9340   44.9200 H   0  0  0  0  0  0  0  0  0  0  0  0
   60.9259   32.5113   46.5771 H   0  0  0  0  0  0  0  0  0  0  0  0
   61.8162   30.2393   47.1634 H   0  0  0  0  0  0  0  0  0  0  0  0
   60.3693   28.1986   46.8002 H   0  0  0  0  0  0  0  0  0  0  0  0
  1  2  1  0
  2  3  2  0
  2  4  1  0
  4  5  2  0
  4  6  1  0
  6  7  2  0
  7  8  1  0
  7  9  1  0
  9 10  1  0
 10 11  2  0
 11 12  1  0
 12 13  2  0
 13 14  1  0
 14 15  2  0
 15  6  1  0
 15 10  1  0
  1 16  1  0
  8 17  1  0
 12 18  1  0
 13 19  1  0
 14 20  1  0
M  CHG  2   1  -1   9  -1
M  END
>  <UniqueID>  (64) 
61

>  <SMILES>  (64) 
[NH-]C(=O)C(=O)c1c(O)[n-]c2ncccc12

>  <Energy>  (64) 
58.52613318292055

>  <Genealogy>  (64) 
[NH-]C(=O)C(=O)c1c(O)[n-]c2ncccc12 (protonated)
[NH-]C(=O)C(=O)c1c(O)[n-]c2ncccc12 (3D coordinates assigned)
[NH-]C(=O)C(=O)c1c(O)[n-]c2ncccc12 (optimized conformer: 58.52613318292055 kcal/mol)

>  <smiles>  (64) 
NC(=O)C(=O)c1c(O)[nH]c2ncccc12

>  <score_type>  (64) 
oracle

>  <origin>  (64) 
adg

>  <m_score__min__energy>  (64) 
-10.800000000000001

>  <m_primary>  (64) 
energy

$$$$
64:0
     RDKit          3D

 50 53  0  0  0  0  0  0  0  0999 V2000
   54.7670   28.4310   44.4980 H   0  0  0  0  0  0  0  0  0  0  0  0
   55.2440   29.3220   44.2310 N   0  0  0  0  0  0  0  0  0  0  0  0
   56.2900   29.7510   44.8630 C   0  0  0  0  0  0  0  0  0  0  0  0
   56.6640   31.0510   44.7160 N   0  0  0  0  0  0  0  0  0  0  0  0
   57.7560   31.5680   45.3310 C   0  0  0  0  0  0  0  0  0  0  0  0
   58.0143   32.6276   45.1876 H   0  0  0  0  0  0  0  0  0  0  0  0
   58.5570   30.7600   46.1480 C   0  0  0  0  0  0  0  0  0  0  0  0
   59.7590   31.3150   46.8220 C   0  0  0  0  0  0  0  0  0  0  0  0
   59.9850   32.7020   46.8550 C   0  0  0  0  0  0  0  0  0  0  0  0
   59.2656   33.3832   46.3770 H   0  0  0  0  0  0  0  0  0  0  0  0
   61.1160   33.2230   47.4900 C   0  0  0  0  0  0  0  0  0  0  0  0
   61.2796   34.3106   47.5081 H   0  0  0  0  0  0  0  0  0  0  0  0
   62.0450   32.3680   48.1050 C   0  0  0  0  0  0  0  0  0  0  0  0
   63.2700   32.9290   48.7840 C   0  0  1  0  0  0  0  0  0  0  0  0
   63.9144   33.4124   48.0349 H   0  0  0  0  0  0  0  0  0  0  0  0
   62.7560   34.1920   50.0200 S   0  0  0  0  0  0  0  0  0  0  0  0
   64.2200   34.2080   51.1360 C   0  0  0  0  0  0  0  0  0  0  0  0
   63.9690   33.6357   52.0413 H   0  0  0  0  0  0  0  0  0  0  0  0
   64.4441   35.2644   51.3455 H   0  0  0  0  0  0  0  0  0  0  0  0
   65.4850   33.6060   50.5250 C   0  0  0  0  0  0  0  0  0  0  0  0
   66.3044   33.6511   51.2575 H   0  0  0  0  0  0  0  0  0  0  0  0
   65.7678   34.1748   49.6270 H   0  0  0  0  0  0  0  0  0  0  0  0
   65.2240   32.1830   50.1550 C   0  0  0  0  0  0  0  0  0  0  0  0
   66.0210   31.2730   50.5080 O   0  0  0  0  0  0  0  0  0  0  0  0
   64.0560   31.8610   49.4020 N   0  0  0  0  0  0  0  0  0  0  0  0
   63.8390   30.8560   49.2100 H   0  0  0  0  0  0  0  0  0  0  0  0
   61.8230   30.9810   48.0700 C   0  0  0  0  0  0  0  0  0  0  0  0
   62.5448   30.3004   48.5451 H   0  0  0  0  0  0  0  0  0  0  0  0
   60.6920   30.4600   47.4360 C   0  0  0  0  0  0  0  0  0  0  0  0
   60.5300   29.3722   47.4169 H   0  0  0  0  0  0  0  0  0  0  0  0
   58.1940   29.4150   46.3160 C   0  0  0  0  0  0  0  0  0  0  0  0
   58.8111   28.7631   46.9518 H   0  0  0  0  0  0  0  0  0  0  0  0
   57.0530   28.8870   45.6840 C   0  0  0  0  0  0  0  0  0  0  0  0
   56.7010   27.4550   45.9000 C   0  0  0  0  0  0  0  0  0  0  0  0
   55.4970   27.0870   45.8200 O   0  0  0  0  0  0  0  0  0  0  0  0
   57.7150   26.4820   46.1820 N   0  0  0  0  0  0  0  0  0  0  0  0
   58.5790   25.8940   45.1640 C   0  0  0  0  0  0  0  0  0  0  0  0
   58.6800   26.5964   44.3235 H   0  0  0  0  0  0  0  0  0  0  0  0
   59.5660   25.6911   45.6051 H   0  0  0  0  0  0  0  0  0  0  0  0
   57.9900   24.6020   44.6640 C   0  0  0  0  0  0  0  0  0  0  0  0
   56.8950   24.6160   43.7840 C   0  0  0  0  0  0  0  0  0  0  0  0
   56.4765   25.5756   43.4462 H   0  0  0  0  0  0  0  0  0  0  0  0
   56.3340   23.4150   43.3350 C   0  0  0  0  0  0  0  0  0  0  0  0
   55.4795   23.4323   42.6426 H   0  0  0  0  0  0  0  0  0  0  0  0
   56.8590   22.1940   43.7660 C   0  0  0  0  0  0  0  0  0  0  0  0
   56.4179   21.2504   43.4123 H   0  0  0  0  0  0  0  0  0  0  0  0
   57.9440   22.1710   44.6460 C   0  0  0  0  0  0  0  0  0  0  0  0
   58.3549   21.2086   44.9850 H   0  0  0  0  0  0  0  0  0  0  0  0
   58.5090   23.3680   45.0970 C   0  0  0  0  0  0  0  0  0  0  0  0
   59.5580   23.3260   45.9580 F   0  0  0  0  0  0  0  0  0  0  0  0
  1  2  1  0
  2  3  2  0
  3  4  1  0
  4  5  1  0
  5  6  1  0
  5  7  2  0
  7  8  1  0
  8  9  2  0
  9 10  1  0
  9 11  1  0
 11 12  1  0
 11 13  2  0
 13 14  1  0
 14 15  1  6
 14 16  1  0
 16 17  1  0
 17 18  1  0
 17 19  1  0
 17 20  1  0
 20 21  1  0
 20 22  1  0
 20 23  1  0
 23 24  2  0
 23 25  1  0
 25 26  1  0
 13 27  1  0
 27 28  1  0
 27 29  2  0
 29 30  1  0
  7 31  1  0
 31 32  1  0
 31 33  2  0
 33 34  1  0
 34 35  2  0
 34 36  1  0
 36 37  1  0
 37 38  1  0
 37 39  1  0
 37 40  1  0
 40 41  2  0
 41 42  1  0
 41 43  1  0
 43 44  1  0
 43 45  2  0
 45 46  1  0
 45 47  1  0
 47 48  1  0
 47 49  2  0
 49 50  1  0
 33  3  1  0
 49 40  1  0
 29  8  1  0
 25 14  1  0
M  CHG  2   4  -1  36  -1
M  END
>  <UniqueID>  (65) 
62

>  <SMILES>  (65) 
[H]/N=c1\[n-]cc(-c2ccc([C@@H]3NC(=O)CCS3)cc2)cc1C(=O)[N-]Cc1ccccc1F

>  <Energy>  (65) 
62.051720655829925

>  <Genealogy>  (65) 
N=c1[n-]cc(-c2ccc(C3NC(=O)CCS3)cc2)cc1C(=O)[N-]Cc1ccccc1F (protonated)
N=c1[n-]cc(-c2ccc([C@@H]3NC(=O)CCS3)cc2)cc1C(=O)[N-]Cc1ccccc1F (chirality)
[H]/N=c1\[n-]cc(-c2ccc([C@@H]3NC(=O)CCS3)cc2)cc1C(=O)[N-]Cc1ccccc1F (cis-trans isomerization)
[H]/N=c1\[n-]cc(-c2ccc([C@@H]3NC(=O)CCS3)cc2)cc1C(=O)[N-]Cc1ccccc1F (3D coordinates assigned)
[H]/N=c1\[n-]cc(-c2ccc([C@@H]3NC(=O)CCS3)cc2)cc1C(=O)[N-]Cc1ccccc1F (nonaromatic ring conformer: 62.051720655829925 kcal/mol)

>  <smiles>  (65) 
N=c1[nH]cc(-c2ccc(C3NC(=O)CCS3)cc2)cc1C(=O)NCc1ccccc1F

>  <score_type>  (65) 
oracle

>  <origin>  (65) 
adg

>  <m_score__min__energy>  (65) 
-12.49

>  <m_primary>  (65) 
energy

$$$$
65:0
     RDKit          3D

 61 64  0  0  0  0  0  0  0  0999 V2000
   58.9020   34.9720   44.8730 C   0  0  0  0  0  0  0  0  0  0  0  0
   58.6200   33.6980   45.6240 C   0  0  0  0  0  0  0  0  0  0  0  0
   59.2410   33.4540   46.8600 C   0  0  0  0  0  0  0  0  0  0  0  0
   59.0370   32.2380   47.5280 C   0  0  0  0  0  0  0  0  0  0  0  0
   59.6850   31.9940   48.8600 C   0  0  0  0  0  0  0  0  0  0  0  0
   58.1870   31.2720   46.9660 C   0  0  0  0  0  0  0  0  0  0  0  0
   57.5560   31.5050   45.7370 C   0  0  0  0  0  0  0  0  0  0  0  0
   56.7220   30.4810   45.1770 N   0  0  0  0  0  0  0  0  0  0  0  0
   56.9160   29.0690   45.3210 C   0  0  0  0  0  0  0  0  0  0  0  0
   55.9140   28.3070   45.2510 O   0  0  0  0  0  0  0  0  0  0  0  0
   58.2720   28.4870   45.4460 C   0  0  0  0  0  0  0  0  0  0  0  0
   59.3440   29.1930   44.8740 C   0  0  0  0  0  0  0  0  0  0  0  0
   60.6490   28.7080   44.9690 C   0  0  0  0  0  0  0  0  0  0  0  0
   60.9020   27.5140   45.6410 C   0  0  0  0  0  0  0  0  0  0  0  0
   59.8530   26.8030   46.2200 C   0  0  0  0  0  0  0  0  0  0  0  0
   58.5260   27.2640   46.1270 C   0  0  0  0  0  0  0  0  0  0  0  0
   57.4470   26.4940   46.8670 C   0  0  0  0  0  0  0  0  0  0  0  0
   56.9730   25.3350   46.0720 N   0  0  0  0  0  0  0  0  0  0  0  0
   57.8590   24.3530   45.7220 C   0  0  0  0  0  0  0  0  0  0  0  0
   59.0570   24.4160   46.1180 O   0  0  0  0  0  0  0  0  0  0  0  0
   57.4600   23.3030   44.9450 N   0  0  0  0  0  0  0  0  0  0  0  0
   58.4140   22.2370   44.5850 C   0  0  0  0  0  0  0  0  0  0  0  0
   56.1520   23.2090   44.5580 C   0  0  0  0  0  0  0  0  0  0  0  0
   55.7850   22.2310   43.8470 O   0  0  0  0  0  0  0  0  0  0  0  0
   55.2420   24.1650   44.9300 N   0  0  0  0  0  0  0  0  0  0  0  0
   53.8390   24.0710   44.4610 C   0  0  0  0  0  0  0  0  0  0  0  0
   52.9380   23.4230   45.4980 C   0  0  0  0  0  0  0  0  0  0  0  0
   53.5210   22.6780   46.5410 C   0  0  0  0  0  0  0  0  0  0  0  0
   52.7230   22.0980   47.5330 C   0  0  0  0  0  0  0  0  0  0  0  0
   51.3350   22.2520   47.4940 C   0  0  0  0  0  0  0  0  0  0  0  0
   50.7390   22.9850   46.4640 C   0  0  0  0  0  0  0  0  0  0  0  0
   51.5280   23.5630   45.4590 C   0  0  0  0  0  0  0  0  0  0  0  0
   50.8630   24.2810   44.3960 C   0  0  0  0  0  0  0  0  0  0  0  0
   50.3350   24.8520   43.5380 N   0  0  0  0  0  0  0  0  0  0  0  0
   55.6660   25.2390   45.6710 C   0  0  0  0  0  0  0  0  0  0  0  0
   54.8460   26.1460   45.9860 O   0  0  0  0  0  0  0  0  0  0  0  0
   57.8010   32.7090   45.0540 C   0  0  0  0  0  0  0  0  0  0  0  0
   59.0825   35.7874   45.5889 H   0  0  0  0  0  0  0  0  0  0  0  0
   59.7917   34.8356   44.2407 H   0  0  0  0  0  0  0  0  0  0  0  0
   58.0379   35.2238   44.2407 H   0  0  0  0  0  0  0  0  0  0  0  0
   59.8909   34.2210   47.3064 H   0  0  0  0  0  0  0  0  0  0  0  0
   58.9821   32.2587   49.6637 H   0  0  0  0  0  0  0  0  0  0  0  0
   59.9574   30.9317   48.9462 H   0  0  0  0  0  0  0  0  0  0  0  0
   60.5903   32.6128   48.9462 H   0  0  0  0  0  0  0  0  0  0  0  0
   58.0149   30.3234   47.4956 H   0  0  0  0  0  0  0  0  0  0  0  0
   59.1523   30.1385   44.3455 H   0  0  0  0  0  0  0  0  0  0  0  0
   61.4784   29.2686   44.5131 H   0  0  0  0  0  0  0  0  0  0  0  0
   61.9310   27.1323   45.7145 H   0  0  0  0  0  0  0  0  0  0  0  0
   60.0648   25.8672   46.7580 H   0  0  0  0  0  0  0  0  0  0  0  0
   57.8560   26.1310   47.8214 H   0  0  0  0  0  0  0  0  0  0  0  0
   56.5955   27.1683   47.0408 H   0  0  0  0  0  0  0  0  0  0  0  0
   58.8199   21.7834   45.5013 H   0  0  0  0  0  0  0  0  0  0  0  0
   57.8975   21.4674   43.9926 H   0  0  0  0  0  0  0  0  0  0  0  0
   59.2360   22.6653   43.9926 H   0  0  0  0  0  0  0  0  0  0  0  0
   53.4662   25.0839   44.2490 H   0  0  0  0  0  0  0  0  0  0  0  0
   53.8229   23.4454   43.5564 H   0  0  0  0  0  0  0  0  0  0  0  0
   54.6131   22.5510   46.5761 H   0  0  0  0  0  0  0  0  0  0  0  0
   53.1890   21.5200   48.3447 H   0  0  0  0  0  0  0  0  0  0  0  0
   50.7099   21.7954   48.2755 H   0  0  0  0  0  0  0  0  0  0  0  0
   49.6462   23.1091   46.4416 H   0  0  0  0  0  0  0  0  0  0  0  0
   57.3481   32.8780   44.0659 H   0  0  0  0  0  0  0  0  0  0  0  0
  1  2  1  0
  2  3  2  0
  3  4  1  0
  4  5  1  0
  4  6  2  0
  6  7  1  0
  7  8  1  0
  8  9  1  0
  9 10  2  0
  9 11  1  0
 11 12  2  0
 12 13  1  0
 13 14  2  0
 14 15  1  0
 15 16  2  0
 16 17  1  0
 17 18  1  0
 18 19  1  0
 19 20  2  0
 19 21  1  0
 21 22  1  0
 21 23  1  0
 23 24  2  0
 23 25  1  0
 25 26  1  0
 26 27  1  0
 27 28  2  0
 28 29  1  0
 29 30  2  0
 30 31  1  0
 31 32  2  0
 32 33  1  0
 33 34  3  0
 25 35  1  0
 35 36  2  0
  7 37  2  0
 37  2  1  0
 16 11  1  0
 35 18  1  0
 32 27  1  0
  1 38  1  0
  1 39  1  0
  1 40  1  0
  3 41  1  0
  5 42  1  0
  5 43  1  0
  5 44  1  0
  6 45  1  0
 12 46  1  0
 13 47  1  0
 14 48  1  0
 15 49  1  0
 17 50  1  0
 17 51  1  0
 22 52  1  0
 22 53  1  0
 22 54  1  0
 26 55  1  0
 26 56  1  0
 28 57  1  0
 29 58  1  0
 30 59  1  0
 31 60  1  0
 37 61  1  0
M  CHG  1   8  -1
M  END
>  <UniqueID>  (66) 
63

>  <SMILES>  (66) 
Cc1cc(C)cc([N-]C(=O)c2ccccc2Cn2c(=O)n(C)c(=O)n(Cc3ccccc3C#N)c2=O)c1

>  <Energy>  (66) 
87.00166397045369

>  <Genealogy>  (66) 
Cc1cc(C)cc([N-]C(=O)c2ccccc2Cn2c(=O)n(C)c(=O)n(Cc3ccccc3C#N)c2=O)c1 (protonated)
Cc1cc(C)cc([N-]C(=O)c2ccccc2Cn2c(=O)n(C)c(=O)n(Cc3ccccc3C#N)c2=O)c1 (3D coordinates assigned)
Cc1cc(C)cc([N-]C(=O)c2ccccc2Cn2c(=O)n(C)c(=O)n(Cc3ccccc3C#N)c2=O)c1 (optimized conformer: 87.00166397045369 kcal/mol)

>  <smiles>  (66) 
Cc1cc(C)cc(NC(=O)c2ccccc2Cn2c(=O)n(C)c(=O)n(Cc3ccccc3C#N)c2=O)c1

>  <score_type>  (66) 
oracle

>  <origin>  (66) 
adg

>  <m_score__min__energy>  (66) 
-11.66

>  <m_primary>  (66) 
energy

$$$$
66:0
     RDKit          3D

 32 34  0  0  0  0  0  0  0  0999 V2000
   55.6980   30.7110   44.5240 O   0  0  0  0  0  0  0  0  0  0  0  0
   56.4650   29.7250   44.6840 C   0  0  0  0  0  0  0  0  0  0  0  0
   57.9230   29.8580   44.3160 C   0  0  0  0  0  0  0  0  0  0  0  0
   58.6490   30.6810   45.3000 N   0  0  0  0  0  0  0  0  0  0  0  0
   59.6070   30.0930   46.0800 C   0  0  0  0  0  0  0  0  0  0  0  0
   60.3090   30.8250   46.9820 N   0  0  0  0  0  0  0  0  0  0  0  0
   60.0900   32.1540   47.1340 C   0  0  0  0  0  0  0  0  0  0  0  0
   60.8280   32.8830   48.0740 C   0  0  0  0  0  0  0  0  0  0  0  0
   60.6050   34.2540   48.2270 C   0  0  0  0  0  0  0  0  0  0  0  0
   61.3220   34.9590   49.1370 F   0  0  0  0  0  0  0  0  0  0  0  0
   59.6460   34.9010   47.4420 C   0  0  0  0  0  0  0  0  0  0  0  0
   58.9050   34.1810   46.5010 C   0  0  0  0  0  0  0  0  0  0  0  0
   59.1210   32.7990   46.3410 C   0  0  0  0  0  0  0  0  0  0  0  0
   58.4040   32.0260   45.4090 C   0  0  0  0  0  0  0  0  0  0  0  0
   57.5370   32.5750   44.6720 O   0  0  0  0  0  0  0  0  0  0  0  0
   55.9100   28.5140   45.2290 N   0  0  0  0  0  0  0  0  0  0  0  0
   56.5370   27.4640   45.6780 C   0  0  0  0  0  0  0  0  0  0  0  0
   57.8990   27.4260   45.7560 N   0  0  0  0  0  0  0  0  0  0  0  0
   58.5690   26.3320   46.2060 C   0  0  0  0  0  0  0  0  0  0  0  0
   57.8620   25.1970   46.6040 C   0  0  0  0  0  0  0  0  0  0  0  0
   56.4690   25.1990   46.5280 C   0  0  0  0  0  0  0  0  0  0  0  0
   55.7990   26.3330   46.0630 C   0  0  0  0  0  0  0  0  0  0  0  0
   54.4090   26.3320   45.9850 O   0  0  0  0  0  0  0  0  0  0  0  0
   58.3769   28.8566   44.2814 H   0  0  0  0  0  0  0  0  0  0  0  0
   57.9906   30.3491   43.3341 H   0  0  0  0  0  0  0  0  0  0  0  0
   59.8102   29.0170   45.9751 H   0  0  0  0  0  0  0  0  0  0  0  0
   61.5837   32.3765   48.6924 H   0  0  0  0  0  0  0  0  0  0  0  0
   59.4741   35.9805   47.5655 H   0  0  0  0  0  0  0  0  0  0  0  0
   58.1523   34.6945   45.8848 H   0  0  0  0  0  0  0  0  0  0  0  0
   59.6678   26.3417   46.2563 H   0  0  0  0  0  0  0  0  0  0  0  0
   58.3972   24.3100   46.9738 H   0  0  0  0  0  0  0  0  0  0  0  0
   55.8993   24.3091   46.8337 H   0  0  0  0  0  0  0  0  0  0  0  0
  1  2  2  0
  2  3  1  0
  3  4  1  0
  4  5  1  0
  5  6  2  0
  6  7  1  0
  7  8  2  0
  8  9  1  0
  9 10  1  0
  9 11  2  0
 11 12  1  0
 12 13  2  0
 13 14  1  0
 14 15  2  0
  2 16  1  0
 16 17  2  3
 17 18  1  0
 18 19  1  0
 19 20  2  0
 20 21  1  0
 21 22  2  0
 22 23  1  0
 14  4  1  0
 22 17  1  0
 13  7  1  0
  3 24  1  0
  3 25  1  0
  5 26  1  0
  8 27  1  0
 11 28  1  0
 12 29  1  0
 19 30  1  0
 20 31  1  0
 21 32  1  0
M  CHG  2  18  -1  23  -1
M  END
>  <UniqueID>  (67) 
64

>  <SMILES>  (67) 
O=C(Cn1cnc2cc(F)ccc2c1=O)N=c1[n-]cccc1[O-]

>  <Energy>  (67) 
47.25401584977412

>  <Genealogy>  (67) 
O=C(Cn1cnc2cc(F)ccc2c1=O)N=c1[n-]cccc1[O-] (protonated)
O=C(Cn1cnc2cc(F)ccc2c1=O)N=c1[n-]cccc1[O-] (3D coordinates assigned)
O=C(Cn1cnc2cc(F)ccc2c1=O)N=c1[n-]cccc1[O-] (optimized conformer: 47.25401584977412 kcal/mol)

>  <smiles>  (67) 
O=C(Cn1cnc2cc(F)ccc2c1=O)N=c1[nH]cccc1O

>  <score_type>  (67) 
oracle

>  <origin>  (67) 
adg

>  <m_score__min__energy>  (67) 
-13.17

>  <m_primary>  (67) 
energy

$$$$
67:0
     RDKit          3D

 37 38  0  0  0  0  0  0  0  0999 V2000
   55.6130   30.8450   44.4040 N   0  0  0  0  0  0  0  0  0  0  0  0
   57.3130   30.8710   44.7170 S   0  0  0  0  0  0  0  0  0  0  0  0
   58.0370   31.3890   43.5060 O   0  0  0  0  0  0  0  0  0  0  0  0
   57.5960   31.7890   45.8740 O   0  0  0  0  0  0  0  0  0  0  0  0
   57.8700   29.2450   45.0960 C   0  0  0  0  0  0  0  0  0  0  0  0
   58.4340   28.4410   44.0960 C   0  0  0  0  0  0  0  0  0  0  0  0
   58.8940   27.1570   44.4010 C   0  0  0  0  0  0  0  0  0  0  0  0
   58.7900   26.6600   45.7100 C   0  0  0  0  0  0  0  0  0  0  0  0
   59.3280   25.2980   46.0490 C   0  0  0  0  0  0  0  0  0  0  0  0
   58.4390   24.2410   45.4710 C   0  0  0  0  0  0  0  0  0  0  0  0
   57.5250   24.4350   44.4530 C   0  0  0  0  0  0  0  0  0  0  0  0
   56.8570   23.2310   44.3090 C   0  0  0  0  0  0  0  0  0  0  0  0
   55.7630   22.9260   43.3660 C   0  0  0  0  0  0  0  0  0  0  0  0
   55.9280   22.0260   42.4990 O   0  0  0  0  0  0  0  0  0  0  0  0
   54.4410   23.6330   43.4410 C   0  0  0  0  0  0  0  0  0  0  0  0
   53.9790   23.7350   44.8660 C   0  0  0  0  0  0  0  0  0  0  0  0
   53.0240   23.0140   45.2600 O   0  0  0  0  0  0  0  0  0  0  0  0
   54.5990   24.6840   45.8040 C   0  0  0  0  0  0  0  0  0  0  0  0
   55.3540   24.2750   46.7260 O   0  0  0  0  0  0  0  0  0  0  0  0
   54.3520   26.0460   45.6780 O   0  0  0  0  0  0  0  0  0  0  0  0
   57.3890   22.3630   45.2470 C   0  0  0  0  0  0  0  0  0  0  0  0
   58.3460   22.9880   45.9560 N   0  0  0  0  0  0  0  0  0  0  0  0
   58.2430   27.4750   46.7140 C   0  0  0  0  0  0  0  0  0  0  0  0
   57.7850   28.7590   46.4070 C   0  0  0  0  0  0  0  0  0  0  0  0
   55.3040   31.8390   44.3140 H   0  0  0  0  0  0  0  0  0  0  0  0
   55.1520   30.4640   45.2600 H   0  0  0  0  0  0  0  0  0  0  0  0
   58.5149   28.8220   43.0673 H   0  0  0  0  0  0  0  0  0  0  0  0
   59.3394   26.5331   43.6121 H   0  0  0  0  0  0  0  0  0  0  0  0
   60.3403   25.1914   45.6319 H   0  0  0  0  0  0  0  0  0  0  0  0
   59.3627   25.1840   47.1425 H   0  0  0  0  0  0  0  0  0  0  0  0
   57.3617   25.3569   43.8755 H   0  0  0  0  0  0  0  0  0  0  0  0
   54.5471   24.6444   43.0216 H   0  0  0  0  0  0  0  0  0  0  0  0
   53.6982   23.0601   42.8665 H   0  0  0  0  0  0  0  0  0  0  0  0
   57.0759   21.3184   45.3910 H   0  0  0  0  0  0  0  0  0  0  0  0
   58.8970   22.5810   46.7440 H   0  0  0  0  0  0  0  0  0  0  0  0
   58.1747   27.1013   47.7463 H   0  0  0  0  0  0  0  0  0  0  0  0
   57.3558   29.3910   47.1984 H   0  0  0  0  0  0  0  0  0  0  0  0
  1  2  1  0
  2  3  2  0
  2  4  2  0
  2  5  1  0
  5  6  2  0
  6  7  1  0
  7  8  2  0
  8  9  1  0
  9 10  1  0
 10 11  2  0
 11 12  1  0
 12 13  1  0
 13 14  2  0
 13 15  1  0
 15 16  1  0
 16 17  2  0
 16 18  1  0
 18 19  2  0
 18 20  1  0
 12 21  2  0
 21 22  1  0
  8 23  1  0
 23 24  2  0
 24  5  1  0
 22 10  1  0
  1 25  1  0
  1 26  1  0
  6 27  1  0
  7 28  1  0
  9 29  1  0
  9 30  1  0
 11 31  1  0
 15 32  1  0
 15 33  1  0
 21 34  1  0
 22 35  1  0
 23 36  1  0
 24 37  1  0
M  CHG  1  20  -1
M  END
>  <UniqueID>  (68) 
65

>  <SMILES>  (68) 
NS(=O)(=O)c1ccc(Cc2cc(C(=O)CC(=O)C(=O)[O-])c[nH]2)cc1

>  <Energy>  (68) 
55.295090477395696

>  <Genealogy>  (68) 
NS(=O)(=O)c1ccc(Cc2cc(C(=O)CC(=O)C(=O)[O-])c[nH]2)cc1 (protonated)
NS(=O)(=O)c1ccc(Cc2cc(C(=O)CC(=O)C(=O)[O-])c[nH]2)cc1 (3D coordinates assigned)
NS(=O)(=O)c1ccc(Cc2cc(C(=O)CC(=O)C(=O)[O-])c[nH]2)cc1 (optimized conformer: 55.295090477395696 kcal/mol)

>  <smiles>  (68) 
NS(=O)(=O)c1ccc(Cc2cc(C(=O)CC(=O)C(=O)O)c[nH]2)cc1

>  <score_type>  (68) 
oracle

>  <origin>  (68) 
adg

>  <m_score__min__energy>  (68) 
-11

>  <m_primary>  (68) 
energy

$$$$
68:0
     RDKit          3D

 40 42  0  0  0  0  0  0  0  0999 V2000
   58.4040   31.5100   45.0380 C   0  0  0  0  0  0  0  0  0  0  0  0
   59.0690   30.9050   46.0360 C   0  0  0  0  0  0  0  0  0  0  0  0
   60.1370   31.4270   46.7860 C   0  0  0  0  0  0  0  0  0  0  0  0
   60.7030   32.6510   46.8000 C   0  0  0  0  0  0  0  0  0  0  0  0
   61.5000   33.2190   47.9020 C   0  0  0  0  0  0  0  0  0  0  0  0
   62.9050   33.1270   47.9060 C   0  0  0  0  0  0  0  0  0  0  0  0
   63.6050   32.5500   46.8470 O   0  0  0  0  0  0  0  0  0  0  0  0
   63.6060   33.6210   48.9590 N   0  0  0  0  0  0  0  0  0  0  0  0
   62.9800   34.1930   50.0190 C   0  0  0  0  0  0  0  0  0  0  0  0
   63.6550   34.6450   50.9790 O   0  0  0  0  0  0  0  0  0  0  0  0
   61.6250   34.2740   50.0460 N   0  0  0  0  0  0  0  0  0  0  0  0
   60.8740   33.7960   49.0220 C   0  0  0  0  0  0  0  0  0  0  0  0
   59.6180   33.8730   49.0890 O   0  0  0  0  0  0  0  0  0  0  0  0
   60.5590   30.4060   47.6200 C   0  0  0  0  0  0  0  0  0  0  0  0
   59.7350   29.3270   47.3850 C   0  0  0  0  0  0  0  0  0  0  0  0
   59.8100   28.0310   48.1350 C   0  0  0  0  0  0  0  0  0  0  0  0
   58.8270   29.6230   46.4250 N   0  0  0  0  0  0  0  0  0  0  0  0
   57.8090   28.7050   45.8860 C   0  0  0  0  0  0  0  0  0  0  0  0
   58.4340   27.6830   44.9710 C   0  0  0  0  0  0  0  0  0  0  0  0
   59.5900   27.8340   44.6030 O   0  0  0  0  0  0  0  0  0  0  0  0
   57.6590   26.4890   44.4890 C   0  0  0  0  0  0  0  0  0  0  0  0
   57.1870   25.6700   45.6490 C   0  0  0  0  0  0  0  0  0  0  0  0
   57.8760   24.6440   46.1800 N   0  0  0  0  0  0  0  0  0  0  0  0
   57.0510   24.1820   47.1440 C   0  0  0  0  0  0  0  0  0  0  0  0
   57.3500   23.2080   47.8830 O   0  0  0  0  0  0  0  0  0  0  0  0
   55.8770   24.8420   47.2520 N   0  0  0  0  0  0  0  0  0  0  0  0
   55.9770   25.7770   46.2950 C   0  0  0  0  0  0  0  0  0  0  0  0
   54.9830   26.7050   46.0120 O   0  0  0  0  0  0  0  0  0  0  0  0
   57.5810   30.9869   44.5290 H   0  0  0  0  0  0  0  0  0  0  0  0
   58.6824   32.5285   44.7297 H   0  0  0  0  0  0  0  0  0  0  0  0
   60.5569   33.2812   45.9103 H   0  0  0  0  0  0  0  0  0  0  0  0
   64.5920   32.3290   46.8990 H   0  0  0  0  0  0  0  0  0  0  0  0
   61.3940   30.4481   48.3349 H   0  0  0  0  0  0  0  0  0  0  0  0
   59.7984   28.2320   49.2164 H   0  0  0  0  0  0  0  0  0  0  0  0
   58.9467   27.4032   47.8694 H   0  0  0  0  0  0  0  0  0  0  0  0
   60.7400   27.5070   47.8694 H   0  0  0  0  0  0  0  0  0  0  0  0
   57.3145   28.1862   46.7204 H   0  0  0  0  0  0  0  0  0  0  0  0
   57.0782   29.2913   45.3096 H   0  0  0  0  0  0  0  0  0  0  0  0
   56.7891   26.8315   43.9094 H   0  0  0  0  0  0  0  0  0  0  0  0
   58.3137   25.8698   43.8582 H   0  0  0  0  0  0  0  0  0  0  0  0
  1  2  2  0
  2  3  1  0
  3  4  2  3
  4  5  1  0
  5  6  2  0
  6  7  1  0
  6  8  1  0
  8  9  1  0
  9 10  2  0
  9 11  1  0
 11 12  1  0
 12 13  2  0
  3 14  1  0
 14 15  2  0
 15 16  1  0
 15 17  1  0
 17 18  1  0
 18 19  1  0
 19 20  2  0
 19 21  1  0
 21 22  1  0
 22 23  1  0
 23 24  1  0
 24 25  2  0
 24 26  1  0
 26 27  1  0
 27 28  1  0
 17  2  1  0
 27 22  2  0
 12  5  1  0
  1 29  1  0
  1 30  1  0
  4 31  1  0
  7 32  1  0
 14 33  1  0
 16 34  1  0
 16 35  1  0
 16 36  1  0
 18 37  1  0
 18 38  1  0
 21 39  1  0
 21 40  1  0
M  CHG  5   8  -1  11  -1  23  -1  26  -1  28  -1
M  END
>  <UniqueID>  (69) 
66

>  <SMILES>  (69) 
C=c1c(=Cc2c(O)[n-]c(=O)[n-]c2=O)cc(C)n1CC(=O)Cc1[n-]c(=O)[n-]c1[O-]

>  <Energy>  (69) 
110.98019800820522

>  <Genealogy>  (69) 
C=c1c(=Cc2c(O)[n-]c(=O)[n-]c2=O)cc(C)n1CC(=O)Cc1[n-]c(=O)[n-]c1[O-] (protonated)
C=c1c(=Cc2c(O)[n-]c(=O)[n-]c2=O)cc(C)n1CC(=O)Cc1[n-]c(=O)[n-]c1[O-] (3D coordinates assigned)
C=c1c(=Cc2c(O)[n-]c(=O)[n-]c2=O)cc(C)n1CC(=O)Cc1[n-]c(=O)[n-]c1[O-] (optimized conformer: 110.98019800820522 kcal/mol)

>  <smiles>  (69) 
C=c1c(=Cc2c(O)[nH]c(=O)[nH]c2=O)cc(C)n1CC(=O)Cc1[nH]c(=O)[nH]c1O

>  <score_type>  (69) 
oracle

>  <origin>  (69) 
adg

>  <m_score__min__energy>  (69) 
-17.530000000000001

>  <m_primary>  (69) 
energy

$$$$
69:0
     RDKit          3D

 51 54  0  0  0  0  0  0  0  0999 V2000
   59.6820   29.1550   45.8450 C   0  0  0  0  0  0  0  0  0  0  0  0
   58.3830   29.2070   45.5120 C   0  0  0  0  0  0  0  0  0  0  0  0
   57.5860   28.1730   44.9970 C   0  0  0  0  0  0  0  0  0  0  0  0
   57.8160   26.8490   44.9320 C   0  0  0  0  0  0  0  0  0  0  0  0
   57.2600   25.8340   45.8440 C   0  0  0  0  0  0  0  0  0  0  0  0
   57.9810   24.8750   46.4550 N   0  0  0  0  0  0  0  0  0  0  0  0
   57.0850   24.2900   47.2800 C   0  0  0  0  0  0  0  0  0  0  0  0
   57.3810   23.3200   48.0240 O   0  0  0  0  0  0  0  0  0  0  0  0
   55.8500   24.8350   47.2520 N   0  0  0  0  0  0  0  0  0  0  0  0
   55.9840   25.8200   46.3480 C   0  0  0  0  0  0  0  0  0  0  0  0
   54.9610   26.6940   45.9930 O   0  0  0  0  0  0  0  0  0  0  0  0
   56.4310   28.7000   44.5350 N   0  0  0  0  0  0  0  0  0  0  0  0
   56.5220   30.0120   44.8190 C   0  0  0  0  0  0  0  0  0  0  0  0
   55.6020   30.8310   44.5510 O   0  0  0  0  0  0  0  0  0  0  0  0
   57.6760   30.3570   45.4260 N   0  0  0  0  0  0  0  0  0  0  0  0
   58.0640   31.6830   45.8330 C   0  0  0  0  0  0  0  0  0  0  0  0
   57.6110   32.8020   45.1190 C   0  0  0  0  0  0  0  0  0  0  0  0
   58.0080   34.0870   45.4990 C   0  0  0  0  0  0  0  0  0  0  0  0
   58.8550   34.2640   46.5950 C   0  0  0  0  0  0  0  0  0  0  0  0
   59.3080   33.1560   47.3290 C   0  0  0  0  0  0  0  0  0  0  0  0
   60.2100   33.3480   48.4850 C   0  0  0  0  0  0  0  0  0  0  0  0
   59.7850   33.0860   49.6440 O   0  0  0  0  0  0  0  0  0  0  0  0
   61.5640   33.8080   48.3140 N   0  0  0  0  0  0  0  0  0  0  0  0
   62.3800   33.2990   47.1970 C   0  0  0  0  0  0  0  0  0  0  0  0
   63.8790   33.3420   47.5340 C   0  0  0  0  0  0  0  0  0  0  0  0
   64.1240   32.9110   48.9930 C   0  0  0  0  0  0  0  0  0  0  0  0
   63.6540   31.5840   49.1830 O   0  0  0  0  0  0  0  0  0  0  0  0
   63.0220   31.4500   50.4370 C   0  0  0  0  0  0  0  0  0  0  0  0
   63.3880   33.8460   49.9850 C   0  0  0  0  0  0  0  0  0  0  0  0
   62.2090   34.6120   49.3590 C   0  0  0  0  0  0  0  0  0  0  0  0
   58.9220   31.8650   46.9290 C   0  0  0  0  0  0  0  0  0  0  0  0
   60.1846   30.0499   46.2406 H   0  0  0  0  0  0  0  0  0  0  0  0
   60.2441   28.2175   45.7224 H   0  0  0  0  0  0  0  0  0  0  0  0
   58.4768   26.4932   44.1278 H   0  0  0  0  0  0  0  0  0  0  0  0
   55.1500   27.4980   45.4080 H   0  0  0  0  0  0  0  0  0  0  0  0
   56.9410   32.6678   44.2570 H   0  0  0  0  0  0  0  0  0  0  0  0
   57.6525   34.9609   44.9335 H   0  0  0  0  0  0  0  0  0  0  0  0
   59.1692   35.2775   46.8851 H   0  0  0  0  0  0  0  0  0  0  0  0
   62.0900   32.2590   46.9865 H   0  0  0  0  0  0  0  0  0  0  0  0
   62.2035   33.9381   46.3193 H   0  0  0  0  0  0  0  0  0  0  0  0
   64.4197   32.6604   46.8609 H   0  0  0  0  0  0  0  0  0  0  0  0
   64.2400   34.3731   47.4054 H   0  0  0  0  0  0  0  0  0  0  0  0
   65.2053   32.9680   49.1866 H   0  0  0  0  0  0  0  0  0  0  0  0
   63.7596   31.6064   51.2379 H   0  0  0  0  0  0  0  0  0  0  0  0
   62.2205   32.1982   50.5255 H   0  0  0  0  0  0  0  0  0  0  0  0
   62.5931   30.4409   50.5255 H   0  0  0  0  0  0  0  0  0  0  0  0
   63.0033   33.2362   50.8158 H   0  0  0  0  0  0  0  0  0  0  0  0
   64.1182   34.5984   50.3176 H   0  0  0  0  0  0  0  0  0  0  0  0
   61.4724   34.8439   50.1424 H   0  0  0  0  0  0  0  0  0  0  0  0
   62.5901   35.5395   48.9068 H   0  0  0  0  0  0  0  0  0  0  0  0
   59.2957   30.9893   47.4799 H   0  0  0  0  0  0  0  0  0  0  0  0
  1  2  2  0
  2  3  1  0
  3  4  2  3
  4  5  1  0
  5  6  1  0
  6  7  1  0
  7  8  2  0
  7  9  1  0
  9 10  1  0
 10 11  1  0
  3 12  1  0
 12 13  1  0
 13 14  2  0
 13 15  1  0
 15 16  1  0
 16 17  2  0
 17 18  1  0
 18 19  2  0
 19 20  1  0
 20 21  1  0
 21 22  2  0
 21 23  1  0
 23 24  1  0
 24 25  1  0
 25 26  1  0
 26 27  1  0
 27 28  1  0
 26 29  1  0
 29 30  1  0
 20 31  2  0
 15  2  1  0
 31 16  1  0
 10  5  2  0
 30 23  1  0
  1 32  1  0
  1 33  1  0
  4 34  1  0
 11 35  1  0
 17 36  1  0
 18 37  1  0
 19 38  1  0
 24 39  1  0
 24 40  1  0
 25 41  1  0
 25 42  1  0
 26 43  1  0
 28 44  1  0
 28 45  1  0
 28 46  1  0
 29 47  1  0
 29 48  1  0
 30 49  1  0
 30 50  1  0
 31 51  1  0
M  CHG  3   6  -1   9  -1  12  -1
M  END
>  <UniqueID>  (70) 
67

>  <SMILES>  (70) 
C=c1c(=Cc2[n-]c(=O)[n-]c2O)[n-]c(=O)n1-c1cccc(C(=O)N2CCC(OC)CC2)c1

>  <Energy>  (70) 
142.9173722869312

>  <Genealogy>  (70) 
C=c1c(=Cc2[n-]c(=O)[n-]c2O)[n-]c(=O)n1-c1cccc(C(=O)N2CCC(OC)CC2)c1 (protonated)
C=c1c(=Cc2[n-]c(=O)[n-]c2O)[n-]c(=O)n1-c1cccc(C(=O)N2CCC(OC)CC2)c1 (3D coordinates assigned)
C=c1c(=Cc2[n-]c(=O)[n-]c2O)[n-]c(=O)n1-c1cccc(C(=O)N2CCC(OC)CC2)c1 (nonaromatic ring conformer: 142.9173722869312 kcal/mol)

>  <smiles>  (70) 
C=c1c(=Cc2[nH]c(=O)[nH]c2O)[nH]c(=O)n1-c1cccc(C(=O)N2CCC(OC)CC2)c1

>  <score_type>  (70) 
oracle

>  <origin>  (70) 
adg

>  <m_score__min__energy>  (70) 
-16.309999999999999

>  <m_primary>  (70) 
energy

$$$$
70:0
     RDKit          3D

 45 48  0  0  0  0  0  0  0  0999 V2000
   59.3750   27.4140   46.3070 O   0  0  0  0  0  0  0  0  0  0  0  0
   58.1560   27.7230   46.3730 C   0  0  0  0  0  0  0  0  0  0  0  0
   57.8100   29.0940   46.6140 N   0  0  0  0  0  0  0  0  0  0  0  0
   57.9020   30.1780   45.6770 C   0  0  0  0  0  0  0  0  0  0  0  0
   57.9420   29.8870   44.3090 C   0  0  0  0  0  0  0  0  0  0  0  0
   58.0400   30.9170   43.3710 C   0  0  0  0  0  0  0  0  0  0  0  0
   58.0850   32.2480   43.7920 C   0  0  0  0  0  0  0  0  0  0  0  0
   58.0100   32.5640   45.1590 C   0  0  0  0  0  0  0  0  0  0  0  0
   58.0750   33.9780   45.6040 C   0  0  0  0  0  0  0  0  0  0  0  0
   57.2070   34.7950   45.1930 O   0  0  0  0  0  0  0  0  0  0  0  0
   59.1180   34.4420   46.4830 N   0  0  0  0  0  0  0  0  0  0  0  0
   58.9090   34.4720   47.9300 C   0  0  0  0  0  0  0  0  0  0  0  0
   59.7050   33.3380   48.5730 C   0  0  0  0  0  0  0  0  0  0  0  0
   61.1270   33.2980   48.0650 C   0  0  0  0  0  0  0  0  0  0  0  0
   62.0970   32.6040   48.8080 C   0  0  0  0  0  0  0  0  0  0  0  0
   63.4080   32.5040   48.3390 C   0  0  0  0  0  0  0  0  0  0  0  0
   63.7630   33.0850   47.1210 C   0  0  0  0  0  0  0  0  0  0  0  0
   62.8070   33.7650   46.3640 C   0  0  0  0  0  0  0  0  0  0  0  0
   61.4820   33.8650   46.8160 C   0  0  0  0  0  0  0  0  0  0  0  0
   60.4850   34.6470   45.9920 C   0  0  0  0  0  0  0  0  0  0  0  0
   57.9140   31.5210   46.0970 C   0  0  0  0  0  0  0  0  0  0  0  0
   57.1280   26.6590   46.2650 C   0  0  0  0  0  0  0  0  0  0  0  0
   57.4020   25.3590   46.7190 C   0  0  0  0  0  0  0  0  0  0  0  0
   56.4260   24.3630   46.6370 C   0  0  0  0  0  0  0  0  0  0  0  0
   56.7820   22.7450   47.2260 Cl  0  0  0  0  0  0  0  0  0  0  0  0
   55.1790   24.6740   46.0850 C   0  0  0  0  0  0  0  0  0  0  0  0
   54.2810   23.7950   45.9970 O   0  0  0  0  0  0  0  0  0  0  0  0
   54.9300   25.9320   45.6380 N   0  0  0  0  0  0  0  0  0  0  0  0
   55.8600   26.9220   45.7110 C   0  0  0  0  0  0  0  0  0  0  0  0
   55.5320   28.1920   45.2500 O   0  0  0  0  0  0  0  0  0  0  0  0
   57.8960   28.8414   43.9705 H   0  0  0  0  0  0  0  0  0  0  0  0
   58.0819   30.6794   42.2978 H   0  0  0  0  0  0  0  0  0  0  0  0
   58.1797   33.0536   43.0490 H   0  0  0  0  0  0  0  0  0  0  0  0
   59.2519   35.4368   48.3319 H   0  0  0  0  0  0  0  0  0  0  0  0
   57.8391   34.3468   48.1528 H   0  0  0  0  0  0  0  0  0  0  0  0
   59.7195   33.4856   49.6630 H   0  0  0  0  0  0  0  0  0  0  0  0
   59.2197   32.3861   48.3114 H   0  0  0  0  0  0  0  0  0  0  0  0
   61.8216   32.1367   49.7650 H   0  0  0  0  0  0  0  0  0  0  0  0
   64.1630   31.9659   48.9310 H   0  0  0  0  0  0  0  0  0  0  0  0
   64.7980   33.0071   46.7566 H   0  0  0  0  0  0  0  0  0  0  0  0
   63.0941   34.2254   45.4071 H   0  0  0  0  0  0  0  0  0  0  0  0
   60.7312   35.7175   46.0510 H   0  0  0  0  0  0  0  0  0  0  0  0
   60.5390   34.2947   44.9513 H   0  0  0  0  0  0  0  0  0  0  0  0
   57.8477   31.7571   47.1693 H   0  0  0  0  0  0  0  0  0  0  0  0
   58.3901   25.1236   47.1413 H   0  0  0  0  0  0  0  0  0  0  0  0
  1  2  2  0
  2  3  1  0
  3  4  1  0
  4  5  2  0
  5  6  1  0
  6  7  2  0
  7  8  1  0
  8  9  1  0
  9 10  2  0
  9 11  1  0
 11 12  1  0
 12 13  1  0
 13 14  1  0
 14 15  2  0
 15 16  1  0
 16 17  2  0
 17 18  1  0
 18 19  2  0
 19 20  1  0
  8 21  2  0
  2 22  1  0
 22 23  1  0
 23 24  2  0
 24 25  1  0
 24 26  1  0
 26 27  2  0
 26 28  1  0
 28 29  1  0
 29 30  1  0
 21  4  1  0
 29 22  2  0
 20 11  1  0
 19 14  1  0
  5 31  1  0
  6 32  1  0
  7 33  1  0
 12 34  1  0
 12 35  1  0
 13 36  1  0
 13 37  1  0
 15 38  1  0
 16 39  1  0
 17 40  1  0
 18 41  1  0
 20 42  1  0
 20 43  1  0
 21 44  1  0
 23 45  1  0
M  CHG  3   3  -1  28  -1  30  -1
M  END
>  <UniqueID>  (71) 
68

>  <SMILES>  (71) 
O=C([N-]c1cccc(C(=O)N2CCc3ccccc3C2)c1)c1cc(Cl)c(=O)[n-]c1[O-]

>  <Energy>  (71) 
64.49256156269314

>  <Genealogy>  (71) 
O=C([N-]c1cccc(C(=O)N2CCc3ccccc3C2)c1)c1cc(Cl)c(=O)[n-]c1[O-] (protonated)
O=C([N-]c1cccc(C(=O)N2CCc3ccccc3C2)c1)c1cc(Cl)c(=O)[n-]c1[O-] (3D coordinates assigned)
O=C([N-]c1cccc(C(=O)N2CCc3ccccc3C2)c1)c1cc(Cl)c(=O)[n-]c1[O-] (nonaromatic ring conformer: 64.49256156269314 kcal/mol)

>  <smiles>  (71) 
O=C(Nc1cccc(C(=O)N2CCc3ccccc3C2)c1)c1cc(Cl)c(=O)[nH]c1O

>  <score_type>  (71) 
oracle

>  <origin>  (71) 
adg

>  <m_score__min__energy>  (71) 
-16.140000000000001

>  <m_primary>  (71) 
energy

$$$$
71:0
     RDKit          3D

 58 61  0  0  0  0  0  0  0  0999 V2000
   58.7710   25.6190   46.6860 O   0  0  0  0  0  0  0  0  0  0  0  0
   58.2080   26.6310   46.1850 C   0  0  0  0  0  0  0  0  0  0  0  0
   57.0770   26.4570   45.3160 N   0  0  0  0  0  0  0  0  0  0  0  0
   56.3260   25.2350   45.2450 C   0  0  0  0  0  0  0  0  0  0  0  0
   56.9530   24.0720   44.7750 C   0  0  0  0  0  0  0  0  0  0  0  0
   56.2520   22.8600   44.7050 C   0  0  0  0  0  0  0  0  0  0  0  0
   57.0620   21.3950   44.1500 S   0  0  0  0  0  0  0  0  0  0  0  0
   56.3420   20.8570   42.9450 O   0  0  0  0  0  0  0  0  0  0  0  0
   58.4630   21.7450   43.7300 O   0  0  0  0  0  0  0  0  0  0  0  0
   57.1230   20.1550   45.3840 N   0  0  0  0  0  0  0  0  0  0  0  0
   57.3900   20.6940   46.7390 C   0  0  0  0  0  0  0  0  0  0  0  0
   56.3790   20.2360   47.7990 C   0  0  0  0  0  0  0  0  0  0  0  0
   54.9610   20.4230   47.2730 C   0  0  0  0  0  0  0  0  0  0  0  0
   54.7220   19.6150   45.9900 C   0  0  0  0  0  0  0  0  0  0  0  0
   56.0190   19.1780   45.2750 C   0  0  0  0  0  0  0  0  0  0  0  0
   54.8970   22.8260   45.0620 C   0  0  0  0  0  0  0  0  0  0  0  0
   54.2570   23.9870   45.5030 C   0  0  0  0  0  0  0  0  0  0  0  0
   54.9600   25.1910   45.5900 C   0  0  0  0  0  0  0  0  0  0  0  0
   54.2890   26.3420   45.9900 O   0  0  0  0  0  0  0  0  0  0  0  0
   58.7510   27.9820   46.4630 C   0  0  0  0  0  0  0  0  0  0  0  0
   59.5220   28.2270   47.6130 C   0  0  0  0  0  0  0  0  0  0  0  0
   60.0320   29.5030   47.8680 C   0  0  0  0  0  0  0  0  0  0  0  0
   59.7820   30.5610   46.9740 C   0  0  0  0  0  0  0  0  0  0  0  0
   60.2600   31.8630   47.1880 O   0  0  0  0  0  0  0  0  0  0  0  0
   60.4580   32.4690   48.4660 C   0  0  0  0  0  0  0  0  0  0  0  0
   61.9260   32.6340   48.7580 C   0  0  0  0  0  0  0  0  0  0  0  0
   62.7620   33.3170   47.8560 C   0  0  0  0  0  0  0  0  0  0  0  0
   64.1230   33.4690   48.1360 C   0  0  0  0  0  0  0  0  0  0  0  0
   64.6590   32.9490   49.3180 C   0  0  0  0  0  0  0  0  0  0  0  0
   65.9790   33.0970   49.5880 F   0  0  0  0  0  0  0  0  0  0  0  0
   63.8310   32.2800   50.2250 C   0  0  0  0  0  0  0  0  0  0  0  0
   62.4690   32.1260   49.9490 C   0  0  0  0  0  0  0  0  0  0  0  0
   59.0300   30.3130   45.8210 C   0  0  0  0  0  0  0  0  0  0  0  0
   58.5200   29.0370   45.5640 C   0  0  0  0  0  0  0  0  0  0  0  0
   56.9160   27.1710   44.5700 H   0  0  0  0  0  0  0  0  0  0  0  0
   58.0056   24.1112   44.4580 H   0  0  0  0  0  0  0  0  0  0  0  0
   58.3924   20.3658   47.0513 H   0  0  0  0  0  0  0  0  0  0  0  0
   57.3075   21.7887   46.6699 H   0  0  0  0  0  0  0  0  0  0  0  0
   56.5464   19.1733   48.0286 H   0  0  0  0  0  0  0  0  0  0  0  0
   56.5108   20.8368   48.7109 H   0  0  0  0  0  0  0  0  0  0  0  0
   54.2484   20.0903   48.0421 H   0  0  0  0  0  0  0  0  0  0  0  0
   54.8188   21.4885   47.0395 H   0  0  0  0  0  0  0  0  0  0  0  0
   54.1493   18.7127   46.2506 H   0  0  0  0  0  0  0  0  0  0  0  0
   54.1802   20.2729   45.2946 H   0  0  0  0  0  0  0  0  0  0  0  0
   56.3535   18.2272   45.7155 H   0  0  0  0  0  0  0  0  0  0  0  0
   55.7782   19.0872   44.2055 H   0  0  0  0  0  0  0  0  0  0  0  0
   54.3358   21.8823   44.9948 H   0  0  0  0  0  0  0  0  0  0  0  0
   53.1938   23.9528   45.7832 H   0  0  0  0  0  0  0  0  0  0  0  0
   59.7255   27.4075   48.3179 H   0  0  0  0  0  0  0  0  0  0  0  0
   60.6321   29.6814   48.7724 H   0  0  0  0  0  0  0  0  0  0  0  0
   59.9752   33.4573   48.4751 H   0  0  0  0  0  0  0  0  0  0  0  0
   60.0161   31.8198   49.2363 H   0  0  0  0  0  0  0  0  0  0  0  0
   62.3434   33.7327   46.9276 H   0  0  0  0  0  0  0  0  0  0  0  0
   64.7738   33.9989   47.4249 H   0  0  0  0  0  0  0  0  0  0  0  0
   64.2519   31.8744   51.1569 H   0  0  0  0  0  0  0  0  0  0  0  0
   61.8201   31.6046   50.6681 H   0  0  0  0  0  0  0  0  0  0  0  0
   58.8381   31.1298   45.1097 H   0  0  0  0  0  0  0  0  0  0  0  0
   57.9333   28.8574   44.6510 H   0  0  0  0  0  0  0  0  0  0  0  0
  1  2  2  0
  2  3  1  0
  3  4  1  0
  4  5  2  0
  5  6  1  0
  6  7  1  0
  7  8  2  0
  7  9  2  0
  7 10  1  0
 10 11  1  0
 11 12  1  0
 12 13  1  0
 13 14  1  0
 14 15  1  0
  6 16  2  0
 16 17  1  0
 17 18  2  0
 18 19  1  0
  2 20  1  0
 20 21  2  0
 21 22  1  0
 22 23  2  0
 23 24  1  0
 24 25  1  0
 25 26  1  0
 26 27  2  0
 27 28  1  0
 28 29  2  0
 29 30  1  0
 29 31  1  0
 31 32  2  0
 23 33  1  0
 33 34  2  0
 18  4  1  0
 34 20  1  0
 15 10  1  0
 32 26  1  0
  3 35  1  0
  5 36  1  0
 11 37  1  0
 11 38  1  0
 12 39  1  0
 12 40  1  0
 13 41  1  0
 13 42  1  0
 14 43  1  0
 14 44  1  0
 15 45  1  0
 15 46  1  0
 16 47  1  0
 17 48  1  0
 21 49  1  0
 22 50  1  0
 25 51  1  0
 25 52  1  0
 27 53  1  0
 28 54  1  0
 31 55  1  0
 32 56  1  0
 33 57  1  0
 34 58  1  0
M  CHG  1  19  -1
M  END
>  <UniqueID>  (72) 
69

>  <SMILES>  (72) 
O=C(Nc1cc(S(=O)(=O)N2CCCCC2)ccc1[O-])c1ccc(OCc2ccc(F)cc2)cc1

>  <Energy>  (72) 
75.49925435161092

>  <Genealogy>  (72) 
O=C(Nc1cc(S(=O)(=O)N2CCCCC2)ccc1[O-])c1ccc(OCc2ccc(F)cc2)cc1 (protonated)
O=C(Nc1cc(S(=O)(=O)N2CCCCC2)ccc1[O-])c1ccc(OCc2ccc(F)cc2)cc1 (3D coordinates assigned)
O=C(Nc1cc(S(=O)(=O)N2CCCCC2)ccc1[O-])c1ccc(OCc2ccc(F)cc2)cc1 (nonaromatic ring conformer: 75.49925435161092 kcal/mol)

>  <smiles>  (72) 
O=C(Nc1cc(S(=O)(=O)N2CCCCC2)ccc1O)c1ccc(OCc2ccc(F)cc2)cc1

>  <score_type>  (72) 
oracle

>  <origin>  (72) 
adg

>  <m_score__min__energy>  (72) 
-12.41

>  <m_primary>  (72) 
energy

$$$$
72:0
     RDKit          3D

 56 59  0  0  0  0  0  0  0  0999 V2000
   60.2840   29.0900   44.5810 C   0  0  0  0  0  0  0  0  0  0  0  0
   59.2570   28.3590   45.0350 C   0  0  0  0  0  0  0  0  0  0  0  0
   58.0450   28.2480   44.3880 C   0  0  0  0  0  0  0  0  0  0  0  0
   57.7110   28.8640   43.1750 O   0  0  0  0  0  0  0  0  0  0  0  0
   56.8270   29.9790   43.0720 C   0  0  0  0  0  0  0  0  0  0  0  0
   57.4050   31.1890   43.7750 C   0  0  0  0  0  0  0  0  0  0  0  0
   57.4730   31.1960   45.1830 C   0  0  0  0  0  0  0  0  0  0  0  0
   57.0370   30.1290   45.9020 F   0  0  0  0  0  0  0  0  0  0  0  0
   57.9920   32.3010   45.8620 C   0  0  0  0  0  0  0  0  0  0  0  0
   58.4610   33.4050   45.1510 C   0  0  0  0  0  0  0  0  0  0  0  0
   58.4210   33.4050   43.7560 C   0  0  0  0  0  0  0  0  0  0  0  0
   57.9030   32.3060   43.0590 C   0  0  0  0  0  0  0  0  0  0  0  0
   57.9140   32.3740   41.3000 Cl  0  0  0  0  0  0  0  0  0  0  0  0
   57.2380   27.4490   45.1660 C   0  0  0  0  0  0  0  0  0  0  0  0
   58.0020   27.0720   46.2570 C   0  0  0  0  0  0  0  0  0  0  0  0
   57.5270   26.2270   47.1940 C   0  0  0  0  0  0  0  0  0  0  0  0
   56.7660   24.9980   46.9240 C   0  0  0  0  0  0  0  0  0  0  0  0
   57.3050   23.8160   47.2150 O   0  0  0  0  0  0  0  0  0  0  0  0
   56.6840   22.6650   46.9790 C   0  0  0  0  0  0  0  0  0  0  0  0
   57.2460   21.5800   47.2840 O   0  0  0  0  0  0  0  0  0  0  0  0
   55.4150   22.6540   46.3940 C   0  0  0  0  0  0  0  0  0  0  0  0
   54.8100   23.8750   46.0570 C   0  0  0  0  0  0  0  0  0  0  0  0
   53.5400   23.9490   45.4650 O   0  0  0  0  0  0  0  0  0  0  0  0
   52.3950   23.2400   45.9280 C   0  0  0  0  0  0  0  0  0  0  0  0
   55.5000   25.0620   46.3220 C   0  0  0  0  0  0  0  0  0  0  0  0
   54.9270   26.2890   45.9990 O   0  0  0  0  0  0  0  0  0  0  0  0
   59.2400   27.6580   46.2040 N   0  0  0  0  0  0  0  0  0  0  0  0
   60.1780   27.8990   47.3210 C   0  0  0  0  0  0  0  0  0  0  0  0
   60.0550   29.3180   47.8120 C   0  0  0  0  0  0  0  0  0  0  0  0
   58.9960   29.6980   48.6500 C   0  0  0  0  0  0  0  0  0  0  0  0
   58.9020   31.0120   49.1210 C   0  0  0  0  0  0  0  0  0  0  0  0
   59.8660   31.9690   48.7600 C   0  0  0  0  0  0  0  0  0  0  0  0
   59.7660   33.3570   49.2630 C   0  0  0  0  0  0  0  0  0  0  0  0
   59.4010   33.5840   50.4470 O   0  0  0  0  0  0  0  0  0  0  0  0
   60.0710   34.4300   48.4350 O   0  0  0  0  0  0  0  0  0  0  0  0
   60.9230   31.5860   47.9130 C   0  0  0  0  0  0  0  0  0  0  0  0
   61.0140   30.2740   47.4440 C   0  0  0  0  0  0  0  0  0  0  0  0
   61.2236   29.1323   45.1514 H   0  0  0  0  0  0  0  0  0  0  0  0
   60.1876   29.6478   43.6379 H   0  0  0  0  0  0  0  0  0  0  0  0
   56.6713   30.2190   42.0099 H   0  0  0  0  0  0  0  0  0  0  0  0
   55.8711   29.7168   43.5490 H   0  0  0  0  0  0  0  0  0  0  0  0
   58.0308   32.3002   46.9613 H   0  0  0  0  0  0  0  0  0  0  0  0
   58.8625   34.2760   45.6897 H   0  0  0  0  0  0  0  0  0  0  0  0
   58.7993   34.2751   43.1994 H   0  0  0  0  0  0  0  0  0  0  0  0
   56.1947   27.1666   44.9616 H   0  0  0  0  0  0  0  0  0  0  0  0
   57.7249   26.4774   48.2467 H   0  0  0  0  0  0  0  0  0  0  0  0
   54.8978   21.7026   46.2005 H   0  0  0  0  0  0  0  0  0  0  0  0
   52.3869   23.2350   47.0280 H   0  0  0  0  0  0  0  0  0  0  0  0
   51.4840   23.7323   45.5568 H   0  0  0  0  0  0  0  0  0  0  0  0
   52.4297   22.2051   45.5568 H   0  0  0  0  0  0  0  0  0  0  0  0
   59.9454   27.2086   48.1452 H   0  0  0  0  0  0  0  0  0  0  0  0
   61.2058   27.7314   46.9668 H   0  0  0  0  0  0  0  0  0  0  0  0
   58.2348   28.9582   48.9385 H   0  0  0  0  0  0  0  0  0  0  0  0
   58.0678   31.2982   49.7784 H   0  0  0  0  0  0  0  0  0  0  0  0
   61.6825   32.3253   47.6186 H   0  0  0  0  0  0  0  0  0  0  0  0
   61.8437   29.9876   46.7810 H   0  0  0  0  0  0  0  0  0  0  0  0
  1  2  2  0
  2  3  1  0
  3  4  1  0
  4  5  1  0
  5  6  1  0
  6  7  2  0
  7  8  1  0
  7  9  1  0
  9 10  2  0
 10 11  1  0
 11 12  2  0
 12 13  1  0
  3 14  2  0
 14 15  1  0
 15 16  2  3
 16 17  1  0
 17 18  1  0
 18 19  1  0
 19 20  2  0
 19 21  1  0
 21 22  2  0
 22 23  1  0
 23 24  1  0
 22 25  1  0
 25 26  1  0
 15 27  1  0
 27 28  1  0
 28 29  1  0
 29 30  2  0
 30 31  1  0
 31 32  2  0
 32 33  1  0
 33 34  2  0
 33 35  1  0
 32 36  1  0
 36 37  2  0
 27  2  1  0
 37 29  1  0
 12  6  1  0
 25 17  2  0
  1 38  1  0
  1 39  1  0
  5 40  1  0
  5 41  1  0
  9 42  1  0
 10 43  1  0
 11 44  1  0
 14 45  1  0
 16 46  1  0
 21 47  1  0
 24 48  1  0
 24 49  1  0
 24 50  1  0
 28 51  1  0
 28 52  1  0
 30 53  1  0
 31 54  1  0
 36 55  1  0
 37 56  1  0
M  CHG  2  26  -1  35  -1
M  END
>  <UniqueID>  (73) 
70

>  <SMILES>  (73) 
C=c1c(OCc2c(F)cccc2Cl)cc(=Cc2oc(=O)cc(OC)c2[O-])n1Cc1ccc(C(=O)[O-])cc1

>  <Energy>  (73) 
104.76986947751782

>  <Genealogy>  (73) 
C=c1c(OCc2c(F)cccc2Cl)cc(=Cc2oc(=O)cc(OC)c2[O-])n1Cc1ccc(C(=O)[O-])cc1 (protonated)
C=c1c(OCc2c(F)cccc2Cl)cc(=Cc2oc(=O)cc(OC)c2[O-])n1Cc1ccc(C(=O)[O-])cc1 (3D coordinates assigned)
C=c1c(OCc2c(F)cccc2Cl)cc(=Cc2oc(=O)cc(OC)c2[O-])n1Cc1ccc(C(=O)[O-])cc1 (optimized conformer: 104.76986947751782 kcal/mol)

>  <smiles>  (73) 
C=c1c(OCc2c(F)cccc2Cl)cc(=Cc2oc(=O)cc(OC)c2O)n1Cc1ccc(C(=O)O)cc1

>  <score_type>  (73) 
oracle

>  <origin>  (73) 
adg

>  <m_score__min__energy>  (73) 
-12.390000000000001

>  <m_primary>  (73) 
energy

$$$$
73:0
     RDKit          3D

 30 31  0  0  0  0  0  0  0  0999 V2000
   59.6550   34.8350   46.0830 C   0  0  0  0  0  0  0  0  0  0  0  0
   60.8290   34.2030   46.5800 O   0  0  0  0  0  0  0  0  0  0  0  0
   60.9300   32.8200   46.7500 C   0  0  0  0  0  0  0  0  0  0  0  0
   59.8260   32.0120   46.4740 C   0  0  0  0  0  0  0  0  0  0  0  0
   59.9400   30.6230   46.6500 C   0  0  0  0  0  0  0  0  0  0  0  0
   58.8060   29.7040   46.3710 C   0  0  0  0  0  0  0  0  0  0  0  0
   58.8140   28.4040   46.9030 C   0  0  0  0  0  0  0  0  0  0  0  0
   57.7570   27.5150   46.6610 C   0  0  0  0  0  0  0  0  0  0  0  0
   57.8310   26.1560   47.2420 C   0  0  0  0  0  0  0  0  0  0  0  0
   56.8010   25.4490   47.4070 O   0  0  0  0  0  0  0  0  0  0  0  0
   56.6650   27.9410   45.8770 C   0  0  0  0  0  0  0  0  0  0  0  0
   55.5990   27.0850   45.6150 O   0  0  0  0  0  0  0  0  0  0  0  0
   56.6330   29.2390   45.3500 C   0  0  0  0  0  0  0  0  0  0  0  0
   55.5200   29.6200   44.5820 O   0  0  0  0  0  0  0  0  0  0  0  0
   55.5250   29.7560   43.1650 C   0  0  0  0  0  0  0  0  0  0  0  0
   57.7040   30.1170   45.6020 C   0  0  0  0  0  0  0  0  0  0  0  0
   61.1280   30.1080   47.0700 N   0  0  0  0  0  0  0  0  0  0  0  0
   62.1940   30.9070   47.3340 C   0  0  0  0  0  0  0  0  0  0  0  0
   62.0910   32.2520   47.1760 N   0  0  0  0  0  0  0  0  0  0  0  0
   59.0335   35.1696   46.9267 H   0  0  0  0  0  0  0  0  0  0  0  0
   59.9377   35.7028   45.4690 H   0  0  0  0  0  0  0  0  0  0  0  0
   59.0862   34.1212   45.4690 H   0  0  0  0  0  0  0  0  0  0  0  0
   58.8821   32.4556   46.1244 H   0  0  0  0  0  0  0  0  0  0  0  0
   59.6641   28.0777   47.5201 H   0  0  0  0  0  0  0  0  0  0  0  0
   58.8107   25.7524   47.5376 H   0  0  0  0  0  0  0  0  0  0  0  0
   55.5642   30.8227   42.8992 H   0  0  0  0  0  0  0  0  0  0  0  0
   56.4049   29.2422   42.7504 H   0  0  0  0  0  0  0  0  0  0  0  0
   54.6098   29.3082   42.7504 H   0  0  0  0  0  0  0  0  0  0  0  0
   57.6784   31.1377   45.1926 H   0  0  0  0  0  0  0  0  0  0  0  0
   63.1413   30.4646   47.6760 H   0  0  0  0  0  0  0  0  0  0  0  0
  1  2  1  0
  2  3  1  0
  3  4  2  0
  4  5  1  0
  5  6  1  0
  6  7  2  0
  7  8  1  0
  8  9  1  0
  9 10  2  0
  8 11  2  0
 11 12  1  0
 11 13  1  0
 13 14  1  0
 14 15  1  0
 13 16  2  0
  5 17  2  0
 17 18  1  0
 18 19  2  0
 19  3  1  0
 16  6  1  0
  1 20  1  0
  1 21  1  0
  1 22  1  0
  4 23  1  0
  7 24  1  0
  9 25  1  0
 15 26  1  0
 15 27  1  0
 15 28  1  0
 16 29  1  0
 18 30  1  0
M  CHG  1  12  -1
M  END
>  <UniqueID>  (74) 
71

>  <SMILES>  (74) 
COc1cc(-c2cc(C=O)c([O-])c(OC)c2)ncn1

>  <Energy>  (74) 
34.75579345151474

>  <Genealogy>  (74) 
COc1cc(-c2cc(C=O)c([O-])c(OC)c2)ncn1 (protonated)
COc1cc(-c2cc(C=O)c([O-])c(OC)c2)ncn1 (3D coordinates assigned)
COc1cc(-c2cc(C=O)c([O-])c(OC)c2)ncn1 (optimized conformer: 34.75579345151474 kcal/mol)

>  <smiles>  (74) 
COc1cc(-c2cc(C=O)c(O)c(OC)c2)ncn1

>  <score_type>  (74) 
oracle

>  <origin>  (74) 
adg

>  <m_score__min__energy>  (74) 
-10.529999999999999

>  <m_primary>  (74) 
energy

$$$$
74:0
     RDKit          3D

 43 45  0  0  0  0  0  0  0  0999 V2000
   62.5040   31.7920   47.7380 C   0  0  0  0  0  0  0  0  0  0  0  0
   62.4790   33.5550   47.4770 S   0  0  0  0  0  0  0  0  0  0  0  0
   63.7630   34.1400   47.9890 O   0  0  0  0  0  0  0  0  0  0  0  0
   62.3580   33.8420   46.0050 O   0  0  0  0  0  0  0  0  0  0  0  0
   61.1480   34.2750   48.3380 N   0  0  0  0  0  0  0  0  0  0  0  0
   60.2180   34.8990   47.3950 C   0  0  0  0  0  0  0  0  0  0  0  0
   59.2940   33.8580   46.8220 C   0  0  0  0  0  0  0  0  0  0  0  0
   58.6090   34.1060   45.6210 C   0  0  0  0  0  0  0  0  0  0  0  0
   57.7830   33.1290   45.0620 C   0  0  0  0  0  0  0  0  0  0  0  0
   57.6440   31.8780   45.6850 C   0  0  0  0  0  0  0  0  0  0  0  0
   56.8280   30.8650   45.1550 O   0  0  0  0  0  0  0  0  0  0  0  0
   57.2510   29.5670   44.8350 C   0  0  0  0  0  0  0  0  0  0  0  0
   57.6570   28.7250   45.8780 C   0  0  0  0  0  0  0  0  0  0  0  0
   58.1170   27.4220   45.6160 C   0  0  0  0  0  0  0  0  0  0  0  0
   58.5580   26.5430   46.7260 C   0  0  0  0  0  0  0  0  0  0  0  0
   59.6860   26.7270   47.2630 O   0  0  0  0  0  0  0  0  0  0  0  0
   57.6930   25.4940   47.1890 N   0  0  0  0  0  0  0  0  0  0  0  0
   56.6870   24.9820   46.5400 C   0  0  0  0  0  0  0  0  0  0  0  0
   55.5010   25.6070   46.3500 N   0  0  0  0  0  0  0  0  0  0  0  0
   54.6430   24.8400   45.6280 C   0  0  0  0  0  0  0  0  0  0  0  0
   55.1420   23.5980   45.2490 C   0  0  0  0  0  0  0  0  0  0  0  0
   56.7130   23.4560   45.8450 S   0  0  0  0  0  0  0  0  0  0  0  0
   58.1450   26.9650   44.2860 C   0  0  0  0  0  0  0  0  0  0  0  0
   57.7550   27.8050   43.2400 C   0  0  0  0  0  0  0  0  0  0  0  0
   57.3300   29.1120   43.5010 C   0  0  0  0  0  0  0  0  0  0  0  0
   57.0200   29.9680   42.4450 O   0  0  0  0  0  0  0  0  0  0  0  0
   58.3110   31.6390   46.8920 C   0  0  0  0  0  0  0  0  0  0  0  0
   59.1380   32.6120   47.4530 C   0  0  0  0  0  0  0  0  0  0  0  0
   62.5070   31.5812   48.8176 H   0  0  0  0  0  0  0  0  0  0  0  0
   61.6122   31.3407   47.2787 H   0  0  0  0  0  0  0  0  0  0  0  0
   63.4083   31.3661   47.2787 H   0  0  0  0  0  0  0  0  0  0  0  0
   59.6257   35.6637   47.9189 H   0  0  0  0  0  0  0  0  0  0  0  0
   60.7888   35.3655   46.5785 H   0  0  0  0  0  0  0  0  0  0  0  0
   58.7242   35.0771   45.1172 H   0  0  0  0  0  0  0  0  0  0  0  0
   57.2388   33.3400   44.1296 H   0  0  0  0  0  0  0  0  0  0  0  0
   57.6155   29.0876   46.9157 H   0  0  0  0  0  0  0  0  0  0  0  0
   53.6296   25.1759   45.3630 H   0  0  0  0  0  0  0  0  0  0  0  0
   54.6043   22.8391   44.6616 H   0  0  0  0  0  0  0  0  0  0  0  0
   58.4763   25.9390   44.0679 H   0  0  0  0  0  0  0  0  0  0  0  0
   57.7823   27.4361   42.2041 H   0  0  0  0  0  0  0  0  0  0  0  0
   57.7390   30.4910   41.9550 H   0  0  0  0  0  0  0  0  0  0  0  0
   58.1817   30.6738   47.4035 H   0  0  0  0  0  0  0  0  0  0  0  0
   59.6701   32.4033   48.3928 H   0  0  0  0  0  0  0  0  0  0  0  0
  1  2  1  0
  2  3  2  0
  2  4  2  0
  2  5  1  0
  5  6  1  0
  6  7  1  0
  7  8  2  0
  8  9  1  0
  9 10  2  0
 10 11  1  0
 11 12  1  0
 12 13  2  0
 13 14  1  0
 14 15  1  0
 15 16  2  0
 15 17  1  0
 17 18  2  3
 18 19  1  0
 19 20  1  0
 20 21  2  0
 21 22  1  0
 14 23  2  0
 23 24  1  0
 24 25  2  0
 25 26  1  0
 10 27  1  0
 27 28  2  0
 28  7  1  0
 25 12  1  0
 22 18  1  0
  1 29  1  0
  1 30  1  0
  1 31  1  0
  6 32  1  0
  6 33  1  0
  8 34  1  0
  9 35  1  0
 13 36  1  0
 20 37  1  0
 21 38  1  0
 23 39  1  0
 24 40  1  0
 26 41  1  0
 27 42  1  0
 28 43  1  0
M  CHG  2   5  -1  19  -1
M  END
>  <UniqueID>  (75) 
72

>  <SMILES>  (75) 
CS(=O)(=O)[N-]Cc1ccc(Oc2cc(C(=O)N=c3[n-]ccs3)ccc2O)cc1

>  <Energy>  (75) 
79.77348690406615

>  <Genealogy>  (75) 
CS(=O)(=O)[N-]Cc1ccc(Oc2cc(C(=O)N=c3[n-]ccs3)ccc2O)cc1 (protonated)
CS(=O)(=O)[N-]Cc1ccc(Oc2cc(C(=O)N=c3[n-]ccs3)ccc2O)cc1 (3D coordinates assigned)
CS(=O)(=O)[N-]Cc1ccc(Oc2cc(C(=O)N=c3[n-]ccs3)ccc2O)cc1 (optimized conformer: 79.77348690406615 kcal/mol)

>  <smiles>  (75) 
CS(=O)(=O)NCc1ccc(Oc2cc(C(=O)N=c3[nH]ccs3)ccc2O)cc1

>  <score_type>  (75) 
oracle

>  <origin>  (75) 
adg

>  <m_score__min__energy>  (75) 
-11.140000000000001

>  <m_primary>  (75) 
energy

$$$$
75:0
     RDKit          3D

 50 53  0  0  0  0  0  0  0  0999 V2000
   58.3738   33.0331   50.0025 H   0  0  0  0  0  0  0  0  0  0  0  0
   59.0620   33.0670   49.1450 C   0  0  0  0  0  0  0  0  0  0  0  0
   58.7680   32.1700   48.0070 C   0  0  0  0  0  0  0  0  0  0  0  0
   59.2180   30.9920   47.9860 O   0  0  0  0  0  0  0  0  0  0  0  0
   57.9810   32.6640   46.9110 N   0  0  0  0  0  0  0  0  0  0  0  0
   57.4200   33.5320   47.0710 H   0  0  0  0  0  0  0  0  0  0  0  0
   57.8100   31.9680   45.6650 C   0  0  0  0  0  0  0  0  0  0  0  0
   57.6200   32.6640   44.4600 C   0  0  0  0  0  0  0  0  0  0  0  0
   57.6287   33.7640   44.4550 H   0  0  0  0  0  0  0  0  0  0  0  0
   57.4200   31.9640   43.2680 C   0  0  0  0  0  0  0  0  0  0  0  0
   57.2785   32.5147   42.3264 H   0  0  0  0  0  0  0  0  0  0  0  0
   57.3990   30.5690   43.2670 C   0  0  0  0  0  0  0  0  0  0  0  0
   57.2418   30.0266   42.3230 H   0  0  0  0  0  0  0  0  0  0  0  0
   57.5770   29.8510   44.4620 C   0  0  0  0  0  0  0  0  0  0  0  0
   57.5360   28.3650   44.4430 C   0  0  0  0  0  0  0  0  0  0  0  0
   57.7860   27.7020   43.2820 N   0  0  0  0  0  0  0  0  0  0  0  0
   57.7660   26.3700   43.2090 N   0  0  0  0  0  0  0  0  0  0  0  0
   57.4990   25.5970   44.2950 C   0  0  0  0  0  0  0  0  0  0  0  0
   57.4890   24.1610   44.1650 N   0  0  0  0  0  0  0  0  0  0  0  0
   56.5770   23.4150   43.3120 C   0  0  0  0  0  0  0  0  0  0  0  0
   55.5457   23.5015   43.6847 H   0  0  0  0  0  0  0  0  0  0  0  0
   56.5803   23.7979   42.2808 H   0  0  0  0  0  0  0  0  0  0  0  0
   57.0450   21.9680   43.3760 C   0  0  0  0  0  0  0  0  0  0  0  0
   56.1845   21.2927   43.4923 H   0  0  0  0  0  0  0  0  0  0  0  0
   57.5689   21.6726   42.4550 H   0  0  0  0  0  0  0  0  0  0  0  0
   57.9600   21.8760   44.5940 C   0  0  0  0  0  0  0  0  0  0  0  0
   57.4110   21.4681   45.4555 H   0  0  0  0  0  0  0  0  0  0  0  0
   58.8145   21.2086   44.4087 H   0  0  0  0  0  0  0  0  0  0  0  0
   58.4140   23.3010   44.8810 C   0  0  0  0  0  0  0  0  0  0  0  0
   58.3712   23.5068   45.9607 H   0  0  0  0  0  0  0  0  0  0  0  0
   59.4531   23.4677   44.5610 H   0  0  0  0  0  0  0  0  0  0  0  0
   57.2450   26.2240   45.5220 C   0  0  0  0  0  0  0  0  0  0  0  0
   57.0301   25.6233   46.4181 H   0  0  0  0  0  0  0  0  0  0  0  0
   57.2670   27.6150   45.5970 C   0  0  0  0  0  0  0  0  0  0  0  0
   57.0748   28.1213   46.5545 H   0  0  0  0  0  0  0  0  0  0  0  0
   57.7650   30.5650   45.6610 C   0  0  0  0  0  0  0  0  0  0  0  0
   57.8781   30.0159   46.6074 H   0  0  0  0  0  0  0  0  0  0  0  0
   60.0960   33.9190   49.2220 C   0  0  0  0  0  0  0  0  0  0  0  0
   59.9924   34.7782   49.9009 H   0  0  0  0  0  0  0  0  0  0  0  0
   61.3620   33.7980   48.4700 C   0  0  0  0  0  0  0  0  0  0  0  0
   62.5260   33.3980   49.1440 C   0  0  0  0  0  0  0  0  0  0  0  0
   62.4955   33.2150   50.2282 H   0  0  0  0  0  0  0  0  0  0  0  0
   63.7250   33.2310   48.4430 C   0  0  0  0  0  0  0  0  0  0  0  0
   64.6383   32.9347   48.9797 H   0  0  0  0  0  0  0  0  0  0  0  0
   63.7640   33.4400   47.0620 C   0  0  0  0  0  0  0  0  0  0  0  0
   64.7090   33.3140   46.5132 H   0  0  0  0  0  0  0  0  0  0  0  0
   62.6030   33.8090   46.3780 C   0  0  0  0  0  0  0  0  0  0  0  0
   62.6338   33.9676   45.2899 H   0  0  0  0  0  0  0  0  0  0  0  0
   61.4020   33.9770   47.0740 C   0  0  0  0  0  0  0  0  0  0  0  0
   60.4860   34.2497   46.5295 H   0  0  0  0  0  0  0  0  0  0  0  0
  1  2  1  0
  2  3  1  0
  3  4  2  0
  3  5  1  0
  5  6  1  0
  5  7  1  0
  7  8  2  0
  8  9  1  0
  8 10  1  0
 10 11  1  0
 10 12  2  0
 12 13  1  0
 12 14  1  0
 14 15  1  0
 15 16  2  0
 16 17  1  0
 17 18  2  0
 18 19  1  0
 19 20  1  0
 20 21  1  0
 20 22  1  0
 20 23  1  0
 23 24  1  0
 23 25  1  0
 23 26  1  0
 26 27  1  0
 26 28  1  0
 26 29  1  0
 29 30  1  0
 29 31  1  0
 18 32  1  0
 32 33  1  0
 32 34  2  0
 34 35  1  0
 14 36  2  0
 36 37  1  0
  2 38  2  0
 38 39  1  0
 38 40  1  0
 40 41  2  0
 41 42  1  0
 41 43  1  0
 43 44  1  0
 43 45  2  0
 45 46  1  0
 45 47  1  0
 47 48  1  0
 47 49  2  0
 49 50  1  0
 36  7  1  0
 49 40  1  0
 34 15  1  0
 29 19  1  0
M  END
>  <UniqueID>  (76) 
73

>  <SMILES>  (76) 
O=C(/C=C\c1ccccc1)Nc1cccc(-c2ccc(N3CCCC3)nn2)c1

>  <Energy>  (76) 
69.47427677877704

>  <Genealogy>  (76) 
O=C(/C=C\c1ccccc1)Nc1cccc(-c2ccc(N3CCCC3)nn2)c1 (cis-trans isomerization)
O=C(/C=C\c1ccccc1)Nc1cccc(-c2ccc(N3CCCC3)nn2)c1 (3D coordinates assigned)
O=C(/C=C\c1ccccc1)Nc1cccc(-c2ccc(N3CCCC3)nn2)c1 (nonaromatic ring conformer: 69.47427677877704 kcal/mol)

>  <smiles>  (76) 
O=C(C=Cc1ccccc1)Nc1cccc(-c2ccc(N3CCCC3)nn2)c1

>  <score_type>  (76) 
oracle

>  <origin>  (76) 
adg

>  <m_score__min__energy>  (76) 
-10.01

>  <m_primary>  (76) 
energy

$$$$
76:0
     RDKit          3D

 57 59  0  0  0  0  0  0  0  0999 V2000
   62.8920   33.6260   46.7190 C   0  0  0  0  0  0  0  0  0  0  0  0
   62.8990   32.8840   47.9880 N   0  0  0  0  0  0  0  0  0  0  0  0
   64.1580   33.0910   48.7220 C   0  0  0  0  0  0  0  0  0  0  0  0
   62.5340   31.4560   47.8370 C   0  0  0  0  0  0  0  0  0  0  0  0
   61.3220   31.1810   46.9200 C   0  0  0  0  0  0  0  0  0  0  0  0
   59.7300   31.3550   47.8110 S   0  0  0  0  0  0  0  0  0  0  0  0
   58.9280   32.3830   46.5640 C   0  0  0  0  0  0  0  0  0  0  0  0
   59.1350   33.7690   46.6040 C   0  0  0  0  0  0  0  0  0  0  0  0
   58.5930   34.5930   45.6160 C   0  0  0  0  0  0  0  0  0  0  0  0
   57.8520   34.0380   44.5710 C   0  0  0  0  0  0  0  0  0  0  0  0
   57.6490   32.6570   44.5120 C   0  0  0  0  0  0  0  0  0  0  0  0
   58.1780   31.8170   45.5070 C   0  0  0  0  0  0  0  0  0  0  0  0
   57.9420   30.3620   45.4280 C   0  0  0  0  0  0  0  0  0  0  0  0
   56.7590   29.9270   45.4140 O   0  0  0  0  0  0  0  0  0  0  0  0
   59.0450   29.4440   45.3530 N   0  0  0  0  0  0  0  0  0  0  0  0
   58.9190   28.0600   45.7150 C   0  0  0  0  0  0  0  0  0  0  0  0
   60.0580   27.3250   46.0690 C   0  0  0  0  0  0  0  0  0  0  0  0
   59.9490   25.9670   46.3880 C   0  0  0  0  0  0  0  0  0  0  0  0
   58.7020   25.3370   46.3630 C   0  0  0  0  0  0  0  0  0  0  0  0
   57.5510   26.0710   46.0470 C   0  0  0  0  0  0  0  0  0  0  0  0
   55.9710   25.2870   46.0050 S   0  0  0  0  0  0  0  0  0  0  0  0
   55.8070   24.4750   47.2580 O   0  0  0  0  0  0  0  0  0  0  0  0
   54.8960   26.3380   45.9830 O   0  0  0  0  0  0  0  0  0  0  0  0
   55.8290   24.2300   44.6140 N   0  0  0  0  0  0  0  0  0  0  0  0
   55.3160   22.8950   44.9740 C   0  0  0  0  0  0  0  0  0  0  0  0
   56.3780   22.0290   45.6940 C   0  0  0  0  0  0  0  0  0  0  0  0
   57.7010   22.5060   45.5300 O   0  0  0  0  0  0  0  0  0  0  0  0
   57.9160   22.8900   44.1910 C   0  0  0  0  0  0  0  0  0  0  0  0
   57.0970   24.1510   43.8560 C   0  0  0  0  0  0  0  0  0  0  0  0
   57.6620   27.4330   45.7420 C   0  0  0  0  0  0  0  0  0  0  0  0
   62.8818   34.7063   46.9260 H   0  0  0  0  0  0  0  0  0  0  0  0
   63.7926   33.3719   46.1407 H   0  0  0  0  0  0  0  0  0  0  0  0
   61.9964   33.3550   46.1407 H   0  0  0  0  0  0  0  0  0  0  0  0
   63.9613   33.0587   49.8038 H   0  0  0  0  0  0  0  0  0  0  0  0
   64.8725   32.2983   48.4554 H   0  0  0  0  0  0  0  0  0  0  0  0
   64.5811   34.0708   48.4554 H   0  0  0  0  0  0  0  0  0  0  0  0
   63.4029   30.9247   47.4213 H   0  0  0  0  0  0  0  0  0  0  0  0
   62.2442   31.1071   48.8392 H   0  0  0  0  0  0  0  0  0  0  0  0
   61.3405   31.8955   46.0839 H   0  0  0  0  0  0  0  0  0  0  0  0
   61.3975   30.1441   46.5606 H   0  0  0  0  0  0  0  0  0  0  0  0
   59.7281   34.2099   47.4188 H   0  0  0  0  0  0  0  0  0  0  0  0
   58.7499   35.6808   45.6609 H   0  0  0  0  0  0  0  0  0  0  0  0
   57.4273   34.6891   43.7928 H   0  0  0  0  0  0  0  0  0  0  0  0
   57.0716   32.2244   43.6817 H   0  0  0  0  0  0  0  0  0  0  0  0
   59.9670   29.7850   45.0010 H   0  0  0  0  0  0  0  0  0  0  0  0
   61.0414   27.8172   46.0963 H   0  0  0  0  0  0  0  0  0  0  0  0
   60.8477   25.3936   46.6593 H   0  0  0  0  0  0  0  0  0  0  0  0
   58.6238   24.2639   46.5916 H   0  0  0  0  0  0  0  0  0  0  0  0
   54.4493   23.0175   45.6402 H   0  0  0  0  0  0  0  0  0  0  0  0
   55.0388   22.3799   44.0424 H   0  0  0  0  0  0  0  0  0  0  0  0
   56.1442   22.0134   46.7687 H   0  0  0  0  0  0  0  0  0  0  0  0
   56.3373   21.0262   45.2437 H   0  0  0  0  0  0  0  0  0  0  0  0
   58.9850   23.1019   44.0419 H   0  0  0  0  0  0  0  0  0  0  0  0
   57.5971   22.0712   43.5293 H   0  0  0  0  0  0  0  0  0  0  0  0
   57.7038   25.0373   44.0931 H   0  0  0  0  0  0  0  0  0  0  0  0
   56.8412   24.1051   42.7871 H   0  0  0  0  0  0  0  0  0  0  0  0
   56.7566   28.0176   45.5215 H   0  0  0  0  0  0  0  0  0  0  0  0
  1  2  1  0
  2  3  1  0
  2  4  1  0
  4  5  1  0
  5  6  1  0
  6  7  1  0
  7  8  2  0
  8  9  1  0
  9 10  2  0
 10 11  1  0
 11 12  2  0
 12 13  1  0
 13 14  2  0
 13 15  1  0
 15 16  1  0
 16 17  2  0
 17 18  1  0
 18 19  2  0
 19 20  1  0
 20 21  1  0
 21 22  2  0
 21 23  2  0
 21 24  1  0
 24 25  1  0
 25 26  1  0
 26 27  1  0
 27 28  1  0
 28 29  1  0
 20 30  2  0
 12  7  1  0
 30 16  1  0
 29 24  1  0
  1 31  1  0
  1 32  1  0
  1 33  1  0
  3 34  1  0
  3 35  1  0
  3 36  1  0
  4 37  1  0
  4 38  1  0
  5 39  1  0
  5 40  1  0
  8 41  1  0
  9 42  1  0
 10 43  1  0
 11 44  1  0
 15 45  1  0
 17 46  1  0
 18 47  1  0
 19 48  1  0
 25 49  1  0
 25 50  1  0
 26 51  1  0
 26 52  1  0
 28 53  1  0
 28 54  1  0
 29 55  1  0
 29 56  1  0
 30 57  1  0
M  END
>  <UniqueID>  (77) 
74

>  <SMILES>  (77) 
CN(C)CCSc1ccccc1C(=O)Nc1cccc(S(=O)(=O)N2CCOCC2)c1

>  <Energy>  (77) 
77.15991713700662

>  <Genealogy>  (77) 
CN(C)CCSc1ccccc1C(=O)Nc1cccc(S(=O)(=O)N2CCOCC2)c1 (3D coordinates assigned)
CN(C)CCSc1ccccc1C(=O)Nc1cccc(S(=O)(=O)N2CCOCC2)c1 (nonaromatic ring conformer: 77.15991713700662 kcal/mol)

>  <smiles>  (77) 
CN(C)CCSc1ccccc1C(=O)Nc1cccc(S(=O)(=O)N2CCOCC2)c1

>  <score_type>  (77) 
oracle

>  <origin>  (77) 
adg

>  <m_score__min__energy>  (77) 
-9.6600000000000001

>  <m_primary>  (77) 
energy

$$$$
77:0
     RDKit          3D

 48 51  0  0  0  0  0  0  0  0999 V2000
   52.9494   27.9222   53.5006 H   0  0  0  0  0  0  0  0  0  0  0  0
   54.0290   28.1260   53.4470 C   0  0  0  0  0  0  0  0  0  0  0  0
   54.7416   27.4498   53.9419 H   0  0  0  0  0  0  0  0  0  0  0  0
   54.4740   29.1930   52.7820 C   0  0  0  0  0  0  0  0  0  0  0  0
   55.7510   29.4840   52.6860 O   0  0  0  0  0  0  0  0  0  0  0  0
   55.8880   30.5860   51.9820 C   0  0  0  0  0  0  0  0  0  0  0  0
   57.1820   31.2400   51.6690 C   0  0  0  0  0  0  0  0  0  0  0  0
   57.1530   32.4120   51.2000 O   0  0  0  0  0  0  0  0  0  0  0  0
   58.4690   30.5770   51.8190 N   0  0  0  0  0  0  0  0  0  0  0  0
   58.3670   29.9440   52.6490 H   0  0  0  0  0  0  0  0  0  0  0  0
   59.5250   31.5400   52.2000 C   0  0  0  0  0  0  0  0  0  0  0  0
   59.1266   32.2134   52.9732 H   0  0  0  0  0  0  0  0  0  0  0  0
   60.3857   30.9643   52.5713 H   0  0  0  0  0  0  0  0  0  0  0  0
   60.0040   32.3830   51.0120 C   0  0  0  0  0  0  0  0  0  0  0  0
   59.2385   33.1368   50.7759 H   0  0  0  0  0  0  0  0  0  0  0  0
   60.9531   32.8651   51.2891 H   0  0  0  0  0  0  0  0  0  0  0  0
   60.2370   31.5500   49.8250 N   0  0  0  0  0  0  0  0  0  0  0  0
   60.7800   32.1390   48.6240 C   0  0  0  0  0  0  0  0  0  0  0  0
   61.4100   31.4140   47.8050 O   0  0  0  0  0  0  0  0  0  0  0  0
   60.6470   33.6260   48.3590 C   0  0  0  0  0  0  0  0  0  0  0  0
   61.1902   34.0029   49.2381 H   0  0  0  0  0  0  0  0  0  0  0  0
   61.0500   34.0140   46.9390 C   0  0  0  0  0  0  0  0  0  0  0  0
   61.8174   34.8005   46.8892 H   0  0  0  0  0  0  0  0  0  0  0  0
   61.5165   33.2746   46.2714 H   0  0  0  0  0  0  0  0  0  0  0  0
   59.6340   34.5090   46.6710 C   0  0  0  0  0  0  0  0  0  0  0  0
   59.5682   35.5869   46.4616 H   0  0  0  0  0  0  0  0  0  0  0  0
   59.0676   34.1286   45.8082 H   0  0  0  0  0  0  0  0  0  0  0  0
   59.2250   34.1260   48.0870 C   0  0  0  0  0  0  0  0  0  0  0  0
   58.9205   34.9778   48.7129 H   0  0  0  0  0  0  0  0  0  0  0  0
   58.3601   33.4686   48.2592 H   0  0  0  0  0  0  0  0  0  0  0  0
   60.1180   30.0910   49.9370 C   0  0  0  0  0  0  0  0  0  0  0  0
   60.1063   29.6536   48.9278 H   0  0  0  0  0  0  0  0  0  0  0  0
   60.9763   29.7152   50.5133 H   0  0  0  0  0  0  0  0  0  0  0  0
   58.8240   29.6910   50.6730 C   0  0  0  0  0  0  0  0  0  0  0  0
   57.9954   29.7148   49.9500 H   0  0  0  0  0  0  0  0  0  0  0  0
   58.9979   28.6891   51.0924 H   0  0  0  0  0  0  0  0  0  0  0  0
   54.6440   31.0510   51.5930 C   0  0  0  0  0  0  0  0  0  0  0  0
   54.4299   31.9529   51.0008 H   0  0  0  0  0  0  0  0  0  0  0  0
   53.7220   30.1480   52.1020 C   0  0  0  0  0  0  0  0  0  0  0  0
   52.3810   30.2200   52.0080 C   0  0  0  0  0  0  0  0  0  0  0  0
   51.8446   29.3526   51.5959 H   0  0  0  0  0  0  0  0  0  0  0  0
   51.5880   31.3910   52.4240 C   0  0  0  0  0  0  0  0  0  0  0  0
   51.2510   31.6350   53.7030 N   0  0  0  0  0  0  0  0  0  0  0  0
   50.4800   32.7410   53.6190 C   0  0  0  0  0  0  0  0  0  0  0  0
   49.9770   33.2950   54.6300 O   0  0  0  0  0  0  0  0  0  0  0  0
   50.2850   33.2020   52.3650 N   0  0  0  0  0  0  0  0  0  0  0  0
   50.9800   32.3290   51.6180 C   0  0  0  0  0  0  0  0  0  0  0  0
   51.0180   32.3650   50.2290 O   0  0  0  0  0  0  0  0  0  0  0  0
  1  2  1  0
  2  3  1  0
  2  4  2  0
  4  5  1  0
  5  6  1  0
  6  7  1  0
  7  8  2  0
  7  9  1  0
  9 10  1  0
  9 11  1  0
 11 12  1  0
 11 13  1  0
 11 14  1  0
 14 15  1  0
 14 16  1  0
 14 17  1  0
 17 18  1  0
 18 19  2  0
 18 20  1  0
 20 21  1  0
 20 22  1  0
 22 23  1  0
 22 24  1  0
 22 25  1  0
 25 26  1  0
 25 27  1  0
 25 28  1  0
 28 29  1  0
 28 30  1  0
 17 31  1  0
 31 32  1  0
 31 33  1  0
 31 34  1  0
 34 35  1  0
 34 36  1  0
  6 37  2  0
 37 38  1  0
 37 39  1  0
 39 40  2  0
 40 41  1  0
 40 42  1  0
 42 43  1  0
 43 44  1  0
 44 45  2  0
 44 46  1  0
 46 47  1  0
 47 48  1  0
 39  4  1  0
 47 42  2  0
 34  9  1  0
 28 20  1  0
M  CHG  4   9   1  43  -1  46  -1  48  -1
M  END
>  <UniqueID>  (78) 
75

>  <SMILES>  (78) 
C=c1oc(C(=O)[NH+]2CCN(C(=O)C3CCC3)CC2)c/c1=C\c1[n-]c(=O)[n-]c1[O-]

>  <Energy>  (78) 
183.8770042491922

>  <Genealogy>  (78) 
C=c1oc(C(=O)[NH+]2CCN(C(=O)C3CCC3)CC2)cc1=Cc1[n-]c(=O)[n-]c1[O-] (protonated)
C=c1oc(C(=O)[NH+]2CCN(C(=O)C3CCC3)CC2)c/c1=C\c1[n-]c(=O)[n-]c1[O-] (cis-trans isomerization)
C=c1oc(C(=O)[NH+]2CCN(C(=O)C3CCC3)CC2)c/c1=C\c1[n-]c(=O)[n-]c1[O-] (3D coordinates assigned)
C=c1oc(C(=O)[NH+]2CCN(C(=O)C3CCC3)CC2)c/c1=C\c1[n-]c(=O)[n-]c1[O-] (nonaromatic ring conformer: 183.8770042491922 kcal/mol)

>  <smiles>  (78) 
C=c1oc(C(=O)N2CCN(C(=O)C3CCC3)CC2)cc1=Cc1[nH]c(=O)[nH]c1O

>  <score_type>  (78) 
oracle

>  <origin>  (78) 
adg

>  <m_score__min__energy>  (78) 
-17.109999999999999

>  <m_primary>  (78) 
energy

$$$$
78:0
     RDKit          3D

 42 44  0  0  0  0  0  0  0  0999 V2000
   59.8060   28.9960   44.6270 C   0  0  0  0  0  0  0  0  0  0  0  0
   58.4660   29.0340   44.6120 C   0  0  0  0  0  0  0  0  0  0  0  0
   57.5690   27.9710   44.7990 C   0  0  0  0  0  0  0  0  0  0  0  0
   57.7890   26.6440   44.8410 C   0  0  0  0  0  0  0  0  0  0  0  0
   57.2170   25.7090   45.8240 C   0  0  0  0  0  0  0  0  0  0  0  0
   57.8420   24.6040   46.2760 N   0  0  0  0  0  0  0  0  0  0  0  0
   56.9000   24.0000   47.0310 C   0  0  0  0  0  0  0  0  0  0  0  0
   57.1130   22.9230   47.6450 O   0  0  0  0  0  0  0  0  0  0  0  0
   55.7080   24.6340   47.0660 N   0  0  0  0  0  0  0  0  0  0  0  0
   55.9210   25.7080   46.2870 C   0  0  0  0  0  0  0  0  0  0  0  0
   54.9430   26.6600   46.0100 O   0  0  0  0  0  0  0  0  0  0  0  0
   56.3190   28.4680   44.9190 N   0  0  0  0  0  0  0  0  0  0  0  0
   56.4670   29.7970   44.7570 C   0  0  0  0  0  0  0  0  0  0  0  0
   55.4960   30.5980   44.7890 O   0  0  0  0  0  0  0  0  0  0  0  0
   57.7460   30.1800   44.5610 N   0  0  0  0  0  0  0  0  0  0  0  0
   58.2180   31.5520   44.3380 C   0  0  0  0  0  0  0  0  0  0  0  0
   58.6740   32.1640   45.6350 C   0  0  0  0  0  0  0  0  0  0  0  0
   58.0420   33.3030   46.1510 C   0  0  0  0  0  0  0  0  0  0  0  0
   58.4560   33.8530   47.3670 C   0  0  0  0  0  0  0  0  0  0  0  0
   59.5160   33.2760   48.0940 C   0  0  0  0  0  0  0  0  0  0  0  0
   59.9700   33.8380   49.3980 C   0  0  0  0  0  0  0  0  0  0  0  0
   60.9970   34.5690   49.4340 O   0  0  0  0  0  0  0  0  0  0  0  0
   59.2670   33.5430   50.6980 C   0  0  0  0  0  0  0  0  0  0  0  0
   58.8120   32.1100   50.7520 C   0  0  0  0  0  0  0  0  0  0  0  0
   59.5620   31.2070   50.2910 O   0  0  0  0  0  0  0  0  0  0  0  0
   57.5330   31.7260   51.3730 C   0  0  0  0  0  0  0  0  0  0  0  0
   56.8550   32.5650   52.0230 O   0  0  0  0  0  0  0  0  0  0  0  0
   57.0660   30.4240   51.2470 O   0  0  0  0  0  0  0  0  0  0  0  0
   60.1500   32.1360   47.5640 C   0  0  0  0  0  0  0  0  0  0  0  0
   59.7330   31.5870   46.3480 C   0  0  0  0  0  0  0  0  0  0  0  0
   60.3842   29.9174   44.4637 H   0  0  0  0  0  0  0  0  0  0  0  0
   60.3273   28.0434   44.8026 H   0  0  0  0  0  0  0  0  0  0  0  0
   58.4543   26.2210   44.0739 H   0  0  0  0  0  0  0  0  0  0  0  0
   55.1460   27.4750   45.4450 H   0  0  0  0  0  0  0  0  0  0  0  0
   59.0587   31.5359   43.6288 H   0  0  0  0  0  0  0  0  0  0  0  0
   57.3922   32.1528   43.9293 H   0  0  0  0  0  0  0  0  0  0  0  0
   57.2142   33.7675   45.5951 H   0  0  0  0  0  0  0  0  0  0  0  0
   57.9488   34.7461   47.7609 H   0  0  0  0  0  0  0  0  0  0  0  0
   59.9587   33.7324   51.5320 H   0  0  0  0  0  0  0  0  0  0  0  0
   58.3837   34.1942   50.7743 H   0  0  0  0  0  0  0  0  0  0  0  0
   60.9828   31.6722   48.1130 H   0  0  0  0  0  0  0  0  0  0  0  0
   60.2396   30.6962   45.9483 H   0  0  0  0  0  0  0  0  0  0  0  0
  1  2  2  0
  2  3  1  0
  3  4  2  3
  4  5  1  0
  5  6  1  0
  6  7  1  0
  7  8  2  0
  7  9  1  0
  9 10  1  0
 10 11  1  0
  3 12  1  0
 12 13  1  0
 13 14  2  0
 13 15  1  0
 15 16  1  0
 16 17  1  0
 17 18  2  0
 18 19  1  0
 19 20  2  0
 20 21  1  0
 21 22  2  0
 21 23  1  0
 23 24  1  0
 24 25  2  0
 24 26  1  0
 26 27  2  0
 26 28  1  0
 20 29  1  0
 29 30  2  0
 15  2  1  0
 30 17  1  0
 10  5  2  0
  1 31  1  0
  1 32  1  0
  4 33  1  0
 11 34  1  0
 16 35  1  0
 16 36  1  0
 18 37  1  0
 19 38  1  0
 23 39  1  0
 23 40  1  0
 29 41  1  0
 30 42  1  0
M  CHG  4   6  -1   9  -1  12  -1  28  -1
M  END
>  <UniqueID>  (79) 
76

>  <SMILES>  (79) 
C=c1c(=Cc2[n-]c(=O)[n-]c2O)[n-]c(=O)n1Cc1ccc(C(=O)CC(=O)C(=O)[O-])cc1

>  <Energy>  (79) 
116.08687120277015

>  <Genealogy>  (79) 
C=c1c(=Cc2[n-]c(=O)[n-]c2O)[n-]c(=O)n1Cc1ccc(C(=O)CC(=O)C(=O)[O-])cc1 (protonated)
C=c1c(=Cc2[n-]c(=O)[n-]c2O)[n-]c(=O)n1Cc1ccc(C(=O)CC(=O)C(=O)[O-])cc1 (3D coordinates assigned)
C=c1c(=Cc2[n-]c(=O)[n-]c2O)[n-]c(=O)n1Cc1ccc(C(=O)CC(=O)C(=O)[O-])cc1 (optimized conformer: 116.08687120277015 kcal/mol)

>  <smiles>  (79) 
C=c1c(=Cc2[nH]c(=O)[nH]c2O)[nH]c(=O)n1Cc1ccc(C(=O)CC(=O)C(=O)O)cc1

>  <score_type>  (79) 
oracle

>  <origin>  (79) 
adg

>  <m_score__min__energy>  (79) 
-15.859999999999999

>  <m_primary>  (79) 
energy

$$$$
79:0
     RDKit          3D

 62 65  0  0  0  0  0  0  0  0999 V2000
   53.8980   26.7020   46.3890 H   0  0  0  0  0  0  0  0  0  0  0  0
   54.0240   25.9270   45.7020 N   0  0  0  0  0  0  0  0  0  0  0  0
   55.2700   25.2430   45.5880 C   0  0  0  0  0  0  0  0  0  0  0  0
   55.3650   24.2700   44.7930 O   0  0  0  0  0  0  0  0  0  0  0  0
   56.4550   25.6880   46.3590 C   0  0  0  0  0  0  0  0  0  0  0  0
   56.8830   24.9440   47.4690 C   0  0  0  0  0  0  0  0  0  0  0  0
   56.3030   24.0690   47.7974 H   0  0  0  0  0  0  0  0  0  0  0  0
   58.0090   25.2980   48.1400 N   0  0  0  0  0  0  0  0  0  0  0  0
   58.7490   26.3700   47.7610 C   0  0  0  0  0  0  0  0  0  0  0  0
   59.8160   26.6760   48.4390 N   0  0  0  0  0  0  0  0  0  0  0  0
   60.4120   27.9790   48.5610 C   0  0  0  0  0  0  0  0  0  0  0  0
   60.5060   28.7860   47.4250 C   0  0  0  0  0  0  0  0  0  0  0  0
   60.1374   28.4105   46.4590 H   0  0  0  0  0  0  0  0  0  0  0  0
   61.0630   30.0650   47.5020 C   0  0  0  0  0  0  0  0  0  0  0  0
   61.1397   30.6775   46.5915 H   0  0  0  0  0  0  0  0  0  0  0  0
   61.5300   30.5850   48.7320 C   0  0  0  0  0  0  0  0  0  0  0  0
   62.1290   31.9160   48.8160 N   0  0  0  0  0  0  0  0  0  0  0  0
   62.1810   32.6090   50.1210 C   0  0  0  0  0  0  0  0  0  0  0  0
   61.1502   32.7939   50.4575 H   0  0  0  0  0  0  0  0  0  0  0  0
   62.7363   31.9559   50.8103 H   0  0  0  0  0  0  0  0  0  0  0  0
   62.9230   33.9480   50.0770 C   0  0  0  0  0  0  0  0  0  0  0  0
   62.6043   34.5640   50.9308 H   0  0  0  0  0  0  0  0  0  0  0  0
   64.0042   33.7512   50.1259 H   0  0  0  0  0  0  0  0  0  0  0  0
   62.6470   34.6380   48.8840 O   0  0  0  0  0  0  0  0  0  0  0  0
   63.2460   33.9400   47.8190 C   0  0  0  0  0  0  0  0  0  0  0  0
   63.1830   34.5523   46.9073 H   0  0  0  0  0  0  0  0  0  0  0  0
   64.2962   33.7404   48.0783 H   0  0  0  0  0  0  0  0  0  0  0  0
   62.5430   32.6030   47.5730 C   0  0  0  0  0  0  0  0  0  0  0  0
   61.6468   32.7881   46.9625 H   0  0  0  0  0  0  0  0  0  0  0  0
   63.2653   31.9464   47.0658 H   0  0  0  0  0  0  0  0  0  0  0  0
   61.3800   29.7750   49.8830 C   0  0  0  0  0  0  0  0  0  0  0  0
   61.7060   30.1592   50.8608 H   0  0  0  0  0  0  0  0  0  0  0  0
   60.8250   28.4960   49.7980 C   0  0  0  0  0  0  0  0  0  0  0  0
   60.7108   27.8892   50.7084 H   0  0  0  0  0  0  0  0  0  0  0  0
   58.3370   27.1280   46.7100 N   0  0  0  0  0  0  0  0  0  0  0  0
   57.2100   26.8310   46.0120 C   0  0  0  0  0  0  0  0  0  0  0  0
   56.8310   27.6840   44.9710 O   0  0  0  0  0  0  0  0  0  0  0  0
   57.0690   29.0690   44.9580 C   0  0  0  0  0  0  0  0  0  0  0  0
   56.4300   29.8480   43.9870 C   0  0  0  0  0  0  0  0  0  0  0  0
   55.7649   29.3684   43.2538 H   0  0  0  0  0  0  0  0  0  0  0  0
   56.6300   31.2310   43.9410 C   0  0  0  0  0  0  0  0  0  0  0  0
   56.1174   31.8334   43.1765 H   0  0  0  0  0  0  0  0  0  0  0  0
   57.4820   31.8540   44.8660 C   0  0  0  0  0  0  0  0  0  0  0  0
   57.6530   33.3480   44.8520 C   0  0  0  0  0  0  0  0  0  0  0  0
   57.9969   33.6670   43.8570 H   0  0  0  0  0  0  0  0  0  0  0  0
   56.6894   33.8262   45.0818 H   0  0  0  0  0  0  0  0  0  0  0  0
   58.6630   33.7520   45.8800 C   0  0  0  0  0  0  0  0  0  0  0  0
   59.8180   34.0980   45.5120 O   0  0  0  0  0  0  0  0  0  0  0  0
   58.3370   33.6900   47.2760 N   0  0  0  0  0  0  0  0  0  0  0  0
   57.3480   33.5050   47.5600 H   0  0  0  0  0  0  0  0  0  0  0  0
   59.3430   33.8470   48.3200 C   0  0  0  0  0  0  0  0  0  0  0  0
   60.3050   33.4533   47.9600 H   0  0  0  0  0  0  0  0  0  0  0  0
   59.4428   34.9147   48.5652 H   0  0  0  0  0  0  0  0  0  0  0  0
   58.9220   33.0820   49.5780 C   0  0  0  0  0  0  0  0  0  0  0  0
   59.7426   32.4197   49.8911 H   0  0  0  0  0  0  0  0  0  0  0  0
   58.6942   33.8045   50.3755 H   0  0  0  0  0  0  0  0  0  0  0  0
   57.7790   32.3120   49.3220 O   0  0  0  0  0  0  0  0  0  0  0  0
   57.0550   32.6790   49.8940 H   0  0  0  0  0  0  0  0  0  0  0  0
   58.1230   31.0750   45.8440 C   0  0  0  0  0  0  0  0  0  0  0  0
   58.7791   31.5566   46.5840 H   0  0  0  0  0  0  0  0  0  0  0  0
   57.9310   29.6920   45.8810 C   0  0  0  0  0  0  0  0  0  0  0  0
   58.4557   29.0865   46.6348 H   0  0  0  0  0  0  0  0  0  0  0  0
  1  2  1  0
  2  3  1  0
  3  4  2  0
  3  5  1  0
  5  6  1  0
  6  7  1  0
  6  8  2  0
  8  9  1  0
  9 10  2  0
 10 11  1  0
 11 12  2  0
 12 13  1  0
 12 14  1  0
 14 15  1  0
 14 16  2  0
 16 17  1  0
 17 18  1  0
 18 19  1  0
 18 20  1  0
 18 21  1  0
 21 22  1  0
 21 23  1  0
 21 24  1  0
 24 25  1  0
 25 26  1  0
 25 27  1  0
 25 28  1  0
 28 29  1  0
 28 30  1  0
 16 31  1  0
 31 32  1  0
 31 33  2  0
 33 34  1  0
  9 35  1  0
 35 36  1  0
 36 37  1  0
 37 38  1  0
 38 39  2  0
 39 40  1  0
 39 41  1  0
 41 42  1  0
 41 43  2  0
 43 44  1  0
 44 45  1  0
 44 46  1  0
 44 47  1  0
 47 48  2  0
 47 49  1  0
 49 50  1  0
 49 51  1  0
 51 52  1  0
 51 53  1  0
 51 54  1  0
 54 55  1  0
 54 56  1  0
 54 57  1  0
 57 58  1  0
 43 59  1  0
 59 60  1  0
 59 61  2  0
 61 62  1  0
 36  5  2  0
 61 38  1  0
 33 11  1  0
 28 17  1  0
M  CHG  2   2  -1  35  -1
M  END
>  <UniqueID>  (80) 
77

>  <SMILES>  (80) 
[NH-]C(=O)c1cn/c(=N/c2ccc(N3CCOCC3)cc2)[n-]c1Oc1ccc(CC(=O)NCCO)cc1

>  <Energy>  (80) 
84.09653233780908

>  <Genealogy>  (80) 
[NH-]C(=O)c1cnc(=Nc2ccc(N3CCOCC3)cc2)[n-]c1Oc1ccc(CC(=O)NCCO)cc1 (protonated)
[NH-]C(=O)c1cn/c(=N/c2ccc(N3CCOCC3)cc2)[n-]c1Oc1ccc(CC(=O)NCCO)cc1 (cis-trans isomerization)
[NH-]C(=O)c1cn/c(=N/c2ccc(N3CCOCC3)cc2)[n-]c1Oc1ccc(CC(=O)NCCO)cc1 (3D coordinates assigned)
[NH-]C(=O)c1cn/c(=N/c2ccc(N3CCOCC3)cc2)[n-]c1Oc1ccc(CC(=O)NCCO)cc1 (nonaromatic ring conformer: 84.09653233780908 kcal/mol)

>  <smiles>  (80) 
NC(=O)c1cnc(=Nc2ccc(N3CCOCC3)cc2)[nH]c1Oc1ccc(CC(=O)NCCO)cc1

>  <score_type>  (80) 
oracle

>  <origin>  (80) 
adg

>  <m_score__min__energy>  (80) 
-12.99

>  <m_primary>  (80) 
energy

$$$$
80:0
     RDKit          3D

 32 33  0  0  0  0  0  0  0  0999 V2000
   54.7630   28.9360   45.5190 H   0  0  0  0  0  0  0  0  0  0  0  0
   55.3100   29.4830   44.8680 O   0  0  0  0  0  0  0  0  0  0  0  0
   56.6760   29.2630   44.6920 C   0  0  0  0  0  0  0  0  0  0  0  0
   57.2230   28.1340   45.1970 C   0  0  0  0  0  0  0  0  0  0  0  0
   56.3730   27.1550   45.6240 N   0  0  0  0  0  0  0  0  0  0  0  0
   56.7980   25.9750   46.1500 C   0  0  0  0  0  0  0  0  0  0  0  0
   55.9000   25.0690   46.5390 C   0  0  0  0  0  0  0  0  0  0  0  0
   54.8254   25.2794   46.4341 H   0  0  0  0  0  0  0  0  0  0  0  0
   56.2339   24.1113   46.9648 H   0  0  0  0  0  0  0  0  0  0  0  0
   58.1690   25.7290   46.2740 C   0  0  0  0  0  0  0  0  0  0  0  0
   58.5261   24.7742   46.6874 H   0  0  0  0  0  0  0  0  0  0  0  0
   59.0820   26.7070   45.8680 C   0  0  0  0  0  0  0  0  0  0  0  0
   60.4520   26.4840   45.9980 O   0  0  0  0  0  0  0  0  0  0  0  0
   61.1330   27.1820   45.7240 H   0  0  0  0  0  0  0  0  0  0  0  0
   58.6210   27.9190   45.3350 C   0  0  0  0  0  0  0  0  0  0  0  0
   59.4650   28.7990   45.0150 O   0  0  0  0  0  0  0  0  0  0  0  0
   57.4490   30.2360   43.9700 N   0  0  0  0  0  0  0  0  0  0  0  0
   58.3420   29.9460   43.5110 H   0  0  0  0  0  0  0  0  0  0  0  0
   57.0150   31.6240   43.8390 C   0  0  0  0  0  0  0  0  0  0  0  0
   57.2481   31.9841   42.8261 H   0  0  0  0  0  0  0  0  0  0  0  0
   55.9308   31.6806   44.0159 H   0  0  0  0  0  0  0  0  0  0  0  0
   57.7240   32.4840   44.8480 C   0  0  0  0  0  0  0  0  0  0  0  0
   58.1240   33.7860   44.5060 C   0  0  0  0  0  0  0  0  0  0  0  0
   57.8810   34.1910   43.5126 H   0  0  0  0  0  0  0  0  0  0  0  0
   58.8300   34.5690   45.4240 C   0  0  0  0  0  0  0  0  0  0  0  0
   59.1358   35.5905   45.1537 H   0  0  0  0  0  0  0  0  0  0  0  0
   59.1480   34.0560   46.6850 C   0  0  0  0  0  0  0  0  0  0  0  0
   59.8340   34.8170   47.5730 F   0  0  0  0  0  0  0  0  0  0  0  0
   58.7650   32.7570   47.0270 C   0  0  0  0  0  0  0  0  0  0  0  0
   59.0191   32.3528   48.0180 H   0  0  0  0  0  0  0  0  0  0  0  0
   58.0590   31.9690   46.1120 C   0  0  0  0  0  0  0  0  0  0  0  0
   57.7654   30.9440   46.3824 H   0  0  0  0  0  0  0  0  0  0  0  0
  1  2  1  0
  2  3  1  0
  3  4  2  0
  4  5  1  0
  5  6  1  0
  6  7  2  0
  7  8  1  0
  7  9  1  0
  6 10  1  0
 10 11  1  0
 10 12  2  0
 12 13  1  0
 13 14  1  0
 12 15  1  0
 15 16  2  0
  3 17  1  0
 17 18  1  0
 17 19  1  0
 19 20  1  0
 19 21  1  0
 19 22  1  0
 22 23  2  0
 23 24  1  0
 23 25  1  0
 25 26  1  0
 25 27  2  0
 27 28  1  0
 27 29  1  0
 29 30  1  0
 29 31  2  0
 31 32  1  0
 15  4  1  0
 31 22  1  0
M  CHG  1   5  -1
M  END
>  <UniqueID>  (81) 
78

>  <SMILES>  (81) 
C=c1cc(O)c(=O)/c(=C(/O)NCc2ccc(F)cc2)[n-]1

>  <Energy>  (81) 
39.048417632567286

>  <Genealogy>  (81) 
C=c1cc(O)c(=O)c(=C(O)NCc2ccc(F)cc2)[n-]1 (protonated)
C=c1cc(O)c(=O)/c(=C(/O)NCc2ccc(F)cc2)[n-]1 (cis-trans isomerization)
C=c1cc(O)c(=O)/c(=C(/O)NCc2ccc(F)cc2)[n-]1 (3D coordinates assigned)
C=c1cc(O)c(=O)/c(=C(/O)NCc2ccc(F)cc2)[n-]1 (optimized conformer: 39.048417632567286 kcal/mol)

>  <smiles>  (81) 
C=c1cc(O)c(=O)c(=C(O)NCc2ccc(F)cc2)[nH]1

>  <score_type>  (81) 
oracle

>  <origin>  (81) 
adg

>  <m_score__min__energy>  (81) 
-9.2200000000000006

>  <m_primary>  (81) 
energy

$$$$
81:0
     RDKit          3D

 62 65  0  0  0  0  0  0  0  0999 V2000
   59.1110   26.2138   44.7519 H   0  0  0  0  0  0  0  0  0  0  0  0
   59.3350   27.0600   45.4180 C   0  0  0  0  0  0  0  0  0  0  0  0
   59.7630   26.7850   46.8010 C   0  0  0  0  0  0  0  0  0  0  0  0
   60.7590   26.0390   46.9830 O   0  0  0  0  0  0  0  0  0  0  0  0
   59.0560   27.2820   47.9460 N   0  0  0  0  0  0  0  0  0  0  0  0
   59.6060   28.1890   48.9470 C   0  0  0  0  0  0  0  0  0  0  0  0
   60.5867   27.8183   49.2798 H   0  0  0  0  0  0  0  0  0  0  0  0
   58.9255   28.2431   49.8096 H   0  0  0  0  0  0  0  0  0  0  0  0
   59.7640   29.5540   48.3440 C   0  0  0  0  0  0  0  0  0  0  0  0
   58.9090   30.5980   48.7300 C   0  0  0  0  0  0  0  0  0  0  0  0
   58.1378   30.4200   49.4939 H   0  0  0  0  0  0  0  0  0  0  0  0
   59.0330   31.8630   48.1480 C   0  0  0  0  0  0  0  0  0  0  0  0
   58.3632   32.6775   48.4611 H   0  0  0  0  0  0  0  0  0  0  0  0
   60.0080   32.0990   47.1660 C   0  0  0  0  0  0  0  0  0  0  0  0
   60.1550   33.4620   46.5420 C   0  0  0  0  0  0  0  0  0  0  0  0
   59.2209   34.0259   46.6812 H   0  0  0  0  0  0  0  0  0  0  0  0
   60.3698   33.3398   45.4701 H   0  0  0  0  0  0  0  0  0  0  0  0
   61.2680   34.2040   47.1690 N   0  0  0  0  0  0  0  0  0  0  0  0
   62.5840   33.8500   46.5700 C   0  0  0  0  0  0  0  0  0  0  0  0
   63.2044   34.7573   46.5267 H   0  0  0  0  0  0  0  0  0  0  0  0
   62.3885   33.4366   45.5695 H   0  0  0  0  0  0  0  0  0  0  0  0
   63.3400   32.7790   47.3680 C   0  0  0  0  0  0  0  0  0  0  0  0
   64.3463   32.6534   46.9418 H   0  0  0  0  0  0  0  0  0  0  0  0
   62.7820   31.8328   47.3099 H   0  0  0  0  0  0  0  0  0  0  0  0
   63.4580   33.1730   48.7740 N   0  0  0  0  0  0  0  0  0  0  0  0
   64.3150   32.4270   49.6520 C   0  0  0  0  0  0  0  0  0  0  0  0
   65.6660   32.7870   49.7720 C   0  0  0  0  0  0  0  0  0  0  0  0
   66.0631   33.6280   49.1846 H   0  0  0  0  0  0  0  0  0  0  0  0
   66.5080   32.0820   50.6340 C   0  0  0  0  0  0  0  0  0  0  0  0
   67.5661   32.3686   50.7252 H   0  0  0  0  0  0  0  0  0  0  0  0
   66.0080   31.0140   51.3800 C   0  0  0  0  0  0  0  0  0  0  0  0
   66.6721   30.4626   52.0618 H   0  0  0  0  0  0  0  0  0  0  0  0
   64.6650   30.6430   51.2630 C   0  0  0  0  0  0  0  0  0  0  0  0
   64.2769   29.7987   51.8517 H   0  0  0  0  0  0  0  0  0  0  0  0
   63.8060   31.3460   50.3940 C   0  0  0  0  0  0  0  0  0  0  0  0
   62.4560   30.9910   50.2350 O   0  0  0  0  0  0  0  0  0  0  0  0
   61.7860   30.0020   51.0090 C   0  0  0  0  0  0  0  0  0  0  0  0
   61.9297   30.2141   52.0787 H   0  0  0  0  0  0  0  0  0  0  0  0
   60.7117   30.0175   50.7732 H   0  0  0  0  0  0  0  0  0  0  0  0
   62.1988   29.0101   50.7732 H   0  0  0  0  0  0  0  0  0  0  0  0
   62.5840   34.2190   49.3070 C   0  0  0  0  0  0  0  0  0  0  0  0
   63.0131   35.2073   49.0852 H   0  0  0  0  0  0  0  0  0  0  0  0
   62.4879   34.1051   50.3969 H   0  0  0  0  0  0  0  0  0  0  0  0
   61.2070   34.0970   48.6490 C   0  0  0  0  0  0  0  0  0  0  0  0
   60.5607   34.8997   49.0336 H   0  0  0  0  0  0  0  0  0  0  0  0
   60.8084   33.1015   48.8942 H   0  0  0  0  0  0  0  0  0  0  0  0
   60.8540   31.0520   46.7710 C   0  0  0  0  0  0  0  0  0  0  0  0
   61.6200   31.2278   46.0014 H   0  0  0  0  0  0  0  0  0  0  0  0
   60.7280   29.7860   47.3510 C   0  0  0  0  0  0  0  0  0  0  0  0
   61.3879   28.9677   47.0272 H   0  0  0  0  0  0  0  0  0  0  0  0
   59.2100   28.3070   44.9460 C   0  0  0  0  0  0  0  0  0  0  0  0
   60.1262   28.8878   44.7635 H   0  0  0  0  0  0  0  0  0  0  0  0
   57.9010   28.9500   44.6550 C   0  0  0  0  0  0  0  0  0  0  0  0
   57.8000   30.1070   43.8570 C   0  0  0  0  0  0  0  0  0  0  0  0
   58.7064   30.5511   43.4196 H   0  0  0  0  0  0  0  0  0  0  0  0
   56.5560   30.6920   43.6190 C   0  0  0  0  0  0  0  0  0  0  0  0
   56.4767   31.5923   42.9920 H   0  0  0  0  0  0  0  0  0  0  0  0
   55.4150   30.1250   44.1830 C   0  0  0  0  0  0  0  0  0  0  0  0
   54.4285   30.5749   43.9974 H   0  0  0  0  0  0  0  0  0  0  0  0
   55.5200   29.0170   44.9620 N   0  0  0  0  0  0  0  0  0  0  0  0
   56.7180   28.4230   45.2130 C   0  0  0  0  0  0  0  0  0  0  0  0
   56.7520   27.3960   45.9420 O   0  0  0  0  0  0  0  0  0  0  0  0
  1  2  1  0
  2  3  1  0
  3  4  2  0
  3  5  1  0
  5  6  1  0
  6  7  1  0
  6  8  1  0
  6  9  1  0
  9 10  2  0
 10 11  1  0
 10 12  1  0
 12 13  1  0
 12 14  2  0
 14 15  1  0
 15 16  1  0
 15 17  1  0
 15 18  1  0
 18 19  1  0
 19 20  1  0
 19 21  1  0
 19 22  1  0
 22 23  1  0
 22 24  1  0
 22 25  1  0
 25 26  1  0
 26 27  2  0
 27 28  1  0
 27 29  1  0
 29 30  1  0
 29 31  2  0
 31 32  1  0
 31 33  1  0
 33 34  1  0
 33 35  2  0
 35 36  1  0
 36 37  1  0
 37 38  1  0
 37 39  1  0
 37 40  1  0
 25 41  1  0
 41 42  1  0
 41 43  1  0
 41 44  1  0
 44 45  1  0
 44 46  1  0
 14 47  1  0
 47 48  1  0
 47 49  2  0
 49 50  1  0
  2 51  2  0
 51 52  1  0
 51 53  1  0
 53 54  2  0
 54 55  1  0
 54 56  1  0
 56 57  1  0
 56 58  2  0
 58 59  1  0
 58 60  1  0
 60 61  1  0
 61 62  2  0
 49  9  1  0
 61 53  1  0
 44 18  1  0
 35 26  1  0
M  CHG  2   5  -1  60  -1
M  END
>  <UniqueID>  (82) 
79

>  <SMILES>  (82) 
COc1ccccc1N1CCN(Cc2ccc(C[N-]C(=O)/C=C/c3ccc[n-]c3=O)cc2)CC1

>  <Energy>  (82) 
84.528057126331

>  <Genealogy>  (82) 
COc1ccccc1N1CCN(Cc2ccc(C[N-]C(=O)C=Cc3ccc[n-]c3=O)cc2)CC1 (protonated)
COc1ccccc1N1CCN(Cc2ccc(C[N-]C(=O)/C=C/c3ccc[n-]c3=O)cc2)CC1 (cis-trans isomerization)
COc1ccccc1N1CCN(Cc2ccc(C[N-]C(=O)/C=C/c3ccc[n-]c3=O)cc2)CC1 (3D coordinates assigned)
COc1ccccc1N1CCN(Cc2ccc(C[N-]C(=O)/C=C/c3ccc[n-]c3=O)cc2)CC1 (nonaromatic ring conformer: 84.528057126331 kcal/mol)

>  <smiles>  (82) 
COc1ccccc1N1CCN(Cc2ccc(CNC(=O)C=Cc3ccc[nH]c3=O)cc2)CC1

>  <score_type>  (82) 
oracle

>  <origin>  (82) 
adg

>  <m_score__min__energy>  (82) 
-14.09

>  <m_primary>  (82) 
energy

$$$$
82:0
     RDKit          3D

 44 47  0  0  0  0  0  0  0  0999 V2000
   65.6460   33.0530   48.6060 H   0  0  0  0  0  0  0  0  0  0  0  0
   64.7660   33.2980   49.0430 O   0  0  0  0  0  0  0  0  0  0  0  0
   63.5470   33.0020   48.4380 C   0  0  0  0  0  0  0  0  0  0  0  0
   63.3990   31.8040   47.7320 C   0  0  0  0  0  0  0  0  0  0  0  0
   64.2441   31.1039   47.6570 H   0  0  0  0  0  0  0  0  0  0  0  0
   62.1800   31.4930   47.1210 C   0  0  0  0  0  0  0  0  0  0  0  0
   62.0721   30.5521   46.5615 H   0  0  0  0  0  0  0  0  0  0  0  0
   61.0920   32.3780   47.2190 C   0  0  0  0  0  0  0  0  0  0  0  0
   59.7960   32.0530   46.5750 C   0  0  0  0  0  0  0  0  0  0  0  0
   59.1550   30.7990   46.7240 C   0  0  0  0  0  0  0  0  0  0  0  0
   59.6520   29.7490   47.6410 C   0  0  0  0  0  0  0  0  0  0  0  0
   59.7040   29.9660   49.0300 C   0  0  0  0  0  0  0  0  0  0  0  0
   59.3795   30.9314   49.4455 H   0  0  0  0  0  0  0  0  0  0  0  0
   60.1660   28.9610   49.8850 C   0  0  0  0  0  0  0  0  0  0  0  0
   60.2148   29.1415   50.9690 H   0  0  0  0  0  0  0  0  0  0  0  0
   60.5660   27.7270   49.3640 C   0  0  0  0  0  0  0  0  0  0  0  0
   61.0260   26.7290   50.2140 O   0  0  0  0  0  0  0  0  0  0  0  0
   60.4970   27.4950   47.9860 C   0  0  0  0  0  0  0  0  0  0  0  0
   60.8057   26.5219   47.5764 H   0  0  0  0  0  0  0  0  0  0  0  0
   60.0360   28.4990   47.1290 C   0  0  0  0  0  0  0  0  0  0  0  0
   59.9737   28.3086   46.0474 H   0  0  0  0  0  0  0  0  0  0  0  0
   58.0170   30.5490   46.0220 N   0  0  0  0  0  0  0  0  0  0  0  0
   57.4610   31.4760   45.2020 C   0  0  0  0  0  0  0  0  0  0  0  0
   56.3780   31.1760   44.5460 N   0  0  0  0  0  0  0  0  0  0  0  0
   55.9180   29.8510   44.2370 C   0  0  0  0  0  0  0  0  0  0  0  0
   54.7720   29.7170   43.7300 O   0  0  0  0  0  0  0  0  0  0  0  0
   56.7660   28.6510   44.4360 C   0  0  0  0  0  0  0  0  0  0  0  0
   57.7170   28.2890   43.4640 C   0  0  0  0  0  0  0  0  0  0  0  0
   57.8233   28.8934   42.5511 H   0  0  0  0  0  0  0  0  0  0  0  0
   58.5270   27.1660   43.6520 C   0  0  0  0  0  0  0  0  0  0  0  0
   59.2628   26.8851   42.8841 H   0  0  0  0  0  0  0  0  0  0  0  0
   58.4040   26.3990   44.8140 C   0  0  0  0  0  0  0  0  0  0  0  0
   59.0396   25.5128   44.9581 H   0  0  0  0  0  0  0  0  0  0  0  0
   57.4740   26.7580   45.7920 C   0  0  0  0  0  0  0  0  0  0  0  0
   57.3799   26.1554   46.7074 H   0  0  0  0  0  0  0  0  0  0  0  0
   56.6620   27.8820   45.6100 C   0  0  0  0  0  0  0  0  0  0  0  0
   55.9385   28.1664   46.3883 H   0  0  0  0  0  0  0  0  0  0  0  0
   58.0580   32.6900   45.0600 N   0  0  0  0  0  0  0  0  0  0  0  0
   59.1980   32.9950   45.7280 C   0  0  0  0  0  0  0  0  0  0  0  0
   59.6557   33.9876   45.6041 H   0  0  0  0  0  0  0  0  0  0  0  0
   61.2500   33.5850   47.9180 C   0  0  0  0  0  0  0  0  0  0  0  0
   60.4096   34.2914   47.9870 H   0  0  0  0  0  0  0  0  0  0  0  0
   62.4700   33.8940   48.5270 C   0  0  0  0  0  0  0  0  0  0  0  0
   62.5847   34.8395   49.0773 H   0  0  0  0  0  0  0  0  0  0  0  0
  1  2  1  0
  2  3  1  0
  3  4  2  0
  4  5  1  0
  4  6  1  0
  6  7  1  0
  6  8  2  0
  8  9  1  0
  9 10  1  0
 10 11  1  0
 11 12  2  0
 12 13  1  0
 12 14  1  0
 14 15  1  0
 14 16  2  0
 16 17  1  0
 16 18  1  0
 18 19  1  0
 18 20  2  0
 20 21  1  0
 10 22  2  0
 22 23  1  0
 23 24  2  0
 24 25  1  0
 25 26  2  0
 25 27  1  0
 27 28  2  0
 28 29  1  0
 28 30  1  0
 30 31  1  0
 30 32  2  0
 32 33  1  0
 32 34  1  0
 34 35  1  0
 34 36  2  0
 36 37  1  0
 23 38  1  0
 38 39  1  0
 39 40  1  0
  8 41  1  0
 41 42  1  0
 41 43  2  0
 43 44  1  0
 43  3  1  0
 39  9  2  0
 20 11  1  0
 36 27  1  0
M  CHG  2  17  -1  38  -1
M  END
>  <UniqueID>  (83) 
80

>  <SMILES>  (83) 
O=C(/N=c1/nc(-c2ccc([O-])cc2)c(-c2ccc(O)cc2)c[n-]1)c1ccccc1

>  <Energy>  (83) 
69.60538843126149

>  <Genealogy>  (83) 
O=C(N=c1nc(-c2ccc([O-])cc2)c(-c2ccc(O)cc2)c[n-]1)c1ccccc1 (protonated)
O=C(/N=c1/nc(-c2ccc([O-])cc2)c(-c2ccc(O)cc2)c[n-]1)c1ccccc1 (cis-trans isomerization)
O=C(/N=c1/nc(-c2ccc([O-])cc2)c(-c2ccc(O)cc2)c[n-]1)c1ccccc1 (3D coordinates assigned)
O=C(/N=c1/nc(-c2ccc([O-])cc2)c(-c2ccc(O)cc2)c[n-]1)c1ccccc1 (optimized conformer: 69.60538843126149 kcal/mol)

>  <smiles>  (83) 
O=C(N=c1nc(-c2ccc(O)cc2)c(-c2ccc(O)cc2)c[nH]1)c1ccccc1

>  <score_type>  (83) 
oracle

>  <origin>  (83) 
adg

>  <m_score__min__energy>  (83) 
-11.5

>  <m_primary>  (83) 
energy

$$$$
83:0
     RDKit          3D

 45 48  0  0  0  0  0  0  0  0999 V2000
   61.5620   30.1550   49.8120 O   0  0  0  0  0  0  0  0  0  0  0  0
   61.9310   31.2620   49.3320 C   0  0  0  0  0  0  0  0  0  0  0  0
   63.2040   31.8110   49.7120 N   0  0  0  0  0  0  0  0  0  0  0  0
   64.0620   31.1710   50.7060 C   0  0  0  0  0  0  0  0  0  0  0  0
   65.4290   31.7750   50.6720 C   0  0  0  0  0  0  0  0  0  0  0  0
   66.5160   31.3510   51.4080 C   0  0  0  0  0  0  0  0  0  0  0  0
   67.5450   32.2060   51.0740 C   0  0  0  0  0  0  0  0  0  0  0  0
   67.0210   33.0960   50.1570 C   0  0  0  0  0  0  0  0  0  0  0  0
   65.7580   32.8140   49.9390 O   0  0  0  0  0  0  0  0  0  0  0  0
   61.0510   31.9600   48.3640 C   0  0  0  0  0  0  0  0  0  0  0  0
   59.6620   31.7420   48.3950 C   0  0  0  0  0  0  0  0  0  0  0  0
   58.8230   32.3870   47.4840 C   0  0  0  0  0  0  0  0  0  0  0  0
   59.3550   33.2670   46.5340 C   0  0  0  0  0  0  0  0  0  0  0  0
   58.3040   34.0160   45.3340 S   0  0  0  0  0  0  0  0  0  0  0  0
   56.9600   34.3020   45.9440 O   0  0  0  0  0  0  0  0  0  0  0  0
   58.9060   35.3120   44.8700 O   0  0  0  0  0  0  0  0  0  0  0  0
   58.1050   32.9190   43.9400 C   0  0  0  0  0  0  0  0  0  0  0  0
   57.8550   31.5260   44.4220 C   0  0  0  0  0  0  0  0  0  0  0  0
   56.5790   31.0460   44.4780 N   0  0  0  0  0  0  0  0  0  0  0  0
   56.3290   29.7560   44.8290 C   0  0  0  0  0  0  0  0  0  0  0  0
   55.1430   29.3350   44.8750 O   0  0  0  0  0  0  0  0  0  0  0  0
   57.4010   28.9100   45.1250 C   0  0  0  0  0  0  0  0  0  0  0  0
   58.6810   29.4110   45.0550 C   0  0  0  0  0  0  0  0  0  0  0  0
   58.9030   30.7020   44.6990 N   0  0  0  0  0  0  0  0  0  0  0  0
   59.7710   28.4600   45.3650 C   0  0  0  0  0  0  0  0  0  0  0  0
   58.9880   26.8580   45.7730 S   0  0  0  0  0  0  0  0  0  0  0  0
   57.2880   27.4810   45.5080 C   0  0  0  0  0  0  0  0  0  0  0  0
   60.7350   33.4970   46.5030 C   0  0  0  0  0  0  0  0  0  0  0  0
   61.5770   32.8550   47.4140 C   0  0  0  0  0  0  0  0  0  0  0  0
   63.5740   32.6580   49.2270 H   0  0  0  0  0  0  0  0  0  0  0  0
   63.6270   31.3120   51.7065 H   0  0  0  0  0  0  0  0  0  0  0  0
   64.1376   30.0976   50.4778 H   0  0  0  0  0  0  0  0  0  0  0  0
   66.5539   30.5078   52.1133 H   0  0  0  0  0  0  0  0  0  0  0  0
   68.5749   32.1837   51.4598 H   0  0  0  0  0  0  0  0  0  0  0  0
   67.5779   33.9168   49.6815 H   0  0  0  0  0  0  0  0  0  0  0  0
   59.2333   31.0583   49.1425 H   0  0  0  0  0  0  0  0  0  0  0  0
   57.7389   32.2028   47.5129 H   0  0  0  0  0  0  0  0  0  0  0  0
   57.2518   33.2533   43.3314 H   0  0  0  0  0  0  0  0  0  0  0  0
   59.0223   32.9337   43.3331 H   0  0  0  0  0  0  0  0  0  0  0  0
   60.4314   28.3458   44.4928 H   0  0  0  0  0  0  0  0  0  0  0  0
   60.3800   28.8233   46.2059 H   0  0  0  0  0  0  0  0  0  0  0  0
   56.7990   26.9124   44.7033 H   0  0  0  0  0  0  0  0  0  0  0  0
   56.6830   27.3670   46.4196 H   0  0  0  0  0  0  0  0  0  0  0  0
   61.1586   34.1865   45.7579 H   0  0  0  0  0  0  0  0  0  0  0  0
   62.6592   33.0505   47.3886 H   0  0  0  0  0  0  0  0  0  0  0  0
  1  2  2  0
  2  3  1  0
  3  4  1  0
  4  5  1  0
  5  6  2  0
  6  7  1  0
  7  8  2  0
  8  9  1  0
  2 10  1  0
 10 11  2  0
 11 12  1  0
 12 13  2  0
 13 14  1  0
 14 15  2  0
 14 16  2  0
 14 17  1  0
 17 18  1  0
 18 19  2  0
 19 20  1  0
 20 21  2  0
 20 22  1  0
 22 23  2  0
 23 24  1  0
 23 25  1  0
 25 26  1  0
 26 27  1  0
 13 28  1  0
 28 29  2  0
  9  5  1  0
 29 10  1  0
 24 18  1  0
 27 22  1  0
  3 30  1  0
  4 31  1  0
  4 32  1  0
  6 33  1  0
  7 34  1  0
  8 35  1  0
 11 36  1  0
 12 37  1  0
 17 38  1  0
 17 39  1  0
 25 40  1  0
 25 41  1  0
 27 42  1  0
 27 43  1  0
 28 44  1  0
 29 45  1  0
M  CHG  1  24  -1
M  END
>  <UniqueID>  (84) 
81

>  <SMILES>  (84) 
O=C(NCc1ccco1)c1ccc(S(=O)(=O)Cc2nc(=O)c3c([n-]2)CSC3)cc1

>  <Energy>  (84) 
69.64662992003501

>  <Genealogy>  (84) 
O=C(NCc1ccco1)c1ccc(S(=O)(=O)Cc2nc(=O)c3c([n-]2)CSC3)cc1 (protonated)
O=C(NCc1ccco1)c1ccc(S(=O)(=O)Cc2nc(=O)c3c([n-]2)CSC3)cc1 (3D coordinates assigned)
O=C(NCc1ccco1)c1ccc(S(=O)(=O)Cc2nc(=O)c3c([n-]2)CSC3)cc1 (nonaromatic ring conformer: 69.64662992003501 kcal/mol)

>  <smiles>  (84) 
O=C(NCc1ccco1)c1ccc(S(=O)(=O)Cc2nc(=O)c3c([nH]2)CSC3)cc1

>  <score_type>  (84) 
oracle

>  <origin>  (84) 
adg

>  <m_score__min__energy>  (84) 
-9.7899999999999991

>  <m_primary>  (84) 
energy

$$$$
84:0
     RDKit          3D

 84 88  0  0  0  0  0  0  0  0999 V2000
   58.1530   31.9730   42.0950 C   0  0  0  0  0  0  0  0  0  0  0  0
   58.0510   32.6070   43.4590 C   0  0  0  0  0  0  0  0  0  0  0  0
   58.8540   33.7250   43.7450 C   0  0  0  0  0  0  0  0  0  0  0  0
   58.8130   34.3220   45.0040 C   0  0  0  0  0  0  0  0  0  0  0  0
   57.9880   33.7990   45.9980 C   0  0  0  0  0  0  0  0  0  0  0  0
   57.1720   32.7000   45.7300 C   0  0  0  0  0  0  0  0  0  0  0  0
   57.1630   32.1120   44.4530 C   0  0  0  0  0  0  0  0  0  0  0  0
   56.2470   30.9390   44.1930 C   0  0  0  0  0  0  0  0  0  0  0  0
   56.4920   29.8500   45.1330 N   0  0  0  0  0  0  0  0  0  0  0  0
   57.7330   29.1920   45.4360 C   0  0  0  0  0  0  0  0  0  0  0  0
   58.4950   28.9090   44.4760 O   0  0  0  0  0  0  0  0  0  0  0  0
   58.1500   28.8190   46.8450 C   0  0  1  0  0  0  0  0  0  0  0  0
   58.7480   27.3930   46.9970 C   0  0  0  0  0  0  0  0  0  0  0  0
   58.0040   26.2570   46.3260 C   0  0  0  0  0  0  0  0  0  0  0  0
   56.5970   26.2220   46.3350 C   0  0  0  0  0  0  0  0  0  0  0  0
   55.9120   25.1370   45.7800 C   0  0  0  0  0  0  0  0  0  0  0  0
   56.6220   24.0700   45.2250 C   0  0  0  0  0  0  0  0  0  0  0  0
   58.0190   24.0810   45.2340 C   0  0  0  0  0  0  0  0  0  0  0  0
   58.7080   25.1620   45.7920 C   0  0  0  0  0  0  0  0  0  0  0  0
   59.0090   29.8590   47.4420 N   0  0  0  0  0  0  0  0  0  0  0  0
   60.4030   30.0600   47.1510 C   0  0  0  0  0  0  0  0  0  0  0  0
   60.9350   29.4810   46.1670 O   0  0  0  0  0  0  0  0  0  0  0  0
   61.2600   31.0360   47.9250 C   0  0  1  0  0  0  0  0  0  0  0  0
   62.5200   31.3780   47.1230 C   0  0  0  0  0  0  0  0  0  0  0  0
   62.7990   32.8590   47.3970 C   0  0  2  0  0  0  0  0  0  0  0  0
   63.7680   33.0340   48.4810 N   0  0  0  0  0  0  0  0  0  0  0  0
   61.4500   33.4490   47.7940 C   0  0  0  0  0  0  0  0  0  0  0  0
   60.6190   32.3220   48.2100 N   0  0  0  0  0  0  0  0  0  0  0  0
   59.4250   32.5390   49.0000 C   0  0  0  0  0  0  0  0  0  0  0  0
   58.3120   32.6390   48.4130 O   0  0  0  0  0  0  0  0  0  0  0  0
   59.4260   32.5780   50.4770 C   0  0  0  0  0  0  0  0  0  0  0  0
   60.2960   33.4140   51.1960 C   0  0  0  0  0  0  0  0  0  0  0  0
   60.2170   33.4740   52.5910 C   0  0  0  0  0  0  0  0  0  0  0  0
   59.2640   32.7170   53.2790 C   0  0  0  0  0  0  0  0  0  0  0  0
   58.3680   31.8990   52.5740 C   0  0  0  0  0  0  0  0  0  0  0  0
   57.3780   31.1230   53.2800 N   0  0  0  0  0  0  0  0  0  0  0  0
   57.6710   30.6080   54.6210 C   0  0  0  0  0  0  0  0  0  0  0  0
   56.3820   30.5020   55.4390 C   0  0  0  0  0  0  0  0  0  0  0  0
   55.3160   29.7740   54.7280 N   0  0  0  0  0  0  0  0  0  0  0  0
   55.5600   28.3220   54.6640 C   0  0  0  0  0  0  0  0  0  0  0  0
   55.0330   30.3650   53.4060 C   0  0  0  0  0  0  0  0  0  0  0  0
   56.2890   30.4890   52.5320 C   0  0  0  0  0  0  0  0  0  0  0  0
   58.4550   31.8400   51.1720 C   0  0  0  0  0  0  0  0  0  0  0  0
   58.3269   30.8924   42.2050 H   0  0  0  0  0  0  0  0  0  0  0  0
   57.2165   32.1393   41.5424 H   0  0  0  0  0  0  0  0  0  0  0  0
   58.9900   32.4247   41.5424 H   0  0  0  0  0  0  0  0  0  0  0  0
   59.5197   34.1317   42.9694 H   0  0  0  0  0  0  0  0  0  0  0  0
   59.4324   35.2067   45.2131 H   0  0  0  0  0  0  0  0  0  0  0  0
   57.9803   34.2552   46.9989 H   0  0  0  0  0  0  0  0  0  0  0  0
   56.5305   32.2901   46.5240 H   0  0  0  0  0  0  0  0  0  0  0  0
   55.2033   31.2711   44.2950 H   0  0  0  0  0  0  0  0  0  0  0  0
   56.4423   30.5675   43.1762 H   0  0  0  0  0  0  0  0  0  0  0  0
   57.2145   28.7740   47.4219 H   0  0  0  0  0  0  0  0  0  0  0  0
   59.7657   27.4144   46.5801 H   0  0  0  0  0  0  0  0  0  0  0  0
   58.6905   27.1739   48.0734 H   0  0  0  0  0  0  0  0  0  0  0  0
   56.0326   27.0538   46.7817 H   0  0  0  0  0  0  0  0  0  0  0  0
   54.8121   25.1236   45.7804 H   0  0  0  0  0  0  0  0  0  0  0  0
   56.0814   23.2212   44.7809 H   0  0  0  0  0  0  0  0  0  0  0  0
   58.5777   23.2379   44.8014 H   0  0  0  0  0  0  0  0  0  0  0  0
   59.8078   25.1564   45.8137 H   0  0  0  0  0  0  0  0  0  0  0  0
   58.5560   30.4930   48.1400 H   0  0  0  0  0  0  0  0  0  0  0  0
   61.4657   30.5212   48.8751 H   0  0  0  0  0  0  0  0  0  0  0  0
   63.3665   30.7603   47.4575 H   0  0  0  0  0  0  0  0  0  0  0  0
   62.3819   31.1836   46.0491 H   0  0  0  0  0  0  0  0  0  0  0  0
   63.2336   33.3530   46.5155 H   0  0  0  0  0  0  0  0  0  0  0  0
   63.8320   34.0550   48.6990 H   0  0  0  0  0  0  0  0  0  0  0  0
   64.7160   32.7270   48.1560 H   0  0  0  0  0  0  0  0  0  0  0  0
   61.5739   34.1587   48.6252 H   0  0  0  0  0  0  0  0  0  0  0  0
   60.9913   33.9985   46.9587 H   0  0  0  0  0  0  0  0  0  0  0  0
   61.0404   34.0222   50.6612 H   0  0  0  0  0  0  0  0  0  0  0  0
   60.9089   34.1208   53.1504 H   0  0  0  0  0  0  0  0  0  0  0  0
   59.2164   32.7628   54.3770 H   0  0  0  0  0  0  0  0  0  0  0  0
   58.1302   29.6121   54.5356 H   0  0  0  0  0  0  0  0  0  0  0  0
   58.3622   31.2977   55.1275 H   0  0  0  0  0  0  0  0  0  0  0  0
   56.6034   29.9734   56.3779 H   0  0  0  0  0  0  0  0  0  0  0  0
   56.0203   31.5243   55.6236 H   0  0  0  0  0  0  0  0  0  0  0  0
   55.6282   27.9163   55.6842 H   0  0  0  0  0  0  0  0  0  0  0  0
   54.7313   27.8341   54.1300 H   0  0  0  0  0  0  0  0  0  0  0  0
   56.5027   28.1318   54.1300 H   0  0  0  0  0  0  0  0  0  0  0  0
   54.3029   29.7284   52.8848 H   0  0  0  0  0  0  0  0  0  0  0  0
   54.6420   31.3797   53.5722 H   0  0  0  0  0  0  0  0  0  0  0  0
   56.6068   29.4858   52.2116 H   0  0  0  0  0  0  0  0  0  0  0  0
   56.0514   31.1110   51.6564 H   0  0  0  0  0  0  0  0  0  0  0  0
   57.7519   31.2063   50.6115 H   0  0  0  0  0  0  0  0  0  0  0  0
  1  2  1  0
  2  3  2  0
  3  4  1  0
  4  5  2  0
  5  6  1  0
  6  7  2  0
  7  8  1  0
  8  9  1  0
  9 10  1  0
 10 11  2  0
 10 12  1  0
 12 13  1  0
 13 14  1  0
 14 15  2  0
 15 16  1  0
 16 17  2  0
 17 18  1  0
 18 19  2  0
 12 20  1  0
 20 21  1  0
 21 22  2  0
 21 23  1  0
 23 24  1  0
 24 25  1  0
 25 26  1  0
 25 27  1  0
 27 28  1  0
 28 29  1  0
 29 30  2  0
 29 31  1  0
 31 32  2  0
 32 33  1  0
 33 34  2  0
 34 35  1  0
 35 36  1  0
 36 37  1  0
 37 38  1  0
 38 39  1  0
 39 40  1  0
 39 41  1  0
 41 42  1  0
 35 43  2  0
  7  2  1  0
 19 14  1  0
 28 23  1  0
 43 31  1  0
 42 36  1  0
  1 44  1  0
  1 45  1  0
  1 46  1  0
  3 47  1  0
  4 48  1  0
  5 49  1  0
  6 50  1  0
  8 51  1  0
  8 52  1  0
 12 53  1  1
 13 54  1  0
 13 55  1  0
 15 56  1  0
 16 57  1  0
 17 58  1  0
 18 59  1  0
 19 60  1  0
 20 61  1  0
 23 62  1  1
 24 63  1  0
 24 64  1  0
 25 65  1  6
 26 66  1  0
 26 67  1  0
 27 68  1  0
 27 69  1  0
 32 70  1  0
 33 71  1  0
 34 72  1  0
 37 73  1  0
 37 74  1  0
 38 75  1  0
 38 76  1  0
 40 77  1  0
 40 78  1  0
 40 79  1  0
 41 80  1  0
 41 81  1  0
 42 82  1  0
 42 83  1  0
 43 84  1  0
M  CHG  1   9  -1
M  END
>  <UniqueID>  (85) 
82

>  <SMILES>  (85) 
Cc1ccccc1C[N-]C(=O)[C@@H](Cc1ccccc1)NC(=O)[C@H]1CC(N)CN1C(=O)c1cccc(N2CCN(C)CC2)c1

>  <Energy>  (85) 
100.2043113276047

>  <Genealogy>  (85) 
Cc1ccccc1C[N-]C(=O)C(Cc1ccccc1)NC(=O)C1CC(N)CN1C(=O)c1cccc(N2CCN(C)CC2)c1 (protonated)
Cc1ccccc1C[N-]C(=O)[C@@H](Cc1ccccc1)NC(=O)[C@H]1CC(N)CN1C(=O)c1cccc(N2CCN(C)CC2)c1 (chirality)
Cc1ccccc1C[N-]C(=O)[C@@H](Cc1ccccc1)NC(=O)[C@H]1CC(N)CN1C(=O)c1cccc(N2CCN(C)CC2)c1 (3D coordinates assigned)
Cc1ccccc1C[N-]C(=O)[C@@H](Cc1ccccc1)NC(=O)[C@H]1CC(N)CN1C(=O)c1cccc(N2CCN(C)CC2)c1 (nonaromatic ring conformer: 100.2043113276047 kcal/mol)

>  <smiles>  (85) 
Cc1ccccc1CNC(=O)C(Cc1ccccc1)NC(=O)C1CC(N)CN1C(=O)c1cccc(N2CCN(C)CC2)c1

>  <score_type>  (85) 
oracle

>  <origin>  (85) 
adg

>  <m_score__min__energy>  (85) 
-12.57

>  <m_primary>  (85) 
energy

$$$$
