0:0
     RDKit          3D

 44 47  0  0  0  0  0  0  0  0999 V2000
   59.7530   27.6100   46.6780 O   0  0  0  0  0  0  0  0  0  0  0  0
   58.6590   28.2350   46.6540 C   0  0  0  0  0  0  0  0  0  0  0  0
   57.4390   27.5000   46.8200 N   0  0  0  0  0  0  0  0  0  0  0  0
   57.1630   26.2130   46.2520 C   0  0  0  0  0  0  0  0  0  0  0  0
   58.2080   25.2860   46.1450 C   0  0  0  0  0  0  0  0  0  0  0  0
   57.9830   24.0280   45.5800 C   0  0  0  0  0  0  0  0  0  0  0  0
   56.7040   23.6800   45.1340 C   0  0  0  0  0  0  0  0  0  0  0  0
   55.6480   24.5850   45.2690 C   0  0  0  0  0  0  0  0  0  0  0  0
   55.8660   25.8430   45.8400 C   0  0  0  0  0  0  0  0  0  0  0  0
   54.7880   26.7000   46.0250 O   0  0  0  0  0  0  0  0  0  0  0  0
   58.6500   29.6530   46.3650 N   0  0  0  0  0  0  0  0  0  0  0  0
   59.1710   30.5140   47.2980 C   0  0  0  0  0  0  0  0  0  0  0  0
   59.6360   30.0530   48.3810 O   0  0  0  0  0  0  0  0  0  0  0  0
   59.1830   31.8690   47.0820 N   0  0  0  0  0  0  0  0  0  0  0  0
   59.7480   32.7710   48.1090 C   0  0  0  0  0  0  0  0  0  0  0  0
   61.2260   32.9710   47.8830 C   0  0  0  0  0  0  0  0  0  0  0  0
   62.1580   32.5360   48.8410 C   0  0  0  0  0  0  0  0  0  0  0  0
   63.5250   32.7490   48.6400 C   0  0  0  0  0  0  0  0  0  0  0  0
   63.9720   33.3980   47.4870 C   0  0  0  0  0  0  0  0  0  0  0  0
   63.0510   33.8350   46.5310 C   0  0  0  0  0  0  0  0  0  0  0  0
   61.6840   33.6250   46.7270 C   0  0  0  0  0  0  0  0  0  0  0  0
   58.6330   32.3860   45.9390 C   0  0  0  0  0  0  0  0  0  0  0  0
   58.6330   33.6340   45.7420 O   0  0  0  0  0  0  0  0  0  0  0  0
   58.0690   31.5360   44.9770 C   0  0  0  0  0  0  0  0  0  0  0  0
   57.5000   32.0480   43.7940 C   0  0  0  0  0  0  0  0  0  0  0  0
   56.9640   31.1860   42.8380 C   0  0  0  0  0  0  0  0  0  0  0  0
   56.9960   29.8100   43.0440 C   0  0  0  0  0  0  0  0  0  0  0  0
   57.5560   29.2870   44.2110 C   0  0  0  0  0  0  0  0  0  0  0  0
   58.0900   30.1420   45.2070 C   0  0  0  0  0  0  0  0  0  0  0  0
   59.2121   25.5502   46.5081 H   0  0  0  0  0  0  0  0  0  0  0  0
   58.8121   23.3112   45.4860 H   0  0  0  0  0  0  0  0  0  0  0  0
   56.5295   22.6946   44.6773 H   0  0  0  0  0  0  0  0  0  0  0  0
   54.6410   24.3069   44.9247 H   0  0  0  0  0  0  0  0  0  0  0  0
   59.2388   33.7446   48.0550 H   0  0  0  0  0  0  0  0  0  0  0  0
   59.5983   32.3184   49.1004 H   0  0  0  0  0  0  0  0  0  0  0  0
   61.8107   32.0263   49.7518 H   0  0  0  0  0  0  0  0  0  0  0  0
   64.2503   32.4046   49.3919 H   0  0  0  0  0  0  0  0  0  0  0  0
   65.0481   33.5651   47.3314 H   0  0  0  0  0  0  0  0  0  0  0  0
   63.4033   34.3453   45.6224 H   0  0  0  0  0  0  0  0  0  0  0  0
   60.9629   33.9732   45.9729 H   0  0  0  0  0  0  0  0  0  0  0  0
   57.4785   33.1345   43.6236 H   0  0  0  0  0  0  0  0  0  0  0  0
   56.5155   31.5939   41.9202 H   0  0  0  0  0  0  0  0  0  0  0  0
   56.5787   29.1322   42.2848 H   0  0  0  0  0  0  0  0  0  0  0  0
   57.5831   28.1974   44.3593 H   0  0  0  0  0  0  0  0  0  0  0  0
  1  2  2  0
  2  3  1  0
  3  4  1  0
  4  5  2  0
  5  6  1  0
  6  7  2  0
  7  8  1  0
  8  9  2  0
  9 10  1  0
  2 11  1  0
 11 12  1  0
 12 13  2  0
 12 14  1  0
 14 15  1  0
 15 16  1  0
 16 17  2  0
 17 18  1  0
 18 19  2  0
 19 20  1  0
 20 21  2  0
 14 22  1  0
 22 23  2  0
 22 24  1  0
 24 25  2  0
 25 26  1  0
 26 27  2  0
 27 28  1  0
 28 29  2  0
  9  4  1  0
 29 11  1  0
 21 16  1  0
 29 24  1  0
  5 30  1  0
  6 31  1  0
  7 32  1  0
  8 33  1  0
 15 34  1  0
 15 35  1  0
 17 36  1  0
 18 37  1  0
 19 38  1  0
 20 39  1  0
 21 40  1  0
 25 41  1  0
 26 42  1  0
 27 43  1  0
 28 44  1  0
M  CHG  2   3  -1  10  -1
M  END
>  <UniqueID>  (1) 
1

>  <SMILES>  (1) 
O=C([N-]c1ccccc1[O-])n1c(=O)n(Cc2ccccc2)c(=O)c2ccccc21

>  <Energy>  (1) 
73.36970404869498

>  <Genealogy>  (1) 
O=C([N-]c1ccccc1[O-])n1c(=O)n(Cc2ccccc2)c(=O)c2ccccc21 (protonated)
O=C([N-]c1ccccc1[O-])n1c(=O)n(Cc2ccccc2)c(=O)c2ccccc21 (3D coordinates assigned)
O=C([N-]c1ccccc1[O-])n1c(=O)n(Cc2ccccc2)c(=O)c2ccccc21 (optimized conformer: 73.36970404869498 kcal/mol)

>  <smiles>  (1) 
O=C(Nc1ccccc1O)n1c(=O)n(Cc2ccccc2)c(=O)c2ccccc21

>  <score_type>  (1) 
oracle

>  <origin>  (1) 
adg

>  <m_score__min__energy>  (1) 
-14.58

>  <m_primary>  (1) 
energy

$$$$
1:0
     RDKit          3D

 38 40  0  0  0  0  0  0  0  0999 V2000
   55.2330   28.6400   45.6210 H   0  0  0  0  0  0  0  0  0  0  0  0
   55.1470   29.3840   44.8930 N   0  0  0  0  0  0  0  0  0  0  0  0
   56.6800   29.4960   44.1040 S   0  0  0  0  0  0  0  0  0  0  0  0
   56.4700   29.6940   42.6300 O   0  0  0  0  0  0  0  0  0  0  0  0
   57.4480   28.2220   44.3150 O   0  0  0  0  0  0  0  0  0  0  0  0
   57.5850   30.8540   44.7660 C   0  0  0  0  0  0  0  0  0  0  0  0
   57.1330   32.1660   44.5720 C   0  0  0  0  0  0  0  0  0  0  0  0
   56.2140   32.3495   43.9960 H   0  0  0  0  0  0  0  0  0  0  0  0
   57.8460   33.2430   45.1080 C   0  0  0  0  0  0  0  0  0  0  0  0
   57.4873   34.2704   44.9474 H   0  0  0  0  0  0  0  0  0  0  0  0
   59.0140   33.0210   45.8480 C   0  0  0  0  0  0  0  0  0  0  0  0
   59.7200   34.1460   46.3840 N   0  0  0  0  0  0  0  0  0  0  0  0
   59.7940   34.3640   47.6350 N   0  0  0  0  0  0  0  0  0  0  0  0
   60.7470   33.6790   48.4490 C   0  0  0  0  0  0  0  0  0  0  0  0
   62.4200   33.7890   48.3080 S   0  0  0  0  0  0  0  0  0  0  0  0
   62.7000   32.6940   49.5670 C   0  0  0  0  0  0  0  0  0  0  0  0
   64.0420   32.2680   50.0380 C   0  0  0  0  0  0  0  0  0  0  0  0
   65.1880   33.0040   49.6790 C   0  0  0  0  0  0  0  0  0  0  0  0
   65.0867   33.8976   49.0456 H   0  0  0  0  0  0  0  0  0  0  0  0
   66.4540   32.6070   50.1220 C   0  0  0  0  0  0  0  0  0  0  0  0
   67.3431   33.1877   49.8351 H   0  0  0  0  0  0  0  0  0  0  0  0
   66.5910   31.4760   50.9270 C   0  0  0  0  0  0  0  0  0  0  0  0
   67.5880   31.1637   51.2713 H   0  0  0  0  0  0  0  0  0  0  0  0
   65.4630   30.7400   51.2960 C   0  0  0  0  0  0  0  0  0  0  0  0
   65.5720   29.8502   51.9334 H   0  0  0  0  0  0  0  0  0  0  0  0
   64.1950   31.1330   50.8560 C   0  0  0  0  0  0  0  0  0  0  0  0
   63.3101   30.5503   51.1516 H   0  0  0  0  0  0  0  0  0  0  0  0
   61.5260   32.2470   50.0820 N   0  0  0  0  0  0  0  0  0  0  0  0
   61.4490   31.5360   50.8420 H   0  0  0  0  0  0  0  0  0  0  0  0
   60.4370   32.7950   49.4740 C   0  0  0  0  0  0  0  0  0  0  0  0
   59.0370   32.4110   49.8390 C   0  0  0  0  0  0  0  0  0  0  0  0
   58.9379   32.3838   50.9342 H   0  0  0  0  0  0  0  0  0  0  0  0
   58.3346   33.1496   49.4255 H   0  0  0  0  0  0  0  0  0  0  0  0
   58.8097   31.4173   49.4255 H   0  0  0  0  0  0  0  0  0  0  0  0
   59.4630   31.7020   46.0500 C   0  0  0  0  0  0  0  0  0  0  0  0
   60.3780   31.5170   46.6319 H   0  0  0  0  0  0  0  0  0  0  0  0
   58.7490   30.6270   45.5130 C   0  0  0  0  0  0  0  0  0  0  0  0
   59.1022   29.5983   45.6774 H   0  0  0  0  0  0  0  0  0  0  0  0
  1  2  1  0
  2  3  1  0
  3  4  2  0
  3  5  2  0
  3  6  1  0
  6  7  2  0
  7  8  1  0
  7  9  1  0
  9 10  1  0
  9 11  2  0
 11 12  1  0
 12 13  2  0
 13 14  1  0
 14 15  1  0
 15 16  1  0
 16 17  1  0
 17 18  2  0
 18 19  1  0
 18 20  1  0
 20 21  1  0
 20 22  2  0
 22 23  1  0
 22 24  1  0
 24 25  1  0
 24 26  2  0
 26 27  1  0
 16 28  2  0
 28 29  1  0
 28 30  1  0
 30 31  1  0
 31 32  1  0
 31 33  1  0
 31 34  1  0
 11 35  1  0
 35 36  1  0
 35 37  2  0
 37 38  1  0
 37  6  1  0
 30 14  2  0
 26 17  1  0
M  CHG  2   2  -1  28   1
M  END
>  <UniqueID>  (2) 
2

>  <SMILES>  (2) 
Cc1[nH+]c(-c2ccccc2)sc1/N=N/c1ccc(S([NH-])(=O)=O)cc1

>  <Energy>  (2) 
70.9312341968705

>  <Genealogy>  (2) 
Cc1[nH+]c(-c2ccccc2)sc1N=Nc1ccc(S([NH-])(=O)=O)cc1 (protonated)
Cc1[nH+]c(-c2ccccc2)sc1/N=N/c1ccc(S([NH-])(=O)=O)cc1 (cis-trans isomerization)
Cc1[nH+]c(-c2ccccc2)sc1/N=N/c1ccc(S([NH-])(=O)=O)cc1 (3D coordinates assigned)
Cc1[nH+]c(-c2ccccc2)sc1/N=N/c1ccc(S([NH-])(=O)=O)cc1 (optimized conformer: 70.9312341968705 kcal/mol)

>  <smiles>  (2) 
Cc1nc(-c2ccccc2)sc1N=Nc1ccc(S(N)(=O)=O)cc1

>  <score_type>  (2) 
oracle

>  <origin>  (2) 
adg

>  <m_score__min__energy>  (2) 
-9.9600000000000009

>  <m_primary>  (2) 
energy

$$$$
2:0
     RDKit          3D

 52 54  0  0  0  0  0  0  0  0999 V2000
   60.8920   28.9210   45.1320 C   0  0  0  0  0  0  0  0  0  0  0  0
   59.5850   28.1920   45.0800 C   0  0  0  0  0  0  0  0  0  0  0  0
   58.8970   28.0360   43.9290 N   0  0  0  0  0  0  0  0  0  0  0  0
   57.7700   27.3960   44.2900 C   0  0  0  0  0  0  0  0  0  0  0  0
   57.7900   27.1780   45.6510 C   0  0  0  0  0  0  0  0  0  0  0  0
   56.7310   26.5470   46.3940 N   0  0  0  0  0  0  0  0  0  0  0  0
   57.0080   25.8130   47.3640 O   0  0  0  0  0  0  0  0  0  0  0  0
   55.4100   26.7130   46.0510 O   0  0  0  0  0  0  0  0  0  0  0  0
   58.9440   27.6710   46.1570 N   0  0  0  0  0  0  0  0  0  0  0  0
   59.3950   27.6990   47.5560 C   0  0  0  0  0  0  0  0  0  0  0  0
   58.5720   28.6970   48.3690 C   0  0  0  0  0  0  0  0  0  0  0  0
   59.3390   29.8740   48.5920 O   0  0  0  0  0  0  0  0  0  0  0  0
   60.2720   29.9900   49.6240 C   0  0  0  0  0  0  0  0  0  0  0  0
   61.0310   29.0250   49.9120 O   0  0  0  0  0  0  0  0  0  0  0  0
   60.3340   31.2410   50.4110 C   0  0  0  0  0  0  0  0  0  0  0  0
   61.4300   32.1140   50.2240 C   0  0  0  0  0  0  0  0  0  0  0  0
   62.4320   31.8000   49.2470 N   0  0  0  0  0  0  0  0  0  0  0  0
   62.2470   32.0900   47.5480 S   0  0  0  0  0  0  0  0  0  0  0  0
   63.2510   33.1280   47.1310 O   0  0  0  0  0  0  0  0  0  0  0  0
   62.5060   30.8390   46.7580 O   0  0  0  0  0  0  0  0  0  0  0  0
   60.6160   32.6830   47.2350 C   0  0  0  0  0  0  0  0  0  0  0  0
   60.2150   33.9470   47.6890 C   0  0  0  0  0  0  0  0  0  0  0  0
   58.9160   34.3990   47.4460 C   0  0  0  0  0  0  0  0  0  0  0  0
   58.0070   33.5920   46.7580 C   0  0  0  0  0  0  0  0  0  0  0  0
   58.3850   32.3140   46.3110 C   0  0  0  0  0  0  0  0  0  0  0  0
   57.4390   31.4710   45.6300 N   0  0  0  0  0  0  0  0  0  0  0  0
   56.6620   31.9460   44.7760 O   0  0  0  0  0  0  0  0  0  0  0  0
   57.3900   30.1220   45.8930 O   0  0  0  0  0  0  0  0  0  0  0  0
   59.7000   31.8720   46.5490 C   0  0  0  0  0  0  0  0  0  0  0  0
   61.5420   33.2690   51.0080 C   0  0  0  0  0  0  0  0  0  0  0  0
   60.6050   33.5420   52.0000 C   0  0  0  0  0  0  0  0  0  0  0  0
   59.5270   32.6830   52.2030 C   0  0  0  0  0  0  0  0  0  0  0  0
   59.3540   31.5400   51.4000 C   0  0  0  0  0  0  0  0  0  0  0  0
   58.1500   30.6460   51.6410 C   0  0  0  0  0  0  0  0  0  0  0  0
   57.4070   30.5500   50.4800 F   0  0  0  0  0  0  0  0  0  0  0  0
   58.5370   29.3710   52.0200 F   0  0  0  0  0  0  0  0  0  0  0  0
   57.3570   31.1590   52.6530 F   0  0  0  0  0  0  0  0  0  0  0  0
   61.1806   29.0820   46.1812 H   0  0  0  0  0  0  0  0  0  0  0  0
   61.6653   28.3239   44.6265 H   0  0  0  0  0  0  0  0  0  0  0  0
   60.7903   29.8927   44.6265 H   0  0  0  0  0  0  0  0  0  0  0  0
   56.9614   27.0947   43.6078 H   0  0  0  0  0  0  0  0  0  0  0  0
   59.2801   26.6959   47.9925 H   0  0  0  0  0  0  0  0  0  0  0  0
   60.4505   28.0076   47.5811 H   0  0  0  0  0  0  0  0  0  0  0  0
   57.6572   28.9550   47.8153 H   0  0  0  0  0  0  0  0  0  0  0  0
   58.3011   28.2473   49.3357 H   0  0  0  0  0  0  0  0  0  0  0  0
   60.9245   34.5840   48.2375 H   0  0  0  0  0  0  0  0  0  0  0  0
   58.6076   35.3945   47.7979 H   0  0  0  0  0  0  0  0  0  0  0  0
   56.9882   33.9591   46.5646 H   0  0  0  0  0  0  0  0  0  0  0  0
   60.0128   30.8793   46.1930 H   0  0  0  0  0  0  0  0  0  0  0  0
   62.3765   33.9653   50.8385 H   0  0  0  0  0  0  0  0  0  0  0  0
   60.7159   34.4395   52.6263 H   0  0  0  0  0  0  0  0  0  0  0  0
   58.8019   32.9008   53.0010 H   0  0  0  0  0  0  0  0  0  0  0  0
  1  2  1  0
  2  3  2  0
  3  4  1  0
  4  5  2  0
  5  6  1  0
  6  7  2  0
  6  8  1  0
  5  9  1  0
  9 10  1  0
 10 11  1  0
 11 12  1  0
 12 13  1  0
 13 14  2  0
 13 15  1  0
 15 16  1  0
 16 17  1  0
 17 18  1  0
 18 19  2  0
 18 20  2  0
 18 21  1  0
 21 22  2  0
 22 23  1  0
 23 24  2  0
 24 25  1  0
 25 26  1  0
 26 27  2  0
 26 28  1  0
 25 29  2  0
 16 30  2  0
 30 31  1  0
 31 32  2  0
 32 33  1  0
 33 34  1  0
 34 35  1  0
 34 36  1  0
 34 37  1  0
  9  2  1  0
 33 15  2  0
 29 21  1  0
  1 38  1  0
  1 39  1  0
  1 40  1  0
  4 41  1  0
 10 42  1  0
 10 43  1  0
 11 44  1  0
 11 45  1  0
 22 46  1  0
 23 47  1  0
 24 48  1  0
 29 49  1  0
 30 50  1  0
 31 51  1  0
 32 52  1  0
M  CHG  5   6   1   8  -1  17  -1  26   1  28  -1
M  END
>  <UniqueID>  (3) 
3

>  <SMILES>  (3) 
Cc1ncc([N+](=O)[O-])n1CCOC(=O)c1c([N-]S(=O)(=O)c2cccc([N+](=O)[O-])c2)cccc1C(F)(F)F

>  <Energy>  (3) 
93.79129563033025

>  <Genealogy>  (3) 
Cc1ncc([N+](=O)[O-])n1CCOC(=O)c1c([N-]S(=O)(=O)c2cccc([N+](=O)[O-])c2)cccc1C(F)(F)F (protonated)
Cc1ncc([N+](=O)[O-])n1CCOC(=O)c1c([N-]S(=O)(=O)c2cccc([N+](=O)[O-])c2)cccc1C(F)(F)F (3D coordinates assigned)
Cc1ncc([N+](=O)[O-])n1CCOC(=O)c1c([N-]S(=O)(=O)c2cccc([N+](=O)[O-])c2)cccc1C(F)(F)F (optimized conformer: 93.79129563033025 kcal/mol)

>  <smiles>  (3) 
Cc1ncc([N+](=O)[O-])n1CCOC(=O)c1c(NS(=O)(=O)c2cccc([N+](=O)[O-])c2)cccc1C(F)(F)F

>  <score_type>  (3) 
oracle

>  <origin>  (3) 
adg

>  <m_score__min__energy>  (3) 
-10.789999999999999

>  <m_primary>  (3) 
energy

$$$$
3:0
     RDKit          3D

 24 24  0  0  0  0  0  0  0  0999 V2000
   59.3496   34.8701   44.3513 H   0  0  0  0  0  0  0  0  0  0  0  0
   58.8200   33.9190   44.5090 C   0  0  0  0  0  0  0  0  0  0  0  0
   58.4500   33.5230   45.8030 C   0  0  0  0  0  0  0  0  0  0  0  0
   58.7300   34.3430   46.9540 N   0  0  0  0  0  0  0  0  0  0  0  0
   58.4650   35.3550   46.9310 H   0  0  0  0  0  0  0  0  0  0  0  0
   59.3690   33.8400   48.1660 C   0  0  0  0  0  0  0  0  0  0  0  0
   58.8528   34.2463   49.0483 H   0  0  0  0  0  0  0  0  0  0  0  0
   59.3124   32.7416   48.1816 H   0  0  0  0  0  0  0  0  0  0  0  0
   60.4234   34.1530   48.1816 H   0  0  0  0  0  0  0  0  0  0  0  0
   57.7850   32.3010   45.9750 C   0  0  0  0  0  0  0  0  0  0  0  0
   57.4795   31.9785   46.9813 H   0  0  0  0  0  0  0  0  0  0  0  0
   57.5070   31.4840   44.8580 C   0  0  0  0  0  0  0  0  0  0  0  0
   56.8820   30.3430   44.9650 N   0  0  0  0  0  0  0  0  0  0  0  0
   56.4120   29.4980   43.9020 C   0  0  0  0  0  0  0  0  0  0  0  0
   55.0740   29.6630   43.4280 N   0  0  0  0  0  0  0  0  0  0  0  0
   54.7120   29.0960   42.6280 H   0  0  0  0  0  0  0  0  0  0  0  0
   54.4380   30.3530   43.8850 H   0  0  0  0  0  0  0  0  0  0  0  0
   57.2190   28.6800   43.2960 N   0  0  0  0  0  0  0  0  0  0  0  0
   58.1520   29.0030   42.9550 H   0  0  0  0  0  0  0  0  0  0  0  0
   56.9690   27.6750   43.1630 H   0  0  0  0  0  0  0  0  0  0  0  0
   57.8650   31.9180   43.6150 N   0  0  0  0  0  0  0  0  0  0  0  0
   57.6490   31.3290   42.7790 H   0  0  0  0  0  0  0  0  0  0  0  0
   58.5120   33.0990   43.4240 C   0  0  0  0  0  0  0  0  0  0  0  0
   58.7941   33.4093   42.4071 H   0  0  0  0  0  0  0  0  0  0  0  0
  1  2  1  0
  2  3  1  0
  3  4  1  0
  4  5  1  0
  4  6  1  0
  6  7  1  0
  6  8  1  0
  6  9  1  0
  3 10  2  0
 10 11  1  0
 10 12  1  0
 12 13  2  0
 13 14  1  0
 14 15  1  0
 15 16  1  0
 15 17  1  0
 14 18  2  0
 18 19  1  0
 18 20  1  0
 12 21  1  0
 21 22  1  0
 21 23  1  0
 23 24  1  0
 23  2  2  0
M  CHG  1  18   1
M  END
>  <UniqueID>  (4) 
4

>  <SMILES>  (4) 
CNc1cc[nH]/c(=N/C(N)=[NH2+])c1

>  <Energy>  (4) 
27.744246287750105

>  <Genealogy>  (4) 
CNc1cc[nH]c(=NC(N)=[NH2+])c1 (protonated)
CNc1cc[nH]/c(=N/C(N)=[NH2+])c1 (cis-trans isomerization)
CNc1cc[nH]/c(=N/C(N)=[NH2+])c1 (3D coordinates assigned)
CNc1cc[nH]/c(=N/C(N)=[NH2+])c1 (optimized conformer: 27.744246287750105 kcal/mol)

>  <smiles>  (4) 
CNc1cc[nH]c(=NC(=N)N)c1

>  <score_type>  (4) 
oracle

>  <origin>  (4) 
adg

>  <m_score__min__energy>  (4) 
-3.7400000000000002

>  <m_primary>  (4) 
energy

$$$$
4:0
     RDKit          3D

 57 60  0  0  0  0  0  0  0  0999 V2000
   56.1830   26.7090   46.3160 O   0  0  0  0  0  0  0  0  0  0  0  0
   57.3990   26.7350   46.4190 C   0  0  0  0  0  0  0  0  0  0  0  0
   58.1850   27.8850   45.8490 C   0  0  1  0  0  0  0  0  0  0  0  0
   57.4100   29.2080   45.9710 C   0  0  0  0  0  0  0  0  0  0  0  0
   57.2950   29.9380   44.6530 C   0  0  0  0  0  0  0  0  0  0  0  0
   58.1290   31.0340   44.3720 C   0  0  0  0  0  0  0  0  0  0  0  0
   58.0300   31.6970   43.1450 C   0  0  0  0  0  0  0  0  0  0  0  0
   57.1000   31.2730   42.1920 C   0  0  0  0  0  0  0  0  0  0  0  0
   56.2750   30.1770   42.4590 C   0  0  0  0  0  0  0  0  0  0  0  0
   56.3730   29.5080   43.6830 C   0  0  0  0  0  0  0  0  0  0  0  0
   59.4750   28.0050   46.5220 N   0  0  0  0  0  0  0  0  0  0  0  0
   59.6430   28.0110   47.9420 C   0  0  0  0  0  0  0  0  0  0  0  0
   59.6680   26.9280   48.5890 O   0  0  0  0  0  0  0  0  0  0  0  0
   59.7510   29.3260   48.6640 C   0  0  1  0  0  0  0  0  0  0  0  0
   61.0600   29.4010   49.4730 C   0  0  0  0  0  0  0  0  0  0  0  0
   61.4700   30.8190   49.7520 C   0  0  0  0  0  0  0  0  0  0  0  0
   61.1760   31.5530   50.8970 C   0  0  0  0  0  0  0  0  0  0  0  0
   61.6510   32.8140   50.7850 N   0  0  0  0  0  0  0  0  0  0  0  0
   62.2390   32.8840   49.5790 C   0  0  0  0  0  0  0  0  0  0  0  0
   62.8790   33.9850   49.0130 C   0  0  0  0  0  0  0  0  0  0  0  0
   63.4270   33.8370   47.7270 C   0  0  0  0  0  0  0  0  0  0  0  0
   63.3210   32.6080   47.0390 C   0  0  0  0  0  0  0  0  0  0  0  0
   62.6700   31.5120   47.6350 C   0  0  0  0  0  0  0  0  0  0  0  0
   62.1430   31.6870   48.9150 C   0  0  0  0  0  0  0  0  0  0  0  0
   59.6800   30.4300   47.7000 N   0  0  0  0  0  0  0  0  0  0  0  0
   59.0240   31.6700   48.0150 C   0  0  0  0  0  0  0  0  0  0  0  0
   58.6850   31.9110   49.2060 O   0  0  0  0  0  0  0  0  0  0  0  0
   58.7480   32.6780   46.9630 C   0  0  0  0  0  0  0  0  0  0  0  0
   57.4290   33.0580   46.6480 C   0  0  0  0  0  0  0  0  0  0  0  0
   57.1850   34.0180   45.6610 C   0  0  0  0  0  0  0  0  0  0  0  0
   58.2510   34.6120   44.9820 C   0  0  0  0  0  0  0  0  0  0  0  0
   59.5640   34.2520   45.2920 C   0  0  0  0  0  0  0  0  0  0  0  0
   59.8140   33.2930   46.2790 C   0  0  0  0  0  0  0  0  0  0  0  0
   57.9228   25.9142   46.9308 H   0  0  0  0  0  0  0  0  0  0  0  0
   58.3505   27.6779   44.7814 H   0  0  0  0  0  0  0  0  0  0  0  0
   56.3978   28.9903   46.3426 H   0  0  0  0  0  0  0  0  0  0  0  0
   57.9658   29.8569   46.6638 H   0  0  0  0  0  0  0  0  0  0  0  0
   58.8619   31.3712   45.1198 H   0  0  0  0  0  0  0  0  0  0  0  0
   58.6853   32.5538   42.9295 H   0  0  0  0  0  0  0  0  0  0  0  0
   57.0173   31.8022   41.2312 H   0  0  0  0  0  0  0  0  0  0  0  0
   55.5478   29.8403   41.7055 H   0  0  0  0  0  0  0  0  0  0  0  0
   55.7262   28.6421   43.8875 H   0  0  0  0  0  0  0  0  0  0  0  0
   58.9107   29.4104   49.3689 H   0  0  0  0  0  0  0  0  0  0  0  0
   60.9162   28.8783   50.4301 H   0  0  0  0  0  0  0  0  0  0  0  0
   61.8548   28.9291   48.8767 H   0  0  0  0  0  0  0  0  0  0  0  0
   60.6334   31.1623   51.7705 H   0  0  0  0  0  0  0  0  0  0  0  0
   61.5700   33.5790   51.4930 H   0  0  0  0  0  0  0  0  0  0  0  0
   62.9530   34.9392   49.5552 H   0  0  0  0  0  0  0  0  0  0  0  0
   63.9425   34.6851   47.2527 H   0  0  0  0  0  0  0  0  0  0  0  0
   63.7500   32.5070   46.0311 H   0  0  0  0  0  0  0  0  0  0  0  0
   62.5796   30.5499   47.1095 H   0  0  0  0  0  0  0  0  0  0  0  0
   60.1620   30.3320   46.7780 H   0  0  0  0  0  0  0  0  0  0  0  0
   56.5852   32.5966   47.1819 H   0  0  0  0  0  0  0  0  0  0  0  0
   56.1513   34.3059   45.4189 H   0  0  0  0  0  0  0  0  0  0  0  0
   58.0563   35.3636   44.2028 H   0  0  0  0  0  0  0  0  0  0  0  0
   60.4030   34.7233   44.7592 H   0  0  0  0  0  0  0  0  0  0  0  0
   60.8507   33.0173   46.5225 H   0  0  0  0  0  0  0  0  0  0  0  0
  1  2  2  0
  2  3  1  0
  3  4  1  0
  4  5  1  0
  5  6  2  0
  6  7  1  0
  7  8  2  0
  8  9  1  0
  9 10  2  0
  3 11  1  0
 11 12  1  0
 12 13  2  0
 12 14  1  0
 14 15  1  0
 15 16  1  0
 16 17  2  0
 17 18  1  0
 18 19  1  0
 19 20  2  0
 20 21  1  0
 21 22  2  0
 22 23  1  0
 23 24  2  0
 14 25  1  0
 25 26  1  0
 26 27  2  0
 26 28  1  0
 28 29  2  0
 29 30  1  0
 30 31  2  0
 31 32  1  0
 32 33  2  0
 10  5  1  0
 24 16  1  0
 33 28  1  0
 24 19  1  0
  2 34  1  0
  3 35  1  6
  4 36  1  0
  4 37  1  0
  6 38  1  0
  7 39  1  0
  8 40  1  0
  9 41  1  0
 10 42  1  0
 14 43  1  1
 15 44  1  0
 15 45  1  0
 17 46  1  0
 18 47  1  0
 20 48  1  0
 21 49  1  0
 22 50  1  0
 23 51  1  0
 25 52  1  0
 29 53  1  0
 30 54  1  0
 31 55  1  0
 32 56  1  0
 33 57  1  0
M  CHG  1  11  -1
M  END
>  <UniqueID>  (5) 
5

>  <SMILES>  (5) 
O=C[C@@H](Cc1ccccc1)[N-]C(=O)[C@@H](Cc1c[nH]c2ccccc12)NC(=O)c1ccccc1

>  <Energy>  (5) 
82.36129484930791

>  <Genealogy>  (5) 
O=CC(Cc1ccccc1)[N-]C(=O)C(Cc1c[nH]c2ccccc12)NC(=O)c1ccccc1 (protonated)
O=C[C@@H](Cc1ccccc1)[N-]C(=O)[C@@H](Cc1c[nH]c2ccccc12)NC(=O)c1ccccc1 (chirality)
O=C[C@@H](Cc1ccccc1)[N-]C(=O)[C@@H](Cc1c[nH]c2ccccc12)NC(=O)c1ccccc1 (3D coordinates assigned)
O=C[C@@H](Cc1ccccc1)[N-]C(=O)[C@@H](Cc1c[nH]c2ccccc12)NC(=O)c1ccccc1 (optimized conformer: 82.36129484930791 kcal/mol)

>  <smiles>  (5) 
O=CC(Cc1ccccc1)NC(=O)C(Cc1c[nH]c2ccccc12)NC(=O)c1ccccc1

>  <score_type>  (5) 
oracle

>  <origin>  (5) 
adg

>  <m_score__min__energy>  (5) 
-11.369999999999999

>  <m_primary>  (5) 
energy

$$$$
5:0
     RDKit          3D

 49 53  0  0  0  0  0  0  0  0999 V2000
   59.5407   25.9934   46.0496 H   0  0  0  0  0  0  0  0  0  0  0  0
   59.4410   26.7360   46.8550 C   0  0  0  0  0  0  0  0  0  0  0  0
   58.6300   27.8120   46.6880 N   0  0  0  0  0  0  0  0  0  0  0  0
   58.4890   28.7390   47.6690 C   0  0  0  0  0  0  0  0  0  0  0  0
   57.8278   29.6045   47.5151 H   0  0  0  0  0  0  0  0  0  0  0  0
   59.1850   28.5960   48.8800 C   0  0  0  0  0  0  0  0  0  0  0  0
   59.0610   29.5760   49.9320 N   0  0  0  0  0  0  0  0  0  0  0  0
   59.1210   29.0930   50.8540 H   0  0  0  0  0  0  0  0  0  0  0  0
   58.1140   30.0220   49.9030 H   0  0  0  0  0  0  0  0  0  0  0  0
   60.0560   30.6160   49.7780 C   0  0  0  0  0  0  0  0  0  0  0  0
   59.8790   31.9310   50.2820 C   0  0  0  0  0  0  0  0  0  0  0  0
   58.6880   32.3520   51.0520 C   0  0  0  0  0  0  0  0  0  0  0  0
   58.7840   33.3010   51.8730 O   0  0  0  0  0  0  0  0  0  0  0  0
   57.3870   31.7930   50.8020 N   0  0  0  0  0  0  0  0  0  0  0  0
   56.7610   30.9080   51.5260 C   0  0  0  0  0  0  0  0  0  0  0  0
   57.3890   29.7860   51.9740 N   0  0  0  0  0  0  0  0  0  0  0  0
   56.7530   28.8630   52.7420 C   0  0  0  0  0  0  0  0  0  0  0  0
   57.2926   27.9677   53.0843 H   0  0  0  0  0  0  0  0  0  0  0  0
   55.4170   29.0490   53.0970 C   0  0  0  0  0  0  0  0  0  0  0  0
   54.9019   28.3052   53.7227 H   0  0  0  0  0  0  0  0  0  0  0  0
   54.7340   30.1910   52.6510 C   0  0  0  0  0  0  0  0  0  0  0  0
   53.3220   30.4330   53.0290 C   0  0  0  0  0  0  0  0  0  0  0  0
   52.8610   29.8750   54.0620 O   0  0  0  0  0  0  0  0  0  0  0  0
   52.4370   31.3200   52.2470 C   0  0  0  0  0  0  0  0  0  0  0  0
   52.4290   31.4780   50.8780 C   0  0  0  0  0  0  0  0  0  0  0  0
   53.1175   30.9875   50.1742 H   0  0  0  0  0  0  0  0  0  0  0  0
   51.4420   32.3300   50.5410 N   0  0  0  0  0  0  0  0  0  0  0  0
   50.8180   32.7120   51.6440 N   0  0  0  0  0  0  0  0  0  0  0  0
   51.3990   32.1090   52.6990 C   0  0  0  0  0  0  0  0  0  0  0  0
   51.0955   32.2264   53.7498 H   0  0  0  0  0  0  0  0  0  0  0  0
   55.4240   31.1350   51.8740 C   0  0  0  0  0  0  0  0  0  0  0  0
   54.9153   32.0511   51.5393 H   0  0  0  0  0  0  0  0  0  0  0  0
   60.8280   32.8750   50.0340 N   0  0  0  0  0  0  0  0  0  0  0  0
   61.9560   32.6330   49.3160 C   0  0  0  0  0  0  0  0  0  0  0  0
   62.9130   33.7910   49.1180 C   0  0  0  0  0  0  0  0  0  0  0  0
   62.2903   34.4860   49.7004 H   0  0  0  0  0  0  0  0  0  0  0  0
   63.6540   33.8580   47.7900 C   0  0  0  0  0  0  0  0  0  0  0  0
   63.4624   33.1019   47.0144 H   0  0  0  0  0  0  0  0  0  0  0  0
   63.7870   34.6232   47.0110 H   0  0  0  0  0  0  0  0  0  0  0  0
   64.4010   33.4730   49.0620 C   0  0  0  0  0  0  0  0  0  0  0  0
   64.7484   32.4391   49.2044 H   0  0  0  0  0  0  0  0  0  0  0  0
   65.2964   33.8451   49.5815 H   0  0  0  0  0  0  0  0  0  0  0  0
   62.1600   31.3460   48.7930 C   0  0  0  0  0  0  0  0  0  0  0  0
   63.0642   31.1237   48.2074 H   0  0  0  0  0  0  0  0  0  0  0  0
   61.2110   30.3530   49.0200 C   0  0  0  0  0  0  0  0  0  0  0  0
   61.3668   29.3482   48.6004 H   0  0  0  0  0  0  0  0  0  0  0  0
   60.0190   27.4770   49.0230 C   0  0  0  0  0  0  0  0  0  0  0  0
   60.5851   27.3300   49.9546 H   0  0  0  0  0  0  0  0  0  0  0  0
   60.1290   26.5750   48.0140 N   0  0  0  0  0  0  0  0  0  0  0  0
  1  2  1  0
  2  3  2  0
  3  4  1  0
  4  5  1  0
  4  6  2  0
  6  7  1  0
  7  8  1  0
  7  9  1  0
  7 10  1  0
 10 11  1  0
 11 12  1  0
 12 13  2  0
 12 14  1  0
 14 15  2  0
 15 16  1  0
 16 17  1  0
 17 18  1  0
 17 19  2  0
 19 20  1  0
 19 21  1  0
 21 22  1  0
 22 23  2  0
 22 24  1  0
 24 25  1  0
 25 26  1  0
 25 27  2  0
 27 28  1  0
 28 29  1  0
 29 30  1  0
 21 31  2  0
 31 32  1  0
 11 33  2  0
 33 34  1  0
 34 35  1  0
 35 36  1  0
 35 37  1  0
 37 38  1  0
 37 39  1  0
 37 40  1  0
 40 41  1  0
 40 42  1  0
 34 43  2  0
 43 44  1  0
 43 45  1  0
 45 46  1  0
  6 47  1  0
 47 48  1  0
 47 49  2  0
 49  2  1  0
 45 10  2  0
 31 15  1  0
 40 35  1  0
 29 24  2  0
M  CHG  3   7   1  16  -1  28  -1
M  END
>  <UniqueID>  (6) 
6

>  <SMILES>  (6) 
O=C(c1cn[n-]c1)c1cc[n-]/c(=N\C(=O)c2nc(C3CC3)ccc2[NH2+]c2cncnc2)c1

>  <Energy>  (6) 
372.41702100360425

>  <Genealogy>  (6) 
O=C(c1cn[n-]c1)c1cc[n-]c(=NC(=O)c2nc(C3CC3)ccc2[NH2+]c2cncnc2)c1 (protonated)
O=C(c1cn[n-]c1)c1cc[n-]/c(=N\C(=O)c2nc(C3CC3)ccc2[NH2+]c2cncnc2)c1 (cis-trans isomerization)
O=C(c1cn[n-]c1)c1cc[n-]/c(=N\C(=O)c2nc(C3CC3)ccc2[NH2+]c2cncnc2)c1 (3D coordinates assigned)
O=C(c1cn[n-]c1)c1cc[n-]/c(=N\C(=O)c2nc(C3CC3)ccc2[NH2+]c2cncnc2)c1 (nonaromatic ring conformer: 372.41702100360425 kcal/mol)

>  <smiles>  (6) 
O=C(c1cn[nH]c1)c1cc[nH]c(=NC(=O)c2nc(C3CC3)ccc2Nc2cncnc2)c1

>  <score_type>  (6) 
oracle

>  <origin>  (6) 
adg

>  <m_score__min__energy>  (6) 
-11.26

>  <m_primary>  (6) 
energy

$$$$
6:0
     RDKit          3D

 37 39  0  0  0  0  0  0  0  0999 V2000
   65.3580   33.4650   50.1530 C   0  0  0  0  0  0  0  0  0  0  0  0
   64.0390   33.2730   49.4630 C   0  0  0  0  0  0  0  0  0  0  0  0
   63.9890   33.0850   48.0750 C   0  0  0  0  0  0  0  0  0  0  0  0
   62.7590   32.9420   47.4260 C   0  0  0  0  0  0  0  0  0  0  0  0
   61.5550   33.0010   48.1520 C   0  0  0  0  0  0  0  0  0  0  0  0
   60.2500   32.8510   47.4610 C   0  0  0  0  0  0  0  0  0  0  0  0
   59.2380   33.8020   47.4000 C   0  0  0  0  0  0  0  0  0  0  0  0
   58.2520   33.1900   46.6580 C   0  0  0  0  0  0  0  0  0  0  0  0
   57.1310   33.6980   46.3860 O   0  0  0  0  0  0  0  0  0  0  0  0
   58.6440   31.9540   46.2920 N   0  0  0  0  0  0  0  0  0  0  0  0
   57.9020   30.9870   45.5250 C   0  0  0  0  0  0  0  0  0  0  0  0
   57.3350   31.3330   44.2850 C   0  0  0  0  0  0  0  0  0  0  0  0
   56.6210   30.3870   43.5470 C   0  0  0  0  0  0  0  0  0  0  0  0
   56.4680   29.0860   44.0310 C   0  0  0  0  0  0  0  0  0  0  0  0
   57.0400   28.7210   45.2570 C   0  0  0  0  0  0  0  0  0  0  0  0
   56.8380   27.0870   45.8800 S   0  0  0  0  0  0  0  0  0  0  0  0
   55.1550   26.7090   45.9760 N   0  0  0  0  0  0  0  0  0  0  0  0
   57.4570   26.9840   47.2450 O   0  0  0  0  0  0  0  0  0  0  0  0
   57.5190   26.1050   44.9670 O   0  0  0  0  0  0  0  0  0  0  0  0
   57.7500   29.6740   46.0010 C   0  0  0  0  0  0  0  0  0  0  0  0
   59.8570   31.7470   46.7850 N   0  0  0  0  0  0  0  0  0  0  0  0
   61.6120   33.2070   49.5420 C   0  0  0  0  0  0  0  0  0  0  0  0
   62.8440   33.3480   50.1900 C   0  0  0  0  0  0  0  0  0  0  0  0
   65.2084   33.4432   51.2426 H   0  0  0  0  0  0  0  0  0  0  0  0
   66.0455   32.6575   49.8611 H   0  0  0  0  0  0  0  0  0  0  0  0
   65.7868   34.4350   49.8611 H   0  0  0  0  0  0  0  0  0  0  0  0
   64.9220   33.0498   47.4935 H   0  0  0  0  0  0  0  0  0  0  0  0
   62.7322   32.7819   46.3380 H   0  0  0  0  0  0  0  0  0  0  0  0
   59.2271   34.8094   47.8417 H   0  0  0  0  0  0  0  0  0  0  0  0
   57.4548   32.3544   43.8947 H   0  0  0  0  0  0  0  0  0  0  0  0
   56.1772   30.6676   42.5804 H   0  0  0  0  0  0  0  0  0  0  0  0
   55.8978   28.3469   43.4491 H   0  0  0  0  0  0  0  0  0  0  0  0
   54.8100   27.0880   46.8860 H   0  0  0  0  0  0  0  0  0  0  0  0
   58.1926   29.3907   46.9674 H   0  0  0  0  0  0  0  0  0  0  0  0
   60.4010   30.8650   46.6610 H   0  0  0  0  0  0  0  0  0  0  0  0
   60.6803   33.2577   50.1246 H   0  0  0  0  0  0  0  0  0  0  0  0
   62.8744   33.5187   51.2763 H   0  0  0  0  0  0  0  0  0  0  0  0
  1  2  1  0
  2  3  2  0
  3  4  1  0
  4  5  2  0
  5  6  1  0
  6  7  2  0
  7  8  1  0
  8  9  2  0
  8 10  1  0
 10 11  1  0
 11 12  2  0
 12 13  1  0
 13 14  2  0
 14 15  1  0
 15 16  1  0
 16 17  1  0
 16 18  2  0
 16 19  2  0
 15 20  2  0
 10 21  1  0
  5 22  1  0
 22 23  2  0
 23  2  1  0
 21  6  1  0
 20 11  1  0
  1 24  1  0
  1 25  1  0
  1 26  1  0
  3 27  1  0
  4 28  1  0
  7 29  1  0
 12 30  1  0
 13 31  1  0
 14 32  1  0
 17 33  1  0
 20 34  1  0
 21 35  1  0
 22 36  1  0
 23 37  1  0
M  CHG  1  17  -1
M  END
>  <UniqueID>  (7) 
7

>  <SMILES>  (7) 
Cc1ccc(-c2cc(=O)n(-c3cccc(S([NH-])(=O)=O)c3)[nH]2)cc1

>  <Energy>  (7) 
77.87613815454424

>  <Genealogy>  (7) 
Cc1ccc(-c2cc(=O)n(-c3cccc(S([NH-])(=O)=O)c3)[nH]2)cc1 (protonated)
Cc1ccc(-c2cc(=O)n(-c3cccc(S([NH-])(=O)=O)c3)[nH]2)cc1 (3D coordinates assigned)
Cc1ccc(-c2cc(=O)n(-c3cccc(S([NH-])(=O)=O)c3)[nH]2)cc1 (optimized conformer: 77.87613815454424 kcal/mol)

>  <smiles>  (7) 
Cc1ccc(-c2cc(=O)n(-c3cccc(S(N)(=O)=O)c3)[nH]2)cc1

>  <score_type>  (7) 
oracle

>  <origin>  (7) 
adg

>  <m_score__min__energy>  (7) 
-10.960000000000001

>  <m_primary>  (7) 
energy

$$$$
7:0
     RDKit          3D

 42 43  0  0  0  0  0  0  0  0999 V2000
   57.3820   31.3760   42.9590 C   0  0  0  0  0  0  0  0  0  0  0  0
   56.5500   30.9630   43.9190 C   0  0  0  0  0  0  0  0  0  0  0  0
   55.6650   29.7640   43.7260 C   0  0  0  0  0  0  0  0  0  0  0  0
   55.5860   28.9910   44.9240 O   0  0  0  0  0  0  0  0  0  0  0  0
   56.6640   28.3350   45.5450 C   0  0  0  0  0  0  0  0  0  0  0  0
   57.9160   28.9520   45.7310 C   0  0  0  0  0  0  0  0  0  0  0  0
   58.9730   28.2700   46.3610 C   0  0  0  0  0  0  0  0  0  0  0  0
   60.2880   28.9420   46.5490 C   0  0  0  0  0  0  0  0  0  0  0  0
   61.0240   29.1580   45.5460 O   0  0  0  0  0  0  0  0  0  0  0  0
   60.7720   29.3570   47.9140 C   0  0  0  0  0  0  0  0  0  0  0  0
   59.8970   30.3730   48.4910 N   0  0  0  0  0  0  0  0  0  0  0  0
   60.1430   31.7790   48.3960 C   0  0  0  0  0  0  0  0  0  0  0  0
   60.9320   32.3230   49.2140 O   0  0  0  0  0  0  0  0  0  0  0  0
   59.4730   32.6110   47.3820 C   0  0  0  0  0  0  0  0  0  0  0  0
   58.0780   32.5480   47.2590 C   0  0  0  0  0  0  0  0  0  0  0  0
   57.4180   33.3160   46.2960 C   0  0  0  0  0  0  0  0  0  0  0  0
   58.1470   34.1600   45.4550 C   0  0  0  0  0  0  0  0  0  0  0  0
   57.5060   34.9050   44.5220 F   0  0  0  0  0  0  0  0  0  0  0  0
   59.5370   34.2410   45.5800 C   0  0  0  0  0  0  0  0  0  0  0  0
   60.2060   33.4750   46.5420 C   0  0  0  0  0  0  0  0  0  0  0  0
   61.9520   33.6480   46.6980 Cl  0  0  0  0  0  0  0  0  0  0  0  0
   58.7580   26.9500   46.7990 C   0  0  0  0  0  0  0  0  0  0  0  0
   57.5220   26.3320   46.6140 C   0  0  0  0  0  0  0  0  0  0  0  0
   56.4670   27.0180   45.9880 C   0  0  0  0  0  0  0  0  0  0  0  0
   55.2090   26.4290   45.7880 O   0  0  0  0  0  0  0  0  0  0  0  0
   54.9910   25.0330   45.6030 C   0  0  0  0  0  0  0  0  0  0  0  0
   58.0196   32.2568   43.1252 H   0  0  0  0  0  0  0  0  0  0  0  0
   57.4295   30.8353   42.0023 H   0  0  0  0  0  0  0  0  0  0  0  0
   56.5119   31.5124   44.8712 H   0  0  0  0  0  0  0  0  0  0  0  0
   54.6558   30.1022   43.4484 H   0  0  0  0  0  0  0  0  0  0  0  0
   56.0922   29.1362   42.9302 H   0  0  0  0  0  0  0  0  0  0  0  0
   58.0699   29.9826   45.3785 H   0  0  0  0  0  0  0  0  0  0  0  0
   60.7860   28.4770   48.5739 H   0  0  0  0  0  0  0  0  0  0  0  0
   61.7828   29.7794   47.8147 H   0  0  0  0  0  0  0  0  0  0  0  0
   57.4995   31.8902   47.9244 H   0  0  0  0  0  0  0  0  0  0  0  0
   56.3238   33.2559   46.2002 H   0  0  0  0  0  0  0  0  0  0  0  0
   60.1079   34.9099   44.9192 H   0  0  0  0  0  0  0  0  0  0  0  0
   59.5732   26.4003   47.2922 H   0  0  0  0  0  0  0  0  0  0  0  0
   57.3713   25.2990   46.9608 H   0  0  0  0  0  0  0  0  0  0  0  0
   54.9141   24.5408   46.5837 H   0  0  0  0  0  0  0  0  0  0  0  0
   54.0579   24.8789   45.0412 H   0  0  0  0  0  0  0  0  0  0  0  0
   55.8327   24.6017   45.0412 H   0  0  0  0  0  0  0  0  0  0  0  0
  1  2  2  0
  2  3  1  0
  3  4  1  0
  4  5  1  0
  5  6  2  0
  6  7  1  0
  7  8  1  0
  8  9  2  0
  8 10  1  0
 10 11  1  0
 11 12  1  0
 12 13  2  0
 12 14  1  0
 14 15  2  0
 15 16  1  0
 16 17  2  0
 17 18  1  0
 17 19  1  0
 19 20  2  0
 20 21  1  0
  7 22  2  0
 22 23  1  0
 23 24  2  0
 24 25  1  0
 25 26  1  0
 24  5  1  0
 20 14  1  0
  1 27  1  0
  1 28  1  0
  2 29  1  0
  3 30  1  0
  3 31  1  0
  6 32  1  0
 10 33  1  0
 10 34  1  0
 15 35  1  0
 16 36  1  0
 19 37  1  0
 22 38  1  0
 23 39  1  0
 26 40  1  0
 26 41  1  0
 26 42  1  0
M  CHG  1  11  -1
M  END
>  <UniqueID>  (8) 
8

>  <SMILES>  (8) 
C=CCOc1cc(C(=O)C[N-]C(=O)c2ccc(F)cc2Cl)ccc1OC

>  <Energy>  (8) 
46.61677504466384

>  <Genealogy>  (8) 
C=CCOc1cc(C(=O)C[N-]C(=O)c2ccc(F)cc2Cl)ccc1OC (protonated)
C=CCOc1cc(C(=O)C[N-]C(=O)c2ccc(F)cc2Cl)ccc1OC (3D coordinates assigned)
C=CCOc1cc(C(=O)C[N-]C(=O)c2ccc(F)cc2Cl)ccc1OC (optimized conformer: 46.61677504466384 kcal/mol)

>  <smiles>  (8) 
C=CCOc1cc(C(=O)CNC(=O)c2ccc(F)cc2Cl)ccc1OC

>  <score_type>  (8) 
oracle

>  <origin>  (8) 
adg

>  <m_score__min__energy>  (8) 
-9.2300000000000004

>  <m_primary>  (8) 
energy

$$$$
8:0
     RDKit          3D

 49 52  0  0  0  0  0  0  0  0999 V2000
   57.3850   32.3840   40.8710 C   0  0  0  0  0  0  0  0  0  0  0  0
   57.4130   31.4670   41.9630 O   0  0  0  0  0  0  0  0  0  0  0  0
   57.8480   31.7890   43.2560 C   0  0  0  0  0  0  0  0  0  0  0  0
   58.4120   30.8330   44.1220 C   0  0  0  0  0  0  0  0  0  0  0  0
   58.8440   31.2080   45.3970 C   0  0  0  0  0  0  0  0  0  0  0  0
   58.7090   32.5340   45.8300 C   0  0  0  0  0  0  0  0  0  0  0  0
   59.3230   33.0180   47.4070 S   0  0  0  0  0  0  0  0  0  0  0  0
   58.5230   32.3440   48.4880 O   0  0  0  0  0  0  0  0  0  0  0  0
   59.1780   34.5030   47.5870 O   0  0  0  0  0  0  0  0  0  0  0  0
   60.9870   32.5260   47.5350 N   0  0  0  0  0  0  0  0  0  0  0  0
   62.0440   33.5280   47.3620 C   0  0  0  0  0  0  0  0  0  0  0  0
   63.0660   33.3020   48.4960 C   0  0  0  0  0  0  0  0  0  0  0  0
   62.6040   32.0360   49.1110 C   0  0  0  0  0  0  0  0  0  0  0  0
   63.2220   31.3120   50.1320 C   0  0  0  0  0  0  0  0  0  0  0  0
   62.6410   30.1040   50.5440 C   0  0  0  0  0  0  0  0  0  0  0  0
   61.4760   29.6290   49.9160 C   0  0  0  0  0  0  0  0  0  0  0  0
   60.8720   30.3710   48.8860 C   0  0  0  0  0  0  0  0  0  0  0  0
   59.7820   29.8050   48.1600 N   0  0  0  0  0  0  0  0  0  0  0  0
   60.0160   28.4120   47.1620 S   0  0  0  0  0  0  0  0  0  0  0  0
   60.8170   28.7880   45.9500 O   0  0  0  0  0  0  0  0  0  0  0  0
   60.7740   27.3720   47.9370 O   0  0  0  0  0  0  0  0  0  0  0  0
   58.4560   27.7580   46.6720 C   0  0  0  0  0  0  0  0  0  0  0  0
   58.0050   26.5370   47.1900 C   0  0  0  0  0  0  0  0  0  0  0  0
   56.7360   26.0560   46.8530 C   0  0  0  0  0  0  0  0  0  0  0  0
   55.9110   26.7960   45.9980 C   0  0  0  0  0  0  0  0  0  0  0  0
   54.6440   26.3270   45.6760 O   0  0  0  0  0  0  0  0  0  0  0  0
   56.3590   28.0120   45.4750 C   0  0  0  0  0  0  0  0  0  0  0  0
   57.6270   28.4930   45.8110 C   0  0  0  0  0  0  0  0  0  0  0  0
   61.4400   31.6100   48.5280 C   0  0  0  0  0  0  0  0  0  0  0  0
   58.1460   33.4860   44.9710 C   0  0  0  0  0  0  0  0  0  0  0  0
   57.7190   33.1140   43.6930 C   0  0  0  0  0  0  0  0  0  0  0  0
   57.3536   33.4134   41.2574 H   0  0  0  0  0  0  0  0  0  0  0  0
   58.2876   32.2503   40.2567 H   0  0  0  0  0  0  0  0  0  0  0  0
   56.4922   32.1955   40.2567 H   0  0  0  0  0  0  0  0  0  0  0  0
   58.5129   29.7879   43.7941 H   0  0  0  0  0  0  0  0  0  0  0  0
   59.2927   30.4579   46.0648 H   0  0  0  0  0  0  0  0  0  0  0  0
   62.5301   33.3999   46.3836 H   0  0  0  0  0  0  0  0  0  0  0  0
   61.6310   34.5468   47.4015 H   0  0  0  0  0  0  0  0  0  0  0  0
   64.0852   33.1984   48.0953 H   0  0  0  0  0  0  0  0  0  0  0  0
   63.1156   34.1383   49.2089 H   0  0  0  0  0  0  0  0  0  0  0  0
   64.1449   31.6811   50.6033 H   0  0  0  0  0  0  0  0  0  0  0  0
   63.0980   29.5263   51.3609 H   0  0  0  0  0  0  0  0  0  0  0  0
   61.0351   28.6721   50.2322 H   0  0  0  0  0  0  0  0  0  0  0  0
   58.6510   25.9550   47.8638 H   0  0  0  0  0  0  0  0  0  0  0  0
   56.3860   25.0958   47.2599 H   0  0  0  0  0  0  0  0  0  0  0  0
   55.7130   28.5908   44.7984 H   0  0  0  0  0  0  0  0  0  0  0  0
   57.9766   29.4512   45.3991 H   0  0  0  0  0  0  0  0  0  0  0  0
   58.0395   34.5293   45.3028 H   0  0  0  0  0  0  0  0  0  0  0  0
   57.2779   33.8681   43.0246 H   0  0  0  0  0  0  0  0  0  0  0  0
  1  2  1  0
  2  3  1  0
  3  4  2  0
  4  5  1  0
  5  6  2  0
  6  7  1  0
  7  8  2  0
  7  9  2  0
  7 10  1  0
 10 11  1  0
 11 12  1  0
 12 13  1  0
 13 14  2  0
 14 15  1  0
 15 16  2  0
 16 17  1  0
 17 18  1  0
 18 19  1  0
 19 20  2  0
 19 21  2  0
 19 22  1  0
 22 23  2  0
 23 24  1  0
 24 25  2  0
 25 26  1  0
 25 27  1  0
 27 28  2  0
 17 29  2  0
  6 30  1  0
 30 31  2  0
 31  3  1  0
 29 10  1  0
 29 13  1  0
 28 22  1  0
  1 32  1  0
  1 33  1  0
  1 34  1  0
  4 35  1  0
  5 36  1  0
 11 37  1  0
 11 38  1  0
 12 39  1  0
 12 40  1  0
 14 41  1  0
 15 42  1  0
 16 43  1  0
 23 44  1  0
 24 45  1  0
 27 46  1  0
 28 47  1  0
 30 48  1  0
 31 49  1  0
M  CHG  2  18  -1  26  -1
M  END
>  <UniqueID>  (9) 
9

>  <SMILES>  (9) 
COc1ccc(S(=O)(=O)N2CCc3cccc([N-]S(=O)(=O)c4ccc([O-])cc4)c32)cc1

>  <Energy>  (9) 
77.85437837800598

>  <Genealogy>  (9) 
COc1ccc(S(=O)(=O)N2CCc3cccc([N-]S(=O)(=O)c4ccc([O-])cc4)c32)cc1 (protonated)
COc1ccc(S(=O)(=O)N2CCc3cccc([N-]S(=O)(=O)c4ccc([O-])cc4)c32)cc1 (3D coordinates assigned)
COc1ccc(S(=O)(=O)N2CCc3cccc([N-]S(=O)(=O)c4ccc([O-])cc4)c32)cc1 (nonaromatic ring conformer: 77.85437837800598 kcal/mol)

>  <smiles>  (9) 
COc1ccc(S(=O)(=O)N2CCc3cccc(NS(=O)(=O)c4ccc(O)cc4)c32)cc1

>  <score_type>  (9) 
oracle

>  <origin>  (9) 
adg

>  <m_score__min__energy>  (9) 
-12.41

>  <m_primary>  (9) 
energy

$$$$
9:0
     RDKit          3D

 29 30  0  0  0  0  0  0  0  0999 V2000
   57.8110   32.1080   42.4870 C   0  0  0  0  0  0  0  0  0  0  0  0
   57.4050   31.9890   43.7570 C   0  0  0  0  0  0  0  0  0  0  0  0
   56.4830   30.8550   44.1430 C   0  0  0  0  0  0  0  0  0  0  0  0
   57.2850   29.6120   44.4210 C   0  0  0  0  0  0  0  0  0  0  0  0
   57.3970   28.6090   43.4440 C   0  0  0  0  0  0  0  0  0  0  0  0
   58.1770   27.4740   43.6890 C   0  0  0  0  0  0  0  0  0  0  0  0
   58.8570   27.3390   44.9030 C   0  0  0  0  0  0  0  0  0  0  0  0
   58.7610   28.3390   45.8730 C   0  0  0  0  0  0  0  0  0  0  0  0
   57.9820   29.4750   45.6340 C   0  0  0  0  0  0  0  0  0  0  0  0
   57.9440   32.8950   44.8020 C   0  0  0  0  0  0  0  0  0  0  0  0
   58.8600   33.9090   44.4640 C   0  0  0  0  0  0  0  0  0  0  0  0
   59.3850   34.7460   45.4540 C   0  0  0  0  0  0  0  0  0  0  0  0
   59.0020   34.5820   46.7860 C   0  0  0  0  0  0  0  0  0  0  0  0
   58.0940   33.5800   47.1330 C   0  0  0  0  0  0  0  0  0  0  0  0
   57.5660   32.7380   46.1490 C   0  0  0  0  0  0  0  0  0  0  0  0
   58.4819   32.9307   42.1989 H   0  0  0  0  0  0  0  0  0  0  0  0
   57.4737   31.3831   41.7315 H   0  0  0  0  0  0  0  0  0  0  0  0
   55.9196   31.1345   45.0455 H   0  0  0  0  0  0  0  0  0  0  0  0
   55.7864   30.6578   43.3148 H   0  0  0  0  0  0  0  0  0  0  0  0
   56.8703   28.7163   42.4843 H   0  0  0  0  0  0  0  0  0  0  0  0
   58.2555   26.6863   42.9252 H   0  0  0  0  0  0  0  0  0  0  0  0
   59.4680   26.4445   45.0943 H   0  0  0  0  0  0  0  0  0  0  0  0
   59.2991   28.2327   46.8265 H   0  0  0  0  0  0  0  0  0  0  0  0
   57.9143   30.2640   46.3975 H   0  0  0  0  0  0  0  0  0  0  0  0
   59.1646   34.0438   43.4156 H   0  0  0  0  0  0  0  0  0  0  0  0
   60.1013   35.5353   45.1821 H   0  0  0  0  0  0  0  0  0  0  0  0
   59.4156   35.2423   47.5625 H   0  0  0  0  0  0  0  0  0  0  0  0
   57.7930   33.4524   48.1833 H   0  0  0  0  0  0  0  0  0  0  0  0
   56.8520   31.9494   46.4289 H   0  0  0  0  0  0  0  0  0  0  0  0
  1  2  2  0
  2  3  1  0
  3  4  1  0
  4  5  2  0
  5  6  1  0
  6  7  2  0
  7  8  1  0
  8  9  2  0
  2 10  1  0
 10 11  2  0
 11 12  1  0
 12 13  2  0
 13 14  1  0
 14 15  2  0
  9  4  1  0
 15 10  1  0
  1 16  1  0
  1 17  1  0
  3 18  1  0
  3 19  1  0
  5 20  1  0
  6 21  1  0
  7 22  1  0
  8 23  1  0
  9 24  1  0
 11 25  1  0
 12 26  1  0
 13 27  1  0
 14 28  1  0
 15 29  1  0
M  END
>  <UniqueID>  (10) 
10

>  <SMILES>  (10) 
C=C(Cc1ccccc1)c1ccccc1

>  <Energy>  (10) 
32.06704456904913

>  <Genealogy>  (10) 
C=C(Cc1ccccc1)c1ccccc1 (3D coordinates assigned)
C=C(Cc1ccccc1)c1ccccc1 (optimized conformer: 32.06704456904913 kcal/mol)

>  <smiles>  (10) 
C=C(Cc1ccccc1)c1ccccc1

>  <score_type>  (10) 
oracle

>  <origin>  (10) 
adg

>  <m_score__min__energy>  (10) 
-6.3300000000000001

>  <m_primary>  (10) 
energy

$$$$
10:0
     RDKit          3D

 44 47  0  0  0  0  0  0  0  0999 V2000
   50.2620   32.7520   52.0990 O   0  0  0  0  0  0  0  0  0  0  0  0
   51.1260   32.2030   51.3650 C   0  0  0  0  0  0  0  0  0  0  0  0
   51.0160   32.3290   49.9850 O   0  0  0  0  0  0  0  0  0  0  0  0
   52.2410   31.4340   51.9620 C   0  0  0  0  0  0  0  0  0  0  0  0
   53.4320   31.2250   51.2470 C   0  0  0  0  0  0  0  0  0  0  0  0
   54.4820   30.4970   51.8150 C   0  0  0  0  0  0  0  0  0  0  0  0
   54.3670   29.9710   53.1120 C   0  0  0  0  0  0  0  0  0  0  0  0
   55.4500   29.2150   53.6850 N   0  0  0  0  0  0  0  0  0  0  0  0
   55.4110   28.5310   54.9880 C   0  0  0  0  0  0  0  0  0  0  0  0
   56.8920   28.2600   55.2320 C   0  0  1  0  0  0  0  0  0  0  0  0
   57.5350   27.1990   56.0870 C   0  0  0  0  0  0  0  0  0  0  0  0
   58.9010   27.0570   55.4960 N   0  0  1  0  0  0  0  0  0  0  0  0
   59.4070   25.6590   55.4660 C   0  0  0  0  0  0  0  0  0  0  0  0
   60.3860   25.3490   54.3460 C   0  0  0  0  0  0  0  0  0  0  0  0
   59.9280   24.8950   53.0970 C   0  0  0  0  0  0  0  0  0  0  0  0
   60.8360   24.6010   52.0790 C   0  0  0  0  0  0  0  0  0  0  0  0
   62.2020   24.7330   52.3240 C   0  0  0  0  0  0  0  0  0  0  0  0
   62.6380   25.1260   53.5480 N   0  0  0  0  0  0  0  0  0  0  0  0
   61.7750   25.4240   54.5560 C   0  0  0  0  0  0  0  0  0  0  0  0
   58.8700   27.7310   54.1630 C   0  0  0  0  0  0  0  0  0  0  0  0
   57.3980   27.8830   53.8750 C   0  0  2  0  0  0  0  0  0  0  0  0
   56.7050   28.8990   53.0650 C   0  0  0  0  0  0  0  0  0  0  0  0
   57.0540   29.2710   51.9140 O   0  0  0  0  0  0  0  0  0  0  0  0
   53.1700   30.1690   53.8220 C   0  0  0  0  0  0  0  0  0  0  0  0
   52.1190   30.8960   53.2540 C   0  0  0  0  0  0  0  0  0  0  0  0
   53.5394   31.6371   50.2328 H   0  0  0  0  0  0  0  0  0  0  0  0
   55.4062   30.3349   51.2409 H   0  0  0  0  0  0  0  0  0  0  0  0
   54.9867   29.1785   55.7695 H   0  0  0  0  0  0  0  0  0  0  0  0
   54.7811   27.6294   55.0032 H   0  0  0  0  0  0  0  0  0  0  0  0
   57.1313   29.1637   55.8117 H   0  0  0  0  0  0  0  0  0  0  0  0
   57.5922   27.5213   57.1372 H   0  0  0  0  0  0  0  0  0  0  0  0
   56.9709   26.2547   56.0954 H   0  0  0  0  0  0  0  0  0  0  0  0
   59.5620   27.5990   56.1030 H   0  0  0  0  0  0  0  0  0  0  0  0
   59.9106   25.4588   56.4232 H   0  0  0  0  0  0  0  0  0  0  0  0
   58.5290   25.0204   55.2893 H   0  0  0  0  0  0  0  0  0  0  0  0
   58.8492   24.7710   52.9213 H   0  0  0  0  0  0  0  0  0  0  0  0
   60.4777   24.2686   51.0936 H   0  0  0  0  0  0  0  0  0  0  0  0
   62.9270   24.5186   51.5250 H   0  0  0  0  0  0  0  0  0  0  0  0
   62.1647   25.7249   55.5396 H   0  0  0  0  0  0  0  0  0  0  0  0
   59.3645   28.7125   54.2079 H   0  0  0  0  0  0  0  0  0  0  0  0
   59.4007   27.1627   53.3849 H   0  0  0  0  0  0  0  0  0  0  0  0
   57.2167   26.9739   53.2829 H   0  0  0  0  0  0  0  0  0  0  0  0
   53.0591   29.7487   54.8325 H   0  0  0  0  0  0  0  0  0  0  0  0
   51.1899   31.0477   53.8231 H   0  0  0  0  0  0  0  0  0  0  0  0
  1  2  2  0
  2  3  1  0
  2  4  1  0
  4  5  2  0
  5  6  1  0
  6  7  2  0
  7  8  1  0
  8  9  1  0
  9 10  1  0
 10 11  1  0
 11 12  1  0
 12 13  1  0
 13 14  1  0
 14 15  2  0
 15 16  1  0
 16 17  2  0
 17 18  1  0
 18 19  2  0
 12 20  1  0
 20 21  1  0
 21 22  1  0
 22 23  2  0
  7 24  1  0
 24 25  2  0
 25  4  1  0
 22  8  1  0
 21 10  1  0
 19 14  1  0
  5 26  1  0
  6 27  1  0
  9 28  1  0
  9 29  1  0
 10 30  1  1
 11 31  1  0
 11 32  1  0
 12 33  1  1
 13 34  1  0
 13 35  1  0
 15 36  1  0
 16 37  1  0
 17 38  1  0
 19 39  1  0
 20 40  1  0
 20 41  1  0
 21 42  1  6
 24 43  1  0
 25 44  1  0
M  CHG  2   3  -1  12   1
M  END
>  <UniqueID>  (11) 
11

>  <SMILES>  (11) 
O=C([O-])c1ccc(N2C[C@H]3C[N@@H+](Cc4cccnc4)CC3C2=O)cc1

>  <Energy>  (11) 
105.97330253073488

>  <Genealogy>  (11) 
O=C([O-])c1ccc(N2CC3C[NH+](Cc4cccnc4)CC3C2=O)cc1 (protonated)
O=C([O-])c1ccc(N2C[C@H]3C[N@@H+](Cc4cccnc4)CC3C2=O)cc1 (chirality)
O=C([O-])c1ccc(N2C[C@H]3C[N@@H+](Cc4cccnc4)CC3C2=O)cc1 (3D coordinates assigned)
O=C([O-])c1ccc(N2C[C@H]3C[N@@H+](Cc4cccnc4)CC3C2=O)cc1 (nonaromatic ring conformer: 105.97330253073488 kcal/mol)

>  <smiles>  (11) 
O=C(O)c1ccc(N2CC3CN(Cc4cccnc4)CC3C2=O)cc1

>  <score_type>  (11) 
oracle

>  <origin>  (11) 
adg

>  <m_score__min__energy>  (11) 
-8.7400000000000002

>  <m_primary>  (11) 
energy

$$$$
11:0
     RDKit          3D

 55 57  0  0  0  0  0  0  0  0999 V2000
   60.4764   26.0842   48.1873 H   0  0  0  0  0  0  0  0  0  0  0  0
   60.2750   27.0180   47.6420 C   0  0  0  0  0  0  0  0  0  0  0  0
   59.6490   28.0840   48.2910 C   0  0  0  0  0  0  0  0  0  0  0  0
   59.3592   27.9899   49.3480 H   0  0  0  0  0  0  0  0  0  0  0  0
   59.3900   29.2710   47.5990 C   0  0  0  0  0  0  0  0  0  0  0  0
   58.9064   30.1121   48.1173 H   0  0  0  0  0  0  0  0  0  0  0  0
   59.7440   29.3950   46.2460 C   0  0  0  0  0  0  0  0  0  0  0  0
   59.4300   30.6650   45.4970 C   0  0  0  0  0  0  0  0  0  0  0  0
   59.6347   30.5088   44.4276 H   0  0  0  0  0  0  0  0  0  0  0  0
   60.0603   31.4696   45.9038 H   0  0  0  0  0  0  0  0  0  0  0  0
   58.0090   31.0590   45.6630 N   0  0  0  0  0  0  0  0  0  0  0  0
   57.7870   32.5330   45.6570 C   0  0  1  0  0  0  0  0  0  0  0  0
   56.9496   32.7114   46.3476 H   0  0  0  0  0  0  0  0  0  0  0  0
   59.0560   33.2240   46.0780 C   0  0  0  0  0  0  0  0  0  0  0  0
   59.5800   34.0860   45.3200 O   0  0  0  0  0  0  0  0  0  0  0  0
   59.7130   32.8120   47.2860 N   0  0  0  0  0  0  0  0  0  0  0  0
   60.9950   32.7600   47.5200 C   0  0  0  0  0  0  0  0  0  0  0  0
   61.4380   32.0130   48.6200 C   0  0  0  0  0  0  0  0  0  0  0  0
   60.7133   31.4704   49.2448 H   0  0  0  0  0  0  0  0  0  0  0  0
   62.8040   31.9580   48.9230 C   0  0  0  0  0  0  0  0  0  0  0  0
   63.2800   31.2040   50.1300 C   0  0  0  0  0  0  0  0  0  0  0  0
   62.9510   31.7251   51.0412 H   0  0  0  0  0  0  0  0  0  0  0  0
   62.8595   30.1876   50.1168 H   0  0  0  0  0  0  0  0  0  0  0  0
   64.3784   31.1465   50.1168 H   0  0  0  0  0  0  0  0  0  0  0  0
   63.7080   32.6800   48.1370 C   0  0  0  0  0  0  0  0  0  0  0  0
   64.7832   32.6588   48.3682 H   0  0  0  0  0  0  0  0  0  0  0  0
   63.2360   33.4270   47.0580 C   0  0  0  0  0  0  0  0  0  0  0  0
   63.9433   33.9940   46.4349 H   0  0  0  0  0  0  0  0  0  0  0  0
   61.9060   33.4590   46.7710 N   0  0  0  0  0  0  0  0  0  0  0  0
   61.6090   34.0710   45.9820 H   0  0  0  0  0  0  0  0  0  0  0  0
   57.3960   33.1070   44.2810 C   0  0  0  0  0  0  0  0  0  0  0  0
   56.7818   34.0087   44.4210 H   0  0  0  0  0  0  0  0  0  0  0  0
   58.3059   33.3666   43.7200 H   0  0  0  0  0  0  0  0  0  0  0  0
   56.8213   32.3553   43.7200 H   0  0  0  0  0  0  0  0  0  0  0  0
   57.0280   30.3020   44.4050 S   0  0  0  0  0  0  0  0  0  0  0  0
   57.4450   30.8120   43.0530 O   0  0  0  0  0  0  0  0  0  0  0  0
   55.5660   30.5980   44.5910 O   0  0  0  0  0  0  0  0  0  0  0  0
   57.2320   28.5540   44.4810 C   0  0  0  0  0  0  0  0  0  0  0  0
   56.7790   27.8530   45.6060 C   0  0  0  0  0  0  0  0  0  0  0  0
   56.2687   28.3913   46.4183 H   0  0  0  0  0  0  0  0  0  0  0  0
   56.9730   26.4730   45.7000 C   0  0  0  0  0  0  0  0  0  0  0  0
   56.6247   25.9305   46.5913 H   0  0  0  0  0  0  0  0  0  0  0  0
   57.6100   25.7760   44.6630 C   0  0  0  0  0  0  0  0  0  0  0  0
   57.8680   24.3040   44.7900 C   0  0  0  0  0  0  0  0  0  0  0  0
   57.9159   24.0306   45.8544 H   0  0  0  0  0  0  0  0  0  0  0  0
   57.0540   23.7458   44.3044 H   0  0  0  0  0  0  0  0  0  0  0  0
   58.8233   24.0559   44.3044 H   0  0  0  0  0  0  0  0  0  0  0  0
   58.0650   26.4800   43.5380 C   0  0  0  0  0  0  0  0  0  0  0  0
   58.5790   25.9431   42.7271 H   0  0  0  0  0  0  0  0  0  0  0  0
   57.8680   27.8610   43.4430 C   0  0  0  0  0  0  0  0  0  0  0  0
   58.2132   28.4045   42.5511 H   0  0  0  0  0  0  0  0  0  0  0  0
   60.3860   28.3220   45.6030 C   0  0  0  0  0  0  0  0  0  0  0  0
   60.6849   28.4149   44.5485 H   0  0  0  0  0  0  0  0  0  0  0  0
   60.6460   27.1370   46.2990 C   0  0  0  0  0  0  0  0  0  0  0  0
   61.1427   26.2981   45.7896 H   0  0  0  0  0  0  0  0  0  0  0  0
  1  2  1  0
  2  3  2  0
  3  4  1  0
  3  5  1  0
  5  6  1  0
  5  7  2  0
  7  8  1  0
  8  9  1  0
  8 10  1  0
  8 11  1  0
 11 12  1  0
 12 13  1  1
 12 14  1  0
 14 15  2  0
 14 16  1  0
 16 17  2  0
 17 18  1  0
 18 19  1  0
 18 20  2  0
 20 21  1  0
 21 22  1  0
 21 23  1  0
 21 24  1  0
 20 25  1  0
 25 26  1  0
 25 27  2  0
 27 28  1  0
 27 29  1  0
 29 30  1  0
 12 31  1  0
 31 32  1  0
 31 33  1  0
 31 34  1  0
 11 35  1  0
 35 36  2  0
 35 37  2  0
 35 38  1  0
 38 39  2  0
 39 40  1  0
 39 41  1  0
 41 42  1  0
 41 43  2  0
 43 44  1  0
 44 45  1  0
 44 46  1  0
 44 47  1  0
 43 48  1  0
 48 49  1  0
 48 50  2  0
 50 51  1  0
  7 52  1  0
 52 53  1  0
 52 54  2  0
 54 55  1  0
 54  2  1  0
 29 17  1  0
 50 38  1  0
M  END
>  <UniqueID>  (12) 
12

>  <SMILES>  (12) 
Cc1ccc(S(=O)(=O)N(Cc2ccccc2)[C@H](C)C(=O)/N=c2/cc(C)cc[nH]2)cc1

>  <Energy>  (12) 
61.61851386758895

>  <Genealogy>  (12) 
Cc1ccc(S(=O)(=O)N(Cc2ccccc2)[C@H](C)C(=O)N=c2cc(C)cc[nH]2)cc1 (chirality)
Cc1ccc(S(=O)(=O)N(Cc2ccccc2)[C@H](C)C(=O)/N=c2/cc(C)cc[nH]2)cc1 (cis-trans isomerization)
Cc1ccc(S(=O)(=O)N(Cc2ccccc2)[C@H](C)C(=O)/N=c2/cc(C)cc[nH]2)cc1 (3D coordinates assigned)
Cc1ccc(S(=O)(=O)N(Cc2ccccc2)[C@H](C)C(=O)/N=c2/cc(C)cc[nH]2)cc1 (optimized conformer: 61.61851386758895 kcal/mol)

>  <smiles>  (12) 
Cc1ccc(S(=O)(=O)N(Cc2ccccc2)C(C)C(=O)N=c2cc(C)cc[nH]2)cc1

>  <score_type>  (12) 
oracle

>  <origin>  (12) 
adg

>  <m_score__min__energy>  (12) 
-9.3699999999999992

>  <m_primary>  (12) 
energy

$$$$
12:0
     RDKit          3D

 38 39  0  0  0  0  0  0  0  0999 V2000
   62.1550   32.5910   47.1730 C   0  0  0  0  0  0  0  0  0  0  0  0
   61.6370   31.1950   47.5210 C   0  0  0  0  0  0  0  0  0  0  0  0
   60.5030   30.7240   46.5940 C   0  0  0  0  0  0  0  0  0  0  0  0
   60.7270   29.3500   45.9220 C   0  0  0  0  0  0  0  0  0  0  0  0
   60.0140   29.1980   44.6380 N   0  0  0  0  0  0  0  0  0  0  0  0
   58.5880   29.0120   44.8060 C   0  0  0  0  0  0  0  0  0  0  0  0
   58.1470   27.8760   45.4170 N   0  0  0  0  0  0  0  0  0  0  0  0
   56.8300   27.6380   45.6280 C   0  0  0  0  0  0  0  0  0  0  0  0
   55.9080   28.5490   45.2420 N   0  0  0  0  0  0  0  0  0  0  0  0
   56.2730   29.7150   44.6540 C   0  0  0  0  0  0  0  0  0  0  0  0
   55.3760   30.5330   44.3180 O   0  0  0  0  0  0  0  0  0  0  0  0
   57.6370   30.0020   44.4280 C   0  0  0  0  0  0  0  0  0  0  0  0
   58.0380   31.3270   43.7980 C   0  0  0  0  0  0  0  0  0  0  0  0
   58.1910   32.4180   44.8300 C   0  0  0  0  0  0  0  0  0  0  0  0
   58.7980   33.6390   44.4880 C   0  0  0  0  0  0  0  0  0  0  0  0
   58.9460   34.6460   45.4460 C   0  0  0  0  0  0  0  0  0  0  0  0
   58.5030   34.4390   46.7540 C   0  0  0  0  0  0  0  0  0  0  0  0
   57.9220   33.2200   47.1110 C   0  0  0  0  0  0  0  0  0  0  0  0
   57.7760   32.2080   46.1570 C   0  0  0  0  0  0  0  0  0  0  0  0
   62.3613   33.1470   48.0994 H   0  0  0  0  0  0  0  0  0  0  0  0
   63.0802   32.5027   46.5846 H   0  0  0  0  0  0  0  0  0  0  0  0
   61.3961   33.1276   46.5846 H   0  0  0  0  0  0  0  0  0  0  0  0
   62.4714   30.4825   47.4434 H   0  0  0  0  0  0  0  0  0  0  0  0
   61.2288   31.2414   48.5414 H   0  0  0  0  0  0  0  0  0  0  0  0
   59.5799   30.6647   47.1893 H   0  0  0  0  0  0  0  0  0  0  0  0
   60.4537   31.4582   45.7763 H   0  0  0  0  0  0  0  0  0  0  0  0
   61.8043   29.2237   45.7389 H   0  0  0  0  0  0  0  0  0  0  0  0
   60.3272   28.5868   46.6059 H   0  0  0  0  0  0  0  0  0  0  0  0
   60.4650   28.4320   44.0950 H   0  0  0  0  0  0  0  0  0  0  0  0
   60.1440   30.0770   44.0870 H   0  0  0  0  0  0  0  0  0  0  0  0
   56.5107   26.7039   46.1132 H   0  0  0  0  0  0  0  0  0  0  0  0
   58.9964   31.1961   43.2743 H   0  0  0  0  0  0  0  0  0  0  0  0
   57.2423   31.6272   43.1003 H   0  0  0  0  0  0  0  0  0  0  0  0
   59.1582   33.8027   43.4616 H   0  0  0  0  0  0  0  0  0  0  0  0
   59.4122   35.6031   45.1691 H   0  0  0  0  0  0  0  0  0  0  0  0
   58.6117   35.2365   47.5038 H   0  0  0  0  0  0  0  0  0  0  0  0
   57.5791   33.0559   48.1432 H   0  0  0  0  0  0  0  0  0  0  0  0
   57.3343   31.2429   46.4461 H   0  0  0  0  0  0  0  0  0  0  0  0
  1  2  1  0
  2  3  1  0
  3  4  1  0
  4  5  1  0
  5  6  1  0
  6  7  1  0
  7  8  1  0
  8  9  2  0
  9 10  1  0
 10 11  2  0
 10 12  1  0
 12 13  1  0
 13 14  1  0
 14 15  2  0
 15 16  1  0
 16 17  2  0
 17 18  1  0
 18 19  2  0
 12  6  2  0
 19 14  1  0
  1 20  1  0
  1 21  1  0
  1 22  1  0
  2 23  1  0
  2 24  1  0
  3 25  1  0
  3 26  1  0
  4 27  1  0
  4 28  1  0
  5 29  1  0
  5 30  1  0
  8 31  1  0
 13 32  1  0
 13 33  1  0
 15 34  1  0
 16 35  1  0
 17 36  1  0
 18 37  1  0
 19 38  1  0
M  CHG  2   5   1   7  -1
M  END
>  <UniqueID>  (13) 
13

>  <SMILES>  (13) 
CCCC[NH2+]c1[n-]cnc(=O)c1Cc1ccccc1

>  <Energy>  (13) 
38.60427640760408

>  <Genealogy>  (13) 
CCCC[NH2+]c1[n-]cnc(=O)c1Cc1ccccc1 (protonated)
CCCC[NH2+]c1[n-]cnc(=O)c1Cc1ccccc1 (3D coordinates assigned)
CCCC[NH2+]c1[n-]cnc(=O)c1Cc1ccccc1 (optimized conformer: 38.60427640760408 kcal/mol)

>  <smiles>  (13) 
CCCCNc1[nH]cnc(=O)c1Cc1ccccc1

>  <score_type>  (13) 
oracle

>  <origin>  (13) 
adg

>  <m_score__min__energy>  (13) 
-6.5599999999999996

>  <m_primary>  (13) 
energy

$$$$
13:0
     RDKit          3D

 44 46  0  0  1  0  0  0  0  0999 V2000
   57.9270   27.2260   43.6180 O   0  0  0  0  0  0  0  0  0  0  0  0
   57.3930   28.2350   44.1690 C   0  0  0  0  0  0  0  0  0  0  0  0
   57.1690   29.4530   43.4640 N   0  0  0  0  0  0  0  0  0  0  0  0
   57.5370   30.5600   44.0320 C   0  0  0  0  0  0  0  0  0  0  0  0
   57.2000   31.0100   45.2390 N   0  0  0  0  0  0  0  0  0  0  0  0
   57.7770   32.1840   45.4690 C   0  0  0  0  0  0  0  0  0  0  0  0
   57.7670   33.3110   46.8120 S   0  0  0  0  0  0  0  0  0  0  0  0
   59.0610   34.4880   46.9700 C   0  0  0  0  0  0  0  0  0  0  0  0
   60.3860   34.0150   47.3950 C   0  0  0  0  0  0  0  0  0  0  0  0
   61.3760   34.0100   46.3940 C   0  0  0  0  0  0  0  0  0  0  0  0
   62.6430   33.5340   46.6230 C   0  0  0  0  0  0  0  0  0  0  0  0
   62.9860   33.0350   47.8780 C   0  0  0  0  0  0  0  0  0  0  0  0
   62.0300   33.0350   48.8660 C   0  0  0  0  0  0  0  0  0  0  0  0
   60.7490   33.5280   48.6000 C   0  0  0  0  0  0  0  0  0  0  0  0
   59.6420   33.5640   49.9470 Cl  0  0  0  0  0  0  0  0  0  0  0  0
   58.5020   32.4440   44.3260 N   0  0  0  0  0  0  0  0  0  0  0  0
   58.3360   31.4510   43.4870 N   0  0  0  0  0  0  0  0  0  0  0  0
   56.9850   28.1920   45.5500 N   0  0  0  0  0  0  0  0  0  0  0  0
   57.1660   27.0160   46.3380 C   0  0  0  0  0  0  0  0  0  0  0  0
   58.5990   26.7730   46.7440 C   0  0  0  0  0  0  0  0  0  0  0  0
   59.2300   28.1220   46.8710 C   0  0  0  0  0  0  0  0  0  0  0  0
   58.9280   28.9930   47.8960 C   0  0  0  0  0  0  0  0  0  0  0  0
   59.5710   30.2270   47.9260 C   0  0  0  0  0  0  0  0  0  0  0  0
   60.4970   30.5660   46.9330 C   0  0  0  0  0  0  0  0  0  0  0  0
   60.8010   29.6990   45.9050 C   0  0  0  0  0  0  0  0  0  0  0  0
   60.1600   28.4750   45.8830 C   0  0  0  0  0  0  0  0  0  0  0  0
   59.1862   34.9679   45.9882 H   0  0  0  0  0  0  0  0  0  0  0  0
   58.7319   35.1444   47.7890 H   0  0  0  0  0  0  0  0  0  0  0  0
   61.1262   34.4001   45.3963 H   0  0  0  0  0  0  0  0  0  0  0  0
   63.3887   33.5465   45.8145 H   0  0  0  0  0  0  0  0  0  0  0  0
   63.9978   32.6502   48.0736 H   0  0  0  0  0  0  0  0  0  0  0  0
   62.2730   32.6470   49.8662 H   0  0  0  0  0  0  0  0  0  0  0  0
   59.0950   33.2870   44.1380 H   0  0  0  0  0  0  0  0  0  0  0  0
   58.7790   31.4100   42.5530 H   0  0  0  0  0  0  0  0  0  0  0  0
   56.5520   29.0510   45.9560 H   0  0  0  0  0  0  0  0  0  0  0  0
   56.5581   27.1118   47.2498 H   0  0  0  0  0  0  0  0  0  0  0  0
   56.8585   26.1620   45.7167 H   0  0  0  0  0  0  0  0  0  0  0  0
   58.6380   26.2415   47.7063 H   0  0  0  0  0  0  0  0  0  0  0  0
   59.1256   26.1517   46.0046 H   0  0  0  0  0  0  0  0  0  0  0  0
   58.1969   28.7195   48.6710 H   0  0  0  0  0  0  0  0  0  0  0  0
   59.3502   30.9395   48.7344 H   0  0  0  0  0  0  0  0  0  0  0  0
   60.9937   31.5466   46.9736 H   0  0  0  0  0  0  0  0  0  0  0  0
   61.5298   29.9726   45.1279 H   0  0  0  0  0  0  0  0  0  0  0  0
   60.3838   27.7636   45.0744 H   0  0  0  0  0  0  0  0  0  0  0  0
  1  2  2  0
  2  3  1  0
  3  4  2  0
  4  5  1  0
  5  6  2  0
  6  7  1  0
  7  8  1  0
  8  9  1  0
  9 10  2  0
 10 11  1  0
 11 12  2  0
 12 13  1  0
 13 14  2  0
 14 15  1  0
  6 16  1  0
 16 17  1  0
  2 18  1  0
 18 19  1  0
 19 20  1  0
 20 21  1  0
 21 22  2  0
 22 23  1  0
 23 24  2  0
 24 25  1  0
 25 26  2  0
 17  4  1  0
 26 21  1  0
 14  9  1  0
  8 27  1  0
  8 28  1  0
 10 29  1  0
 11 30  1  0
 12 31  1  0
 13 32  1  0
 16 33  1  0
 17 34  1  0
 18 35  1  0
 19 36  1  0
 19 37  1  0
 20 38  1  0
 20 39  1  0
 22 40  1  0
 23 41  1  0
 24 42  1  0
 25 43  1  0
 26 44  1  0
M  END
>  <smiles>  (14) 
O=C(N=c1nc(SCc2ccccc2Cl)[nH][nH]1)NCCc1ccccc1

>  <score_type>  (14) 
oracle

>  <origin>  (14) 
adg

>  <m_score__min__energy>  (14) 
-8.6600000000000001

>  <m_primary>  (14) 
energy

$$$$
14:0
     RDKit          3D

 39 40  0  0  0  0  0  0  0  0999 V2000
   59.6050   34.8570   45.6630 C   0  0  0  0  0  0  0  0  0  0  0  0
   58.7710   33.8810   46.3820 N   0  0  0  0  0  0  0  0  0  0  0  0
   57.3610   33.9260   45.9190 C   0  0  0  0  0  0  0  0  0  0  0  0
   57.0370   32.7960   44.9300 C   0  0  0  0  0  0  0  0  0  0  0  0
   57.2450   31.4560   45.5360 N   0  0  0  0  0  0  0  0  0  0  0  0
   57.4630   30.4190   44.5020 C   0  0  0  0  0  0  0  0  0  0  0  0
   56.1510   29.7690   44.0530 C   0  0  0  0  0  0  0  0  0  0  0  0
   55.6070   28.9430   45.1250 N   0  0  0  0  0  0  0  0  0  0  0  0
   56.2680   27.7740   45.6100 C   0  0  0  0  0  0  0  0  0  0  0  0
   57.5260   27.7540   45.6490 O   0  0  0  0  0  0  0  0  0  0  0  0
   55.5040   26.6220   45.9950 N   0  0  0  0  0  0  0  0  0  0  0  0
   55.7400   25.2650   45.5930 C   0  0  0  0  0  0  0  0  0  0  0  0
   54.7970   24.2890   45.9400 C   0  0  0  0  0  0  0  0  0  0  0  0
   54.9990   22.9510   45.5850 C   0  0  0  0  0  0  0  0  0  0  0  0
   56.1550   22.5760   44.8960 C   0  0  0  0  0  0  0  0  0  0  0  0
   56.4100   20.8970   44.4550 Cl  0  0  0  0  0  0  0  0  0  0  0  0
   57.1150   23.5390   44.5670 C   0  0  0  0  0  0  0  0  0  0  0  0
   56.9150   24.8780   44.9190 C   0  0  0  0  0  0  0  0  0  0  0  0
   58.3260   31.4380   46.5550 C   0  0  0  0  0  0  0  0  0  0  0  0
   59.3740   32.5310   46.3060 C   0  0  0  0  0  0  0  0  0  0  0  0
   60.1420   35.4855   46.3887 H   0  0  0  0  0  0  0  0  0  0  0  0
   60.3310   34.3241   45.0314 H   0  0  0  0  0  0  0  0  0  0  0  0
   58.9654   35.4910   45.0314 H   0  0  0  0  0  0  0  0  0  0  0  0
   56.6986   33.8329   46.7922 H   0  0  0  0  0  0  0  0  0  0  0  0
   57.2073   34.8832   45.3992 H   0  0  0  0  0  0  0  0  0  0  0  0
   55.9861   32.8864   44.6180 H   0  0  0  0  0  0  0  0  0  0  0  0
   57.7147   32.8907   44.0688 H   0  0  0  0  0  0  0  0  0  0  0  0
   57.9454   30.8838   43.6295 H   0  0  0  0  0  0  0  0  0  0  0  0
   58.0984   29.6340   44.9380 H   0  0  0  0  0  0  0  0  0  0  0  0
   55.4255   30.5547   43.7955 H   0  0  0  0  0  0  0  0  0  0  0  0
   56.3455   29.1359   43.1747 H   0  0  0  0  0  0  0  0  0  0  0  0
   53.8919   24.5765   46.4951 H   0  0  0  0  0  0  0  0  0  0  0  0
   54.2466   22.1932   45.8487 H   0  0  0  0  0  0  0  0  0  0  0  0
   58.0286   23.2428   44.0307 H   0  0  0  0  0  0  0  0  0  0  0  0
   57.6772   25.6307   44.6689 H   0  0  0  0  0  0  0  0  0  0  0  0
   57.8796   31.5946   47.5481 H   0  0  0  0  0  0  0  0  0  0  0  0
   58.8325   30.4635   46.4935 H   0  0  0  0  0  0  0  0  0  0  0  0
   60.1653   32.4486   47.0657 H   0  0  0  0  0  0  0  0  0  0  0  0
   59.7881   32.3918   45.2965 H   0  0  0  0  0  0  0  0  0  0  0  0
  1  2  1  0
  2  3  1  0
  3  4  1  0
  4  5  1  0
  5  6  1  0
  6  7  1  0
  7  8  1  0
  8  9  1  0
  9 10  2  0
  9 11  1  0
 11 12  1  0
 12 13  2  0
 13 14  1  0
 14 15  2  0
 15 16  1  0
 15 17  1  0
 17 18  2  0
  5 19  1  0
 19 20  1  0
 20  2  1  0
 18 12  1  0
  1 21  1  0
  1 22  1  0
  1 23  1  0
  3 24  1  0
  3 25  1  0
  4 26  1  0
  4 27  1  0
  6 28  1  0
  6 29  1  0
  7 30  1  0
  7 31  1  0
 13 32  1  0
 14 33  1  0
 17 34  1  0
 18 35  1  0
 19 36  1  0
 19 37  1  0
 20 38  1  0
 20 39  1  0
M  CHG  2   8  -1  11  -1
M  END
>  <UniqueID>  (15) 
14

>  <SMILES>  (15) 
CN1CCN(CC[N-]C(=O)[N-]c2ccc(Cl)cc2)CC1

>  <Energy>  (15) 
49.789180618326014

>  <Genealogy>  (15) 
CN1CCN(CC[N-]C(=O)[N-]c2ccc(Cl)cc2)CC1 (protonated)
CN1CCN(CC[N-]C(=O)[N-]c2ccc(Cl)cc2)CC1 (3D coordinates assigned)
CN1CCN(CC[N-]C(=O)[N-]c2ccc(Cl)cc2)CC1 (nonaromatic ring conformer: 49.789180618326014 kcal/mol)

>  <smiles>  (15) 
CN1CCN(CCNC(=O)Nc2ccc(Cl)cc2)CC1

>  <score_type>  (15) 
oracle

>  <origin>  (15) 
adg

>  <m_score__min__energy>  (15) 
-10.99

>  <m_primary>  (15) 
energy

$$$$
15:0
     RDKit          3D

 48 51  0  0  1  0  0  0  0  0999 V2000
   57.7680   25.0880   47.5100 O   0  0  0  0  0  0  0  0  0  0  0  0
   57.8070   25.3430   46.2660 C   0  0  0  0  0  0  0  0  0  0  0  0
   57.8090   24.1840   45.3800 C   0  0  0  0  0  0  0  0  0  0  0  0
   58.9030   23.3190   45.4200 C   0  0  0  0  0  0  0  0  0  0  0  0
   58.9680   22.2080   44.6090 C   0  0  0  0  0  0  0  0  0  0  0  0
   57.9300   21.9550   43.7500 C   0  0  0  0  0  0  0  0  0  0  0  0
   56.8250   22.7780   43.6700 C   0  0  0  0  0  0  0  0  0  0  0  0
   56.7820   23.9010   44.5040 C   0  0  0  0  0  0  0  0  0  0  0  0
   57.8460   26.6820   45.7860 N   0  0  0  0  0  0  0  0  0  0  0  0
   57.8910   27.0450   44.4000 C   0  0  0  0  0  0  0  0  0  0  0  0
   57.2750   28.4200   44.2170 C   0  0  0  0  0  0  0  0  0  0  0  0
   58.0080   29.3920   45.0090 N   0  0  0  0  0  0  0  0  0  0  0  0
   58.0990   30.7660   44.6780 C   0  0  0  0  0  0  0  0  0  0  0  0
   58.2290   31.6970   45.6430 N   0  0  0  0  0  0  0  0  0  0  0  0
   58.3180   33.0050   45.3770 C   0  0  0  0  0  0  0  0  0  0  0  0
   58.4390   33.8020   46.3840 N   0  0  0  0  0  0  0  0  0  0  0  0
   59.6380   33.8160   47.1480 C   0  0  0  0  0  0  0  0  0  0  0  0
   59.6390   34.1360   48.4880 C   0  0  0  0  0  0  0  0  0  0  0  0
   60.8550   34.1220   49.1480 C   0  0  0  0  0  0  0  0  0  0  0  0
   62.0350   33.7960   48.4810 C   0  0  0  0  0  0  0  0  0  0  0  0
   63.5830   33.7740   49.3070 Cl  0  0  0  0  0  0  0  0  0  0  0  0
   62.0320   33.4730   47.1310 C   0  0  0  0  0  0  0  0  0  0  0  0
   60.8060   33.4920   46.4860 C   0  0  0  0  0  0  0  0  0  0  0  0
   58.2830   33.4640   44.0770 C   0  0  0  0  0  0  0  0  0  0  0  0
   58.1490   32.4930   43.0780 C   0  0  0  0  0  0  0  0  0  0  0  0
   58.0620   31.1780   43.3980 N   0  0  0  0  0  0  0  0  0  0  0  0
   58.6690   28.8960   46.2010 C   0  0  0  0  0  0  0  0  0  0  0  0
   57.8420   27.7590   46.7650 C   0  0  0  0  0  0  0  0  0  0  0  0
   59.7306   23.5288   46.1136 H   0  0  0  0  0  0  0  0  0  0  0  0
   59.8375   21.5354   44.6497 H   0  0  0  0  0  0  0  0  0  0  0  0
   57.9795   21.0667   43.1031 H   0  0  0  0  0  0  0  0  0  0  0  0
   56.0035   22.5581   42.9723 H   0  0  0  0  0  0  0  0  0  0  0  0
   55.9113   24.5717   44.4600 H   0  0  0  0  0  0  0  0  0  0  0  0
   58.9368   27.0635   44.0595 H   0  0  0  0  0  0  0  0  0  0  0  0
   57.3262   26.3086   43.8095 H   0  0  0  0  0  0  0  0  0  0  0  0
   57.3213   28.7034   43.1551 H   0  0  0  0  0  0  0  0  0  0  0  0
   56.2258   28.3969   44.5468 H   0  0  0  0  0  0  0  0  0  0  0  0
   58.7076   34.3931   49.0137 H   0  0  0  0  0  0  0  0  0  0  0  0
   60.8913   34.3727   50.2184 H   0  0  0  0  0  0  0  0  0  0  0  0
   62.9591   33.2142   46.5985 H   0  0  0  0  0  0  0  0  0  0  0  0
   60.7616   33.2418   45.4158 H   0  0  0  0  0  0  0  0  0  0  0  0
   58.3564   34.5353   43.8382 H   0  0  0  0  0  0  0  0  0  0  0  0
   58.1139   32.7997   42.0222 H   0  0  0  0  0  0  0  0  0  0  0  0
   57.9650   30.5220   42.6010 H   0  0  0  0  0  0  0  0  0  0  0  0
   59.6751   28.5326   45.9445 H   0  0  0  0  0  0  0  0  0  0  0  0
   58.7638   29.7010   46.9447 H   0  0  0  0  0  0  0  0  0  0  0  0
   58.2823   27.4081   47.7100 H   0  0  0  0  0  0  0  0  0  0  0  0
   56.8135   28.0932   46.9664 H   0  0  0  0  0  0  0  0  0  0  0  0
  1  2  2  0
  2  3  1  0
  3  4  2  0
  4  5  1  0
  5  6  2  0
  6  7  1  0
  7  8  2  0
  2  9  1  0
  9 10  1  0
 10 11  1  0
 11 12  1  0
 12 13  1  0
 13 14  2  0
 14 15  1  0
 15 16  2  0
 16 17  1  0
 17 18  2  0
 18 19  1  0
 19 20  2  0
 20 21  1  0
 20 22  1  0
 22 23  2  0
 15 24  1  0
 24 25  2  0
 25 26  1  0
 12 27  1  0
 27 28  1  0
  8  3  1  0
 28  9  1  0
 26 13  1  0
 23 17  1  0
  4 29  1  0
  5 30  1  0
  6 31  1  0
  7 32  1  0
  8 33  1  0
 10 34  1  0
 10 35  1  0
 11 36  1  0
 11 37  1  0
 18 38  1  0
 19 39  1  0
 22 40  1  0
 23 41  1  0
 24 42  1  0
 25 43  1  0
 26 44  1  0
 27 45  1  0
 27 46  1  0
 28 47  1  0
 28 48  1  0
M  END
>  <smiles>  (16) 
O=C(c1ccccc1)N1CCN(c2nc(=Nc3ccc(Cl)cc3)cc[nH]2)CC1

>  <score_type>  (16) 
oracle

>  <origin>  (16) 
adg

>  <m_score__min__energy>  (16) 
-8.5500000000000007

>  <m_primary>  (16) 
energy

$$$$
16:0
     RDKit          3D

 42 44  0  0  0  0  0  0  0  0999 V2000
   59.0940   33.6840   51.7930 C   0  0  0  0  0  0  0  0  0  0  0  0
   60.4420   33.4710   51.1240 C   0  0  0  0  0  0  0  0  0  0  0  0
   60.4830   34.1960   49.8990 O   0  0  0  0  0  0  0  0  0  0  0  0
   61.3930   33.9580   48.8550 C   0  0  0  0  0  0  0  0  0  0  0  0
   62.7330   33.6050   49.1140 C   0  0  0  0  0  0  0  0  0  0  0  0
   63.6200   33.3730   48.0610 C   0  0  0  0  0  0  0  0  0  0  0  0
   63.1850   33.4870   46.7420 C   0  0  0  0  0  0  0  0  0  0  0  0
   61.8620   33.8360   46.4700 C   0  0  0  0  0  0  0  0  0  0  0  0
   60.9550   34.0760   47.5170 C   0  0  0  0  0  0  0  0  0  0  0  0
   59.5330   34.4690   47.1840 C   0  0  0  0  0  0  0  0  0  0  0  0
   58.8550   33.3910   46.4330 N   0  0  0  0  0  0  0  0  0  0  0  0
   58.3930   32.2430   47.0600 C   0  0  0  0  0  0  0  0  0  0  0  0
   58.5220   31.9890   48.8380 S   0  0  0  0  0  0  0  0  0  0  0  0
   59.2890   30.3470   48.6640 C   0  0  0  0  0  0  0  0  0  0  0  0
   60.5680   30.4770   47.9010 C   0  0  0  0  0  0  0  0  0  0  0  0
   60.5690   30.3850   46.4760 N   0  0  0  0  0  0  0  0  0  0  0  0
   61.6550   30.6290   48.5180 O   0  0  0  0  0  0  0  0  0  0  0  0
   57.8020   31.2470   46.3360 N   0  0  0  0  0  0  0  0  0  0  0  0
   57.6550   31.3740   44.9980 C   0  0  0  0  0  0  0  0  0  0  0  0
   57.0670   30.4270   44.1580 C   0  0  0  0  0  0  0  0  0  0  0  0
   57.0550   30.8400   42.8250 C   0  0  0  0  0  0  0  0  0  0  0  0
   57.7710   32.3700   42.7130 S   0  0  0  0  0  0  0  0  0  0  0  0
   58.0940   32.5020   44.3550 C   0  0  0  0  0  0  0  0  0  0  0  0
   58.6990   33.5260   45.0690 C   0  0  0  0  0  0  0  0  0  0  0  0
   59.0960   34.5590   44.4630 O   0  0  0  0  0  0  0  0  0  0  0  0
   59.2197   33.6641   52.8856 H   0  0  0  0  0  0  0  0  0  0  0  0
   58.6835   34.6581   51.4888 H   0  0  0  0  0  0  0  0  0  0  0  0
   58.4032   32.8839   51.4888 H   0  0  0  0  0  0  0  0  0  0  0  0
   61.2420   33.8286   51.7888 H   0  0  0  0  0  0  0  0  0  0  0  0
   60.5859   32.3995   50.9213 H   0  0  0  0  0  0  0  0  0  0  0  0
   63.0822   33.5117   50.1529 H   0  0  0  0  0  0  0  0  0  0  0  0
   64.6642   33.0997   48.2730 H   0  0  0  0  0  0  0  0  0  0  0  0
   63.8856   33.3016   45.9145 H   0  0  0  0  0  0  0  0  0  0  0  0
   61.5253   33.9242   45.4265 H   0  0  0  0  0  0  0  0  0  0  0  0
   58.9831   34.6598   48.1174 H   0  0  0  0  0  0  0  0  0  0  0  0
   59.5533   35.3753   46.5609 H   0  0  0  0  0  0  0  0  0  0  0  0
   59.4966   29.9310   49.6609 H   0  0  0  0  0  0  0  0  0  0  0  0
   58.6046   29.6761   48.1241 H   0  0  0  0  0  0  0  0  0  0  0  0
   59.6770   30.2340   45.9520 H   0  0  0  0  0  0  0  0  0  0  0  0
   61.4630   30.4640   45.9440 H   0  0  0  0  0  0  0  0  0  0  0  0
   56.6601   29.4662   44.5064 H   0  0  0  0  0  0  0  0  0  0  0  0
   56.6459   30.2637   41.9821 H   0  0  0  0  0  0  0  0  0  0  0  0
  1  2  1  0
  2  3  1  0
  3  4  1  0
  4  5  2  0
  5  6  1  0
  6  7  2  0
  7  8  1  0
  8  9  2  0
  9 10  1  0
 10 11  1  0
 11 12  1  0
 12 13  1  0
 13 14  1  0
 14 15  1  0
 15 16  1  0
 15 17  2  0
 12 18  2  0
 18 19  1  0
 19 20  1  0
 20 21  2  0
 21 22  1  0
 22 23  1  0
 23 24  1  0
 24 25  2  0
  9  4  1  0
 24 11  1  0
 23 19  2  0
  1 26  1  0
  1 27  1  0
  1 28  1  0
  2 29  1  0
  2 30  1  0
  5 31  1  0
  6 32  1  0
  7 33  1  0
  8 34  1  0
 10 35  1  0
 10 36  1  0
 14 37  1  0
 14 38  1  0
 16 39  1  0
 16 40  1  0
 20 41  1  0
 21 42  1  0
M  END
>  <UniqueID>  (17) 
15

>  <SMILES>  (17) 
CCOc1ccccc1Cn1c(SCC(N)=O)nc2ccsc2c1=O

>  <Energy>  (17) 
71.2408543090786

>  <Genealogy>  (17) 
CCOc1ccccc1Cn1c(SCC(N)=O)nc2ccsc2c1=O (3D coordinates assigned)
CCOc1ccccc1Cn1c(SCC(N)=O)nc2ccsc2c1=O (optimized conformer: 71.2408543090786 kcal/mol)

>  <smiles>  (17) 
CCOc1ccccc1Cn1c(SCC(N)=O)nc2ccsc2c1=O

>  <score_type>  (17) 
oracle

>  <origin>  (17) 
adg

>  <m_score__min__energy>  (17) 
-7.79

>  <m_primary>  (17) 
energy

$$$$
17:0
     RDKit          3D

 43 45  0  0  0  0  0  0  0  0999 V2000
   54.6260   27.0940   46.6860 H   0  0  0  0  0  0  0  0  0  0  0  0
   54.7740   26.3290   45.9910 N   0  0  0  0  0  0  0  0  0  0  0  0
   56.4530   25.9310   46.0290 S   0  0  0  0  0  0  0  0  0  0  0  0
   56.8550   25.5970   47.4380 O   0  0  0  0  0  0  0  0  0  0  0  0
   56.7020   24.7290   45.1610 O   0  0  0  0  0  0  0  0  0  0  0  0
   57.3950   27.3040   45.4560 C   0  0  0  0  0  0  0  0  0  0  0  0
   58.7940   27.2420   45.4690 C   0  0  0  0  0  0  0  0  0  0  0  0
   59.2993   26.3272   45.8124 H   0  0  0  0  0  0  0  0  0  0  0  0
   59.5500   28.3390   45.0470 C   0  0  0  0  0  0  0  0  0  0  0  0
   60.6487   28.2869   45.0620 H   0  0  0  0  0  0  0  0  0  0  0  0
   58.9130   29.5020   44.6060 C   0  0  0  0  0  0  0  0  0  0  0  0
   59.5129   30.3669   44.2863 H   0  0  0  0  0  0  0  0  0  0  0  0
   57.5150   29.5720   44.5690 C   0  0  0  0  0  0  0  0  0  0  0  0
   56.8950   30.7960   44.1550 N   0  0  0  0  0  0  0  0  0  0  0  0
   57.3890   31.6740   43.1390 C   0  0  0  0  0  0  0  0  0  0  0  0
   57.2710   31.3770   41.9200 O   0  0  0  0  0  0  0  0  0  0  0  0
   58.0300   32.9670   43.5290 C   0  0  0  0  0  0  0  0  0  0  0  0
   57.4501   33.8043   43.1136 H   0  0  0  0  0  0  0  0  0  0  0  0
   59.0563   33.0024   43.1348 H   0  0  0  0  0  0  0  0  0  0  0  0
   58.0630   33.0740   45.0220 C   0  0  0  0  0  0  0  0  0  0  0  0
   59.1950   32.8110   45.7290 N   0  0  0  0  0  0  0  0  0  0  0  0
   59.0090   33.0060   47.0520 C   0  0  0  0  0  0  0  0  0  0  0  0
   59.9270   32.8210   47.9540 N   0  0  0  0  0  0  0  0  0  0  0  0
   61.3480   32.8910   47.7350 C   0  0  0  0  0  0  0  0  0  0  0  0
   61.9070   33.8240   46.8410 C   0  0  0  0  0  0  0  0  0  0  0  0
   61.2499   34.4999   46.2742 H   0  0  0  0  0  0  0  0  0  0  0  0
   63.2900   33.8960   46.6700 C   0  0  0  0  0  0  0  0  0  0  0  0
   63.7183   34.6124   45.9535 H   0  0  0  0  0  0  0  0  0  0  0  0
   64.1310   33.0600   47.4070 C   0  0  0  0  0  0  0  0  0  0  0  0
   65.2205   33.1138   47.2657 H   0  0  0  0  0  0  0  0  0  0  0  0
   63.5900   32.1550   48.3240 C   0  0  0  0  0  0  0  0  0  0  0  0
   64.2574   31.5099   48.9143 H   0  0  0  0  0  0  0  0  0  0  0  0
   62.1940   32.0640   48.4970 C   0  0  0  0  0  0  0  0  0  0  0  0
   61.6140   31.1640   49.4060 O   0  0  0  0  0  0  0  0  0  0  0  0
   60.7030   30.1290   49.0500 C   0  0  0  0  0  0  0  0  0  0  0  0
   60.2971   29.6679   49.9625 H   0  0  0  0  0  0  0  0  0  0  0  0
   59.8799   30.5532   48.4563 H   0  0  0  0  0  0  0  0  0  0  0  0
   61.2283   29.3664   48.4563 H   0  0  0  0  0  0  0  0  0  0  0  0
   57.4390   33.4910   47.4040 S   0  0  0  0  0  0  0  0  0  0  0  0
   56.9650   33.4710   45.7870 C   0  0  0  0  0  0  0  0  0  0  0  0
   55.9665   33.7258   45.4022 H   0  0  0  0  0  0  0  0  0  0  0  0
   56.7560   28.4730   45.0140 C   0  0  0  0  0  0  0  0  0  0  0  0
   55.6575   28.5306   45.0153 H   0  0  0  0  0  0  0  0  0  0  0  0
  1  2  1  0
  2  3  1  0
  3  4  2  0
  3  5  2  0
  3  6  1  0
  6  7  2  0
  7  8  1  0
  7  9  1  0
  9 10  1  0
  9 11  2  0
 11 12  1  0
 11 13  1  0
 13 14  1  0
 14 15  1  0
 15 16  2  0
 15 17  1  0
 17 18  1  0
 17 19  1  0
 17 20  1  0
 20 21  1  0
 21 22  1  0
 22 23  2  0
 23 24  1  0
 24 25  2  0
 25 26  1  0
 25 27  1  0
 27 28  1  0
 27 29  2  0
 29 30  1  0
 29 31  1  0
 31 32  1  0
 31 33  2  0
 33 34  1  0
 34 35  1  0
 35 36  1  0
 35 37  1  0
 35 38  1  0
 22 39  1  0
 39 40  1  0
 40 41  1  0
 13 42  2  0
 42 43  1  0
 42  6  1  0
 40 20  2  0
 33 24  1  0
M  CHG  3   2  -1  14  -1  21  -1
M  END
>  <UniqueID>  (18) 
16

>  <SMILES>  (18) 
COc1ccccc1/N=c1\[n-]c(CC(=O)[N-]c2cccc(S([NH-])(=O)=O)c2)cs1

>  <Energy>  (18) 
80.3116848067429

>  <Genealogy>  (18) 
COc1ccccc1N=c1[n-]c(CC(=O)[N-]c2cccc(S([NH-])(=O)=O)c2)cs1 (protonated)
COc1ccccc1/N=c1\[n-]c(CC(=O)[N-]c2cccc(S([NH-])(=O)=O)c2)cs1 (cis-trans isomerization)
COc1ccccc1/N=c1\[n-]c(CC(=O)[N-]c2cccc(S([NH-])(=O)=O)c2)cs1 (3D coordinates assigned)
COc1ccccc1/N=c1\[n-]c(CC(=O)[N-]c2cccc(S([NH-])(=O)=O)c2)cs1 (optimized conformer: 80.3116848067429 kcal/mol)

>  <smiles>  (18) 
COc1ccccc1N=c1[nH]c(CC(=O)Nc2cccc(S(N)(=O)=O)c2)cs1

>  <score_type>  (18) 
oracle

>  <origin>  (18) 
adg

>  <m_score__min__energy>  (18) 
-13.949999999999999

>  <m_primary>  (18) 
energy

$$$$
18:0
     RDKit          3D

 53 56  0  0  0  0  0  0  0  0999 V2000
   62.9030   33.4770   50.0570 H   0  0  0  0  0  0  0  0  0  0  0  0
   61.9180   33.7270   50.0340 O   0  0  0  0  0  0  0  0  0  0  0  0
   61.2510   33.9430   48.8270 C   0  0  0  0  0  0  0  0  0  0  0  0
   59.9030   34.3300   48.8250 C   0  0  0  0  0  0  0  0  0  0  0  0
   59.3728   34.4754   49.7778 H   0  0  0  0  0  0  0  0  0  0  0  0
   59.2330   34.5310   47.6190 C   0  0  0  0  0  0  0  0  0  0  0  0
   58.1775   34.8406   47.6249 H   0  0  0  0  0  0  0  0  0  0  0  0
   59.8960   34.3410   46.4000 C   0  0  0  0  0  0  0  0  0  0  0  0
   59.1630   34.5690   45.1360 C   0  0  0  0  0  0  0  0  0  0  0  0
   59.6245   35.2473   44.4032 H   0  0  0  0  0  0  0  0  0  0  0  0
   57.9830   34.0200   44.8050 C   0  0  0  0  0  0  0  0  0  0  0  0
   57.0791   34.5105   45.1952 H   0  0  0  0  0  0  0  0  0  0  0  0
   57.7830   32.8190   43.9660 C   0  0  0  0  0  0  0  0  0  0  0  0
   58.5270   32.6640   42.9590 O   0  0  0  0  0  0  0  0  0  0  0  0
   56.7350   31.8810   44.2630 N   0  0  0  0  0  0  0  0  0  0  0  0
   56.8500   30.6950   44.7870 C   0  0  0  0  0  0  0  0  0  0  0  0
   57.8560   30.4000   45.6470 N   0  0  0  0  0  0  0  0  0  0  0  0
   57.7840   29.1030   46.0470 C   0  0  0  0  0  0  0  0  0  0  0  0
   58.6860   28.5020   46.9240 C   0  0  0  0  0  0  0  0  0  0  0  0
   59.5313   29.0717   47.3374 H   0  0  0  0  0  0  0  0  0  0  0  0
   58.4930   27.1530   47.2690 C   0  0  0  0  0  0  0  0  0  0  0  0
   59.1881   26.6660   47.9688 H   0  0  0  0  0  0  0  0  0  0  0  0
   57.4160   26.4150   46.7270 C   0  0  0  0  0  0  0  0  0  0  0  0
   57.2200   24.7220   47.1770 S   0  0  0  0  0  0  0  0  0  0  0  0
   57.7500   24.5270   48.5700 O   0  0  0  0  0  0  0  0  0  0  0  0
   55.7620   24.3530   47.1600 O   0  0  0  0  0  0  0  0  0  0  0  0
   58.1050   23.6720   46.1140 N   0  0  0  0  0  0  0  0  0  0  0  0
   57.5960   23.0510   44.9230 C   0  0  0  0  0  0  0  0  0  0  0  0
   57.1270   23.8110   43.8370 C   0  0  0  0  0  0  0  0  0  0  0  0
   57.1453   24.9095   43.8918 H   0  0  0  0  0  0  0  0  0  0  0  0
   56.6380   23.1830   42.6890 C   0  0  0  0  0  0  0  0  0  0  0  0
   56.2712   23.7878   41.8466 H   0  0  0  0  0  0  0  0  0  0  0  0
   56.6140   21.7970   42.6090 C   0  0  0  0  0  0  0  0  0  0  0  0
   56.2291   21.3051   41.7035 H   0  0  0  0  0  0  0  0  0  0  0  0
   57.0780   21.0280   43.6770 C   0  0  0  0  0  0  0  0  0  0  0  0
   57.0568   19.9303   43.6085 H   0  0  0  0  0  0  0  0  0  0  0  0
   57.5720   21.6440   44.8390 C   0  0  0  0  0  0  0  0  0  0  0  0
   58.0500   20.8040   45.9910 C   0  0  0  0  0  0  0  0  0  0  0  0
   57.7736   21.2897   46.9385 H   0  0  0  0  0  0  0  0  0  0  0  0
   57.5824   19.8097   45.9386 H   0  0  0  0  0  0  0  0  0  0  0  0
   59.1436   20.6981   45.9386 H   0  0  0  0  0  0  0  0  0  0  0  0
   56.5280   27.0330   45.8230 C   0  0  0  0  0  0  0  0  0  0  0  0
   55.6967   26.4701   45.3734 H   0  0  0  0  0  0  0  0  0  0  0  0
   56.7320   28.3750   45.5150 C   0  0  0  0  0  0  0  0  0  0  0  0
   55.8400   29.3600   44.4920 S   0  0  0  0  0  0  0  0  0  0  0  0
   61.2600   34.0100   46.4050 C   0  0  0  0  0  0  0  0  0  0  0  0
   61.8053   33.9313   45.4529 H   0  0  0  0  0  0  0  0  0  0  0  0
   61.9360   33.7780   47.6170 C   0  0  0  0  0  0  0  0  0  0  0  0
   63.2790   33.3750   47.6590 O   0  0  0  0  0  0  0  0  0  0  0  0
   63.7110   32.0420   47.9040 C   0  0  0  0  0  0  0  0  0  0  0  0
   63.7673   31.8683   48.9887 H   0  0  0  0  0  0  0  0  0  0  0  0
   62.9955   31.3366   47.4564 H   0  0  0  0  0  0  0  0  0  0  0  0
   64.7043   31.8903   47.4564 H   0  0  0  0  0  0  0  0  0  0  0  0
  1  2  1  0
  2  3  1  0
  3  4  2  0
  4  5  1  0
  4  6  1  0
  6  7  1  0
  6  8  2  0
  8  9  1  0
  9 10  1  0
  9 11  2  3
 11 12  1  0
 11 13  1  0
 13 14  2  0
 13 15  1  0
 15 16  2  0
 16 17  1  0
 17 18  1  0
 18 19  2  0
 19 20  1  0
 19 21  1  0
 21 22  1  0
 21 23  2  0
 23 24  1  0
 24 25  2  0
 24 26  2  0
 24 27  1  0
 27 28  1  0
 28 29  2  0
 29 30  1  0
 29 31  1  0
 31 32  1  0
 31 33  2  0
 33 34  1  0
 33 35  1  0
 35 36  1  0
 35 37  2  0
 37 38  1  0
 38 39  1  0
 38 40  1  0
 38 41  1  0
 23 42  1  0
 42 43  1  0
 42 44  2  0
 44 45  1  0
  8 46  1  0
 46 47  1  0
 46 48  2  0
 48 49  1  0
 49 50  1  0
 50 51  1  0
 50 52  1  0
 50 53  1  0
 48  3  1  0
 45 16  1  0
 44 18  1  0
 37 28  1  0
M  CHG  2  17  -1  27  -1
M  END
>  <UniqueID>  (19) 
17

>  <SMILES>  (19) 
COc1cc(C=CC(=O)/N=c2/[n-]c3ccc(S(=O)(=O)[N-]c4ccccc4C)cc3s2)ccc1O

>  <Energy>  (19) 
105.49006846969633

>  <Genealogy>  (19) 
COc1cc(C=CC(=O)N=c2[n-]c3ccc(S(=O)(=O)[N-]c4ccccc4C)cc3s2)ccc1O (protonated)
COc1cc(C=CC(=O)/N=c2/[n-]c3ccc(S(=O)(=O)[N-]c4ccccc4C)cc3s2)ccc1O (cis-trans isomerization)
COc1cc(C=CC(=O)/N=c2/[n-]c3ccc(S(=O)(=O)[N-]c4ccccc4C)cc3s2)ccc1O (3D coordinates assigned)
COc1cc(C=CC(=O)/N=c2/[n-]c3ccc(S(=O)(=O)[N-]c4ccccc4C)cc3s2)ccc1O (optimized conformer: 105.49006846969633 kcal/mol)

>  <smiles>  (19) 
COc1cc(C=CC(=O)N=c2[nH]c3ccc(S(=O)(=O)Nc4ccccc4C)cc3s2)ccc1O

>  <score_type>  (19) 
oracle

>  <origin>  (19) 
adg

>  <m_score__min__energy>  (19) 
-11.31

>  <m_primary>  (19) 
energy

$$$$
19:0
     RDKit          3D

 24 25  0  0  0  0  0  0  0  0999 V2000
   56.6680   34.3580   44.8910 O   0  0  0  0  0  0  0  0  0  0  0  0
   57.7360   33.7020   45.0220 C   0  0  0  0  0  0  0  0  0  0  0  0
   58.3010   32.7170   43.6290 S   0  0  0  0  0  0  0  0  0  0  0  0
   57.4720   31.2410   44.2210 C   0  0  0  0  0  0  0  0  0  0  0  0
   56.2610   30.8380   43.6420 C   0  0  0  0  0  0  0  0  0  0  0  0
   55.6130   29.6880   44.1040 C   0  0  0  0  0  0  0  0  0  0  0  0
   56.1740   28.9360   45.1420 C   0  0  0  0  0  0  0  0  0  0  0  0
   55.5290   27.7940   45.6000 O   0  0  0  0  0  0  0  0  0  0  0  0
   57.3860   29.3340   45.7170 C   0  0  0  0  0  0  0  0  0  0  0  0
   58.0360   30.4830   45.2560 C   0  0  0  0  0  0  0  0  0  0  0  0
   58.4850   33.7520   46.3020 C   0  0  0  0  0  0  0  0  0  0  0  0
   59.6550   34.5220   46.4110 C   0  0  0  0  0  0  0  0  0  0  0  0
   60.3560   34.5730   47.6170 C   0  0  0  0  0  0  0  0  0  0  0  0
   59.8850   33.8490   48.7120 C   0  0  0  0  0  0  0  0  0  0  0  0
   58.7560   33.1020   48.5980 N   0  0  0  0  0  0  0  0  0  0  0  0
   58.0540   33.0360   47.4350 C   0  0  0  0  0  0  0  0  0  0  0  0
   55.8200   31.4264   42.8239 H   0  0  0  0  0  0  0  0  0  0  0  0
   54.6611   29.3743   43.6508 H   0  0  0  0  0  0  0  0  0  0  0  0
   57.8278   28.7425   46.5324 H   0  0  0  0  0  0  0  0  0  0  0  0
   58.9909   30.7922   45.7061 H   0  0  0  0  0  0  0  0  0  0  0  0
   60.0206   35.0877   45.5413 H   0  0  0  0  0  0  0  0  0  0  0  0
   61.2706   35.1781   47.7028 H   0  0  0  0  0  0  0  0  0  0  0  0
   60.4278   33.8828   49.6682 H   0  0  0  0  0  0  0  0  0  0  0  0
   57.1445   32.4198   47.3793 H   0  0  0  0  0  0  0  0  0  0  0  0
  1  2  2  0
  2  3  1  0
  3  4  1  0
  4  5  2  0
  5  6  1  0
  6  7  2  0
  7  8  1  0
  7  9  1  0
  9 10  2  0
  2 11  1  0
 11 12  2  0
 12 13  1  0
 13 14  2  0
 14 15  1  0
 15 16  2  0
 10  4  1  0
 16 11  1  0
  5 17  1  0
  6 18  1  0
  9 19  1  0
 10 20  1  0
 12 21  1  0
 13 22  1  0
 14 23  1  0
 16 24  1  0
M  CHG  1   8  -1
M  END
>  <UniqueID>  (20) 
18

>  <SMILES>  (20) 
O=C(Sc1ccc([O-])cc1)c1cccnc1

>  <Energy>  (20) 
22.889084866481593

>  <Genealogy>  (20) 
O=C(Sc1ccc([O-])cc1)c1cccnc1 (protonated)
O=C(Sc1ccc([O-])cc1)c1cccnc1 (3D coordinates assigned)
O=C(Sc1ccc([O-])cc1)c1cccnc1 (optimized conformer: 22.889084866481593 kcal/mol)

>  <smiles>  (20) 
O=C(Sc1ccc(O)cc1)c1cccnc1

>  <score_type>  (20) 
oracle

>  <origin>  (20) 
adg

>  <m_score__min__energy>  (20) 
-9.6899999999999995

>  <m_primary>  (20) 
energy

$$$$
20:0
     RDKit          3D

 14 14  0  0  0  0  0  0  0  0999 V2000
   60.3900   26.8720   47.8580 C   0  0  0  0  0  0  0  0  0  0  0  0
   59.7070   26.1910   46.7630 N   0  0  0  0  0  0  0  0  0  0  0  0
   58.4250   26.2380   46.5650 C   0  0  0  0  0  0  0  0  0  0  0  0
   57.8460   27.3230   45.9830 N   0  0  0  0  0  0  0  0  0  0  0  0
   56.5040   27.3580   45.7840 C   0  0  0  0  0  0  0  0  0  0  0  0
   55.9810   28.3690   45.2440 O   0  0  0  0  0  0  0  0  0  0  0  0
   55.7320   26.3040   46.1650 N   0  0  0  0  0  0  0  0  0  0  0  0
   54.3690   26.3370   45.9630 O   0  0  0  0  0  0  0  0  0  0  0  0
   56.3110   25.2180   46.7470 C   0  0  0  0  0  0  0  0  0  0  0  0
   55.6080   24.2360   47.1050 O   0  0  0  0  0  0  0  0  0  0  0  0
   57.6530   25.1890   46.9450 N   0  0  0  0  0  0  0  0  0  0  0  0
   60.0105   26.4936   48.8186 H   0  0  0  0  0  0  0  0  0  0  0  0
   61.4713   26.6819   47.7904 H   0  0  0  0  0  0  0  0  0  0  0  0
   60.2030   27.9539   47.7904 H   0  0  0  0  0  0  0  0  0  0  0  0
  1  2  1  0
  2  3  2  3
  3  4  1  0
  4  5  1  0
  5  6  2  0
  5  7  1  0
  7  8  1  0
  7  9  1  0
  9 10  2  0
  9 11  1  0
 11  3  1  0
  1 12  1  0
  1 13  1  0
  1 14  1  0
M  CHG  3   4  -1   8  -1  11  -1
M  END
>  <UniqueID>  (21) 
19

>  <SMILES>  (21) 
CN=c1[n-]c(=O)n([O-])c(=O)[n-]1

>  <Energy>  (21) 
12.778037416002405

>  <Genealogy>  (21) 
CN=c1[n-]c(=O)n([O-])c(=O)[n-]1 (protonated)
CN=c1[n-]c(=O)n([O-])c(=O)[n-]1 (3D coordinates assigned)
CN=c1[n-]c(=O)n([O-])c(=O)[n-]1 (optimized conformer: 12.778037416002405 kcal/mol)

>  <smiles>  (21) 
CN=c1[nH]c(=O)n(O)c(=O)[nH]1

>  <score_type>  (21) 
oracle

>  <origin>  (21) 
adg

>  <m_score__min__energy>  (21) 
-13.06

>  <m_primary>  (21) 
energy

$$$$
21:0
     RDKit          3D

 34 37  0  0  0  0  0  0  0  0999 V2000
   54.3900   28.9790   44.5080 H   0  0  0  0  0  0  0  0  0  0  0  0
   55.3800   29.1520   44.7960 N   0  0  0  0  0  0  0  0  0  0  0  0
   56.1060   30.0490   44.2140 C   0  0  0  0  0  0  0  0  0  0  0  0
   56.7220   31.0050   44.9560 N   0  0  0  0  0  0  0  0  0  0  0  0
   57.4960   31.9650   44.3800 C   0  0  0  0  0  0  0  0  0  0  0  0
   58.1380   32.9790   45.2420 C   0  0  0  0  0  0  0  0  0  0  0  0
   58.3340   32.8280   46.9090 S   0  0  0  0  0  0  0  0  0  0  0  0
   59.0930   34.3070   47.1440 C   0  0  0  0  0  0  0  0  0  0  0  0
   59.6780   34.7480   48.4170 C   0  0  0  0  0  0  0  0  0  0  0  0
   59.4205   35.7553   48.7764 H   0  0  0  0  0  0  0  0  0  0  0  0
   60.5040   34.0090   49.1720 C   0  0  0  0  0  0  0  0  0  0  0  0
   60.2000   33.5130   50.5170 C   0  0  0  0  0  0  0  0  0  0  0  0
   59.1500   33.7590   51.1670 O   0  0  0  0  0  0  0  0  0  0  0  0
   61.2480   32.6850   51.0080 N   0  0  0  0  0  0  0  0  0  0  0  0
   61.3090   32.2230   51.9420 H   0  0  0  0  0  0  0  0  0  0  0  0
   62.2340   32.7060   49.9840 C   0  0  0  0  0  0  0  0  0  0  0  0
   63.4970   32.1210   50.0570 C   0  0  0  0  0  0  0  0  0  0  0  0
   63.7806   31.4998   50.9194 H   0  0  0  0  0  0  0  0  0  0  0  0
   64.3980   32.3430   49.0050 C   0  0  0  0  0  0  0  0  0  0  0  0
   65.3899   31.8678   49.0241 H   0  0  0  0  0  0  0  0  0  0  0  0
   64.0380   33.1720   47.9240 C   0  0  0  0  0  0  0  0  0  0  0  0
   64.7584   33.3554   47.1132 H   0  0  0  0  0  0  0  0  0  0  0  0
   62.7660   33.7660   47.8740 C   0  0  0  0  0  0  0  0  0  0  0  0
   62.4926   34.4402   47.0489 H   0  0  0  0  0  0  0  0  0  0  0  0
   61.8530   33.4810   48.8980 C   0  0  0  0  0  0  0  0  0  0  0  0
   59.2560   34.9220   45.9070 C   0  0  0  0  0  0  0  0  0  0  0  0
   59.7664   35.8875   45.7751 H   0  0  0  0  0  0  0  0  0  0  0  0
   58.7070   34.1920   44.8470 C   0  0  0  0  0  0  0  0  0  0  0  0
   58.7220   34.5397   43.8035 H   0  0  0  0  0  0  0  0  0  0  0  0
   57.6550   31.9650   42.9860 C   0  0  0  0  0  0  0  0  0  0  0  0
   58.2718   32.7300   42.4917 H   0  0  0  0  0  0  0  0  0  0  0  0
   57.0150   30.9750   42.2390 C   0  0  0  0  0  0  0  0  0  0  0  0
   57.1266   30.9533   41.1449 H   0  0  0  0  0  0  0  0  0  0  0  0
   56.2550   30.0390   42.8620 N   0  0  0  0  0  0  0  0  0  0  0  0
  1  2  1  0
  2  3  2  0
  3  4  1  0
  4  5  2  0
  5  6  1  0
  6  7  1  0
  7  8  1  0
  8  9  1  0
  9 10  1  0
  9 11  2  0
 11 12  1  0
 12 13  2  0
 12 14  1  0
 14 15  1  0
 14 16  1  0
 16 17  2  0
 17 18  1  0
 17 19  1  0
 19 20  1  0
 19 21  2  0
 21 22  1  0
 21 23  1  0
 23 24  1  0
 23 25  2  0
  8 26  2  0
 26 27  1  0
 26 28  1  0
 28 29  1  0
  5 30  1  0
 30 31  1  0
 30 32  2  0
 32 33  1  0
 32 34  1  0
 34  3  1  0
 28  6  2  0
 25 11  1  0
 25 16  1  0
M  CHG  1  34  -1
M  END
>  <UniqueID>  (22) 
20

>  <SMILES>  (22) 
[H]/N=c1/nc(-c2ccc(/C=C3/C(=O)Nc4ccccc43)s2)cc[n-]1

>  <Energy>  (22) 
103.95632088722722

>  <Genealogy>  (22) 
N=c1nc(-c2ccc(C=C3C(=O)Nc4ccccc43)s2)cc[n-]1 (protonated)
[H]/N=c1/nc(-c2ccc(/C=C3/C(=O)Nc4ccccc43)s2)cc[n-]1 (cis-trans isomerization)
[H]/N=c1/nc(-c2ccc(/C=C3/C(=O)Nc4ccccc43)s2)cc[n-]1 (3D coordinates assigned)
[H]/N=c1/nc(-c2ccc(/C=C3/C(=O)Nc4ccccc43)s2)cc[n-]1 (nonaromatic ring conformer: 103.95632088722722 kcal/mol)

>  <smiles>  (22) 
N=c1nc(-c2ccc(C=C3C(=O)Nc4ccccc43)s2)cc[nH]1

>  <score_type>  (22) 
oracle

>  <origin>  (22) 
adg

>  <m_score__min__energy>  (22) 
-11.68

>  <m_primary>  (22) 
energy

$$$$
22:0
     RDKit          3D

 50 53  0  0  0  0  0  0  0  0999 V2000
   54.5210   23.8620   45.4110 C   0  0  0  0  0  0  0  0  0  0  0  0
   55.3310   23.4520   46.5530 N   0  0  0  0  0  0  0  0  0  0  0  0
   54.8870   23.2460   47.8040 C   0  0  0  0  0  0  0  0  0  0  0  0
   55.9270   22.7350   48.5480 C   0  0  0  0  0  0  0  0  0  0  0  0
   57.0190   22.6010   47.7690 N   0  0  0  0  0  0  0  0  0  0  0  0
   56.6170   23.0430   46.5600 C   0  0  0  0  0  0  0  0  0  0  0  0
   57.6940   23.0460   45.1260 S   0  0  0  0  0  0  0  0  0  0  0  0
   57.6650   24.8350   44.9940 C   0  0  0  0  0  0  0  0  0  0  0  0
   57.7940   25.4500   43.7440 C   0  0  0  0  0  0  0  0  0  0  0  0
   57.7690   26.8440   43.6450 C   0  0  0  0  0  0  0  0  0  0  0  0
   57.6020   27.6360   44.7900 C   0  0  0  0  0  0  0  0  0  0  0  0
   57.6010   29.0670   44.6630 N   0  0  0  0  0  0  0  0  0  0  0  0
   56.4100   29.8740   44.6640 C   0  0  0  0  0  0  0  0  0  0  0  0
   55.2780   29.3440   44.8130 O   0  0  0  0  0  0  0  0  0  0  0  0
   56.4870   31.2970   44.5220 N   0  0  0  0  0  0  0  0  0  0  0  0
   57.3870   32.1640   45.2270 C   0  0  0  0  0  0  0  0  0  0  0  0
   58.1510   31.6390   46.2760 C   0  0  0  0  0  0  0  0  0  0  0  0
   59.0190   32.4630   46.9990 C   0  0  0  0  0  0  0  0  0  0  0  0
   59.1060   33.8320   46.7060 C   0  0  0  0  0  0  0  0  0  0  0  0
   60.0570   34.7170   47.4640 C   0  0  0  0  0  0  0  0  0  0  0  0
   61.3700   34.0170   47.6590 C   0  0  0  0  0  0  0  0  0  0  0  0
   62.2590   33.8450   46.5870 C   0  0  0  0  0  0  0  0  0  0  0  0
   63.4560   33.1550   46.7940 C   0  0  0  0  0  0  0  0  0  0  0  0
   63.7500   32.6390   48.0560 C   0  0  0  0  0  0  0  0  0  0  0  0
   62.8370   32.8190   49.0980 C   0  0  0  0  0  0  0  0  0  0  0  0
   61.6770   33.4940   48.8790 N   0  0  0  0  0  0  0  0  0  0  0  0
   58.3230   34.3630   45.6690 C   0  0  0  0  0  0  0  0  0  0  0  0
   57.4610   33.5370   44.9420 C   0  0  0  0  0  0  0  0  0  0  0  0
   57.5010   27.0120   46.0470 C   0  0  0  0  0  0  0  0  0  0  0  0
   57.5290   25.6190   46.1460 C   0  0  0  0  0  0  0  0  0  0  0  0
   53.5931   24.3317   45.7694 H   0  0  0  0  0  0  0  0  0  0  0  0
   55.0852   24.5831   44.8013 H   0  0  0  0  0  0  0  0  0  0  0  0
   54.2740   22.9804   44.8013 H   0  0  0  0  0  0  0  0  0  0  0  0
   53.8700   23.4499   48.1702 H   0  0  0  0  0  0  0  0  0  0  0  0
   55.8747   22.4756   49.6157 H   0  0  0  0  0  0  0  0  0  0  0  0
   57.9151   24.8365   42.8391 H   0  0  0  0  0  0  0  0  0  0  0  0
   57.8812   27.3234   42.6613 H   0  0  0  0  0  0  0  0  0  0  0  0
   58.5210   29.5320   44.4920 H   0  0  0  0  0  0  0  0  0  0  0  0
   58.0680   30.5726   46.5328 H   0  0  0  0  0  0  0  0  0  0  0  0
   59.6371   32.0352   47.8021 H   0  0  0  0  0  0  0  0  0  0  0  0
   60.2205   35.6452   46.8968 H   0  0  0  0  0  0  0  0  0  0  0  0
   59.6243   34.9504   48.4480 H   0  0  0  0  0  0  0  0  0  0  0  0
   62.0158   34.2495   45.5934 H   0  0  0  0  0  0  0  0  0  0  0  0
   64.1648   33.0190   45.9638 H   0  0  0  0  0  0  0  0  0  0  0  0
   64.6909   32.0960   48.2290 H   0  0  0  0  0  0  0  0  0  0  0  0
   63.0568   32.4142   50.0969 H   0  0  0  0  0  0  0  0  0  0  0  0
   58.3881   35.4342   45.4273 H   0  0  0  0  0  0  0  0  0  0  0  0
   56.8377   33.9645   44.1428 H   0  0  0  0  0  0  0  0  0  0  0  0
   57.3996   27.6237   46.9556 H   0  0  0  0  0  0  0  0  0  0  0  0
   57.4440   25.1369   47.1311 H   0  0  0  0  0  0  0  0  0  0  0  0
  1  2  1  0
  2  3  1  0
  3  4  2  0
  4  5  1  0
  5  6  2  0
  6  7  1  0
  7  8  1  0
  8  9  2  0
  9 10  1  0
 10 11  2  0
 11 12  1  0
 12 13  1  0
 13 14  2  0
 13 15  1  0
 15 16  1  0
 16 17  2  0
 17 18  1  0
 18 19  2  0
 19 20  1  0
 20 21  1  0
 21 22  2  0
 22 23  1  0
 23 24  2  0
 24 25  1  0
 25 26  2  0
 19 27  1  0
 27 28  2  0
 11 29  1  0
 29 30  2  0
  6  2  1  0
 30  8  1  0
 28 16  1  0
 26 21  1  0
  1 31  1  0
  1 32  1  0
  1 33  1  0
  3 34  1  0
  4 35  1  0
  9 36  1  0
 10 37  1  0
 12 38  1  0
 17 39  1  0
 18 40  1  0
 20 41  1  0
 20 42  1  0
 22 43  1  0
 23 44  1  0
 24 45  1  0
 25 46  1  0
 27 47  1  0
 28 48  1  0
 29 49  1  0
 30 50  1  0
M  CHG  1  15  -1
M  END
>  <UniqueID>  (23) 
21

>  <SMILES>  (23) 
Cn1ccnc1Sc1ccc(NC(=O)[N-]c2ccc(Cc3ccccn3)cc2)cc1

>  <Energy>  (23) 
86.44132593433741

>  <Genealogy>  (23) 
Cn1ccnc1Sc1ccc(NC(=O)[N-]c2ccc(Cc3ccccn3)cc2)cc1 (protonated)
Cn1ccnc1Sc1ccc(NC(=O)[N-]c2ccc(Cc3ccccn3)cc2)cc1 (3D coordinates assigned)
Cn1ccnc1Sc1ccc(NC(=O)[N-]c2ccc(Cc3ccccn3)cc2)cc1 (optimized conformer: 86.44132593433741 kcal/mol)

>  <smiles>  (23) 
Cn1ccnc1Sc1ccc(NC(=O)Nc2ccc(Cc3ccccn3)cc2)cc1

>  <score_type>  (23) 
oracle

>  <origin>  (23) 
adg

>  <m_score__min__energy>  (23) 
-10.960000000000001

>  <m_primary>  (23) 
energy

$$$$
23:0
     RDKit          3D

 42 44  0  0  0  0  0  0  0  0999 V2000
   55.2770   29.3410   44.4640 O   0  0  0  0  0  0  0  0  0  0  0  0
   56.4310   29.0940   44.9110 C   0  0  0  0  0  0  0  0  0  0  0  0
   56.6400   27.9100   45.6030 C   0  0  0  0  0  0  0  0  0  0  0  0
   57.9030   27.6230   46.1030 C   0  0  0  0  0  0  0  0  0  0  0  0
   58.0740   26.3960   46.7510 O   0  0  0  0  0  0  0  0  0  0  0  0
   58.9270   28.5260   45.9420 N   0  0  0  0  0  0  0  0  0  0  0  0
   60.2670   28.2590   46.5030 C   0  0  0  0  0  0  0  0  0  0  0  0
   60.2990   28.5890   47.9990 C   0  0  0  0  0  0  0  0  0  0  0  0
   60.4110   30.0730   48.2120 C   0  0  0  0  0  0  0  0  0  0  0  0
   59.4150   30.7640   48.9230 C   0  0  0  0  0  0  0  0  0  0  0  0
   59.5030   32.1490   49.0910 C   0  0  0  0  0  0  0  0  0  0  0  0
   60.5780   32.8560   48.5430 C   0  0  0  0  0  0  0  0  0  0  0  0
   61.5660   32.1780   47.8220 C   0  0  0  0  0  0  0  0  0  0  0  0
   62.9090   33.0670   47.1250 Cl  0  0  0  0  0  0  0  0  0  0  0  0
   61.4810   30.7910   47.6520 C   0  0  0  0  0  0  0  0  0  0  0  0
   58.7100   29.6800   45.2240 C   0  0  0  0  0  0  0  0  0  0  0  0
   59.6650   30.4850   45.0280 O   0  0  0  0  0  0  0  0  0  0  0  0
   57.4660   29.9690   44.7120 N   0  0  0  0  0  0  0  0  0  0  0  0
   57.2410   31.2370   43.9860 C   0  0  0  0  0  0  0  0  0  0  0  0
   57.7800   32.4010   44.7770 C   0  0  0  0  0  0  0  0  0  0  0  0
   58.6440   33.3300   44.1740 C   0  0  0  0  0  0  0  0  0  0  0  0
   59.1200   34.4260   44.8980 C   0  0  0  0  0  0  0  0  0  0  0  0
   58.7350   34.6060   46.2300 C   0  0  0  0  0  0  0  0  0  0  0  0
   57.8730   33.6890   46.8370 C   0  0  0  0  0  0  0  0  0  0  0  0
   57.3950   32.5920   46.1160 C   0  0  0  0  0  0  0  0  0  0  0  0
   55.8107   27.2034   45.7545 H   0  0  0  0  0  0  0  0  0  0  0  0
   57.7940   26.2080   47.7030 H   0  0  0  0  0  0  0  0  0  0  0  0
   60.5133   27.1963   46.3615 H   0  0  0  0  0  0  0  0  0  0  0  0
   61.0021   28.8915   45.9838 H   0  0  0  0  0  0  0  0  0  0  0  0
   59.3734   28.2253   48.4692 H   0  0  0  0  0  0  0  0  0  0  0  0
   61.1739   28.0991   48.4512 H   0  0  0  0  0  0  0  0  0  0  0  0
   58.5633   30.2132   49.3487 H   0  0  0  0  0  0  0  0  0  0  0  0
   58.7250   32.6839   49.6555 H   0  0  0  0  0  0  0  0  0  0  0  0
   60.6464   33.9454   48.6791 H   0  0  0  0  0  0  0  0  0  0  0  0
   62.2551   30.2611   47.0776 H   0  0  0  0  0  0  0  0  0  0  0  0
   57.7524   31.1927   43.0131 H   0  0  0  0  0  0  0  0  0  0  0  0
   56.1597   31.3763   43.8401 H   0  0  0  0  0  0  0  0  0  0  0  0
   58.9476   33.1938   43.1255 H   0  0  0  0  0  0  0  0  0  0  0  0
   59.7982   35.1479   44.4197 H   0  0  0  0  0  0  0  0  0  0  0  0
   59.1104   35.4689   46.7997 H   0  0  0  0  0  0  0  0  0  0  0  0
   57.5701   33.8312   47.8849 H   0  0  0  0  0  0  0  0  0  0  0  0
   56.7145   31.8745   46.5978 H   0  0  0  0  0  0  0  0  0  0  0  0
  1  2  2  0
  2  3  1  0
  3  4  2  0
  4  5  1  0
  4  6  1  0
  6  7  1  0
  7  8  1  0
  8  9  1  0
  9 10  2  0
 10 11  1  0
 11 12  2  0
 12 13  1  0
 13 14  1  0
 13 15  2  0
  6 16  1  0
 16 17  2  0
 16 18  1  0
 18 19  1  0
 19 20  1  0
 20 21  2  0
 21 22  1  0
 22 23  2  0
 23 24  1  0
 24 25  2  0
 18  2  1  0
 25 20  1  0
 15  9  1  0
  3 26  1  0
  5 27  1  0
  7 28  1  0
  7 29  1  0
  8 30  1  0
  8 31  1  0
 10 32  1  0
 11 33  1  0
 12 34  1  0
 15 35  1  0
 19 36  1  0
 19 37  1  0
 21 38  1  0
 22 39  1  0
 23 40  1  0
 24 41  1  0
 25 42  1  0
M  END
>  <UniqueID>  (24) 
22

>  <SMILES>  (24) 
O=c1cc(O)n(CCc2cccc(Cl)c2)c(=O)n1Cc1ccccc1

>  <Energy>  (24) 
50.19538025126215

>  <Genealogy>  (24) 
O=c1cc(O)n(CCc2cccc(Cl)c2)c(=O)n1Cc1ccccc1 (3D coordinates assigned)
O=c1cc(O)n(CCc2cccc(Cl)c2)c(=O)n1Cc1ccccc1 (optimized conformer: 50.19538025126215 kcal/mol)

>  <smiles>  (24) 
O=c1cc(O)n(CCc2cccc(Cl)c2)c(=O)n1Cc1ccccc1

>  <score_type>  (24) 
oracle

>  <origin>  (24) 
adg

>  <m_score__min__energy>  (24) 
-7.5

>  <m_primary>  (24) 
energy

$$$$
24:0
     RDKit          3D

 60 64  0  0  1  0  0  0  0  0999 V2000
   62.7160   30.4460   50.8860 C   0  0  0  0  0  0  0  0  0  0  0  0
   63.7520   31.3980   50.4270 C   0  0  0  0  0  0  0  0  0  0  0  0
   65.0500   31.1620   50.8910 C   0  0  0  0  0  0  0  0  0  0  0  0
   66.0860   32.0110   50.5520 C   0  0  0  0  0  0  0  0  0  0  0  0
   65.7990   33.0830   49.7500 C   0  0  0  0  0  0  0  0  0  0  0  0
   64.5140   33.3060   49.2970 C   0  0  0  0  0  0  0  0  0  0  0  0
   63.4540   32.4640   49.6240 C   0  0  0  0  0  0  0  0  0  0  0  0
   62.2030   32.7700   49.0800 N   0  0  0  0  0  0  0  0  0  0  0  0
   61.8510   32.2400   47.7730 C   0  0  0  0  0  0  0  0  0  0  0  0
   61.5300   33.3420   46.8050 C   0  0  0  0  0  0  0  0  0  0  0  0
   60.2130   33.8920   47.0860 N   0  0  0  0  0  0  0  0  0  0  0  0
   59.8650   34.9410   46.1600 C   0  0  0  0  0  0  0  0  0  0  0  0
   59.1040   34.3480   45.0070 C   0  0  0  0  0  0  0  0  0  0  0  0
   58.1960   33.3230   45.2620 N   0  0  0  0  0  0  0  0  0  0  0  0
   58.2870   32.1050   45.5080 C   0  0  0  0  0  0  0  0  0  0  0  0
   58.8590   31.6800   46.6290 N   0  0  0  0  0  0  0  0  0  0  0  0
   58.9630   30.3890   46.9930 C   0  0  0  0  0  0  0  0  0  0  0  0
   59.5240   30.0000   48.0880 N   0  0  0  0  0  0  0  0  0  0  0  0
   59.0900   30.4940   49.3620 C   0  0  0  0  0  0  0  0  0  0  0  0
   59.2730   29.6660   50.4580 C   0  0  0  0  0  0  0  0  0  0  0  0
   58.8730   30.0870   51.7220 C   0  0  0  0  0  0  0  0  0  0  0  0
   58.2900   31.3320   51.8990 C   0  0  0  0  0  0  0  0  0  0  0  0
   57.7930   31.8390   53.5090 Cl  0  0  0  0  0  0  0  0  0  0  0  0
   58.1180   32.1400   50.7890 C   0  0  0  0  0  0  0  0  0  0  0  0
   58.5130   31.7310   49.5230 C   0  0  0  0  0  0  0  0  0  0  0  0
   58.4440   29.4820   46.1450 N   0  0  0  0  0  0  0  0  0  0  0  0
   57.8610   29.8750   45.0020 C   0  0  0  0  0  0  0  0  0  0  0  0
   57.3550   28.9040   44.1810 C   0  0  0  0  0  0  0  0  0  0  0  0
   56.7660   29.3340   43.0130 C   0  0  0  0  0  0  0  0  0  0  0  0
   56.6510   30.6280   42.6190 C   0  0  0  0  0  0  0  0  0  0  0  0
   57.1740   31.6290   43.4690 C   0  0  0  0  0  0  0  0  0  0  0  0
   57.7500   31.2020   44.6210 C   0  0  0  0  0  0  0  0  0  0  0  0
   60.1580   34.5730   48.7210 S   0  0  0  0  0  0  0  0  0  0  0  0
   61.2040   33.5550   49.7500 C   0  0  0  0  0  0  0  0  0  0  0  0
   61.0610   33.4790   51.3730 S   0  0  0  0  0  0  0  0  0  0  0  0
   62.6962   30.4278   51.9857 H   0  0  0  0  0  0  0  0  0  0  0  0
   61.7332   30.7626   50.5067 H   0  0  0  0  0  0  0  0  0  0  0  0
   62.9486   29.4400   50.5067 H   0  0  0  0  0  0  0  0  0  0  0  0
   65.2483   30.2910   51.5328 H   0  0  0  0  0  0  0  0  0  0  0  0
   67.1088   31.8314   50.9149 H   0  0  0  0  0  0  0  0  0  0  0  0
   66.6034   33.7761   49.4626 H   0  0  0  0  0  0  0  0  0  0  0  0
   64.3208   34.1787   48.6558 H   0  0  0  0  0  0  0  0  0  0  0  0
   62.6980   31.6563   47.3832 H   0  0  0  0  0  0  0  0  0  0  0  0
   60.9593   31.6057   47.8846 H   0  0  0  0  0  0  0  0  0  0  0  0
   62.2833   34.1381   46.8984 H   0  0  0  0  0  0  0  0  0  0  0  0
   61.5375   32.9346   45.7832 H   0  0  0  0  0  0  0  0  0  0  0  0
   59.2388   35.6886   46.6689 H   0  0  0  0  0  0  0  0  0  0  0  0
   60.7800   35.4262   45.7893 H   0  0  0  0  0  0  0  0  0  0  0  0
   58.5431   35.1673   44.5336 H   0  0  0  0  0  0  0  0  0  0  0  0
   59.8805   33.8703   44.3916 H   0  0  0  0  0  0  0  0  0  0  0  0
   59.2720   32.3730   47.3070 H   0  0  0  0  0  0  0  0  0  0  0  0
   59.7345   28.6759   50.3285 H   0  0  0  0  0  0  0  0  0  0  0  0
   59.0207   29.4260   52.5888 H   0  0  0  0  0  0  0  0  0  0  0  0
   57.6568   33.1309   50.9131 H   0  0  0  0  0  0  0  0  0  0  0  0
   58.3655   32.3913   48.6557 H   0  0  0  0  0  0  0  0  0  0  0  0
   58.5000   28.4740   46.3830 H   0  0  0  0  0  0  0  0  0  0  0  0
   57.4156   27.8367   44.4404 H   0  0  0  0  0  0  0  0  0  0  0  0
   56.3542   28.5647   42.3432 H   0  0  0  0  0  0  0  0  0  0  0  0
   56.1656   30.8896   41.6672 H   0  0  0  0  0  0  0  0  0  0  0  0
   57.1171   32.6967   43.2105 H   0  0  0  0  0  0  0  0  0  0  0  0
  1  2  1  0
  2  3  2  0
  3  4  1  0
  4  5  2  0
  5  6  1  0
  6  7  2  0
  7  8  1  0
  8  9  1  0
  9 10  1  0
 10 11  1  0
 11 12  1  0
 12 13  1  0
 13 14  1  0
 14 15  2  0
 15 16  1  0
 16 17  1  0
 17 18  2  0
 18 19  1  0
 19 20  2  0
 20 21  1  0
 21 22  2  0
 22 23  1  0
 22 24  1  0
 24 25  2  0
 17 26  1  0
 26 27  1  0
 27 28  2  0
 28 29  1  0
 29 30  2  0
 30 31  1  0
 31 32  2  0
 11 33  1  0
 33 34  1  0
 34 35  2  0
  7  2  1  0
 34  8  1  0
 32 15  1  0
 25 19  1  0
 32 27  1  0
  1 36  1  0
  1 37  1  0
  1 38  1  0
  3 39  1  0
  4 40  1  0
  5 41  1  0
  6 42  1  0
  9 43  1  0
  9 44  1  0
 10 45  1  0
 10 46  1  0
 12 47  1  0
 12 48  1  0
 13 49  1  0
 13 50  1  0
 16 51  1  0
 20 52  1  0
 21 53  1  0
 24 54  1  0
 25 55  1  0
 26 56  1  0
 28 57  1  0
 29 58  1  0
 30 59  1  0
 31 60  1  0
M  END
>  <smiles>  (25) 
Cc1ccccc1N1CCN(CCN=c2[nH]c(=Nc3ccc(Cl)cc3)[nH]c3ccccc23)SC1=S

>  <score_type>  (25) 
oracle

>  <origin>  (25) 
adg

>  <m_score__min__energy>  (25) 
-10.550000000000001

>  <m_primary>  (25) 
energy

$$$$
25:0
     RDKit          3D

 23 25  0  0  0  0  0  0  0  0999 V2000
   57.0080   28.6840   45.0930 S   0  0  0  0  0  0  0  0  0  0  0  0
   57.2760   30.2240   44.5910 C   0  0  0  0  0  0  0  0  0  0  0  0
   57.8210   30.5510   43.3860 N   0  0  0  0  0  0  0  0  0  0  0  0
   57.8870   31.8710   43.3240 N   0  0  0  0  0  0  0  0  0  0  0  0
   57.3850   32.3700   44.4890 C   0  0  0  0  0  0  0  0  0  0  0  0
   57.2780   33.8280   44.8230 C   0  0  0  0  0  0  0  0  0  0  0  0
   58.3690   34.2160   45.6960 N   0  0  0  0  0  0  0  0  0  0  0  0
   59.2340   35.1720   45.3610 N   0  0  0  0  0  0  0  0  0  0  0  0
   60.1300   35.3290   46.3320 N   0  0  0  0  0  0  0  0  0  0  0  0
   59.8310   34.4530   47.3130 C   0  0  0  0  0  0  0  0  0  0  0  0
   60.4120   34.1920   48.5200 C   0  0  0  0  0  0  0  0  0  0  0  0
   59.8630   33.2150   49.3180 C   0  0  0  0  0  0  0  0  0  0  0  0
   58.7330   32.4890   48.9260 C   0  0  0  0  0  0  0  0  0  0  0  0
   58.1400   32.7560   47.6950 C   0  0  0  0  0  0  0  0  0  0  0  0
   58.7080   33.7410   46.9090 C   0  0  0  0  0  0  0  0  0  0  0  0
   57.0130   31.3470   45.2570 O   0  0  0  0  0  0  0  0  0  0  0  0
   58.1410   29.9160   42.6220 H   0  0  0  0  0  0  0  0  0  0  0  0
   57.3247   34.4188   43.8963 H   0  0  0  0  0  0  0  0  0  0  0  0
   56.3218   34.0130   45.3343 H   0  0  0  0  0  0  0  0  0  0  0  0
   61.3007   34.7511   48.8480 H   0  0  0  0  0  0  0  0  0  0  0  0
   60.3257   32.9984   50.2922 H   0  0  0  0  0  0  0  0  0  0  0  0
   58.3164   31.7133   49.5853 H   0  0  0  0  0  0  0  0  0  0  0  0
   57.2506   32.2025   47.3596 H   0  0  0  0  0  0  0  0  0  0  0  0
  1  2  2  0
  2  3  1  0
  3  4  1  0
  4  5  2  0
  5  6  1  0
  6  7  1  0
  7  8  1  0
  8  9  2  0
  9 10  1  0
 10 11  2  0
 11 12  1  0
 12 13  2  0
 13 14  1  0
 14 15  2  0
  5 16  1  0
 16  2  1  0
 15  7  1  0
 15 10  1  0
  3 17  1  0
  6 18  1  0
  6 19  1  0
 11 20  1  0
 12 21  1  0
 13 22  1  0
 14 23  1  0
M  END
>  <smiles>  (26) 
S=c1[nH]nc(Cn2nnc3ccccc32)o1

>  <score_type>  (26) 
oracle

>  <origin>  (26) 
adg

>  <m_score__min__energy>  (26) 
-6.6100000000000003

>  <m_primary>  (26) 
energy

$$$$
26:0
     RDKit          3D

 38 41  0  0  0  0  0  0  0  0999 V2000
   55.1480   27.8960   44.8960 H   0  0  0  0  0  0  0  0  0  0  0  0
   55.3820   28.8750   44.7850 O   0  0  0  0  0  0  0  0  0  0  0  0
   56.6220   29.3830   45.1730 C   0  0  0  0  0  0  0  0  0  0  0  0
   57.0320   30.6380   44.7090 C   0  0  0  0  0  0  0  0  0  0  0  0
   56.3872   31.2012   44.0183 H   0  0  0  0  0  0  0  0  0  0  0  0
   58.2490   31.1800   45.1140 C   0  0  0  0  0  0  0  0  0  0  0  0
   58.5599   32.1669   44.7407 H   0  0  0  0  0  0  0  0  0  0  0  0
   59.0790   30.4750   45.9940 C   0  0  0  0  0  0  0  0  0  0  0  0
   60.3030   31.0310   46.4010 C   0  0  0  0  0  0  0  0  0  0  0  0
   60.6034   32.0231   46.0330 H   0  0  0  0  0  0  0  0  0  0  0  0
   61.1390   30.3300   47.2700 C   0  0  0  0  0  0  0  0  0  0  0  0
   62.0953   30.7719   47.5865 H   0  0  0  0  0  0  0  0  0  0  0  0
   60.7660   29.0700   47.7390 C   0  0  0  0  0  0  0  0  0  0  0  0
   61.4306   28.5208   48.4222 H   0  0  0  0  0  0  0  0  0  0  0  0
   59.5510   28.5030   47.3440 C   0  0  0  0  0  0  0  0  0  0  0  0
   59.2668   27.5079   47.7169 H   0  0  0  0  0  0  0  0  0  0  0  0
   58.6850   29.1970   46.4700 C   0  0  0  0  0  0  0  0  0  0  0  0
   57.4520   28.6430   46.0420 C   0  0  0  0  0  0  0  0  0  0  0  0
   57.0000   27.3160   46.5270 C   0  0  0  0  0  0  0  0  0  0  0  0
   57.5785   26.8314   47.3273 H   0  0  0  0  0  0  0  0  0  0  0  0
   55.9550   26.6910   46.0580 N   0  0  0  0  0  0  0  0  0  0  0  0
   55.9200   25.3770   45.4780 C   0  0  0  0  0  0  0  0  0  0  0  0
   54.7040   24.7020   45.2480 C   0  0  0  0  0  0  0  0  0  0  0  0
   53.7528   25.1738   45.5354 H   0  0  0  0  0  0  0  0  0  0  0  0
   54.7020   23.4350   44.6560 C   0  0  0  0  0  0  0  0  0  0  0  0
   53.7525   22.9029   44.4968 H   0  0  0  0  0  0  0  0  0  0  0  0
   55.9080   22.8460   44.2670 C   0  0  0  0  0  0  0  0  0  0  0  0
   57.1190   23.5140   44.4890 C   0  0  0  0  0  0  0  0  0  0  0  0
   57.1230   24.7860   45.0680 C   0  0  0  0  0  0  0  0  0  0  0  0
   58.0726   25.3247   45.2023 H   0  0  0  0  0  0  0  0  0  0  0  0
   58.3150   22.8890   44.1250 O   0  0  0  0  0  0  0  0  0  0  0  0
   58.3520   21.4980   43.7960 C   0  0  0  0  0  0  0  0  0  0  0  0
   59.2486   21.2910   43.1934 H   0  0  0  0  0  0  0  0  0  0  0  0
   58.3799   20.9101   44.7253 H   0  0  0  0  0  0  0  0  0  0  0  0
   57.1020   21.1090   42.9950 C   0  0  0  0  0  0  0  0  0  0  0  0
   57.1653   21.5471   41.9880 H   0  0  0  0  0  0  0  0  0  0  0  0
   57.0479   20.0125   42.9259 H   0  0  0  0  0  0  0  0  0  0  0  0
   55.9250   21.5930   43.6470 O   0  0  0  0  0  0  0  0  0  0  0  0
  1  2  1  0
  2  3  1  0
  3  4  2  0
  4  5  1  0
  4  6  1  0
  6  7  1  0
  6  8  2  0
  8  9  1  0
  9 10  1  0
  9 11  2  0
 11 12  1  0
 11 13  1  0
 13 14  1  0
 13 15  2  0
 15 16  1  0
 15 17  1  0
 17 18  2  0
 18 19  1  0
 19 20  1  0
 19 21  2  0
 21 22  1  0
 22 23  2  0
 23 24  1  0
 23 25  1  0
 25 26  1  0
 25 27  2  0
 27 28  1  0
 28 29  2  0
 29 30  1  0
 28 31  1  0
 31 32  1  0
 32 33  1  0
 32 34  1  0
 32 35  1  0
 35 36  1  0
 35 37  1  0
 35 38  1  0
 18  3  1  0
 29 22  1  0
 17  8  1  0
 38 27  1  0
M  END
>  <UniqueID>  (27) 
23

>  <SMILES>  (27) 
Oc1ccc2ccccc2c1/C=N\c1ccc2c(c1)OCCO2

>  <Energy>  (27) 
60.211222515322504

>  <Genealogy>  (27) 
Oc1ccc2ccccc2c1/C=N\c1ccc2c(c1)OCCO2 (cis-trans isomerization)
Oc1ccc2ccccc2c1/C=N\c1ccc2c(c1)OCCO2 (3D coordinates assigned)
Oc1ccc2ccccc2c1/C=N\c1ccc2c(c1)OCCO2 (nonaromatic ring conformer: 60.211222515322504 kcal/mol)

>  <smiles>  (27) 
Oc1ccc2ccccc2c1C=Nc1ccc2c(c1)OCCO2

>  <score_type>  (27) 
oracle

>  <origin>  (27) 
adg

>  <m_score__min__energy>  (27) 
-8.1300000000000008

>  <m_primary>  (27) 
energy

$$$$
27:0
     RDKit          3D

 39 41  0  0  0  0  0  0  0  0999 V2000
   55.2870   29.3780   44.4850 N   0  0  0  0  0  0  0  0  0  0  0  0
   56.2640   28.5810   45.1600 C   0  0  0  0  0  0  0  0  0  0  0  0
   55.8880   27.3790   45.6730 N   0  0  0  0  0  0  0  0  0  0  0  0
   56.7840   26.5430   46.2570 C   0  0  0  0  0  0  0  0  0  0  0  0
   56.3710   25.4120   46.7480 N   0  0  0  0  0  0  0  0  0  0  0  0
   55.4350   24.5060   46.0840 C   0  0  0  0  0  0  0  0  0  0  0  0
   56.1680   23.5870   45.1430 C   0  0  0  0  0  0  0  0  0  0  0  0
   55.7090   23.4170   43.8260 C   0  0  0  0  0  0  0  0  0  0  0  0
   56.3700   22.5450   42.9560 C   0  0  0  0  0  0  0  0  0  0  0  0
   57.4910   21.8350   43.3950 C   0  0  0  0  0  0  0  0  0  0  0  0
   57.9520   21.9950   44.7040 C   0  0  0  0  0  0  0  0  0  0  0  0
   57.2940   22.8670   45.5770 C   0  0  0  0  0  0  0  0  0  0  0  0
   58.0950   26.8960   46.3130 N   0  0  0  0  0  0  0  0  0  0  0  0
   58.5280   28.0850   45.8230 C   0  0  0  0  0  0  0  0  0  0  0  0
   59.7490   28.3820   45.9020 O   0  0  0  0  0  0  0  0  0  0  0  0
   57.6140   28.9820   45.2560 C   0  0  0  0  0  0  0  0  0  0  0  0
   58.0760   30.2650   44.8060 N   0  0  0  0  0  0  0  0  0  0  0  0
   57.4810   31.5290   45.1330 C   0  0  0  0  0  0  0  0  0  0  0  0
   56.2660   31.7140   44.8530 O   0  0  0  0  0  0  0  0  0  0  0  0
   58.2500   32.6220   45.7730 C   0  0  0  0  0  0  0  0  0  0  0  0
   58.6090   33.7750   45.0500 C   0  0  0  0  0  0  0  0  0  0  0  0
   59.3380   34.7960   45.6660 C   0  0  0  0  0  0  0  0  0  0  0  0
   59.7060   34.6830   47.0090 C   0  0  0  0  0  0  0  0  0  0  0  0
   59.3380   33.5510   47.7400 C   0  0  0  0  0  0  0  0  0  0  0  0
   58.6090   32.5270   47.1280 C   0  0  0  0  0  0  0  0  0  0  0  0
   55.5330   30.3420   44.1680 H   0  0  0  0  0  0  0  0  0  0  0  0
   54.2950   29.0720   44.3880 H   0  0  0  0  0  0  0  0  0  0  0  0
   54.9127   23.9052   46.8431 H   0  0  0  0  0  0  0  0  0  0  0  0
   54.7116   25.1016   45.5079 H   0  0  0  0  0  0  0  0  0  0  0  0
   54.8257   23.9725   43.4780 H   0  0  0  0  0  0  0  0  0  0  0  0
   56.0076   22.4175   41.9253 H   0  0  0  0  0  0  0  0  0  0  0  0
   58.0107   21.1497   42.7092 H   0  0  0  0  0  0  0  0  0  0  0  0
   58.8336   21.4344   45.0484 H   0  0  0  0  0  0  0  0  0  0  0  0
   57.6592   22.9898   46.6073 H   0  0  0  0  0  0  0  0  0  0  0  0
   58.3143   33.8730   43.9948 H   0  0  0  0  0  0  0  0  0  0  0  0
   59.6226   35.6903   45.0923 H   0  0  0  0  0  0  0  0  0  0  0  0
   60.2851   35.4848   47.4904 H   0  0  0  0  0  0  0  0  0  0  0  0
   59.6223   33.4651   48.7991 H   0  0  0  0  0  0  0  0  0  0  0  0
   58.3148   31.6417   47.7108 H   0  0  0  0  0  0  0  0  0  0  0  0
  1  2  1  0
  2  3  1  0
  3  4  1  0
  4  5  2  3
  5  6  1  0
  6  7  1  0
  7  8  2  0
  8  9  1  0
  9 10  2  0
 10 11  1  0
 11 12  2  0
  4 13  1  0
 13 14  1  0
 14 15  2  0
 14 16  1  0
 16 17  1  0
 17 18  1  0
 18 19  2  0
 18 20  1  0
 20 21  2  0
 21 22  1  0
 22 23  2  0
 23 24  1  0
 24 25  2  0
 16  2  2  0
 25 20  1  0
 12  7  1  0
  1 26  1  0
  1 27  1  0
  6 28  1  0
  6 29  1  0
  8 30  1  0
  9 31  1  0
 10 32  1  0
 11 33  1  0
 12 34  1  0
 21 35  1  0
 22 36  1  0
 23 37  1  0
 24 38  1  0
 25 39  1  0
M  CHG  3   3  -1  13  -1  17  -1
M  END
>  <UniqueID>  (28) 
24

>  <SMILES>  (28) 
Nc1[n-]c(=NCc2ccccc2)[n-]c(=O)c1[N-]C(=O)c1ccccc1

>  <Energy>  (28) 
51.417804018028676

>  <Genealogy>  (28) 
Nc1[n-]c(=NCc2ccccc2)[n-]c(=O)c1[N-]C(=O)c1ccccc1 (protonated)
Nc1[n-]c(=NCc2ccccc2)[n-]c(=O)c1[N-]C(=O)c1ccccc1 (3D coordinates assigned)
Nc1[n-]c(=NCc2ccccc2)[n-]c(=O)c1[N-]C(=O)c1ccccc1 (optimized conformer: 51.417804018028676 kcal/mol)

>  <smiles>  (28) 
Nc1[nH]c(=NCc2ccccc2)[nH]c(=O)c1NC(=O)c1ccccc1

>  <score_type>  (28) 
oracle

>  <origin>  (28) 
adg

>  <m_score__min__energy>  (28) 
-13.529999999999999

>  <m_primary>  (28) 
energy

$$$$
28:0
     RDKit          3D

 65 69  0  0  0  0  0  0  0  0999 V2000
   59.2410   35.3350   45.9290 O   0  0  0  0  0  0  0  0  0  0  0  0
   59.5090   34.2570   46.5290 C   0  0  0  0  0  0  0  0  0  0  0  0
   58.4720   33.2720   46.6330 N   0  0  0  0  0  0  0  0  0  0  0  0
   58.6260   31.8530   46.7860 C   0  0  0  0  0  0  0  0  0  0  0  0
   59.2650   31.3880   47.9420 C   0  0  0  0  0  0  0  0  0  0  0  0
   59.4890   30.0200   48.1350 C   0  0  0  0  0  0  0  0  0  0  0  0
   60.2700   29.4610   49.6130 S   0  0  0  0  0  0  0  0  0  0  0  0
   60.0890   27.9750   49.7680 O   0  0  0  0  0  0  0  0  0  0  0  0
   61.7410   29.7570   49.5180 O   0  0  0  0  0  0  0  0  0  0  0  0
   59.5780   30.2940   50.9830 N   0  0  0  0  0  0  0  0  0  0  0  0
   60.2370   31.6030   51.2060 C   0  0  0  0  0  0  0  0  0  0  0  0
   59.3250   32.7880   50.8410 C   0  0  0  0  0  0  0  0  0  0  0  0
   58.1040   32.7850   51.5610 O   0  0  0  0  0  0  0  0  0  0  0  0
   57.5570   31.4860   51.7610 C   0  0  0  0  0  0  0  0  0  0  0  0
   58.1170   30.4060   50.8190 C   0  0  0  0  0  0  0  0  0  0  0  0
   59.0590   29.1080   47.1670 C   0  0  0  0  0  0  0  0  0  0  0  0
   58.3830   29.5570   46.0310 C   0  0  0  0  0  0  0  0  0  0  0  0
   58.1460   30.9260   45.8300 C   0  0  0  0  0  0  0  0  0  0  0  0
   57.3390   31.3510   44.7160 N   0  0  0  0  0  0  0  0  0  0  0  0
   57.7400   32.4900   43.8850 C   0  0  0  0  0  0  0  0  0  0  0  0
   58.0320   31.9830   42.4710 C   0  0  0  0  0  0  0  0  0  0  0  0
   56.9120   31.2860   41.9530 O   0  0  0  0  0  0  0  0  0  0  0  0
   56.6720   30.1170   42.7180 C   0  0  0  0  0  0  0  0  0  0  0  0
   56.3130   30.4660   44.1680 C   0  0  0  0  0  0  0  0  0  0  0  0
   60.8570   34.0800   47.1330 C   0  0  0  0  0  0  0  0  0  0  0  0
   61.0460   34.3430   48.5030 C   0  0  0  0  0  0  0  0  0  0  0  0
   62.2920   34.1440   49.1000 C   0  0  0  0  0  0  0  0  0  0  0  0
   63.3760   33.6930   48.3420 C   0  0  0  0  0  0  0  0  0  0  0  0
   64.6030   33.4600   48.9760 O   0  0  0  0  0  0  0  0  0  0  0  0
   64.8450   32.3970   49.8570 C   0  0  0  0  0  0  0  0  0  0  0  0
   63.7610   31.6860   50.3840 C   0  0  0  0  0  0  0  0  0  0  0  0
   63.9820   30.6160   51.2570 C   0  0  0  0  0  0  0  0  0  0  0  0
   65.2830   30.2730   51.6330 C   0  0  0  0  0  0  0  0  0  0  0  0
   66.3690   31.0010   51.1370 C   0  0  0  0  0  0  0  0  0  0  0  0
   66.1550   32.0600   50.2470 C   0  0  0  0  0  0  0  0  0  0  0  0
   63.1970   33.4240   46.9740 C   0  0  0  0  0  0  0  0  0  0  0  0
   61.9420   33.5940   46.3810 C   0  0  0  0  0  0  0  0  0  0  0  0
   59.5947   32.1062   48.7072 H   0  0  0  0  0  0  0  0  0  0  0  0
   60.5129   31.6834   52.2678 H   0  0  0  0  0  0  0  0  0  0  0  0
   61.1227   31.6481   50.5552 H   0  0  0  0  0  0  0  0  0  0  0  0
   59.8600   33.7237   51.0607 H   0  0  0  0  0  0  0  0  0  0  0  0
   59.0790   32.6991   49.7725 H   0  0  0  0  0  0  0  0  0  0  0  0
   57.7666   31.1807   52.7968 H   0  0  0  0  0  0  0  0  0  0  0  0
   56.4812   31.5628   51.5445 H   0  0  0  0  0  0  0  0  0  0  0  0
   57.6497   29.4390   51.0566 H   0  0  0  0  0  0  0  0  0  0  0  0
   57.8933   30.6862   49.7791 H   0  0  0  0  0  0  0  0  0  0  0  0
   59.2537   28.0337   47.3006 H   0  0  0  0  0  0  0  0  0  0  0  0
   58.0319   28.8294   45.2845 H   0  0  0  0  0  0  0  0  0  0  0  0
   56.9267   33.2300   43.8529 H   0  0  0  0  0  0  0  0  0  0  0  0
   58.6377   32.9657   44.3068 H   0  0  0  0  0  0  0  0  0  0  0  0
   58.2588   32.8394   41.8189 H   0  0  0  0  0  0  0  0  0  0  0  0
   58.8915   31.2975   42.5090 H   0  0  0  0  0  0  0  0  0  0  0  0
   55.8390   29.5579   42.2669 H   0  0  0  0  0  0  0  0  0  0  0  0
   57.5894   29.5100   42.7231 H   0  0  0  0  0  0  0  0  0  0  0  0
   55.3372   30.9732   44.1938 H   0  0  0  0  0  0  0  0  0  0  0  0
   56.2593   29.5455   44.7679 H   0  0  0  0  0  0  0  0  0  0  0  0
   60.2038   34.7088   49.1088 H   0  0  0  0  0  0  0  0  0  0  0  0
   62.4215   34.3435   50.1740 H   0  0  0  0  0  0  0  0  0  0  0  0
   62.7337   31.9691   50.1112 H   0  0  0  0  0  0  0  0  0  0  0  0
   63.1288   30.0427   51.6488 H   0  0  0  0  0  0  0  0  0  0  0  0
   65.4531   29.4303   52.3192 H   0  0  0  0  0  0  0  0  0  0  0  0
   67.3921   30.7413   51.4464 H   0  0  0  0  0  0  0  0  0  0  0  0
   67.0100   32.6286   49.8525 H   0  0  0  0  0  0  0  0  0  0  0  0
   64.0473   33.0785   46.3677 H   0  0  0  0  0  0  0  0  0  0  0  0
   61.8022   33.3458   45.3185 H   0  0  0  0  0  0  0  0  0  0  0  0
  1  2  2  0
  2  3  1  0
  3  4  1  0
  4  5  2  0
  5  6  1  0
  6  7  1  0
  7  8  2  0
  7  9  2  0
  7 10  1  0
 10 11  1  0
 11 12  1  0
 12 13  1  0
 13 14  1  0
 14 15  1  0
  6 16  2  0
 16 17  1  0
 17 18  2  0
 18 19  1  0
 19 20  1  0
 20 21  1  0
 21 22  1  0
 22 23  1  0
 23 24  1  0
  2 25  1  0
 25 26  2  0
 26 27  1  0
 27 28  2  0
 28 29  1  0
 29 30  1  0
 30 31  2  0
 31 32  1  0
 32 33  2  0
 33 34  1  0
 34 35  2  0
 28 36  1  0
 36 37  2  0
 18  4  1  0
 24 19  1  0
 37 25  1  0
 15 10  1  0
 35 30  1  0
  5 38  1  0
 11 39  1  0
 11 40  1  0
 12 41  1  0
 12 42  1  0
 14 43  1  0
 14 44  1  0
 15 45  1  0
 15 46  1  0
 16 47  1  0
 17 48  1  0
 20 49  1  0
 20 50  1  0
 21 51  1  0
 21 52  1  0
 23 53  1  0
 23 54  1  0
 24 55  1  0
 24 56  1  0
 26 57  1  0
 27 58  1  0
 31 59  1  0
 32 60  1  0
 33 61  1  0
 34 62  1  0
 35 63  1  0
 36 64  1  0
 37 65  1  0
M  CHG  1   3  -1
M  END
>  <UniqueID>  (29) 
25

>  <SMILES>  (29) 
O=C([N-]c1cc(S(=O)(=O)N2CCOCC2)ccc1N1CCOCC1)c1ccc(Oc2ccccc2)cc1

>  <Energy>  (29) 
102.60883881402673

>  <Genealogy>  (29) 
O=C([N-]c1cc(S(=O)(=O)N2CCOCC2)ccc1N1CCOCC1)c1ccc(Oc2ccccc2)cc1 (protonated)
O=C([N-]c1cc(S(=O)(=O)N2CCOCC2)ccc1N1CCOCC1)c1ccc(Oc2ccccc2)cc1 (3D coordinates assigned)
O=C([N-]c1cc(S(=O)(=O)N2CCOCC2)ccc1N1CCOCC1)c1ccc(Oc2ccccc2)cc1 (nonaromatic ring conformer: 102.60883881402673 kcal/mol)

>  <smiles>  (29) 
O=C(Nc1cc(S(=O)(=O)N2CCOCC2)ccc1N1CCOCC1)c1ccc(Oc2ccccc2)cc1

>  <score_type>  (29) 
oracle

>  <origin>  (29) 
adg

>  <m_score__min__energy>  (29) 
-10.66

>  <m_primary>  (29) 
energy

$$$$
29:0
     RDKit          3D

 38 40  0  0  0  0  0  0  0  0999 V2000
   54.7620   26.7140   45.0560 H   0  0  0  0  0  0  0  0  0  0  0  0
   55.2010   26.7090   46.0050 N   0  0  0  0  0  0  0  0  0  0  0  0
   56.9030   26.9040   45.7750 S   0  0  0  0  0  0  0  0  0  0  0  0
   57.5960   26.6770   47.0900 O   0  0  0  0  0  0  0  0  0  0  0  0
   57.3930   25.8960   44.7750 O   0  0  0  0  0  0  0  0  0  0  0  0
   57.2410   28.5270   45.1850 C   0  0  0  0  0  0  0  0  0  0  0  0
   56.2190   29.2850   44.6010 C   0  0  0  0  0  0  0  0  0  0  0  0
   55.2055   28.8653   44.5191 H   0  0  0  0  0  0  0  0  0  0  0  0
   56.4790   30.5730   44.1210 C   0  0  0  0  0  0  0  0  0  0  0  0
   55.6703   31.1601   43.6614 H   0  0  0  0  0  0  0  0  0  0  0  0
   57.7730   31.1210   44.2240 C   0  0  0  0  0  0  0  0  0  0  0  0
   58.1070   32.4340   43.7420 N   0  0  0  0  0  0  0  0  0  0  0  0
   58.4790   33.4540   44.4570 C   0  0  0  0  0  0  0  0  0  0  0  0
   58.6118   34.4321   43.9716 H   0  0  0  0  0  0  0  0  0  0  0  0
   58.7290   33.3260   45.9190 C   0  0  0  0  0  0  0  0  0  0  0  0
   57.6400   33.2250   46.7990 C   0  0  0  0  0  0  0  0  0  0  0  0
   56.3330   33.2440   46.3240 O   0  0  0  0  0  0  0  0  0  0  0  0
   57.8520   33.1090   48.1310 N   0  0  0  0  0  0  0  0  0  0  0  0
   59.1020   33.0840   48.6540 C   0  0  0  0  0  0  0  0  0  0  0  0
   59.2380   32.9580   49.9010 O   0  0  0  0  0  0  0  0  0  0  0  0
   60.1950   33.1820   47.8350 N   0  0  0  0  0  0  0  0  0  0  0  0
   61.5230   33.1530   48.4000 C   0  0  0  0  0  0  0  0  0  0  0  0
   61.9210   34.1350   49.3230 C   0  0  0  0  0  0  0  0  0  0  0  0
   61.2183   34.9286   49.6168 H   0  0  0  0  0  0  0  0  0  0  0  0
   63.2080   34.1060   49.8690 C   0  0  0  0  0  0  0  0  0  0  0  0
   63.5157   34.8770   50.5907 H   0  0  0  0  0  0  0  0  0  0  0  0
   64.1050   33.0980   49.4990 C   0  0  0  0  0  0  0  0  0  0  0  0
   65.8630   33.0620   50.2450 Br  0  0  0  0  0  0  0  0  0  0  0  0
   63.7130   32.1180   48.5810 C   0  0  0  0  0  0  0  0  0  0  0  0
   64.4174   31.3246   48.2907 H   0  0  0  0  0  0  0  0  0  0  0  0
   62.4280   32.1450   48.0320 C   0  0  0  0  0  0  0  0  0  0  0  0
   62.1247   31.3735   47.3089 H   0  0  0  0  0  0  0  0  0  0  0  0
   60.0280   33.3070   46.4790 C   0  0  0  0  0  0  0  0  0  0  0  0
   61.0390   33.4150   45.7310 O   0  0  0  0  0  0  0  0  0  0  0  0
   58.7940   30.3490   44.7930 C   0  0  0  0  0  0  0  0  0  0  0  0
   59.8118   30.7600   44.8639 H   0  0  0  0  0  0  0  0  0  0  0  0
   58.5330   29.0610   45.2720 C   0  0  0  0  0  0  0  0  0  0  0  0
   59.3439   28.4663   45.7179 H   0  0  0  0  0  0  0  0  0  0  0  0
  1  2  1  0
  2  3  1  0
  3  4  2  0
  3  5  2  0
  3  6  1  0
  6  7  2  0
  7  8  1  0
  7  9  1  0
  9 10  1  0
  9 11  2  0
 11 12  1  0
 12 13  2  0
 13 14  1  0
 13 15  1  0
 15 16  2  0
 16 17  1  0
 16 18  1  0
 18 19  1  0
 19 20  2  0
 19 21  1  0
 21 22  1  0
 22 23  2  0
 23 24  1  0
 23 25  1  0
 25 26  1  0
 25 27  2  0
 27 28  1  0
 27 29  1  0
 29 30  1  0
 29 31  2  0
 31 32  1  0
 21 33  1  0
 33 34  2  0
 11 35  1  0
 35 36  1  0
 35 37  2  0
 37 38  1  0
 37  6  1  0
 33 15  1  0
 31 22  1  0
M  CHG  3   2  -1  17  -1  18  -1
M  END
>  <UniqueID>  (30) 
26

>  <SMILES>  (30) 
[NH-]S(=O)(=O)c1ccc(/N=C/c2c([O-])[n-]c(=O)n(-c3ccc(Br)cc3)c2=O)cc1

>  <Energy>  (30) 
57.34590414794689

>  <Genealogy>  (30) 
[NH-]S(=O)(=O)c1ccc(N=Cc2c([O-])[n-]c(=O)n(-c3ccc(Br)cc3)c2=O)cc1 (protonated)
[NH-]S(=O)(=O)c1ccc(/N=C/c2c([O-])[n-]c(=O)n(-c3ccc(Br)cc3)c2=O)cc1 (cis-trans isomerization)
[NH-]S(=O)(=O)c1ccc(/N=C/c2c([O-])[n-]c(=O)n(-c3ccc(Br)cc3)c2=O)cc1 (3D coordinates assigned)
[NH-]S(=O)(=O)c1ccc(/N=C/c2c([O-])[n-]c(=O)n(-c3ccc(Br)cc3)c2=O)cc1 (optimized conformer: 57.34590414794689 kcal/mol)

>  <smiles>  (30) 
NS(=O)(=O)c1ccc(N=Cc2c(O)[nH]c(=O)n(-c3ccc(Br)cc3)c2=O)cc1

>  <score_type>  (30) 
oracle

>  <origin>  (30) 
adg

>  <m_score__min__energy>  (30) 
-13.720000000000001

>  <m_primary>  (30) 
energy

$$$$
30:0
     RDKit          3D

 66 68  0  0  1  0  0  0  0  0999 V2000
   58.3870   34.3900   44.8580 C   0  0  0  0  0  0  0  0  0  0  0  0
   58.3460   32.9040   44.7560 C   0  0  0  0  0  0  0  0  0  0  0  0
   57.4340   32.3710   43.7890 N   0  0  0  0  0  0  0  0  0  0  0  0
   58.1530   31.9130   42.6430 C   0  0  0  0  0  0  0  0  0  0  0  0
   57.4860   32.3630   41.3520 C   0  0  0  0  0  0  0  0  0  0  0  0
   56.6160   31.3550   44.3650 C   0  0  0  0  0  0  0  0  0  0  0  0
   56.2000   30.2880   43.4080 C   0  0  0  0  0  0  0  0  0  0  0  0
   56.8790   28.9720   43.6680 C   0  0  0  0  0  0  0  0  0  0  0  0
   57.4250   28.9810   45.0080 N   0  0  0  0  0  0  0  0  0  0  0  0
   58.6350   28.3460   45.3790 C   0  0  0  0  0  0  0  0  0  0  0  0
   59.3070   27.7150   44.4930 O   0  0  0  0  0  0  0  0  0  0  0  0
   59.1730   28.3690   46.7390 C   0  0  0  0  0  0  0  0  0  0  0  0
   60.2320   27.5720   47.1390 C   0  0  0  0  0  0  0  0  0  0  0  0
   59.0870   29.2710   48.9930 C   0  0  0  0  0  0  0  0  0  0  0  0
   62.2540   33.1670   49.0560 C   0  0  0  0  0  0  0  0  0  0  0  0
   60.6820   28.4590   50.6720 N   0  0  0  0  0  0  0  0  0  0  0  0
   61.4640   29.4540   50.9930 C   0  0  0  0  0  0  0  0  0  0  0  0
   62.4800   29.1960   51.8630 N   0  0  0  0  0  0  0  0  0  0  0  0
   63.3400   30.1670   52.2520 C   0  0  0  0  0  0  0  0  0  0  0  0
   63.1860   31.4460   51.7580 C   0  0  0  0  0  0  0  0  0  0  0  0
   64.2810   32.7320   52.2400 Cl  0  0  0  0  0  0  0  0  0  0  0  0
   62.1370   31.6890   50.8660 C   0  0  0  0  0  0  0  0  0  0  0  0
   62.0310   32.8850   50.4320 N   0  0  0  0  0  0  0  0  0  0  0  0
   60.1450   28.4520   49.3320 C   0  0  0  0  0  0  0  0  0  0  0  0
   60.7260   27.6060   48.4340 C   0  0  0  0  0  0  0  0  0  0  0  0
   63.8120   33.4190   47.2440 C   0  0  0  0  0  0  0  0  0  0  0  0
   62.7840   33.7120   46.3660 C   0  0  0  0  0  0  0  0  0  0  0  0
   61.4980   33.7170   46.9010 C   0  0  0  0  0  0  0  0  0  0  0  0
   61.2280   33.4520   48.2130 C   0  0  0  0  0  0  0  0  0  0  0  0
   59.5970   33.4800   48.7860 S   0  0  0  0  0  0  0  0  0  0  0  0
   59.4270   34.1500   50.3490 N   0  0  0  0  0  0  0  0  0  0  0  0
   58.7050   34.2870   47.8610 O   0  0  0  0  0  0  0  0  0  0  0  0
   59.0400   32.0750   48.7700 O   0  0  0  0  0  0  0  0  0  0  0  0
   61.2920   30.6910   50.4970 N   0  0  0  0  0  0  0  0  0  0  0  0
   63.5490   33.1530   48.5650 C   0  0  0  0  0  0  0  0  0  0  0  0
   58.6330   29.1990   47.6940 C   0  0  0  0  0  0  0  0  0  0  0  0
   58.3951   34.6847   45.9178 H   0  0  0  0  0  0  0  0  0  0  0  0
   59.2959   34.7664   44.3658 H   0  0  0  0  0  0  0  0  0  0  0  0
   57.5003   34.8159   44.3658 H   0  0  0  0  0  0  0  0  0  0  0  0
   59.3562   32.5555   44.4952 H   0  0  0  0  0  0  0  0  0  0  0  0
   57.9881   32.5470   45.7330 H   0  0  0  0  0  0  0  0  0  0  0  0
   59.1755   32.3171   42.6771 H   0  0  0  0  0  0  0  0  0  0  0  0
   58.1668   30.8132   42.6601 H   0  0  0  0  0  0  0  0  0  0  0  0
   56.5956   32.9637   41.5894 H   0  0  0  0  0  0  0  0  0  0  0  0
   58.1924   32.9699   40.7665 H   0  0  0  0  0  0  0  0  0  0  0  0
   57.1877   31.4808   40.7665 H   0  0  0  0  0  0  0  0  0  0  0  0
   57.1779   30.8832   45.1845 H   0  0  0  0  0  0  0  0  0  0  0  0
   55.6946   31.8482   44.7082 H   0  0  0  0  0  0  0  0  0  0  0  0
   55.1127   30.1448   43.4929 H   0  0  0  0  0  0  0  0  0  0  0  0
   56.4920   30.6167   42.3997 H   0  0  0  0  0  0  0  0  0  0  0  0
   56.1488   28.1549   43.5727 H   0  0  0  0  0  0  0  0  0  0  0  0
   57.6876   28.8201   42.9379 H   0  0  0  0  0  0  0  0  0  0  0  0
   56.8870   29.4900   45.7440 H   0  0  0  0  0  0  0  0  0  0  0  0
   60.6948   26.8923   46.4084 H   0  0  0  0  0  0  0  0  0  0  0  0
   58.6273   29.9501   49.7262 H   0  0  0  0  0  0  0  0  0  0  0  0
   62.6460   28.2550   52.2700 H   0  0  0  0  0  0  0  0  0  0  0  0
   64.1540   29.9381   52.9555 H   0  0  0  0  0  0  0  0  0  0  0  0
   61.5687   26.9642   48.7308 H   0  0  0  0  0  0  0  0  0  0  0  0
   64.8500   33.3989   46.8804 H   0  0  0  0  0  0  0  0  0  0  0  0
   62.9718   33.9290   45.3041 H   0  0  0  0  0  0  0  0  0  0  0  0
   60.6559   33.9464   46.2316 H   0  0  0  0  0  0  0  0  0  0  0  0
   59.1560   35.1630   50.2830 H   0  0  0  0  0  0  0  0  0  0  0  0
   60.2550   34.0030   50.9550 H   0  0  0  0  0  0  0  0  0  0  0  0
   60.5310   30.8990   49.8410 H   0  0  0  0  0  0  0  0  0  0  0  0
   64.3821   32.9246   49.2460 H   0  0  0  0  0  0  0  0  0  0  0  0
   57.7896   29.8427   47.4037 H   0  0  0  0  0  0  0  0  0  0  0  0
  1  2  1  0
  2  3  1  0
  3  4  1  0
  4  5  1  0
  3  6  1  0
  6  7  1  0
  7  8  1  0
  8  9  1  0
  9 10  1  0
 10 11  2  0
 10 12  1  0
 12 13  2  0
 13 14  1  0
 14 15  2  0
 15 16  1  0
 16 17  2  0
 17 18  1  0
 18 19  1  0
 19 20  2  0
 20 21  1  0
 20 22  1  0
 22 23  2  0
 23 24  1  0
 24 25  2  0
 25 26  1  0
 26 27  2  0
 27 28  1  0
 28 29  2  0
 29 30  1  0
 30 31  1  0
 30 32  2  0
 30 33  2  0
 22 34  1  0
 15 35  1  0
 35 36  2  0
 36 12  1  0
 34 17  1  0
 29 24  1  0
  1 37  1  0
  1 38  1  0
  1 39  1  0
  2 40  1  0
  2 41  1  0
  4 42  1  0
  4 43  1  0
  5 44  1  0
  5 45  1  0
  5 46  1  0
  6 47  1  0
  6 48  1  0
  7 49  1  0
  7 50  1  0
  8 51  1  0
  8 52  1  0
  9 53  1  0
 13 54  1  0
 14 55  1  0
 18 56  1  0
 19 57  1  0
 25 58  1  0
 26 59  1  0
 27 60  1  0
 28 61  1  0
 31 62  1  0
 31 63  1  0
 34 64  1  0
 35 65  1  0
 36 66  1  0
M  END
>  <smiles>  (31) 
CCN(CC)CCCNC(=O)c1ccc(N=c2[nH]cc(Cl)c(=Nc3ccccc3S(N)(=O)=O)[nH]2)cc1

>  <score_type>  (31) 
oracle

>  <origin>  (31) 
adg

>  <m_score__min__energy>  (31) 
-10.109999999999999

>  <m_primary>  (31) 
energy

$$$$
31:0
     RDKit          3D

 59 61  0  0  0  0  0  0  0  0999 V2000
   62.4780   33.6490   46.3870 C   0  0  0  0  0  0  0  0  0  0  0  0
   61.3740   34.5520   46.3900 O   0  0  0  0  0  0  0  0  0  0  0  0
   60.0240   34.1630   46.3350 C   0  0  0  0  0  0  0  0  0  0  0  0
   59.1910   34.5240   45.2550 C   0  0  0  0  0  0  0  0  0  0  0  0
   57.8470   34.1390   45.2360 C   0  0  0  0  0  0  0  0  0  0  0  0
   57.3160   33.4010   46.2950 C   0  0  0  0  0  0  0  0  0  0  0  0
   58.1290   33.0380   47.3700 C   0  0  0  0  0  0  0  0  0  0  0  0
   59.4890   33.3900   47.3910 C   0  0  0  0  0  0  0  0  0  0  0  0
   60.3430   32.9750   48.5680 C   0  0  0  0  0  0  0  0  0  0  0  0
   59.6380   32.0750   49.4870 N   0  0  0  0  0  0  0  0  0  0  0  0
   59.0690   32.4700   50.7520 C   0  0  0  0  0  0  0  0  0  0  0  0
   59.2930   33.7840   51.1960 C   0  0  0  0  0  0  0  0  0  0  0  0
   58.8410   34.2020   52.4440 C   0  0  0  0  0  0  0  0  0  0  0  0
   58.1570   33.3170   53.2750 C   0  0  0  0  0  0  0  0  0  0  0  0
   57.8930   32.0170   52.8370 C   0  0  0  0  0  0  0  0  0  0  0  0
   58.3280   31.5830   51.5740 C   0  0  0  0  0  0  0  0  0  0  0  0
   57.9130   30.2440   51.1240 C   0  0  0  0  0  0  0  0  0  0  0  0
   57.4000   29.4340   51.9460 O   0  0  0  0  0  0  0  0  0  0  0  0
   58.1340   29.8590   49.7590 N   0  0  0  0  0  0  0  0  0  0  0  0
   59.1530   28.9070   49.3190 C   0  0  0  0  0  0  0  0  0  0  0  0
   59.1860   28.8870   47.8240 C   0  0  0  0  0  0  0  0  0  0  0  0
   60.0620   29.5570   47.2090 O   0  0  0  0  0  0  0  0  0  0  0  0
   58.2450   28.0770   47.1020 N   0  0  0  0  0  0  0  0  0  0  0  0
   58.3370   27.8280   45.6550 C   0  0  1  0  0  0  0  0  0  0  0  0
   57.5430   26.5630   45.2740 C   0  0  0  0  0  0  0  0  0  0  0  0
   56.4380   26.2900   46.2460 C   0  0  0  0  0  0  0  0  0  0  0  0
   56.6690   25.6560   47.3010 O   0  0  0  0  0  0  0  0  0  0  0  0
   55.1420   26.7040   45.9660 O   0  0  0  0  0  0  0  0  0  0  0  0
   57.8300   29.0340   44.8840 C   0  0  0  0  0  0  0  0  0  0  0  0
   56.4790   29.1270   44.4910 C   0  0  0  0  0  0  0  0  0  0  0  0
   56.0340   30.2190   43.7400 C   0  0  0  0  0  0  0  0  0  0  0  0
   56.9350   31.2190   43.3600 C   0  0  0  0  0  0  0  0  0  0  0  0
   58.2700   31.1360   43.7490 C   0  0  0  0  0  0  0  0  0  0  0  0
   58.7200   30.0500   44.5030 C   0  0  0  0  0  0  0  0  0  0  0  0
   62.7635   33.4155   47.4233 H   0  0  0  0  0  0  0  0  0  0  0  0
   62.1923   32.7223   45.8677 H   0  0  0  0  0  0  0  0  0  0  0  0
   63.3296   34.1128   45.8677 H   0  0  0  0  0  0  0  0  0  0  0  0
   59.6020   35.1128   44.4217 H   0  0  0  0  0  0  0  0  0  0  0  0
   57.2075   34.4180   44.3856 H   0  0  0  0  0  0  0  0  0  0  0  0
   56.2565   33.1054   46.2824 H   0  0  0  0  0  0  0  0  0  0  0  0
   57.7005   32.4705   48.2093 H   0  0  0  0  0  0  0  0  0  0  0  0
   61.2388   32.4609   48.1894 H   0  0  0  0  0  0  0  0  0  0  0  0
   60.6038   33.8853   49.1278 H   0  0  0  0  0  0  0  0  0  0  0  0
   59.3240   31.1580   49.0860 H   0  0  0  0  0  0  0  0  0  0  0  0
   59.8325   34.4913   50.5490 H   0  0  0  0  0  0  0  0  0  0  0  0
   59.0243   35.2347   52.7756 H   0  0  0  0  0  0  0  0  0  0  0  0
   57.8260   33.6410   54.2727 H   0  0  0  0  0  0  0  0  0  0  0  0
   57.3383   31.3256   53.4884 H   0  0  0  0  0  0  0  0  0  0  0  0
   60.1360   29.2137   49.7057 H   0  0  0  0  0  0  0  0  0  0  0  0
   58.9132   27.9031   49.6993 H   0  0  0  0  0  0  0  0  0  0  0  0
   57.5400   27.5410   47.6590 H   0  0  0  0  0  0  0  0  0  0  0  0
   59.3918   27.6628   45.3904 H   0  0  0  0  0  0  0  0  0  0  0  0
   57.1105   26.7017   44.2722 H   0  0  0  0  0  0  0  0  0  0  0  0
   58.2334   25.7068   45.2899 H   0  0  0  0  0  0  0  0  0  0  0  0
   55.7708   28.3354   44.7771 H   0  0  0  0  0  0  0  0  0  0  0  0
   54.9759   30.2917   43.4481 H   0  0  0  0  0  0  0  0  0  0  0  0
   56.5898   32.0701   42.7546 H   0  0  0  0  0  0  0  0  0  0  0  0
   58.9739   31.9305   43.4606 H   0  0  0  0  0  0  0  0  0  0  0  0
   59.7775   29.9907   44.7998 H   0  0  0  0  0  0  0  0  0  0  0  0
  1  2  1  0
  2  3  1  0
  3  4  2  0
  4  5  1  0
  5  6  2  0
  6  7  1  0
  7  8  2  0
  8  9  1  0
  9 10  1  0
 10 11  1  0
 11 12  2  0
 12 13  1  0
 13 14  2  0
 14 15  1  0
 15 16  2  0
 16 17  1  0
 17 18  2  0
 17 19  1  0
 19 20  1  0
 20 21  1  0
 21 22  2  0
 21 23  1  0
 23 24  1  0
 24 25  1  0
 25 26  1  0
 26 27  2  0
 26 28  1  0
 24 29  1  0
 29 30  2  0
 30 31  1  0
 31 32  2  0
 32 33  1  0
 33 34  2  0
  8  3  1  0
 16 11  1  0
 34 29  1  0
  1 35  1  0
  1 36  1  0
  1 37  1  0
  4 38  1  0
  5 39  1  0
  6 40  1  0
  7 41  1  0
  9 42  1  0
  9 43  1  0
 10 44  1  0
 12 45  1  0
 13 46  1  0
 14 47  1  0
 15 48  1  0
 20 49  1  0
 20 50  1  0
 23 51  1  0
 24 52  1  6
 25 53  1  0
 25 54  1  0
 30 55  1  0
 31 56  1  0
 32 57  1  0
 33 58  1  0
 34 59  1  0
M  CHG  2  19  -1  28  -1
M  END
>  <UniqueID>  (32) 
27

>  <SMILES>  (32) 
COc1ccccc1CNc1ccccc1C(=O)[N-]CC(=O)N[C@@H](CC(=O)[O-])c1ccccc1

>  <Energy>  (32) 
64.80944531493392

>  <Genealogy>  (32) 
COc1ccccc1CNc1ccccc1C(=O)[N-]CC(=O)NC(CC(=O)[O-])c1ccccc1 (protonated)
COc1ccccc1CNc1ccccc1C(=O)[N-]CC(=O)N[C@@H](CC(=O)[O-])c1ccccc1 (chirality)
COc1ccccc1CNc1ccccc1C(=O)[N-]CC(=O)N[C@@H](CC(=O)[O-])c1ccccc1 (3D coordinates assigned)
COc1ccccc1CNc1ccccc1C(=O)[N-]CC(=O)N[C@@H](CC(=O)[O-])c1ccccc1 (optimized conformer: 64.80944531493392 kcal/mol)

>  <smiles>  (32) 
COc1ccccc1CNc1ccccc1C(=O)NCC(=O)NC(CC(=O)O)c1ccccc1

>  <score_type>  (32) 
oracle

>  <origin>  (32) 
adg

>  <m_score__min__energy>  (32) 
-13.07

>  <m_primary>  (32) 
energy

$$$$
32:0
     RDKit          3D

 38 39  0  0  0  0  0  0  0  0999 V2000
   54.3970   26.7130   46.8720 H   0  0  0  0  0  0  0  0  0  0  0  0
   54.3960   26.2220   45.9860 O   0  0  0  0  0  0  0  0  0  0  0  0
   54.9700   24.9750   45.8910 N   0  0  0  0  0  0  0  0  0  0  0  0
   56.2250   24.7960   45.6120 C   0  0  0  0  0  0  0  0  0  0  0  0
   56.5030   23.9232   45.0030 H   0  0  0  0  0  0  0  0  0  0  0  0
   57.3030   25.7030   46.0690 C   0  0  0  0  0  0  0  0  0  0  0  0
   58.1810   25.3440   47.1030 C   0  0  0  0  0  0  0  0  0  0  0  0
   58.0903   24.3568   47.5797 H   0  0  0  0  0  0  0  0  0  0  0  0
   59.1690   26.2330   47.5300 C   0  0  0  0  0  0  0  0  0  0  0  0
   59.8603   25.9365   48.3326 H   0  0  0  0  0  0  0  0  0  0  0  0
   59.2870   27.5060   46.9410 C   0  0  0  0  0  0  0  0  0  0  0  0
   60.2700   28.4240   47.3410 O   0  0  0  0  0  0  0  0  0  0  0  0
   60.2090   29.2080   48.5290 C   0  0  0  0  0  0  0  0  0  0  0  0
   59.5080   28.7442   49.2386 H   0  0  0  0  0  0  0  0  0  0  0  0
   61.2092   29.2626   48.9836 H   0  0  0  0  0  0  0  0  0  0  0  0
   59.7380   30.5890   48.1930 C   0  0  0  0  0  0  0  0  0  0  0  0
   59.3880   31.3630   49.1250 O   0  0  0  0  0  0  0  0  0  0  0  0
   59.6030   30.9900   46.8210 N   0  0  0  0  0  0  0  0  0  0  0  0
   59.5910   30.2400   46.0930 H   0  0  0  0  0  0  0  0  0  0  0  0
   59.3710   32.3450   46.3970 C   0  0  0  0  0  0  0  0  0  0  0  0
   58.2820   32.6280   45.5590 C   0  0  0  0  0  0  0  0  0  0  0  0
   57.6065   31.8171   45.2490 H   0  0  0  0  0  0  0  0  0  0  0  0
   58.0490   33.9330   45.1150 C   0  0  0  0  0  0  0  0  0  0  0  0
   57.1869   34.1472   44.4662 H   0  0  0  0  0  0  0  0  0  0  0  0
   58.9110   34.9660   45.4950 C   0  0  0  0  0  0  0  0  0  0  0  0
   58.7230   35.9940   45.1516 H   0  0  0  0  0  0  0  0  0  0  0  0
   60.0110   34.6920   46.3110 C   0  0  0  0  0  0  0  0  0  0  0  0
   60.6929   35.5038   46.6042 H   0  0  0  0  0  0  0  0  0  0  0  0
   60.2470   33.3870   46.7560 C   0  0  0  0  0  0  0  0  0  0  0  0
   61.1209   33.1740   47.3892 H   0  0  0  0  0  0  0  0  0  0  0  0
   58.3960   27.8830   45.9240 C   0  0  0  0  0  0  0  0  0  0  0  0
   58.5320   29.1620   45.3620 O   0  0  0  0  0  0  0  0  0  0  0  0
   57.8550   29.6060   44.1900 C   0  0  0  0  0  0  0  0  0  0  0  0
   56.9672   30.1882   44.4778 H   0  0  0  0  0  0  0  0  0  0  0  0
   58.5301   30.2373   43.5936 H   0  0  0  0  0  0  0  0  0  0  0  0
   57.5449   28.7353   43.5936 H   0  0  0  0  0  0  0  0  0  0  0  0
   57.4010   26.9810   45.5000 C   0  0  0  0  0  0  0  0  0  0  0  0
   56.6930   27.2822   44.7139 H   0  0  0  0  0  0  0  0  0  0  0  0
  1  2  1  0
  2  3  1  0
  3  4  2  0
  4  5  1  0
  4  6  1  0
  6  7  2  0
  7  8  1  0
  7  9  1  0
  9 10  1  0
  9 11  2  0
 11 12  1  0
 12 13  1  0
 13 14  1  0
 13 15  1  0
 13 16  1  0
 16 17  2  0
 16 18  1  0
 18 19  1  0
 18 20  1  0
 20 21  2  0
 21 22  1  0
 21 23  1  0
 23 24  1  0
 23 25  2  0
 25 26  1  0
 25 27  1  0
 27 28  1  0
 27 29  2  0
 29 30  1  0
 11 31  1  0
 31 32  1  0
 32 33  1  0
 33 34  1  0
 33 35  1  0
 33 36  1  0
 31 37  2  0
 37 38  1  0
 37  6  1  0
 29 20  1  0
M  END
>  <UniqueID>  (33) 
28

>  <SMILES>  (33) 
COc1cc(/C=N\O)ccc1OCC(=O)Nc1ccccc1

>  <Energy>  (33) 
43.86322152013029

>  <Genealogy>  (33) 
COc1cc(/C=N\O)ccc1OCC(=O)Nc1ccccc1 (cis-trans isomerization)
COc1cc(/C=N\O)ccc1OCC(=O)Nc1ccccc1 (3D coordinates assigned)
COc1cc(/C=N\O)ccc1OCC(=O)Nc1ccccc1 (optimized conformer: 43.86322152013029 kcal/mol)

>  <smiles>  (33) 
COc1cc(C=NO)ccc1OCC(=O)Nc1ccccc1

>  <score_type>  (33) 
oracle

>  <origin>  (33) 
adg

>  <m_score__min__energy>  (33) 
-7.75

>  <m_primary>  (33) 
energy

$$$$
33:0
     RDKit          3D

 59 61  0  0  0  0  0  0  0  0999 V2000
   62.7210   31.6110   47.5100 C   0  0  0  0  0  0  0  0  0  0  0  0
   62.3990   31.4480   48.8870 O   0  0  0  0  0  0  0  0  0  0  0  0
   61.1130   31.6030   49.4350 C   0  0  0  0  0  0  0  0  0  0  0  0
   60.3990   30.5080   49.9650 C   0  0  0  0  0  0  0  0  0  0  0  0
   59.1170   30.6810   50.4870 C   0  0  0  0  0  0  0  0  0  0  0  0
   58.5380   31.9490   50.5110 C   0  0  0  0  0  0  0  0  0  0  0  0
   59.2370   33.0470   50.0040 C   0  0  0  0  0  0  0  0  0  0  0  0
   60.5170   32.8850   49.4430 C   0  0  0  0  0  0  0  0  0  0  0  0
   61.2290   34.0600   48.8750 C   0  0  0  0  0  0  0  0  0  0  0  0
   62.1020   34.6470   49.5670 O   0  0  0  0  0  0  0  0  0  0  0  0
   60.9130   34.5910   47.5810 N   0  0  0  0  0  0  0  0  0  0  0  0
   59.9160   34.0990   46.6720 C   0  0  0  0  0  0  0  0  0  0  0  0
   59.3120   34.9970   45.7880 C   0  0  0  0  0  0  0  0  0  0  0  0
   58.3210   34.5600   44.9070 C   0  0  0  0  0  0  0  0  0  0  0  0
   57.9300   33.2200   44.8990 C   0  0  0  0  0  0  0  0  0  0  0  0
   58.5440   32.2930   45.7630 C   0  0  0  0  0  0  0  0  0  0  0  0
   58.1270   30.8660   45.7580 C   0  0  0  0  0  0  0  0  0  0  0  0
   58.6300   29.9670   46.7230 C   0  0  0  0  0  0  0  0  0  0  0  0
   58.2220   28.6280   46.7260 C   0  0  0  0  0  0  0  0  0  0  0  0
   57.3010   28.1710   45.7740 C   0  0  0  0  0  0  0  0  0  0  0  0
   56.7610   26.4940   45.7570 S   0  0  0  0  0  0  0  0  0  0  0  0
   55.2760   26.4460   45.9960 O   0  0  0  0  0  0  0  0  0  0  0  0
   57.0600   25.9100   44.4040 O   0  0  0  0  0  0  0  0  0  0  0  0
   57.6130   25.5560   46.9490 N   0  0  0  0  0  0  0  0  0  0  0  0
   58.9140   25.1250   46.4360 C   0  0  0  0  0  0  0  0  0  0  0  0
   58.7430   23.8440   45.6210 C   0  0  0  0  0  0  0  0  0  0  0  0
   57.3250   23.5480   45.4220 N   0  0  0  0  0  0  0  0  0  0  0  0
   56.8570   22.2530   45.0090 C   0  0  0  0  0  0  0  0  0  0  0  0
   57.6830   21.3270   44.7940 O   0  0  0  0  0  0  0  0  0  0  0  0
   55.4600   21.9750   44.8490 N   0  0  0  0  0  0  0  0  0  0  0  0
   54.1750   23.0000   45.4030 S   0  0  0  0  0  0  0  0  0  0  0  0
   54.7480   24.0160   46.6820 N   0  0  0  0  0  0  0  0  0  0  0  0
   53.0130   22.1720   45.8800 O   0  0  0  0  0  0  0  0  0  0  0  0
   53.7090   23.8600   44.2610 O   0  0  0  0  0  0  0  0  0  0  0  0
   56.7960   29.0620   44.8170 C   0  0  0  0  0  0  0  0  0  0  0  0
   57.2090   30.3960   44.8050 C   0  0  0  0  0  0  0  0  0  0  0  0
   59.5560   32.7400   46.6330 C   0  0  0  0  0  0  0  0  0  0  0  0
   63.6990   32.1061   47.4183 H   0  0  0  0  0  0  0  0  0  0  0  0
   62.7620   30.6251   47.0238 H   0  0  0  0  0  0  0  0  0  0  0  0
   61.9508   32.2278   47.0238 H   0  0  0  0  0  0  0  0  0  0  0  0
   60.8575   29.5081   49.9667 H   0  0  0  0  0  0  0  0  0  0  0  0
   58.5624   29.8162   50.8800 H   0  0  0  0  0  0  0  0  0  0  0  0
   57.5299   32.0849   50.9295 H   0  0  0  0  0  0  0  0  0  0  0  0
   58.7823   34.0478   50.0438 H   0  0  0  0  0  0  0  0  0  0  0  0
   59.6188   36.0533   45.7862 H   0  0  0  0  0  0  0  0  0  0  0  0
   57.8469   35.2737   44.2172 H   0  0  0  0  0  0  0  0  0  0  0  0
   57.1372   32.8861   44.2134 H   0  0  0  0  0  0  0  0  0  0  0  0
   59.3475   30.3211   47.4778 H   0  0  0  0  0  0  0  0  0  0  0  0
   58.6252   27.9331   47.4773 H   0  0  0  0  0  0  0  0  0  0  0  0
   59.3346   25.9137   45.7949 H   0  0  0  0  0  0  0  0  0  0  0  0
   59.5948   24.9345   47.2787 H   0  0  0  0  0  0  0  0  0  0  0  0
   59.2270   23.9711   44.6414 H   0  0  0  0  0  0  0  0  0  0  0  0
   59.2067   23.0101   46.1683 H   0  0  0  0  0  0  0  0  0  0  0  0
   56.6490   24.3160   45.6140 H   0  0  0  0  0  0  0  0  0  0  0  0
   55.6700   24.4020   46.3830 H   0  0  0  0  0  0  0  0  0  0  0  0
   54.0910   24.8250   46.7440 H   0  0  0  0  0  0  0  0  0  0  0  0
   56.0696   28.7082   44.0706 H   0  0  0  0  0  0  0  0  0  0  0  0
   56.8123   31.0836   44.0435 H   0  0  0  0  0  0  0  0  0  0  0  0
   60.0696   32.0206   47.2878 H   0  0  0  0  0  0  0  0  0  0  0  0
  1  2  1  0
  2  3  1  0
  3  4  2  0
  4  5  1  0
  5  6  2  0
  6  7  1  0
  7  8  2  0
  8  9  1  0
  9 10  2  0
  9 11  1  0
 11 12  1  0
 12 13  2  0
 13 14  1  0
 14 15  2  0
 15 16  1  0
 16 17  1  0
 17 18  2  0
 18 19  1  0
 19 20  2  0
 20 21  1  0
 21 22  2  0
 21 23  2  0
 21 24  1  0
 24 25  1  0
 25 26  1  0
 26 27  1  0
 27 28  1  0
 28 29  2  0
 28 30  1  0
 30 31  1  0
 31 32  1  0
 31 33  2  0
 31 34  2  0
 20 35  1  0
 35 36  2  0
 16 37  2  0
  8  3  1  0
 37 12  1  0
 36 17  1  0
  1 38  1  0
  1 39  1  0
  1 40  1  0
  4 41  1  0
  5 42  1  0
  6 43  1  0
  7 44  1  0
 13 45  1  0
 14 46  1  0
 15 47  1  0
 18 48  1  0
 19 49  1  0
 25 50  1  0
 25 51  1  0
 26 52  1  0
 26 53  1  0
 27 54  1  0
 32 55  1  0
 32 56  1  0
 35 57  1  0
 36 58  1  0
 37 59  1  0
M  CHG  3  11  -1  24  -1  30  -1
M  END
>  <UniqueID>  (34) 
29

>  <SMILES>  (34) 
COc1ccccc1C(=O)[N-]c1cccc(-c2ccc(S(=O)(=O)[N-]CCNC(=O)[N-]S(N)(=O)=O)cc2)c1

>  <Energy>  (34) 
63.22378783911395

>  <Genealogy>  (34) 
COc1ccccc1C(=O)[N-]c1cccc(-c2ccc(S(=O)(=O)[N-]CCNC(=O)[N-]S(N)(=O)=O)cc2)c1 (protonated)
COc1ccccc1C(=O)[N-]c1cccc(-c2ccc(S(=O)(=O)[N-]CCNC(=O)[N-]S(N)(=O)=O)cc2)c1 (3D coordinates assigned)
COc1ccccc1C(=O)[N-]c1cccc(-c2ccc(S(=O)(=O)[N-]CCNC(=O)[N-]S(N)(=O)=O)cc2)c1 (optimized conformer: 63.22378783911395 kcal/mol)

>  <smiles>  (34) 
COc1ccccc1C(=O)Nc1cccc(-c2ccc(S(=O)(=O)NCCNC(=O)NS(N)(=O)=O)cc2)c1

>  <score_type>  (34) 
oracle

>  <origin>  (34) 
adg

>  <m_score__min__energy>  (34) 
-14.59

>  <m_primary>  (34) 
energy

$$$$
34:0
     RDKit          3D

 37 40  0  0  0  0  0  0  0  0999 V2000
   54.1110   28.7700   54.8850 O   0  0  0  0  0  0  0  0  0  0  0  0
   54.4570   29.4830   53.9010 C   0  0  0  0  0  0  0  0  0  0  0  0
   55.8100   29.5530   53.5190 C   0  0  0  0  0  0  0  0  0  0  0  0
   56.8260   28.7400   54.2350 C   0  0  0  0  0  0  0  0  0  0  0  0
   57.0490   27.4010   53.8730 C   0  0  0  0  0  0  0  0  0  0  0  0
   58.0150   26.6410   54.5400 C   0  0  0  0  0  0  0  0  0  0  0  0
   58.7610   27.2100   55.5750 C   0  0  0  0  0  0  0  0  0  0  0  0
   58.5410   28.5390   55.9450 C   0  0  0  0  0  0  0  0  0  0  0  0
   57.5780   29.3030   55.2810 C   0  0  0  0  0  0  0  0  0  0  0  0
   56.1530   30.3570   52.4040 C   0  0  0  0  0  0  0  0  0  0  0  0
   57.5500   30.5310   51.9470 C   0  0  0  0  0  0  0  0  0  0  0  0
   58.4150   31.3660   52.6690 C   0  0  0  0  0  0  0  0  0  0  0  0
   59.7310   31.5290   52.2390 C   0  0  0  0  0  0  0  0  0  0  0  0
   60.1790   30.8520   51.1050 C   0  0  0  0  0  0  0  0  0  0  0  0
   59.3020   30.0100   50.4210 C   0  0  0  0  0  0  0  0  0  0  0  0
   58.0190   29.8590   50.8530 N   0  0  0  0  0  0  0  0  0  0  0  0
   55.2000   30.9960   51.7270 O   0  0  0  0  0  0  0  0  0  0  0  0
   53.9160   30.9480   52.0570 C   0  0  0  0  0  0  0  0  0  0  0  0
   52.9810   31.6560   51.2940 C   0  0  0  0  0  0  0  0  0  0  0  0
   51.6250   31.6200   51.6320 C   0  0  0  0  0  0  0  0  0  0  0  0
   50.7010   32.3250   50.8720 O   0  0  0  0  0  0  0  0  0  0  0  0
   51.1980   30.8740   52.7350 C   0  0  0  0  0  0  0  0  0  0  0  0
   52.1240   30.1610   53.5030 C   0  0  0  0  0  0  0  0  0  0  0  0
   53.4920   30.1920   53.1700 C   0  0  0  0  0  0  0  0  0  0  0  0
   56.4610   26.9482   53.0611 H   0  0  0  0  0  0  0  0  0  0  0  0
   58.1876   25.5942   54.2494 H   0  0  0  0  0  0  0  0  0  0  0  0
   59.5214   26.6118   56.0984 H   0  0  0  0  0  0  0  0  0  0  0  0
   59.1277   28.9853   56.7615 H   0  0  0  0  0  0  0  0  0  0  0  0
   57.4076   30.3485   55.5776 H   0  0  0  0  0  0  0  0  0  0  0  0
   58.0575   31.8887   53.5684 H   0  0  0  0  0  0  0  0  0  0  0  0
   60.4142   32.1898   52.7926 H   0  0  0  0  0  0  0  0  0  0  0  0
   61.2134   30.9807   50.7535 H   0  0  0  0  0  0  0  0  0  0  0  0
   59.6477   29.4660   49.5296 H   0  0  0  0  0  0  0  0  0  0  0  0
   57.3990   29.1960   50.3370 H   0  0  0  0  0  0  0  0  0  0  0  0
   53.3140   32.2429   50.4253 H   0  0  0  0  0  0  0  0  0  0  0  0
   50.1306   30.8479   52.9993 H   0  0  0  0  0  0  0  0  0  0  0  0
   51.7831   29.5747   54.3690 H   0  0  0  0  0  0  0  0  0  0  0  0
  1  2  2  0
  2  3  1  0
  3  4  1  0
  4  5  2  0
  5  6  1  0
  6  7  2  0
  7  8  1  0
  8  9  2  0
  3 10  2  0
 10 11  1  0
 11 12  2  0
 12 13  1  0
 13 14  2  0
 14 15  1  0
 15 16  2  0
 10 17  1  0
 17 18  1  0
 18 19  2  0
 19 20  1  0
 20 21  1  0
 20 22  2  0
 22 23  1  0
 23 24  2  0
 24  2  1  0
  9  4  1  0
 16 11  1  0
 24 18  1  0
  5 25  1  0
  6 26  1  0
  7 27  1  0
  8 28  1  0
  9 29  1  0
 12 30  1  0
 13 31  1  0
 14 32  1  0
 15 33  1  0
 16 34  1  0
 19 35  1  0
 22 36  1  0
 23 37  1  0
M  CHG  2  16   1  21  -1
M  END
>  <UniqueID>  (35) 
30

>  <SMILES>  (35) 
O=c1c(-c2ccccc2)c(-c2cccc[nH+]2)oc2cc([O-])ccc12

>  <Energy>  (35) 
60.07985615407395

>  <Genealogy>  (35) 
O=c1c(-c2ccccc2)c(-c2cccc[nH+]2)oc2cc([O-])ccc12 (protonated)
O=c1c(-c2ccccc2)c(-c2cccc[nH+]2)oc2cc([O-])ccc12 (3D coordinates assigned)
O=c1c(-c2ccccc2)c(-c2cccc[nH+]2)oc2cc([O-])ccc12 (optimized conformer: 60.07985615407395 kcal/mol)

>  <smiles>  (35) 
O=c1c(-c2ccccc2)c(-c2ccccn2)oc2cc(O)ccc12

>  <score_type>  (35) 
oracle

>  <origin>  (35) 
adg

>  <m_score__min__energy>  (35) 
-8.4499999999999993

>  <m_primary>  (35) 
energy

$$$$
35:0
     RDKit          3D

 38 39  0  0  0  0  0  0  0  0999 V2000
   56.3600   29.7100   42.8280 C   0  0  0  0  0  0  0  0  0  0  0  0
   55.9280   30.0990   44.2010 C   0  0  0  0  0  0  0  0  0  0  0  0
   55.1620   29.3410   44.8560 O   0  0  0  0  0  0  0  0  0  0  0  0
   56.4110   31.2760   44.7670 O   0  0  0  0  0  0  0  0  0  0  0  0
   57.4090   31.2500   45.7150 N   0  0  0  0  0  0  0  0  0  0  0  0
   58.0010   32.3290   46.1270 C   0  0  0  0  0  0  0  0  0  0  0  0
   58.6980   32.4240   47.3800 C   0  0  0  0  0  0  0  0  0  0  0  0
   58.8300   31.4880   48.2120 O   0  0  0  0  0  0  0  0  0  0  0  0
   59.2280   33.7220   47.5560 N   0  0  0  0  0  0  0  0  0  0  0  0
   59.9880   34.1750   48.7180 C   0  0  0  0  0  0  0  0  0  0  0  0
   61.4430   33.8300   48.5520 C   0  0  0  0  0  0  0  0  0  0  0  0
   61.9970   33.6630   47.2710 C   0  0  0  0  0  0  0  0  0  0  0  0
   63.3420   33.3120   47.1270 C   0  0  0  0  0  0  0  0  0  0  0  0
   64.1410   33.1180   48.2570 C   0  0  0  0  0  0  0  0  0  0  0  0
   63.5960   33.2730   49.5350 C   0  0  0  0  0  0  0  0  0  0  0  0
   62.2500   33.6250   49.6830 C   0  0  0  0  0  0  0  0  0  0  0  0
   58.9180   34.5520   46.3930 C   0  0  0  0  0  0  0  0  0  0  0  0
   58.0710   33.6610   45.4160 C   0  0  0  0  0  0  0  0  0  0  0  0
   56.6630   34.2580   45.2300 C   0  0  0  0  0  0  0  0  0  0  0  0
   58.7840   33.5240   44.0570 C   0  0  0  0  0  0  0  0  0  0  0  0
   57.1759   28.9753   42.8947 H   0  0  0  0  0  0  0  0  0  0  0  0
   55.5104   29.2664   42.2882 H   0  0  0  0  0  0  0  0  0  0  0  0
   56.7124   30.6013   42.2882 H   0  0  0  0  0  0  0  0  0  0  0  0
   59.8820   35.2652   48.8193 H   0  0  0  0  0  0  0  0  0  0  0  0
   59.6004   33.6755   49.6182 H   0  0  0  0  0  0  0  0  0  0  0  0
   61.3699   33.8090   46.3791 H   0  0  0  0  0  0  0  0  0  0  0  0
   63.7726   33.1882   46.1224 H   0  0  0  0  0  0  0  0  0  0  0  0
   65.1997   32.8431   48.1408 H   0  0  0  0  0  0  0  0  0  0  0  0
   64.2252   33.1183   50.4239 H   0  0  0  0  0  0  0  0  0  0  0  0
   61.8220   33.7417   50.6896 H   0  0  0  0  0  0  0  0  0  0  0  0
   58.3377   35.4344   46.7008 H   0  0  0  0  0  0  0  0  0  0  0  0
   59.8370   34.9099   45.9059 H   0  0  0  0  0  0  0  0  0  0  0  0
   56.2126   34.4490   46.2152 H   0  0  0  0  0  0  0  0  0  0  0  0
   56.7361   35.2025   44.6710 H   0  0  0  0  0  0  0  0  0  0  0  0
   56.0349   33.5488   44.6710 H   0  0  0  0  0  0  0  0  0  0  0  0
   59.8520   33.3188   44.2223 H   0  0  0  0  0  0  0  0  0  0  0  0
   58.3351   32.6957   43.4892 H   0  0  0  0  0  0  0  0  0  0  0  0
   58.6740   34.4597   43.4892 H   0  0  0  0  0  0  0  0  0  0  0  0
  1  2  1  0
  2  3  2  0
  2  4  1  0
  4  5  1  0
  5  6  2  3
  6  7  1  0
  7  8  2  0
  7  9  1  0
  9 10  1  0
 10 11  1  0
 11 12  2  0
 12 13  1  0
 13 14  2  0
 14 15  1  0
 15 16  2  0
  9 17  1  0
 17 18  1  0
 18 19  1  0
 18 20  1  0
 18  6  1  0
 16 11  1  0
  1 21  1  0
  1 22  1  0
  1 23  1  0
 10 24  1  0
 10 25  1  0
 12 26  1  0
 13 27  1  0
 14 28  1  0
 15 29  1  0
 16 30  1  0
 17 31  1  0
 17 32  1  0
 19 33  1  0
 19 34  1  0
 19 35  1  0
 20 36  1  0
 20 37  1  0
 20 38  1  0
M  END
>  <UniqueID>  (36) 
31

>  <SMILES>  (36) 
CC(=O)ON=C1C(=O)N(Cc2ccccc2)CC1(C)C

>  <Energy>  (36) 
41.698251813530845

>  <Genealogy>  (36) 
CC(=O)ON=C1C(=O)N(Cc2ccccc2)CC1(C)C (3D coordinates assigned)
CC(=O)ON=C1C(=O)N(Cc2ccccc2)CC1(C)C (nonaromatic ring conformer: 41.698251813530845 kcal/mol)

>  <smiles>  (36) 
CC(=O)ON=C1C(=O)N(Cc2ccccc2)CC1(C)C

>  <score_type>  (36) 
oracle

>  <origin>  (36) 
adg

>  <m_score__min__energy>  (36) 
-8.4000000000000004

>  <m_primary>  (36) 
energy

$$$$
36:0
     RDKit          3D

 34 36  0  0  0  0  0  0  0  0999 V2000
   57.0310   34.6730   44.7720 O   0  0  0  0  0  0  0  0  0  0  0  0
   57.5340   33.6780   45.3580 C   0  0  0  0  0  0  0  0  0  0  0  0
   56.8810   32.4060   45.2280 N   0  0  0  0  0  0  0  0  0  0  0  0
   57.5410   31.1590   45.1680 N   0  0  0  0  0  0  0  0  0  0  0  0
   57.6020   30.4970   43.9680 C   0  0  0  0  0  0  0  0  0  0  0  0
   56.9690   31.0800   42.7290 C   0  0  0  0  0  0  0  0  0  0  0  0
   58.0490   32.3010   42.0130 Cl  0  0  0  0  0  0  0  0  0  0  0  0
   58.1840   29.2670   43.8950 N   0  0  0  0  0  0  0  0  0  0  0  0
   58.7580   28.6900   44.9840 C   0  0  0  0  0  0  0  0  0  0  0  0
   59.3520   27.4210   44.8880 C   0  0  0  0  0  0  0  0  0  0  0  0
   59.9560   26.8410   46.0070 C   0  0  0  0  0  0  0  0  0  0  0  0
   59.9730   27.5210   47.2260 C   0  0  0  0  0  0  0  0  0  0  0  0
   59.3860   28.7860   47.3330 C   0  0  0  0  0  0  0  0  0  0  0  0
   58.7710   29.3770   46.2130 C   0  0  0  0  0  0  0  0  0  0  0  0
   58.1630   30.6400   46.2740 C   0  0  0  0  0  0  0  0  0  0  0  0
   58.2080   31.3050   47.3470 O   0  0  0  0  0  0  0  0  0  0  0  0
   58.7540   33.8620   46.1810 C   0  0  0  0  0  0  0  0  0  0  0  0
   58.6380   34.1790   47.5470 C   0  0  0  0  0  0  0  0  0  0  0  0
   59.7800   34.3590   48.3330 C   0  0  0  0  0  0  0  0  0  0  0  0
   61.0490   34.2130   47.7680 C   0  0  0  0  0  0  0  0  0  0  0  0
   61.1770   33.8820   46.4170 C   0  0  0  0  0  0  0  0  0  0  0  0
   60.0380   33.7000   45.6270 C   0  0  0  0  0  0  0  0  0  0  0  0
   56.7910   30.2773   41.9983 H   0  0  0  0  0  0  0  0  0  0  0  0
   56.0146   31.5552   42.9996 H   0  0  0  0  0  0  0  0  0  0  0  0
   58.1870   28.7550   42.9820 H   0  0  0  0  0  0  0  0  0  0  0  0
   59.3418   26.8819   43.9292 H   0  0  0  0  0  0  0  0  0  0  0  0
   60.4190   25.8464   45.9270 H   0  0  0  0  0  0  0  0  0  0  0  0
   60.4491   27.0609   48.1044 H   0  0  0  0  0  0  0  0  0  0  0  0
   59.4049   29.3203   48.2944 H   0  0  0  0  0  0  0  0  0  0  0  0
   57.6413   34.2860   47.9998 H   0  0  0  0  0  0  0  0  0  0  0  0
   59.6791   34.6159   49.3978 H   0  0  0  0  0  0  0  0  0  0  0  0
   61.9469   34.3586   48.3865 H   0  0  0  0  0  0  0  0  0  0  0  0
   62.1767   33.7642   45.9735 H   0  0  0  0  0  0  0  0  0  0  0  0
   60.1457   33.4287   44.5664 H   0  0  0  0  0  0  0  0  0  0  0  0
  1  2  2  0
  2  3  1  0
  3  4  1  0
  4  5  1  0
  5  6  1  0
  6  7  1  0
  5  8  2  0
  8  9  1  0
  9 10  2  0
 10 11  1  0
 11 12  2  0
 12 13  1  0
 13 14  2  0
 14 15  1  0
 15 16  2  0
  2 17  1  0
 17 18  2  0
 18 19  1  0
 19 20  2  0
 20 21  1  0
 21 22  2  0
 15  4  1  0
 22 17  1  0
 14  9  1  0
  6 23  1  0
  6 24  1  0
  8 25  1  0
 10 26  1  0
 11 27  1  0
 12 28  1  0
 13 29  1  0
 18 30  1  0
 19 31  1  0
 20 32  1  0
 21 33  1  0
 22 34  1  0
M  CHG  2   3  -1   8   1
M  END
>  <UniqueID>  (37) 
32

>  <SMILES>  (37) 
O=C([N-]n1c(CCl)[nH+]c2ccccc2c1=O)c1ccccc1

>  <Energy>  (37) 
50.25385298571585

>  <Genealogy>  (37) 
O=C([N-]n1c(CCl)[nH+]c2ccccc2c1=O)c1ccccc1 (protonated)
O=C([N-]n1c(CCl)[nH+]c2ccccc2c1=O)c1ccccc1 (3D coordinates assigned)
O=C([N-]n1c(CCl)[nH+]c2ccccc2c1=O)c1ccccc1 (optimized conformer: 50.25385298571585 kcal/mol)

>  <smiles>  (37) 
O=C(Nn1c(CCl)nc2ccccc2c1=O)c1ccccc1

>  <score_type>  (37) 
oracle

>  <origin>  (37) 
adg

>  <m_score__min__energy>  (37) 
-7.6299999999999999

>  <m_primary>  (37) 
energy

$$$$
37:0
     RDKit          3D

 46 48  0  0  0  0  0  0  0  0999 V2000
   58.9100   29.7460   49.1590 C   0  0  0  0  0  0  0  0  0  0  0  0
   58.7490   30.2660   50.8530 S   0  0  0  0  0  0  0  0  0  0  0  0
   59.4950   29.3010   51.7320 O   0  0  0  0  0  0  0  0  0  0  0  0
   57.2920   30.2810   51.2270 O   0  0  0  0  0  0  0  0  0  0  0  0
   59.4230   31.8550   51.0210 N   0  0  0  0  0  0  0  0  0  0  0  0
   60.0820   32.5870   49.9790 C   0  0  0  0  0  0  0  0  0  0  0  0
   61.4760   32.5450   49.8040 C   0  0  0  0  0  0  0  0  0  0  0  0
   62.0760   33.2790   48.7770 C   0  0  0  0  0  0  0  0  0  0  0  0
   61.2940   34.0480   47.9110 C   0  0  0  0  0  0  0  0  0  0  0  0
   59.8980   34.0890   48.0680 C   0  0  0  0  0  0  0  0  0  0  0  0
   59.0520   34.8390   47.1880 N   0  0  0  0  0  0  0  0  0  0  0  0
   58.4060   34.2560   45.6880 S   0  0  0  0  0  0  0  0  0  0  0  0
   59.1590   34.8560   44.5330 O   0  0  0  0  0  0  0  0  0  0  0  0
   56.9540   34.6310   45.5810 O   0  0  0  0  0  0  0  0  0  0  0  0
   58.5820   32.5060   45.6340 C   0  0  0  0  0  0  0  0  0  0  0  0
   59.7340   31.9090   46.1560 C   0  0  0  0  0  0  0  0  0  0  0  0
   59.8880   30.5240   46.1110 C   0  0  0  0  0  0  0  0  0  0  0  0
   58.8900   29.7230   45.5530 C   0  0  0  0  0  0  0  0  0  0  0  0
   57.7200   30.3040   45.0290 C   0  0  0  0  0  0  0  0  0  0  0  0
   56.6570   29.4570   44.4350 C   0  0  0  0  0  0  0  0  0  0  0  0
   56.3430   29.6000   43.2220 O   0  0  0  0  0  0  0  0  0  0  0  0
   55.9540   28.5090   45.2500 N   0  0  0  0  0  0  0  0  0  0  0  0
   56.4400   27.2150   45.6360 C   0  0  0  0  0  0  0  0  0  0  0  0
   57.8200   26.9720   45.5730 C   0  0  0  0  0  0  0  0  0  0  0  0
   58.3360   25.7230   45.9300 C   0  0  0  0  0  0  0  0  0  0  0  0
   57.4760   24.6980   46.3290 C   0  0  0  0  0  0  0  0  0  0  0  0
   56.0960   24.9160   46.3530 C   0  0  0  0  0  0  0  0  0  0  0  0
   55.5710   26.1630   45.9950 C   0  0  0  0  0  0  0  0  0  0  0  0
   54.1910   26.3320   45.9580 O   0  0  0  0  0  0  0  0  0  0  0  0
   57.5760   31.7040   45.0750 C   0  0  0  0  0  0  0  0  0  0  0  0
   59.3050   33.3630   49.1100 C   0  0  0  0  0  0  0  0  0  0  0  0
   59.2352   28.6957   49.1272 H   0  0  0  0  0  0  0  0  0  0  0  0
   57.9392   29.8448   48.6513 H   0  0  0  0  0  0  0  0  0  0  0  0
   59.6551   30.3761   48.6513 H   0  0  0  0  0  0  0  0  0  0  0  0
   62.0957   31.9335   50.4764 H   0  0  0  0  0  0  0  0  0  0  0  0
   63.1683   33.2512   48.6499 H   0  0  0  0  0  0  0  0  0  0  0  0
   61.7724   34.6228   47.1043 H   0  0  0  0  0  0  0  0  0  0  0  0
   60.5209   32.5340   46.6034 H   0  0  0  0  0  0  0  0  0  0  0  0
   60.7994   30.0606   46.5167 H   0  0  0  0  0  0  0  0  0  0  0  0
   59.0188   28.6310   45.5227 H   0  0  0  0  0  0  0  0  0  0  0  0
   58.5006   27.7696   45.2405 H   0  0  0  0  0  0  0  0  0  0  0  0
   59.4214   25.5473   45.8965 H   0  0  0  0  0  0  0  0  0  0  0  0
   57.8843   23.7201   46.6241 H   0  0  0  0  0  0  0  0  0  0  0  0
   55.4188   24.1034   46.6548 H   0  0  0  0  0  0  0  0  0  0  0  0
   56.6672   32.1726   44.6693 H   0  0  0  0  0  0  0  0  0  0  0  0
   58.2143   33.4033   49.2471 H   0  0  0  0  0  0  0  0  0  0  0  0
  1  2  1  0
  2  3  2  0
  2  4  2  0
  2  5  1  0
  5  6  1  0
  6  7  2  0
  7  8  1  0
  8  9  2  0
  9 10  1  0
 10 11  1  0
 11 12  1  0
 12 13  2  0
 12 14  2  0
 12 15  1  0
 15 16  2  0
 16 17  1  0
 17 18  2  0
 18 19  1  0
 19 20  1  0
 20 21  2  0
 20 22  1  0
 22 23  1  0
 23 24  2  0
 24 25  1  0
 25 26  2  0
 26 27  1  0
 27 28  2  0
 28 29  1  0
 19 30  2  0
 10 31  2  0
 31  6  1  0
 30 15  1  0
 28 23  1  0
  1 32  1  0
  1 33  1  0
  1 34  1  0
  7 35  1  0
  8 36  1  0
  9 37  1  0
 16 38  1  0
 17 39  1  0
 18 40  1  0
 24 41  1  0
 25 42  1  0
 26 43  1  0
 27 44  1  0
 30 45  1  0
 31 46  1  0
M  CHG  4   5  -1  11  -1  22  -1  29  -1
M  END
>  <UniqueID>  (38) 
33

>  <SMILES>  (38) 
CS(=O)(=O)[N-]c1cccc([N-]S(=O)(=O)c2cccc(C(=O)[N-]c3ccccc3[O-])c2)c1

>  <Energy>  (38) 
58.51557740951791

>  <Genealogy>  (38) 
CS(=O)(=O)[N-]c1cccc([N-]S(=O)(=O)c2cccc(C(=O)[N-]c3ccccc3[O-])c2)c1 (protonated)
CS(=O)(=O)[N-]c1cccc([N-]S(=O)(=O)c2cccc(C(=O)[N-]c3ccccc3[O-])c2)c1 (3D coordinates assigned)
CS(=O)(=O)[N-]c1cccc([N-]S(=O)(=O)c2cccc(C(=O)[N-]c3ccccc3[O-])c2)c1 (optimized conformer: 58.51557740951791 kcal/mol)

>  <smiles>  (38) 
CS(=O)(=O)Nc1cccc(NS(=O)(=O)c2cccc(C(=O)Nc3ccccc3O)c2)c1

>  <score_type>  (38) 
oracle

>  <origin>  (38) 
adg

>  <m_score__min__energy>  (38) 
-17.579999999999998

>  <m_primary>  (38) 
energy

$$$$
38:0
     RDKit          3D

 39 40  0  0  0  0  0  0  0  0999 V2000
   55.1270   28.6640   45.6470 H   0  0  0  0  0  0  0  0  0  0  0  0
   55.1700   29.3560   44.8650 N   0  0  0  0  0  0  0  0  0  0  0  0
   56.8430   29.6150   44.5100 S   0  0  0  0  0  0  0  0  0  0  0  0
   57.0660   29.3820   43.0420 O   0  0  0  0  0  0  0  0  0  0  0  0
   57.1990   31.0340   44.8530 O   0  0  0  0  0  0  0  0  0  0  0  0
   57.8640   28.5150   45.4470 C   0  0  0  0  0  0  0  0  0  0  0  0
   57.8560   27.1440   45.1610 C   0  0  0  0  0  0  0  0  0  0  0  0
   57.2172   26.7559   44.3539 H   0  0  0  0  0  0  0  0  0  0  0  0
   58.6540   26.2710   45.8950 C   0  0  0  0  0  0  0  0  0  0  0  0
   58.6581   25.1955   45.6643 H   0  0  0  0  0  0  0  0  0  0  0  0
   59.4470   26.7720   46.9240 C   0  0  0  0  0  0  0  0  0  0  0  0
   60.0759   26.0880   47.5128 H   0  0  0  0  0  0  0  0  0  0  0  0
   59.4480   28.1040   47.2050 N   0  0  0  0  0  0  0  0  0  0  0  0
   60.0220   28.4130   48.0200 H   0  0  0  0  0  0  0  0  0  0  0  0
   58.6910   28.9930   46.4860 C   0  0  0  0  0  0  0  0  0  0  0  0
   58.6870   30.2680   46.7640 N   0  0  0  0  0  0  0  0  0  0  0  0
   59.8150   31.1530   46.8260 C   0  0  0  0  0  0  0  0  0  0  0  0
   59.6940   32.5100   46.4880 C   0  0  0  0  0  0  0  0  0  0  0  0
   58.7320   32.8996   46.1237 H   0  0  0  0  0  0  0  0  0  0  0  0
   60.7890   33.3680   46.6120 C   0  0  0  0  0  0  0  0  0  0  0  0
   60.6892   34.4254   46.3258 H   0  0  0  0  0  0  0  0  0  0  0  0
   62.0180   32.8900   47.1000 C   0  0  0  0  0  0  0  0  0  0  0  0
   63.1750   33.8010   47.2320 C   0  0  0  0  0  0  0  0  0  0  0  0
   63.7120   34.2950   46.2020 O   0  0  0  0  0  0  0  0  0  0  0  0
   63.6690   34.1180   48.5050 O   0  0  0  0  0  0  0  0  0  0  0  0
   62.8550   34.5760   49.5840 C   0  0  0  0  0  0  0  0  0  0  0  0
   62.0744   35.2420   49.1876 H   0  0  0  0  0  0  0  0  0  0  0  0
   63.4941   35.1130   50.3003 H   0  0  0  0  0  0  0  0  0  0  0  0
   62.1900   33.4020   50.3100 C   0  0  0  0  0  0  0  0  0  0  0  0
   62.5315   33.3954   51.3556 H   0  0  0  0  0  0  0  0  0  0  0  0
   62.4765   32.4795   49.7837 H   0  0  0  0  0  0  0  0  0  0  0  0
   60.6660   33.4890   50.2940 C   0  0  0  0  0  0  0  0  0  0  0  0
   60.2891   33.5105   51.3272 H   0  0  0  0  0  0  0  0  0  0  0  0
   60.3566   34.4063   49.7716 H   0  0  0  0  0  0  0  0  0  0  0  0
   60.2542   32.6129   49.7716 H   0  0  0  0  0  0  0  0  0  0  0  0
   62.1230   31.5370   47.4720 C   0  0  0  0  0  0  0  0  0  0  0  0
   63.0751   31.1504   47.8644 H   0  0  0  0  0  0  0  0  0  0  0  0
   61.0250   30.6810   47.3460 C   0  0  0  0  0  0  0  0  0  0  0  0
   61.1129   29.6297   47.6577 H   0  0  0  0  0  0  0  0  0  0  0  0
  1  2  1  0
  2  3  1  0
  3  4  2  0
  3  5  2  0
  3  6  1  0
  6  7  2  0
  7  8  1  0
  7  9  1  0
  9 10  1  0
  9 11  2  0
 11 12  1  0
 11 13  1  0
 13 14  1  0
 13 15  1  0
 15 16  2  0
 16 17  1  0
 17 18  2  0
 18 19  1  0
 18 20  1  0
 20 21  1  0
 20 22  2  0
 22 23  1  0
 23 24  2  0
 23 25  1  0
 25 26  1  0
 26 27  1  0
 26 28  1  0
 26 29  1  0
 29 30  1  0
 29 31  1  0
 29 32  1  0
 32 33  1  0
 32 34  1  0
 32 35  1  0
 22 36  1  0
 36 37  1  0
 36 38  2  0
 38 39  1  0
 15  6  1  0
 38 17  1  0
M  CHG  1   2  -1
M  END
>  <UniqueID>  (39) 
34

>  <SMILES>  (39) 
CCCOC(=O)c1ccc(/N=c2\[nH]cccc2S([NH-])(=O)=O)cc1

>  <Energy>  (39) 
45.25435944610777

>  <Genealogy>  (39) 
CCCOC(=O)c1ccc(N=c2[nH]cccc2S([NH-])(=O)=O)cc1 (protonated)
CCCOC(=O)c1ccc(/N=c2\[nH]cccc2S([NH-])(=O)=O)cc1 (cis-trans isomerization)
CCCOC(=O)c1ccc(/N=c2\[nH]cccc2S([NH-])(=O)=O)cc1 (3D coordinates assigned)
CCCOC(=O)c1ccc(/N=c2\[nH]cccc2S([NH-])(=O)=O)cc1 (optimized conformer: 45.25435944610777 kcal/mol)

>  <smiles>  (39) 
CCCOC(=O)c1ccc(N=c2[nH]cccc2S(N)(=O)=O)cc1

>  <score_type>  (39) 
oracle

>  <origin>  (39) 
adg

>  <m_score__min__energy>  (39) 
-9.7300000000000004

>  <m_primary>  (39) 
energy

$$$$
39:0
     RDKit          3D

 67 72  0  0  0  0  0  0  0  0999 V2000
   59.6270   27.5440   47.9550 C   0  0  0  0  0  0  0  0  0  0  0  0
   60.3740   28.0010   46.8690 C   0  0  0  0  0  0  0  0  0  0  0  0
   60.7860   29.3340   46.8140 C   0  0  0  0  0  0  0  0  0  0  0  0
   60.4650   30.2230   47.8530 C   0  0  0  0  0  0  0  0  0  0  0  0
   59.6810   29.7650   48.9410 C   0  0  0  0  0  0  0  0  0  0  0  0
   59.2840   28.4190   48.9870 C   0  0  0  0  0  0  0  0  0  0  0  0
   59.3480   30.6610   50.1110 C   0  0  0  0  0  0  0  0  0  0  0  0
   59.4970   32.1490   49.7730 C   0  0  0  0  0  0  0  0  0  0  0  0
   60.8390   32.4120   49.0830 C   0  0  2  0  0  0  0  0  0  0  0  0
   61.0180   33.8700   48.9250 N   0  0  0  0  0  0  0  0  0  0  0  0
   59.7520   34.5830   48.6990 C   0  0  0  0  0  0  0  0  0  0  0  0
   59.1170   34.1380   47.4070 C   0  0  0  0  0  0  0  0  0  0  0  0
   57.8570   33.5190   47.4080 C   0  0  0  0  0  0  0  0  0  0  0  0
   57.2970   33.0560   46.2160 C   0  0  0  0  0  0  0  0  0  0  0  0
   57.9880   33.2080   45.0030 C   0  0  0  0  0  0  0  0  0  0  0  0
   57.3980   32.6890   43.7150 C   0  0  0  0  0  0  0  0  0  0  0  0
   57.9590   31.3680   43.3610 N   0  0  0  0  0  0  0  0  0  0  0  0
   56.8850   30.4180   42.9650 C   0  0  0  0  0  0  0  0  0  0  0  0
   56.3980   29.5520   44.1380 C   0  0  0  0  0  0  0  0  0  0  0  0
   57.5510   28.7370   44.7770 C   0  0  0  0  0  0  0  0  0  0  0  0
   57.4980   27.3210   44.3890 N   0  0  0  0  0  0  0  0  0  0  0  0
   57.8300   26.7520   43.1980 C   0  0  0  0  0  0  0  0  0  0  0  0
   57.7290   25.3940   43.1990 N   0  0  0  0  0  0  0  0  0  0  0  0
   57.3300   25.1250   44.4550 C   0  0  0  0  0  0  0  0  0  0  0  0
   57.1180   23.8840   45.0470 C   0  0  0  0  0  0  0  0  0  0  0  0
   56.7750   23.8730   46.4130 C   0  0  0  0  0  0  0  0  0  0  0  0
   56.6680   25.0940   47.1220 C   0  0  0  0  0  0  0  0  0  0  0  0
   56.8880   26.2860   46.4880 N   0  0  0  0  0  0  0  0  0  0  0  0
   57.2030   26.2720   45.1680 C   0  0  0  0  0  0  0  0  0  0  0  0
   58.9340   29.3230   44.4440 C   0  0  0  0  0  0  0  0  0  0  0  0
   58.8620   30.8540   44.4270 C   0  0  0  0  0  0  0  0  0  0  0  0
   59.2450   33.8320   45.0000 C   0  0  0  0  0  0  0  0  0  0  0  0
   59.8080   34.2900   46.1940 C   0  0  0  0  0  0  0  0  0  0  0  0
   60.8730   31.6730   47.7270 C   0  0  0  0  0  0  0  0  0  0  0  0
   59.3077   26.4922   47.9981 H   0  0  0  0  0  0  0  0  0  0  0  0
   60.6388   27.3102   46.0549 H   0  0  0  0  0  0  0  0  0  0  0  0
   61.3664   29.6907   45.9503 H   0  0  0  0  0  0  0  0  0  0  0  0
   58.6984   28.0514   49.8425 H   0  0  0  0  0  0  0  0  0  0  0  0
   58.3083   30.4710   50.4159 H   0  0  0  0  0  0  0  0  0  0  0  0
   60.0559   30.4300   50.9206 H   0  0  0  0  0  0  0  0  0  0  0  0
   58.6797   32.4511   49.1016 H   0  0  0  0  0  0  0  0  0  0  0  0
   59.4571   32.7308   50.7057 H   0  0  0  0  0  0  0  0  0  0  0  0
   61.6723   32.0292   49.6905 H   0  0  0  0  0  0  0  0  0  0  0  0
   61.4800   34.2690   49.7770 H   0  0  0  0  0  0  0  0  0  0  0  0
   59.0645   34.3720   49.5314 H   0  0  0  0  0  0  0  0  0  0  0  0
   59.9578   35.6620   48.6402 H   0  0  0  0  0  0  0  0  0  0  0  0
   57.3078   33.3981   48.3534 H   0  0  0  0  0  0  0  0  0  0  0  0
   56.3102   32.5700   46.2270 H   0  0  0  0  0  0  0  0  0  0  0  0
   56.3082   32.5958   43.8321 H   0  0  0  0  0  0  0  0  0  0  0  0
   57.6438   33.3975   42.9103 H   0  0  0  0  0  0  0  0  0  0  0  0
   56.0326   30.9932   42.5744 H   0  0  0  0  0  0  0  0  0  0  0  0
   57.3025   29.7425   42.2038 H   0  0  0  0  0  0  0  0  0  0  0  0
   55.9591   30.2073   44.9048 H   0  0  0  0  0  0  0  0  0  0  0  0
   55.6546   28.8407   43.7490 H   0  0  0  0  0  0  0  0  0  0  0  0
   57.4061   28.8065   45.8652 H   0  0  0  0  0  0  0  0  0  0  0  0
   58.1489   27.3327   42.3199 H   0  0  0  0  0  0  0  0  0  0  0  0
   57.2142   22.9509   44.4725 H   0  0  0  0  0  0  0  0  0  0  0  0
   56.5907   22.9184   46.9277 H   0  0  0  0  0  0  0  0  0  0  0  0
   56.4061   25.0839   48.1903 H   0  0  0  0  0  0  0  0  0  0  0  0
   59.6596   29.0005   45.2052 H   0  0  0  0  0  0  0  0  0  0  0  0
   59.2500   28.9645   43.4533 H   0  0  0  0  0  0  0  0  0  0  0  0
   58.4903   31.2010   45.4024 H   0  0  0  0  0  0  0  0  0  0  0  0
   59.8734   31.2350   44.2222 H   0  0  0  0  0  0  0  0  0  0  0  0
   59.7897   33.9612   44.0531 H   0  0  0  0  0  0  0  0  0  0  0  0
   60.7968   34.7717   46.1838 H   0  0  0  0  0  0  0  0  0  0  0  0
   60.1832   32.1755   47.0330 H   0  0  0  0  0  0  0  0  0  0  0  0
   61.9079   31.7001   47.3551 H   0  0  0  0  0  0  0  0  0  0  0  0
  1  2  2  0
  2  3  1  0
  3  4  2  0
  4  5  1  0
  5  6  2  0
  5  7  1  0
  7  8  1  0
  8  9  1  0
  9 10  1  0
 10 11  1  0
 11 12  1  0
 12 13  2  0
 13 14  1  0
 14 15  2  0
 15 16  1  0
 16 17  1  0
 17 18  1  0
 18 19  1  0
 19 20  1  0
 20 21  1  0
 21 22  1  0
 22 23  2  0
 23 24  1  0
 24 25  2  0
 25 26  1  0
 26 27  2  0
 27 28  1  0
 28 29  2  0
 20 30  1  0
 30 31  1  0
 15 32  1  0
 32 33  2  0
  9 34  1  0
  6  1  1  0
 33 12  1  0
 34  4  1  0
 31 17  1  0
 29 21  1  0
 29 24  1  0
  1 35  1  0
  2 36  1  0
  3 37  1  0
  6 38  1  0
  7 39  1  0
  7 40  1  0
  8 41  1  0
  8 42  1  0
  9 43  1  1
 10 44  1  0
 11 45  1  0
 11 46  1  0
 13 47  1  0
 14 48  1  0
 16 49  1  0
 16 50  1  0
 18 51  1  0
 18 52  1  0
 19 53  1  0
 19 54  1  0
 20 55  1  0
 22 56  1  0
 25 57  1  0
 26 58  1  0
 27 59  1  0
 30 60  1  0
 30 61  1  0
 31 62  1  0
 31 63  1  0
 32 64  1  0
 33 65  1  0
 34 66  1  0
 34 67  1  0
M  END
>  <UniqueID>  (40) 
35

>  <SMILES>  (40) 
c1ccc2c(c1)CC[C@H](NCc1ccc(CN3CCC(n4cnc5cccnc54)CC3)cc1)C2

>  <Energy>  (40) 
122.31626156101032

>  <Genealogy>  (40) 
c1ccc2c(c1)CC[C@H](NCc1ccc(CN3CCC(n4cnc5cccnc54)CC3)cc1)C2 (chirality)
c1ccc2c(c1)CC[C@H](NCc1ccc(CN3CCC(n4cnc5cccnc54)CC3)cc1)C2 (3D coordinates assigned)
c1ccc2c(c1)CC[C@H](NCc1ccc(CN3CCC(n4cnc5cccnc54)CC3)cc1)C2 (nonaromatic ring conformer: 122.31626156101032 kcal/mol)

>  <smiles>  (40) 
c1ccc2c(c1)CCC(NCc1ccc(CN3CCC(n4cnc5cccnc54)CC3)cc1)C2

>  <score_type>  (40) 
oracle

>  <origin>  (40) 
adg

>  <m_score__min__energy>  (40) 
-9.7200000000000006

>  <m_primary>  (40) 
energy

$$$$
40:0
     RDKit          3D

 44 46  0  0  0  0  0  0  0  0999 V2000
   55.1850   29.0220   44.6480 N   0  0  0  0  0  0  0  0  0  0  0  0
   56.6380   29.9440   44.4820 S   0  0  0  0  0  0  0  0  0  0  0  0
   57.1700   29.7910   43.0850 O   0  0  0  0  0  0  0  0  0  0  0  0
   56.3420   31.3970   44.7300 O   0  0  0  0  0  0  0  0  0  0  0  0
   57.8320   29.3720   45.6430 C   0  0  0  0  0  0  0  0  0  0  0  0
   59.0570   30.0380   45.7810 C   0  0  0  0  0  0  0  0  0  0  0  0
   60.0100   29.5740   46.6930 C   0  0  0  0  0  0  0  0  0  0  0  0
   59.7490   28.4390   47.4770 C   0  0  0  0  0  0  0  0  0  0  0  0
   60.7900   27.9280   48.4410 C   0  0  0  0  0  0  0  0  0  0  0  0
   60.4040   28.2170   49.8970 C   0  0  0  0  0  0  0  0  0  0  0  0
   60.4170   29.6520   50.1840 N   0  0  0  0  0  0  0  0  0  0  0  0
   59.2020   30.3840   50.3850 C   0  0  0  0  0  0  0  0  0  0  0  0
   58.0870   29.7960   50.3320 O   0  0  0  0  0  0  0  0  0  0  0  0
   59.2500   31.8480   50.7030 C   0  0  0  0  0  0  0  0  0  0  0  0
   59.4100   32.6460   49.4390 C   0  0  0  0  0  0  0  0  0  0  0  0
   60.5250   33.4790   49.2550 C   0  0  0  0  0  0  0  0  0  0  0  0
   60.6460   34.2240   48.1240 N   0  0  0  0  0  0  0  0  0  0  0  0
   59.7040   34.1990   47.1450 C   0  0  0  0  0  0  0  0  0  0  0  0
   59.8650   34.9810   45.9940 C   0  0  0  0  0  0  0  0  0  0  0  0
   58.8920   34.9560   44.9900 C   0  0  0  0  0  0  0  0  0  0  0  0
   57.7560   34.1520   45.1310 C   0  0  0  0  0  0  0  0  0  0  0  0
   57.5870   33.3670   46.2770 C   0  0  0  0  0  0  0  0  0  0  0  0
   58.5590   33.3850   47.2880 C   0  0  0  0  0  0  0  0  0  0  0  0
   58.4180   32.6120   48.4470 C   0  0  0  0  0  0  0  0  0  0  0  0
   58.5240   27.7690   47.3280 C   0  0  0  0  0  0  0  0  0  0  0  0
   57.5720   28.2330   46.4160 C   0  0  0  0  0  0  0  0  0  0  0  0
   55.1690   28.6540   45.6250 H   0  0  0  0  0  0  0  0  0  0  0  0
   59.2695   30.9280   45.1704 H   0  0  0  0  0  0  0  0  0  0  0  0
   60.9698   30.1013   46.7968 H   0  0  0  0  0  0  0  0  0  0  0  0
   60.8954   26.8410   48.3090 H   0  0  0  0  0  0  0  0  0  0  0  0
   61.7378   28.4442   48.2282 H   0  0  0  0  0  0  0  0  0  0  0  0
   59.3931   27.8251   50.0826 H   0  0  0  0  0  0  0  0  0  0  0  0
   61.1413   27.7289   50.5514 H   0  0  0  0  0  0  0  0  0  0  0  0
   61.3240   30.1630   50.2620 H   0  0  0  0  0  0  0  0  0  0  0  0
   58.3157   32.1425   51.2034 H   0  0  0  0  0  0  0  0  0  0  0  0
   60.1068   32.0450   51.3642 H   0  0  0  0  0  0  0  0  0  0  0  0
   61.3045   33.5292   50.0295 H   0  0  0  0  0  0  0  0  0  0  0  0
   60.7568   35.6147   45.8799 H   0  0  0  0  0  0  0  0  0  0  0  0
   59.0203   35.5704   44.0866 H   0  0  0  0  0  0  0  0  0  0  0  0
   56.9932   34.1368   44.3386 H   0  0  0  0  0  0  0  0  0  0  0  0
   56.6924   32.7362   46.3849 H   0  0  0  0  0  0  0  0  0  0  0  0
   57.5292   31.9777   48.5800 H   0  0  0  0  0  0  0  0  0  0  0  0
   58.3126   26.8744   47.9321 H   0  0  0  0  0  0  0  0  0  0  0  0
   56.6151   27.7019   46.3048 H   0  0  0  0  0  0  0  0  0  0  0  0
  1  2  1  0
  2  3  2  0
  2  4  2  0
  2  5  1  0
  5  6  2  0
  6  7  1  0
  7  8  2  0
  8  9  1  0
  9 10  1  0
 10 11  1  0
 11 12  1  0
 12 13  2  0
 12 14  1  0
 14 15  1  0
 15 16  2  0
 16 17  1  0
 17 18  2  0
 18 19  1  0
 19 20  2  0
 20 21  1  0
 21 22  2  0
 22 23  1  0
 23 24  2  0
  8 25  1  0
 25 26  2  0
 26  5  1  0
 24 15  1  0
 23 18  1  0
  1 27  1  0
  6 28  1  0
  7 29  1  0
  9 30  1  0
  9 31  1  0
 10 32  1  0
 10 33  1  0
 11 34  1  0
 14 35  1  0
 14 36  1  0
 16 37  1  0
 19 38  1  0
 20 39  1  0
 21 40  1  0
 22 41  1  0
 24 42  1  0
 25 43  1  0
 26 44  1  0
M  CHG  1   1  -1
M  END
>  <UniqueID>  (41) 
36

>  <SMILES>  (41) 
[NH-]S(=O)(=O)c1ccc(CCNC(=O)Cc2cnc3ccccc3c2)cc1

>  <Energy>  (41) 
42.31827244687406

>  <Genealogy>  (41) 
[NH-]S(=O)(=O)c1ccc(CCNC(=O)Cc2cnc3ccccc3c2)cc1 (protonated)
[NH-]S(=O)(=O)c1ccc(CCNC(=O)Cc2cnc3ccccc3c2)cc1 (3D coordinates assigned)
[NH-]S(=O)(=O)c1ccc(CCNC(=O)Cc2cnc3ccccc3c2)cc1 (optimized conformer: 42.31827244687406 kcal/mol)

>  <smiles>  (41) 
NS(=O)(=O)c1ccc(CCNC(=O)Cc2cnc3ccccc3c2)cc1

>  <score_type>  (41) 
oracle

>  <origin>  (41) 
adg

>  <m_score__min__energy>  (41) 
-11.529999999999999

>  <m_primary>  (41) 
energy

$$$$
41:0
     RDKit          3D

 31 32  0  0  0  0  0  0  0  0999 V2000
   56.6165   30.6153   42.8435 H   0  0  0  0  0  0  0  0  0  0  0  0
   56.6180   30.3380   43.9080 C   0  0  0  0  0  0  0  0  0  0  0  0
   55.5240   30.1220   44.4960 O   0  0  0  0  0  0  0  0  0  0  0  0
   57.9100   30.2230   44.6340 C   0  0  0  0  0  0  0  0  0  0  0  0
   58.6490   29.0310   44.5040 C   0  0  0  0  0  0  0  0  0  0  0  0
   58.2827   28.2267   43.8492 H   0  0  0  0  0  0  0  0  0  0  0  0
   59.8410   28.8690   45.2020 C   0  0  0  0  0  0  0  0  0  0  0  0
   60.4241   27.9427   45.0928 H   0  0  0  0  0  0  0  0  0  0  0  0
   60.2910   29.8820   46.0370 C   0  0  0  0  0  0  0  0  0  0  0  0
   61.2255   29.7584   46.6039 H   0  0  0  0  0  0  0  0  0  0  0  0
   59.5510   31.0560   46.1520 C   0  0  0  0  0  0  0  0  0  0  0  0
   59.9011   31.8511   46.8267 H   0  0  0  0  0  0  0  0  0  0  0  0
   58.3930   31.2390   45.4390 N   0  0  0  0  0  0  0  0  0  0  0  0
   57.7030   32.5400   45.5620 C   0  0  0  0  0  0  0  0  0  0  0  0
   56.6944   32.4511   45.1320 H   0  0  0  0  0  0  0  0  0  0  0  0
   57.6537   32.8036   46.6288 H   0  0  0  0  0  0  0  0  0  0  0  0
   58.4490   33.6360   44.8390 C   0  0  0  0  0  0  0  0  0  0  0  0
   58.3731   33.6669   43.7421 H   0  0  0  0  0  0  0  0  0  0  0  0
   59.1970   34.5740   45.4370 C   0  0  0  0  0  0  0  0  0  0  0  0
   59.1481   35.6007   45.0453 H   0  0  0  0  0  0  0  0  0  0  0  0
   60.0800   34.3140   46.5860 C   0  0  0  0  0  0  0  0  0  0  0  0
   61.4030   33.8820   46.3940 C   0  0  0  0  0  0  0  0  0  0  0  0
   61.7915   33.7386   45.3749 H   0  0  0  0  0  0  0  0  0  0  0  0
   62.2270   33.6340   47.4970 C   0  0  0  0  0  0  0  0  0  0  0  0
   63.2652   33.3042   47.3443 H   0  0  0  0  0  0  0  0  0  0  0  0
   61.7320   33.8050   48.7930 C   0  0  0  0  0  0  0  0  0  0  0  0
   62.3844   33.6209   49.6593 H   0  0  0  0  0  0  0  0  0  0  0  0
   60.4080   34.2100   48.9890 C   0  0  0  0  0  0  0  0  0  0  0  0
   60.0173   34.3358   50.0095 H   0  0  0  0  0  0  0  0  0  0  0  0
   59.5810   34.4550   47.8900 C   0  0  0  0  0  0  0  0  0  0  0  0
   58.5357   34.7593   48.0473 H   0  0  0  0  0  0  0  0  0  0  0  0
  1  2  1  0
  2  3  2  0
  2  4  1  0
  4  5  2  0
  5  6  1  0
  5  7  1  0
  7  8  1  0
  7  9  2  0
  9 10  1  0
  9 11  1  0
 11 12  1  0
 11 13  2  0
 13 14  1  0
 14 15  1  0
 14 16  1  0
 14 17  1  0
 17 18  1  0
 17 19  2  0
 19 20  1  0
 19 21  1  0
 21 22  2  0
 22 23  1  0
 22 24  1  0
 24 25  1  0
 24 26  2  0
 26 27  1  0
 26 28  1  0
 28 29  1  0
 28 30  2  0
 30 31  1  0
 13  4  1  0
 30 21  1  0
M  CHG  1  13   1
M  END
>  <UniqueID>  (42) 
37

>  <SMILES>  (42) 
O=Cc1cccc[n+]1C/C=C\c1ccccc1

>  <Energy>  (42) 
39.95061298645792

>  <Genealogy>  (42) 
O=Cc1cccc[n+]1C/C=C\c1ccccc1 (cis-trans isomerization)
O=Cc1cccc[n+]1C/C=C\c1ccccc1 (3D coordinates assigned)
O=Cc1cccc[n+]1C/C=C\c1ccccc1 (optimized conformer: 39.95061298645792 kcal/mol)

>  <smiles>  (42) 
O=Cc1cccc[n+]1CC=Cc1ccccc1

>  <score_type>  (42) 
oracle

>  <origin>  (42) 
adg

>  <m_score__min__energy>  (42) 
-4.96

>  <m_primary>  (42) 
energy

$$$$
42:0
     RDKit          3D

 62 67  0  0  0  0  0  0  0  0999 V2000
   56.2340   22.8870   42.0080 H   0  0  0  0  0  0  0  0  0  0  0  0
   55.8750   22.5660   42.9350 N   0  0  0  0  0  0  0  0  0  0  0  0
   55.7000   23.3940   43.9140 C   0  0  0  0  0  0  0  0  0  0  0  0
   54.5700   23.3370   44.6660 N   0  0  0  0  0  0  0  0  0  0  0  0
   54.3930   24.2090   45.6900 C   0  0  0  0  0  0  0  0  0  0  0  0
   53.4776   24.1641   46.2983 H   0  0  0  0  0  0  0  0  0  0  0  0
   55.3440   25.1360   45.9640 N   0  0  0  0  0  0  0  0  0  0  0  0
   56.4770   25.1980   45.2140 C   0  0  0  0  0  0  0  0  0  0  0  0
   57.4830   26.1810   45.5100 N   0  0  0  0  0  0  0  0  0  0  0  0
   57.7200   27.3180   44.8250 C   0  0  0  0  0  0  0  0  0  0  0  0
   57.1756   27.6536   43.9300 H   0  0  0  0  0  0  0  0  0  0  0  0
   58.7640   27.9930   45.4370 C   0  0  0  0  0  0  0  0  0  0  0  0
   59.3700   29.2850   44.9510 C   0  0  0  0  0  0  0  0  0  0  0  0
   59.7171   29.8626   45.8204 H   0  0  0  0  0  0  0  0  0  0  0  0
   60.2034   29.0351   44.2780 H   0  0  0  0  0  0  0  0  0  0  0  0
   58.3660   30.1350   44.1620 C   0  0  0  0  0  0  0  0  0  0  0  0
   58.7427   30.2720   43.1376 H   0  0  0  0  0  0  0  0  0  0  0  0
   57.3995   29.6097   44.1605 H   0  0  0  0  0  0  0  0  0  0  0  0
   58.1630   31.4880   44.7920 C   0  0  0  0  0  0  0  0  0  0  0  0
   58.1760   31.6350   46.1890 C   0  0  0  0  0  0  0  0  0  0  0  0
   58.3394   30.7567   46.8308 H   0  0  0  0  0  0  0  0  0  0  0  0
   57.9820   32.8940   46.7670 C   0  0  0  0  0  0  0  0  0  0  0  0
   57.9940   33.0038   47.8614 H   0  0  0  0  0  0  0  0  0  0  0  0
   57.7730   34.0120   45.9560 C   0  0  0  0  0  0  0  0  0  0  0  0
   57.6116   35.0000   46.4120 H   0  0  0  0  0  0  0  0  0  0  0  0
   57.7690   33.8750   44.5650 C   0  0  0  0  0  0  0  0  0  0  0  0
   57.6025   34.7556   43.9272 H   0  0  0  0  0  0  0  0  0  0  0  0
   57.9760   32.6220   43.9830 C   0  0  0  0  0  0  0  0  0  0  0  0
   57.9927   32.5225   42.8876 H   0  0  0  0  0  0  0  0  0  0  0  0
   59.1950   27.2600   46.4910 N   0  0  0  0  0  0  0  0  0  0  0  0
   60.3050   27.5440   47.4050 C   0  0  0  0  0  0  0  0  0  0  0  0
   60.6148   26.6080   47.8929 H   0  0  0  0  0  0  0  0  0  0  0  0
   61.1322   27.9733   46.8207 H   0  0  0  0  0  0  0  0  0  0  0  0
   59.9070   28.5400   48.4640 C   0  0  0  0  0  0  0  0  0  0  0  0
   60.6980   28.7130   49.6120 C   0  0  0  0  0  0  0  0  0  0  0  0
   61.5492   28.0409   49.7958 H   0  0  0  0  0  0  0  0  0  0  0  0
   60.4100   29.7340   50.5220 C   0  0  0  0  0  0  0  0  0  0  0  0
   61.0188   29.8426   51.4317 H   0  0  0  0  0  0  0  0  0  0  0  0
   59.3490   30.6220   50.2830 C   0  0  0  0  0  0  0  0  0  0  0  0
   59.0870   31.7500   51.2130 C   0  0  0  0  0  0  0  0  0  0  0  0
   58.4730   31.4730   52.4470 C   0  0  0  0  0  0  0  0  0  0  0  0
   58.1378   30.4493   52.6697 H   0  0  0  0  0  0  0  0  0  0  0  0
   58.2840   32.4810   53.3920 C   0  0  0  0  0  0  0  0  0  0  0  0
   57.8068   32.2485   54.3554 H   0  0  0  0  0  0  0  0  0  0  0  0
   58.6990   33.7820   53.1170 C   0  0  0  0  0  0  0  0  0  0  0  0
   58.5640   34.5720   53.8705 H   0  0  0  0  0  0  0  0  0  0  0  0
   59.2850   34.0850   51.8890 C   0  0  0  0  0  0  0  0  0  0  0  0
   59.6042   35.1164   51.6786 H   0  0  0  0  0  0  0  0  0  0  0  0
   59.4730   33.0860   50.9150 C   0  0  0  0  0  0  0  0  0  0  0  0
   60.0010   33.4830   49.5860 C   0  0  0  0  0  0  0  0  0  0  0  0
   60.8130   32.7250   48.8220 N   0  0  0  0  0  0  0  0  0  0  0  0
   61.0080   33.4320   47.7190 N   0  0  0  0  0  0  0  0  0  0  0  0
   60.3410   34.5740   47.7910 N   0  0  0  0  0  0  0  0  0  0  0  0
   59.7020   34.6250   48.9450 N   0  0  0  0  0  0  0  0  0  0  0  0
   59.1050   35.4190   49.2680 H   0  0  0  0  0  0  0  0  0  0  0  0
   58.5350   30.4250   49.1570 C   0  0  0  0  0  0  0  0  0  0  0  0
   57.6716   31.0845   48.9850 H   0  0  0  0  0  0  0  0  0  0  0  0
   58.8140   29.3960   48.2520 C   0  0  0  0  0  0  0  0  0  0  0  0
   58.1735   29.2562   47.3687 H   0  0  0  0  0  0  0  0  0  0  0  0
   58.3930   26.1730   46.5090 C   0  0  0  0  0  0  0  0  0  0  0  0
   58.4900   25.2490   47.3610 O   0  0  0  0  0  0  0  0  0  0  0  0
   56.6480   24.3240   44.1880 N   0  0  0  0  0  0  0  0  0  0  0  0
  1  2  1  0
  2  3  2  0
  3  4  1  0
  4  5  2  0
  5  6  1  0
  5  7  1  0
  7  8  1  0
  8  9  1  0
  9 10  1  0
 10 11  1  0
 10 12  2  0
 12 13  1  0
 13 14  1  0
 13 15  1  0
 13 16  1  0
 16 17  1  0
 16 18  1  0
 16 19  1  0
 19 20  2  0
 20 21  1  0
 20 22  1  0
 22 23  1  0
 22 24  2  0
 24 25  1  0
 24 26  1  0
 26 27  1  0
 26 28  2  0
 28 29  1  0
 12 30  1  0
 30 31  1  0
 31 32  1  0
 31 33  1  0
 31 34  1  0
 34 35  2  0
 35 36  1  0
 35 37  1  0
 37 38  1  0
 37 39  2  0
 39 40  1  0
 40 41  2  0
 41 42  1  0
 41 43  1  0
 43 44  1  0
 43 45  2  0
 45 46  1  0
 45 47  1  0
 47 48  1  0
 47 49  2  0
 49 50  1  0
 50 51  2  0
 51 52  1  0
 52 53  1  0
 53 54  2  0
 54 55  1  0
 39 56  1  0
 56 57  1  0
 56 58  2  0
 58 59  1  0
 30 60  1  0
 60 61  2  0
  8 62  2  0
 62  3  1  0
 60  9  1  0
 28 19  1  0
 58 34  1  0
 49 40  1  0
 54 50  1  0
M  CHG  3   7  -1  52  -1  54   1
M  END
>  <UniqueID>  (43) 
38

>  <SMILES>  (43) 
[H]/N=c1\nc[n-]c(-n2cc(CCc3ccccc3)n(Cc3ccc(-c4ccccc4-c4n[n-]n[nH+]4)cc3)c2=O)n1

>  <Energy>  (43) 
146.54525916971653

>  <Genealogy>  (43) 
N=c1nc[n-]c(-n2cc(CCc3ccccc3)n(Cc3ccc(-c4ccccc4-c4n[n-]n[nH+]4)cc3)c2=O)n1 (protonated)
[H]/N=c1\nc[n-]c(-n2cc(CCc3ccccc3)n(Cc3ccc(-c4ccccc4-c4n[n-]n[nH+]4)cc3)c2=O)n1 (cis-trans isomerization)
[H]/N=c1\nc[n-]c(-n2cc(CCc3ccccc3)n(Cc3ccc(-c4ccccc4-c4n[n-]n[nH+]4)cc3)c2=O)n1 (3D coordinates assigned)
[H]/N=c1\nc[n-]c(-n2cc(CCc3ccccc3)n(Cc3ccc(-c4ccccc4-c4n[n-]n[nH+]4)cc3)c2=O)n1 (optimized conformer: 146.54525916971653 kcal/mol)

>  <smiles>  (43) 
N=c1nc[nH]c(-n2cc(CCc3ccccc3)n(Cc3ccc(-c4ccccc4-c4nn[nH]n4)cc3)c2=O)n1

>  <score_type>  (43) 
oracle

>  <origin>  (43) 
adg

>  <m_score__min__energy>  (43) 
-12.789999999999999

>  <m_primary>  (43) 
energy

$$$$
43:0
     RDKit          3D

 53 57  0  0  0  0  0  0  0  0999 V2000
   54.7990   30.0890   43.7130 O   0  0  0  0  0  0  0  0  0  0  0  0
   55.9550   30.1610   44.2100 C   0  0  0  0  0  0  0  0  0  0  0  0
   56.7590   28.9030   44.4040 C   0  0  0  0  0  0  0  0  0  0  0  0
   56.3390   28.1940   45.5720 O   0  0  0  0  0  0  0  0  0  0  0  0
   56.9370   27.0270   46.0830 C   0  0  0  0  0  0  0  0  0  0  0  0
   56.3740   25.7550   45.8540 C   0  0  0  0  0  0  0  0  0  0  0  0
   56.9760   24.6050   46.3630 C   0  0  0  0  0  0  0  0  0  0  0  0
   58.1470   24.6980   47.1110 C   0  0  0  0  0  0  0  0  0  0  0  0
   58.7270   25.9440   47.3570 C   0  0  0  0  0  0  0  0  0  0  0  0
   59.8440   26.0060   48.0710 O   0  0  0  0  0  0  0  0  0  0  0  0
   60.4580   27.1470   48.3520 C   0  0  0  0  0  0  0  0  0  0  0  0
   59.9450   28.3690   47.8980 C   0  0  0  0  0  0  0  0  0  0  0  0
   60.6490   29.6330   48.2320 C   0  0  0  0  0  0  0  0  0  0  0  0
   60.7490   30.0590   49.5840 C   0  0  0  0  0  0  0  0  0  0  0  0
   61.4050   31.2590   49.9120 C   0  0  0  0  0  0  0  0  0  0  0  0
   61.9430   32.0100   48.8710 C   0  0  0  0  0  0  0  0  0  0  0  0
   61.8480   31.6150   47.5780 C   0  0  0  0  0  0  0  0  0  0  0  0
   61.2080   30.4350   47.2100 C   0  0  0  0  0  0  0  0  0  0  0  0
   62.4620   32.5490   46.7650 O   0  0  0  0  0  0  0  0  0  0  0  0
   62.9760   33.5950   47.6030 C   0  0  0  0  0  0  0  0  0  0  0  0
   62.6240   33.2100   48.9390 O   0  0  0  0  0  0  0  0  0  0  0  0
   58.7690   28.3540   47.1240 C   0  0  0  0  0  0  0  0  0  0  0  0
   58.3070   29.4370   46.6700 O   0  0  0  0  0  0  0  0  0  0  0  0
   58.1300   27.1240   46.8470 C   0  0  0  0  0  0  0  0  0  0  0  0
   56.5000   31.4560   44.4950 N   0  0  0  0  0  0  0  0  0  0  0  0
   57.8170   31.9330   44.0830 C   0  0  0  0  0  0  0  0  0  0  0  0
   58.0100   33.4070   44.4550 C   0  0  0  0  0  0  0  0  0  0  0  0
   58.4920   33.5590   45.8740 C   0  0  0  0  0  0  0  0  0  0  0  0
   58.1420   32.6100   46.8500 C   0  0  0  0  0  0  0  0  0  0  0  0
   58.5660   32.7700   48.1720 C   0  0  0  0  0  0  0  0  0  0  0  0
   59.3380   33.8780   48.5320 C   0  0  0  0  0  0  0  0  0  0  0  0
   59.6810   34.8320   47.5690 C   0  0  0  0  0  0  0  0  0  0  0  0
   59.2590   34.6760   46.2470 C   0  0  0  0  0  0  0  0  0  0  0  0
   56.6283   28.2549   43.5249 H   0  0  0  0  0  0  0  0  0  0  0  0
   57.8159   29.1817   44.5279 H   0  0  0  0  0  0  0  0  0  0  0  0
   55.4481   25.6687   45.2664 H   0  0  0  0  0  0  0  0  0  0  0  0
   56.5242   23.6203   46.1730 H   0  0  0  0  0  0  0  0  0  0  0  0
   58.6167   23.7866   47.5094 H   0  0  0  0  0  0  0  0  0  0  0  0
   61.3818   27.1340   48.9491 H   0  0  0  0  0  0  0  0  0  0  0  0
   60.3087   29.4437   50.3824 H   0  0  0  0  0  0  0  0  0  0  0  0
   61.4901   31.5930   50.9566 H   0  0  0  0  0  0  0  0  0  0  0  0
   61.1390   30.1347   46.1540 H   0  0  0  0  0  0  0  0  0  0  0  0
   64.0683   33.6721   47.4984 H   0  0  0  0  0  0  0  0  0  0  0  0
   62.5628   34.5786   47.3350 H   0  0  0  0  0  0  0  0  0  0  0  0
   58.5900   31.3317   44.5839 H   0  0  0  0  0  0  0  0  0  0  0  0
   57.8988   31.8343   42.9905 H   0  0  0  0  0  0  0  0  0  0  0  0
   58.7514   33.8531   43.7758 H   0  0  0  0  0  0  0  0  0  0  0  0
   57.0393   33.9163   44.3635 H   0  0  0  0  0  0  0  0  0  0  0  0
   57.5319   31.7379   46.5721 H   0  0  0  0  0  0  0  0  0  0  0  0
   58.2916   32.0223   48.9307 H   0  0  0  0  0  0  0  0  0  0  0  0
   59.6755   33.9994   49.5719 H   0  0  0  0  0  0  0  0  0  0  0  0
   60.2842   35.7068   47.8532 H   0  0  0  0  0  0  0  0  0  0  0  0
   59.5283   35.4312   45.4939 H   0  0  0  0  0  0  0  0  0  0  0  0
  1  2  2  0
  2  3  1  0
  3  4  1  0
  4  5  1  0
  5  6  2  0
  6  7  1  0
  7  8  2  0
  8  9  1  0
  9 10  1  0
 10 11  1  0
 11 12  2  0
 12 13  1  0
 13 14  2  0
 14 15  1  0
 15 16  2  0
 16 17  1  0
 17 18  2  0
 17 19  1  0
 19 20  1  0
 20 21  1  0
 12 22  1  0
 22 23  2  0
 22 24  1  0
  2 25  1  0
 25 26  1  0
 26 27  1  0
 27 28  1  0
 28 29  2  0
 29 30  1  0
 30 31  2  0
 31 32  1  0
 32 33  2  0
 24  5  1  0
 33 28  1  0
 24  9  2  0
 18 13  1  0
 21 16  1  0
  3 34  1  0
  3 35  1  0
  6 36  1  0
  7 37  1  0
  8 38  1  0
 11 39  1  0
 14 40  1  0
 15 41  1  0
 18 42  1  0
 20 43  1  0
 20 44  1  0
 26 45  1  0
 26 46  1  0
 27 47  1  0
 27 48  1  0
 29 49  1  0
 30 50  1  0
 31 51  1  0
 32 52  1  0
 33 53  1  0
M  CHG  1  25  -1
M  END
>  <UniqueID>  (44) 
39

>  <SMILES>  (44) 
O=C(COc1cccc2occ(-c3ccc4c(c3)OCO4)c(=O)c12)[N-]CCc1ccccc1

>  <Energy>  (44) 
96.57925049580528

>  <Genealogy>  (44) 
O=C(COc1cccc2occ(-c3ccc4c(c3)OCO4)c(=O)c12)[N-]CCc1ccccc1 (protonated)
O=C(COc1cccc2occ(-c3ccc4c(c3)OCO4)c(=O)c12)[N-]CCc1ccccc1 (3D coordinates assigned)
O=C(COc1cccc2occ(-c3ccc4c(c3)OCO4)c(=O)c12)[N-]CCc1ccccc1 (nonaromatic ring conformer: 96.57925049580528 kcal/mol)

>  <smiles>  (44) 
O=C(COc1cccc2occ(-c3ccc4c(c3)OCO4)c(=O)c12)NCCc1ccccc1

>  <score_type>  (44) 
oracle

>  <origin>  (44) 
adg

>  <m_score__min__energy>  (44) 
-10.880000000000001

>  <m_primary>  (44) 
energy

$$$$
44:0
     RDKit          3D

 39 39  0  0  0  0  0  0  0  0999 V2000
   61.7370   32.6250   47.4980 C   0  0  0  0  0  0  0  0  0  0  0  0
   61.4320   31.1780   47.1250 C   0  0  0  0  0  0  0  0  0  0  0  0
   60.0890   30.8410   47.4700 O   0  0  0  0  0  0  0  0  0  0  0  0
   58.9770   31.6010   47.0820 C   0  0  0  0  0  0  0  0  0  0  0  0
   58.4210   32.3740   47.9110 O   0  0  0  0  0  0  0  0  0  0  0  0
   58.4450   31.4900   45.7020 C   0  0  0  0  0  0  0  0  0  0  0  0
   58.9260   30.5310   44.8820 C   0  0  0  0  0  0  0  0  0  0  0  0
   58.7520   29.0750   45.0960 C   0  0  0  0  0  0  0  0  0  0  0  0
   59.7850   28.3450   45.7120 C   0  0  0  0  0  0  0  0  0  0  0  0
   59.6210   26.9930   46.0120 C   0  0  0  0  0  0  0  0  0  0  0  0
   58.4180   26.3440   45.7110 C   0  0  0  0  0  0  0  0  0  0  0  0
   58.2280   24.9000   46.0750 C   0  0  0  0  0  0  0  0  0  0  0  0
   57.3690   27.0710   45.1330 C   0  0  0  0  0  0  0  0  0  0  0  0
   57.5210   28.4310   44.8100 C   0  0  0  0  0  0  0  0  0  0  0  0
   56.4270   29.1270   44.1810 N   0  0  0  0  0  0  0  0  0  0  0  0
   56.4660   29.4180   42.9670 O   0  0  0  0  0  0  0  0  0  0  0  0
   55.2570   29.3420   44.8740 O   0  0  0  0  0  0  0  0  0  0  0  0
   57.3700   32.4190   45.2770 C   0  0  0  0  0  0  0  0  0  0  0  0
   56.2680   31.9660   44.8550 O   0  0  0  0  0  0  0  0  0  0  0  0
   57.5740   33.8000   45.3680 O   0  0  0  0  0  0  0  0  0  0  0  0
   58.7570   34.4500   44.9060 C   0  0  0  0  0  0  0  0  0  0  0  0
   59.5840   34.9580   46.0810 C   0  0  0  0  0  0  0  0  0  0  0  0
   61.7580   32.7247   48.5933 H   0  0  0  0  0  0  0  0  0  0  0  0
   62.7153   32.9117   47.0849 H   0  0  0  0  0  0  0  0  0  0  0  0
   60.9577   33.2822   47.0849 H   0  0  0  0  0  0  0  0  0  0  0  0
   61.5702   31.0475   46.0415 H   0  0  0  0  0  0  0  0  0  0  0  0
   62.1159   30.5181   47.6790 H   0  0  0  0  0  0  0  0  0  0  0  0
   59.4867   30.8534   43.9922 H   0  0  0  0  0  0  0  0  0  0  0  0
   60.7324   28.8462   45.9597 H   0  0  0  0  0  0  0  0  0  0  0  0
   60.4407   26.4342   46.4873 H   0  0  0  0  0  0  0  0  0  0  0  0
   58.2144   24.7966   47.1700 H   0  0  0  0  0  0  0  0  0  0  0  0
   57.2747   24.5398   45.6608 H   0  0  0  0  0  0  0  0  0  0  0  0
   59.0557   24.3055   45.6608 H   0  0  0  0  0  0  0  0  0  0  0  0
   56.4113   26.5699   44.9287 H   0  0  0  0  0  0  0  0  0  0  0  0
   59.3575   33.7361   44.3231 H   0  0  0  0  0  0  0  0  0  0  0  0
   58.4690   35.3064   44.2787 H   0  0  0  0  0  0  0  0  0  0  0  0
   59.1017   34.6617   47.0242 H   0  0  0  0  0  0  0  0  0  0  0  0
   60.5937   34.5242   46.0335 H   0  0  0  0  0  0  0  0  0  0  0  0
   59.6535   36.0548   46.0335 H   0  0  0  0  0  0  0  0  0  0  0  0
  1  2  1  0
  2  3  1  0
  3  4  1  0
  4  5  2  0
  4  6  1  0
  6  7  2  3
  7  8  1  0
  8  9  2  0
  9 10  1  0
 10 11  2  0
 11 12  1  0
 11 13  1  0
 13 14  2  0
 14 15  1  0
 15 16  2  0
 15 17  1  0
  6 18  1  0
 18 19  2  0
 18 20  1  0
 20 21  1  0
 21 22  1  0
 14  8  1  0
  1 23  1  0
  1 24  1  0
  1 25  1  0
  2 26  1  0
  2 27  1  0
  7 28  1  0
  9 29  1  0
 10 30  1  0
 12 31  1  0
 12 32  1  0
 12 33  1  0
 13 34  1  0
 21 35  1  0
 21 36  1  0
 22 37  1  0
 22 38  1  0
 22 39  1  0
M  CHG  2  15   1  17  -1
M  END
>  <UniqueID>  (45) 
40

>  <SMILES>  (45) 
CCOC(=O)C(=Cc1ccc(C)cc1[N+](=O)[O-])C(=O)OCC

>  <Energy>  (45) 
42.021366506454825

>  <Genealogy>  (45) 
CCOC(=O)C(=Cc1ccc(C)cc1[N+](=O)[O-])C(=O)OCC (3D coordinates assigned)
CCOC(=O)C(=Cc1ccc(C)cc1[N+](=O)[O-])C(=O)OCC (optimized conformer: 42.021366506454825 kcal/mol)

>  <smiles>  (45) 
CCOC(=O)C(=Cc1ccc(C)cc1[N+](=O)[O-])C(=O)OCC

>  <score_type>  (45) 
oracle

>  <origin>  (45) 
adg

>  <m_score__min__energy>  (45) 
-6.4299999999999997

>  <m_primary>  (45) 
energy

$$$$
45:0
     RDKit          3D

 48 50  0  0  0  0  0  0  0  0999 V2000
   58.4330   32.1190   51.4810 C   0  0  0  0  0  0  0  0  0  0  0  0
   58.9430   33.4980   51.4140 N   0  0  0  0  0  0  0  0  0  0  0  0
   58.5560   34.2240   52.6370 C   0  0  0  0  0  0  0  0  0  0  0  0
   60.4120   33.4850   51.2530 C   0  0  0  0  0  0  0  0  0  0  0  0
   60.7870   33.5470   49.7940 C   0  0  0  0  0  0  0  0  0  0  0  0
   62.1330   33.6500   49.4210 C   0  0  0  0  0  0  0  0  0  0  0  0
   62.4890   33.6860   48.0710 C   0  0  0  0  0  0  0  0  0  0  0  0
   61.5040   33.6130   47.0830 C   0  0  0  0  0  0  0  0  0  0  0  0
   60.1450   33.5030   47.4350 C   0  0  0  0  0  0  0  0  0  0  0  0
   59.0960   33.4190   46.3870 C   0  0  0  0  0  0  0  0  0  0  0  0
   58.7760   34.4710   45.5230 C   0  0  0  0  0  0  0  0  0  0  0  0
   57.5390   33.9740   44.4980 S   0  0  0  0  0  0  0  0  0  0  0  0
   57.4100   32.4240   45.1180 C   0  0  0  0  0  0  0  0  0  0  0  0
   56.4400   31.4640   44.6850 N   0  0  0  0  0  0  0  0  0  0  0  0
   56.5800   30.0440   44.8030 C   0  0  0  0  0  0  0  0  0  0  0  0
   55.5440   29.3390   44.9220 O   0  0  0  0  0  0  0  0  0  0  0  0
   57.8690   29.4210   44.6900 N   0  0  0  0  0  0  0  0  0  0  0  0
   58.1810   28.1180   45.2140 C   0  0  0  0  0  0  0  0  0  0  0  0
   59.5140   27.8050   45.5210 C   0  0  0  0  0  0  0  0  0  0  0  0
   59.8390   26.5620   46.0680 C   0  0  0  0  0  0  0  0  0  0  0  0
   58.8380   25.6220   46.3210 C   0  0  0  0  0  0  0  0  0  0  0  0
   57.4970   25.9120   46.0160 C   0  0  0  0  0  0  0  0  0  0  0  0
   56.4060   24.9250   46.3510 C   0  0  0  0  0  0  0  0  0  0  0  0
   56.6220   23.7540   45.6500 F   0  0  0  0  0  0  0  0  0  0  0  0
   56.4030   24.6460   47.7070 F   0  0  0  0  0  0  0  0  0  0  0  0
   55.1640   25.4330   46.0110 F   0  0  0  0  0  0  0  0  0  0  0  0
   57.1730   27.1760   45.4900 C   0  0  0  0  0  0  0  0  0  0  0  0
   58.3130   32.2710   46.1640 C   0  0  0  0  0  0  0  0  0  0  0  0
   59.7980   33.4680   48.7990 C   0  0  0  0  0  0  0  0  0  0  0  0
   58.3223   31.8197   52.5337 H   0  0  0  0  0  0  0  0  0  0  0  0
   57.4554   32.0649   50.9797 H   0  0  0  0  0  0  0  0  0  0  0  0
   59.1401   31.4418   50.9797 H   0  0  0  0  0  0  0  0  0  0  0  0
   58.8645   33.6452   53.5201 H   0  0  0  0  0  0  0  0  0  0  0  0
   59.0499   35.2068   52.6518 H   0  0  0  0  0  0  0  0  0  0  0  0
   57.4648   34.3618   52.6518 H   0  0  0  0  0  0  0  0  0  0  0  0
   60.8403   34.3543   51.7735 H   0  0  0  0  0  0  0  0  0  0  0  0
   60.8072   32.5520   51.6812 H   0  0  0  0  0  0  0  0  0  0  0  0
   62.9132   33.7028   50.1947 H   0  0  0  0  0  0  0  0  0  0  0  0
   63.5477   33.7721   47.7849 H   0  0  0  0  0  0  0  0  0  0  0  0
   61.7923   33.6417   46.0218 H   0  0  0  0  0  0  0  0  0  0  0  0
   59.2549   35.4612   45.5152 H   0  0  0  0  0  0  0  0  0  0  0  0
   58.6010   29.9180   44.1350 H   0  0  0  0  0  0  0  0  0  0  0  0
   60.3072   28.5428   45.3297 H   0  0  0  0  0  0  0  0  0  0  0  0
   60.8872   26.3226   46.3004 H   0  0  0  0  0  0  0  0  0  0  0  0
   59.1005   24.6489   46.7616 H   0  0  0  0  0  0  0  0  0  0  0  0
   56.1212   27.4303   45.2926 H   0  0  0  0  0  0  0  0  0  0  0  0
   58.4058   31.3485   46.7559 H   0  0  0  0  0  0  0  0  0  0  0  0
   58.7408   33.3778   49.0890 H   0  0  0  0  0  0  0  0  0  0  0  0
  1  2  1  0
  2  3  1  0
  2  4  1  0
  4  5  1  0
  5  6  2  0
  6  7  1  0
  7  8  2  0
  8  9  1  0
  9 10  1  0
 10 11  2  0
 11 12  1  0
 12 13  1  0
 13 14  1  0
 14 15  1  0
 15 16  2  0
 15 17  1  0
 17 18  1  0
 18 19  2  0
 19 20  1  0
 20 21  2  0
 21 22  1  0
 22 23  1  0
 23 24  1  0
 23 25  1  0
 23 26  1  0
 22 27  2  0
 13 28  2  0
  9 29  2  0
 29  5  1  0
 28 10  1  0
 27 18  1  0
  1 30  1  0
  1 31  1  0
  1 32  1  0
  3 33  1  0
  3 34  1  0
  3 35  1  0
  4 36  1  0
  4 37  1  0
  6 38  1  0
  7 39  1  0
  8 40  1  0
 11 41  1  0
 17 42  1  0
 19 43  1  0
 20 44  1  0
 21 45  1  0
 27 46  1  0
 28 47  1  0
 29 48  1  0
M  CHG  1  14  -1
M  END
>  <UniqueID>  (46) 
41

>  <SMILES>  (46) 
CN(C)Cc1cccc(-c2csc([N-]C(=O)Nc3cccc(C(F)(F)F)c3)c2)c1

>  <Energy>  (46) 
85.35998204275111

>  <Genealogy>  (46) 
CN(C)Cc1cccc(-c2csc([N-]C(=O)Nc3cccc(C(F)(F)F)c3)c2)c1 (protonated)
CN(C)Cc1cccc(-c2csc([N-]C(=O)Nc3cccc(C(F)(F)F)c3)c2)c1 (3D coordinates assigned)
CN(C)Cc1cccc(-c2csc([N-]C(=O)Nc3cccc(C(F)(F)F)c3)c2)c1 (optimized conformer: 85.35998204275111 kcal/mol)

>  <smiles>  (46) 
CN(C)Cc1cccc(-c2csc(NC(=O)Nc3cccc(C(F)(F)F)c3)c2)c1

>  <score_type>  (46) 
oracle

>  <origin>  (46) 
adg

>  <m_score__min__energy>  (46) 
-10.19

>  <m_primary>  (46) 
energy

$$$$
46:0
     RDKit          3D

 57 59  0  0  0  0  0  0  0  0999 V2000
   65.3610   31.3140   50.9120 C   0  0  0  0  0  0  0  0  0  0  0  0
   65.3150   32.3290   49.8100 C   0  0  0  0  0  0  0  0  0  0  0  0
   66.3230   33.0720   49.6370 O   0  0  0  0  0  0  0  0  0  0  0  0
   64.1250   32.4850   48.9300 C   0  0  0  0  0  0  0  0  0  0  0  0
   64.1260   33.3850   47.8450 C   0  0  0  0  0  0  0  0  0  0  0  0
   62.9920   33.5280   47.0350 C   0  0  0  0  0  0  0  0  0  0  0  0
   61.8390   32.7650   47.2860 C   0  0  0  0  0  0  0  0  0  0  0  0
   60.6460   32.9240   46.5000 N   0  0  0  0  0  0  0  0  0  0  0  0
   60.0470   34.1950   46.1870 C   0  0  0  0  0  0  0  0  0  0  0  0
   60.6860   35.2670   46.3780 O   0  0  0  0  0  0  0  0  0  0  0  0
   58.6500   34.2440   45.6120 C   0  0  0  0  0  0  0  0  0  0  0  0
   57.6610   33.4360   46.4780 C   0  0  0  0  0  0  0  0  0  0  0  0
   57.7540   31.9110   46.2530 C   0  0  0  0  0  0  0  0  0  0  0  0
   58.1330   31.5360   44.8690 N   0  0  0  0  0  0  0  0  0  0  0  0
   57.4680   29.9870   44.4010 S   0  0  0  0  0  0  0  0  0  0  0  0
   57.2150   29.9570   42.9170 O   0  0  0  0  0  0  0  0  0  0  0  0
   56.1470   29.8370   45.1060 O   0  0  0  0  0  0  0  0  0  0  0  0
   58.5300   28.6660   44.8620 N   0  0  0  0  0  0  0  0  0  0  0  0
   58.0680   28.0350   46.1230 C   0  0  0  0  0  0  0  0  0  0  0  0
   59.1810   27.2130   46.7840 C   0  0  0  0  0  0  0  0  0  0  0  0
   60.3750   28.1150   47.1890 C   0  0  0  0  0  0  0  0  0  0  0  0
   60.2990   28.5110   48.6700 C   0  0  0  0  0  0  0  0  0  0  0  0
   60.4740   29.3760   46.2990 C   0  0  0  0  0  0  0  0  0  0  0  0
   59.9550   29.0900   44.8820 C   0  0  0  0  0  0  0  0  0  0  0  0
   57.7920   32.5610   43.8720 C   0  0  0  0  0  0  0  0  0  0  0  0
   58.6320   33.8170   44.1200 C   0  0  0  0  0  0  0  0  0  0  0  0
   61.8300   31.8790   48.3720 C   0  0  0  0  0  0  0  0  0  0  0  0
   62.9620   31.7320   49.1790 C   0  0  0  0  0  0  0  0  0  0  0  0
   65.3377   31.8274   51.8846 H   0  0  0  0  0  0  0  0  0  0  0  0
   64.4923   30.6442   50.8301 H   0  0  0  0  0  0  0  0  0  0  0  0
   66.2867   30.7255   50.8301 H   0  0  0  0  0  0  0  0  0  0  0  0
   65.0259   33.9808   47.6323 H   0  0  0  0  0  0  0  0  0  0  0  0
   63.0042   34.2415   46.1979 H   0  0  0  0  0  0  0  0  0  0  0  0
   60.2410   32.0700   46.0560 H   0  0  0  0  0  0  0  0  0  0  0  0
   58.3083   35.2893   45.6368 H   0  0  0  0  0  0  0  0  0  0  0  0
   57.8725   33.6459   47.5369 H   0  0  0  0  0  0  0  0  0  0  0  0
   56.6463   33.7461   46.1876 H   0  0  0  0  0  0  0  0  0  0  0  0
   58.5080   31.5033   46.9424 H   0  0  0  0  0  0  0  0  0  0  0  0
   56.7516   31.4967   46.4359 H   0  0  0  0  0  0  0  0  0  0  0  0
   57.7450   28.8232   46.8190 H   0  0  0  0  0  0  0  0  0  0  0  0
   57.2356   27.3569   45.8834 H   0  0  0  0  0  0  0  0  0  0  0  0
   58.7799   26.7227   47.6833 H   0  0  0  0  0  0  0  0  0  0  0  0
   59.5380   26.4638   46.0620 H   0  0  0  0  0  0  0  0  0  0  0  0
   61.2880   27.5213   47.0341 H   0  0  0  0  0  0  0  0  0  0  0  0
   60.4695   27.6229   49.2962 H   0  0  0  0  0  0  0  0  0  0  0  0
   61.0686   29.2662   48.8876 H   0  0  0  0  0  0  0  0  0  0  0  0
   59.3045   28.9277   48.8876 H   0  0  0  0  0  0  0  0  0  0  0  0
   59.8727   30.1809   46.7470 H   0  0  0  0  0  0  0  0  0  0  0  0
   61.5301   29.6764   46.2321 H   0  0  0  0  0  0  0  0  0  0  0  0
   60.0575   30.0046   44.2795 H   0  0  0  0  0  0  0  0  0  0  0  0
   60.5516   28.2612   44.4731 H   0  0  0  0  0  0  0  0  0  0  0  0
   58.0001   32.1745   42.8634 H   0  0  0  0  0  0  0  0  0  0  0  0
   56.7245   32.8125   43.9565 H   0  0  0  0  0  0  0  0  0  0  0  0
   59.6651   33.6178   43.7990 H   0  0  0  0  0  0  0  0  0  0  0  0
   58.1773   34.6380   43.5462 H   0  0  0  0  0  0  0  0  0  0  0  0
   60.9244   31.2943   48.5912 H   0  0  0  0  0  0  0  0  0  0  0  0
   62.9437   31.0203   50.0175 H   0  0  0  0  0  0  0  0  0  0  0  0
  1  2  1  0
  2  3  2  0
  2  4  1  0
  4  5  2  0
  5  6  1  0
  6  7  2  0
  7  8  1  0
  8  9  1  0
  9 10  2  0
  9 11  1  0
 11 12  1  0
 12 13  1  0
 13 14  1  0
 14 15  1  0
 15 16  2  0
 15 17  2  0
 15 18  1  0
 18 19  1  0
 19 20  1  0
 20 21  1  0
 21 22  1  0
 21 23  1  0
 23 24  1  0
 14 25  1  0
 25 26  1  0
  7 27  1  0
 27 28  2  0
 28  4  1  0
 26 11  1  0
 24 18  1  0
  1 29  1  0
  1 30  1  0
  1 31  1  0
  5 32  1  0
  6 33  1  0
  8 34  1  0
 11 35  1  0
 12 36  1  0
 12 37  1  0
 13 38  1  0
 13 39  1  0
 19 40  1  0
 19 41  1  0
 20 42  1  0
 20 43  1  0
 21 44  1  0
 22 45  1  0
 22 46  1  0
 22 47  1  0
 23 48  1  0
 23 49  1  0
 24 50  1  0
 24 51  1  0
 25 52  1  0
 25 53  1  0
 26 54  1  0
 26 55  1  0
 27 56  1  0
 28 57  1  0
M  END
>  <UniqueID>  (47) 
42

>  <SMILES>  (47) 
CC(=O)c1ccc(NC(=O)C2CCN(S(=O)(=O)N3CCC(C)CC3)CC2)cc1

>  <Energy>  (47) 
71.04348027247515

>  <Genealogy>  (47) 
CC(=O)c1ccc(NC(=O)C2CCN(S(=O)(=O)N3CCC(C)CC3)CC2)cc1 (3D coordinates assigned)
CC(=O)c1ccc(NC(=O)C2CCN(S(=O)(=O)N3CCC(C)CC3)CC2)cc1 (nonaromatic ring conformer: 71.04348027247515 kcal/mol)

>  <smiles>  (47) 
CC(=O)c1ccc(NC(=O)C2CCN(S(=O)(=O)N3CCC(C)CC3)CC2)cc1

>  <score_type>  (47) 
oracle

>  <origin>  (47) 
adg

>  <m_score__min__energy>  (47) 
-9.5999999999999996

>  <m_primary>  (47) 
energy

$$$$
47:0
     RDKit          3D

 28 31  0  0  0  0  0  0  0  0999 V2000
   56.6460   30.4080   42.6180 C   0  0  0  0  0  0  0  0  0  0  0  0
   57.1170   31.5920   42.0060 C   0  0  0  0  0  0  0  0  0  0  0  0
   57.7770   32.5750   42.7650 C   0  0  0  0  0  0  0  0  0  0  0  0
   57.9440   32.3350   44.1280 C   0  0  0  0  0  0  0  0  0  0  0  0
   57.4860   31.1820   44.7290 C   0  0  0  0  0  0  0  0  0  0  0  0
   56.8300   30.1950   43.9980 C   0  0  0  0  0  0  0  0  0  0  0  0
   57.7610   31.1710   46.0520 N   0  0  0  0  0  0  0  0  0  0  0  0
   58.4050   32.3420   46.2830 C   0  0  0  0  0  0  0  0  0  0  0  0
   58.5320   33.0760   45.1260 C   0  0  0  0  0  0  0  0  0  0  0  0
   59.1560   34.3150   45.1070 C   0  0  0  0  0  0  0  0  0  0  0  0
   59.6610   34.8000   46.3230 C   0  0  0  0  0  0  0  0  0  0  0  0
   59.5380   34.0720   47.4880 N   0  0  0  0  0  0  0  0  0  0  0  0
   60.0480   34.5910   48.6480 C   0  0  0  0  0  0  0  0  0  0  0  0
   59.9460   33.8880   49.8480 C   0  0  0  0  0  0  0  0  0  0  0  0
   59.3190   32.6450   49.8680 C   0  0  0  0  0  0  0  0  0  0  0  0
   58.7990   32.1110   48.6920 C   0  0  0  0  0  0  0  0  0  0  0  0
   58.9130   32.8360   47.4940 C   0  0  0  0  0  0  0  0  0  0  0  0
   56.1320   29.6474   42.0120 H   0  0  0  0  0  0  0  0  0  0  0  0
   56.9661   31.7458   40.9273 H   0  0  0  0  0  0  0  0  0  0  0  0
   58.1481   33.5001   42.2998 H   0  0  0  0  0  0  0  0  0  0  0  0
   56.4667   29.2772   44.4834 H   0  0  0  0  0  0  0  0  0  0  0  0
   57.5230   30.4160   46.7320 H   0  0  0  0  0  0  0  0  0  0  0  0
   59.2510   34.8937   44.1764 H   0  0  0  0  0  0  0  0  0  0  0  0
   60.1638   35.7780   46.3476 H   0  0  0  0  0  0  0  0  0  0  0  0
   60.5435   35.5730   48.6331 H   0  0  0  0  0  0  0  0  0  0  0  0
   60.3590   34.3135   50.7745 H   0  0  0  0  0  0  0  0  0  0  0  0
   59.2346   32.0857   50.8114 H   0  0  0  0  0  0  0  0  0  0  0  0
   58.3029   31.1293   48.7008 H   0  0  0  0  0  0  0  0  0  0  0  0
  1  2  2  0
  2  3  1  0
  3  4  2  0
  4  5  1  0
  5  6  2  0
  5  7  1  0
  7  8  1  0
  8  9  2  0
  9 10  1  0
 10 11  2  0
 11 12  1  0
 12 13  2  0
 13 14  1  0
 14 15  2  0
 15 16  1  0
 16 17  2  0
  6  1  1  0
 17  8  1  0
  9  4  1  0
 17 12  1  0
  1 18  1  0
  2 19  1  0
  3 20  1  0
  6 21  1  0
  7 22  1  0
 10 23  1  0
 11 24  1  0
 13 25  1  0
 14 26  1  0
 15 27  1  0
 16 28  1  0
M  CHG  1  12   1
M  END
>  <UniqueID>  (48) 
43

>  <SMILES>  (48) 
c1ccc2c(c1)[nH]c1c2cc[n+]2ccccc12

>  <Energy>  (48) 
78.39762450508272

>  <Genealogy>  (48) 
c1ccc2c(c1)[nH]c1c2cc[n+]2ccccc12 (3D coordinates assigned)
c1ccc2c(c1)[nH]c1c2cc[n+]2ccccc12 (optimized conformer: 78.39762450508272 kcal/mol)

>  <smiles>  (48) 
c1ccc2c(c1)[nH]c1c2cc[n+]2ccccc12

>  <score_type>  (48) 
oracle

>  <origin>  (48) 
adg

>  <m_score__min__energy>  (48) 
-5.3099999999999996

>  <m_primary>  (48) 
energy

$$$$
48:0
     RDKit          3D

 50 52  0  0  0  0  0  0  0  0999 V2000
   62.4360   33.9770   46.1110 O   0  0  0  0  0  0  0  0  0  0  0  0
   61.5330   33.7790   46.9680 C   0  0  0  0  0  0  0  0  0  0  0  0
   61.7970   34.0620   48.3540 N   0  0  0  0  0  0  0  0  0  0  0  0
   63.1580   34.1560   48.8890 C   0  0  0  0  0  0  0  0  0  0  0  0
   63.6240   32.7990   49.4420 C   0  0  0  0  0  0  0  0  0  0  0  0
   62.6970   31.6380   49.0340 C   0  0  0  0  0  0  0  0  0  0  0  0
   62.1000   31.0000   50.2310 N   0  0  0  0  0  0  0  0  0  0  0  0
   61.9330   31.9520   51.3530 C   0  0  0  0  0  0  0  0  0  0  0  0
   60.7990   32.9730   51.0770 C   0  0  0  0  0  0  0  0  0  0  0  0
   59.9570   32.5860   49.9990 O   0  0  0  0  0  0  0  0  0  0  0  0
   59.5950   31.2230   50.1270 C   0  0  0  0  0  0  0  0  0  0  0  0
   60.8220   30.3080   49.9290 C   0  0  0  0  0  0  0  0  0  0  0  0
   60.2200   33.2420   46.5300 C   0  0  0  0  0  0  0  0  0  0  0  0
   59.8230   31.9290   46.8610 C   0  0  0  0  0  0  0  0  0  0  0  0
   58.6420   31.3970   46.3430 C   0  0  0  0  0  0  0  0  0  0  0  0
   57.8300   32.1710   45.4930 C   0  0  0  0  0  0  0  0  0  0  0  0
   56.6450   31.6230   44.9010 N   0  0  0  0  0  0  0  0  0  0  0  0
   56.6090   30.4260   44.1070 C   0  0  0  0  0  0  0  0  0  0  0  0
   56.4070   30.5260   42.8660 O   0  0  0  0  0  0  0  0  0  0  0  0
   56.8610   29.0900   44.6890 C   0  0  0  0  0  0  0  0  0  0  0  0
   58.0680   28.4040   44.7030 C   0  0  0  0  0  0  0  0  0  0  0  0
   57.8160   27.1940   45.3170 C   0  0  0  0  0  0  0  0  0  0  0  0
   56.4720   27.2200   45.6300 C   0  0  0  0  0  0  0  0  0  0  0  0
   55.7510   26.1680   46.2740 N   0  0  0  0  0  0  0  0  0  0  0  0
   56.3100   25.4340   47.1210 O   0  0  0  0  0  0  0  0  0  0  0  0
   54.4280   25.9580   45.9630 O   0  0  0  0  0  0  0  0  0  0  0  0
   55.9270   28.3530   45.2470 O   0  0  0  0  0  0  0  0  0  0  0  0
   58.1830   33.4990   45.2140 C   0  0  0  0  0  0  0  0  0  0  0  0
   59.3770   34.0250   45.7160 C   0  0  0  0  0  0  0  0  0  0  0  0
   61.0040   34.2150   49.0150 H   0  0  0  0  0  0  0  0  0  0  0  0
   63.8400   34.4711   48.0856 H   0  0  0  0  0  0  0  0  0  0  0  0
   63.1643   34.8906   49.7078 H   0  0  0  0  0  0  0  0  0  0  0  0
   64.6348   32.5924   49.0605 H   0  0  0  0  0  0  0  0  0  0  0  0
   63.6080   32.8656   50.5399 H   0  0  0  0  0  0  0  0  0  0  0  0
   61.8923   32.0265   48.3925 H   0  0  0  0  0  0  0  0  0  0  0  0
   63.2887   30.8868   48.4904 H   0  0  0  0  0  0  0  0  0  0  0  0
   61.6901   31.3879   52.2656 H   0  0  0  0  0  0  0  0  0  0  0  0
   62.8739   32.5094   51.4718 H   0  0  0  0  0  0  0  0  0  0  0  0
   60.1852   33.0698   51.9847 H   0  0  0  0  0  0  0  0  0  0  0  0
   61.2730   33.9262   50.8001 H   0  0  0  0  0  0  0  0  0  0  0  0
   59.1773   31.0537   51.1304 H   0  0  0  0  0  0  0  0  0  0  0  0
   58.8486   30.9830   49.3555 H   0  0  0  0  0  0  0  0  0  0  0  0
   60.7252   29.4385   50.5958 H   0  0  0  0  0  0  0  0  0  0  0  0
   60.8468   30.0052   48.8718 H   0  0  0  0  0  0  0  0  0  0  0  0
   60.4485   31.3213   47.5315 H   0  0  0  0  0  0  0  0  0  0  0  0
   58.3445   30.3696   46.5996 H   0  0  0  0  0  0  0  0  0  0  0  0
   59.0316   28.7545   44.3047 H   0  0  0  0  0  0  0  0  0  0  0  0
   58.5324   26.3830   45.5145 H   0  0  0  0  0  0  0  0  0  0  0  0
   57.5205   34.1269   44.6002 H   0  0  0  0  0  0  0  0  0  0  0  0
   59.6612   35.0596   45.4734 H   0  0  0  0  0  0  0  0  0  0  0  0
  1  2  2  0
  2  3  1  0
  3  4  1  0
  4  5  1  0
  5  6  1  0
  6  7  1  0
  7  8  1  0
  8  9  1  0
  9 10  1  0
 10 11  1  0
 11 12  1  0
  2 13  1  0
 13 14  2  0
 14 15  1  0
 15 16  2  0
 16 17  1  0
 17 18  1  0
 18 19  2  0
 18 20  1  0
 20 21  2  0
 21 22  1  0
 22 23  2  0
 23 24  1  0
 24 25  2  0
 24 26  1  0
 23 27  1  0
 16 28  1  0
 28 29  2  0
 12  7  1  0
 29 13  1  0
 27 20  1  0
  3 30  1  0
  4 31  1  0
  4 32  1  0
  5 33  1  0
  5 34  1  0
  6 35  1  0
  6 36  1  0
  8 37  1  0
  8 38  1  0
  9 39  1  0
  9 40  1  0
 11 41  1  0
 11 42  1  0
 12 43  1  0
 12 44  1  0
 14 45  1  0
 15 46  1  0
 21 47  1  0
 22 48  1  0
 28 49  1  0
 29 50  1  0
M  CHG  3  17  -1  24   1  26  -1
M  END
>  <UniqueID>  (49) 
44

>  <SMILES>  (49) 
O=C(NCCCN1CCOCC1)c1ccc([N-]C(=O)c2ccc([N+](=O)[O-])o2)cc1

>  <Energy>  (49) 
89.4912909757784

>  <Genealogy>  (49) 
O=C(NCCCN1CCOCC1)c1ccc([N-]C(=O)c2ccc([N+](=O)[O-])o2)cc1 (protonated)
O=C(NCCCN1CCOCC1)c1ccc([N-]C(=O)c2ccc([N+](=O)[O-])o2)cc1 (3D coordinates assigned)
O=C(NCCCN1CCOCC1)c1ccc([N-]C(=O)c2ccc([N+](=O)[O-])o2)cc1 (nonaromatic ring conformer: 89.4912909757784 kcal/mol)

>  <smiles>  (49) 
O=C(NCCCN1CCOCC1)c1ccc(NC(=O)c2ccc([N+](=O)[O-])o2)cc1

>  <score_type>  (49) 
oracle

>  <origin>  (49) 
adg

>  <m_score__min__energy>  (49) 
-10.17

>  <m_primary>  (49) 
energy

$$$$
49:0
     RDKit          3D

 67 70  0  0  1  0  0  0  0  0999 V2000
   59.4930   35.1680   45.9930 C   0  0  0  0  0  0  0  0  0  0  0  0
   59.9460   33.8240   45.8470 O   0  0  0  0  0  0  0  0  0  0  0  0
   61.0390   33.3870   46.5830 C   0  0  0  0  0  0  0  0  0  0  0  0
   62.1950   34.1380   46.7170 C   0  0  0  0  0  0  0  0  0  0  0  0
   63.2790   33.6980   47.4520 C   0  0  0  0  0  0  0  0  0  0  0  0
   63.2030   32.4680   48.0690 C   0  0  0  0  0  0  0  0  0  0  0  0
   62.0510   31.7230   47.9320 C   0  0  0  0  0  0  0  0  0  0  0  0
   60.9650   32.1580   47.2010 C   0  0  0  0  0  0  0  0  0  0  0  0
   59.8290   31.3760   47.0910 O   0  0  0  0  0  0  0  0  0  0  0  0
   60.0440   30.0130   46.8530 C   0  0  0  0  0  0  0  0  0  0  0  0
   59.9020   29.1370   47.9080 C   0  0  0  0  0  0  0  0  0  0  0  0
   60.1090   27.7900   47.6980 C   0  0  0  0  0  0  0  0  0  0  0  0
   60.4580   27.2800   46.4450 C   0  0  0  0  0  0  0  0  0  0  0  0
   60.6550   25.8350   46.3250 C   0  0  0  0  0  0  0  0  0  0  0  0
   59.4440   25.0610   46.2000 N   0  0  0  0  0  0  0  0  0  0  0  0
   58.1620   25.6180   46.4990 C   0  0  0  0  0  0  0  0  0  0  0  0
   57.7970   26.7040   45.5760 C   0  0  0  0  0  0  0  0  0  0  0  0
   57.0850   27.7830   46.0570 C   0  0  0  0  0  0  0  0  0  0  0  0
   56.7220   28.8300   45.2070 C   0  0  0  0  0  0  0  0  0  0  0  0
   57.0280   28.8820   43.8870 C   0  0  0  0  0  0  0  0  0  0  0  0
   56.8610   29.9260   42.9280 C   0  0  0  0  0  0  0  0  0  0  0  0
   57.1000   31.1970   43.0380 C   0  0  0  0  0  0  0  0  0  0  0  0
   57.4910   31.9220   44.2070 C   0  0  0  0  0  0  0  0  0  0  0  0
   58.8710   32.2480   44.2950 O   0  0  0  0  0  0  0  0  0  0  0  0
   56.8110   32.3220   45.1920 N   0  0  0  0  0  0  0  0  0  0  0  0
   57.3360   32.7490   46.3750 O   0  0  0  0  0  0  0  0  0  0  0  0
   57.7580   27.7630   43.4090 C   0  0  0  0  0  0  0  0  0  0  0  0
   58.1160   26.7310   44.2360 C   0  0  0  0  0  0  0  0  0  0  0  0
   59.5090   23.6930   45.7660 C   0  0  0  0  0  0  0  0  0  0  0  0
   60.5510   23.1660   45.3230 O   0  0  0  0  0  0  0  0  0  0  0  0
   58.3490   22.8420   45.8230 N   0  0  0  0  0  0  0  0  0  0  0  0
   57.6650   22.6250   44.7440 C   0  0  0  0  0  0  0  0  0  0  0  0
   56.8130   23.5670   44.2160 C   0  0  0  0  0  0  0  0  0  0  0  0
   56.1230   23.2430   43.0540 C   0  0  0  0  0  0  0  0  0  0  0  0
   56.2720   22.0130   42.4290 C   0  0  0  0  0  0  0  0  0  0  0  0
   57.1440   21.1270   43.0240 C   0  0  0  0  0  0  0  0  0  0  0  0
   57.8180   21.4300   44.1480 N   0  0  0  0  0  0  0  0  0  0  0  0
   60.5900   28.1880   45.4160 C   0  0  0  0  0  0  0  0  0  0  0  0
   60.3910   29.5450   45.5860 C   0  0  0  0  0  0  0  0  0  0  0  0
   59.4104   35.4130   47.0622 H   0  0  0  0  0  0  0  0  0  0  0  0
   60.2106   35.8508   45.5147 H   0  0  0  0  0  0  0  0  0  0  0  0
   58.5084   35.2771   45.5147 H   0  0  0  0  0  0  0  0  0  0  0  0
   62.2520   35.1183   46.2213 H   0  0  0  0  0  0  0  0  0  0  0  0
   64.1840   34.3166   47.5428 H   0  0  0  0  0  0  0  0  0  0  0  0
   64.0479   32.0868   48.6613 H   0  0  0  0  0  0  0  0  0  0  0  0
   61.9956   30.7416   48.4258 H   0  0  0  0  0  0  0  0  0  0  0  0
   59.6267   29.5084   48.9061 H   0  0  0  0  0  0  0  0  0  0  0  0
   59.9958   27.0953   48.5434 H   0  0  0  0  0  0  0  0  0  0  0  0
   61.2725   25.6480   45.4341 H   0  0  0  0  0  0  0  0  0  0  0  0
   61.1301   25.5115   47.2629 H   0  0  0  0  0  0  0  0  0  0  0  0
   57.4052   24.8230   46.4270 H   0  0  0  0  0  0  0  0  0  0  0  0
   58.2061   26.0392   47.5142 H   0  0  0  0  0  0  0  0  0  0  0  0
   56.8007   27.8191   47.1190 H   0  0  0  0  0  0  0  0  0  0  0  0
   56.1509   29.6665   45.6360 H   0  0  0  0  0  0  0  0  0  0  0  0
   56.4718   29.6057   41.9503 H   0  0  0  0  0  0  0  0  0  0  0  0
   56.9879   31.7898   42.1182 H   0  0  0  0  0  0  0  0  0  0  0  0
   59.2550   32.4150   45.2440 H   0  0  0  0  0  0  0  0  0  0  0  0
   58.3000   32.7950   46.6110 H   0  0  0  0  0  0  0  0  0  0  0  0
   58.0437   27.7231   42.3475 H   0  0  0  0  0  0  0  0  0  0  0  0
   58.6820   25.8884   43.8122 H   0  0  0  0  0  0  0  0  0  0  0  0
   56.6818   24.5467   44.6987 H   0  0  0  0  0  0  0  0  0  0  0  0
   55.4379   23.9841   42.6164 H   0  0  0  0  0  0  0  0  0  0  0  0
   55.7243   21.7592   41.5094 H   0  0  0  0  0  0  0  0  0  0  0  0
   57.2939   20.1389   42.5643 H   0  0  0  0  0  0  0  0  0  0  0  0
   58.4550   20.6850   44.5180 H   0  0  0  0  0  0  0  0  0  0  0  0
   60.8653   27.8168   44.4178 H   0  0  0  0  0  0  0  0  0  0  0  0
   60.5038   30.2402   44.7410 H   0  0  0  0  0  0  0  0  0  0  0  0
  1  2  1  0
  2  3  1  0
  3  4  2  0
  4  5  1  0
  5  6  2  0
  6  7  1  0
  7  8  2  0
  8  9  1  0
  9 10  1  0
 10 11  2  0
 11 12  1  0
 12 13  2  0
 13 14  1  0
 14 15  1  0
 15 16  1  0
 16 17  1  0
 17 18  2  0
 18 19  1  0
 19 20  2  0
 20 21  1  0
 21 22  2  0
 22 23  1  0
 23 24  1  0
 23 25  2  0
 25 26  1  0
 20 27  1  0
 27 28  2  0
 15 29  1  0
 29 30  2  0
 29 31  1  0
 31 32  2  0
 32 33  1  0
 33 34  2  0
 34 35  1  0
 35 36  2  0
 36 37  1  0
 13 38  1  0
 38 39  2  0
  8  3  1  0
 39 10  1  0
 28 17  1  0
 37 32  1  0
  1 40  1  0
  1 41  1  0
  1 42  1  0
  4 43  1  0
  5 44  1  0
  6 45  1  0
  7 46  1  0
 11 47  1  0
 12 48  1  0
 14 49  1  0
 14 50  1  0
 16 51  1  0
 16 52  1  0
 18 53  1  0
 19 54  1  0
 21 55  1  0
 22 56  1  0
 24 57  1  0
 26 58  1  0
 27 59  1  0
 28 60  1  0
 33 61  1  0
 34 62  1  0
 35 63  1  0
 36 64  1  0
 37 65  1  0
 38 66  1  0
 39 67  1  0
M  END
>  <smiles>  (50) 
COc1ccccc1Oc1ccc(CN(Cc2ccc(C=CC(O)=NO)cc2)C(=O)N=c2cccc[nH]2)cc1

>  <score_type>  (50) 
oracle

>  <origin>  (50) 
adg

>  <m_score__min__energy>  (50) 
-10.460000000000001

>  <m_primary>  (50) 
energy

$$$$
50:0
     RDKit          3D

 46 48  0  0  0  0  0  0  0  0999 V2000
   57.5400   28.7500   43.7110 N   0  0  0  0  0  0  0  0  0  0  0  0
   56.8800   30.2820   44.1670 S   0  0  0  0  0  0  0  0  0  0  0  0
   55.4260   30.1210   44.5140 O   0  0  0  0  0  0  0  0  0  0  0  0
   56.9970   31.2410   43.0160 O   0  0  0  0  0  0  0  0  0  0  0  0
   57.7640   30.9140   45.5520 C   0  0  0  0  0  0  0  0  0  0  0  0
   57.8850   32.2960   45.7480 C   0  0  0  0  0  0  0  0  0  0  0  0
   58.5850   32.7920   46.8510 C   0  0  0  0  0  0  0  0  0  0  0  0
   59.1590   31.9070   47.7860 C   0  0  0  0  0  0  0  0  0  0  0  0
   59.8510   32.3510   48.9250 O   0  0  0  0  0  0  0  0  0  0  0  0
   59.2770   33.0890   50.0050 C   0  0  0  0  0  0  0  0  0  0  0  0
   58.6670   32.1570   51.0160 C   0  0  0  0  0  0  0  0  0  0  0  0
   57.6330   32.5930   51.8580 C   0  0  0  0  0  0  0  0  0  0  0  0
   56.9980   31.6930   52.7170 C   0  0  0  0  0  0  0  0  0  0  0  0
   57.3900   30.3460   52.7500 C   0  0  0  0  0  0  0  0  0  0  0  0
   56.6450   29.3670   53.5720 C   0  0  0  0  0  0  0  0  0  0  0  0
   57.1490   28.9530   54.6490 O   0  0  0  0  0  0  0  0  0  0  0  0
   55.3450   28.8970   53.1880 N   0  0  0  0  0  0  0  0  0  0  0  0
   54.2800   29.7080   52.6680 C   0  0  0  0  0  0  0  0  0  0  0  0
   54.3450   30.2760   51.3840 C   0  0  0  0  0  0  0  0  0  0  0  0
   53.3020   31.0770   50.9120 C   0  0  0  0  0  0  0  0  0  0  0  0
   52.1640   31.3050   51.7060 C   0  0  0  0  0  0  0  0  0  0  0  0
   51.0590   32.1560   51.2140 C   0  0  0  0  0  0  0  0  0  0  0  0
   50.2780   32.7240   52.0220 O   0  0  0  0  0  0  0  0  0  0  0  0
   50.8670   32.3410   49.8490 O   0  0  0  0  0  0  0  0  0  0  0  0
   52.0880   30.7040   52.9750 C   0  0  0  0  0  0  0  0  0  0  0  0
   53.1360   29.9070   53.4470 C   0  0  0  0  0  0  0  0  0  0  0  0
   58.4700   29.9250   51.9590 C   0  0  0  0  0  0  0  0  0  0  0  0
   59.1010   30.8240   51.0930 C   0  0  0  0  0  0  0  0  0  0  0  0
   59.0370   30.5280   47.5800 C   0  0  0  0  0  0  0  0  0  0  0  0
   58.3410   30.0320   46.4740 C   0  0  0  0  0  0  0  0  0  0  0  0
   56.7400   28.1540   43.3990 H   0  0  0  0  0  0  0  0  0  0  0  0
   58.1380   28.9130   42.8710 H   0  0  0  0  0  0  0  0  0  0  0  0
   57.4272   32.9932   45.0309 H   0  0  0  0  0  0  0  0  0  0  0  0
   58.6886   33.8782   46.9903 H   0  0  0  0  0  0  0  0  0  0  0  0
   60.0614   33.6873   50.4916 H   0  0  0  0  0  0  0  0  0  0  0  0
   58.4897   33.7463   49.6073 H   0  0  0  0  0  0  0  0  0  0  0  0
   57.3211   33.6477   51.8417 H   0  0  0  0  0  0  0  0  0  0  0  0
   56.1858   32.0422   53.3715 H   0  0  0  0  0  0  0  0  0  0  0  0
   55.2221   30.0888   50.7470 H   0  0  0  0  0  0  0  0  0  0  0  0
   53.3715   31.5321   49.9130 H   0  0  0  0  0  0  0  0  0  0  0  0
   51.1976   30.8619   53.6013 H   0  0  0  0  0  0  0  0  0  0  0  0
   53.0598   29.4338   54.4371 H   0  0  0  0  0  0  0  0  0  0  0  0
   58.8215   28.8845   52.0202 H   0  0  0  0  0  0  0  0  0  0  0  0
   59.9413   30.4850   50.4693 H   0  0  0  0  0  0  0  0  0  0  0  0
   59.4932   29.8279   48.2953 H   0  0  0  0  0  0  0  0  0  0  0  0
   58.2463   28.9459   46.3275 H   0  0  0  0  0  0  0  0  0  0  0  0
  1  2  1  0
  2  3  2  0
  2  4  2  0
  2  5  1  0
  5  6  2  0
  6  7  1  0
  7  8  2  0
  8  9  1  0
  9 10  1  0
 10 11  1  0
 11 12  2  0
 12 13  1  0
 13 14  2  0
 14 15  1  0
 15 16  2  0
 15 17  1  0
 17 18  1  0
 18 19  2  0
 19 20  1  0
 20 21  2  0
 21 22  1  0
 22 23  2  0
 22 24  1  0
 21 25  1  0
 25 26  2  0
 14 27  1  0
 27 28  2  0
  8 29  1  0
 29 30  2  0
 30  5  1  0
 28 11  1  0
 26 18  1  0
  1 31  1  0
  1 32  1  0
  6 33  1  0
  7 34  1  0
 10 35  1  0
 10 36  1  0
 12 37  1  0
 13 38  1  0
 19 39  1  0
 20 40  1  0
 25 41  1  0
 26 42  1  0
 27 43  1  0
 28 44  1  0
 29 45  1  0
 30 46  1  0
M  CHG  2  17  -1  24  -1
M  END
>  <UniqueID>  (51) 
45

>  <SMILES>  (51) 
NS(=O)(=O)c1ccc(OCc2ccc(C(=O)[N-]c3ccc(C(=O)[O-])cc3)cc2)cc1

>  <Energy>  (51) 
52.529376875199354

>  <Genealogy>  (51) 
NS(=O)(=O)c1ccc(OCc2ccc(C(=O)[N-]c3ccc(C(=O)[O-])cc3)cc2)cc1 (protonated)
NS(=O)(=O)c1ccc(OCc2ccc(C(=O)[N-]c3ccc(C(=O)[O-])cc3)cc2)cc1 (3D coordinates assigned)
NS(=O)(=O)c1ccc(OCc2ccc(C(=O)[N-]c3ccc(C(=O)[O-])cc3)cc2)cc1 (optimized conformer: 52.529376875199354 kcal/mol)

>  <smiles>  (51) 
NS(=O)(=O)c1ccc(OCc2ccc(C(=O)Nc3ccc(C(=O)O)cc3)cc2)cc1

>  <score_type>  (51) 
oracle

>  <origin>  (51) 
adg

>  <m_score__min__energy>  (51) 
-13.83

>  <m_primary>  (51) 
energy

$$$$
51:0
     RDKit          3D

 57 60  0  0  0  0  0  0  0  0999 V2000
   62.2950   30.8550   50.2440 C   0  0  0  0  0  0  0  0  0  0  0  0
   61.0270   31.2190   49.7090 O   0  0  0  0  0  0  0  0  0  0  0  0
   59.8770   31.4800   50.4760 C   0  0  0  0  0  0  0  0  0  0  0  0
   58.9890   30.4500   50.8420 C   0  0  0  0  0  0  0  0  0  0  0  0
   57.8310   30.7270   51.5910 C   0  0  0  0  0  0  0  0  0  0  0  0
   56.8880   29.7390   51.9240 O   0  0  0  0  0  0  0  0  0  0  0  0
   56.0700   29.7410   53.0940 C   0  0  0  0  0  0  0  0  0  0  0  0
   54.6140   29.6080   52.7270 C   0  0  0  0  0  0  0  0  0  0  0  0
   53.8890   28.4750   53.1340 C   0  0  0  0  0  0  0  0  0  0  0  0
   52.5320   28.3560   52.8150 C   0  0  0  0  0  0  0  0  0  0  0  0
   51.8900   29.3630   52.0880 C   0  0  0  0  0  0  0  0  0  0  0  0
   52.6060   30.4920   51.6710 C   0  0  0  0  0  0  0  0  0  0  0  0
   51.9470   31.5340   50.9230 C   0  0  0  0  0  0  0  0  0  0  0  0
   51.4150   32.3720   50.3250 N   0  0  0  0  0  0  0  0  0  0  0  0
   53.9670   30.6110   51.9840 C   0  0  0  0  0  0  0  0  0  0  0  0
   57.5960   32.0340   52.0200 C   0  0  0  0  0  0  0  0  0  0  0  0
   58.4720   33.0640   51.6720 C   0  0  0  0  0  0  0  0  0  0  0  0
   59.6040   32.8060   50.8830 C   0  0  0  0  0  0  0  0  0  0  0  0
   60.4750   33.9610   50.4340 C   0  0  0  0  0  0  0  0  0  0  0  0
   60.8440   33.8080   49.0050 N   0  0  0  0  0  0  0  0  0  0  0  0
   62.1810   33.9130   48.6860 C   0  0  0  0  0  0  0  0  0  0  0  0
   63.0390   34.1530   49.5800 O   0  0  0  0  0  0  0  0  0  0  0  0
   62.6230   33.7560   47.3750 C   0  0  0  0  0  0  0  0  0  0  0  0
   61.7160   33.4880   46.3650 C   0  0  0  0  0  0  0  0  0  0  0  0
   60.3610   33.3640   46.6630 C   0  0  0  0  0  0  0  0  0  0  0  0
   59.4530   33.0710   45.6360 C   0  0  0  0  0  0  0  0  0  0  0  0
   58.0870   32.9220   45.9130 C   0  0  0  0  0  0  0  0  0  0  0  0
   57.1290   32.6010   44.8950 N   0  0  0  0  0  0  0  0  0  0  0  0
   56.9790   31.0660   44.0970 S   0  0  0  0  0  0  0  0  0  0  0  0
   58.3220   29.9920   44.5700 C   0  0  0  0  0  0  0  0  0  0  0  0
   56.9660   31.2560   42.6050 O   0  0  0  0  0  0  0  0  0  0  0  0
   55.6820   30.4260   44.5150 O   0  0  0  0  0  0  0  0  0  0  0  0
   57.6390   33.0760   47.2240 C   0  0  0  0  0  0  0  0  0  0  0  0
   58.5320   33.3640   48.2590 C   0  0  0  0  0  0  0  0  0  0  0  0
   59.9190   33.5210   48.0070 C   0  0  0  0  0  0  0  0  0  0  0  0
   62.2470   30.8688   51.3429 H   0  0  0  0  0  0  0  0  0  0  0  0
   62.5611   29.8442   49.9013 H   0  0  0  0  0  0  0  0  0  0  0  0
   63.0567   31.5708   49.9013 H   0  0  0  0  0  0  0  0  0  0  0  0
   59.2039   29.4149   50.5380 H   0  0  0  0  0  0  0  0  0  0  0  0
   56.3586   28.8970   53.7377 H   0  0  0  0  0  0  0  0  0  0  0  0
   56.2151   30.6933   53.6251 H   0  0  0  0  0  0  0  0  0  0  0  0
   54.3899   27.6794   53.7051 H   0  0  0  0  0  0  0  0  0  0  0  0
   51.9687   27.4678   53.1370 H   0  0  0  0  0  0  0  0  0  0  0  0
   50.8217   29.2684   51.8434 H   0  0  0  0  0  0  0  0  0  0  0  0
   54.5314   31.4929   51.6469 H   0  0  0  0  0  0  0  0  0  0  0  0
   56.7129   32.2546   52.6377 H   0  0  0  0  0  0  0  0  0  0  0  0
   58.2730   34.0884   52.0198 H   0  0  0  0  0  0  0  0  0  0  0  0
   59.9234   34.9034   50.5666 H   0  0  0  0  0  0  0  0  0  0  0  0
   61.3932   33.9709   51.0397 H   0  0  0  0  0  0  0  0  0  0  0  0
   63.6943   33.8451   47.1420 H   0  0  0  0  0  0  0  0  0  0  0  0
   62.0646   33.3730   45.3280 H   0  0  0  0  0  0  0  0  0  0  0  0
   59.8156   32.9570   44.6038 H   0  0  0  0  0  0  0  0  0  0  0  0
   58.3833   29.9430   45.6672 H   0  0  0  0  0  0  0  0  0  0  0  0
   58.1446   28.9839   44.1673 H   0  0  0  0  0  0  0  0  0  0  0  0
   59.2664   30.3867   44.1673 H   0  0  0  0  0  0  0  0  0  0  0  0
   56.5671   32.9692   47.4467 H   0  0  0  0  0  0  0  0  0  0  0  0
   58.1533   33.4708   49.2862 H   0  0  0  0  0  0  0  0  0  0  0  0
  1  2  1  0
  2  3  1  0
  3  4  2  0
  4  5  1  0
  5  6  1  0
  6  7  1  0
  7  8  1  0
  8  9  2  0
  9 10  1  0
 10 11  2  0
 11 12  1  0
 12 13  1  0
 13 14  3  0
 12 15  2  0
  5 16  2  0
 16 17  1  0
 17 18  2  0
 18 19  1  0
 19 20  1  0
 20 21  1  0
 21 22  2  0
 21 23  1  0
 23 24  2  0
 24 25  1  0
 25 26  2  0
 26 27  1  0
 27 28  1  0
 28 29  1  0
 29 30  1  0
 29 31  2  0
 29 32  2  0
 27 33  2  0
 33 34  1  0
 34 35  2  0
 18  3  1  0
 35 20  1  0
 15  8  1  0
 35 25  1  0
  1 36  1  0
  1 37  1  0
  1 38  1  0
  4 39  1  0
  7 40  1  0
  7 41  1  0
  9 42  1  0
 10 43  1  0
 11 44  1  0
 15 45  1  0
 16 46  1  0
 17 47  1  0
 19 48  1  0
 19 49  1  0
 23 50  1  0
 24 51  1  0
 26 52  1  0
 30 53  1  0
 30 54  1  0
 30 55  1  0
 33 56  1  0
 34 57  1  0
M  CHG  1  28  -1
M  END
>  <UniqueID>  (52) 
46

>  <SMILES>  (52) 
COc1cc(OCc2cccc(C#N)c2)ccc1Cn1c(=O)ccc2cc([N-]S(C)(=O)=O)ccc21

>  <Energy>  (52) 
71.5337413266964

>  <Genealogy>  (52) 
COc1cc(OCc2cccc(C#N)c2)ccc1Cn1c(=O)ccc2cc([N-]S(C)(=O)=O)ccc21 (protonated)
COc1cc(OCc2cccc(C#N)c2)ccc1Cn1c(=O)ccc2cc([N-]S(C)(=O)=O)ccc21 (3D coordinates assigned)
COc1cc(OCc2cccc(C#N)c2)ccc1Cn1c(=O)ccc2cc([N-]S(C)(=O)=O)ccc21 (optimized conformer: 71.5337413266964 kcal/mol)

>  <smiles>  (52) 
COc1cc(OCc2cccc(C#N)c2)ccc1Cn1c(=O)ccc2cc(NS(C)(=O)=O)ccc21

>  <score_type>  (52) 
oracle

>  <origin>  (52) 
adg

>  <m_score__min__energy>  (52) 
-10.960000000000001

>  <m_primary>  (52) 
energy

$$$$
52:0
     RDKit          3D

 61 64  0  0  0  0  0  0  0  0999 V2000
   60.8880   29.4650   50.9640 C   0  0  0  0  0  0  0  0  0  0  0  0
   60.0720   29.6100   49.7120 C   0  0  0  0  0  0  0  0  0  0  0  0
   59.3060   30.7080   49.3360 C   0  0  0  0  0  0  0  0  0  0  0  0
   59.1270   31.9550   50.0160 N   0  0  0  0  0  0  0  0  0  0  0  0
   59.6150   33.2180   49.5550 C   0  0  0  0  0  0  0  0  0  0  0  0
   59.7320   34.1840   50.3550 O   0  0  0  0  0  0  0  0  0  0  0  0
   59.9920   33.3920   48.1330 C   0  0  0  0  0  0  0  0  0  0  0  0
   61.3350   33.3080   47.6930 C   0  0  0  0  0  0  0  0  0  0  0  0
   62.4840   32.9170   48.6210 C   0  0  0  0  0  0  0  0  0  0  0  0
   62.6590   31.3940   48.7150 C   0  0  0  0  0  0  0  0  0  0  0  0
   63.7870   33.5900   48.1780 C   0  0  0  0  0  0  0  0  0  0  0  0
   61.6030   33.6000   46.3480 C   0  0  0  0  0  0  0  0  0  0  0  0
   60.5930   33.8820   45.4880 N   0  0  0  0  0  0  0  0  0  0  0  0
   59.3150   33.9140   45.8830 N   0  0  0  0  0  0  0  0  0  0  0  0
   58.2660   34.1930   44.8880 C   0  0  0  0  0  0  0  0  0  0  0  0
   57.8230   32.9240   44.2030 C   0  0  0  0  0  0  0  0  0  0  0  0
   57.0960   31.9510   44.9130 C   0  0  0  0  0  0  0  0  0  0  0  0
   56.6630   30.7870   44.2700 C   0  0  0  0  0  0  0  0  0  0  0  0
   56.9490   30.5850   42.9160 C   0  0  0  0  0  0  0  0  0  0  0  0
   57.6620   31.5530   42.2000 C   0  0  0  0  0  0  0  0  0  0  0  0
   58.0910   32.7210   42.8370 C   0  0  0  0  0  0  0  0  0  0  0  0
   58.9860   33.6820   47.1920 C   0  0  0  0  0  0  0  0  0  0  0  0
   57.7790   33.7460   47.5600 O   0  0  0  0  0  0  0  0  0  0  0  0
   58.8520   30.4110   48.0740 C   0  0  0  0  0  0  0  0  0  0  0  0
   58.1580   31.1710   47.3440 O   0  0  0  0  0  0  0  0  0  0  0  0
   59.2770   29.1820   47.7180 N   0  0  0  0  0  0  0  0  0  0  0  0
   59.0040   28.5290   46.4650 C   0  0  0  0  0  0  0  0  0  0  0  0
   59.7760   28.8280   45.3310 C   0  0  0  0  0  0  0  0  0  0  0  0
   59.5180   28.1910   44.1120 C   0  0  0  0  0  0  0  0  0  0  0  0
   58.4930   27.2460   44.0210 C   0  0  0  0  0  0  0  0  0  0  0  0
   57.7270   26.9330   45.1480 C   0  0  0  0  0  0  0  0  0  0  0  0
   57.9840   27.5670   46.3690 C   0  0  0  0  0  0  0  0  0  0  0  0
   60.0000   28.6850   48.7200 N   0  0  0  0  0  0  0  0  0  0  0  0
   60.6320   27.3640   48.7340 C   0  0  0  0  0  0  0  0  0  0  0  0
   60.2358   29.5809   51.8422 H   0  0  0  0  0  0  0  0  0  0  0  0
   61.3559   28.4696   50.9835 H   0  0  0  0  0  0  0  0  0  0  0  0
   61.6701   30.2382   50.9835 H   0  0  0  0  0  0  0  0  0  0  0  0
   62.2276   33.2747   49.6291 H   0  0  0  0  0  0  0  0  0  0  0  0
   62.6935   31.0935   49.7726 H   0  0  0  0  0  0  0  0  0  0  0  0
   61.8121   30.8964   48.2199 H   0  0  0  0  0  0  0  0  0  0  0  0
   63.5967   31.1014   48.2199 H   0  0  0  0  0  0  0  0  0  0  0  0
   64.3653   33.8887   49.0648 H   0  0  0  0  0  0  0  0  0  0  0  0
   64.3778   32.8843   47.5756 H   0  0  0  0  0  0  0  0  0  0  0  0
   63.5535   34.4803   47.5756 H   0  0  0  0  0  0  0  0  0  0  0  0
   62.6421   33.6003   45.9871 H   0  0  0  0  0  0  0  0  0  0  0  0
   60.8430   34.0690   44.4900 H   0  0  0  0  0  0  0  0  0  0  0  0
   57.4024   34.6498   45.3935 H   0  0  0  0  0  0  0  0  0  0  0  0
   58.6737   34.8779   44.1299 H   0  0  0  0  0  0  0  0  0  0  0  0
   56.8673   32.1064   45.9777 H   0  0  0  0  0  0  0  0  0  0  0  0
   56.0963   30.0288   44.8304 H   0  0  0  0  0  0  0  0  0  0  0  0
   56.6136   29.6655   42.4141 H   0  0  0  0  0  0  0  0  0  0  0  0
   57.8852   31.3946   41.1346 H   0  0  0  0  0  0  0  0  0  0  0  0
   58.6407   33.4849   42.2675 H   0  0  0  0  0  0  0  0  0  0  0  0
   60.5879   29.5669   45.4011 H   0  0  0  0  0  0  0  0  0  0  0  0
   60.1222   28.4343   43.2255 H   0  0  0  0  0  0  0  0  0  0  0  0
   58.2885   26.7478   43.0619 H   0  0  0  0  0  0  0  0  0  0  0  0
   56.9214   26.1876   45.0749 H   0  0  0  0  0  0  0  0  0  0  0  0
   57.3859   27.3116   47.2561 H   0  0  0  0  0  0  0  0  0  0  0  0
   60.7860   27.0422   49.7746 H   0  0  0  0  0  0  0  0  0  0  0  0
   59.9822   26.6412   48.2190 H   0  0  0  0  0  0  0  0  0  0  0  0
   61.6026   27.4164   48.2190 H   0  0  0  0  0  0  0  0  0  0  0  0
  1  2  1  0
  2  3  2  0
  3  4  1  0
  4  5  1  0
  5  6  2  0
  5  7  1  0
  7  8  2  0
  8  9  1  0
  9 10  1  0
  9 11  1  0
  8 12  1  0
 12 13  2  0
 13 14  1  0
 14 15  1  0
 15 16  1  0
 16 17  2  0
 17 18  1  0
 18 19  2  0
 19 20  1  0
 20 21  2  0
 14 22  1  0
 22 23  2  0
  3 24  1  0
 24 25  2  0
 24 26  1  0
 26 27  1  0
 27 28  2  0
 28 29  1  0
 29 30  2  0
 30 31  1  0
 31 32  2  0
 26 33  1  0
 33 34  1  0
 33  2  1  0
 22  7  1  0
 32 27  1  0
 21 16  1  0
  1 35  1  0
  1 36  1  0
  1 37  1  0
  9 38  1  0
 10 39  1  0
 10 40  1  0
 10 41  1  0
 11 42  1  0
 11 43  1  0
 11 44  1  0
 12 45  1  0
 13 46  1  0
 15 47  1  0
 15 48  1  0
 17 49  1  0
 18 50  1  0
 19 51  1  0
 20 52  1  0
 21 53  1  0
 28 54  1  0
 29 55  1  0
 30 56  1  0
 31 57  1  0
 32 58  1  0
 34 59  1  0
 34 60  1  0
 34 61  1  0
M  CHG  2   4  -1  13   1
M  END
>  <UniqueID>  (53) 
47

>  <SMILES>  (53) 
Cc1c([N-]C(=O)c2c(C(C)C)c[nH+]n(Cc3ccccc3)c2=O)c(=O)n(-c2ccccc2)n1C

>  <Energy>  (53) 
117.10011534436705

>  <Genealogy>  (53) 
Cc1c([N-]C(=O)c2c(C(C)C)c[nH+]n(Cc3ccccc3)c2=O)c(=O)n(-c2ccccc2)n1C (protonated)
Cc1c([N-]C(=O)c2c(C(C)C)c[nH+]n(Cc3ccccc3)c2=O)c(=O)n(-c2ccccc2)n1C (3D coordinates assigned)
Cc1c([N-]C(=O)c2c(C(C)C)c[nH+]n(Cc3ccccc3)c2=O)c(=O)n(-c2ccccc2)n1C (optimized conformer: 117.10011534436705 kcal/mol)

>  <smiles>  (53) 
Cc1c(NC(=O)c2c(C(C)C)cnn(Cc3ccccc3)c2=O)c(=O)n(-c2ccccc2)n1C

>  <score_type>  (53) 
oracle

>  <origin>  (53) 
adg

>  <m_score__min__energy>  (53) 
-9.8100000000000005

>  <m_primary>  (53) 
energy

$$$$
53:0
     RDKit          3D

 49 51  0  0  0  0  0  0  0  0999 V2000
   57.1660   25.1870   47.1110 O   0  0  0  0  0  0  0  0  0  0  0  0
   56.6200   26.1110   46.4530 C   0  0  0  0  0  0  0  0  0  0  0  0
   55.1910   26.1380   46.3620 N   0  0  0  0  0  0  0  0  0  0  0  0
   54.3890   25.2050   45.5790 C   0  0  0  0  0  0  0  0  0  0  0  0
   54.6560   23.7700   46.0390 C   0  0  0  0  0  0  0  0  0  0  0  0
   55.1330   22.9090   44.9330 N   0  0  0  0  0  0  0  0  0  0  0  0
   55.8000   23.7340   43.9080 C   0  0  0  0  0  0  0  0  0  0  0  0
   56.2600   22.8530   42.7250 C   0  0  0  0  0  0  0  0  0  0  0  0
   56.1870   21.4690   43.0180 O   0  0  0  0  0  0  0  0  0  0  0  0
   56.8300   21.2080   44.2480 C   0  0  0  0  0  0  0  0  0  0  0  0
   56.0530   21.8530   45.4140 C   0  0  0  0  0  0  0  0  0  0  0  0
   57.4680   27.1300   45.8060 C   0  0  0  0  0  0  0  0  0  0  0  0
   58.8550   26.9280   45.7040 C   0  0  0  0  0  0  0  0  0  0  0  0
   59.6590   27.8760   45.0680 C   0  0  0  0  0  0  0  0  0  0  0  0
   59.0870   29.0230   44.5100 C   0  0  0  0  0  0  0  0  0  0  0  0
   57.7010   29.2210   44.5780 C   0  0  0  0  0  0  0  0  0  0  0  0
   56.9690   30.6490   43.8470 S   0  0  0  0  0  0  0  0  0  0  0  0
   56.7040   30.3520   42.3980 O   0  0  0  0  0  0  0  0  0  0  0  0
   55.6680   30.9780   44.5270 O   0  0  0  0  0  0  0  0  0  0  0  0
   58.0280   32.0220   43.9580 N   0  0  0  0  0  0  0  0  0  0  0  0
   58.3970   32.6320   45.2040 C   0  0  0  0  0  0  0  0  0  0  0  0
   58.1400   31.9450   46.4020 C   0  0  0  0  0  0  0  0  0  0  0  0
   58.4510   32.5260   47.6340 C   0  0  0  0  0  0  0  0  0  0  0  0
   59.0330   33.7950   47.6810 C   0  0  0  0  0  0  0  0  0  0  0  0
   59.3310   34.3590   48.8770 F   0  0  0  0  0  0  0  0  0  0  0  0
   59.3140   34.4790   46.4950 C   0  0  0  0  0  0  0  0  0  0  0  0
   59.0070   33.9020   45.2580 C   0  0  0  0  0  0  0  0  0  0  0  0
   59.3310   34.5700   44.1250 F   0  0  0  0  0  0  0  0  0  0  0  0
   56.8980   28.2760   45.2300 C   0  0  0  0  0  0  0  0  0  0  0  0
   53.3227   25.4385   45.7148 H   0  0  0  0  0  0  0  0  0  0  0  0
   54.6597   25.2997   44.5170 H   0  0  0  0  0  0  0  0  0  0  0  0
   55.4207   23.7877   46.8296 H   0  0  0  0  0  0  0  0  0  0  0  0
   53.7083   23.3515   46.4088 H   0  0  0  0  0  0  0  0  0  0  0  0
   55.0962   24.4955   43.5409 H   0  0  0  0  0  0  0  0  0  0  0  0
   56.6800   24.2184   44.3562 H   0  0  0  0  0  0  0  0  0  0  0  0
   55.6176   23.0641   41.8574 H   0  0  0  0  0  0  0  0  0  0  0  0
   57.3127   23.0954   42.5177 H   0  0  0  0  0  0  0  0  0  0  0  0
   56.8814   20.1206   44.4055 H   0  0  0  0  0  0  0  0  0  0  0  0
   57.8428   21.6361   44.2167 H   0  0  0  0  0  0  0  0  0  0  0  0
   55.4681   21.0757   45.9274 H   0  0  0  0  0  0  0  0  0  0  0  0
   56.7789   22.3133   46.1004 H   0  0  0  0  0  0  0  0  0  0  0  0
   59.3090   26.0196   46.1268 H   0  0  0  0  0  0  0  0  0  0  0  0
   60.7461   27.7198   45.0058 H   0  0  0  0  0  0  0  0  0  0  0  0
   59.7253   29.7710   44.0170 H   0  0  0  0  0  0  0  0  0  0  0  0
   58.5950   32.2470   43.1090 H   0  0  0  0  0  0  0  0  0  0  0  0
   57.6903   30.9416   46.3699 H   0  0  0  0  0  0  0  0  0  0  0  0
   58.2375   31.9840   48.5671 H   0  0  0  0  0  0  0  0  0  0  0  0
   59.7785   35.4753   46.5343 H   0  0  0  0  0  0  0  0  0  0  0  0
   55.8111   28.4336   45.2910 H   0  0  0  0  0  0  0  0  0  0  0  0
  1  2  2  0
  2  3  1  0
  3  4  1  0
  4  5  1  0
  5  6  1  0
  6  7  1  0
  7  8  1  0
  8  9  1  0
  9 10  1  0
 10 11  1  0
  2 12  1  0
 12 13  2  0
 13 14  1  0
 14 15  2  0
 15 16  1  0
 16 17  1  0
 17 18  2  0
 17 19  2  0
 17 20  1  0
 20 21  1  0
 21 22  2  0
 22 23  1  0
 23 24  2  0
 24 25  1  0
 24 26  1  0
 26 27  2  0
 27 28  1  0
 16 29  2  0
 11  6  1  0
 29 12  1  0
 27 21  1  0
  4 30  1  0
  4 31  1  0
  5 32  1  0
  5 33  1  0
  7 34  1  0
  7 35  1  0
  8 36  1  0
  8 37  1  0
 10 38  1  0
 10 39  1  0
 11 40  1  0
 11 41  1  0
 13 42  1  0
 14 43  1  0
 15 44  1  0
 20 45  1  0
 22 46  1  0
 23 47  1  0
 26 48  1  0
 29 49  1  0
M  CHG  1   3  -1
M  END
>  <UniqueID>  (54) 
48

>  <SMILES>  (54) 
O=C([N-]CCN1CCOCC1)c1cccc(S(=O)(=O)Nc2ccc(F)cc2F)c1

>  <Energy>  (54) 
65.89641034224015

>  <Genealogy>  (54) 
O=C([N-]CCN1CCOCC1)c1cccc(S(=O)(=O)Nc2ccc(F)cc2F)c1 (protonated)
O=C([N-]CCN1CCOCC1)c1cccc(S(=O)(=O)Nc2ccc(F)cc2F)c1 (3D coordinates assigned)
O=C([N-]CCN1CCOCC1)c1cccc(S(=O)(=O)Nc2ccc(F)cc2F)c1 (nonaromatic ring conformer: 65.89641034224015 kcal/mol)

>  <smiles>  (54) 
O=C(NCCN1CCOCC1)c1cccc(S(=O)(=O)Nc2ccc(F)cc2F)c1

>  <score_type>  (54) 
oracle

>  <origin>  (54) 
adg

>  <m_score__min__energy>  (54) 
-11.539999999999999

>  <m_primary>  (54) 
energy

$$$$
54:0
     RDKit          3D

 48 51  0  0  0  0  0  0  0  0999 V2000
   61.2610   29.4250   49.6720 C   0  0  0  0  0  0  0  0  0  0  0  0
   60.2830   29.2420   48.5490 C   0  0  0  0  0  0  0  0  0  0  0  0
   60.6320   29.5700   47.2340 C   0  0  0  0  0  0  0  0  0  0  0  0
   59.7280   29.3540   46.1930 C   0  0  0  0  0  0  0  0  0  0  0  0
   58.4700   28.7980   46.4750 C   0  0  0  0  0  0  0  0  0  0  0  0
   57.5090   28.5610   45.4250 N   0  0  0  0  0  0  0  0  0  0  0  0
   57.5970   27.3500   44.5900 C   0  0  0  0  0  0  0  0  0  0  0  0
   57.4110   26.1100   45.4330 C   0  0  0  0  0  0  0  0  0  0  0  0
   58.4780   25.2050   45.5660 C   0  0  0  0  0  0  0  0  0  0  0  0
   58.3460   24.0670   46.3660 C   0  0  0  0  0  0  0  0  0  0  0  0
   57.1470   23.8190   47.0390 C   0  0  0  0  0  0  0  0  0  0  0  0
   56.0760   24.7080   46.9100 C   0  0  0  0  0  0  0  0  0  0  0  0
   56.2000   25.8510   46.1100 C   0  0  0  0  0  0  0  0  0  0  0  0
   55.1180   26.7180   45.9980 O   0  0  0  0  0  0  0  0  0  0  0  0
   56.4830   29.5710   45.1240 C   0  0  0  0  0  0  0  0  0  0  0  0
   57.0600   30.6780   44.2660 C   0  0  0  0  0  0  0  0  0  0  0  0
   56.9390   30.5670   42.8700 C   0  0  0  0  0  0  0  0  0  0  0  0
   57.4070   31.5730   42.0260 C   0  0  0  0  0  0  0  0  0  0  0  0
   58.0020   32.7140   42.5570 C   0  0  0  0  0  0  0  0  0  0  0  0
   58.1390   32.8600   43.9440 C   0  0  0  0  0  0  0  0  0  0  0  0
   58.7400   34.0150   44.4700 C   0  0  0  0  0  0  0  0  0  0  0  0
   58.8830   34.1700   45.8480 C   0  0  0  0  0  0  0  0  0  0  0  0
   58.4350   33.1740   46.7140 C   0  0  0  0  0  0  0  0  0  0  0  0
   57.8370   32.0170   46.2090 C   0  0  0  0  0  0  0  0  0  0  0  0
   57.6710   31.8390   44.8180 C   0  0  0  0  0  0  0  0  0  0  0  0
   58.1620   28.4660   47.7600 N   0  0  0  0  0  0  0  0  0  0  0  0
   59.0280   28.6670   48.7880 C   0  0  0  0  0  0  0  0  0  0  0  0
   60.7370   29.3270   50.6342 H   0  0  0  0  0  0  0  0  0  0  0  0
   62.0467   28.6583   49.6026 H   0  0  0  0  0  0  0  0  0  0  0  0
   61.7163   30.4239   49.6026 H   0  0  0  0  0  0  0  0  0  0  0  0
   61.6219   29.9994   47.0203 H   0  0  0  0  0  0  0  0  0  0  0  0
   59.9989   29.6172   45.1599 H   0  0  0  0  0  0  0  0  0  0  0  0
   56.8131   27.3843   43.8191 H   0  0  0  0  0  0  0  0  0  0  0  0
   58.5908   27.3141   44.1197 H   0  0  0  0  0  0  0  0  0  0  0  0
   59.4236   25.3938   45.0367 H   0  0  0  0  0  0  0  0  0  0  0  0
   59.1873   23.3654   46.4661 H   0  0  0  0  0  0  0  0  0  0  0  0
   57.0458   22.9240   47.6705 H   0  0  0  0  0  0  0  0  0  0  0  0
   55.1322   24.5091   47.4388 H   0  0  0  0  0  0  0  0  0  0  0  0
   55.6516   29.0924   44.5857 H   0  0  0  0  0  0  0  0  0  0  0  0
   56.1247   30.0051   46.0691 H   0  0  0  0  0  0  0  0  0  0  0  0
   56.4677   29.6725   42.4368 H   0  0  0  0  0  0  0  0  0  0  0  0
   57.3057   31.4648   40.9360 H   0  0  0  0  0  0  0  0  0  0  0  0
   58.3663   33.5047   41.8847 H   0  0  0  0  0  0  0  0  0  0  0  0
   59.1000   34.8019   43.7909 H   0  0  0  0  0  0  0  0  0  0  0  0
   59.3502   35.0799   46.2526 H   0  0  0  0  0  0  0  0  0  0  0  0
   58.5529   33.2997   47.8004 H   0  0  0  0  0  0  0  0  0  0  0  0
   57.4916   31.2360   46.9024 H   0  0  0  0  0  0  0  0  0  0  0  0
   58.7428   28.3775   49.8102 H   0  0  0  0  0  0  0  0  0  0  0  0
  1  2  1  0
  2  3  2  0
  3  4  1  0
  4  5  2  0
  5  6  1  0
  6  7  1  0
  7  8  1  0
  8  9  2  0
  9 10  1  0
 10 11  2  0
 11 12  1  0
 12 13  2  0
 13 14  1  0
  6 15  1  0
 15 16  1  0
 16 17  2  0
 17 18  1  0
 18 19  2  0
 19 20  1  0
 20 21  2  0
 21 22  1  0
 22 23  2  0
 23 24  1  0
 24 25  2  0
  5 26  1  0
 26 27  2  0
 27  2  1  0
 13  8  1  0
 25 16  1  0
 25 20  1  0
  1 28  1  0
  1 29  1  0
  1 30  1  0
  3 31  1  0
  4 32  1  0
  7 33  1  0
  7 34  1  0
  9 35  1  0
 10 36  1  0
 11 37  1  0
 12 38  1  0
 15 39  1  0
 15 40  1  0
 17 41  1  0
 18 42  1  0
 19 43  1  0
 21 44  1  0
 22 45  1  0
 23 46  1  0
 24 47  1  0
 27 48  1  0
M  CHG  1  14  -1
M  END
>  <UniqueID>  (55) 
49

>  <SMILES>  (55) 
Cc1ccc(N(Cc2ccccc2[O-])Cc2cccc3ccccc23)nc1

>  <Energy>  (55) 
59.14989864019531

>  <Genealogy>  (55) 
Cc1ccc(N(Cc2ccccc2[O-])Cc2cccc3ccccc23)nc1 (protonated)
Cc1ccc(N(Cc2ccccc2[O-])Cc2cccc3ccccc23)nc1 (3D coordinates assigned)
Cc1ccc(N(Cc2ccccc2[O-])Cc2cccc3ccccc23)nc1 (optimized conformer: 59.14989864019531 kcal/mol)

>  <smiles>  (55) 
Cc1ccc(N(Cc2ccccc2O)Cc2cccc3ccccc23)nc1

>  <score_type>  (55) 
oracle

>  <origin>  (55) 
adg

>  <m_score__min__energy>  (55) 
-12.029999999999999

>  <m_primary>  (55) 
energy

$$$$
55:0
     RDKit          3D

 36 39  0  0  0  0  0  0  0  0999 V2000
   54.7390   29.1130   54.3760 O   0  0  0  0  0  0  0  0  0  0  0  0
   54.7410   29.8180   53.3320 C   0  0  0  0  0  0  0  0  0  0  0  0
   53.6150   29.7300   52.4430 N   0  0  0  0  0  0  0  0  0  0  0  0
   52.7700   30.6790   52.1490 C   0  0  0  0  0  0  0  0  0  0  0  0
   51.9360   31.1710   53.1610 C   0  0  0  0  0  0  0  0  0  0  0  0
   51.0250   32.1900   52.8780 C   0  0  0  0  0  0  0  0  0  0  0  0
   50.9540   32.7140   51.6250 N   0  0  0  0  0  0  0  0  0  0  0  0
   51.7580   32.2700   50.6230 C   0  0  0  0  0  0  0  0  0  0  0  0
   52.6850   31.2520   50.8620 C   0  0  0  0  0  0  0  0  0  0  0  0
   55.9270   30.6500   53.0110 C   0  0  0  0  0  0  0  0  0  0  0  0
   56.7290   31.1830   54.0340 C   0  0  0  0  0  0  0  0  0  0  0  0
   57.8440   31.9630   53.7230 C   0  0  0  0  0  0  0  0  0  0  0  0
   58.1700   32.2260   52.3890 C   0  0  0  0  0  0  0  0  0  0  0  0
   57.3730   31.7110   51.3530 C   0  0  0  0  0  0  0  0  0  0  0  0
   56.2550   30.9290   51.6730 C   0  0  0  0  0  0  0  0  0  0  0  0
   57.6480   31.9430   49.9960 O   0  0  0  0  0  0  0  0  0  0  0  0
   58.7130   32.6930   49.4690 C   0  0  0  0  0  0  0  0  0  0  0  0
   58.8140   32.8070   48.0740 C   0  0  0  0  0  0  0  0  0  0  0  0
   57.9000   32.2020   47.2750 F   0  0  0  0  0  0  0  0  0  0  0  0
   59.8550   33.5410   47.4980 C   0  0  0  0  0  0  0  0  0  0  0  0
   60.8030   34.1690   48.3090 C   0  0  0  0  0  0  0  0  0  0  0  0
   60.7120   34.0620   49.6980 C   0  0  0  0  0  0  0  0  0  0  0  0
   59.6710   33.3270   50.2810 C   0  0  0  0  0  0  0  0  0  0  0  0
   59.5690   33.2020   52.0190 S   0  0  0  0  0  0  0  0  0  0  0  0
   59.4060   34.5710   52.6170 O   0  0  0  0  0  0  0  0  0  0  0  0
   60.8070   32.5400   52.5540 O   0  0  0  0  0  0  0  0  0  0  0  0
   51.9988   30.7550   54.1773 H   0  0  0  0  0  0  0  0  0  0  0  0
   50.3631   32.5700   53.6701 H   0  0  0  0  0  0  0  0  0  0  0  0
   51.6786   32.7139   49.6197 H   0  0  0  0  0  0  0  0  0  0  0  0
   53.3430   30.9002   50.0538 H   0  0  0  0  0  0  0  0  0  0  0  0
   56.4768   30.9845   55.0861 H   0  0  0  0  0  0  0  0  0  0  0  0
   58.4687   32.3724   54.5306 H   0  0  0  0  0  0  0  0  0  0  0  0
   55.6251   30.5277   50.8654 H   0  0  0  0  0  0  0  0  0  0  0  0
   59.9277   33.6242   46.4036 H   0  0  0  0  0  0  0  0  0  0  0  0
   61.6205   34.7473   47.8537 H   0  0  0  0  0  0  0  0  0  0  0  0
   61.4593   34.5559   50.3364 H   0  0  0  0  0  0  0  0  0  0  0  0
  1  2  2  0
  2  3  1  0
  3  4  2  3
  4  5  1  0
  5  6  2  0
  6  7  1  0
  7  8  1  0
  8  9  2  0
  2 10  1  0
 10 11  2  0
 11 12  1  0
 12 13  2  0
 13 14  1  0
 14 15  2  0
 14 16  1  0
 16 17  1  0
 17 18  2  0
 18 19  1  0
 18 20  1  0
 20 21  2  0
 21 22  1  0
 22 23  2  0
 23 24  1  0
 24 25  2  0
 24 26  2  0
  9  4  1  0
 15 10  1  0
 23 17  1  0
 24 13  1  0
  5 27  1  0
  6 28  1  0
  8 29  1  0
  9 30  1  0
 11 31  1  0
 12 32  1  0
 15 33  1  0
 20 34  1  0
 21 35  1  0
 22 36  1  0
M  CHG  1   7  -1
M  END
>  <UniqueID>  (56) 
50

>  <SMILES>  (56) 
O=C(N=c1cc[n-]cc1)c1ccc2c(c1)Oc1c(F)cccc1S2(=O)=O

>  <Energy>  (56) 
58.691364949646015

>  <Genealogy>  (56) 
O=C(N=c1cc[n-]cc1)c1ccc2c(c1)Oc1c(F)cccc1S2(=O)=O (protonated)
O=C(N=c1cc[n-]cc1)c1ccc2c(c1)Oc1c(F)cccc1S2(=O)=O (3D coordinates assigned)
O=C(N=c1cc[n-]cc1)c1ccc2c(c1)Oc1c(F)cccc1S2(=O)=O (nonaromatic ring conformer: 58.691364949646015 kcal/mol)

>  <smiles>  (56) 
O=C(N=c1cc[nH]cc1)c1ccc2c(c1)Oc1c(F)cccc1S2(=O)=O

>  <score_type>  (56) 
oracle

>  <origin>  (56) 
adg

>  <m_score__min__energy>  (56) 
-9.7799999999999994

>  <m_primary>  (56) 
energy

$$$$
56:0
     RDKit          3D

 49 51  0  0  0  0  0  0  0  0999 V2000
   63.7270   33.1390   49.2560 C   0  0  0  0  0  0  0  0  0  0  0  0
   62.9170   33.1690   48.0350 N   0  0  0  0  0  0  0  0  0  0  0  0
   63.5470   33.4430   46.7390 C   0  0  0  0  0  0  0  0  0  0  0  0
   61.5330   32.7710   48.1040 C   0  0  0  0  0  0  0  0  0  0  0  0
   61.1580   31.9800   49.0130 O   0  0  0  0  0  0  0  0  0  0  0  0
   60.5340   33.2580   47.1290 C   0  0  0  0  0  0  0  0  0  0  0  0
   60.3850   34.6340   46.9050 C   0  0  0  0  0  0  0  0  0  0  0  0
   59.4490   35.0990   45.9790 C   0  0  0  0  0  0  0  0  0  0  0  0
   58.6640   34.1960   45.2590 C   0  0  0  0  0  0  0  0  0  0  0  0
   58.8130   32.8110   45.4520 C   0  0  0  0  0  0  0  0  0  0  0  0
   57.9900   31.8500   44.6750 C   0  0  0  0  0  0  0  0  0  0  0  0
   57.7880   32.0360   43.2970 C   0  0  0  0  0  0  0  0  0  0  0  0
   56.9970   31.1430   42.5710 C   0  0  0  0  0  0  0  0  0  0  0  0
   56.4100   30.0490   43.2080 C   0  0  0  0  0  0  0  0  0  0  0  0
   56.6200   29.8270   44.5740 C   0  0  0  0  0  0  0  0  0  0  0  0
   55.9870   28.6970   45.1920 N   0  0  0  0  0  0  0  0  0  0  0  0
   56.6260   27.4850   45.6090 C   0  0  0  0  0  0  0  0  0  0  0  0
   57.8270   27.2550   45.3040 O   0  0  0  0  0  0  0  0  0  0  0  0
   55.8690   26.5110   46.3390 N   0  0  0  0  0  0  0  0  0  0  0  0
   56.4330   25.2320   46.7630 C   0  0  0  0  0  0  0  0  0  0  0  0
   56.2400   24.1960   45.6900 C   0  0  0  0  0  0  0  0  0  0  0  0
   56.5250   24.5070   44.3530 C   0  0  0  0  0  0  0  0  0  0  0  0
   56.3600   23.5290   43.3690 C   0  0  0  0  0  0  0  0  0  0  0  0
   55.9310   22.2850   43.7090 N   0  0  0  0  0  0  0  0  0  0  0  0
   55.6510   21.9540   44.9980 C   0  0  0  0  0  0  0  0  0  0  0  0
   55.8030   22.9020   46.0130 C   0  0  0  0  0  0  0  0  0  0  0  0
   57.3950   30.7420   45.3090 C   0  0  0  0  0  0  0  0  0  0  0  0
   59.7590   32.3510   46.3850 C   0  0  0  0  0  0  0  0  0  0  0  0
   63.0662   33.1635   50.1351 H   0  0  0  0  0  0  0  0  0  0  0  0
   64.3281   32.2180   49.2747 H   0  0  0  0  0  0  0  0  0  0  0  0
   64.3946   34.0130   49.2747 H   0  0  0  0  0  0  0  0  0  0  0  0
   64.5448   33.8769   46.9008 H   0  0  0  0  0  0  0  0  0  0  0  0
   63.6426   32.5051   46.1722 H   0  0  0  0  0  0  0  0  0  0  0  0
   62.9261   34.1524   46.1722 H   0  0  0  0  0  0  0  0  0  0  0  0
   61.0080   35.3501   47.4610 H   0  0  0  0  0  0  0  0  0  0  0  0
   59.3296   36.1803   45.8161 H   0  0  0  0  0  0  0  0  0  0  0  0
   57.9242   34.5705   44.5361 H   0  0  0  0  0  0  0  0  0  0  0  0
   58.2560   32.8907   42.7867 H   0  0  0  0  0  0  0  0  0  0  0  0
   56.8363   31.3024   41.4945 H   0  0  0  0  0  0  0  0  0  0  0  0
   55.7780   29.3564   42.6328 H   0  0  0  0  0  0  0  0  0  0  0  0
   54.8790   26.7300   46.5900 H   0  0  0  0  0  0  0  0  0  0  0  0
   57.5083   25.3564   46.9583 H   0  0  0  0  0  0  0  0  0  0  0  0
   55.9202   24.9000   47.6778 H   0  0  0  0  0  0  0  0  0  0  0  0
   56.8759   25.5134   44.0808 H   0  0  0  0  0  0  0  0  0  0  0  0
   56.5777   23.7663   42.3172 H   0  0  0  0  0  0  0  0  0  0  0  0
   55.3045   20.9389   45.2417 H   0  0  0  0  0  0  0  0  0  0  0  0
   55.5819   22.6362   47.0573 H   0  0  0  0  0  0  0  0  0  0  0  0
   57.5378   30.5908   46.3892 H   0  0  0  0  0  0  0  0  0  0  0  0
   59.8942   31.2696   46.5345 H   0  0  0  0  0  0  0  0  0  0  0  0
  1  2  1  0
  2  3  1  0
  2  4  1  0
  4  5  2  0
  4  6  1  0
  6  7  2  0
  7  8  1  0
  8  9  2  0
  9 10  1  0
 10 11  1  0
 11 12  2  0
 12 13  1  0
 13 14  2  0
 14 15  1  0
 15 16  1  0
 16 17  1  0
 17 18  2  0
 17 19  1  0
 19 20  1  0
 20 21  1  0
 21 22  2  0
 22 23  1  0
 23 24  2  0
 24 25  1  0
 25 26  2  0
 15 27  2  0
 10 28  2  0
 28  6  1  0
 27 11  1  0
 26 21  1  0
  1 29  1  0
  1 30  1  0
  1 31  1  0
  3 32  1  0
  3 33  1  0
  3 34  1  0
  7 35  1  0
  8 36  1  0
  9 37  1  0
 12 38  1  0
 13 39  1  0
 14 40  1  0
 19 41  1  0
 20 42  1  0
 20 43  1  0
 22 44  1  0
 23 45  1  0
 25 46  1  0
 26 47  1  0
 27 48  1  0
 28 49  1  0
M  CHG  1  16  -1
M  END
>  <UniqueID>  (57) 
51

>  <SMILES>  (57) 
CN(C)C(=O)c1cccc(-c2cccc([N-]C(=O)NCc3ccncc3)c2)c1

>  <Energy>  (57) 
61.047560260907844

>  <Genealogy>  (57) 
CN(C)C(=O)c1cccc(-c2cccc([N-]C(=O)NCc3ccncc3)c2)c1 (protonated)
CN(C)C(=O)c1cccc(-c2cccc([N-]C(=O)NCc3ccncc3)c2)c1 (3D coordinates assigned)
CN(C)C(=O)c1cccc(-c2cccc([N-]C(=O)NCc3ccncc3)c2)c1 (optimized conformer: 61.047560260907844 kcal/mol)

>  <smiles>  (57) 
CN(C)C(=O)c1cccc(-c2cccc(NC(=O)NCc3ccncc3)c2)c1

>  <score_type>  (57) 
oracle

>  <origin>  (57) 
adg

>  <m_score__min__energy>  (57) 
-11.390000000000001

>  <m_primary>  (57) 
energy

$$$$
57:0
     RDKit          3D

 53 55  0  0  0  0  0  0  0  0999 V2000
   64.5680   32.7780   50.8660 C   0  0  0  0  0  0  0  0  0  0  0  0
   62.8930   33.2650   50.5130 S   0  0  0  0  0  0  0  0  0  0  0  0
   62.0350   33.0520   51.7260 O   0  0  0  0  0  0  0  0  0  0  0  0
   62.8780   34.7240   50.1570 O   0  0  0  0  0  0  0  0  0  0  0  0
   62.2680   32.3050   49.1780 C   0  0  0  0  0  0  0  0  0  0  0  0
   62.3080   32.7950   47.8650 C   0  0  0  0  0  0  0  0  0  0  0  0
   61.8180   32.0190   46.8100 C   0  0  0  0  0  0  0  0  0  0  0  0
   61.2960   30.7440   47.0520 C   0  0  0  0  0  0  0  0  0  0  0  0
   60.8060   29.9980   45.9720 O   0  0  0  0  0  0  0  0  0  0  0  0
   59.8560   28.9680   46.0600 C   0  0  0  0  0  0  0  0  0  0  0  0
   60.2410   27.6170   46.1110 C   0  0  0  0  0  0  0  0  0  0  0  0
   59.2770   26.6090   46.1490 C   0  0  0  0  0  0  0  0  0  0  0  0
   57.9170   26.9350   46.1160 C   0  0  0  0  0  0  0  0  0  0  0  0
   56.7000   25.6620   46.0960 S   0  0  0  0  0  0  0  0  0  0  0  0
   55.1280   26.3790   46.0150 N   0  0  0  0  0  0  0  0  0  0  0  0
   56.8110   24.8370   47.3460 O   0  0  0  0  0  0  0  0  0  0  0  0
   56.9090   24.7690   44.9060 O   0  0  0  0  0  0  0  0  0  0  0  0
   57.5270   28.2770   46.0480 C   0  0  0  0  0  0  0  0  0  0  0  0
   58.4920   29.3020   46.0430 C   0  0  0  0  0  0  0  0  0  0  0  0
   58.1200   30.6860   45.9670 N   0  0  0  0  0  0  0  0  0  0  0  0
   57.1790   31.2750   45.0590 C   0  0  0  0  0  0  0  0  0  0  0  0
   56.2950   30.5730   44.4980 O   0  0  0  0  0  0  0  0  0  0  0  0
   57.2580   32.7460   44.7760 C   0  0  0  0  0  0  0  0  0  0  0  0
   58.1660   33.4460   45.7520 C   0  0  0  0  0  0  0  0  0  0  0  0
   59.0270   34.4640   45.3150 C   0  0  0  0  0  0  0  0  0  0  0  0
   59.8600   35.1180   46.2240 C   0  0  0  0  0  0  0  0  0  0  0  0
   59.8370   34.7650   47.5760 C   0  0  0  0  0  0  0  0  0  0  0  0
   58.9760   33.7640   48.0350 C   0  0  0  0  0  0  0  0  0  0  0  0
   58.9840   33.4650   49.4050 O   0  0  0  0  0  0  0  0  0  0  0  0
   58.6120   32.2160   49.9790 C   0  0  0  0  0  0  0  0  0  0  0  0
   57.3270   32.3150   50.4750 F   0  0  0  0  0  0  0  0  0  0  0  0
   58.6440   31.2210   49.0200 F   0  0  0  0  0  0  0  0  0  0  0  0
   59.4660   31.8950   51.0180 F   0  0  0  0  0  0  0  0  0  0  0  0
   58.1370   33.1050   47.1140 C   0  0  0  0  0  0  0  0  0  0  0  0
   61.2330   30.2620   48.3730 C   0  0  0  0  0  0  0  0  0  0  0  0
   61.7210   31.0380   49.4270 C   0  0  0  0  0  0  0  0  0  0  0  0
   64.7156   32.7351   51.9552 H   0  0  0  0  0  0  0  0  0  0  0  0
   64.7611   31.7865   50.4305 H   0  0  0  0  0  0  0  0  0  0  0  0
   65.2626   33.5114   50.4305 H   0  0  0  0  0  0  0  0  0  0  0  0
   62.7259   33.7925   47.6642 H   0  0  0  0  0  0  0  0  0  0  0  0
   61.8432   32.4136   45.7835 H   0  0  0  0  0  0  0  0  0  0  0  0
   61.3088   27.3529   46.1210 H   0  0  0  0  0  0  0  0  0  0  0  0
   59.5872   25.5551   46.2051 H   0  0  0  0  0  0  0  0  0  0  0  0
   55.1450   27.0700   45.2320 H   0  0  0  0  0  0  0  0  0  0  0  0
   56.4584   28.5331   45.9981 H   0  0  0  0  0  0  0  0  0  0  0  0
   57.6457   32.8940   43.7573 H   0  0  0  0  0  0  0  0  0  0  0  0
   56.2488   33.1721   44.8758 H   0  0  0  0  0  0  0  0  0  0  0  0
   59.0455   34.7476   44.2524 H   0  0  0  0  0  0  0  0  0  0  0  0
   60.5359   35.9128   45.8756 H   0  0  0  0  0  0  0  0  0  0  0  0
   60.5022   35.2793   48.2852 H   0  0  0  0  0  0  0  0  0  0  0  0
   57.4540   32.3173   47.4648 H   0  0  0  0  0  0  0  0  0  0  0  0
   60.7985   29.2720   48.5758 H   0  0  0  0  0  0  0  0  0  0  0  0
   61.6760   30.6536   50.4567 H   0  0  0  0  0  0  0  0  0  0  0  0
  1  2  1  0
  2  3  2  0
  2  4  2  0
  2  5  1  0
  5  6  2  0
  6  7  1  0
  7  8  2  0
  8  9  1  0
  9 10  1  0
 10 11  2  0
 11 12  1  0
 12 13  2  0
 13 14  1  0
 14 15  1  0
 14 16  2  0
 14 17  2  0
 13 18  1  0
 18 19  2  0
 19 20  1  0
 20 21  1  0
 21 22  2  0
 21 23  1  0
 23 24  1  0
 24 25  2  0
 25 26  1  0
 26 27  2  0
 27 28  1  0
 28 29  1  0
 29 30  1  0
 30 31  1  0
 30 32  1  0
 30 33  1  0
 28 34  2  0
  8 35  1  0
 35 36  2  0
 36  5  1  0
 19 10  1  0
 34 24  1  0
  1 37  1  0
  1 38  1  0
  1 39  1  0
  6 40  1  0
  7 41  1  0
 11 42  1  0
 12 43  1  0
 15 44  1  0
 18 45  1  0
 23 46  1  0
 23 47  1  0
 25 48  1  0
 26 49  1  0
 27 50  1  0
 34 51  1  0
 35 52  1  0
 36 53  1  0
M  CHG  2  15  -1  20  -1
M  END
>  <UniqueID>  (58) 
52

>  <SMILES>  (58) 
CS(=O)(=O)c1ccc(Oc2ccc(S([NH-])(=O)=O)cc2[N-]C(=O)Cc2cccc(OC(F)(F)F)c2)cc1

>  <Energy>  (58) 
62.03269455962421

>  <Genealogy>  (58) 
CS(=O)(=O)c1ccc(Oc2ccc(S([NH-])(=O)=O)cc2[N-]C(=O)Cc2cccc(OC(F)(F)F)c2)cc1 (protonated)
CS(=O)(=O)c1ccc(Oc2ccc(S([NH-])(=O)=O)cc2[N-]C(=O)Cc2cccc(OC(F)(F)F)c2)cc1 (3D coordinates assigned)
CS(=O)(=O)c1ccc(Oc2ccc(S([NH-])(=O)=O)cc2[N-]C(=O)Cc2cccc(OC(F)(F)F)c2)cc1 (optimized conformer: 62.03269455962421 kcal/mol)

>  <smiles>  (58) 
CS(=O)(=O)c1ccc(Oc2ccc(S(N)(=O)=O)cc2NC(=O)Cc2cccc(OC(F)(F)F)c2)cc1

>  <score_type>  (58) 
oracle

>  <origin>  (58) 
adg

>  <m_score__min__energy>  (58) 
-13.220000000000001

>  <m_primary>  (58) 
energy

$$$$
58:0
     RDKit          3D

 52 54  0  0  0  0  0  0  0  0999 V2000
   57.4140   32.0950   41.5940 C   0  0  0  0  0  0  0  0  0  0  0  0
   57.3830   31.3380   42.9210 C   0  0  0  0  0  0  0  0  0  0  0  0
   56.4850   30.0900   42.8740 C   0  0  0  0  0  0  0  0  0  0  0  0
   55.4020   30.0680   43.9630 C   0  0  0  0  0  0  0  0  0  0  0  0
   55.6140   28.9770   44.9100 N   0  0  0  0  0  0  0  0  0  0  0  0
   56.8960   28.4060   45.1900 C   0  0  0  0  0  0  0  0  0  0  0  0
   57.3750   27.5210   44.4310 O   0  0  0  0  0  0  0  0  0  0  0  0
   57.5840   28.8130   46.3420 O   0  0  0  0  0  0  0  0  0  0  0  0
   58.4030   29.9490   46.4360 C   0  0  0  0  0  0  0  0  0  0  0  0
   59.7390   29.8770   46.8580 C   0  0  0  0  0  0  0  0  0  0  0  0
   60.5230   31.0310   46.9320 C   0  0  0  0  0  0  0  0  0  0  0  0
   60.0000   32.2850   46.5560 C   0  0  0  0  0  0  0  0  0  0  0  0
   58.6470   32.3530   46.1510 C   0  0  0  0  0  0  0  0  0  0  0  0
   57.8730   31.1870   46.0640 C   0  0  0  0  0  0  0  0  0  0  0  0
   58.0350   33.6760   45.7820 C   0  0  0  0  0  0  0  0  0  0  0  0
   58.6560   34.7880   46.6210 C   0  0  0  0  0  0  0  0  0  0  0  0
   60.1690   34.8220   46.4050 C   0  0  0  0  0  0  0  0  0  0  0  0
   60.7980   33.5030   46.6170 N   0  0  0  0  0  0  0  0  0  0  0  0
   62.2720   33.4760   46.5830 C   0  0  0  0  0  0  0  0  0  0  0  0
   62.8350   33.4740   47.9820 C   0  0  0  0  0  0  0  0  0  0  0  0
   62.0370   33.8940   49.0610 C   0  0  0  0  0  0  0  0  0  0  0  0
   62.5580   33.9150   50.3570 C   0  0  0  0  0  0  0  0  0  0  0  0
   63.8820   33.5250   50.5880 C   0  0  0  0  0  0  0  0  0  0  0  0
   64.6930   33.1120   49.5210 C   0  0  0  0  0  0  0  0  0  0  0  0
   66.0520   32.7210   49.7570 N   0  0  0  0  0  0  0  0  0  0  0  0
   64.1680   33.0880   48.2190 C   0  0  0  0  0  0  0  0  0  0  0  0
   57.4583   33.1765   41.7898 H   0  0  0  0  0  0  0  0  0  0  0  0
   58.3004   31.7900   41.0185 H   0  0  0  0  0  0  0  0  0  0  0  0
   56.5056   31.8635   41.0185 H   0  0  0  0  0  0  0  0  0  0  0  0
   58.4074   31.0248   43.1710 H   0  0  0  0  0  0  0  0  0  0  0  0
   56.9673   32.0169   43.6802 H   0  0  0  0  0  0  0  0  0  0  0  0
   55.9909   30.0544   41.8919 H   0  0  0  0  0  0  0  0  0  0  0  0
   57.1345   29.2195   43.0485 H   0  0  0  0  0  0  0  0  0  0  0  0
   55.4244   31.0232   44.5081 H   0  0  0  0  0  0  0  0  0  0  0  0
   54.4274   29.9163   43.4760 H   0  0  0  0  0  0  0  0  0  0  0  0
   60.1727   28.9042   47.1328 H   0  0  0  0  0  0  0  0  0  0  0  0
   61.5614   30.9603   47.2881 H   0  0  0  0  0  0  0  0  0  0  0  0
   56.8372   31.2477   45.6988 H   0  0  0  0  0  0  0  0  0  0  0  0
   58.2180   33.8778   44.7163 H   0  0  0  0  0  0  0  0  0  0  0  0
   56.9524   33.6399   45.9734 H   0  0  0  0  0  0  0  0  0  0  0  0
   58.2235   35.7544   46.3227 H   0  0  0  0  0  0  0  0  0  0  0  0
   58.4469   34.5984   47.6842 H   0  0  0  0  0  0  0  0  0  0  0  0
   60.3714   35.1482   45.3742 H   0  0  0  0  0  0  0  0  0  0  0  0
   60.5970   35.5195   47.1401 H   0  0  0  0  0  0  0  0  0  0  0  0
   62.6050   32.5685   46.0580 H   0  0  0  0  0  0  0  0  0  0  0  0
   62.6312   34.3730   46.0574 H   0  0  0  0  0  0  0  0  0  0  0  0
   60.9976   34.2075   48.8837 H   0  0  0  0  0  0  0  0  0  0  0  0
   61.9264   34.2387   51.1974 H   0  0  0  0  0  0  0  0  0  0  0  0
   64.2880   33.5425   51.6102 H   0  0  0  0  0  0  0  0  0  0  0  0
   66.7350   32.6680   48.9720 H   0  0  0  0  0  0  0  0  0  0  0  0
   66.3790   32.4660   50.7140 H   0  0  0  0  0  0  0  0  0  0  0  0
   64.8017   32.7658   47.3796 H   0  0  0  0  0  0  0  0  0  0  0  0
  1  2  1  0
  2  3  1  0
  3  4  1  0
  4  5  1  0
  5  6  1  0
  6  7  2  0
  6  8  1  0
  8  9  1  0
  9 10  2  0
 10 11  1  0
 11 12  2  0
 12 13  1  0
 13 14  2  0
 13 15  1  0
 15 16  1  0
 16 17  1  0
 17 18  1  0
 18 19  1  0
 19 20  1  0
 20 21  2  0
 21 22  1  0
 22 23  2  0
 23 24  1  0
 24 25  1  0
 24 26  2  0
 14  9  1  0
 26 20  1  0
 18 12  1  0
  1 27  1  0
  1 28  1  0
  1 29  1  0
  2 30  1  0
  2 31  1  0
  3 32  1  0
  3 33  1  0
  4 34  1  0
  4 35  1  0
 10 36  1  0
 11 37  1  0
 14 38  1  0
 15 39  1  0
 15 40  1  0
 16 41  1  0
 16 42  1  0
 17 43  1  0
 17 44  1  0
 19 45  1  0
 19 46  1  0
 21 47  1  0
 22 48  1  0
 23 49  1  0
 25 50  1  0
 25 51  1  0
 26 52  1  0
M  CHG  1   5  -1
M  END
>  <UniqueID>  (59) 
53

>  <SMILES>  (59) 
CCCC[N-]C(=O)Oc1ccc2c(c1)CCCN2Cc1cccc(N)c1

>  <Energy>  (59) 
51.18811745445124

>  <Genealogy>  (59) 
CCCC[N-]C(=O)Oc1ccc2c(c1)CCCN2Cc1cccc(N)c1 (protonated)
CCCC[N-]C(=O)Oc1ccc2c(c1)CCCN2Cc1cccc(N)c1 (3D coordinates assigned)
CCCC[N-]C(=O)Oc1ccc2c(c1)CCCN2Cc1cccc(N)c1 (nonaromatic ring conformer: 51.18811745445124 kcal/mol)

>  <smiles>  (59) 
CCCCNC(=O)Oc1ccc2c(c1)CCCN2Cc1cccc(N)c1

>  <score_type>  (59) 
oracle

>  <origin>  (59) 
adg

>  <m_score__min__energy>  (59) 
-9.6500000000000004

>  <m_primary>  (59) 
energy

$$$$
59:0
     RDKit          3D

 51 53  0  0  0  0  0  0  0  0999 V2000
   55.0840   26.3390   45.9760 N   0  0  0  0  0  0  0  0  0  0  0  0
   56.7980   26.5150   45.8570 S   0  0  0  0  0  0  0  0  0  0  0  0
   57.3360   25.5660   44.8240 O   0  0  0  0  0  0  0  0  0  0  0  0
   57.4210   26.1860   47.1860 O   0  0  0  0  0  0  0  0  0  0  0  0
   57.1900   28.1670   45.3900 C   0  0  0  0  0  0  0  0  0  0  0  0
   56.1930   28.9950   44.8590 C   0  0  0  0  0  0  0  0  0  0  0  0
   56.4930   30.3090   44.4860 C   0  0  0  0  0  0  0  0  0  0  0  0
   57.7940   30.8110   44.6440 C   0  0  0  0  0  0  0  0  0  0  0  0
   58.1170   32.2200   44.2200 C   0  0  0  0  0  0  0  0  0  0  0  0
   57.2250   33.1940   44.8720 N   0  0  0  0  0  0  0  0  0  0  0  0
   57.7750   34.5600   44.9020 C   0  0  0  0  0  0  0  0  0  0  0  0
   59.0310   34.6550   45.7240 C   0  0  0  0  0  0  0  0  0  0  0  0
   59.7430   35.6910   45.6350 O   0  0  0  0  0  0  0  0  0  0  0  0
   59.4450   33.5470   46.5420 N   0  0  0  0  0  0  0  0  0  0  0  0
   60.6240   33.5510   47.3670 C   0  0  0  0  0  0  0  0  0  0  0  0
   61.9060   33.3720   46.8240 C   0  0  0  0  0  0  0  0  0  0  0  0
   63.0300   33.3510   47.6530 C   0  0  0  0  0  0  0  0  0  0  0  0
   62.8980   33.5320   49.0420 C   0  0  0  0  0  0  0  0  0  0  0  0
   64.0520   33.4870   49.9060 N   0  0  0  0  0  0  0  0  0  0  0  0
   64.0160   34.1740   51.2020 C   0  0  0  0  0  0  0  0  0  0  0  0
   65.4400   34.5250   51.6480 C   0  0  0  0  0  0  0  0  0  0  0  0
   66.2680   33.3790   51.6150 O   0  0  0  0  0  0  0  0  0  0  0  0
   66.4190   32.9400   50.2800 C   0  0  0  0  0  0  0  0  0  0  0  0
   65.0810   32.4600   49.7120 C   0  0  0  0  0  0  0  0  0  0  0  0
   61.6200   33.7690   49.5730 C   0  0  0  0  0  0  0  0  0  0  0  0
   60.4950   33.7780   48.7440 C   0  0  0  0  0  0  0  0  0  0  0  0
   58.7920   29.9800   45.1770 C   0  0  0  0  0  0  0  0  0  0  0  0
   58.4920   28.6670   45.5510 C   0  0  0  0  0  0  0  0  0  0  0  0
   54.7470   27.0610   46.6520 H   0  0  0  0  0  0  0  0  0  0  0  0
   55.1700   28.6103   44.7349 H   0  0  0  0  0  0  0  0  0  0  0  0
   55.7054   30.9523   44.0667 H   0  0  0  0  0  0  0  0  0  0  0  0
   59.1575   32.4472   44.4952 H   0  0  0  0  0  0  0  0  0  0  0  0
   57.9764   32.2954   43.1316 H   0  0  0  0  0  0  0  0  0  0  0  0
   57.0550   32.8780   45.8560 H   0  0  0  0  0  0  0  0  0  0  0  0
   58.0026   34.8718   43.8720 H   0  0  0  0  0  0  0  0  0  0  0  0
   57.0215   35.2146   45.3643 H   0  0  0  0  0  0  0  0  0  0  0  0
   58.9280   32.6450   46.4290 H   0  0  0  0  0  0  0  0  0  0  0  0
   62.0263   33.2474   45.7377 H   0  0  0  0  0  0  0  0  0  0  0  0
   64.0269   33.1916   47.2162 H   0  0  0  0  0  0  0  0  0  0  0  0
   63.4253   35.0972   51.1088 H   0  0  0  0  0  0  0  0  0  0  0  0
   63.5560   33.5112   51.9498 H   0  0  0  0  0  0  0  0  0  0  0  0
   65.8526   35.2888   50.9725 H   0  0  0  0  0  0  0  0  0  0  0  0
   65.4049   34.9079   52.6786 H   0  0  0  0  0  0  0  0  0  0  0  0
   66.7935   33.7727   49.6665 H   0  0  0  0  0  0  0  0  0  0  0  0
   67.1310   32.1017   50.2625 H   0  0  0  0  0  0  0  0  0  0  0  0
   65.1942   32.2573   48.6368 H   0  0  0  0  0  0  0  0  0  0  0  0
   64.7763   31.5424   50.2365 H   0  0  0  0  0  0  0  0  0  0  0  0
   61.5032   33.9493   50.6518 H   0  0  0  0  0  0  0  0  0  0  0  0
   59.5006   33.9647   49.1755 H   0  0  0  0  0  0  0  0  0  0  0  0
   59.8153   30.3641   45.3010 H   0  0  0  0  0  0  0  0  0  0  0  0
   59.2783   28.0236   45.9727 H   0  0  0  0  0  0  0  0  0  0  0  0
  1  2  1  0
  2  3  2  0
  2  4  2  0
  2  5  1  0
  5  6  2  0
  6  7  1  0
  7  8  2  0
  8  9  1  0
  9 10  1  0
 10 11  1  0
 11 12  1  0
 12 13  2  0
 12 14  1  0
 14 15  1  0
 15 16  2  0
 16 17  1  0
 17 18  2  0
 18 19  1  0
 19 20  1  0
 20 21  1  0
 21 22  1  0
 22 23  1  0
 23 24  1  0
 18 25  1  0
 25 26  2  0
  8 27  1  0
 27 28  2  0
 28  5  1  0
 26 15  1  0
 24 19  1  0
  1 29  1  0
  6 30  1  0
  7 31  1  0
  9 32  1  0
  9 33  1  0
 10 34  1  0
 11 35  1  0
 11 36  1  0
 14 37  1  0
 16 38  1  0
 17 39  1  0
 20 40  1  0
 20 41  1  0
 21 42  1  0
 21 43  1  0
 23 44  1  0
 23 45  1  0
 24 46  1  0
 24 47  1  0
 25 48  1  0
 26 49  1  0
 27 50  1  0
 28 51  1  0
M  CHG  1   1  -1
M  END
>  <UniqueID>  (60) 
54

>  <SMILES>  (60) 
[NH-]S(=O)(=O)c1ccc(CNCC(=O)Nc2ccc(N3CCOCC3)cc2)cc1

>  <Energy>  (60) 
60.140652070361625

>  <Genealogy>  (60) 
[NH-]S(=O)(=O)c1ccc(CNCC(=O)Nc2ccc(N3CCOCC3)cc2)cc1 (protonated)
[NH-]S(=O)(=O)c1ccc(CNCC(=O)Nc2ccc(N3CCOCC3)cc2)cc1 (3D coordinates assigned)
[NH-]S(=O)(=O)c1ccc(CNCC(=O)Nc2ccc(N3CCOCC3)cc2)cc1 (nonaromatic ring conformer: 60.140652070361625 kcal/mol)

>  <smiles>  (60) 
NS(=O)(=O)c1ccc(CNCC(=O)Nc2ccc(N3CCOCC3)cc2)cc1

>  <score_type>  (60) 
oracle

>  <origin>  (60) 
adg

>  <m_score__min__energy>  (60) 
-11.35

>  <m_primary>  (60) 
energy

$$$$
60:0
     RDKit          3D

 58 61  0  0  0  0  0  0  0  0999 V2000
   57.7670   27.7920   43.0250 C   0  0  0  0  0  0  0  0  0  0  0  0
   57.4300   28.1100   44.4100 N   0  0  0  0  0  0  0  0  0  0  0  0
   57.5780   27.1210   45.4380 C   0  0  0  0  0  0  0  0  0  0  0  0
   56.5560   26.1840   45.6410 C   0  0  0  0  0  0  0  0  0  0  0  0
   56.6820   25.2070   46.6310 C   0  0  0  0  0  0  0  0  0  0  0  0
   57.8300   25.1570   47.4230 C   0  0  0  0  0  0  0  0  0  0  0  0
   58.8520   26.0930   47.2360 C   0  0  0  0  0  0  0  0  0  0  0  0
   58.7320   27.0880   46.2540 C   0  0  0  0  0  0  0  0  0  0  0  0
   59.8250   28.0670   46.0580 C   0  0  0  0  0  0  0  0  0  0  0  0
   60.4860   28.0040   44.9870 O   0  0  0  0  0  0  0  0  0  0  0  0
   60.1980   29.0510   47.0600 N   0  0  1  0  0  0  0  0  0  0  0  0
   60.7160   30.3320   46.4940 C   0  0  0  0  0  0  0  0  0  0  0  0
   59.6650   31.4540   46.4890 C   0  0  0  0  0  0  0  0  0  0  0  0
   59.1390   31.7550   47.9190 C   0  0  2  0  0  0  0  0  0  0  0  0
   59.8570   32.9610   48.5660 C   0  0  0  0  0  0  0  0  0  0  0  0
   61.3080   33.0430   48.1630 C   0  0  0  0  0  0  0  0  0  0  0  0
   62.2950   32.3590   48.8950 C   0  0  0  0  0  0  0  0  0  0  0  0
   63.6360   32.4300   48.5060 C   0  0  0  0  0  0  0  0  0  0  0  0
   64.0020   33.1830   47.3870 C   0  0  0  0  0  0  0  0  0  0  0  0
   63.0280   33.8670   46.6550 C   0  0  0  0  0  0  0  0  0  0  0  0
   61.6850   33.7970   47.0390 C   0  0  0  0  0  0  0  0  0  0  0  0
   59.2460   30.5160   48.8390 C   0  0  0  0  0  0  0  0  0  0  0  0
   59.0890   29.2240   48.0320 C   0  0  0  0  0  0  0  0  0  0  0  0
   56.6470   29.6190   44.7600 S   0  0  0  0  0  0  0  0  0  0  0  0
   55.1530   29.4470   44.7370 O   0  0  0  0  0  0  0  0  0  0  0  0
   57.0550   30.0910   46.1260 O   0  0  0  0  0  0  0  0  0  0  0  0
   57.0960   30.8110   43.5580 C   0  0  0  0  0  0  0  0  0  0  0  0
   56.7030   30.8080   42.2290 C   0  0  0  0  0  0  0  0  0  0  0  0
   57.2650   31.8580   41.4920 C   0  0  0  0  0  0  0  0  0  0  0  0
   58.1020   32.6780   42.2400 C   0  0  0  0  0  0  0  0  0  0  0  0
   58.1470   32.0960   43.8180 S   0  0  0  0  0  0  0  0  0  0  0  0
   58.5669   27.0372   43.0063 H   0  0  0  0  0  0  0  0  0  0  0  0
   56.8775   27.3964   42.5128 H   0  0  0  0  0  0  0  0  0  0  0  0
   58.1104   28.7029   42.5128 H   0  0  0  0  0  0  0  0  0  0  0  0
   55.6503   26.2181   45.0177 H   0  0  0  0  0  0  0  0  0  0  0  0
   55.8751   24.4758   46.7867 H   0  0  0  0  0  0  0  0  0  0  0  0
   57.9311   24.3803   48.1954 H   0  0  0  0  0  0  0  0  0  0  0  0
   59.7552   26.0490   47.8624 H   0  0  0  0  0  0  0  0  0  0  0  0
   60.9960   28.6270   47.5910 H   0  0  0  0  0  0  0  0  0  0  0  0
   61.0415   30.1518   45.4588 H   0  0  0  0  0  0  0  0  0  0  0  0
   61.5475   30.6624   47.1338 H   0  0  0  0  0  0  0  0  0  0  0  0
   58.8196   31.1477   45.8554 H   0  0  0  0  0  0  0  0  0  0  0  0
   60.1396   32.3666   46.0991 H   0  0  0  0  0  0  0  0  0  0  0  0
   58.0764   32.0162   47.8062 H   0  0  0  0  0  0  0  0  0  0  0  0
   59.3495   33.8853   48.2527 H   0  0  0  0  0  0  0  0  0  0  0  0
   59.8163   32.8325   49.6577 H   0  0  0  0  0  0  0  0  0  0  0  0
   62.0109   31.7660   49.7768 H   0  0  0  0  0  0  0  0  0  0  0  0
   64.4040   31.8925   49.0815 H   0  0  0  0  0  0  0  0  0  0  0  0
   65.0576   33.2372   47.0823 H   0  0  0  0  0  0  0  0  0  0  0  0
   63.3178   34.4612   45.7758 H   0  0  0  0  0  0  0  0  0  0  0  0
   60.9207   34.3345   46.4586 H   0  0  0  0  0  0  0  0  0  0  0  0
   58.4544   30.5635   49.6013 H   0  0  0  0  0  0  0  0  0  0  0  0
   60.2373   30.5155   49.3158 H   0  0  0  0  0  0  0  0  0  0  0  0
   58.1357   29.2584   47.4842 H   0  0  0  0  0  0  0  0  0  0  0  0
   59.1082   28.3756   48.7319 H   0  0  0  0  0  0  0  0  0  0  0  0
   56.0214   30.0597   41.7983 H   0  0  0  0  0  0  0  0  0  0  0  0
   57.0632   32.0186   40.4227 H   0  0  0  0  0  0  0  0  0  0  0  0
   58.6434   33.5585   41.8638 H   0  0  0  0  0  0  0  0  0  0  0  0
  1  2  1  0
  2  3  1  0
  3  4  2  0
  4  5  1  0
  5  6  2  0
  6  7  1  0
  7  8  2  0
  8  9  1  0
  9 10  2  0
  9 11  1  0
 11 12  1  0
 12 13  1  0
 13 14  1  0
 14 15  1  0
 15 16  1  0
 16 17  2  0
 17 18  1  0
 18 19  2  0
 19 20  1  0
 20 21  2  0
 14 22  1  0
 22 23  1  0
  2 24  1  0
 24 25  2  0
 24 26  2  0
 24 27  1  0
 27 28  2  0
 28 29  1  0
 29 30  2  0
 30 31  1  0
  8  3  1  0
 23 11  1  0
 31 27  1  0
 21 16  1  0
  1 32  1  0
  1 33  1  0
  1 34  1  0
  4 35  1  0
  5 36  1  0
  6 37  1  0
  7 38  1  0
 11 39  1  1
 12 40  1  0
 12 41  1  0
 13 42  1  0
 13 43  1  0
 14 44  1  6
 15 45  1  0
 15 46  1  0
 17 47  1  0
 18 48  1  0
 19 49  1  0
 20 50  1  0
 21 51  1  0
 22 52  1  0
 22 53  1  0
 23 54  1  0
 23 55  1  0
 28 56  1  0
 29 57  1  0
 30 58  1  0
M  CHG  1  11   1
M  END
>  <UniqueID>  (61) 
55

>  <SMILES>  (61) 
CN(c1ccccc1C(=O)[NH+]1CCC(Cc2ccccc2)CC1)S(=O)(=O)c1cccs1

>  <Energy>  (61) 
110.50939798685874

>  <Genealogy>  (61) 
CN(c1ccccc1C(=O)[NH+]1CCC(Cc2ccccc2)CC1)S(=O)(=O)c1cccs1 (protonated)
CN(c1ccccc1C(=O)[NH+]1CCC(Cc2ccccc2)CC1)S(=O)(=O)c1cccs1 (3D coordinates assigned)
CN(c1ccccc1C(=O)[NH+]1CCC(Cc2ccccc2)CC1)S(=O)(=O)c1cccs1 (nonaromatic ring conformer: 110.50939798685874 kcal/mol)

>  <smiles>  (61) 
CN(c1ccccc1C(=O)N1CCC(Cc2ccccc2)CC1)S(=O)(=O)c1cccs1

>  <score_type>  (61) 
oracle

>  <origin>  (61) 
adg

>  <m_score__min__energy>  (61) 
-8.0600000000000005

>  <m_primary>  (61) 
energy

$$$$
61:0
     RDKit          3D

 58 60  0  0  0  0  0  0  0  0999 V2000
   62.3710   33.2080   46.7010 C   0  0  0  0  0  0  0  0  0  0  0  0
   61.5300   32.0310   47.0770 C   0  0  0  0  0  0  0  0  0  0  0  0
   60.4430   31.6180   46.3970 N   0  0  0  0  0  0  0  0  0  0  0  0
   59.9750   30.5550   46.9770 O   0  0  0  0  0  0  0  0  0  0  0  0
   60.7160   30.2310   48.0120 C   0  0  0  0  0  0  0  0  0  0  0  0
   60.4380   29.0650   48.9020 C   0  0  0  0  0  0  0  0  0  0  0  0
   61.7400   31.1620   48.1330 C   0  0  0  0  0  0  0  0  0  0  0  0
   62.8100   31.2400   49.1900 C   0  0  0  0  0  0  0  0  0  0  0  0
   62.9180   32.6360   49.8190 C   0  0  0  0  0  0  0  0  0  0  0  0
   61.8960   32.8800   50.9400 C   0  0  0  0  0  0  0  0  0  0  0  0
   60.9360   33.8700   50.5710 O   0  0  0  0  0  0  0  0  0  0  0  0
   60.0050   33.7580   49.5260 C   0  0  0  0  0  0  0  0  0  0  0  0
   59.0190   32.7520   49.4840 C   0  0  0  0  0  0  0  0  0  0  0  0
   58.1110   32.7000   48.4230 C   0  0  0  0  0  0  0  0  0  0  0  0
   58.1830   33.6330   47.3800 C   0  0  0  0  0  0  0  0  0  0  0  0
   57.1810   33.6040   46.2620 C   0  0  0  0  0  0  0  0  0  0  0  0
   57.6340   32.6590   45.1970 C   0  0  0  0  0  0  0  0  0  0  0  0
   58.7960   32.7610   44.7210 O   0  0  0  0  0  0  0  0  0  0  0  0
   56.7620   31.6140   44.7650 N   0  0  0  0  0  0  0  0  0  0  0  0
   57.1370   30.5750   43.8130 C   0  0  0  0  0  0  0  0  0  0  0  0
   56.5490   29.2050   44.2160 C   0  0  2  0  0  0  0  0  0  0  0  0
   55.3600   29.3730   44.9440 O   0  0  0  0  0  0  0  0  0  0  0  0
   57.5150   28.3240   44.9890 C   0  0  0  0  0  0  0  0  0  0  0  0
   58.8950   28.5850   44.9240 C   0  0  0  0  0  0  0  0  0  0  0  0
   59.8030   27.7580   45.5890 C   0  0  0  0  0  0  0  0  0  0  0  0
   59.3460   26.6680   46.3310 C   0  0  0  0  0  0  0  0  0  0  0  0
   57.9780   26.3950   46.4010 C   0  0  0  0  0  0  0  0  0  0  0  0
   57.4040   25.0310   47.3430 Cl  0  0  0  0  0  0  0  0  0  0  0  0
   57.0670   27.2070   45.7200 C   0  0  0  0  0  0  0  0  0  0  0  0
   59.1690   34.6340   47.4200 C   0  0  0  0  0  0  0  0  0  0  0  0
   60.0730   34.6880   48.4830 C   0  0  0  0  0  0  0  0  0  0  0  0
   62.7290   33.7090   47.6125 H   0  0  0  0  0  0  0  0  0  0  0  0
   63.2322   32.8685   46.1069 H   0  0  0  0  0  0  0  0  0  0  0  0
   61.7707   33.9128   46.1069 H   0  0  0  0  0  0  0  0  0  0  0  0
   60.0310   32.0640   45.5470 H   0  0  0  0  0  0  0  0  0  0  0  0
   60.5131   29.3800   49.9532 H   0  0  0  0  0  0  0  0  0  0  0  0
   59.4244   28.6862   48.7042 H   0  0  0  0  0  0  0  0  0  0  0  0
   61.1717   28.2696   48.7042 H   0  0  0  0  0  0  0  0  0  0  0  0
   62.5760   30.5138   49.9824 H   0  0  0  0  0  0  0  0  0  0  0  0
   63.7726   31.0171   48.7066 H   0  0  0  0  0  0  0  0  0  0  0  0
   63.9288   32.7531   50.2369 H   0  0  0  0  0  0  0  0  0  0  0  0
   62.7098   33.3676   49.0244 H   0  0  0  0  0  0  0  0  0  0  0  0
   61.3715   31.9375   51.1560 H   0  0  0  0  0  0  0  0  0  0  0  0
   62.4381   33.2407   51.8266 H   0  0  0  0  0  0  0  0  0  0  0  0
   58.9639   32.0048   50.2894 H   0  0  0  0  0  0  0  0  0  0  0  0
   57.3343   31.9212   48.4065 H   0  0  0  0  0  0  0  0  0  0  0  0
   56.2076   33.2731   46.6532 H   0  0  0  0  0  0  0  0  0  0  0  0
   57.0865   34.6130   45.8343 H   0  0  0  0  0  0  0  0  0  0  0  0
   56.7585   30.8483   42.8170 H   0  0  0  0  0  0  0  0  0  0  0  0
   58.2339   30.4925   43.8037 H   0  0  0  0  0  0  0  0  0  0  0  0
   56.3397   28.6797   43.2725 H   0  0  0  0  0  0  0  0  0  0  0  0
   55.5150   30.0840   45.6210 H   0  0  0  0  0  0  0  0  0  0  0  0
   59.2618   29.4459   44.3458 H   0  0  0  0  0  0  0  0  0  0  0  0
   60.8813   27.9664   45.5277 H   0  0  0  0  0  0  0  0  0  0  0  0
   60.0632   26.0238   46.8608 H   0  0  0  0  0  0  0  0  0  0  0  0
   55.9930   26.9720   45.7553 H   0  0  0  0  0  0  0  0  0  0  0  0
   59.2287   35.3773   46.6113 H   0  0  0  0  0  0  0  0  0  0  0  0
   60.8466   35.4698   48.5005 H   0  0  0  0  0  0  0  0  0  0  0  0
  1  2  1  0
  2  3  2  0
  3  4  1  0
  4  5  1  0
  5  6  1  0
  5  7  2  0
  7  8  1  0
  8  9  1  0
  9 10  1  0
 10 11  1  0
 11 12  1  0
 12 13  2  0
 13 14  1  0
 14 15  2  0
 15 16  1  0
 16 17  1  0
 17 18  2  0
 17 19  1  0
 19 20  1  0
 20 21  1  0
 21 22  1  0
 21 23  1  0
 23 24  2  0
 24 25  1  0
 25 26  2  0
 26 27  1  0
 27 28  1  0
 27 29  2  0
 15 30  1  0
 30 31  2  0
  7  2  1  0
 31 12  1  0
 29 23  1  0
  1 32  1  0
  1 33  1  0
  1 34  1  0
  3 35  1  0
  6 36  1  0
  6 37  1  0
  6 38  1  0
  8 39  1  0
  8 40  1  0
  9 41  1  0
  9 42  1  0
 10 43  1  0
 10 44  1  0
 13 45  1  0
 14 46  1  0
 16 47  1  0
 16 48  1  0
 20 49  1  0
 20 50  1  0
 21 51  1  6
 22 52  1  0
 24 53  1  0
 25 54  1  0
 26 55  1  0
 29 56  1  0
 30 57  1  0
 31 58  1  0
M  CHG  2   3   1  19  -1
M  END
>  <UniqueID>  (62) 
56

>  <SMILES>  (62) 
Cc1[nH+]oc(C)c1CCCOc1ccc(CC(=O)[N-]C[C@H](O)c2cccc(Cl)c2)cc1

>  <Energy>  (62) 
76.22550950321165

>  <Genealogy>  (62) 
Cc1[nH+]oc(C)c1CCCOc1ccc(CC(=O)[N-]CC(O)c2cccc(Cl)c2)cc1 (protonated)
Cc1[nH+]oc(C)c1CCCOc1ccc(CC(=O)[N-]C[C@H](O)c2cccc(Cl)c2)cc1 (chirality)
Cc1[nH+]oc(C)c1CCCOc1ccc(CC(=O)[N-]C[C@H](O)c2cccc(Cl)c2)cc1 (3D coordinates assigned)
Cc1[nH+]oc(C)c1CCCOc1ccc(CC(=O)[N-]C[C@H](O)c2cccc(Cl)c2)cc1 (optimized conformer: 76.22550950321165 kcal/mol)

>  <smiles>  (62) 
Cc1noc(C)c1CCCOc1ccc(CC(=O)NCC(O)c2cccc(Cl)c2)cc1

>  <score_type>  (62) 
oracle

>  <origin>  (62) 
adg

>  <m_score__min__energy>  (62) 
-10.199999999999999

>  <m_primary>  (62) 
energy

$$$$
62:0
     RDKit          3D

 43 45  0  0  0  0  0  0  0  0999 V2000
   64.6212   32.5956   48.4624 H   0  0  0  0  0  0  0  0  0  0  0  0
   63.6170   32.6730   48.0200 C   0  0  0  0  0  0  0  0  0  0  0  0
   63.3140   33.7280   47.1600 C   0  0  0  0  0  0  0  0  0  0  0  0
   64.0800   34.4816   46.9246 H   0  0  0  0  0  0  0  0  0  0  0  0
   62.0380   33.8300   46.5960 C   0  0  0  0  0  0  0  0  0  0  0  0
   61.8047   34.6653   45.9193 H   0  0  0  0  0  0  0  0  0  0  0  0
   61.0500   32.8700   46.8890 C   0  0  0  0  0  0  0  0  0  0  0  0
   59.6950   32.9720   46.2880 C   0  0  0  0  0  0  0  0  0  0  0  0
   58.9350   34.1460   46.4360 C   0  0  0  0  0  0  0  0  0  0  0  0
   59.3474   34.9955   47.0002 H   0  0  0  0  0  0  0  0  0  0  0  0
   57.6600   34.2420   45.8720 C   0  0  0  0  0  0  0  0  0  0  0  0
   57.0722   35.1631   45.9987 H   0  0  0  0  0  0  0  0  0  0  0  0
   57.1300   33.1720   45.1480 C   0  0  0  0  0  0  0  0  0  0  0  0
   56.1228   33.2499   44.7127 H   0  0  0  0  0  0  0  0  0  0  0  0
   57.8780   31.9980   44.9740 C   0  0  0  0  0  0  0  0  0  0  0  0
   57.3030   30.8390   44.2070 C   0  0  0  0  0  0  0  0  0  0  0  0
   58.0866   30.3995   43.5724 H   0  0  0  0  0  0  0  0  0  0  0  0
   56.4714   31.2000   43.5840 H   0  0  0  0  0  0  0  0  0  0  0  0
   56.7890   29.7980   45.1470 C   0  0  0  0  0  0  0  0  0  0  0  0
   55.7770   29.1130   44.8280 O   0  0  0  0  0  0  0  0  0  0  0  0
   57.4220   29.6100   46.3810 O   0  0  0  0  0  0  0  0  0  0  0  0
   57.9850   28.3660   46.7890 C   0  0  0  0  0  0  0  0  0  0  0  0
   57.2768   27.8486   47.4529 H   0  0  0  0  0  0  0  0  0  0  0  0
   58.9293   28.5597   47.3189 H   0  0  0  0  0  0  0  0  0  0  0  0
   58.2660   27.5020   45.5990 C   0  0  0  0  0  0  0  0  0  0  0  0
   58.9820   27.9520   44.6630 O   0  0  0  0  0  0  0  0  0  0  0  0
   57.7280   26.1730   45.5490 N   0  0  0  0  0  0  0  0  0  0  0  0
   56.4700   25.8550   45.6350 C   0  0  0  0  0  0  0  0  0  0  0  0
   55.4910   26.6840   46.0500 N   0  0  0  0  0  0  0  0  0  0  0  0
   54.3860   25.9970   45.9960 O   0  0  0  0  0  0  0  0  0  0  0  0
   54.6100   24.7720   45.5720 C   0  0  0  0  0  0  0  0  0  0  0  0
   53.5500   23.7430   45.3680 C   0  0  0  0  0  0  0  0  0  0  0  0
   53.1876   23.3912   46.3452 H   0  0  0  0  0  0  0  0  0  0  0  0
   52.7147   24.1838   44.8042 H   0  0  0  0  0  0  0  0  0  0  0  0
   53.9659   22.8950   44.8042 H   0  0  0  0  0  0  0  0  0  0  0  0
   55.9570   24.6180   45.3150 C   0  0  0  0  0  0  0  0  0  0  0  0
   56.4886   23.7284   44.9463 H   0  0  0  0  0  0  0  0  0  0  0  0
   59.1530   31.8970   45.5580 C   0  0  0  0  0  0  0  0  0  0  0  0
   59.7326   30.9692   45.4434 H   0  0  0  0  0  0  0  0  0  0  0  0
   61.3690   31.8100   47.7590 C   0  0  0  0  0  0  0  0  0  0  0  0
   60.6088   31.0520   47.9990 H   0  0  0  0  0  0  0  0  0  0  0  0
   62.6470   31.7150   48.3200 C   0  0  0  0  0  0  0  0  0  0  0  0
   62.8880   30.8837   48.9989 H   0  0  0  0  0  0  0  0  0  0  0  0
  1  2  1  0
  2  3  2  0
  3  4  1  0
  3  5  1  0
  5  6  1  0
  5  7  2  0
  7  8  1  0
  8  9  2  0
  9 10  1  0
  9 11  1  0
 11 12  1  0
 11 13  2  0
 13 14  1  0
 13 15  1  0
 15 16  1  0
 16 17  1  0
 16 18  1  0
 16 19  1  0
 19 20  2  0
 19 21  1  0
 21 22  1  0
 22 23  1  0
 22 24  1  0
 22 25  1  0
 25 26  2  0
 25 27  1  0
 27 28  2  0
 28 29  1  0
 29 30  1  0
 30 31  1  0
 31 32  1  0
 32 33  1  0
 32 34  1  0
 32 35  1  0
 31 36  2  0
 36 37  1  0
 15 38  2  0
 38 39  1  0
  7 40  1  0
 40 41  1  0
 40 42  2  0
 42 43  1  0
 42  2  1  0
 38  8  1  0
 36 28  1  0
M  CHG  1  29  -1
M  END
>  <UniqueID>  (63) 
57

>  <SMILES>  (63) 
Cc1c/c(=N/C(=O)COC(=O)Cc2cccc(-c3ccccc3)c2)[n-]o1

>  <Energy>  (63) 
77.79004533359576

>  <Genealogy>  (63) 
Cc1cc(=NC(=O)COC(=O)Cc2cccc(-c3ccccc3)c2)[n-]o1 (protonated)
Cc1c/c(=N/C(=O)COC(=O)Cc2cccc(-c3ccccc3)c2)[n-]o1 (cis-trans isomerization)
Cc1c/c(=N/C(=O)COC(=O)Cc2cccc(-c3ccccc3)c2)[n-]o1 (3D coordinates assigned)
Cc1c/c(=N/C(=O)COC(=O)Cc2cccc(-c3ccccc3)c2)[n-]o1 (optimized conformer: 77.79004533359576 kcal/mol)

>  <smiles>  (63) 
Cc1cc(=NC(=O)COC(=O)Cc2cccc(-c3ccccc3)c2)[nH]o1

>  <score_type>  (63) 
oracle

>  <origin>  (63) 
adg

>  <m_score__min__energy>  (63) 
-11.43

>  <m_primary>  (63) 
energy

$$$$
63:0
     RDKit          3D

 35 36  0  0  0  0  0  0  0  0999 V2000
   61.2811   29.1248   45.5785 H   0  0  0  0  0  0  0  0  0  0  0  0
   60.2170   29.1500   45.3010 C   0  0  0  0  0  0  0  0  0  0  0  0
   59.4730   30.2560   45.5610 N   0  0  0  0  0  0  0  0  0  0  0  0
   58.1550   30.3580   45.2360 C   0  0  0  0  0  0  0  0  0  0  0  0
   57.5370   31.4450   45.6160 N   0  0  0  0  0  0  0  0  0  0  0  0
   57.0270   32.5830   44.8500 C   0  0  0  0  0  0  0  0  0  0  0  0
   55.9982   32.3662   44.5266 H   0  0  0  0  0  0  0  0  0  0  0  0
   57.6812   32.7395   43.9797 H   0  0  0  0  0  0  0  0  0  0  0  0
   57.0270   33.8590   45.6930 C   0  0  0  0  0  0  0  0  0  0  0  0
   57.0235   33.5912   46.7599 H   0  0  0  0  0  0  0  0  0  0  0  0
   56.1304   34.4502   45.4548 H   0  0  0  0  0  0  0  0  0  0  0  0
   58.2160   34.6500   45.3970 N   0  0  0  0  0  0  0  0  0  0  0  0
   59.4390   34.5070   46.1220 C   0  0  0  0  0  0  0  0  0  0  0  0
   59.9580   35.5060   46.6930 O   0  0  0  0  0  0  0  0  0  0  0  0
   60.0540   33.2170   46.2150 N   0  0  0  0  0  0  0  0  0  0  0  0
   59.4830   32.3830   45.9480 H   0  0  0  0  0  0  0  0  0  0  0  0
   61.2990   32.9980   46.8950 C   0  0  0  0  0  0  0  0  0  0  0  0
   62.4290   33.7260   46.4950 C   0  0  0  0  0  0  0  0  0  0  0  0
   62.3490   34.4508   45.6714 H   0  0  0  0  0  0  0  0  0  0  0  0
   63.6570   33.5360   47.1370 C   0  0  0  0  0  0  0  0  0  0  0  0
   64.5421   34.1016   46.8102 H   0  0  0  0  0  0  0  0  0  0  0  0
   63.7590   32.6280   48.1930 C   0  0  0  0  0  0  0  0  0  0  0  0
   64.7273   32.4709   48.6908 H   0  0  0  0  0  0  0  0  0  0  0  0
   62.6330   31.9190   48.6180 C   0  0  0  0  0  0  0  0  0  0  0  0
   62.7154   31.2140   49.4583 H   0  0  0  0  0  0  0  0  0  0  0  0
   61.4000   32.1010   47.9800 C   0  0  0  0  0  0  0  0  0  0  0  0
   59.9920   31.2600   48.6150 Cl  0  0  0  0  0  0  0  0  0  0  0  0
   57.5360   29.2680   44.5550 C   0  0  0  0  0  0  0  0  0  0  0  0
   56.2240   29.3370   43.9950 N   0  0  0  0  0  0  0  0  0  0  0  0
   56.0790   29.7630   42.8310 O   0  0  0  0  0  0  0  0  0  0  0  0
   55.1470   29.3790   44.8500 O   0  0  0  0  0  0  0  0  0  0  0  0
   58.2940   28.1140   44.3070 C   0  0  0  0  0  0  0  0  0  0  0  0
   57.8262   27.2514   43.8100 H   0  0  0  0  0  0  0  0  0  0  0  0
   59.6330   28.0500   44.6840 C   0  0  0  0  0  0  0  0  0  0  0  0
   60.2214   27.1399   44.4958 H   0  0  0  0  0  0  0  0  0  0  0  0
  1  2  1  0
  2  3  1  0
  3  4  1  0
  4  5  2  0
  5  6  1  0
  6  7  1  0
  6  8  1  0
  6  9  1  0
  9 10  1  0
  9 11  1  0
  9 12  1  0
 12 13  1  0
 13 14  2  0
 13 15  1  0
 15 16  1  0
 15 17  1  0
 17 18  2  0
 18 19  1  0
 18 20  1  0
 20 21  1  0
 20 22  2  0
 22 23  1  0
 22 24  1  0
 24 25  1  0
 24 26  2  0
 26 27  1  0
  4 28  1  0
 28 29  1  0
 29 30  2  0
 29 31  1  0
 28 32  2  0
 32 33  1  0
 32 34  1  0
 34 35  1  0
 34  2  2  0
 26 17  1  0
M  CHG  4   3  -1  12  -1  29   1  31  -1
M  END
>  <UniqueID>  (64) 
58

>  <SMILES>  (64) 
O=C([N-]CC/N=c1/[n-]cccc1[N+](=O)[O-])Nc1ccccc1Cl

>  <Energy>  (64) 
54.03042739981414

>  <Genealogy>  (64) 
O=C([N-]CCN=c1[n-]cccc1[N+](=O)[O-])Nc1ccccc1Cl (protonated)
O=C([N-]CC/N=c1/[n-]cccc1[N+](=O)[O-])Nc1ccccc1Cl (cis-trans isomerization)
O=C([N-]CC/N=c1/[n-]cccc1[N+](=O)[O-])Nc1ccccc1Cl (3D coordinates assigned)
O=C([N-]CC/N=c1/[n-]cccc1[N+](=O)[O-])Nc1ccccc1Cl (optimized conformer: 54.03042739981414 kcal/mol)

>  <smiles>  (64) 
O=C(NCCN=c1[nH]cccc1[N+](=O)[O-])Nc1ccccc1Cl

>  <score_type>  (64) 
oracle

>  <origin>  (64) 
adg

>  <m_score__min__energy>  (64) 
-10.960000000000001

>  <m_primary>  (64) 
energy

$$$$
64:0
     RDKit          3D

 39 42  0  0  0  0  0  0  0  0999 V2000
   64.7810   30.2960   51.2600 C   0  0  0  0  0  0  0  0  0  0  0  0
   65.8830   31.3120   51.1150 C   0  0  0  0  0  0  0  0  0  0  0  0
   67.0850   31.0930   51.8090 C   0  0  0  0  0  0  0  0  0  0  0  0
   68.1530   31.9840   51.6820 C   0  0  0  0  0  0  0  0  0  0  0  0
   68.0330   33.1060   50.8610 C   0  0  0  0  0  0  0  0  0  0  0  0
   66.8390   33.3480   50.1780 C   0  0  0  0  0  0  0  0  0  0  0  0
   65.7490   32.4740   50.3130 C   0  0  0  0  0  0  0  0  0  0  0  0
   64.5040   32.7980   49.5910 C   0  0  0  0  0  0  0  0  0  0  0  0
   64.4450   33.0820   48.2730 N   0  0  0  0  0  0  0  0  0  0  0  0
   63.1950   33.4090   47.9710 N   0  0  0  0  0  0  0  0  0  0  0  0
   62.5070   33.3140   49.1270 C   0  0  0  0  0  0  0  0  0  0  0  0
   63.2910   32.9590   50.1520 N   0  0  0  0  0  0  0  0  0  0  0  0
   62.8210   32.8450   51.5300 C   0  0  0  0  0  0  0  0  0  0  0  0
   61.6430   33.8200   51.7440 C   0  0  0  0  0  0  0  0  0  0  0  0
   60.7170   33.8320   50.5960 N   0  0  0  0  0  0  0  0  0  0  0  0
   61.0970   33.6660   49.3590 C   0  0  0  0  0  0  0  0  0  0  0  0
   60.1080   33.7690   48.2600 C   0  0  0  0  0  0  0  0  0  0  0  0
   58.9010   33.0450   48.2960 C   0  0  0  0  0  0  0  0  0  0  0  0
   57.9750   33.1600   47.2540 C   0  0  0  0  0  0  0  0  0  0  0  0
   58.2370   34.0010   46.1700 C   0  0  0  0  0  0  0  0  0  0  0  0
   57.0730   34.1430   44.8660 Cl  0  0  0  0  0  0  0  0  0  0  0  0
   59.4270   34.7340   46.1300 C   0  0  0  0  0  0  0  0  0  0  0  0
   60.3560   34.6230   47.1680 C   0  0  0  0  0  0  0  0  0  0  0  0
   64.5861   30.1163   52.3276 H   0  0  0  0  0  0  0  0  0  0  0  0
   63.8672   30.6751   50.7792 H   0  0  0  0  0  0  0  0  0  0  0  0
   65.0848   29.3544   50.7792 H   0  0  0  0  0  0  0  0  0  0  0  0
   67.1858   30.2111   52.4587 H   0  0  0  0  0  0  0  0  0  0  0  0
   69.0894   31.8012   52.2295 H   0  0  0  0  0  0  0  0  0  0  0  0
   68.8792   33.8002   50.7517 H   0  0  0  0  0  0  0  0  0  0  0  0
   66.7520   34.2315   49.5284 H   0  0  0  0  0  0  0  0  0  0  0  0
   65.2360   33.0680   47.5920 H   0  0  0  0  0  0  0  0  0  0  0  0
   62.4859   31.8148   51.7209 H   0  0  0  0  0  0  0  0  0  0  0  0
   63.6387   33.0939   52.2224 H   0  0  0  0  0  0  0  0  0  0  0  0
   61.0887   33.5145   52.6436 H   0  0  0  0  0  0  0  0  0  0  0  0
   62.0576   34.8328   51.8553 H   0  0  0  0  0  0  0  0  0  0  0  0
   58.6849   32.3848   49.1489 H   0  0  0  0  0  0  0  0  0  0  0  0
   57.0372   32.5861   47.2884 H   0  0  0  0  0  0  0  0  0  0  0  0
   59.6325   35.4000   45.2790 H   0  0  0  0  0  0  0  0  0  0  0  0
   61.2876   35.2068   47.1319 H   0  0  0  0  0  0  0  0  0  0  0  0
  1  2  1  0
  2  3  2  0
  3  4  1  0
  4  5  2  0
  5  6  1  0
  6  7  2  0
  7  8  1  0
  8  9  2  0
  9 10  1  0
 10 11  2  0
 11 12  1  0
 12 13  1  0
 13 14  1  0
 14 15  1  0
 15 16  2  0
 16 17  1  0
 17 18  2  0
 18 19  1  0
 19 20  2  0
 20 21  1  0
 20 22  1  0
 22 23  2  0
  7  2  1  0
 12  8  1  0
 23 17  1  0
 16 11  1  0
  1 24  1  0
  1 25  1  0
  1 26  1  0
  3 27  1  0
  4 28  1  0
  5 29  1  0
  6 30  1  0
  9 31  1  0
 13 32  1  0
 13 33  1  0
 14 34  1  0
 14 35  1  0
 18 36  1  0
 19 37  1  0
 22 38  1  0
 23 39  1  0
M  CHG  1   9   1
M  END
>  <UniqueID>  (65) 
59

>  <SMILES>  (65) 
Cc1ccccc1-c1[nH+]nc2n1CCN=C2c1ccc(Cl)cc1

>  <Energy>  (65) 
93.9970290142237

>  <Genealogy>  (65) 
Cc1ccccc1-c1[nH+]nc2n1CCN=C2c1ccc(Cl)cc1 (protonated)
Cc1ccccc1-c1[nH+]nc2n1CCN=C2c1ccc(Cl)cc1 (3D coordinates assigned)
Cc1ccccc1-c1[nH+]nc2n1CCN=C2c1ccc(Cl)cc1 (nonaromatic ring conformer: 93.9970290142237 kcal/mol)

>  <smiles>  (65) 
Cc1ccccc1-c1nnc2n1CCN=C2c1ccc(Cl)cc1

>  <score_type>  (65) 
oracle

>  <origin>  (65) 
adg

>  <m_score__min__energy>  (65) 
-6.5199999999999996

>  <m_primary>  (65) 
energy

$$$$
65:0
     RDKit          3D

 49 51  0  0  0  0  0  0  0  0999 V2000
   57.9000   31.3690   43.4690 O   0  0  0  0  0  0  0  0  0  0  0  0
   57.0320   31.3820   44.3840 C   0  0  0  0  0  0  0  0  0  0  0  0
   56.8800   32.5940   45.2550 C   0  0  0  0  0  0  0  0  0  0  0  0
   58.2000   33.1270   45.6640 N   0  0  0  0  0  0  0  0  0  0  0  0
   58.4990   32.8030   47.0860 C   0  0  0  0  0  0  0  0  0  0  0  0
   59.4400   33.8270   47.7600 C   0  0  0  0  0  0  0  0  0  0  0  0
   60.3800   34.4490   46.8050 N   0  0  0  0  0  0  0  0  0  0  0  0
   61.4430   33.5210   46.3570 C   0  0  0  0  0  0  0  0  0  0  0  0
   62.2750   33.0620   47.5260 C   0  0  0  0  0  0  0  0  0  0  0  0
   63.4230   33.7780   47.9100 C   0  0  0  0  0  0  0  0  0  0  0  0
   64.1980   33.3390   48.9870 C   0  0  0  0  0  0  0  0  0  0  0  0
   63.8380   32.1810   49.6830 C   0  0  0  0  0  0  0  0  0  0  0  0
   62.7060   31.4570   49.3000 C   0  0  0  0  0  0  0  0  0  0  0  0
   62.3620   30.3300   49.9710 F   0  0  0  0  0  0  0  0  0  0  0  0
   61.9270   31.8940   48.2230 C   0  0  0  0  0  0  0  0  0  0  0  0
   59.6770   35.1240   45.6830 C   0  0  0  0  0  0  0  0  0  0  0  0
   58.2550   34.5810   45.4270 C   0  0  0  0  0  0  0  0  0  0  0  0
   56.1420   30.2750   44.5560 N   0  0  0  0  0  0  0  0  0  0  0  0
   56.5810   28.9590   44.9990 C   0  0  0  0  0  0  0  0  0  0  0  0
   58.0240   29.0180   45.4180 C   0  0  0  0  0  0  0  0  0  0  0  0
   59.0340   28.6810   44.5020 C   0  0  0  0  0  0  0  0  0  0  0  0
   60.3800   28.7700   44.8720 C   0  0  0  0  0  0  0  0  0  0  0  0
   60.7260   29.2050   46.1540 C   0  0  0  0  0  0  0  0  0  0  0  0
   59.7260   29.5560   47.0670 C   0  0  0  0  0  0  0  0  0  0  0  0
   58.3800   29.4650   46.7010 C   0  0  0  0  0  0  0  0  0  0  0  0
   56.3362   33.3708   44.6975 H   0  0  0  0  0  0  0  0  0  0  0  0
   56.3245   32.3060   46.1597 H   0  0  0  0  0  0  0  0  0  0  0  0
   58.9240   32.6800   45.0520 H   0  0  0  0  0  0  0  0  0  0  0  0
   57.5521   32.7778   47.6452 H   0  0  0  0  0  0  0  0  0  0  0  0
   59.0127   31.8304   47.0981 H   0  0  0  0  0  0  0  0  0  0  0  0
   58.8289   34.6182   48.2189 H   0  0  0  0  0  0  0  0  0  0  0  0
   60.0361   33.2878   48.5110 H   0  0  0  0  0  0  0  0  0  0  0  0
   60.9801   32.6460   45.8773 H   0  0  0  0  0  0  0  0  0  0  0  0
   62.0944   34.0467   45.6434 H   0  0  0  0  0  0  0  0  0  0  0  0
   63.7118   34.6864   47.3609 H   0  0  0  0  0  0  0  0  0  0  0  0
   65.0921   33.9051   49.2874 H   0  0  0  0  0  0  0  0  0  0  0  0
   64.4468   31.8395   50.5332 H   0  0  0  0  0  0  0  0  0  0  0  0
   61.0384   31.3202   47.9212 H   0  0  0  0  0  0  0  0  0  0  0  0
   59.6029   36.1968   45.9146 H   0  0  0  0  0  0  0  0  0  0  0  0
   60.2639   34.9313   44.7728 H   0  0  0  0  0  0  0  0  0  0  0  0
   57.5494   35.0839   46.1046 H   0  0  0  0  0  0  0  0  0  0  0  0
   57.9854   34.7781   44.3789 H   0  0  0  0  0  0  0  0  0  0  0  0
   55.9659   28.6368   45.8521 H   0  0  0  0  0  0  0  0  0  0  0  0
   56.4719   28.2421   44.1718 H   0  0  0  0  0  0  0  0  0  0  0  0
   58.7654   28.3457   43.4894 H   0  0  0  0  0  0  0  0  0  0  0  0
   61.1667   28.4973   44.1532 H   0  0  0  0  0  0  0  0  0  0  0  0
   61.7847   29.2714   46.4453 H   0  0  0  0  0  0  0  0  0  0  0  0
   59.9992   29.9040   48.0741 H   0  0  0  0  0  0  0  0  0  0  0  0
   57.5965   29.7446   47.4207 H   0  0  0  0  0  0  0  0  0  0  0  0
  1  2  2  0
  2  3  1  0
  3  4  1  0
  4  5  1  0
  5  6  1  0
  6  7  1  0
  7  8  1  0
  8  9  1  0
  9 10  2  0
 10 11  1  0
 11 12  2  0
 12 13  1  0
 13 14  1  0
 13 15  2  0
  7 16  1  0
 16 17  1  0
  2 18  1  0
 18 19  1  0
 19 20  1  0
 20 21  2  0
 21 22  1  0
 22 23  2  0
 23 24  1  0
 24 25  2  0
 17  4  1  0
 25 20  1  0
 15  9  1  0
  3 26  1  0
  3 27  1  0
  4 28  1  0
  5 29  1  0
  5 30  1  0
  6 31  1  0
  6 32  1  0
  8 33  1  0
  8 34  1  0
 10 35  1  0
 11 36  1  0
 12 37  1  0
 15 38  1  0
 16 39  1  0
 16 40  1  0
 17 41  1  0
 17 42  1  0
 19 43  1  0
 19 44  1  0
 21 45  1  0
 22 46  1  0
 23 47  1  0
 24 48  1  0
 25 49  1  0
M  CHG  2   4   1  18  -1
M  END
>  <UniqueID>  (66) 
60

>  <SMILES>  (66) 
O=C(C[NH+]1CCN(Cc2cccc(F)c2)CC1)[N-]Cc1ccccc1

>  <Energy>  (66) 
57.76286230418146

>  <Genealogy>  (66) 
O=C(C[NH+]1CCN(Cc2cccc(F)c2)CC1)[N-]Cc1ccccc1 (protonated)
O=C(C[NH+]1CCN(Cc2cccc(F)c2)CC1)[N-]Cc1ccccc1 (3D coordinates assigned)
O=C(C[NH+]1CCN(Cc2cccc(F)c2)CC1)[N-]Cc1ccccc1 (nonaromatic ring conformer: 57.76286230418146 kcal/mol)

>  <smiles>  (66) 
O=C(CN1CCN(Cc2cccc(F)c2)CC1)NCc1ccccc1

>  <score_type>  (66) 
oracle

>  <origin>  (66) 
adg

>  <m_score__min__energy>  (66) 
-7.9500000000000002

>  <m_primary>  (66) 
energy

$$$$
66:0
     RDKit          3D

 30 32  0  0  0  0  0  0  0  0999 V2000
   56.6660   30.5210   43.2180 C   0  0  0  0  0  0  0  0  0  0  0  0
   56.6380   31.0850   44.5250 O   0  0  0  0  0  0  0  0  0  0  0  0
   57.7260   31.7180   45.1480 C   0  0  0  0  0  0  0  0  0  0  0  0
   57.8990   33.1160   45.0780 C   0  0  0  0  0  0  0  0  0  0  0  0
   59.0050   33.7250   45.6760 C   0  0  0  0  0  0  0  0  0  0  0  0
   59.1650   35.1030   45.5970 O   0  0  0  0  0  0  0  0  0  0  0  0
   59.9480   32.9510   46.3500 C   0  0  0  0  0  0  0  0  0  0  0  0
   59.7880   31.5680   46.4340 C   0  0  0  0  0  0  0  0  0  0  0  0
   58.6770   30.9360   45.8440 C   0  0  0  0  0  0  0  0  0  0  0  0
   58.5300   29.4640   45.9670 C   0  0  0  0  0  0  0  0  0  0  0  0
   57.3170   28.7650   45.9550 C   0  0  0  0  0  0  0  0  0  0  0  0
   57.4860   27.3740   46.0510 C   0  0  0  0  0  0  0  0  0  0  0  0
   56.4770   26.3920   46.0710 C   0  0  0  0  0  0  0  0  0  0  0  0
   55.1210   26.7120   45.9950 O   0  0  0  0  0  0  0  0  0  0  0  0
   56.8550   25.0410   46.1730 C   0  0  0  0  0  0  0  0  0  0  0  0
   58.2130   24.6770   46.2520 C   0  0  0  0  0  0  0  0  0  0  0  0
   58.5650   23.3370   46.3520 O   0  0  0  0  0  0  0  0  0  0  0  0
   59.2100   25.6620   46.2300 C   0  0  0  0  0  0  0  0  0  0  0  0
   58.8200   26.9930   46.1300 C   0  0  0  0  0  0  0  0  0  0  0  0
   59.8020   28.3510   46.0830 S   0  0  0  0  0  0  0  0  0  0  0  0
   56.7204   29.4249   43.2927 H   0  0  0  0  0  0  0  0  0  0  0  0
   55.7526   30.8066   42.6757 H   0  0  0  0  0  0  0  0  0  0  0  0
   57.5466   30.8957   42.6757 H   0  0  0  0  0  0  0  0  0  0  0  0
   57.1572   33.7317   44.5483 H   0  0  0  0  0  0  0  0  0  0  0  0
   60.8203   33.4319   46.8167 H   0  0  0  0  0  0  0  0  0  0  0  0
   60.5378   30.9648   46.9668 H   0  0  0  0  0  0  0  0  0  0  0  0
   56.3346   29.2539   45.8784 H   0  0  0  0  0  0  0  0  0  0  0  0
   54.3970   26.1270   46.3880 H   0  0  0  0  0  0  0  0  0  0  0  0
   56.0808   24.2598   46.1913 H   0  0  0  0  0  0  0  0  0  0  0  0
   60.2739   25.3891   46.2903 H   0  0  0  0  0  0  0  0  0  0  0  0
  1  2  1  0
  2  3  1  0
  3  4  2  0
  4  5  1  0
  5  6  1  0
  5  7  2  0
  7  8  1  0
  8  9  2  0
  9 10  1  0
 10 11  2  0
 11 12  1  0
 12 13  2  0
 13 14  1  0
 13 15  1  0
 15 16  2  0
 16 17  1  0
 16 18  1  0
 18 19  2  0
 19 20  1  0
  9  3  1  0
 20 10  1  0
 19 12  1  0
  1 21  1  0
  1 22  1  0
  1 23  1  0
  4 24  1  0
  7 25  1  0
  8 26  1  0
 11 27  1  0
 14 28  1  0
 15 29  1  0
 18 30  1  0
M  CHG  2   6  -1  17  -1
M  END
>  <UniqueID>  (67) 
61

>  <SMILES>  (67) 
COc1cc([O-])ccc1-c1cc2c(O)cc([O-])cc2s1

>  <Energy>  (67) 
68.53768561325545

>  <Genealogy>  (67) 
COc1cc([O-])ccc1-c1cc2c(O)cc([O-])cc2s1 (protonated)
COc1cc([O-])ccc1-c1cc2c(O)cc([O-])cc2s1 (3D coordinates assigned)
COc1cc([O-])ccc1-c1cc2c(O)cc([O-])cc2s1 (optimized conformer: 68.53768561325545 kcal/mol)

>  <smiles>  (67) 
COc1cc(O)ccc1-c1cc2c(O)cc(O)cc2s1

>  <score_type>  (67) 
oracle

>  <origin>  (67) 
adg

>  <m_score__min__energy>  (67) 
-10.49

>  <m_primary>  (67) 
energy

$$$$
67:0
     RDKit          3D

 60 63  0  0  0  0  0  0  0  0999 V2000
   66.5240   32.0850   50.6090 C   0  0  0  0  0  0  0  0  0  0  0  0
   65.1250   32.1820   50.0730 C   0  0  0  0  0  0  0  0  0  0  0  0
   64.1300   31.3030   50.5220 C   0  0  0  0  0  0  0  0  0  0  0  0
   62.8320   31.3800   50.0040 C   0  0  0  0  0  0  0  0  0  0  0  0
   62.5100   32.3410   49.0350 C   0  0  0  0  0  0  0  0  0  0  0  0
   61.1650   32.4100   48.5270 N   0  0  0  0  0  0  0  0  0  0  0  0
   60.6180   31.4740   47.5830 C   0  0  0  0  0  0  0  0  0  0  0  0
   61.3590   30.6320   47.0050 O   0  0  0  0  0  0  0  0  0  0  0  0
   59.1660   31.5440   47.2100 C   0  0  0  0  0  0  0  0  0  0  0  0
   58.6430   30.1850   46.8220 C   0  0  0  0  0  0  0  0  0  0  0  0
   57.8230   30.0350   45.6930 C   0  0  0  0  0  0  0  0  0  0  0  0
   57.3310   28.7760   45.3390 C   0  0  0  0  0  0  0  0  0  0  0  0
   57.6520   27.6430   46.1080 C   0  0  0  0  0  0  0  0  0  0  0  0
   57.1600   26.3400   45.7360 N   0  0  0  0  0  0  0  0  0  0  0  0
   55.8780   25.9190   45.7050 C   0  0  0  0  0  0  0  0  0  0  0  0
   54.7770   26.7130   45.9960 O   0  0  0  0  0  0  0  0  0  0  0  0
   55.8350   24.5960   45.3100 C   0  0  0  0  0  0  0  0  0  0  0  0
   54.6030   23.7700   45.1050 C   0  0  0  0  0  0  0  0  0  0  0  0
   57.1070   24.1800   45.0910 N   0  0  0  0  0  0  0  0  0  0  0  0
   57.5540   22.8800   44.5810 C   0  0  0  0  0  0  0  0  0  0  0  0
   58.4260   22.1780   45.5930 C   0  0  0  0  0  0  0  0  0  0  0  0
   59.6780   22.1860   45.4430 O   0  0  0  0  0  0  0  0  0  0  0  0
   57.8650   21.3550   46.6230 N   0  0  0  0  0  0  0  0  0  0  0  0
   56.4830   21.3010   46.9990 C   0  0  0  0  0  0  0  0  0  0  0  0
   55.6630   20.2450   46.5650 C   0  0  0  0  0  0  0  0  0  0  0  0
   54.3060   20.2210   46.8990 C   0  0  0  0  0  0  0  0  0  0  0  0
   53.7550   21.2570   47.6570 C   0  0  0  0  0  0  0  0  0  0  0  0
   54.5570   22.3260   48.0730 C   0  0  0  0  0  0  0  0  0  0  0  0
   55.9160   22.3560   47.7400 C   0  0  0  0  0  0  0  0  0  0  0  0
   56.7250   23.4650   48.1810 C   0  0  0  0  0  0  0  0  0  0  0  0
   57.3750   24.3540   48.5350 N   0  0  0  0  0  0  0  0  0  0  0  0
   57.8790   25.2590   45.3520 C   0  0  0  0  0  0  0  0  0  0  0  0
   59.1370   25.2460   45.2640 O   0  0  0  0  0  0  0  0  0  0  0  0
   58.4640   27.7970   47.2460 C   0  0  0  0  0  0  0  0  0  0  0  0
   58.9480   29.0590   47.6060 C   0  0  0  0  0  0  0  0  0  0  0  0
   63.5210   33.1880   48.5490 C   0  0  0  0  0  0  0  0  0  0  0  0
   64.8180   33.1100   49.0660 C   0  0  0  0  0  0  0  0  0  0  0  0
   66.4963   32.0869   51.7087 H   0  0  0  0  0  0  0  0  0  0  0  0
   66.9883   31.1525   50.2555 H   0  0  0  0  0  0  0  0  0  0  0  0
   67.1125   32.9445   50.2555 H   0  0  0  0  0  0  0  0  0  0  0  0
   64.3704   30.5486   51.2856 H   0  0  0  0  0  0  0  0  0  0  0  0
   62.0595   30.6821   50.3594 H   0  0  0  0  0  0  0  0  0  0  0  0
   60.5930   33.2530   48.7560 H   0  0  0  0  0  0  0  0  0  0  0  0
   58.5912   31.9188   48.0697 H   0  0  0  0  0  0  0  0  0  0  0  0
   59.0570   32.2207   46.3496 H   0  0  0  0  0  0  0  0  0  0  0  0
   57.5661   30.9137   45.0832 H   0  0  0  0  0  0  0  0  0  0  0  0
   56.6881   28.6703   44.4527 H   0  0  0  0  0  0  0  0  0  0  0  0
   54.1834   23.4887   46.0821 H   0  0  0  0  0  0  0  0  0  0  0  0
   53.8601   24.3533   44.5411 H   0  0  0  0  0  0  0  0  0  0  0  0
   54.8604   22.8613   44.5411 H   0  0  0  0  0  0  0  0  0  0  0  0
   56.6746   22.2547   44.3674 H   0  0  0  0  0  0  0  0  0  0  0  0
   58.1396   23.0435   43.6643 H   0  0  0  0  0  0  0  0  0  0  0  0
   56.0916   19.4331   45.9592 H   0  0  0  0  0  0  0  0  0  0  0  0
   53.6720   19.3864   46.5650 H   0  0  0  0  0  0  0  0  0  0  0  0
   52.6890   21.2326   47.9274 H   0  0  0  0  0  0  0  0  0  0  0  0
   54.1182   23.1442   48.6629 H   0  0  0  0  0  0  0  0  0  0  0  0
   58.7202   26.9190   47.8571 H   0  0  0  0  0  0  0  0  0  0  0  0
   59.5699   29.1707   48.5064 H   0  0  0  0  0  0  0  0  0  0  0  0
   63.2907   33.9163   47.7575 H   0  0  0  0  0  0  0  0  0  0  0  0
   65.6016   33.7794   48.6814 H   0  0  0  0  0  0  0  0  0  0  0  0
  1  2  1  0
  2  3  2  0
  3  4  1  0
  4  5  2  0
  5  6  1  0
  6  7  1  0
  7  8  2  0
  7  9  1  0
  9 10  1  0
 10 11  2  0
 11 12  1  0
 12 13  2  0
 13 14  1  0
 14 15  1  0
 15 16  1  0
 15 17  2  0
 17 18  1  0
 17 19  1  0
 19 20  1  0
 20 21  1  0
 21 22  2  0
 21 23  1  0
 23 24  1  0
 24 25  2  0
 25 26  1  0
 26 27  2  0
 27 28  1  0
 28 29  2  0
 29 30  1  0
 30 31  3  0
 19 32  1  0
 32 33  2  0
 13 34  1  0
 34 35  2  0
  5 36  1  0
 36 37  2  0
 37  2  1  0
 35 10  1  0
 32 14  1  0
 29 24  1  0
  1 38  1  0
  1 39  1  0
  1 40  1  0
  3 41  1  0
  4 42  1  0
  6 43  1  0
  9 44  1  0
  9 45  1  0
 11 46  1  0
 12 47  1  0
 18 48  1  0
 18 49  1  0
 18 50  1  0
 20 51  1  0
 20 52  1  0
 25 53  1  0
 26 54  1  0
 27 55  1  0
 28 56  1  0
 34 57  1  0
 35 58  1  0
 36 59  1  0
 37 60  1  0
M  CHG  2  16  -1  23  -1
M  END
>  <UniqueID>  (68) 
62

>  <SMILES>  (68) 
Cc1ccc(NC(=O)Cc2ccc(-n3c([O-])c(C)n(CC(=O)[N-]c4ccccc4C#N)c3=O)cc2)cc1

>  <Energy>  (68) 
109.70622014352503

>  <Genealogy>  (68) 
Cc1ccc(NC(=O)Cc2ccc(-n3c([O-])c(C)n(CC(=O)[N-]c4ccccc4C#N)c3=O)cc2)cc1 (protonated)
Cc1ccc(NC(=O)Cc2ccc(-n3c([O-])c(C)n(CC(=O)[N-]c4ccccc4C#N)c3=O)cc2)cc1 (3D coordinates assigned)
Cc1ccc(NC(=O)Cc2ccc(-n3c([O-])c(C)n(CC(=O)[N-]c4ccccc4C#N)c3=O)cc2)cc1 (optimized conformer: 109.70622014352503 kcal/mol)

>  <smiles>  (68) 
Cc1ccc(NC(=O)Cc2ccc(-n3c(O)c(C)n(CC(=O)Nc4ccccc4C#N)c3=O)cc2)cc1

>  <score_type>  (68) 
oracle

>  <origin>  (68) 
adg

>  <m_score__min__energy>  (68) 
-12.77

>  <m_primary>  (68) 
energy

$$$$
68:0
     RDKit          3D

 45 46  0  0  0  0  0  0  0  0999 V2000
   56.4670   19.9010   45.5470 C   0  0  0  0  0  0  0  0  0  0  0  0
   55.8830   19.7140   44.1560 C   0  0  0  0  0  0  0  0  0  0  0  0
   56.2920   20.7890   43.3180 O   0  0  0  0  0  0  0  0  0  0  0  0
   57.2270   21.7470   43.7190 C   0  0  0  0  0  0  0  0  0  0  0  0
   58.4560   21.5660   43.4970 O   0  0  0  0  0  0  0  0  0  0  0  0
   56.7780   22.9590   44.4410 C   0  0  0  0  0  0  0  0  0  0  0  0
   55.4980   23.5080   44.2400 C   0  0  0  0  0  0  0  0  0  0  0  0
   54.6080   23.0040   43.2910 O   0  0  0  0  0  0  0  0  0  0  0  0
   55.1150   24.5860   44.9640 N   0  0  0  0  0  0  0  0  0  0  0  0
   55.9360   25.1780   45.8650 C   0  0  0  0  0  0  0  0  0  0  0  0
   55.5200   26.1870   46.4960 O   0  0  0  0  0  0  0  0  0  0  0  0
   57.2000   24.6910   46.0740 N   0  0  0  0  0  0  0  0  0  0  0  0
   58.1110   25.3870   47.0100 C   0  0  0  0  0  0  0  0  0  0  0  0
   59.1780   26.1920   46.2520 C   0  0  0  0  0  0  0  0  0  0  0  0
   58.7200   27.6020   45.9800 C   0  0  0  0  0  0  0  0  0  0  0  0
   59.5320   28.6880   46.3330 C   0  0  0  0  0  0  0  0  0  0  0  0
   59.0800   29.9950   46.1490 C   0  0  0  0  0  0  0  0  0  0  0  0
   57.8020   30.2380   45.6110 C   0  0  0  0  0  0  0  0  0  0  0  0
   57.3110   31.5380   45.4170 O   0  0  0  0  0  0  0  0  0  0  0  0
   58.0950   32.6380   44.9630 C   0  0  0  0  0  0  0  0  0  0  0  0
   56.9820   29.1550   45.2570 C   0  0  0  0  0  0  0  0  0  0  0  0
   55.7110   29.4280   44.7270 O   0  0  0  0  0  0  0  0  0  0  0  0
   55.4540   29.7250   43.3570 C   0  0  0  0  0  0  0  0  0  0  0  0
   57.4450   27.8380   45.4460 C   0  0  0  0  0  0  0  0  0  0  0  0
   57.6260   23.5860   45.3760 C   0  0  0  0  0  0  0  0  0  0  0  0
   58.7820   23.1180   45.5760 O   0  0  0  0  0  0  0  0  0  0  0  0
   55.7041   19.6567   46.3009 H   0  0  0  0  0  0  0  0  0  0  0  0
   57.3336   19.2354   45.6733 H   0  0  0  0  0  0  0  0  0  0  0  0
   56.7859   20.9462   45.6733 H   0  0  0  0  0  0  0  0  0  0  0  0
   56.2411   18.7637   43.7333 H   0  0  0  0  0  0  0  0  0  0  0  0
   54.7850   19.6981   44.2199 H   0  0  0  0  0  0  0  0  0  0  0  0
   54.8170   22.2170   42.6930 H   0  0  0  0  0  0  0  0  0  0  0  0
   57.5240   26.0725   47.6389 H   0  0  0  0  0  0  0  0  0  0  0  0
   58.6185   24.6318   47.6282 H   0  0  0  0  0  0  0  0  0  0  0  0
   60.0964   26.2253   46.8565 H   0  0  0  0  0  0  0  0  0  0  0  0
   59.3609   25.6974   45.2866 H   0  0  0  0  0  0  0  0  0  0  0  0
   60.5310   28.5091   46.7574 H   0  0  0  0  0  0  0  0  0  0  0  0
   59.7263   30.8409   46.4260 H   0  0  0  0  0  0  0  0  0  0  0  0
   58.4885   33.1901   45.8292 H   0  0  0  0  0  0  0  0  0  0  0  0
   58.9322   32.2652   44.3547 H   0  0  0  0  0  0  0  0  0  0  0  0
   57.4695   33.3078   44.3547 H   0  0  0  0  0  0  0  0  0  0  0  0
   54.7355   30.5553   43.2903 H   0  0  0  0  0  0  0  0  0  0  0  0
   56.3932   30.0122   42.8616 H   0  0  0  0  0  0  0  0  0  0  0  0
   55.0349   28.8368   42.8616 H   0  0  0  0  0  0  0  0  0  0  0  0
   56.8017   26.9886   45.1727 H   0  0  0  0  0  0  0  0  0  0  0  0
  1  2  1  0
  2  3  1  0
  3  4  1  0
  4  5  2  0
  4  6  1  0
  6  7  2  0
  7  8  1  0
  7  9  1  0
  9 10  1  0
 10 11  2  0
 10 12  1  0
 12 13  1  0
 13 14  1  0
 14 15  1  0
 15 16  2  0
 16 17  1  0
 17 18  2  0
 18 19  1  0
 19 20  1  0
 18 21  1  0
 21 22  1  0
 22 23  1  0
 21 24  2  0
 12 25  1  0
 25 26  2  0
 25  6  1  0
 24 15  1  0
  1 27  1  0
  1 28  1  0
  1 29  1  0
  2 30  1  0
  2 31  1  0
  8 32  1  0
 13 33  1  0
 13 34  1  0
 14 35  1  0
 14 36  1  0
 16 37  1  0
 17 38  1  0
 20 39  1  0
 20 40  1  0
 20 41  1  0
 23 42  1  0
 23 43  1  0
 23 44  1  0
 24 45  1  0
M  CHG  1   9  -1
M  END
>  <UniqueID>  (69) 
63

>  <SMILES>  (69) 
CCOC(=O)c1c(O)[n-]c(=O)n(CCc2ccc(OC)c(OC)c2)c1=O

>  <Energy>  (69) 
45.873123026966205

>  <Genealogy>  (69) 
CCOC(=O)c1c(O)[n-]c(=O)n(CCc2ccc(OC)c(OC)c2)c1=O (protonated)
CCOC(=O)c1c(O)[n-]c(=O)n(CCc2ccc(OC)c(OC)c2)c1=O (3D coordinates assigned)
CCOC(=O)c1c(O)[n-]c(=O)n(CCc2ccc(OC)c(OC)c2)c1=O (optimized conformer: 45.873123026966205 kcal/mol)

>  <smiles>  (69) 
CCOC(=O)c1c(O)[nH]c(=O)n(CCc2ccc(OC)c(OC)c2)c1=O

>  <score_type>  (69) 
oracle

>  <origin>  (69) 
adg

>  <m_score__min__energy>  (69) 
-8.6300000000000008

>  <m_primary>  (69) 
energy

$$$$
69:0
     RDKit          3D

 41 44  0  0  0  0  0  0  0  0999 V2000
   58.3388   30.4358   48.1133 H   0  0  0  0  0  0  0  0  0  0  0  0
   59.3300   30.9110   48.0730 C   0  0  0  0  0  0  0  0  0  0  0  0
   59.5890   32.0480   48.8450 C   0  0  0  0  0  0  0  0  0  0  0  0
   58.8100   32.4506   49.5092 H   0  0  0  0  0  0  0  0  0  0  0  0
   60.8390   32.6740   48.7730 C   0  0  0  0  0  0  0  0  0  0  0  0
   61.1730   34.1290   49.7680 S   0  0  0  0  0  0  0  0  0  0  0  0
   59.7910   33.8160   50.9090 C   0  0  0  0  0  0  0  0  0  0  0  0
   60.1468   33.8966   51.9467 H   0  0  0  0  0  0  0  0  0  0  0  0
   58.9969   34.5570   50.7351 H   0  0  0  0  0  0  0  0  0  0  0  0
   59.3937   32.8051   50.7351 H   0  0  0  0  0  0  0  0  0  0  0  0
   61.8280   32.1630   47.9250 C   0  0  0  0  0  0  0  0  0  0  0  0
   62.8096   32.6559   47.8654 H   0  0  0  0  0  0  0  0  0  0  0  0
   61.5690   31.0270   47.1540 C   0  0  0  0  0  0  0  0  0  0  0  0
   62.3395   30.6414   46.4702 H   0  0  0  0  0  0  0  0  0  0  0  0
   60.3270   30.3750   47.2490 C   0  0  0  0  0  0  0  0  0  0  0  0
   60.0230   29.2420   46.4230 N   0  0  0  0  0  0  0  0  0  0  0  0
   58.8860   28.8570   45.8920 C   0  0  0  0  0  0  0  0  0  0  0  0
   58.1470   29.6270   44.9460 C   0  0  0  0  0  0  0  0  0  0  0  0
   58.7150   30.6670   44.1690 C   0  0  0  0  0  0  0  0  0  0  0  0
   59.7925   30.8749   44.2455 H   0  0  0  0  0  0  0  0  0  0  0  0
   57.9260   31.4310   43.3080 C   0  0  0  0  0  0  0  0  0  0  0  0
   58.3770   32.2596   42.7423 H   0  0  0  0  0  0  0  0  0  0  0  0
   56.5710   31.1490   43.1620 C   0  0  0  0  0  0  0  0  0  0  0  0
   55.9427   31.7809   42.5170 H   0  0  0  0  0  0  0  0  0  0  0  0
   56.0120   30.0640   43.8350 C   0  0  0  0  0  0  0  0  0  0  0  0
   54.9472   29.8254   43.6963 H   0  0  0  0  0  0  0  0  0  0  0  0
   56.7990   29.2720   44.6900 C   0  0  0  0  0  0  0  0  0  0  0  0
   56.2670   28.1430   45.2340 N   0  0  0  0  0  0  0  0  0  0  0  0
   55.2580   27.9490   45.0570 H   0  0  0  0  0  0  0  0  0  0  0  0
   57.0160   27.2670   45.9680 C   0  0  0  0  0  0  0  0  0  0  0  0
   56.4700   26.0340   46.4240 C   0  0  0  0  0  0  0  0  0  0  0  0
   55.1470   25.5330   45.9910 C   0  0  0  0  0  0  0  0  0  0  0  0
   54.1590   26.3140   45.9470 O   0  0  0  0  0  0  0  0  0  0  0  0
   54.9580   24.1870   45.7040 O   0  0  0  0  0  0  0  0  0  0  0  0
   57.2260   25.2220   47.2840 C   0  0  0  0  0  0  0  0  0  0  0  0
   56.7940   24.2853   47.6659 H   0  0  0  0  0  0  0  0  0  0  0  0
   58.5140   25.5870   47.6590 C   0  0  0  0  0  0  0  0  0  0  0  0
   59.0924   24.9391   48.3341 H   0  0  0  0  0  0  0  0  0  0  0  0
   59.0740   26.7680   47.1840 C   0  0  0  0  0  0  0  0  0  0  0  0
   60.0993   27.0390   47.4759 H   0  0  0  0  0  0  0  0  0  0  0  0
   58.3420   27.6240   46.3310 C   0  0  0  0  0  0  0  0  0  0  0  0
  1  2  1  0
  2  3  2  0
  3  4  1  0
  3  5  1  0
  5  6  1  0
  6  7  1  0
  7  8  1  0
  7  9  1  0
  7 10  1  0
  5 11  2  0
 11 12  1  0
 11 13  1  0
 13 14  1  0
 13 15  2  0
 15 16  1  0
 16 17  2  0
 17 18  1  0
 18 19  2  0
 19 20  1  0
 19 21  1  0
 21 22  1  0
 21 23  2  0
 23 24  1  0
 23 25  1  0
 25 26  1  0
 25 27  2  0
 27 28  1  0
 28 29  1  0
 28 30  1  0
 30 31  2  0
 31 32  1  0
 32 33  2  0
 32 34  1  0
 31 35  1  0
 35 36  1  0
 35 37  2  0
 37 38  1  0
 37 39  1  0
 39 40  1  0
 39 41  2  0
 15  2  1  0
 41 17  1  0
 27 18  1  0
 41 30  1  0
M  CHG  1  34  -1
M  END
>  <UniqueID>  (70) 
64

>  <SMILES>  (70) 
CSc1ccc(/N=c2\c3ccccc3[nH]c3c(C(=O)[O-])cccc23)cc1

>  <Energy>  (70) 
78.1513918257345

>  <Genealogy>  (70) 
CSc1ccc(N=c2c3ccccc3[nH]c3c(C(=O)[O-])cccc23)cc1 (protonated)
CSc1ccc(/N=c2\c3ccccc3[nH]c3c(C(=O)[O-])cccc23)cc1 (cis-trans isomerization)
CSc1ccc(/N=c2\c3ccccc3[nH]c3c(C(=O)[O-])cccc23)cc1 (3D coordinates assigned)
CSc1ccc(/N=c2\c3ccccc3[nH]c3c(C(=O)[O-])cccc23)cc1 (optimized conformer: 78.1513918257345 kcal/mol)

>  <smiles>  (70) 
CSc1ccc(N=c2c3ccccc3[nH]c3c(C(=O)O)cccc23)cc1

>  <score_type>  (70) 
oracle

>  <origin>  (70) 
adg

>  <m_score__min__energy>  (70) 
-11.06

>  <m_primary>  (70) 
energy

$$$$
70:0
     RDKit          3D

 50 54  0  0  1  0  0  0  0  0999 V2000
   59.4580   35.3800   46.5550 C   0  0  0  0  0  0  0  0  0  0  0  0
   58.7830   34.3140   45.7850 C   0  0  0  0  0  0  0  0  0  0  0  0
   57.7150   33.6420   46.3430 C   0  0  0  0  0  0  0  0  0  0  0  0
   57.0670   32.6420   45.6450 C   0  0  0  0  0  0  0  0  0  0  0  0
   57.4450   32.2610   44.3650 C   0  0  0  0  0  0  0  0  0  0  0  0
   56.7270   31.1840   43.6430 C   0  0  0  0  0  0  0  0  0  0  0  0
   56.2940   30.1780   44.5650 N   0  0  0  0  0  0  0  0  0  0  0  0
   57.6210   25.9160   46.3950 C   0  0  0  0  0  0  0  0  0  0  0  0
   56.7850   28.0630   45.3880 N   0  0  0  0  0  0  0  0  0  0  0  0
   57.6490   27.2510   46.0450 C   0  0  0  0  0  0  0  0  0  0  0  0
   59.1290   29.0310   46.3100 C   0  0  0  0  0  0  0  0  0  0  0  0
   56.6500   25.0420   46.1410 C   0  0  0  0  0  0  0  0  0  0  0  0
   56.6150   24.2750   44.8790 C   0  0  0  0  0  0  0  0  0  0  0  0
   56.1960   23.0040   44.7380 N   0  0  0  0  0  0  0  0  0  0  0  0
   56.3200   22.6660   43.4220 C   0  0  0  0  0  0  0  0  0  0  0  0
   56.0030   21.5260   42.9750 O   0  0  0  0  0  0  0  0  0  0  0  0
   56.8120   23.7330   42.7870 N   0  0  0  0  0  0  0  0  0  0  0  0
   57.0140   24.7560   43.6400 C   0  0  0  0  0  0  0  0  0  0  0  0
   57.5080   26.0070   43.3420 O   0  0  0  0  0  0  0  0  0  0  0  0
   58.7720   25.6100   47.0600 C   0  0  0  0  0  0  0  0  0  0  0  0
   59.4880   26.7620   47.1080 N   0  0  0  0  0  0  0  0  0  0  0  0
   58.8270   27.7350   46.5100 N   0  0  0  0  0  0  0  0  0  0  0  0
   57.0760   29.3660   45.1810 C   0  0  0  0  0  0  0  0  0  0  0  0
   60.2270   29.5760   46.7170 N   0  0  0  0  0  0  0  0  0  0  0  0
   60.2090   30.3380   47.9520 C   0  0  0  0  0  0  0  0  0  0  0  0
   59.0500   31.2000   48.3140 C   0  0  0  0  0  0  0  0  0  0  0  0
   60.3210   31.8320   47.8880 C   0  0  0  0  0  0  0  0  0  0  0  0
   58.2600   29.8340   45.6520 N   0  0  0  0  0  0  0  0  0  0  0  0
   58.5110   32.9350   43.8130 C   0  0  0  0  0  0  0  0  0  0  0  0
   59.1730   33.9480   44.5120 C   0  0  0  0  0  0  0  0  0  0  0  0
   59.3364   35.1880   47.6313 H   0  0  0  0  0  0  0  0  0  0  0  0
   60.5288   35.3922   46.3034 H   0  0  0  0  0  0  0  0  0  0  0  0
   59.0111   36.3531   46.3034 H   0  0  0  0  0  0  0  0  0  0  0  0
   57.3757   33.9058   47.3556 H   0  0  0  0  0  0  0  0  0  0  0  0
   56.2192   32.1280   46.1215 H   0  0  0  0  0  0  0  0  0  0  0  0
   55.8513   31.6100   43.1315 H   0  0  0  0  0  0  0  0  0  0  0  0
   57.4060   30.7294   42.9066 H   0  0  0  0  0  0  0  0  0  0  0  0
   55.8564   24.8874   46.8869 H   0  0  0  0  0  0  0  0  0  0  0  0
   55.8300   22.3640   45.4950 H   0  0  0  0  0  0  0  0  0  0  0  0
   57.0140   23.7690   41.7650 H   0  0  0  0  0  0  0  0  0  0  0  0
   57.0060   26.8560   43.5830 H   0  0  0  0  0  0  0  0  0  0  0  0
   59.0603   24.6317   47.4722 H   0  0  0  0  0  0  0  0  0  0  0  0
   60.7461   29.5220   48.4575 H   0  0  0  0  0  0  0  0  0  0  0  0
   58.1699   31.2404   47.6554 H   0  0  0  0  0  0  0  0  0  0  0  0
   58.3978   31.2903   49.1952 H   0  0  0  0  0  0  0  0  0  0  0  0
   60.3844   32.3378   46.9132 H   0  0  0  0  0  0  0  0  0  0  0  0
   61.0011   32.5807   48.3203 H   0  0  0  0  0  0  0  0  0  0  0  0
   58.5030   30.8440   45.5000 H   0  0  0  0  0  0  0  0  0  0  0  0
   58.8489   32.6705   42.8001 H   0  0  0  0  0  0  0  0  0  0  0  0
   60.0214   34.4639   44.0388 H   0  0  0  0  0  0  0  0  0  0  0  0
  1  2  1  0
  2  3  2  0
  3  4  1  0
  4  5  2  0
  5  6  1  0
  6  7  1  0
  7  8  2  0
  8  9  1  0
  9 10  2  0
 10 11  1  0
 11 12  2  0
 12 13  1  0
 13 14  1  0
 14 15  1  0
 15 16  2  0
 15 17  1  0
 17 18  1  0
 18 19  1  0
 11 20  1  0
 20 21  2  0
 21 22  1  0
 22 23  1  0
 23 24  2  0
 24 25  1  0
 25 26  1  0
 26 27  1  0
 23 28  1  0
  5 29  1  0
 29 30  2  0
 30  2  1  0
 28  8  1  0
 22 10  1  0
 27 25  1  0
 18 13  2  0
  1 31  1  0
  1 32  1  0
  1 33  1  0
  3 34  1  0
  4 35  1  0
  6 36  1  0
  6 37  1  0
 12 38  1  0
 14 39  1  0
 17 40  1  0
 19 41  1  0
 20 42  1  0
 25 43  1  0
 26 44  1  0
 26 45  1  0
 27 46  1  0
 27 47  1  0
 28 48  1  0
 29 49  1  0
 30 50  1  0
M  END
>  <smiles>  (71) 
Cc1ccc(CN=c2nc3c(=Cc4[nH]c(=O)[nH]c4O)cnn3c(=NC3CC3)[nH]2)cc1

>  <score_type>  (71) 
oracle

>  <origin>  (71) 
adg

>  <m_score__min__energy>  (71) 
-9.1500000000000004

>  <m_primary>  (71) 
energy

$$$$
71:0
     RDKit          3D

 38 40  0  0  0  0  0  0  0  0999 V2000
   55.9210   26.6770   46.4100 O   0  0  0  0  0  0  0  0  0  0  0  0
   56.4880   27.4740   45.6150 C   0  0  0  0  0  0  0  0  0  0  0  0
   55.7840   28.6630   45.2260 N   0  0  0  0  0  0  0  0  0  0  0  0
   55.9070   29.3660   43.9530 C   0  0  0  0  0  0  0  0  0  0  0  0
   56.6850   30.6340   44.1170 C   0  0  0  0  0  0  0  0  0  0  0  0
   57.4790   31.2290   43.1580 C   0  0  0  0  0  0  0  0  0  0  0  0
   57.9810   32.3700   43.7470 C   0  0  0  0  0  0  0  0  0  0  0  0
   57.4590   32.4010   45.0250 C   0  0  0  0  0  0  0  0  0  0  0  0
   56.6890   31.3540   45.2150 O   0  0  0  0  0  0  0  0  0  0  0  0
   57.8570   27.1210   45.0660 C   0  0  2  0  0  0  0  0  0  0  0  0
   58.4550   25.9140   45.8440 C   0  0  0  0  0  0  0  0  0  0  0  0
   59.9040   26.1420   46.2860 C   0  0  0  0  0  0  0  0  0  0  0  0
   60.0170   27.4410   47.0910 C   0  0  0  0  0  0  0  0  0  0  0  0
   59.3780   28.5720   46.3980 N   0  0  0  0  0  0  0  0  0  0  0  0
   59.4350   29.8840   46.9950 C   0  0  0  0  0  0  0  0  0  0  0  0
   58.8360   30.1290   48.1940 N   0  0  0  0  0  0  0  0  0  0  0  0
   58.8830   31.3590   48.7670 C   0  0  0  0  0  0  0  0  0  0  0  0
   59.5530   32.4000   48.1270 C   0  0  0  0  0  0  0  0  0  0  0  0
   60.1630   32.1390   46.9010 C   0  0  0  0  0  0  0  0  0  0  0  0
   60.0930   30.8960   46.3610 N   0  0  0  0  0  0  0  0  0  0  0  0
   58.7770   28.3640   45.0700 C   0  0  0  0  0  0  0  0  0  0  0  0
   56.4243   28.7167   43.2314 H   0  0  0  0  0  0  0  0  0  0  0  0
   54.8990   29.6161   43.5904 H   0  0  0  0  0  0  0  0  0  0  0  0
   57.6713   30.8683   42.1368 H   0  0  0  0  0  0  0  0  0  0  0  0
   58.6596   33.1062   43.2914 H   0  0  0  0  0  0  0  0  0  0  0  0
   57.6580   33.1843   45.7713 H   0  0  0  0  0  0  0  0  0  0  0  0
   57.7639   26.8047   44.0166 H   0  0  0  0  0  0  0  0  0  0  0  0
   57.8403   25.7348   46.7384 H   0  0  0  0  0  0  0  0  0  0  0  0
   58.4521   25.0506   45.1624 H   0  0  0  0  0  0  0  0  0  0  0  0
   60.2294   25.2979   46.9118 H   0  0  0  0  0  0  0  0  0  0  0  0
   60.5424   26.2178   45.3934 H   0  0  0  0  0  0  0  0  0  0  0  0
   59.5282   27.2990   48.0662 H   0  0  0  0  0  0  0  0  0  0  0  0
   61.0848   27.6749   47.2138 H   0  0  0  0  0  0  0  0  0  0  0  0
   58.3925   31.5338   49.7359 H   0  0  0  0  0  0  0  0  0  0  0  0
   59.5993   33.4023   48.5779 H   0  0  0  0  0  0  0  0  0  0  0  0
   60.7005   32.9397   46.3719 H   0  0  0  0  0  0  0  0  0  0  0  0
   58.1846   29.2508   44.8005 H   0  0  0  0  0  0  0  0  0  0  0  0
   59.5851   28.2040   44.3410 H   0  0  0  0  0  0  0  0  0  0  0  0
  1  2  2  0
  2  3  1  0
  3  4  1  0
  4  5  1  0
  5  6  2  0
  6  7  1  0
  7  8  2  0
  8  9  1  0
  2 10  1  0
 10 11  1  0
 11 12  1  0
 12 13  1  0
 13 14  1  0
 14 15  1  0
 15 16  2  0
 16 17  1  0
 17 18  2  0
 18 19  1  0
 19 20  2  0
 14 21  1  0
  9  5  1  0
 21 10  1  0
 20 15  1  0
  4 22  1  0
  4 23  1  0
  6 24  1  0
  7 25  1  0
  8 26  1  0
 10 27  1  6
 11 28  1  0
 11 29  1  0
 12 30  1  0
 12 31  1  0
 13 32  1  0
 13 33  1  0
 17 34  1  0
 18 35  1  0
 19 36  1  0
 21 37  1  0
 21 38  1  0
M  CHG  1   3  -1
M  END
>  <UniqueID>  (72) 
65

>  <SMILES>  (72) 
O=C([N-]Cc1ccco1)[C@@H]1CCCN(c2ncccn2)C1

>  <Energy>  (72) 
65.72235218567654

>  <Genealogy>  (72) 
O=C([N-]Cc1ccco1)C1CCCN(c2ncccn2)C1 (protonated)
O=C([N-]Cc1ccco1)[C@@H]1CCCN(c2ncccn2)C1 (chirality)
O=C([N-]Cc1ccco1)[C@@H]1CCCN(c2ncccn2)C1 (3D coordinates assigned)
O=C([N-]Cc1ccco1)[C@@H]1CCCN(c2ncccn2)C1 (nonaromatic ring conformer: 65.72235218567654 kcal/mol)

>  <smiles>  (72) 
O=C(NCc1ccco1)C1CCCN(c2ncccn2)C1

>  <score_type>  (72) 
oracle

>  <origin>  (72) 
adg

>  <m_score__min__energy>  (72) 
-9.2899999999999991

>  <m_primary>  (72) 
energy

$$$$
72:0
     RDKit          3D

 53 57  0  0  0  0  0  0  0  0999 V2000
   56.2630   29.9280   42.5830 C   0  0  0  0  0  0  0  0  0  0  0  0
   57.2260   30.9700   43.1550 C   0  0  0  0  0  0  0  0  0  0  0  0
   57.0040   31.2710   44.6490 C   0  0  1  0  0  0  0  0  0  0  0  0
   57.4560   30.1450   45.4650 N   0  0  0  0  0  0  0  0  0  0  0  0
   56.7450   28.9080   45.5580 C   0  0  0  0  0  0  0  0  0  0  0  0
   55.5950   28.8010   45.0550 O   0  0  0  0  0  0  0  0  0  0  0  0
   57.3440   27.7640   46.2720 C   0  0  0  0  0  0  0  0  0  0  0  0
   58.4510   27.7870   47.1230 C   0  0  0  0  0  0  0  0  0  0  0  0
   59.3500   28.9280   47.3960 C   0  0  0  0  0  0  0  0  0  0  0  0
   60.4080   29.2040   46.5160 C   0  0  0  0  0  0  0  0  0  0  0  0
   61.2650   30.2830   46.7500 C   0  0  0  0  0  0  0  0  0  0  0  0
   61.0670   31.1130   47.8640 C   0  0  0  0  0  0  0  0  0  0  0  0
   61.9240   32.1960   48.1100 C   0  0  0  0  0  0  0  0  0  0  0  0
   61.7110   33.0210   49.2190 C   0  0  0  0  0  0  0  0  0  0  0  0
   60.6440   32.7710   50.0860 C   0  0  0  0  0  0  0  0  0  0  0  0
   59.7830   31.6950   49.8510 C   0  0  0  0  0  0  0  0  0  0  0  0
   59.9870   30.8580   48.7430 C   0  0  0  0  0  0  0  0  0  0  0  0
   59.1310   29.7740   48.4980 C   0  0  0  0  0  0  0  0  0  0  0  0
   58.6410   26.5600   47.6640 N   0  0  0  0  0  0  0  0  0  0  0  0
   57.6550   25.8180   47.1260 C   0  0  0  0  0  0  0  0  0  0  0  0
   57.4230   24.4680   47.3920 C   0  0  0  0  0  0  0  0  0  0  0  0
   56.3280   23.8570   46.7630 C   0  0  0  0  0  0  0  0  0  0  0  0
   55.4970   24.5990   45.9050 C   0  0  0  0  0  0  0  0  0  0  0  0
   55.7750   25.9540   45.6740 C   0  0  0  0  0  0  0  0  0  0  0  0
   56.8590   26.5070   46.2870 N   0  0  0  0  0  0  0  0  0  0  0  0
   57.6780   32.5650   45.0720 C   0  0  0  0  0  0  0  0  0  0  0  0
   58.4300   33.2960   44.1370 C   0  0  0  0  0  0  0  0  0  0  0  0
   59.0640   34.4850   44.5110 C   0  0  0  0  0  0  0  0  0  0  0  0
   58.9640   34.9480   45.8250 C   0  0  0  0  0  0  0  0  0  0  0  0
   58.2350   34.2210   46.7690 C   0  0  0  0  0  0  0  0  0  0  0  0
   57.5950   33.0350   46.3980 C   0  0  0  0  0  0  0  0  0  0  0  0
   55.7690   29.3935   43.4078 H   0  0  0  0  0  0  0  0  0  0  0  0
   55.5042   30.4302   41.9650 H   0  0  0  0  0  0  0  0  0  0  0  0
   56.8234   29.2111   41.9650 H   0  0  0  0  0  0  0  0  0  0  0  0
   58.2537   30.6000   43.0252 H   0  0  0  0  0  0  0  0  0  0  0  0
   57.0428   31.9076   42.6097 H   0  0  0  0  0  0  0  0  0  0  0  0
   55.9244   31.4078   44.8097 H   0  0  0  0  0  0  0  0  0  0  0  0
   60.5641   28.5653   45.6341 H   0  0  0  0  0  0  0  0  0  0  0  0
   62.0972   30.4822   46.0588 H   0  0  0  0  0  0  0  0  0  0  0  0
   62.7648   32.3966   47.4296 H   0  0  0  0  0  0  0  0  0  0  0  0
   62.3853   33.8690   49.4093 H   0  0  0  0  0  0  0  0  0  0  0  0
   60.4810   33.4233   50.9566 H   0  0  0  0  0  0  0  0  0  0  0  0
   58.9438   31.5039   50.5360 H   0  0  0  0  0  0  0  0  0  0  0  0
   58.2828   29.5844   49.1723 H   0  0  0  0  0  0  0  0  0  0  0  0
   58.0767   23.9020   48.0720 H   0  0  0  0  0  0  0  0  0  0  0  0
   56.1184   22.7921   46.9419 H   0  0  0  0  0  0  0  0  0  0  0  0
   54.6347   24.1199   45.4183 H   0  0  0  0  0  0  0  0  0  0  0  0
   55.1333   26.5560   45.0138 H   0  0  0  0  0  0  0  0  0  0  0  0
   58.5207   32.9304   43.1035 H   0  0  0  0  0  0  0  0  0  0  0  0
   59.6420   35.0562   43.7696 H   0  0  0  0  0  0  0  0  0  0  0  0
   59.4596   35.8857   46.1166 H   0  0  0  0  0  0  0  0  0  0  0  0
   58.1645   34.5822   47.8056 H   0  0  0  0  0  0  0  0  0  0  0  0
   57.0233   32.4652   47.1453 H   0  0  0  0  0  0  0  0  0  0  0  0
  1  2  1  0
  2  3  1  0
  3  4  1  0
  4  5  1  0
  5  6  2  0
  5  7  1  0
  7  8  2  0
  8  9  1  0
  9 10  2  0
 10 11  1  0
 11 12  2  0
 12 13  1  0
 13 14  2  0
 14 15  1  0
 15 16  2  0
 16 17  1  0
 17 18  2  0
  8 19  1  0
 19 20  2  0
 20 21  1  0
 21 22  2  0
 22 23  1  0
 23 24  2  0
 24 25  1  0
  3 26  1  0
 26 27  2  0
 27 28  1  0
 28 29  2  0
 29 30  1  0
 30 31  2  0
 25  7  1  0
 31 26  1  0
 18  9  1  0
 25 20  1  0
 17 12  1  0
  1 32  1  0
  1 33  1  0
  1 34  1  0
  2 35  1  0
  2 36  1  0
  3 37  1  6
 10 38  1  0
 11 39  1  0
 13 40  1  0
 14 41  1  0
 15 42  1  0
 16 43  1  0
 18 44  1  0
 21 45  1  0
 22 46  1  0
 23 47  1  0
 24 48  1  0
 27 49  1  0
 28 50  1  0
 29 51  1  0
 30 52  1  0
 31 53  1  0
M  CHG  1   4  -1
M  END
>  <UniqueID>  (73) 
66

>  <SMILES>  (73) 
CC[C@@H]([N-]C(=O)c1c(-c2ccc3ccccc3c2)nc2ccccn12)c1ccccc1

>  <Energy>  (73) 
98.28668478277758

>  <Genealogy>  (73) 
CCC([N-]C(=O)c1c(-c2ccc3ccccc3c2)nc2ccccn12)c1ccccc1 (protonated)
CC[C@@H]([N-]C(=O)c1c(-c2ccc3ccccc3c2)nc2ccccn12)c1ccccc1 (chirality)
CC[C@@H]([N-]C(=O)c1c(-c2ccc3ccccc3c2)nc2ccccn12)c1ccccc1 (3D coordinates assigned)
CC[C@@H]([N-]C(=O)c1c(-c2ccc3ccccc3c2)nc2ccccn12)c1ccccc1 (optimized conformer: 98.28668478277758 kcal/mol)

>  <smiles>  (73) 
CCC(NC(=O)c1c(-c2ccc3ccccc3c2)nc2ccccn12)c1ccccc1

>  <score_type>  (73) 
oracle

>  <origin>  (73) 
adg

>  <m_score__min__energy>  (73) 
-10.58

>  <m_primary>  (73) 
energy

$$$$
73:0
     RDKit          3D

 68 72  0  0  0  0  0  0  0  0999 V2000
   59.1710   32.9970   50.8600 C   0  0  0  0  0  0  0  0  0  0  0  0
   59.2250   32.2110   49.6900 O   0  0  0  0  0  0  0  0  0  0  0  0
   59.0130   30.8460   49.9980 C   0  0  0  0  0  0  0  0  0  0  0  0
   60.3220   30.0640   49.8670 C   0  0  0  0  0  0  0  0  0  0  0  0
   61.3970   30.9390   49.5280 O   0  0  0  0  0  0  0  0  0  0  0  0
   62.6570   30.9730   50.1520 C   0  0  0  0  0  0  0  0  0  0  0  0
   63.1130   29.9250   50.9770 C   0  0  0  0  0  0  0  0  0  0  0  0
   64.3630   30.0030   51.5940 C   0  0  0  0  0  0  0  0  0  0  0  0
   65.1730   31.1210   51.3980 C   0  0  0  0  0  0  0  0  0  0  0  0
   64.7370   32.1650   50.5830 C   0  0  0  0  0  0  0  0  0  0  0  0
   63.4780   32.1060   49.9590 C   0  0  0  0  0  0  0  0  0  0  0  0
   63.0590   33.1820   49.0950 N   0  0  0  0  0  0  0  0  0  0  0  0
   63.4090   33.1870   47.6710 C   0  0  0  0  0  0  0  0  0  0  0  0
   62.1340   33.1770   46.7950 C   0  0  0  0  0  0  0  0  0  0  0  0
   60.9040   33.4170   47.5830 N   0  0  0  0  0  0  0  0  0  0  0  0
   59.5170   33.6480   46.5320 S   0  0  0  0  0  0  0  0  0  0  0  0
   59.8720   34.4820   45.3330 O   0  0  0  0  0  0  0  0  0  0  0  0
   58.4590   34.3850   47.3050 O   0  0  0  0  0  0  0  0  0  0  0  0
   58.8450   32.1380   45.9950 N   0  0  0  0  0  0  0  0  0  0  0  0
   58.7920   31.0050   46.7300 C   0  0  0  0  0  0  0  0  0  0  0  0
   58.1630   29.9900   46.0150 C   0  0  0  0  0  0  0  0  0  0  0  0
   57.8980   28.6300   46.5220 C   0  0  0  0  0  0  0  0  0  0  0  0
   58.5930   28.1810   47.4740 O   0  0  0  0  0  0  0  0  0  0  0  0
   56.8150   27.8560   45.9960 N   0  0  0  0  0  0  0  0  0  0  0  0
   56.8190   26.4360   45.8070 C   0  0  0  0  0  0  0  0  0  0  0  0
   58.0530   25.7750   45.7190 C   0  0  0  0  0  0  0  0  0  0  0  0
   58.1040   24.3860   45.5640 C   0  0  0  0  0  0  0  0  0  0  0  0
   56.9200   23.6450   45.5140 C   0  0  0  0  0  0  0  0  0  0  0  0
   55.6850   24.2930   45.6270 C   0  0  0  0  0  0  0  0  0  0  0  0
   55.6290   25.6830   45.7860 C   0  0  0  0  0  0  0  0  0  0  0  0
   54.4220   26.2750   45.9740 F   0  0  0  0  0  0  0  0  0  0  0  0
   57.8350   30.5470   44.7840 C   0  0  0  0  0  0  0  0  0  0  0  0
   57.2110   30.0080   43.6550 C   0  0  0  0  0  0  0  0  0  0  0  0
   57.0270   30.8430   42.5390 C   0  0  0  0  0  0  0  0  0  0  0  0
   57.4630   32.1840   42.5690 C   0  0  0  0  0  0  0  0  0  0  0  0
   58.0890   32.7040   43.7130 C   0  0  0  0  0  0  0  0  0  0  0  0
   58.2630   31.8560   44.8110 C   0  0  0  0  0  0  0  0  0  0  0  0
   61.0830   34.5540   48.5080 C   0  0  0  0  0  0  0  0  0  0  0  0
   62.1340   34.2150   49.5840 C   0  0  0  0  0  0  0  0  0  0  0  0
   59.2159   32.3431   51.7434 H   0  0  0  0  0  0  0  0  0  0  0  0
   60.0235   33.6920   50.8745 H   0  0  0  0  0  0  0  0  0  0  0  0
   58.2315   33.5689   50.8745 H   0  0  0  0  0  0  0  0  0  0  0  0
   58.6403   30.7601   51.0294 H   0  0  0  0  0  0  0  0  0  0  0  0
   58.2754   30.4304   49.2957 H   0  0  0  0  0  0  0  0  0  0  0  0
   60.5457   29.5702   50.8242 H   0  0  0  0  0  0  0  0  0  0  0  0
   60.2095   29.3144   49.0698 H   0  0  0  0  0  0  0  0  0  0  0  0
   62.4797   29.0397   51.1358 H   0  0  0  0  0  0  0  0  0  0  0  0
   64.7098   29.1803   52.2365 H   0  0  0  0  0  0  0  0  0  0  0  0
   66.1567   31.1794   51.8867 H   0  0  0  0  0  0  0  0  0  0  0  0
   65.3828   33.0416   50.4269 H   0  0  0  0  0  0  0  0  0  0  0  0
   63.9946   34.0906   47.4462 H   0  0  0  0  0  0  0  0  0  0  0  0
   63.9984   32.2853   47.4483 H   0  0  0  0  0  0  0  0  0  0  0  0
   62.2237   33.9644   46.0322 H   0  0  0  0  0  0  0  0  0  0  0  0
   62.0496   32.1799   46.3383 H   0  0  0  0  0  0  0  0  0  0  0  0
   60.7030   32.5580   48.1500 H   0  0  0  0  0  0  0  0  0  0  0  0
   59.1901   30.8999   47.7500 H   0  0  0  0  0  0  0  0  0  0  0  0
   58.9873   26.3532   45.7723 H   0  0  0  0  0  0  0  0  0  0  0  0
   59.0756   23.8769   45.4815 H   0  0  0  0  0  0  0  0  0  0  0  0
   56.9590   22.5532   45.3859 H   0  0  0  0  0  0  0  0  0  0  0  0
   54.7542   23.7079   45.5908 H   0  0  0  0  0  0  0  0  0  0  0  0
   56.8738   28.9611   43.6403 H   0  0  0  0  0  0  0  0  0  0  0  0
   56.5394   30.4475   41.6358 H   0  0  0  0  0  0  0  0  0  0  0  0
   57.3114   32.8272   41.6896 H   0  0  0  0  0  0  0  0  0  0  0  0
   58.4327   33.7485   43.7446 H   0  0  0  0  0  0  0  0  0  0  0  0
   61.4181   35.4339   47.9393 H   0  0  0  0  0  0  0  0  0  0  0  0
   60.1232   34.7647   49.0024 H   0  0  0  0  0  0  0  0  0  0  0  0
   62.7038   35.1227   49.8318 H   0  0  0  0  0  0  0  0  0  0  0  0
   61.6174   33.8348   50.4777 H   0  0  0  0  0  0  0  0  0  0  0  0
  1  2  1  0
  2  3  1  0
  3  4  1  0
  4  5  1  0
  5  6  1  0
  6  7  2  0
  7  8  1  0
  8  9  2  0
  9 10  1  0
 10 11  2  0
 11 12  1  0
 12 13  1  0
 13 14  1  0
 14 15  1  0
 15 16  1  0
 16 17  2  0
 16 18  2  0
 16 19  1  0
 19 20  1  0
 20 21  2  0
 21 22  1  0
 22 23  2  0
 22 24  1  0
 24 25  1  0
 25 26  2  0
 26 27  1  0
 27 28  2  0
 28 29  1  0
 29 30  2  0
 30 31  1  0
 21 32  1  0
 32 33  2  0
 33 34  1  0
 34 35  2  0
 35 36  1  0
 36 37  2  0
 15 38  1  0
 38 39  1  0
 11  6  1  0
 39 12  1  0
 37 19  1  0
 30 25  1  0
 37 32  1  0
  1 40  1  0
  1 41  1  0
  1 42  1  0
  3 43  1  0
  3 44  1  0
  4 45  1  0
  4 46  1  0
  7 47  1  0
  8 48  1  0
  9 49  1  0
 10 50  1  0
 13 51  1  0
 13 52  1  0
 14 53  1  0
 14 54  1  0
 15 55  1  0
 20 56  1  0
 26 57  1  0
 27 58  1  0
 28 59  1  0
 29 60  1  0
 33 61  1  0
 34 62  1  0
 35 63  1  0
 36 64  1  0
 38 65  1  0
 38 66  1  0
 39 67  1  0
 39 68  1  0
M  CHG  2  15   1  24  -1
M  END
>  <UniqueID>  (74) 
67

>  <SMILES>  (74) 
COCCOc1ccccc1N1CC[NH+](S(=O)(=O)n2cc(C(=O)[N-]c3ccccc3F)c3ccccc32)CC1

>  <Energy>  (74) 
125.98809660027403

>  <Genealogy>  (74) 
COCCOc1ccccc1N1CC[NH+](S(=O)(=O)n2cc(C(=O)[N-]c3ccccc3F)c3ccccc32)CC1 (protonated)
COCCOc1ccccc1N1CC[NH+](S(=O)(=O)n2cc(C(=O)[N-]c3ccccc3F)c3ccccc32)CC1 (3D coordinates assigned)
COCCOc1ccccc1N1CC[NH+](S(=O)(=O)n2cc(C(=O)[N-]c3ccccc3F)c3ccccc32)CC1 (nonaromatic ring conformer: 125.98809660027403 kcal/mol)

>  <smiles>  (74) 
COCCOc1ccccc1N1CCN(S(=O)(=O)n2cc(C(=O)Nc3ccccc3F)c3ccccc32)CC1

>  <score_type>  (74) 
oracle

>  <origin>  (74) 
adg

>  <m_score__min__energy>  (74) 
-9.2699999999999996

>  <m_primary>  (74) 
energy

$$$$
74:0
     RDKit          3D

 40 42  0  0  0  0  0  0  0  0999 V2000
   54.4600   29.3640   45.1080 H   0  0  0  0  0  0  0  0  0  0  0  0
   54.7890   29.3420   44.1170 N   0  0  0  0  0  0  0  0  0  0  0  0
   56.1540   29.6310   43.7830 C   0  0  0  0  0  0  0  0  0  0  0  0
   56.4370   29.9330   42.5890 O   0  0  0  0  0  0  0  0  0  0  0  0
   57.2080   29.5920   44.8380 C   0  0  0  0  0  0  0  0  0  0  0  0
   57.3620   28.4160   45.5950 C   0  0  0  0  0  0  0  0  0  0  0  0
   56.7151   27.5503   45.3899 H   0  0  0  0  0  0  0  0  0  0  0  0
   58.2980   28.3350   46.5750 N   0  0  0  0  0  0  0  0  0  0  0  0
   59.1410   29.3570   46.8660 C   0  0  0  0  0  0  0  0  0  0  0  0
   59.9880   29.2010   47.8460 N   0  0  0  0  0  0  0  0  0  0  0  0
   61.1060   30.0400   48.1780 C   0  0  0  0  0  0  0  0  0  0  0  0
   61.7330   30.7770   47.1660 C   0  0  0  0  0  0  0  0  0  0  0  0
   61.3944   30.6753   46.1244 H   0  0  0  0  0  0  0  0  0  0  0  0
   62.7880   31.6420   47.4740 C   0  0  0  0  0  0  0  0  0  0  0  0
   63.2887   32.2043   46.6721 H   0  0  0  0  0  0  0  0  0  0  0  0
   63.2090   31.7940   48.8040 C   0  0  0  0  0  0  0  0  0  0  0  0
   64.3060   32.6710   49.1170 C   0  0  0  0  0  0  0  0  0  0  0  0
   65.1860   33.3760   49.3740 N   0  0  0  0  0  0  0  0  0  0  0  0
   62.5550   31.0930   49.8240 C   0  0  0  0  0  0  0  0  0  0  0  0
   62.8707   31.2216   50.8698 H   0  0  0  0  0  0  0  0  0  0  0  0
   61.5000   30.2290   49.5130 C   0  0  0  0  0  0  0  0  0  0  0  0
   60.9757   29.6943   50.3187 H   0  0  0  0  0  0  0  0  0  0  0  0
   59.0320   30.5570   46.1390 C   0  0  0  0  0  0  0  0  0  0  0  0
   59.7040   31.3983   46.3641 H   0  0  0  0  0  0  0  0  0  0  0  0
   58.0690   30.6820   45.1290 C   0  0  0  0  0  0  0  0  0  0  0  0
   57.9850   32.2740   44.2800 S   0  0  0  0  0  0  0  0  0  0  0  0
   57.2610   33.1890   45.6880 C   0  0  0  0  0  0  0  0  0  0  0  0
   56.8791   34.1552   45.3265 H   0  0  0  0  0  0  0  0  0  0  0  0
   56.4507   32.5784   46.1130 H   0  0  0  0  0  0  0  0  0  0  0  0
   58.2750   33.4400   46.7700 C   0  0  0  0  0  0  0  0  0  0  0  0
   58.1480   32.8170   48.0240 C   0  0  0  0  0  0  0  0  0  0  0  0
   57.2925   32.1545   48.2222 H   0  0  0  0  0  0  0  0  0  0  0  0
   59.1050   33.0360   49.0210 C   0  0  0  0  0  0  0  0  0  0  0  0
   59.0026   32.5424   49.9987 H   0  0  0  0  0  0  0  0  0  0  0  0
   60.1920   33.8820   48.7760 C   0  0  0  0  0  0  0  0  0  0  0  0
   61.3870   34.1570   50.0300 Cl  0  0  0  0  0  0  0  0  0  0  0  0
   60.3150   34.5210   47.5370 C   0  0  0  0  0  0  0  0  0  0  0  0
   61.1603   35.1996   47.3499 H   0  0  0  0  0  0  0  0  0  0  0  0
   59.3630   34.2970   46.5360 C   0  0  0  0  0  0  0  0  0  0  0  0
   59.4673   34.7948   45.5606 H   0  0  0  0  0  0  0  0  0  0  0  0
  1  2  1  0
  2  3  1  0
  3  4  2  0
  3  5  1  0
  5  6  2  0
  6  7  1  0
  6  8  1  0
  8  9  1  0
  9 10  2  0
 10 11  1  0
 11 12  2  0
 12 13  1  0
 12 14  1  0
 14 15  1  0
 14 16  2  0
 16 17  1  0
 17 18  3  0
 16 19  1  0
 19 20  1  0
 19 21  2  0
 21 22  1  0
  9 23  1  0
 23 24  1  0
 23 25  2  0
 25 26  1  0
 26 27  1  0
 27 28  1  0
 27 29  1  0
 27 30  1  0
 30 31  2  0
 31 32  1  0
 31 33  1  0
 33 34  1  0
 33 35  2  0
 35 36  1  0
 35 37  1  0
 37 38  1  0
 37 39  2  0
 39 40  1  0
 25  5  1  0
 39 30  1  0
 21 11  1  0
M  CHG  2   2  -1   8  -1
M  END
>  <UniqueID>  (75) 
68

>  <SMILES>  (75) 
N#Cc1ccc(/N=c2\cc(SCc3ccc(Cl)cc3)c(C([NH-])=O)c[n-]2)cc1

>  <Energy>  (75) 
48.85225368564943

>  <Genealogy>  (75) 
N#Cc1ccc(N=c2cc(SCc3ccc(Cl)cc3)c(C([NH-])=O)c[n-]2)cc1 (protonated)
N#Cc1ccc(/N=c2\cc(SCc3ccc(Cl)cc3)c(C([NH-])=O)c[n-]2)cc1 (cis-trans isomerization)
N#Cc1ccc(/N=c2\cc(SCc3ccc(Cl)cc3)c(C([NH-])=O)c[n-]2)cc1 (3D coordinates assigned)
N#Cc1ccc(/N=c2\cc(SCc3ccc(Cl)cc3)c(C([NH-])=O)c[n-]2)cc1 (optimized conformer: 48.85225368564943 kcal/mol)

>  <smiles>  (75) 
N#Cc1ccc(N=c2cc(SCc3ccc(Cl)cc3)c(C(N)=O)c[nH]2)cc1

>  <score_type>  (75) 
oracle

>  <origin>  (75) 
adg

>  <m_score__min__energy>  (75) 
-12.42

>  <m_primary>  (75) 
energy

$$$$
75:0
     RDKit          3D

 35 37  0  0  0  0  0  0  0  0999 V2000
   55.1420   27.4910   45.3850 H   0  0  0  0  0  0  0  0  0  0  0  0
   54.9560   26.7150   46.0050 O   0  0  0  0  0  0  0  0  0  0  0  0
   55.7720   25.5860   46.0940 C   0  0  0  0  0  0  0  0  0  0  0  0
   55.1730   24.3330   45.9100 C   0  0  0  0  0  0  0  0  0  0  0  0
   54.1092   24.2731   45.6366 H   0  0  0  0  0  0  0  0  0  0  0  0
   55.9120   23.1600   46.0700 C   0  0  0  0  0  0  0  0  0  0  0  0
   55.4302   22.1820   45.9235 H   0  0  0  0  0  0  0  0  0  0  0  0
   57.2630   23.2280   46.4160 C   0  0  0  0  0  0  0  0  0  0  0  0
   57.9940   22.0580   46.5870 O   0  0  0  0  0  0  0  0  0  0  0  0
   57.8800   24.4700   46.5820 C   0  0  0  0  0  0  0  0  0  0  0  0
   58.9435   24.5164   46.8590 H   0  0  0  0  0  0  0  0  0  0  0  0
   57.1570   25.6610   46.3990 C   0  0  0  0  0  0  0  0  0  0  0  0
   57.8970   26.9340   46.5100 C   0  0  0  0  0  0  0  0  0  0  0  0
   58.2887   27.2468   47.4891 H   0  0  0  0  0  0  0  0  0  0  0  0
   58.0940   27.6910   45.4740 N   0  0  0  0  0  0  0  0  0  0  0  0
   58.2460   29.1140   45.5370 C   0  0  0  0  0  0  0  0  0  0  0  0
   59.4710   29.8550   46.4140 S   0  0  0  0  0  0  0  0  0  0  0  0
   59.0360   31.4220   46.0040 C   0  0  0  0  0  0  0  0  0  0  0  0
   57.9340   31.3970   45.1480 C   0  0  0  0  0  0  0  0  0  0  0  0
   57.4480   30.0890   44.9140 C   0  0  0  0  0  0  0  0  0  0  0  0
   56.1710   29.7930   44.2250 C   0  0  0  0  0  0  0  0  0  0  0  0
   55.9940   30.1610   43.0330 O   0  0  0  0  0  0  0  0  0  0  0  0
   55.1600   29.0950   44.8690 O   0  0  0  0  0  0  0  0  0  0  0  0
   57.2630   32.6760   44.7020 C   0  0  0  0  0  0  0  0  0  0  0  0
   57.0172   32.5931   43.6330 H   0  0  0  0  0  0  0  0  0  0  0  0
   56.3574   32.8128   45.3112 H   0  0  0  0  0  0  0  0  0  0  0  0
   58.1640   33.9080   44.9100 C   0  0  0  0  0  0  0  0  0  0  0  0
   58.9408   33.9172   44.1312 H   0  0  0  0  0  0  0  0  0  0  0  0
   57.5342   34.8078   44.8490 H   0  0  0  0  0  0  0  0  0  0  0  0
   58.8410   33.8900   46.2880 C   0  0  0  0  0  0  0  0  0  0  0  0
   59.4437   34.8027   46.4054 H   0  0  0  0  0  0  0  0  0  0  0  0
   58.0614   33.8428   47.0626 H   0  0  0  0  0  0  0  0  0  0  0  0
   59.7520   32.6640   46.4330 C   0  0  0  0  0  0  0  0  0  0  0  0
   60.6453   32.8012   45.8059 H   0  0  0  0  0  0  0  0  0  0  0  0
   60.0409   32.5598   47.4893 H   0  0  0  0  0  0  0  0  0  0  0  0
  1  2  1  0
  2  3  1  0
  3  4  2  0
  4  5  1  0
  4  6  1  0
  6  7  1  0
  6  8  2  0
  8  9  1  0
  8 10  1  0
 10 11  1  0
 10 12  2  0
 12 13  1  0
 13 14  1  0
 13 15  2  0
 15 16  1  0
 16 17  1  0
 17 18  1  0
 18 19  2  0
 19 20  1  0
 20 21  1  0
 21 22  2  0
 21 23  1  0
 19 24  1  0
 24 25  1  0
 24 26  1  0
 24 27  1  0
 27 28  1  0
 27 29  1  0
 27 30  1  0
 30 31  1  0
 30 32  1  0
 30 33  1  0
 33 34  1  0
 33 35  1  0
 12  3  1  0
 20 16  2  0
 33 18  1  0
M  CHG  2   9  -1  23  -1
M  END
>  <UniqueID>  (76) 
69

>  <SMILES>  (76) 
O=C([O-])c1c(/N=C/c2cc([O-])ccc2O)sc2c1CCCC2

>  <Energy>  (76) 
76.00312043939925

>  <Genealogy>  (76) 
O=C([O-])c1c(N=Cc2cc([O-])ccc2O)sc2c1CCCC2 (protonated)
O=C([O-])c1c(/N=C/c2cc([O-])ccc2O)sc2c1CCCC2 (cis-trans isomerization)
O=C([O-])c1c(/N=C/c2cc([O-])ccc2O)sc2c1CCCC2 (3D coordinates assigned)
O=C([O-])c1c(/N=C/c2cc([O-])ccc2O)sc2c1CCCC2 (nonaromatic ring conformer: 76.00312043939925 kcal/mol)

>  <smiles>  (76) 
O=C(O)c1c(N=Cc2cc(O)ccc2O)sc2c1CCCC2

>  <score_type>  (76) 
oracle

>  <origin>  (76) 
adg

>  <m_score__min__energy>  (76) 
-13.1

>  <m_primary>  (76) 
energy

$$$$
76:0
     RDKit          3D

 21 22  0  0  0  0  0  0  0  0999 V2000
   57.0400   28.3130   45.1760 C   0  0  0  0  0  0  0  0  0  0  0  0
   57.4040   28.7110   43.7510 C   0  0  0  0  0  0  0  0  0  0  0  0
   56.2960   30.0250   43.1340 S   0  0  0  0  0  0  0  0  0  0  0  0
   57.0860   31.3390   44.0610 C   0  0  0  0  0  0  0  0  0  0  0  0
   57.0310   31.4100   45.4160 N   0  0  0  0  0  0  0  0  0  0  0  0
   57.7420   32.5170   45.6730 C   0  0  0  0  0  0  0  0  0  0  0  0
   58.0200   33.0840   46.9140 C   0  0  0  0  0  0  0  0  0  0  0  0
   58.7960   34.2590   46.9380 C   0  0  0  0  0  0  0  0  0  0  0  0
   59.2670   34.8270   45.7320 C   0  0  0  0  0  0  0  0  0  0  0  0
   58.9670   34.2250   44.4960 C   0  0  0  0  0  0  0  0  0  0  0  0
   58.1970   33.0640   44.5130 C   0  0  0  0  0  0  0  0  0  0  0  0
   57.7950   32.3320   43.4640 N   0  0  0  0  0  0  0  0  0  0  0  0
   57.6070   28.9330   45.8860 H   0  0  0  0  0  0  0  0  0  0  0  0
   55.9623   28.4655   45.3354 H   0  0  0  0  0  0  0  0  0  0  0  0
   57.2879   27.2532   45.3354 H   0  0  0  0  0  0  0  0  0  0  0  0
   58.4410   29.0776   43.7338 H   0  0  0  0  0  0  0  0  0  0  0  0
   57.2959   27.8289   43.1027 H   0  0  0  0  0  0  0  0  0  0  0  0
   57.6464   32.6298   47.8436 H   0  0  0  0  0  0  0  0  0  0  0  0
   59.0367   34.7369   47.8991 H   0  0  0  0  0  0  0  0  0  0  0  0
   59.8718   35.7454   45.7601 H   0  0  0  0  0  0  0  0  0  0  0  0
   59.3275   34.6556   43.5502 H   0  0  0  0  0  0  0  0  0  0  0  0
  1  2  1  0
  2  3  1  0
  3  4  1  0
  4  5  2  0
  5  6  1  0
  6  7  2  0
  7  8  1  0
  8  9  2  0
  9 10  1  0
 10 11  2  0
 11 12  1  0
 12  4  1  0
 11  6  1  0
  1 13  1  0
  1 14  1  0
  1 15  1  0
  2 16  1  0
  2 17  1  0
  7 18  1  0
  8 19  1  0
  9 20  1  0
 10 21  1  0
M  CHG  1  12  -1
M  END
>  <UniqueID>  (77) 
70

>  <SMILES>  (77) 
CCSc1nc2ccccc2[n-]1

>  <Energy>  (77) 
49.94274984997389

>  <Genealogy>  (77) 
CCSc1nc2ccccc2[n-]1 (protonated)
CCSc1nc2ccccc2[n-]1 (3D coordinates assigned)
CCSc1nc2ccccc2[n-]1 (optimized conformer: 49.94274984997389 kcal/mol)

>  <smiles>  (77) 
CCSc1nc2ccccc2[nH]1

>  <score_type>  (77) 
oracle

>  <origin>  (77) 
adg

>  <m_score__min__energy>  (77) 
-6.5899999999999999

>  <m_primary>  (77) 
energy

$$$$
77:0
     RDKit          3D

 56 58  0  0  0  0  0  0  0  0999 V2000
   52.1090   29.7310   49.5620 C   0  0  0  0  0  0  0  0  0  0  0  0
   53.0960   29.9000   50.6210 N   0  0  0  0  0  0  0  0  0  0  0  0
   53.2040   31.1240   51.3600 C   0  0  0  0  0  0  0  0  0  0  0  0
   52.4890   32.1120   51.0420 O   0  0  0  0  0  0  0  0  0  0  0  0
   54.1180   31.2640   52.4550 N   0  0  0  0  0  0  0  0  0  0  0  0
   55.3850   30.1490   52.8470 S   0  0  0  0  0  0  0  0  0  0  0  0
   55.0180   28.7890   52.3250 O   0  0  0  0  0  0  0  0  0  0  0  0
   55.5400   30.0540   54.3380 O   0  0  0  0  0  0  0  0  0  0  0  0
   56.8910   30.6590   52.0860 C   0  0  0  0  0  0  0  0  0  0  0  0
   57.0350   31.9820   51.6460 C   0  0  0  0  0  0  0  0  0  0  0  0
   58.2300   32.3970   51.0520 C   0  0  0  0  0  0  0  0  0  0  0  0
   59.2890   31.4990   50.9020 C   0  0  0  0  0  0  0  0  0  0  0  0
   59.1540   30.1700   51.3370 C   0  0  0  0  0  0  0  0  0  0  0  0
   60.2380   29.2360   51.2560 N   0  0  0  0  0  0  0  0  0  0  0  0
   60.4440   28.2890   50.2000 C   0  0  0  0  0  0  0  0  0  0  0  0
   61.0110   27.1880   50.4390 O   0  0  0  0  0  0  0  0  0  0  0  0
   60.0660   28.6400   48.8190 C   0  0  0  0  0  0  0  0  0  0  0  0
   60.4900   29.8530   48.2510 C   0  0  0  0  0  0  0  0  0  0  0  0
   60.1610   30.1680   46.9280 C   0  0  0  0  0  0  0  0  0  0  0  0
   59.4470   29.2520   46.1390 C   0  0  0  0  0  0  0  0  0  0  0  0
   59.1680   29.5450   44.6850 C   0  0  0  0  0  0  0  0  0  0  0  0
   57.7890   29.2180   44.3140 N   0  0  0  0  0  0  0  0  0  0  0  0
   56.8580   30.6430   43.9420 S   0  0  0  0  0  0  0  0  0  0  0  0
   55.4790   30.5010   44.5210 O   0  0  0  0  0  0  0  0  0  0  0  0
   56.7370   30.8240   42.4540 O   0  0  0  0  0  0  0  0  0  0  0  0
   57.6410   32.0420   44.6750 C   0  0  0  0  0  0  0  0  0  0  0  0
   57.7620   32.1070   46.0680 C   0  0  0  0  0  0  0  0  0  0  0  0
   58.4590   33.1600   46.6660 C   0  0  0  0  0  0  0  0  0  0  0  0
   59.0340   34.1650   45.8770 C   0  0  0  0  0  0  0  0  0  0  0  0
   59.8260   35.2620   46.5260 C   0  0  0  0  0  0  0  0  0  0  0  0
   58.9200   34.0960   44.4800 C   0  0  0  0  0  0  0  0  0  0  0  0
   58.2200   33.0430   43.8810 C   0  0  0  0  0  0  0  0  0  0  0  0
   58.9960   28.0540   46.7150 C   0  0  0  0  0  0  0  0  0  0  0  0
   59.2950   27.7550   48.0470 C   0  0  0  0  0  0  0  0  0  0  0  0
   57.9540   29.7590   51.9290 C   0  0  0  0  0  0  0  0  0  0  0  0
   51.1180   29.5613   50.0081 H   0  0  0  0  0  0  0  0  0  0  0  0
   52.0805   30.6373   48.9393 H   0  0  0  0  0  0  0  0  0  0  0  0
   52.3836   28.8668   48.9393 H   0  0  0  0  0  0  0  0  0  0  0  0
   53.7310   29.1000   50.8230 H   0  0  0  0  0  0  0  0  0  0  0  0
   56.2061   32.6947   51.7684 H   0  0  0  0  0  0  0  0  0  0  0  0
   58.3368   33.4342   50.7015 H   0  0  0  0  0  0  0  0  0  0  0  0
   60.2309   31.8330   50.4423 H   0  0  0  0  0  0  0  0  0  0  0  0
   61.0840   30.5591   48.8498 H   0  0  0  0  0  0  0  0  0  0  0  0
   60.4630   31.1372   46.5043 H   0  0  0  0  0  0  0  0  0  0  0  0
   59.3416   30.6151   44.4987 H   0  0  0  0  0  0  0  0  0  0  0  0
   59.8403   28.9212   44.0776 H   0  0  0  0  0  0  0  0  0  0  0  0
   57.3065   31.3259   46.6944 H   0  0  0  0  0  0  0  0  0  0  0  0
   58.5567   33.2002   47.7609 H   0  0  0  0  0  0  0  0  0  0  0  0
   59.7570   35.1664   47.6197 H   0  0  0  0  0  0  0  0  0  0  0  0
   60.8790   35.1861   46.2170 H   0  0  0  0  0  0  0  0  0  0  0  0
   59.4226   36.2376   46.2170 H   0  0  0  0  0  0  0  0  0  0  0  0
   59.3827   34.8728   43.8535 H   0  0  0  0  0  0  0  0  0  0  0  0
   58.1236   33.0000   42.7861 H   0  0  0  0  0  0  0  0  0  0  0  0
   58.4043   27.3470   46.1150 H   0  0  0  0  0  0  0  0  0  0  0  0
   58.9243   26.8207   48.4938 H   0  0  0  0  0  0  0  0  0  0  0  0
   57.8442   28.7203   52.2741 H   0  0  0  0  0  0  0  0  0  0  0  0
  1  2  1  0
  2  3  1  0
  3  4  2  0
  3  5  1  0
  5  6  1  0
  6  7  2  0
  6  8  2  0
  6  9  1  0
  9 10  2  0
 10 11  1  0
 11 12  2  0
 12 13  1  0
 13 14  1  0
 14 15  1  0
 15 16  2  0
 15 17  1  0
 17 18  2  0
 18 19  1  0
 19 20  2  0
 20 21  1  0
 21 22  1  0
 22 23  1  0
 23 24  2  0
 23 25  2  0
 23 26  1  0
 26 27  2  0
 27 28  1  0
 28 29  2  0
 29 30  1  0
 29 31  1  0
 31 32  2  0
 20 33  1  0
 33 34  2  0
 13 35  2  0
 35  9  1  0
 34 17  1  0
 32 26  1  0
  1 36  1  0
  1 37  1  0
  1 38  1  0
  2 39  1  0
 10 40  1  0
 11 41  1  0
 12 42  1  0
 18 43  1  0
 19 44  1  0
 21 45  1  0
 21 46  1  0
 27 47  1  0
 28 48  1  0
 30 49  1  0
 30 50  1  0
 30 51  1  0
 31 52  1  0
 32 53  1  0
 33 54  1  0
 34 55  1  0
 35 56  1  0
M  CHG  3   5  -1  14  -1  22  -1
M  END
>  <UniqueID>  (78) 
71

>  <SMILES>  (78) 
CNC(=O)[N-]S(=O)(=O)c1cccc([N-]C(=O)c2ccc(C[N-]S(=O)(=O)c3ccc(C)cc3)cc2)c1

>  <Energy>  (78) 
56.82998066131407

>  <Genealogy>  (78) 
CNC(=O)[N-]S(=O)(=O)c1cccc([N-]C(=O)c2ccc(C[N-]S(=O)(=O)c3ccc(C)cc3)cc2)c1 (protonated)
CNC(=O)[N-]S(=O)(=O)c1cccc([N-]C(=O)c2ccc(C[N-]S(=O)(=O)c3ccc(C)cc3)cc2)c1 (3D coordinates assigned)
CNC(=O)[N-]S(=O)(=O)c1cccc([N-]C(=O)c2ccc(C[N-]S(=O)(=O)c3ccc(C)cc3)cc2)c1 (optimized conformer: 56.82998066131407 kcal/mol)

>  <smiles>  (78) 
CNC(=O)NS(=O)(=O)c1cccc(NC(=O)c2ccc(CNS(=O)(=O)c3ccc(C)cc3)cc2)c1

>  <score_type>  (78) 
oracle

>  <origin>  (78) 
adg

>  <m_score__min__energy>  (78) 
-13.640000000000001

>  <m_primary>  (78) 
energy

$$$$
78:0
     RDKit          3D

 50 54  0  0  0  0  0  0  0  0999 V2000
   54.8862   31.0348   44.0025 H   0  0  0  0  0  0  0  0  0  0  0  0
   55.8170   30.4500   44.0440 C   0  0  0  0  0  0  0  0  0  0  0  0
   56.0630   29.3730   43.2650 N   0  0  0  0  0  0  0  0  0  0  0  0
   57.2920   28.9980   43.6680 C   0  0  0  0  0  0  0  0  0  0  0  0
   57.8483   28.1443   43.2535 H   0  0  0  0  0  0  0  0  0  0  0  0
   57.7500   29.8010   44.6410 N   0  0  0  0  0  0  0  0  0  0  0  0
   59.0670   29.7440   45.2700 C   0  0  0  0  0  0  0  0  0  0  0  0
   59.6881   30.5649   44.8824 H   0  0  0  0  0  0  0  0  0  0  0  0
   59.5286   28.7732   45.0367 H   0  0  0  0  0  0  0  0  0  0  0  0
   58.9490   29.8770   46.7650 C   0  0  0  0  0  0  0  0  0  0  0  0
   58.6350   28.8920   47.6940 C   0  0  0  0  0  0  0  0  0  0  0  0
   58.3950   27.4550   47.4450 C   0  0  0  0  0  0  0  0  0  0  0  0
   59.3200   26.6210   47.6220 O   0  0  0  0  0  0  0  0  0  0  0  0
   57.0850   26.9710   47.1140 N   0  0  0  0  0  0  0  0  0  0  0  0
   56.7750   26.0660   46.2260 C   0  0  0  0  0  0  0  0  0  0  0  0
   55.5210   25.5370   46.2510 N   0  0  0  0  0  0  0  0  0  0  0  0
   55.1140   24.5880   45.3670 C   0  0  0  0  0  0  0  0  0  0  0  0
   54.0893   24.1914   45.4192 H   0  0  0  0  0  0  0  0  0  0  0  0
   55.9950   24.1170   44.3940 C   0  0  0  0  0  0  0  0  0  0  0  0
   55.6686   23.3564   43.6694 H   0  0  0  0  0  0  0  0  0  0  0  0
   57.2940   24.6210   44.3500 C   0  0  0  0  0  0  0  0  0  0  0  0
   58.0011   24.2539   43.5915 H   0  0  0  0  0  0  0  0  0  0  0  0
   57.6970   25.5910   45.2680 C   0  0  0  0  0  0  0  0  0  0  0  0
   58.7247   25.9826   45.2457 H   0  0  0  0  0  0  0  0  0  0  0  0
   58.5560   29.4440   48.9210 N   0  0  0  0  0  0  0  0  0  0  0  0
   58.8100   30.7390   48.8110 N   0  0  0  0  0  0  0  0  0  0  0  0
   58.8110   31.6260   49.9420 C   0  0  0  0  0  0  0  0  0  0  0  0
   57.7560   31.6150   50.8730 C   0  0  0  0  0  0  0  0  0  0  0  0
   56.9183   30.9140   50.7432 H   0  0  0  0  0  0  0  0  0  0  0  0
   57.7680   32.4910   51.9620 C   0  0  0  0  0  0  0  0  0  0  0  0
   56.9454   32.4708   52.6920 H   0  0  0  0  0  0  0  0  0  0  0  0
   58.8240   33.3930   52.1250 C   0  0  0  0  0  0  0  0  0  0  0  0
   58.8354   34.0771   52.9864 H   0  0  0  0  0  0  0  0  0  0  0  0
   59.8650   33.4250   51.1930 C   0  0  0  0  0  0  0  0  0  0  0  0
   60.6918   34.1398   51.3174 H   0  0  0  0  0  0  0  0  0  0  0  0
   59.8570   32.5500   50.1030 C   0  0  0  0  0  0  0  0  0  0  0  0
   60.6740   32.5851   49.3673 H   0  0  0  0  0  0  0  0  0  0  0  0
   59.0590   31.0410   47.5140 C   0  0  0  0  0  0  0  0  0  0  0  0
   59.2590   32.4020   46.9760 C   0  0  0  0  0  0  0  0  0  0  0  0
   60.5500   32.9460   46.8900 C   0  0  0  0  0  0  0  0  0  0  0  0
   61.4165   32.3574   47.2256 H   0  0  0  0  0  0  0  0  0  0  0  0
   60.7380   34.2340   46.3790 C   0  0  0  0  0  0  0  0  0  0  0  0
   61.7517   34.6560   46.3139 H   0  0  0  0  0  0  0  0  0  0  0  0
   59.6410   34.9860   45.9510 C   0  0  0  0  0  0  0  0  0  0  0  0
   59.8250   36.2330   45.4550 F   0  0  0  0  0  0  0  0  0  0  0  0
   58.3520   34.4490   46.0320 C   0  0  0  0  0  0  0  0  0  0  0  0
   57.4882   35.0408   45.6948 H   0  0  0  0  0  0  0  0  0  0  0  0
   58.1600   33.1610   46.5410 C   0  0  0  0  0  0  0  0  0  0  0  0
   57.1452   32.7408   46.6010 H   0  0  0  0  0  0  0  0  0  0  0  0
   56.8380   30.7270   44.8760 N   0  0  0  0  0  0  0  0  0  0  0  0
  1  2  1  0
  2  3  1  0
  3  4  2  0
  4  5  1  0
  4  6  1  0
  6  7  1  0
  7  8  1  0
  7  9  1  0
  7 10  1  0
 10 11  1  0
 11 12  1  0
 12 13  2  0
 12 14  1  0
 14 15  2  0
 15 16  1  0
 16 17  1  0
 17 18  1  0
 17 19  2  0
 19 20  1  0
 19 21  1  0
 21 22  1  0
 21 23  2  0
 23 24  1  0
 11 25  2  0
 25 26  1  0
 26 27  1  0
 27 28  2  0
 28 29  1  0
 28 30  1  0
 30 31  1  0
 30 32  2  0
 32 33  1  0
 32 34  1  0
 34 35  1  0
 34 36  2  0
 36 37  1  0
 26 38  1  0
 38 39  1  0
 39 40  2  0
 40 41  1  0
 40 42  1  0
 42 43  1  0
 42 44  2  0
 44 45  1  0
 44 46  1  0
 46 47  1  0
 46 48  2  0
 48 49  1  0
  6 50  1  0
 50  2  2  0
 38 10  2  0
 48 39  1  0
 23 15  1  0
 36 27  1  0
M  CHG  1  16  -1
M  END
>  <UniqueID>  (79) 
72

>  <SMILES>  (79) 
O=C(/N=c1\cccc[n-]1)c1nn(-c2ccccc2)c(-c2ccc(F)cc2)c1Cn1cncn1

>  <Energy>  (79) 
137.78537060242752

>  <Genealogy>  (79) 
O=C(N=c1cccc[n-]1)c1nn(-c2ccccc2)c(-c2ccc(F)cc2)c1Cn1cncn1 (protonated)
O=C(/N=c1\cccc[n-]1)c1nn(-c2ccccc2)c(-c2ccc(F)cc2)c1Cn1cncn1 (cis-trans isomerization)
O=C(/N=c1\cccc[n-]1)c1nn(-c2ccccc2)c(-c2ccc(F)cc2)c1Cn1cncn1 (3D coordinates assigned)
O=C(/N=c1\cccc[n-]1)c1nn(-c2ccccc2)c(-c2ccc(F)cc2)c1Cn1cncn1 (optimized conformer: 137.78537060242752 kcal/mol)

>  <smiles>  (79) 
O=C(N=c1cccc[nH]1)c1nn(-c2ccccc2)c(-c2ccc(F)cc2)c1Cn1cncn1

>  <score_type>  (79) 
oracle

>  <origin>  (79) 
adg

>  <m_score__min__energy>  (79) 
-10.84

>  <m_primary>  (79) 
energy

$$$$
79:0
     RDKit          3D

 49 52  0  0  0  0  0  0  0  0999 V2000
   55.5858   29.2531   53.4625 H   0  0  0  0  0  0  0  0  0  0  0  0
   56.2460   29.8990   52.8650 C   0  0  0  0  0  0  0  0  0  0  0  0
   57.1110   29.3460   51.9740 N   0  0  0  0  0  0  0  0  0  0  0  0
   57.9550   30.0990   51.2150 C   0  0  0  0  0  0  0  0  0  0  0  0
   58.7450   29.4890   50.3760 N   0  0  0  0  0  0  0  0  0  0  0  0
   59.1820   29.9540   49.0910 C   0  0  0  0  0  0  0  0  0  0  0  0
   58.5410   29.5170   47.9770 N   0  0  0  0  0  0  0  0  0  0  0  0
   58.9410   29.8960   46.7330 C   0  0  0  0  0  0  0  0  0  0  0  0
   58.3110   29.4990   45.6660 N   0  0  0  0  0  0  0  0  0  0  0  0
   56.9930   29.8860   45.2420 C   0  0  0  0  0  0  0  0  0  0  0  0
   56.0490   29.0520   45.2190 O   0  0  0  0  0  0  0  0  0  0  0  0
   56.7460   31.2180   44.7770 N   0  0  0  0  0  0  0  0  0  0  0  0
   57.4730   32.3950   45.1560 C   0  0  0  0  0  0  0  0  0  0  0  0
   58.2790   33.0980   44.2410 C   0  0  0  0  0  0  0  0  0  0  0  0
   58.3496   32.7573   43.1975 H   0  0  0  0  0  0  0  0  0  0  0  0
   58.9900   34.2280   44.6550 C   0  0  0  0  0  0  0  0  0  0  0  0
   59.6089   34.7797   43.9321 H   0  0  0  0  0  0  0  0  0  0  0  0
   58.9190   34.6620   45.9850 C   0  0  0  0  0  0  0  0  0  0  0  0
   59.6470   35.8180   46.4070 N   0  0  0  0  0  0  0  0  0  0  0  0
   59.2690   36.4460   47.1510 H   0  0  0  0  0  0  0  0  0  0  0  0
   60.5690   36.0550   45.9780 H   0  0  0  0  0  0  0  0  0  0  0  0
   58.1360   33.9470   46.9030 C   0  0  0  0  0  0  0  0  0  0  0  0
   58.0807   34.2772   47.9508 H   0  0  0  0  0  0  0  0  0  0  0  0
   57.4250   32.8150   46.4900 C   0  0  0  0  0  0  0  0  0  0  0  0
   56.8242   32.2513   47.2189 H   0  0  0  0  0  0  0  0  0  0  0  0
   60.0190   30.7110   46.5960 N   0  0  0  0  0  0  0  0  0  0  0  0
   60.7280   31.1460   47.6730 C   0  0  0  0  0  0  0  0  0  0  0  0
   61.8620   32.0120   47.4790 N   0  0  0  0  0  0  0  0  0  0  0  0
   63.2010   31.6190   47.9440 C   0  0  0  0  0  0  0  0  0  0  0  0
   63.0979   30.9992   48.8469 H   0  0  0  0  0  0  0  0  0  0  0  0
   63.6949   31.0578   47.1371 H   0  0  0  0  0  0  0  0  0  0  0  0
   64.0720   32.8540   48.2790 C   0  0  0  0  0  0  0  0  0  0  0  0
   64.2514   32.8676   49.3642 H   0  0  0  0  0  0  0  0  0  0  0  0
   65.0018   32.7566   47.6994 H   0  0  0  0  0  0  0  0  0  0  0  0
   63.4820   34.0890   47.9080 O   0  0  0  0  0  0  0  0  0  0  0  0
   62.9910   34.0130   46.5880 C   0  0  0  0  0  0  0  0  0  0  0  0
   62.7554   35.0242   46.2247 H   0  0  0  0  0  0  0  0  0  0  0  0
   63.7530   33.5602   45.9366 H   0  0  0  0  0  0  0  0  0  0  0  0
   61.7260   33.1560   46.5690 C   0  0  0  0  0  0  0  0  0  0  0  0
   60.8693   33.7693   46.8851 H   0  0  0  0  0  0  0  0  0  0  0  0
   61.5687   32.7793   45.5475 H   0  0  0  0  0  0  0  0  0  0  0  0
   60.3150   30.7680   48.9590 C   0  0  0  0  0  0  0  0  0  0  0  0
   60.8700   31.1042   49.8472 H   0  0  0  0  0  0  0  0  0  0  0  0
   57.9120   31.5050   51.3370 C   0  0  0  0  0  0  0  0  0  0  0  0
   58.5672   32.1354   50.7179 H   0  0  0  0  0  0  0  0  0  0  0  0
   57.0310   32.0890   52.2500 C   0  0  0  0  0  0  0  0  0  0  0  0
   56.9972   33.1830   52.3595 H   0  0  0  0  0  0  0  0  0  0  0  0
   56.1940   31.2840   53.0230 C   0  0  0  0  0  0  0  0  0  0  0  0
   55.5014   31.7359   53.7483 H   0  0  0  0  0  0  0  0  0  0  0  0
  1  2  1  0
  2  3  1  0
  3  4  1  0
  4  5  2  3
  5  6  1  0
  6  7  2  0
  7  8  1  0
  8  9  2  0
  9 10  1  0
 10 11  2  0
 10 12  1  0
 12 13  1  0
 13 14  2  0
 14 15  1  0
 14 16  1  0
 16 17  1  0
 16 18  2  0
 18 19  1  0
 19 20  1  0
 19 21  1  0
 18 22  1  0
 22 23  1  0
 22 24  2  0
 24 25  1  0
  8 26  1  0
 26 27  1  0
 27 28  1  0
 28 29  1  0
 29 30  1  0
 29 31  1  0
 29 32  1  0
 32 33  1  0
 32 34  1  0
 32 35  1  0
 35 36  1  0
 36 37  1  0
 36 38  1  0
 36 39  1  0
 39 40  1  0
 39 41  1  0
 27 42  2  0
 42 43  1  0
  4 44  1  0
 44 45  1  0
 44 46  2  0
 46 47  1  0
 46 48  1  0
 48 49  1  0
 48  2  2  0
 42  6  1  0
 24 13  1  0
 39 28  1  0
M  CHG  3   3  -1  12  -1  26  -1
M  END
>  <UniqueID>  (80) 
73

>  <SMILES>  (80) 
Nc1ccc([N-]C(=O)/N=c2\nc(N=c3cccc[n-]3)cc(N3CCOCC3)[n-]2)cc1

>  <Energy>  (80) 
78.14164015014457

>  <Genealogy>  (80) 
Nc1ccc([N-]C(=O)N=c2nc(N=c3cccc[n-]3)cc(N3CCOCC3)[n-]2)cc1 (protonated)
Nc1ccc([N-]C(=O)/N=c2\nc(N=c3cccc[n-]3)cc(N3CCOCC3)[n-]2)cc1 (cis-trans isomerization)
Nc1ccc([N-]C(=O)/N=c2\nc(N=c3cccc[n-]3)cc(N3CCOCC3)[n-]2)cc1 (3D coordinates assigned)
Nc1ccc([N-]C(=O)/N=c2\nc(N=c3cccc[n-]3)cc(N3CCOCC3)[n-]2)cc1 (nonaromatic ring conformer: 78.14164015014457 kcal/mol)

>  <smiles>  (80) 
Nc1ccc(NC(=O)N=c2nc(N=c3cccc[nH]3)cc(N3CCOCC3)[nH]2)cc1

>  <score_type>  (80) 
oracle

>  <origin>  (80) 
adg

>  <m_score__min__energy>  (80) 
-11.300000000000001

>  <m_primary>  (80) 
energy

$$$$
80:0
     RDKit          3D

 41 43  0  0  0  0  0  0  0  0999 V2000
   56.5040   30.0780   43.0140 C   0  0  0  0  0  0  0  0  0  0  0  0
   56.2200   29.9860   44.4760 C   0  0  0  0  0  0  0  0  0  0  0  0
   55.1570   29.4280   44.8620 O   0  0  0  0  0  0  0  0  0  0  0  0
   57.1350   30.5850   45.4060 N   0  0  0  0  0  0  0  0  0  0  0  0
   57.7190   31.7430   45.3090 C   0  0  0  0  0  0  0  0  0  0  0  0
   58.1760   32.4040   46.3930 N   0  0  0  0  0  0  0  0  0  0  0  0
   58.7400   33.5980   46.0600 C   0  0  0  0  0  0  0  0  0  0  0  0
   59.3030   34.4950   47.0790 C   0  0  0  0  0  0  0  0  0  0  0  0
   58.9260   35.6980   47.1240 O   0  0  0  0  0  0  0  0  0  0  0  0
   60.1940   33.9780   48.0780 N   0  0  0  0  0  0  0  0  0  0  0  0
   61.2830   33.2730   47.9350 C   0  0  0  0  0  0  0  0  0  0  0  0
   62.4680   33.9450   47.9830 N   0  0  0  0  0  0  0  0  0  0  0  0
   63.6660   33.3440   47.7750 C   0  0  0  0  0  0  0  0  0  0  0  0
   63.7210   31.9830   47.4950 C   0  0  0  0  0  0  0  0  0  0  0  0
   62.5420   31.2430   47.4800 C   0  0  0  0  0  0  0  0  0  0  0  0
   61.3050   31.8620   47.7230 C   0  0  0  0  0  0  0  0  0  0  0  0
   60.1430   31.0400   47.9370 N   0  0  0  0  0  0  0  0  0  0  0  0
   60.2080   29.5890   48.0990 C   0  0  0  0  0  0  0  0  0  0  0  0
   59.6650   28.8990   46.8760 C   0  0  0  0  0  0  0  0  0  0  0  0
   58.6110   27.9780   46.9980 C   0  0  0  0  0  0  0  0  0  0  0  0
   58.1050   27.3320   45.8660 C   0  0  0  0  0  0  0  0  0  0  0  0
   58.6440   27.6020   44.6060 C   0  0  0  0  0  0  0  0  0  0  0  0
   59.6870   28.5210   44.4750 C   0  0  0  0  0  0  0  0  0  0  0  0
   60.1960   29.1690   45.6050 C   0  0  0  0  0  0  0  0  0  0  0  0
   58.7330   33.8960   44.6970 C   0  0  0  0  0  0  0  0  0  0  0  0
   57.9970   32.6170   43.8920 S   0  0  0  0  0  0  0  0  0  0  0  0
   57.5405   30.4137   42.8622 H   0  0  0  0  0  0  0  0  0  0  0  0
   56.3672   29.0896   42.5510 H   0  0  0  0  0  0  0  0  0  0  0  0
   55.8137   30.7985   42.5510 H   0  0  0  0  0  0  0  0  0  0  0  0
   64.5936   33.9329   47.8278 H   0  0  0  0  0  0  0  0  0  0  0  0
   64.6855   31.4965   47.2876 H   0  0  0  0  0  0  0  0  0  0  0  0
   62.5796   30.1628   47.2758 H   0  0  0  0  0  0  0  0  0  0  0  0
   59.2130   31.5020   48.0410 H   0  0  0  0  0  0  0  0  0  0  0  0
   61.2551   29.2878   48.2501 H   0  0  0  0  0  0  0  0  0  0  0  0
   59.6018   29.2999   48.9702 H   0  0  0  0  0  0  0  0  0  0  0  0
   58.1822   27.7643   47.9882 H   0  0  0  0  0  0  0  0  0  0  0  0
   57.2813   26.6101   45.9678 H   0  0  0  0  0  0  0  0  0  0  0  0
   58.2467   27.0906   43.7168 H   0  0  0  0  0  0  0  0  0  0  0  0
   60.1088   28.7355   43.4820 H   0  0  0  0  0  0  0  0  0  0  0  0
   61.0164   29.8938   45.4972 H   0  0  0  0  0  0  0  0  0  0  0  0
   59.1376   34.8068   44.2315 H   0  0  0  0  0  0  0  0  0  0  0  0
  1  2  1  0
  2  3  2  0
  2  4  1  0
  4  5  2  3
  5  6  1  0
  6  7  1  0
  7  8  1  0
  8  9  2  0
  8 10  1  0
 10 11  2  3
 11 12  1  0
 12 13  1  0
 13 14  2  0
 14 15  1  0
 15 16  2  0
 16 17  1  0
 17 18  1  0
 18 19  1  0
 19 20  2  0
 20 21  1  0
 21 22  2  0
 22 23  1  0
 23 24  2  0
  7 25  2  0
 25 26  1  0
 26  5  1  0
 16 11  1  0
 24 19  1  0
  1 27  1  0
  1 28  1  0
  1 29  1  0
 13 30  1  0
 14 31  1  0
 15 32  1  0
 17 33  1  0
 18 34  1  0
 18 35  1  0
 20 36  1  0
 21 37  1  0
 22 38  1  0
 23 39  1  0
 24 40  1  0
 25 41  1  0
M  CHG  2   6  -1  12  -1
M  END
>  <UniqueID>  (81) 
74

>  <SMILES>  (81) 
CC(=O)N=c1[n-]c(C(=O)N=c2[n-]cccc2NCc2ccccc2)cs1

>  <Energy>  (81) 
90.41697328909352

>  <Genealogy>  (81) 
CC(=O)N=c1[n-]c(C(=O)N=c2[n-]cccc2NCc2ccccc2)cs1 (protonated)
CC(=O)N=c1[n-]c(C(=O)N=c2[n-]cccc2NCc2ccccc2)cs1 (3D coordinates assigned)
CC(=O)N=c1[n-]c(C(=O)N=c2[n-]cccc2NCc2ccccc2)cs1 (optimized conformer: 90.41697328909352 kcal/mol)

>  <smiles>  (81) 
CC(=O)N=c1[nH]c(C(=O)N=c2[nH]cccc2NCc2ccccc2)cs1

>  <score_type>  (81) 
oracle

>  <origin>  (81) 
adg

>  <m_score__min__energy>  (81) 
-12.01

>  <m_primary>  (81) 
energy

$$$$
81:0
     RDKit          3D

 58 62  0  0  0  0  0  0  0  0999 V2000
   59.3530   27.0300   47.2700 C   0  0  0  0  0  0  0  0  0  0  0  0
   58.5520   27.6580   46.1640 C   0  0  0  0  0  0  0  0  0  0  0  0
   58.0430   26.9940   45.0390 C   0  0  0  0  0  0  0  0  0  0  0  0
   58.1420   25.5330   44.6500 C   0  0  0  0  0  0  0  0  0  0  0  0
   57.3960   25.2020   43.3280 C   0  0  0  0  0  0  0  0  0  0  0  0
   56.5180   23.9440   43.4160 C   0  0  0  0  0  0  0  0  0  0  0  0
   57.2150   22.8710   44.1400 N   0  0  0  0  0  0  0  0  0  0  0  0
   57.1730   21.5110   43.6790 C   0  0  0  0  0  0  0  0  0  0  0  0
   56.5520   21.1980   42.6300 O   0  0  0  0  0  0  0  0  0  0  0  0
   57.8750   23.1460   45.4250 C   0  0  0  0  0  0  0  0  0  0  0  0
   57.7470   24.6200   45.8270 C   0  0  0  0  0  0  0  0  0  0  0  0
   57.4980   27.9670   44.2190 C   0  0  0  0  0  0  0  0  0  0  0  0
   57.6760   29.1650   44.8710 C   0  0  0  0  0  0  0  0  0  0  0  0
   58.2690   28.9840   46.0660 N   0  0  0  0  0  0  0  0  0  0  0  0
   58.5780   30.1020   46.9290 C   0  0  0  0  0  0  0  0  0  0  0  0
   58.7640   29.9650   48.3160 C   0  0  0  0  0  0  0  0  0  0  0  0
   59.0400   31.0830   49.1080 C   0  0  0  0  0  0  0  0  0  0  0  0
   59.1070   32.3650   48.5320 C   0  0  0  0  0  0  0  0  0  0  0  0
   59.3970   33.5130   49.2830 O   0  0  0  0  0  0  0  0  0  0  0  0
   60.2250   34.5840   48.8360 C   0  0  0  0  0  0  0  0  0  0  0  0
   61.5780   34.0440   48.4820 C   0  0  0  0  0  0  0  0  0  0  0  0
   61.9280   33.8380   47.1380 C   0  0  0  0  0  0  0  0  0  0  0  0
   63.2040   33.3710   46.8050 C   0  0  0  0  0  0  0  0  0  0  0  0
   64.1420   33.1200   47.8110 C   0  0  0  0  0  0  0  0  0  0  0  0
   63.8070   33.3400   49.1500 C   0  0  0  0  0  0  0  0  0  0  0  0
   62.5310   33.8060   49.4860 C   0  0  0  0  0  0  0  0  0  0  0  0
   58.8680   32.5120   47.1630 C   0  0  0  0  0  0  0  0  0  0  0  0
   58.5720   31.3970   46.3650 C   0  0  0  0  0  0  0  0  0  0  0  0
   58.3020   31.5680   44.8840 C   0  0  0  0  0  0  0  0  0  0  0  0
   57.2980   30.5240   44.3630 C   0  0  0  0  0  0  0  0  0  0  0  0
   58.9479   27.3476   48.2421 H   0  0  0  0  0  0  0  0  0  0  0  0
   59.2945   25.9346   47.1887 H   0  0  0  0  0  0  0  0  0  0  0  0
   60.4028   27.3482   47.1887 H   0  0  0  0  0  0  0  0  0  0  0  0
   59.1985   25.3238   44.4265 H   0  0  0  0  0  0  0  0  0  0  0  0
   56.7543   26.0565   43.0674 H   0  0  0  0  0  0  0  0  0  0  0  0
   58.1634   25.0072   42.5644 H   0  0  0  0  0  0  0  0  0  0  0  0
   55.5863   24.1907   43.9462 H   0  0  0  0  0  0  0  0  0  0  0  0
   56.2973   23.5958   42.3962 H   0  0  0  0  0  0  0  0  0  0  0  0
   57.6927   20.7296   44.2529 H   0  0  0  0  0  0  0  0  0  0  0  0
   57.4113   22.5230   46.2040 H   0  0  0  0  0  0  0  0  0  0  0  0
   58.9445   22.9128   45.3168 H   0  0  0  0  0  0  0  0  0  0  0  0
   56.7058   24.8285   46.1141 H   0  0  0  0  0  0  0  0  0  0  0  0
   58.4193   24.8188   46.6746 H   0  0  0  0  0  0  0  0  0  0  0  0
   57.0183   27.8129   43.2412 H   0  0  0  0  0  0  0  0  0  0  0  0
   58.6918   28.9708   48.7811 H   0  0  0  0  0  0  0  0  0  0  0  0
   59.2059   30.9599   50.1884 H   0  0  0  0  0  0  0  0  0  0  0  0
   59.7728   35.0541   47.9502 H   0  0  0  0  0  0  0  0  0  0  0  0
   60.3230   35.3344   49.6343 H   0  0  0  0  0  0  0  0  0  0  0  0
   61.1958   34.0447   46.3435 H   0  0  0  0  0  0  0  0  0  0  0  0
   63.4695   33.2012   45.7511 H   0  0  0  0  0  0  0  0  0  0  0  0
   65.1439   32.7493   47.5486 H   0  0  0  0  0  0  0  0  0  0  0  0
   64.5471   33.1466   49.9405 H   0  0  0  0  0  0  0  0  0  0  0  0
   62.2734   33.9865   50.5401 H   0  0  0  0  0  0  0  0  0  0  0  0
   58.9124   33.5119   46.7067 H   0  0  0  0  0  0  0  0  0  0  0  0
   57.8923   32.5740   44.7104 H   0  0  0  0  0  0  0  0  0  0  0  0
   59.2507   31.4297   44.3447 H   0  0  0  0  0  0  0  0  0  0  0  0
   56.2881   30.7791   44.7166 H   0  0  0  0  0  0  0  0  0  0  0  0
   57.3131   30.5199   43.2631 H   0  0  0  0  0  0  0  0  0  0  0  0
  1  2  1  0
  2  3  2  0
  3  4  1  0
  4  5  1  0
  5  6  1  0
  6  7  1  0
  7  8  1  0
  8  9  2  0
  7 10  1  0
 10 11  1  0
  3 12  1  0
 12 13  2  0
 13 14  1  0
 14 15  1  0
 15 16  2  0
 16 17  1  0
 17 18  2  0
 18 19  1  0
 19 20  1  0
 20 21  1  0
 21 22  2  0
 22 23  1  0
 23 24  2  0
 24 25  1  0
 25 26  2  0
 18 27  1  0
 27 28  2  0
 28 29  1  0
 29 30  1  0
 14  2  1  0
 28 15  1  0
 11  4  1  0
 30 13  1  0
 26 21  1  0
  1 31  1  0
  1 32  1  0
  1 33  1  0
  4 34  1  0
  5 35  1  0
  5 36  1  0
  6 37  1  0
  6 38  1  0
  8 39  1  0
 10 40  1  0
 10 41  1  0
 11 42  1  0
 11 43  1  0
 12 44  1  0
 16 45  1  0
 17 46  1  0
 20 47  1  0
 20 48  1  0
 22 49  1  0
 23 50  1  0
 24 51  1  0
 25 52  1  0
 26 53  1  0
 27 54  1  0
 29 55  1  0
 29 56  1  0
 30 57  1  0
 30 58  1  0
M  END
>  <UniqueID>  (82) 
75

>  <SMILES>  (82) 
Cc1c(C2CCN(C=O)CC2)cc2n1-c1ccc(OCc3ccccc3)cc1CC2

>  <Energy>  (82) 
98.21166357325933

>  <Genealogy>  (82) 
Cc1c(C2CCN(C=O)CC2)cc2n1-c1ccc(OCc3ccccc3)cc1CC2 (3D coordinates assigned)
Cc1c(C2CCN(C=O)CC2)cc2n1-c1ccc(OCc3ccccc3)cc1CC2 (nonaromatic ring conformer: 98.21166357325933 kcal/mol)

>  <smiles>  (82) 
Cc1c(C2CCN(C=O)CC2)cc2n1-c1ccc(OCc3ccccc3)cc1CC2

>  <score_type>  (82) 
oracle

>  <origin>  (82) 
adg

>  <m_score__min__energy>  (82) 
-9.5999999999999996

>  <m_primary>  (82) 
energy

$$$$
82:0
     RDKit          3D

 33 34  0  0  0  0  0  0  0  0999 V2000
   54.6910   27.0790   46.7090 H   0  0  0  0  0  0  0  0  0  0  0  0
   54.7520   26.3240   45.9900 N   0  0  0  0  0  0  0  0  0  0  0  0
   56.2880   25.5600   46.1890 S   0  0  0  0  0  0  0  0  0  0  0  0
   56.4900   24.5530   45.0920 O   0  0  0  0  0  0  0  0  0  0  0  0
   56.3290   24.8480   47.5120 O   0  0  0  0  0  0  0  0  0  0  0  0
   57.5610   26.7750   46.1270 C   0  0  0  0  0  0  0  0  0  0  0  0
   57.8880   27.5150   47.2720 C   0  0  0  0  0  0  0  0  0  0  0  0
   57.3399   27.3441   48.2103 H   0  0  0  0  0  0  0  0  0  0  0  0
   58.9080   28.4690   47.2250 C   0  0  0  0  0  0  0  0  0  0  0  0
   59.1642   29.0396   48.1299 H   0  0  0  0  0  0  0  0  0  0  0  0
   59.6070   28.7040   46.0330 C   0  0  0  0  0  0  0  0  0  0  0  0
   60.6610   29.6790   46.0360 N   0  0  0  0  0  0  0  0  0  0  0  0
   60.6940   30.8980   46.7880 C   0  0  0  0  0  0  0  0  0  0  0  0
   61.4890   31.0320   47.7580 O   0  0  0  0  0  0  0  0  0  0  0  0
   59.8190   32.0100   46.3760 C   0  0  0  0  0  0  0  0  0  0  0  0
   60.2701   32.9916   46.1688 H   0  0  0  0  0  0  0  0  0  0  0  0
   58.4930   31.8670   46.2450 C   0  0  0  0  0  0  0  0  0  0  0  0
   57.8554   32.1412   47.0984 H   0  0  0  0  0  0  0  0  0  0  0  0
   57.8350   31.3600   45.0150 C   0  0  0  0  0  0  0  0  0  0  0  0
   56.9940   30.2270   45.0150 C   0  0  0  0  0  0  0  0  0  0  0  0
   56.8140   29.6791   45.9517 H   0  0  0  0  0  0  0  0  0  0  0  0
   56.3880   29.7970   43.8300 C   0  0  0  0  0  0  0  0  0  0  0  0
   55.7376   28.9099   43.8374 H   0  0  0  0  0  0  0  0  0  0  0  0
   56.6060   30.4900   42.6380 C   0  0  0  0  0  0  0  0  0  0  0  0
   56.1338   30.1448   41.7064 H   0  0  0  0  0  0  0  0  0  0  0  0
   57.4240   31.6220   42.6290 C   0  0  0  0  0  0  0  0  0  0  0  0
   57.5900   32.1721   41.6910 H   0  0  0  0  0  0  0  0  0  0  0  0
   58.0320   32.0570   43.8100 C   0  0  0  0  0  0  0  0  0  0  0  0
   58.6704   32.9527   43.7965 H   0  0  0  0  0  0  0  0  0  0  0  0
   59.2990   27.9380   44.8950 C   0  0  0  0  0  0  0  0  0  0  0  0
   59.8636   28.0904   43.9633 H   0  0  0  0  0  0  0  0  0  0  0  0
   58.2780   26.9830   44.9420 C   0  0  0  0  0  0  0  0  0  0  0  0
   58.0374   26.3933   44.0451 H   0  0  0  0  0  0  0  0  0  0  0  0
  1  2  1  0
  2  3  1  0
  3  4  2  0
  3  5  2  0
  3  6  1  0
  6  7  2  0
  7  8  1  0
  7  9  1  0
  9 10  1  0
  9 11  2  0
 11 12  1  0
 12 13  1  0
 13 14  2  0
 13 15  1  0
 15 16  1  0
 15 17  2  0
 17 18  1  0
 17 19  1  0
 19 20  2  0
 20 21  1  0
 20 22  1  0
 22 23  1  0
 22 24  2  0
 24 25  1  0
 24 26  1  0
 26 27  1  0
 26 28  2  0
 28 29  1  0
 11 30  1  0
 30 31  1  0
 30 32  2  0
 32 33  1  0
 32  6  1  0
 28 19  1  0
M  CHG  2   2  -1  12  -1
M  END
>  <UniqueID>  (83) 
76

>  <SMILES>  (83) 
[NH-]S(=O)(=O)c1ccc([N-]C(=O)/C=C/c2ccccc2)cc1

>  <Energy>  (83) 
38.25661146325204

>  <Genealogy>  (83) 
[NH-]S(=O)(=O)c1ccc([N-]C(=O)C=Cc2ccccc2)cc1 (protonated)
[NH-]S(=O)(=O)c1ccc([N-]C(=O)/C=C/c2ccccc2)cc1 (cis-trans isomerization)
[NH-]S(=O)(=O)c1ccc([N-]C(=O)/C=C/c2ccccc2)cc1 (3D coordinates assigned)
[NH-]S(=O)(=O)c1ccc([N-]C(=O)/C=C/c2ccccc2)cc1 (optimized conformer: 38.25661146325204 kcal/mol)

>  <smiles>  (83) 
NS(=O)(=O)c1ccc(NC(=O)C=Cc2ccccc2)cc1

>  <score_type>  (83) 
oracle

>  <origin>  (83) 
adg

>  <m_score__min__energy>  (83) 
-11.630000000000001

>  <m_primary>  (83) 
energy

$$$$
83:0
     RDKit          3D

 45 46  0  0  0  0  0  0  0  0999 V2000
   56.3830   23.0490   41.8810 H   0  0  0  0  0  0  0  0  0  0  0  0
   55.9110   22.3780   42.5270 N   0  0  0  0  0  0  0  0  0  0  0  0
   56.4720   21.9730   43.6230 C   0  0  0  0  0  0  0  0  0  0  0  0
   56.3190   22.7740   44.8630 C   0  0  0  0  0  0  0  0  0  0  0  0
   56.2300   22.1350   46.1140 C   0  0  0  0  0  0  0  0  0  0  0  0
   56.2703   21.0372   46.1699 H   0  0  0  0  0  0  0  0  0  0  0  0
   56.0910   22.8830   47.2840 C   0  0  0  0  0  0  0  0  0  0  0  0
   56.0364   22.3731   48.2571 H   0  0  0  0  0  0  0  0  0  0  0  0
   56.0210   24.2750   47.2240 C   0  0  0  0  0  0  0  0  0  0  0  0
   55.9253   24.8592   48.1511 H   0  0  0  0  0  0  0  0  0  0  0  0
   56.0720   24.9310   45.9890 C   0  0  0  0  0  0  0  0  0  0  0  0
   55.9920   26.3640   45.9640 N   0  0  0  0  0  0  0  0  0  0  0  0
   57.0420   27.2790   46.3090 C   0  0  0  0  0  0  0  0  0  0  0  0
   57.8100   26.9800   47.2620 O   0  0  0  0  0  0  0  0  0  0  0  0
   57.2150   28.5770   45.6160 C   0  0  0  0  0  0  0  0  0  0  0  0
   58.2550   29.4430   45.9930 C   0  0  0  0  0  0  0  0  0  0  0  0
   58.9358   29.1573   46.8084 H   0  0  0  0  0  0  0  0  0  0  0  0
   58.4300   30.6660   45.3380 C   0  0  0  0  0  0  0  0  0  0  0  0
   59.2480   31.3363   45.6405 H   0  0  0  0  0  0  0  0  0  0  0  0
   57.5680   31.0430   44.2970 C   0  0  0  0  0  0  0  0  0  0  0  0
   57.7400   32.3740   43.6160 C   0  0  0  0  0  0  0  0  0  0  0  0
   58.6965   32.3815   43.0728 H   0  0  0  0  0  0  0  0  0  0  0  0
   56.9048   32.5258   42.9164 H   0  0  0  0  0  0  0  0  0  0  0  0
   57.7360   33.5110   44.6470 C   0  0  0  0  0  0  0  0  0  0  0  0
   57.0800   34.3159   44.2839 H   0  0  0  0  0  0  0  0  0  0  0  0
   57.3752   33.0998   45.6013 H   0  0  0  0  0  0  0  0  0  0  0  0
   59.1470   34.0890   44.8840 C   0  0  0  0  0  0  0  0  0  0  0  0
   59.8580   33.2528   44.9558 H   0  0  0  0  0  0  0  0  0  0  0  0
   59.3697   34.7551   44.0374 H   0  0  0  0  0  0  0  0  0  0  0  0
   59.2580   34.9330   46.1640 C   0  0  0  0  0  0  0  0  0  0  0  0
   60.2803   35.3333   46.2318 H   0  0  0  0  0  0  0  0  0  0  0  0
   58.5060   35.7329   46.0955 H   0  0  0  0  0  0  0  0  0  0  0  0
   58.9620   34.1370   47.4350 C   0  0  0  0  0  0  0  0  0  0  0  0
   59.1916   34.7543   48.3160 H   0  0  0  0  0  0  0  0  0  0  0  0
   57.8989   33.8550   47.4518 H   0  0  0  0  0  0  0  0  0  0  0  0
   59.5826   33.2289   47.4518 H   0  0  0  0  0  0  0  0  0  0  0  0
   56.5090   30.1940   43.9410 C   0  0  0  0  0  0  0  0  0  0  0  0
   55.8131   30.4922   43.1430 H   0  0  0  0  0  0  0  0  0  0  0  0
   56.3340   28.9720   44.5950 C   0  0  0  0  0  0  0  0  0  0  0  0
   55.5003   28.3141   44.3086 H   0  0  0  0  0  0  0  0  0  0  0  0
   56.2430   24.1790   44.8130 C   0  0  0  0  0  0  0  0  0  0  0  0
   56.3182   24.6939   43.8439 H   0  0  0  0  0  0  0  0  0  0  0  0
   57.2230   20.7510   43.6210 N   0  0  0  0  0  0  0  0  0  0  0  0
   57.3860   20.2310   42.7310 H   0  0  0  0  0  0  0  0  0  0  0  0
   57.5500   20.3110   44.5090 H   0  0  0  0  0  0  0  0  0  0  0  0
  1  2  1  0
  2  3  2  0
  3  4  1  0
  4  5  2  0
  5  6  1  0
  5  7  1  0
  7  8  1  0
  7  9  2  0
  9 10  1  0
  9 11  1  0
 11 12  1  0
 12 13  1  0
 13 14  2  0
 13 15  1  0
 15 16  2  0
 16 17  1  0
 16 18  1  0
 18 19  1  0
 18 20  2  0
 20 21  1  0
 21 22  1  0
 21 23  1  0
 21 24  1  0
 24 25  1  0
 24 26  1  0
 24 27  1  0
 27 28  1  0
 27 29  1  0
 27 30  1  0
 30 31  1  0
 30 32  1  0
 30 33  1  0
 33 34  1  0
 33 35  1  0
 33 36  1  0
 20 37  1  0
 37 38  1  0
 37 39  2  0
 39 40  1  0
 11 41  2  0
 41 42  1  0
  3 43  1  0
 43 44  1  0
 43 45  1  0
 41  4  1  0
 39 15  1  0
M  CHG  1  12  -1
M  END
>  <UniqueID>  (84) 
77

>  <SMILES>  (84) 
[H]/N=C(\N)c1cccc([N-]C(=O)c2ccc(CCCCC)cc2)c1

>  <Energy>  (84) 
46.797556199102516

>  <Genealogy>  (84) 
CCCCCc1ccc(C(=O)[N-]c2cccc(C(=N)N)c2)cc1 (protonated)
[H]/N=C(\N)c1cccc([N-]C(=O)c2ccc(CCCCC)cc2)c1 (cis-trans isomerization)
[H]/N=C(\N)c1cccc([N-]C(=O)c2ccc(CCCCC)cc2)c1 (3D coordinates assigned)
[H]/N=C(\N)c1cccc([N-]C(=O)c2ccc(CCCCC)cc2)c1 (optimized conformer: 46.797556199102516 kcal/mol)

>  <smiles>  (84) 
CCCCCc1ccc(C(=O)Nc2cccc(C(=N)N)c2)cc1

>  <score_type>  (84) 
oracle

>  <origin>  (84) 
adg

>  <m_score__min__energy>  (84) 
-9.7599999999999998

>  <m_primary>  (84) 
energy

$$$$
84:0
     RDKit          3D

 52 54  0  0  0  0  0  0  0  0999 V2000
   55.9880   29.7190   43.3820 C   0  0  0  0  0  0  0  0  0  0  0  0
   56.1590   29.3390   44.7440 O   0  0  0  0  0  0  0  0  0  0  0  0
   57.2330   29.6850   45.5850 C   0  0  0  0  0  0  0  0  0  0  0  0
   57.8020   28.6850   46.4120 C   0  0  0  0  0  0  0  0  0  0  0  0
   57.2780   27.3790   46.4810 O   0  0  0  0  0  0  0  0  0  0  0  0
   57.3520   26.3530   45.4960 C   0  0  0  0  0  0  0  0  0  0  0  0
   58.9360   28.9880   47.2120 C   0  0  0  0  0  0  0  0  0  0  0  0
   59.6400   27.9790   47.9000 O   0  0  0  0  0  0  0  0  0  0  0  0
   60.3560   26.8800   47.3450 C   0  0  0  0  0  0  0  0  0  0  0  0
   59.4210   30.3250   47.2900 C   0  0  0  0  0  0  0  0  0  0  0  0
   60.4560   30.7400   48.1920 C   0  0  0  0  0  0  0  0  0  0  0  0
   60.8740   29.8600   49.3620 C   0  0  0  0  0  0  0  0  0  0  0  0
   61.0490   31.9780   48.0340 N   0  0  0  0  0  0  0  0  0  0  0  0
   62.1930   32.3450   48.8370 C   0  0  0  0  0  0  0  0  0  0  0  0
   61.9880   32.9070   50.1070 C   0  0  0  0  0  0  0  0  0  0  0  0
   63.0770   33.2580   50.9060 C   0  0  0  0  0  0  0  0  0  0  0  0
   64.3790   33.0510   50.4440 C   0  0  0  0  0  0  0  0  0  0  0  0
   64.5950   32.4990   49.1790 C   0  0  0  0  0  0  0  0  0  0  0  0
   63.5090   32.1440   48.3650 C   0  0  0  0  0  0  0  0  0  0  0  0
   63.7500   31.6000   47.0620 N   0  0  0  0  0  0  0  0  0  0  0  0
   60.5910   32.8710   47.0970 C   0  0  0  0  0  0  0  0  0  0  0  0
   61.2370   34.2250   46.9090 C   0  0  0  0  0  0  0  0  0  0  0  0
   59.4760   32.5540   46.3250 C   0  0  0  0  0  0  0  0  0  0  0  0
   58.8760   31.2940   46.4170 C   0  0  0  0  0  0  0  0  0  0  0  0
   57.7540   30.9940   45.6200 C   0  0  0  0  0  0  0  0  0  0  0  0
   57.1400   32.0120   44.8840 O   0  0  0  0  0  0  0  0  0  0  0  0
   56.7220   33.2260   45.5020 C   0  0  0  0  0  0  0  0  0  0  0  0
   55.5370   30.7212   43.3348 H   0  0  0  0  0  0  0  0  0  0  0  0
   56.9665   29.7332   42.8797 H   0  0  0  0  0  0  0  0  0  0  0  0
   55.3284   28.9961   42.8797 H   0  0  0  0  0  0  0  0  0  0  0  0
   57.4227   25.3735   45.9915 H   0  0  0  0  0  0  0  0  0  0  0  0
   56.4494   26.3819   44.8679 H   0  0  0  0  0  0  0  0  0  0  0  0
   58.2411   26.5112   44.8679 H   0  0  0  0  0  0  0  0  0  0  0  0
   60.7609   26.2585   48.1572 H   0  0  0  0  0  0  0  0  0  0  0  0
   59.6775   26.2761   46.7246 H   0  0  0  0  0  0  0  0  0  0  0  0
   61.1826   27.2566   46.7246 H   0  0  0  0  0  0  0  0  0  0  0  0
   60.6327   30.3680   50.3074 H   0  0  0  0  0  0  0  0  0  0  0  0
   60.3344   28.9028   49.3120 H   0  0  0  0  0  0  0  0  0  0  0  0
   61.9569   29.6735   49.3120 H   0  0  0  0  0  0  0  0  0  0  0  0
   60.9642   33.0715   50.4741 H   0  0  0  0  0  0  0  0  0  0  0  0
   62.9100   33.6980   51.9003 H   0  0  0  0  0  0  0  0  0  0  0  0
   65.2360   33.3232   51.0776 H   0  0  0  0  0  0  0  0  0  0  0  0
   65.6225   32.3418   48.8191 H   0  0  0  0  0  0  0  0  0  0  0  0
   63.1170   30.8840   46.6430 H   0  0  0  0  0  0  0  0  0  0  0  0
   64.5660   31.9220   46.4940 H   0  0  0  0  0  0  0  0  0  0  0  0
   61.4492   34.6697   47.8925 H   0  0  0  0  0  0  0  0  0  0  0  0
   62.1765   34.1084   46.3489 H   0  0  0  0  0  0  0  0  0  0  0  0
   60.5553   34.8819   46.3489 H   0  0  0  0  0  0  0  0  0  0  0  0
   59.0622   33.3037   45.6345 H   0  0  0  0  0  0  0  0  0  0  0  0
   56.7609   33.1131   46.5955 H   0  0  0  0  0  0  0  0  0  0  0  0
   57.3904   34.0434   45.1938 H   0  0  0  0  0  0  0  0  0  0  0  0
   55.6920   33.4586   45.1938 H   0  0  0  0  0  0  0  0  0  0  0  0
  1  2  1  0
  2  3  1  0
  3  4  2  0
  4  5  1  0
  5  6  1  0
  4  7  1  0
  7  8  1  0
  8  9  1  0
  7 10  2  0
 10 11  1  0
 11 12  1  0
 11 13  2  0
 13 14  1  0
 14 15  2  0
 15 16  1  0
 16 17  2  0
 17 18  1  0
 18 19  2  0
 19 20  1  0
 13 21  1  0
 21 22  1  0
 21 23  2  0
 23 24  1  0
 24 25  2  0
 25 26  1  0
 26 27  1  0
 25  3  1  0
 24 10  1  0
 19 14  1  0
  1 28  1  0
  1 29  1  0
  1 30  1  0
  6 31  1  0
  6 32  1  0
  6 33  1  0
  9 34  1  0
  9 35  1  0
  9 36  1  0
 12 37  1  0
 12 38  1  0
 12 39  1  0
 15 40  1  0
 16 41  1  0
 17 42  1  0
 18 43  1  0
 20 44  1  0
 20 45  1  0
 22 46  1  0
 22 47  1  0
 22 48  1  0
 23 49  1  0
 27 50  1  0
 27 51  1  0
 27 52  1  0
M  CHG  1  13   1
M  END
>  <UniqueID>  (85) 
78

>  <SMILES>  (85) 
COc1c(OC)c(OC)c2c(C)[n+](-c3ccccc3N)c(C)cc2c1OC

>  <Energy>  (85) 
94.5938633592788

>  <Genealogy>  (85) 
COc1c(OC)c(OC)c2c(C)[n+](-c3ccccc3N)c(C)cc2c1OC (3D coordinates assigned)
COc1c(OC)c(OC)c2c(C)[n+](-c3ccccc3N)c(C)cc2c1OC (optimized conformer: 94.5938633592788 kcal/mol)

>  <smiles>  (85) 
COc1c(OC)c(OC)c2c(C)[n+](-c3ccccc3N)c(C)cc2c1OC

>  <score_type>  (85) 
oracle

>  <origin>  (85) 
adg

>  <m_score__min__energy>  (85) 
-5.3799999999999999

>  <m_primary>  (85) 
energy

$$$$
85:0
     RDKit          3D

 42 44  0  0  0  0  0  0  0  0999 V2000
   56.6590   30.9520   42.5620 O   0  0  0  0  0  0  0  0  0  0  0  0
   56.6290   30.3320   43.9300 S   0  0  0  0  0  0  0  0  0  0  0  0
   55.2390   30.4540   44.4920 O   0  0  0  0  0  0  0  0  0  0  0  0
   57.0430   28.6500   43.8050 N   0  0  0  0  0  0  0  0  0  0  0  0
   57.9240   27.9710   44.7180 C   0  0  0  0  0  0  0  0  0  0  0  0
   57.3740   27.1330   45.7030 C   0  0  0  0  0  0  0  0  0  0  0  0
   58.2030   26.4520   46.6000 C   0  0  0  0  0  0  0  0  0  0  0  0
   59.5890   26.6050   46.5260 C   0  0  0  0  0  0  0  0  0  0  0  0
   60.3920   25.9440   47.3960 F   0  0  0  0  0  0  0  0  0  0  0  0
   60.1480   27.4410   45.5560 C   0  0  0  0  0  0  0  0  0  0  0  0
   59.3240   28.1250   44.6580 C   0  0  0  0  0  0  0  0  0  0  0  0
   57.7920   31.1650   44.9560 C   0  0  0  0  0  0  0  0  0  0  0  0
   58.3110   32.4090   44.5760 C   0  0  0  0  0  0  0  0  0  0  0  0
   59.2180   33.0750   45.4050 C   0  0  0  0  0  0  0  0  0  0  0  0
   59.6140   32.5030   46.6250 C   0  0  0  0  0  0  0  0  0  0  0  0
   60.5430   33.1850   47.4820 N   0  0  0  0  0  0  0  0  0  0  0  0
   61.7480   33.8050   46.9260 C   0  0  0  0  0  0  0  0  0  0  0  0
   62.9120   33.7510   47.9250 C   0  0  0  0  0  0  0  0  0  0  0  0
   62.6120   34.5400   49.2100 C   0  0  0  0  0  0  0  0  0  0  0  0
   61.5160   33.8770   50.0480 C   0  0  0  0  0  0  0  0  0  0  0  0
   60.0420   33.6690   49.0710 S   0  0  0  0  0  0  0  0  0  0  0  0
   59.2870   34.9650   48.9920 O   0  0  0  0  0  0  0  0  0  0  0  0
   59.1770   32.6160   49.7040 O   0  0  0  0  0  0  0  0  0  0  0  0
   59.1030   31.2500   46.9950 C   0  0  0  0  0  0  0  0  0  0  0  0
   58.1970   30.5850   46.1650 C   0  0  0  0  0  0  0  0  0  0  0  0
   56.6870   28.1370   42.9680 H   0  0  0  0  0  0  0  0  0  0  0  0
   56.2827   27.0118   45.7689 H   0  0  0  0  0  0  0  0  0  0  0  0
   57.7628   25.7951   47.3647 H   0  0  0  0  0  0  0  0  0  0  0  0
   61.2399   27.5612   45.4990 H   0  0  0  0  0  0  0  0  0  0  0  0
   59.7700   28.7866   43.9008 H   0  0  0  0  0  0  0  0  0  0  0  0
   58.0039   32.8632   43.6224 H   0  0  0  0  0  0  0  0  0  0  0  0
   59.6234   34.0512   45.1006 H   0  0  0  0  0  0  0  0  0  0  0  0
   62.0367   33.2695   46.0095 H   0  0  0  0  0  0  0  0  0  0  0  0
   61.5269   34.8598   46.7058 H   0  0  0  0  0  0  0  0  0  0  0  0
   63.1024   32.7007   48.1906 H   0  0  0  0  0  0  0  0  0  0  0  0
   63.7900   34.2083   47.4453 H   0  0  0  0  0  0  0  0  0  0  0  0
   63.5308   34.6012   49.8117 H   0  0  0  0  0  0  0  0  0  0  0  0
   62.2588   35.5404   48.9195 H   0  0  0  0  0  0  0  0  0  0  0  0
   61.8663   32.8928   50.3924 H   0  0  0  0  0  0  0  0  0  0  0  0
   61.2876   34.5163   50.9135 H   0  0  0  0  0  0  0  0  0  0  0  0
   59.4171   30.7889   47.9430 H   0  0  0  0  0  0  0  0  0  0  0  0
   57.8005   29.6028   46.4619 H   0  0  0  0  0  0  0  0  0  0  0  0
  1  2  2  0
  2  3  2  0
  2  4  1  0
  4  5  1  0
  5  6  2  0
  6  7  1  0
  7  8  2  0
  8  9  1  0
  8 10  1  0
 10 11  2  0
  2 12  1  0
 12 13  2  0
 13 14  1  0
 14 15  2  0
 15 16  1  0
 16 17  1  0
 17 18  1  0
 18 19  1  0
 19 20  1  0
 20 21  1  0
 21 22  2  0
 21 23  2  0
 15 24  1  0
 24 25  2  0
 11  5  1  0
 25 12  1  0
 21 16  1  0
  4 26  1  0
  6 27  1  0
  7 28  1  0
 10 29  1  0
 11 30  1  0
 13 31  1  0
 14 32  1  0
 17 33  1  0
 17 34  1  0
 18 35  1  0
 18 36  1  0
 19 37  1  0
 19 38  1  0
 20 39  1  0
 20 40  1  0
 24 41  1  0
 25 42  1  0
M  END
>  <UniqueID>  (86) 
79

>  <SMILES>  (86) 
O=S(=O)(Nc1ccc(F)cc1)c1ccc(N2CCCCS2(=O)=O)cc1

>  <Energy>  (86) 
46.370428040041446

>  <Genealogy>  (86) 
O=S(=O)(Nc1ccc(F)cc1)c1ccc(N2CCCCS2(=O)=O)cc1 (3D coordinates assigned)
O=S(=O)(Nc1ccc(F)cc1)c1ccc(N2CCCCS2(=O)=O)cc1 (nonaromatic ring conformer: 46.370428040041446 kcal/mol)

>  <smiles>  (86) 
O=S(=O)(Nc1ccc(F)cc1)c1ccc(N2CCCCS2(=O)=O)cc1

>  <score_type>  (86) 
oracle

>  <origin>  (86) 
adg

>  <m_score__min__energy>  (86) 
-8.5399999999999991

>  <m_primary>  (86) 
energy

$$$$
86:0
     RDKit          3D

 33 34  0  0  0  0  0  0  0  0999 V2000
   57.7680   32.6140   47.0820 N   0  0  0  0  0  0  0  0  0  0  0  0
   57.9370   32.5930   45.6610 C   0  0  0  0  0  0  0  0  0  0  0  0
   57.8380   33.9940   44.8200 S   0  0  0  0  0  0  0  0  0  0  0  0
   58.2700   31.3790   44.9690 N   0  0  0  0  0  0  0  0  0  0  0  0
   58.1950   30.0810   45.5750 C   0  0  0  0  0  0  0  0  0  0  0  0
   59.2840   29.6230   46.3270 C   0  0  0  0  0  0  0  0  0  0  0  0
   59.2560   28.3570   46.9120 C   0  0  0  0  0  0  0  0  0  0  0  0
   58.1390   27.5380   46.7540 C   0  0  0  0  0  0  0  0  0  0  0  0
   57.0370   27.9760   46.0110 C   0  0  0  0  0  0  0  0  0  0  0  0
   55.9160   27.0940   45.8690 N   0  0  0  0  0  0  0  0  0  0  0  0
   56.0230   25.6860   45.6310 C   0  0  0  0  0  0  0  0  0  0  0  0
   55.4900   24.8680   46.4280 O   0  0  0  0  0  0  0  0  0  0  0  0
   56.7320   25.2240   44.4730 N   0  0  0  0  0  0  0  0  0  0  0  0
   57.0560   23.8460   44.2180 C   0  0  0  0  0  0  0  0  0  0  0  0
   56.3360   23.0830   43.2800 C   0  0  0  0  0  0  0  0  0  0  0  0
   56.6580   21.7380   43.0700 C   0  0  0  0  0  0  0  0  0  0  0  0
   57.6870   21.1410   43.8000 C   0  0  0  0  0  0  0  0  0  0  0  0
   58.3920   21.8850   44.7500 C   0  0  0  0  0  0  0  0  0  0  0  0
   58.0720   23.2290   44.9650 C   0  0  0  0  0  0  0  0  0  0  0  0
   57.0780   29.2390   45.3800 C   0  0  0  0  0  0  0  0  0  0  0  0
   55.8180   29.7030   44.2330 Cl  0  0  0  0  0  0  0  0  0  0  0  0
   57.5160   33.5010   47.5710 H   0  0  0  0  0  0  0  0  0  0  0  0
   57.9270   31.7600   47.6600 H   0  0  0  0  0  0  0  0  0  0  0  0
   58.7130   31.4530   44.0250 H   0  0  0  0  0  0  0  0  0  0  0  0
   60.1671   30.2657   46.4572 H   0  0  0  0  0  0  0  0  0  0  0  0
   60.1168   28.0043   47.4990 H   0  0  0  0  0  0  0  0  0  0  0  0
   58.1237   26.5402   47.2167 H   0  0  0  0  0  0  0  0  0  0  0  0
   56.9380   25.9250   43.7260 H   0  0  0  0  0  0  0  0  0  0  0  0
   55.5170   23.5459   42.7099 H   0  0  0  0  0  0  0  0  0  0  0  0
   56.0989   21.1494   42.3277 H   0  0  0  0  0  0  0  0  0  0  0  0
   57.9430   20.0852   43.6276 H   0  0  0  0  0  0  0  0  0  0  0  0
   59.1993   21.4129   45.3291 H   0  0  0  0  0  0  0  0  0  0  0  0
   58.6198   23.8066   45.7242 H   0  0  0  0  0  0  0  0  0  0  0  0
  1  2  1  0
  2  3  2  0
  2  4  1  0
  4  5  1  0
  5  6  2  0
  6  7  1  0
  7  8  2  0
  8  9  1  0
  9 10  1  0
 10 11  1  0
 11 12  2  0
 11 13  1  0
 13 14  1  0
 14 15  2  0
 15 16  1  0
 16 17  2  0
 17 18  1  0
 18 19  2  0
  9 20  2  0
 20 21  1  0
 20  5  1  0
 19 14  1  0
  1 22  1  0
  1 23  1  0
  4 24  1  0
  6 25  1  0
  7 26  1  0
  8 27  1  0
 13 28  1  0
 15 29  1  0
 16 30  1  0
 17 31  1  0
 18 32  1  0
 19 33  1  0
M  CHG  1  10  -1
M  END
>  <UniqueID>  (87) 
80

>  <SMILES>  (87) 
NC(=S)Nc1cccc([N-]C(=O)Nc2ccccc2)c1Cl

>  <Energy>  (87) 
48.50430395691408

>  <Genealogy>  (87) 
NC(=S)Nc1cccc([N-]C(=O)Nc2ccccc2)c1Cl (protonated)
NC(=S)Nc1cccc([N-]C(=O)Nc2ccccc2)c1Cl (3D coordinates assigned)
NC(=S)Nc1cccc([N-]C(=O)Nc2ccccc2)c1Cl (optimized conformer: 48.50430395691408 kcal/mol)

>  <smiles>  (87) 
NC(=S)Nc1cccc(NC(=O)Nc2ccccc2)c1Cl

>  <score_type>  (87) 
oracle

>  <origin>  (87) 
adg

>  <m_score__min__energy>  (87) 
-8.8699999999999992

>  <m_primary>  (87) 
energy

$$$$
87:0
     RDKit          3D

 41 43  0  0  0  0  0  0  0  0999 V2000
   63.8050   33.1390   47.5990 C   0  0  0  0  0  0  0  0  0  0  0  0
   62.7620   34.1070   47.5620 O   0  0  0  0  0  0  0  0  0  0  0  0
   61.3960   33.7960   47.4830 C   0  0  0  0  0  0  0  0  0  0  0  0
   60.5720   34.1480   48.5570 C   0  0  0  0  0  0  0  0  0  0  0  0
   59.2100   33.8390   48.5360 C   0  0  0  0  0  0  0  0  0  0  0  0
   58.6560   33.1860   47.4330 C   0  0  0  0  0  0  0  0  0  0  0  0
   59.4570   32.8510   46.3330 C   0  0  0  0  0  0  0  0  0  0  0  0
   58.8710   32.1650   45.2160 N   0  0  0  0  0  0  0  0  0  0  0  0
   57.9510   32.7790   44.3000 C   0  0  0  0  0  0  0  0  0  0  0  0
   57.3620   33.8500   44.6100 O   0  0  0  0  0  0  0  0  0  0  0  0
   57.7000   32.1620   42.9560 C   0  0  0  0  0  0  0  0  0  0  0  0
   57.0100   30.8080   43.1010 C   0  0  0  0  0  0  0  0  0  0  0  0
   57.8870   29.8710   43.8020 N   0  0  0  0  0  0  0  0  0  0  0  0
   57.1530   29.3740   45.2940 S   0  0  0  0  0  0  0  0  0  0  0  0
   55.6550   29.3830   45.1570 O   0  0  0  0  0  0  0  0  0  0  0  0
   57.5360   30.3440   46.3760 O   0  0  0  0  0  0  0  0  0  0  0  0
   57.7160   27.7640   45.7420 C   0  0  0  0  0  0  0  0  0  0  0  0
   59.0960   27.4750   45.8170 C   0  0  0  0  0  0  0  0  0  0  0  0
   59.5410   26.1760   46.1620 C   0  0  0  0  0  0  0  0  0  0  0  0
   58.6130   25.1490   46.4250 C   0  0  0  0  0  0  0  0  0  0  0  0
   57.2640   25.4710   46.3320 C   0  0  0  0  0  0  0  0  0  0  0  0
   56.1950   24.6840   46.5190 N   0  0  0  0  0  0  0  0  0  0  0  0
   55.1700   25.4720   46.3030 O   0  0  0  0  0  0  0  0  0  0  0  0
   55.4910   26.7030   45.9910 N   0  0  0  0  0  0  0  0  0  0  0  0
   56.8320   26.7150   46.0090 C   0  0  0  0  0  0  0  0  0  0  0  0
   60.8340   33.1410   46.3690 C   0  0  0  0  0  0  0  0  0  0  0  0
   64.0539   32.9080   48.6453 H   0  0  0  0  0  0  0  0  0  0  0  0
   63.4726   32.2222   47.0902 H   0  0  0  0  0  0  0  0  0  0  0  0
   64.6945   33.5388   47.0902 H   0  0  0  0  0  0  0  0  0  0  0  0
   60.9997   34.6720   49.4245 H   0  0  0  0  0  0  0  0  0  0  0  0
   58.5724   34.1106   49.3902 H   0  0  0  0  0  0  0  0  0  0  0  0
   57.5854   32.9333   47.4275 H   0  0  0  0  0  0  0  0  0  0  0  0
   59.0800   31.1470   45.0970 H   0  0  0  0  0  0  0  0  0  0  0  0
   57.0581   32.8324   42.3657 H   0  0  0  0  0  0  0  0  0  0  0  0
   58.6657   32.0131   42.4507 H   0  0  0  0  0  0  0  0  0  0  0  0
   56.0791   30.9332   43.6735 H   0  0  0  0  0  0  0  0  0  0  0  0
   56.7829   30.4101   42.1010 H   0  0  0  0  0  0  0  0  0  0  0  0
   59.8312   28.2654   45.6057 H   0  0  0  0  0  0  0  0  0  0  0  0
   60.6191   25.9670   46.2252 H   0  0  0  0  0  0  0  0  0  0  0  0
   58.9424   24.1342   46.6929 H   0  0  0  0  0  0  0  0  0  0  0  0
   61.4753   32.8546   45.5224 H   0  0  0  0  0  0  0  0  0  0  0  0
  1  2  1  0
  2  3  1  0
  3  4  2  0
  4  5  1  0
  5  6  2  0
  6  7  1  0
  7  8  1  0
  8  9  1  0
  9 10  2  0
  9 11  1  0
 11 12  1  0
 12 13  1  0
 13 14  1  0
 14 15  2  0
 14 16  2  0
 14 17  1  0
 17 18  2  0
 18 19  1  0
 19 20  2  0
 20 21  1  0
 21 22  2  0
 22 23  1  0
 23 24  1  0
 24 25  2  0
  7 26  2  0
 26  3  1  0
 25 17  1  0
 25 21  1  0
  1 27  1  0
  1 28  1  0
  1 29  1  0
  4 30  1  0
  5 31  1  0
  6 32  1  0
  8 33  1  0
 11 34  1  0
 11 35  1  0
 12 36  1  0
 12 37  1  0
 18 38  1  0
 19 39  1  0
 20 40  1  0
 26 41  1  0
M  CHG  1  13  -1
M  END
>  <UniqueID>  (88) 
81

>  <SMILES>  (88) 
COc1cccc(NC(=O)CC[N-]S(=O)(=O)c2cccc3nonc23)c1

>  <Energy>  (88) 
82.35443104394798

>  <Genealogy>  (88) 
COc1cccc(NC(=O)CC[N-]S(=O)(=O)c2cccc3nonc23)c1 (protonated)
COc1cccc(NC(=O)CC[N-]S(=O)(=O)c2cccc3nonc23)c1 (3D coordinates assigned)
COc1cccc(NC(=O)CC[N-]S(=O)(=O)c2cccc3nonc23)c1 (optimized conformer: 82.35443104394798 kcal/mol)

>  <smiles>  (88) 
COc1cccc(NC(=O)CCNS(=O)(=O)c2cccc3nonc23)c1

>  <score_type>  (88) 
oracle

>  <origin>  (88) 
adg

>  <m_score__min__energy>  (88) 
-10.51

>  <m_primary>  (88) 
energy

$$$$
88:0
     RDKit          3D

 36 39  0  0  0  0  0  0  0  0999 V2000
   60.8158   28.5908   47.3798 H   0  0  0  0  0  0  0  0  0  0  0  0
   59.8470   28.1000   47.2050 C   0  0  0  0  0  0  0  0  0  0  0  0
   59.5050   26.4690   47.4540 S   0  0  0  0  0  0  0  0  0  0  0  0
   57.9130   26.6140   46.9460 C   0  0  0  0  0  0  0  0  0  0  0  0
   57.0820   25.6140   46.9000 N   0  0  0  0  0  0  0  0  0  0  0  0
   55.8700   25.5540   46.1340 C   0  0  0  0  0  0  0  0  0  0  0  0
   55.1860   26.6000   45.9920 O   0  0  0  0  0  0  0  0  0  0  0  0
   55.3980   24.3310   45.5520 N   0  0  0  0  0  0  0  0  0  0  0  0
   56.2020   23.3630   44.8610 C   0  0  0  0  0  0  0  0  0  0  0  0
   57.3290   22.7670   45.4640 C   0  0  0  0  0  0  0  0  0  0  0  0
   57.6580   23.0410   46.7510 F   0  0  0  0  0  0  0  0  0  0  0  0
   58.1020   21.8480   44.7460 C   0  0  0  0  0  0  0  0  0  0  0  0
   58.9881   21.3935   45.2132 H   0  0  0  0  0  0  0  0  0  0  0  0
   57.7520   21.5060   43.4380 C   0  0  0  0  0  0  0  0  0  0  0  0
   58.3684   20.7910   42.8734 H   0  0  0  0  0  0  0  0  0  0  0  0
   56.6200   22.0710   42.8460 C   0  0  0  0  0  0  0  0  0  0  0  0
   56.3409   21.7937   41.8188 H   0  0  0  0  0  0  0  0  0  0  0  0
   55.8410   22.9890   43.5580 C   0  0  0  0  0  0  0  0  0  0  0  0
   54.7500   23.5390   42.9680 F   0  0  0  0  0  0  0  0  0  0  0  0
   57.6130   27.8920   46.6120 N   0  0  0  0  0  0  0  0  0  0  0  0
   56.6670   28.2270   46.3250 H   0  0  0  0  0  0  0  0  0  0  0  0
   58.6860   28.7200   46.7380 C   0  0  0  0  0  0  0  0  0  0  0  0
   58.6030   30.1490   46.3900 C   0  0  0  0  0  0  0  0  0  0  0  0
   57.5640   30.6840   45.7720 O   0  0  0  0  0  0  0  0  0  0  0  0
   57.8170   31.9580   45.6070 C   0  0  0  0  0  0  0  0  0  0  0  0
   57.0080   32.9170   45.0010 C   0  0  0  0  0  0  0  0  0  0  0  0
   56.0242   32.6510   44.5871 H   0  0  0  0  0  0  0  0  0  0  0  0
   57.4910   34.2370   44.9360 C   0  0  0  0  0  0  0  0  0  0  0  0
   56.8782   35.0203   44.4660 H   0  0  0  0  0  0  0  0  0  0  0  0
   58.7570   34.5630   45.4700 C   0  0  0  0  0  0  0  0  0  0  0  0
   59.1245   35.5981   45.4114 H   0  0  0  0  0  0  0  0  0  0  0  0
   59.5520   33.5720   46.0770 C   0  0  0  0  0  0  0  0  0  0  0  0
   60.5394   33.8124   46.4981 H   0  0  0  0  0  0  0  0  0  0  0  0
   59.0430   32.2760   46.1250 C   0  0  0  0  0  0  0  0  0  0  0  0
   59.5760   31.1170   46.6410 C   0  0  0  0  0  0  0  0  0  0  0  0
   60.5481   30.9839   47.1383 H   0  0  0  0  0  0  0  0  0  0  0  0
  1  2  1  0
  2  3  1  0
  3  4  1  0
  4  5  2  0
  5  6  1  0
  6  7  2  0
  6  8  1  0
  8  9  1  0
  9 10  2  0
 10 11  1  0
 10 12  1  0
 12 13  1  0
 12 14  2  0
 14 15  1  0
 14 16  1  0
 16 17  1  0
 16 18  2  0
 18 19  1  0
  4 20  1  0
 20 21  1  0
 20 22  1  0
 22 23  1  0
 23 24  1  0
 24 25  1  0
 25 26  2  0
 26 27  1  0
 26 28  1  0
 28 29  1  0
 28 30  2  0
 30 31  1  0
 30 32  1  0
 32 33  1  0
 32 34  2  0
 34 35  1  0
 35 36  1  0
 22  2  2  0
 35 23  2  0
 18  9  1  0
 34 25  1  0
M  CHG  1   8  -1
M  END
>  <UniqueID>  (89) 
82

>  <SMILES>  (89) 
O=C(/N=c1\[nH]c(-c2cc3ccccc3o2)cs1)[N-]c1c(F)cccc1F

>  <Energy>  (89) 
113.80053284836009

>  <Genealogy>  (89) 
O=C(N=c1[nH]c(-c2cc3ccccc3o2)cs1)[N-]c1c(F)cccc1F (protonated)
O=C(/N=c1\[nH]c(-c2cc3ccccc3o2)cs1)[N-]c1c(F)cccc1F (cis-trans isomerization)
O=C(/N=c1\[nH]c(-c2cc3ccccc3o2)cs1)[N-]c1c(F)cccc1F (3D coordinates assigned)
O=C(/N=c1\[nH]c(-c2cc3ccccc3o2)cs1)[N-]c1c(F)cccc1F (optimized conformer: 113.80053284836009 kcal/mol)

>  <smiles>  (89) 
O=C(N=c1[nH]c(-c2cc3ccccc3o2)cs1)Nc1c(F)cccc1F

>  <score_type>  (89) 
oracle

>  <origin>  (89) 
adg

>  <m_score__min__energy>  (89) 
-9.5299999999999994

>  <m_primary>  (89) 
energy

$$$$
89:0
     RDKit          3D

 41 43  0  0  0  0  0  0  0  0999 V2000
   62.4160   33.9500   49.8310 C   0  0  0  0  0  0  0  0  0  0  0  0
   61.7230   32.8560   49.0690 C   0  0  0  0  0  0  0  0  0  0  0  0
   60.5790   32.2450   49.6030 C   0  0  0  0  0  0  0  0  0  0  0  0
   59.9150   31.2410   48.8950 C   0  0  0  0  0  0  0  0  0  0  0  0
   60.3780   30.8300   47.6380 C   0  0  0  0  0  0  0  0  0  0  0  0
   59.6760   29.7960   46.9280 N   0  0  0  0  0  0  0  0  0  0  0  0
   58.9160   28.7580   47.5670 C   0  0  0  0  0  0  0  0  0  0  0  0
   58.9210   28.6360   48.8220 O   0  0  0  0  0  0  0  0  0  0  0  0
   58.1730   27.7550   46.7400 C   0  0  0  0  0  0  0  0  0  0  0  0
   58.6070   27.9060   44.9700 S   0  0  0  0  0  0  0  0  0  0  0  0
   57.8040   29.4910   44.7580 C   0  0  0  0  0  0  0  0  0  0  0  0
   56.4760   29.6880   44.8560 N   0  0  0  0  0  0  0  0  0  0  0  0
   56.2780   30.9730   44.6040 N   0  0  0  0  0  0  0  0  0  0  0  0
   57.4920   31.5030   44.3610 C   0  0  0  0  0  0  0  0  0  0  0  0
   57.7300   32.9340   44.0060 C   0  0  0  0  0  0  0  0  0  0  0  0
   58.3480   33.6600   45.1670 C   0  0  0  0  0  0  0  0  0  0  0  0
   58.0140   33.3080   46.4880 C   0  0  0  0  0  0  0  0  0  0  0  0
   58.6230   33.9580   47.5650 C   0  0  0  0  0  0  0  0  0  0  0  0
   59.5630   34.9640   47.3350 C   0  0  0  0  0  0  0  0  0  0  0  0
   59.8980   35.3200   46.0250 C   0  0  0  0  0  0  0  0  0  0  0  0
   59.2980   34.6700   44.9450 C   0  0  0  0  0  0  0  0  0  0  0  0
   58.4340   30.5990   44.4560 O   0  0  0  0  0  0  0  0  0  0  0  0
   61.5510   31.4070   47.1220 C   0  0  0  0  0  0  0  0  0  0  0  0
   62.2150   32.4210   47.8220 C   0  0  0  0  0  0  0  0  0  0  0  0
   63.6710   33.1150   47.1190 Cl  0  0  0  0  0  0  0  0  0  0  0  0
   62.3037   33.7727   50.9108 H   0  0  0  0  0  0  0  0  0  0  0  0
   63.4846   33.9585   49.5700 H   0  0  0  0  0  0  0  0  0  0  0  0
   61.9671   34.9197   49.5700 H   0  0  0  0  0  0  0  0  0  0  0  0
   60.2018   32.5592   50.5874 H   0  0  0  0  0  0  0  0  0  0  0  0
   59.0208   30.7687   49.3279 H   0  0  0  0  0  0  0  0  0  0  0  0
   59.7980   29.7440   45.8930 H   0  0  0  0  0  0  0  0  0  0  0  0
   58.4292   26.7432   47.0872 H   0  0  0  0  0  0  0  0  0  0  0  0
   57.0947   27.9418   46.8515 H   0  0  0  0  0  0  0  0  0  0  0  0
   58.4086   32.9861   43.1419 H   0  0  0  0  0  0  0  0  0  0  0  0
   56.7686   33.4070   43.7571 H   0  0  0  0  0  0  0  0  0  0  0  0
   57.2709   32.5184   46.6735 H   0  0  0  0  0  0  0  0  0  0  0  0
   58.3612   33.6764   48.5956 H   0  0  0  0  0  0  0  0  0  0  0  0
   60.0398   35.4763   48.1837 H   0  0  0  0  0  0  0  0  0  0  0  0
   60.6367   36.1148   45.8448 H   0  0  0  0  0  0  0  0  0  0  0  0
   59.5703   34.9499   43.9167 H   0  0  0  0  0  0  0  0  0  0  0  0
   61.9512   31.0583   46.1585 H   0  0  0  0  0  0  0  0  0  0  0  0
  1  2  1  0
  2  3  2  0
  3  4  1  0
  4  5  2  0
  5  6  1  0
  6  7  1  0
  7  8  2  0
  7  9  1  0
  9 10  1  0
 10 11  1  0
 11 12  2  0
 12 13  1  0
 13 14  2  0
 14 15  1  0
 15 16  1  0
 16 17  2  0
 17 18  1  0
 18 19  2  0
 19 20  1  0
 20 21  2  0
 14 22  1  0
  5 23  1  0
 23 24  2  0
 24 25  1  0
 24  2  1  0
 22 11  1  0
 21 16  1  0
  1 26  1  0
  1 27  1  0
  1 28  1  0
  3 29  1  0
  4 30  1  0
  6 31  1  0
  9 32  1  0
  9 33  1  0
 15 34  1  0
 15 35  1  0
 17 36  1  0
 18 37  1  0
 19 38  1  0
 20 39  1  0
 21 40  1  0
 23 41  1  0
M  END
>  <UniqueID>  (90) 
83

>  <SMILES>  (90) 
Cc1ccc(NC(=O)CSc2nnc(Cc3ccccc3)o2)cc1Cl

>  <Energy>  (90) 
73.8059465166073

>  <Genealogy>  (90) 
Cc1ccc(NC(=O)CSc2nnc(Cc3ccccc3)o2)cc1Cl (3D coordinates assigned)
Cc1ccc(NC(=O)CSc2nnc(Cc3ccccc3)o2)cc1Cl (optimized conformer: 73.8059465166073 kcal/mol)

>  <smiles>  (90) 
Cc1ccc(NC(=O)CSc2nnc(Cc3ccccc3)o2)cc1Cl

>  <score_type>  (90) 
oracle

>  <origin>  (90) 
adg

>  <m_score__min__energy>  (90) 
-8.4499999999999993

>  <m_primary>  (90) 
energy

$$$$
90:0
     RDKit          3D

 53 56  0  0  0  0  0  0  0  0999 V2000
   55.1220   26.4100   45.9980 N   0  0  0  0  0  0  0  0  0  0  0  0
   56.8390   26.6260   45.9630 S   0  0  0  0  0  0  0  0  0  0  0  0
   57.4380   25.5860   45.0590 O   0  0  0  0  0  0  0  0  0  0  0  0
   57.4040   26.4370   47.3470 O   0  0  0  0  0  0  0  0  0  0  0  0
   57.2460   28.2460   45.3740 C   0  0  0  0  0  0  0  0  0  0  0  0
   56.2030   29.1320   45.0570 C   0  0  0  0  0  0  0  0  0  0  0  0
   56.4740   30.3700   44.4700 C   0  0  0  0  0  0  0  0  0  0  0  0
   57.7900   30.7330   44.1780 C   0  0  0  0  0  0  0  0  0  0  0  0
   58.8380   29.8690   44.5000 C   0  0  0  0  0  0  0  0  0  0  0  0
   58.5850   28.6390   45.1300 C   0  0  0  0  0  0  0  0  0  0  0  0
   59.9860   27.5940   45.5780 S   0  0  0  0  0  0  0  0  0  0  0  0
   59.9970   28.1130   47.3000 C   0  0  0  0  0  0  0  0  0  0  0  0
   60.4240   27.2430   48.3070 C   0  0  0  0  0  0  0  0  0  0  0  0
   60.3930   27.6500   49.6430 C   0  0  0  0  0  0  0  0  0  0  0  0
   59.9590   28.9360   49.9790 C   0  0  0  0  0  0  0  0  0  0  0  0
   59.5800   29.8380   48.9690 C   0  0  0  0  0  0  0  0  0  0  0  0
   59.1280   31.1730   49.2450 N   0  0  0  0  0  0  0  0  0  0  0  0
   59.8310   32.2490   49.8820 C   0  0  0  0  0  0  0  0  0  0  0  0
   59.1900   33.1400   50.5030 O   0  0  0  0  0  0  0  0  0  0  0  0
   61.3220   32.2820   49.8800 C   0  0  0  0  0  0  0  0  0  0  0  0
   62.0230   31.3860   50.7150 C   0  0  0  0  0  0  0  0  0  0  0  0
   63.4190   31.3540   50.7150 C   0  0  0  0  0  0  0  0  0  0  0  0
   64.1410   32.2180   49.8950 C   0  0  0  0  0  0  0  0  0  0  0  0
   63.4700   33.1150   49.0650 C   0  0  0  0  0  0  0  0  0  0  0  0
   62.0640   33.1510   49.0380 C   0  0  0  0  0  0  0  0  0  0  0  0
   61.3940   34.0990   48.1910 N   0  0  0  0  0  0  0  0  0  0  0  0
   61.0740   33.9150   46.8060 C   0  0  0  0  0  0  0  0  0  0  0  0
   62.0200   33.8470   45.9750 O   0  0  0  0  0  0  0  0  0  0  0  0
   59.6720   33.8590   46.3210 C   0  0  0  0  0  0  0  0  0  0  0  0
   58.6200   33.5010   47.1870 C   0  0  0  0  0  0  0  0  0  0  0  0
   57.3030   33.4630   46.7210 C   0  0  0  0  0  0  0  0  0  0  0  0
   57.0170   33.8030   45.3960 C   0  0  0  0  0  0  0  0  0  0  0  0
   58.0470   34.1920   44.5390 C   0  0  0  0  0  0  0  0  0  0  0  0
   59.3680   34.2230   44.9960 C   0  0  0  0  0  0  0  0  0  0  0  0
   59.5890   29.4110   47.6330 C   0  0  0  0  0  0  0  0  0  0  0  0
   54.7390   27.0850   46.7000 H   0  0  0  0  0  0  0  0  0  0  0  0
   55.1625   28.8479   45.2732 H   0  0  0  0  0  0  0  0  0  0  0  0
   55.6494   31.0599   44.2375 H   0  0  0  0  0  0  0  0  0  0  0  0
   58.0008   31.6985   43.6949 H   0  0  0  0  0  0  0  0  0  0  0  0
   59.8725   30.1541   44.2580 H   0  0  0  0  0  0  0  0  0  0  0  0
   60.7848   26.2368   48.0473 H   0  0  0  0  0  0  0  0  0  0  0  0
   60.7115   26.9555   50.4344 H   0  0  0  0  0  0  0  0  0  0  0  0
   59.9140   29.2424   51.0345 H   0  0  0  0  0  0  0  0  0  0  0  0
   61.4634   30.7051   51.3733 H   0  0  0  0  0  0  0  0  0  0  0  0
   63.9507   30.6436   51.3652 H   0  0  0  0  0  0  0  0  0  0  0  0
   65.2407   32.1926   49.9023 H   0  0  0  0  0  0  0  0  0  0  0  0
   64.0452   33.8007   48.4255 H   0  0  0  0  0  0  0  0  0  0  0  0
   58.8364   33.2500   48.2359 H   0  0  0  0  0  0  0  0  0  0  0  0
   56.4896   33.1648   47.3988 H   0  0  0  0  0  0  0  0  0  0  0  0
   55.9807   33.7640   45.0291 H   0  0  0  0  0  0  0  0  0  0  0  0
   57.8191   34.4751   43.5008 H   0  0  0  0  0  0  0  0  0  0  0  0
   60.1746   34.5338   44.3157 H   0  0  0  0  0  0  0  0  0  0  0  0
   59.2724   30.1027   46.8384 H   0  0  0  0  0  0  0  0  0  0  0  0
  1  2  1  0
  2  3  2  0
  2  4  2  0
  2  5  1  0
  5  6  2  0
  6  7  1  0
  7  8  2  0
  8  9  1  0
  9 10  2  0
 10 11  1  0
 11 12  1  0
 12 13  2  0
 13 14  1  0
 14 15  2  0
 15 16  1  0
 16 17  1  0
 17 18  1  0
 18 19  2  0
 18 20  1  0
 20 21  2  0
 21 22  1  0
 22 23  2  0
 23 24  1  0
 24 25  2  0
 25 26  1  0
 26 27  1  0
 27 28  2  0
 27 29  1  0
 29 30  2  0
 30 31  1  0
 31 32  2  0
 32 33  1  0
 33 34  2  0
 16 35  2  0
 10  5  1  0
 35 12  1  0
 25 20  1  0
 34 29  1  0
  1 36  1  0
  6 37  1  0
  7 38  1  0
  8 39  1  0
  9 40  1  0
 13 41  1  0
 14 42  1  0
 15 43  1  0
 21 44  1  0
 22 45  1  0
 23 46  1  0
 24 47  1  0
 30 48  1  0
 31 49  1  0
 32 50  1  0
 33 51  1  0
 34 52  1  0
 35 53  1  0
M  CHG  3   1  -1  17  -1  26  -1
M  END
>  <UniqueID>  (91) 
84

>  <SMILES>  (91) 
[NH-]S(=O)(=O)c1ccccc1Sc1cccc([N-]C(=O)c2ccccc2[N-]C(=O)c2ccccc2)c1

>  <Energy>  (91) 
71.26605298479515

>  <Genealogy>  (91) 
[NH-]S(=O)(=O)c1ccccc1Sc1cccc([N-]C(=O)c2ccccc2[N-]C(=O)c2ccccc2)c1 (protonated)
[NH-]S(=O)(=O)c1ccccc1Sc1cccc([N-]C(=O)c2ccccc2[N-]C(=O)c2ccccc2)c1 (3D coordinates assigned)
[NH-]S(=O)(=O)c1ccccc1Sc1cccc([N-]C(=O)c2ccccc2[N-]C(=O)c2ccccc2)c1 (optimized conformer: 71.26605298479515 kcal/mol)

>  <smiles>  (91) 
NS(=O)(=O)c1ccccc1Sc1cccc(NC(=O)c2ccccc2NC(=O)c2ccccc2)c1

>  <score_type>  (91) 
oracle

>  <origin>  (91) 
adg

>  <m_score__min__energy>  (91) 
-15.529999999999999

>  <m_primary>  (91) 
energy

$$$$
91:0
     RDKit          3D

 42 43  0  0  0  0  0  0  0  0999 V2000
   55.4900   29.7600   43.6890 C   0  0  0  0  0  0  0  0  0  0  0  0
   55.6410   29.3390   45.0400 O   0  0  0  0  0  0  0  0  0  0  0  0
   56.6520   28.5040   45.5520 C   0  0  0  0  0  0  0  0  0  0  0  0
   56.4050   27.1740   45.9840 C   0  0  0  0  0  0  0  0  0  0  0  0
   55.1430   26.6000   45.9030 O   0  0  0  0  0  0  0  0  0  0  0  0
   57.4420   26.4010   46.5100 C   0  0  0  0  0  0  0  0  0  0  0  0
   58.7260   26.9230   46.6190 C   0  0  0  0  0  0  0  0  0  0  0  0
   58.9910   28.2230   46.1940 C   0  0  0  0  0  0  0  0  0  0  0  0
   57.9700   29.0250   45.6530 C   0  0  0  0  0  0  0  0  0  0  0  0
   58.3050   30.4090   45.2240 C   0  0  0  0  0  0  0  0  0  0  0  0
   59.1520   30.6160   44.3120 O   0  0  0  0  0  0  0  0  0  0  0  0
   57.6610   31.4950   45.8330 O   0  0  0  0  0  0  0  0  0  0  0  0
   57.9600   32.8560   45.5260 C   0  0  0  0  0  0  0  0  0  0  0  0
   59.3380   33.2160   46.0000 C   0  0  0  0  0  0  0  0  0  0  0  0
   59.6690   34.4290   46.0740 O   0  0  0  0  0  0  0  0  0  0  0  0
   60.2630   32.1810   46.3700 N   0  0  0  0  0  0  0  0  0  0  0  0
   61.5030   32.4450   47.0430 C   0  0  0  0  0  0  0  0  0  0  0  0
   62.2140   33.6300   46.7920 C   0  0  0  0  0  0  0  0  0  0  0  0
   63.4350   33.8680   47.4260 C   0  0  0  0  0  0  0  0  0  0  0  0
   63.9560   32.9250   48.3150 C   0  0  0  0  0  0  0  0  0  0  0  0
   63.2620   31.7380   48.5640 C   0  0  0  0  0  0  0  0  0  0  0  0
   62.0370   31.4830   47.9200 C   0  0  0  0  0  0  0  0  0  0  0  0
   61.2950   30.3180   48.1740 O   0  0  0  0  0  0  0  0  0  0  0  0
   60.0460   30.2700   48.8040 C   0  0  0  0  0  0  0  0  0  0  0  0
   59.9750   29.8720   50.2390 C   0  0  0  0  0  0  0  0  0  0  0  0
   59.0000   30.6380   48.2050 O   0  0  0  0  0  0  0  0  0  0  0  0
   55.1187   30.7952   43.6669 H   0  0  0  0  0  0  0  0  0  0  0  0
   56.4627   29.7083   43.1779 H   0  0  0  0  0  0  0  0  0  0  0  0
   54.7719   29.1019   43.1779 H   0  0  0  0  0  0  0  0  0  0  0  0
   57.2416   25.3712   46.8407 H   0  0  0  0  0  0  0  0  0  0  0  0
   59.5343   26.3082   47.0417 H   0  0  0  0  0  0  0  0  0  0  0  0
   60.0104   28.6268   46.2825 H   0  0  0  0  0  0  0  0  0  0  0  0
   57.9031   33.0015   44.4372 H   0  0  0  0  0  0  0  0  0  0  0  0
   57.2304   33.5023   46.0359 H   0  0  0  0  0  0  0  0  0  0  0  0
   59.9380   31.1890   46.3230 H   0  0  0  0  0  0  0  0  0  0  0  0
   61.8067   34.3746   46.0922 H   0  0  0  0  0  0  0  0  0  0  0  0
   63.9867   34.7982   47.2254 H   0  0  0  0  0  0  0  0  0  0  0  0
   64.9142   33.1171   48.8199 H   0  0  0  0  0  0  0  0  0  0  0  0
   63.6752   30.9994   49.2667 H   0  0  0  0  0  0  0  0  0  0  0  0
   60.1329   30.7568   50.8732 H   0  0  0  0  0  0  0  0  0  0  0  0
   58.9857   29.4405   50.4513 H   0  0  0  0  0  0  0  0  0  0  0  0
   60.7541   29.1250   50.4513 H   0  0  0  0  0  0  0  0  0  0  0  0
  1  2  1  0
  2  3  1  0
  3  4  2  0
  4  5  1  0
  4  6  1  0
  6  7  2  0
  7  8  1  0
  8  9  2  0
  9 10  1  0
 10 11  2  0
 10 12  1  0
 12 13  1  0
 13 14  1  0
 14 15  2  0
 14 16  1  0
 16 17  1  0
 17 18  2  0
 18 19  1  0
 19 20  2  0
 20 21  1  0
 21 22  2  0
 22 23  1  0
 23 24  1  0
 24 25  1  0
 24 26  2  0
  9  3  1  0
 22 17  1  0
  1 27  1  0
  1 28  1  0
  1 29  1  0
  6 30  1  0
  7 31  1  0
  8 32  1  0
 13 33  1  0
 13 34  1  0
 16 35  1  0
 18 36  1  0
 19 37  1  0
 20 38  1  0
 21 39  1  0
 25 40  1  0
 25 41  1  0
 25 42  1  0
M  CHG  1   5  -1
M  END
>  <UniqueID>  (92) 
85

>  <SMILES>  (92) 
COc1c([O-])cccc1C(=O)OCC(=O)Nc1ccccc1OC(C)=O

>  <Energy>  (92) 
49.31534743454947

>  <Genealogy>  (92) 
COc1c([O-])cccc1C(=O)OCC(=O)Nc1ccccc1OC(C)=O (protonated)
COc1c([O-])cccc1C(=O)OCC(=O)Nc1ccccc1OC(C)=O (3D coordinates assigned)
COc1c([O-])cccc1C(=O)OCC(=O)Nc1ccccc1OC(C)=O (optimized conformer: 49.31534743454947 kcal/mol)

>  <smiles>  (92) 
COc1c(O)cccc1C(=O)OCC(=O)Nc1ccccc1OC(C)=O

>  <score_type>  (92) 
oracle

>  <origin>  (92) 
adg

>  <m_score__min__energy>  (92) 
-10.43

>  <m_primary>  (92) 
energy

$$$$
92:0
     RDKit          3D

 64 68  0  0  0  0  0  0  0  0999 V2000
   68.2590   27.2290   49.8330 C   0  0  0  0  0  0  0  0  0  0  0  0
   68.0560   28.5820   50.1740 O   0  0  0  0  0  0  0  0  0  0  0  0
   67.1240   28.6640   51.2330 C   0  0  0  0  0  0  0  0  0  0  0  0
   67.6390   29.6480   52.2830 C   0  0  0  0  0  0  0  0  0  0  0  0
   67.2150   30.9810   51.9880 O   0  0  0  0  0  0  0  0  0  0  0  0
   66.0870   31.3320   51.2280 C   0  0  0  0  0  0  0  0  0  0  0  0
   66.0780   32.4160   50.3280 C   0  0  0  0  0  0  0  0  0  0  0  0
   64.9260   32.7180   49.5980 C   0  0  0  0  0  0  0  0  0  0  0  0
   63.7600   31.9520   49.7570 C   0  0  0  0  0  0  0  0  0  0  0  0
   62.5830   32.2470   48.9770 N   0  0  0  0  0  0  0  0  0  0  0  0
   61.2750   32.4280   49.6200 C   0  0  0  0  0  0  0  0  0  0  0  0
   60.3160   31.3430   49.1260 C   0  0  0  0  0  0  0  0  0  0  0  0
   60.4440   31.1530   47.6760 N   0  0  0  0  0  0  0  0  0  0  0  0
   59.6960   30.1080   47.0430 C   0  0  0  0  0  0  0  0  0  0  0  0
   59.9160   28.8230   47.4120 N   0  0  0  0  0  0  0  0  0  0  0  0
   59.2510   27.8100   46.8570 N   0  0  0  0  0  0  0  0  0  0  0  0
   58.3120   28.0020   45.8930 C   0  0  0  0  0  0  0  0  0  0  0  0
   57.6180   26.8120   45.3590 C   0  0  0  0  0  0  0  0  0  0  0  0
   56.6310   26.1590   46.1120 C   0  0  0  0  0  0  0  0  0  0  0  0
   56.0020   25.0140   45.6130 C   0  0  0  0  0  0  0  0  0  0  0  0
   56.3560   24.4990   44.3510 C   0  0  0  0  0  0  0  0  0  0  0  0
   55.6880   23.2870   43.8200 C   0  0  0  0  0  0  0  0  0  0  0  0
   54.3260   23.3340   43.3990 N   0  0  0  0  0  0  0  0  0  0  0  0
   56.3200   22.2000   43.7340 O   0  0  0  0  0  0  0  0  0  0  0  0
   57.3580   25.1500   43.6080 C   0  0  0  0  0  0  0  0  0  0  0  0
   57.9890   26.2920   44.1120 C   0  0  0  0  0  0  0  0  0  0  0  0
   58.0480   29.3150   45.4420 C   0  0  0  0  0  0  0  0  0  0  0  0
   57.1370   29.5860   44.3990 C   0  0  0  0  0  0  0  0  0  0  0  0
   56.9140   30.8990   43.9780 C   0  0  0  0  0  0  0  0  0  0  0  0
   57.5950   31.9550   44.5800 C   0  0  0  0  0  0  0  0  0  0  0  0
   58.5150   31.7070   45.6010 C   0  0  0  0  0  0  0  0  0  0  0  0
   58.7540   30.3900   46.0370 C   0  0  0  0  0  0  0  0  0  0  0  0
   61.2740   32.0530   46.8680 C   0  0  0  0  0  0  0  0  0  0  0  0
   62.6640   32.2060   47.5070 C   0  0  0  0  0  0  0  0  0  0  0  0
   63.7730   30.8710   50.6540 C   0  0  0  0  0  0  0  0  0  0  0  0
   64.9250   30.5690   51.3840 C   0  0  0  0  0  0  0  0  0  0  0  0
   68.3490   26.6291   50.7506 H   0  0  0  0  0  0  0  0  0  0  0  0
   67.4050   26.8679   49.2412 H   0  0  0  0  0  0  0  0  0  0  0  0
   69.1814   27.1344   49.2412 H   0  0  0  0  0  0  0  0  0  0  0  0
   66.1562   29.0140   50.8446 H   0  0  0  0  0  0  0  0  0  0  0  0
   66.9959   27.6713   51.6893 H   0  0  0  0  0  0  0  0  0  0  0  0
   67.2501   29.3570   53.2700 H   0  0  0  0  0  0  0  0  0  0  0  0
   68.7387   29.6212   52.2787 H   0  0  0  0  0  0  0  0  0  0  0  0
   66.9831   33.0278   50.1995 H   0  0  0  0  0  0  0  0  0  0  0  0
   64.9323   33.5624   48.8931 H   0  0  0  0  0  0  0  0  0  0  0  0
   61.3878   32.3499   50.7114 H   0  0  0  0  0  0  0  0  0  0  0  0
   60.8728   33.4198   49.3658 H   0  0  0  0  0  0  0  0  0  0  0  0
   60.5495   30.3965   49.6355 H   0  0  0  0  0  0  0  0  0  0  0  0
   59.2854   31.6554   49.3504 H   0  0  0  0  0  0  0  0  0  0  0  0
   56.3500   26.5499   47.1011 H   0  0  0  0  0  0  0  0  0  0  0  0
   55.2260   24.5126   46.2099 H   0  0  0  0  0  0  0  0  0  0  0  0
   53.5500   23.1060   44.0600 H   0  0  0  0  0  0  0  0  0  0  0  0
   57.6476   24.7574   42.6221 H   0  0  0  0  0  0  0  0  0  0  0  0
   58.7799   26.7840   43.5268 H   0  0  0  0  0  0  0  0  0  0  0  0
   56.5990   28.7579   43.9144 H   0  0  0  0  0  0  0  0  0  0  0  0
   56.1977   31.1002   43.1678 H   0  0  0  0  0  0  0  0  0  0  0  0
   57.4074   32.9874   44.2500 H   0  0  0  0  0  0  0  0  0  0  0  0
   59.0553   32.5445   46.0666 H   0  0  0  0  0  0  0  0  0  0  0  0
   61.3828   31.6367   45.8556 H   0  0  0  0  0  0  0  0  0  0  0  0
   60.7906   33.0398   46.8170 H   0  0  0  0  0  0  0  0  0  0  0  0
   63.2905   31.3528   47.2076 H   0  0  0  0  0  0  0  0  0  0  0  0
   63.1000   33.1543   47.1597 H   0  0  0  0  0  0  0  0  0  0  0  0
   62.8690   30.2576   50.7825 H   0  0  0  0  0  0  0  0  0  0  0  0
   64.9184   29.7236   52.0878 H   0  0  0  0  0  0  0  0  0  0  0  0
  1  2  1  0
  2  3  1  0
  3  4  1  0
  4  5  1  0
  5  6  1  0
  6  7  2  0
  7  8  1  0
  8  9  2  0
  9 10  1  0
 10 11  1  0
 11 12  1  0
 12 13  1  0
 13 14  1  0
 14 15  2  0
 15 16  1  0
 16 17  2  0
 17 18  1  0
 18 19  2  0
 19 20  1  0
 20 21  2  0
 21 22  1  0
 22 23  1  0
 22 24  2  0
 21 25  1  0
 25 26  2  0
 17 27  1  0
 27 28  2  0
 28 29  1  0
 29 30  2  0
 30 31  1  0
 31 32  2  0
 13 33  1  0
 33 34  1  0
  9 35  1  0
 35 36  2  0
 36  6  1  0
 34 10  1  0
 32 14  1  0
 26 18  1  0
 32 27  1  0
  1 37  1  0
  1 38  1  0
  1 39  1  0
  3 40  1  0
  3 41  1  0
  4 42  1  0
  4 43  1  0
  7 44  1  0
  8 45  1  0
 11 46  1  0
 11 47  1  0
 12 48  1  0
 12 49  1  0
 19 50  1  0
 20 51  1  0
 23 52  1  0
 25 53  1  0
 26 54  1  0
 28 55  1  0
 29 56  1  0
 30 57  1  0
 31 58  1  0
 33 59  1  0
 33 60  1  0
 34 61  1  0
 34 62  1  0
 35 63  1  0
 36 64  1  0
M  CHG  1  23  -1
M  END
>  <UniqueID>  (93) 
86

>  <SMILES>  (93) 
COCCOc1ccc(N2CCN(c3nnc(-c4ccc(C([NH-])=O)cc4)c4ccccc34)CC2)cc1

>  <Energy>  (93) 
92.05905759470585

>  <Genealogy>  (93) 
COCCOc1ccc(N2CCN(c3nnc(-c4ccc(C([NH-])=O)cc4)c4ccccc34)CC2)cc1 (protonated)
COCCOc1ccc(N2CCN(c3nnc(-c4ccc(C([NH-])=O)cc4)c4ccccc34)CC2)cc1 (3D coordinates assigned)
COCCOc1ccc(N2CCN(c3nnc(-c4ccc(C([NH-])=O)cc4)c4ccccc34)CC2)cc1 (nonaromatic ring conformer: 92.05905759470585 kcal/mol)

>  <smiles>  (93) 
COCCOc1ccc(N2CCN(c3nnc(-c4ccc(C(N)=O)cc4)c4ccccc34)CC2)cc1

>  <score_type>  (93) 
oracle

>  <origin>  (93) 
adg

>  <m_score__min__energy>  (93) 
-10.460000000000001

>  <m_primary>  (93) 
energy

$$$$
93:0
     RDKit          3D

 31 31  0  0  0  0  0  0  0  0999 V2000
   58.6818   35.4102   44.9348 H   0  0  0  0  0  0  0  0  0  0  0  0
   58.7130   34.3550   45.2440 C   0  0  0  0  0  0  0  0  0  0  0  0
   57.6710   33.4960   44.8920 C   0  0  0  0  0  0  0  0  0  0  0  0
   56.8332   33.8693   44.2848 H   0  0  0  0  0  0  0  0  0  0  0  0
   57.6900   32.1540   45.3120 C   0  0  0  0  0  0  0  0  0  0  0  0
   56.6440   31.2410   44.9510 N   0  0  0  0  0  0  0  0  0  0  0  0
   56.7640   30.1510   44.2430 C   0  0  0  0  0  0  0  0  0  0  0  0
   57.1410   30.2390   42.8640 N   0  0  0  0  0  0  0  0  0  0  0  0
   57.2580   29.3640   42.3060 H   0  0  0  0  0  0  0  0  0  0  0  0
   57.3630   31.4720   42.2310 C   0  0  0  0  0  0  0  0  0  0  0  0
   57.5460   32.4890   41.7100 N   0  0  0  0  0  0  0  0  0  0  0  0
   56.5650   28.8520   44.8190 N   0  0  0  0  0  0  0  0  0  0  0  0
   56.0150   28.1620   44.2590 H   0  0  0  0  0  0  0  0  0  0  0  0
   57.4260   28.3700   45.9010 C   0  0  0  0  0  0  0  0  0  0  0  0
   58.4580   28.2848   45.5299 H   0  0  0  0  0  0  0  0  0  0  0  0
   57.3771   29.0849   46.7356 H   0  0  0  0  0  0  0  0  0  0  0  0
   56.9560   26.9970   46.4010 C   0  0  0  0  0  0  0  0  0  0  0  0
   57.6447   26.2249   46.0276 H   0  0  0  0  0  0  0  0  0  0  0  0
   56.9476   27.0127   47.5009 H   0  0  0  0  0  0  0  0  0  0  0  0
   55.6040   26.6950   45.9340 N   0  0  0  0  0  0  0  0  0  0  0  0
   55.0320   26.3680   46.7450 H   0  0  0  0  0  0  0  0  0  0  0  0
   55.1680   27.5740   45.5710 H   0  0  0  0  0  0  0  0  0  0  0  0
   58.7930   31.6730   46.0280 C   0  0  0  0  0  0  0  0  0  0  0  0
   58.8254   30.6163   46.3319 H   0  0  0  0  0  0  0  0  0  0  0  0
   59.8600   32.5260   46.3630 C   0  0  0  0  0  0  0  0  0  0  0  0
   61.0100   32.0180   47.1960 C   0  0  0  0  0  0  0  0  0  0  0  0
   60.6770   32.0120   48.5400 F   0  0  0  0  0  0  0  0  0  0  0  0
   62.1240   32.8230   47.0310 F   0  0  0  0  0  0  0  0  0  0  0  0
   61.3220   30.7300   46.8040 F   0  0  0  0  0  0  0  0  0  0  0  0
   59.7960   33.8790   45.9880 C   0  0  0  0  0  0  0  0  0  0  0  0
   60.6026   34.5669   46.2817 H   0  0  0  0  0  0  0  0  0  0  0  0
  1  2  1  0
  2  3  2  0
  3  4  1  0
  3  5  1  0
  5  6  1  0
  6  7  2  0
  7  8  1  0
  8  9  1  0
  8 10  1  0
 10 11  3  0
  7 12  1  0
 12 13  1  0
 12 14  1  0
 14 15  1  0
 14 16  1  0
 14 17  1  0
 17 18  1  0
 17 19  1  0
 17 20  1  0
 20 21  1  0
 20 22  1  0
  5 23  2  0
 23 24  1  0
 23 25  1  0
 25 26  1  0
 26 27  1  0
 26 28  1  0
 26 29  1  0
 25 30  2  0
 30 31  1  0
 30  2  1  0
M  END
>  <UniqueID>  (94) 
87

>  <SMILES>  (94) 
N#CN/C(=N/c1cccc(C(F)(F)F)c1)NCCN

>  <Energy>  (94) 
34.188485986297735

>  <Genealogy>  (94) 
N#CN/C(=N/c1cccc(C(F)(F)F)c1)NCCN (cis-trans isomerization)
N#CN/C(=N/c1cccc(C(F)(F)F)c1)NCCN (3D coordinates assigned)
N#CN/C(=N/c1cccc(C(F)(F)F)c1)NCCN (optimized conformer: 34.188485986297735 kcal/mol)

>  <smiles>  (94) 
N#CNC(=Nc1cccc(C(F)(F)F)c1)NCCN

>  <score_type>  (94) 
oracle

>  <origin>  (94) 
adg

>  <m_score__min__energy>  (94) 
-6.9299999999999997

>  <m_primary>  (94) 
energy

$$$$
