0:0
     RDKit          3D

 32 34  0  0  0  0  0  0  0  0999 V2000
   54.7830   26.7110   45.9690 O   0  0  0  0  0  0  0  0  0  0  0  0
   55.3370   25.4400   45.8560 C   0  0  0  0  0  0  0  0  0  0  0  0
   54.5600   24.3980   45.3370 C   0  0  0  0  0  0  0  0  0  0  0  0
   55.1010   23.1170   45.2020 C   0  0  0  0  0  0  0  0  0  0  0  0
   56.4200   22.8710   45.5920 C   0  0  0  0  0  0  0  0  0  0  0  0
   57.2000   23.9040   46.1150 C   0  0  0  0  0  0  0  0  0  0  0  0
   56.6680   25.1990   46.2530 C   0  0  0  0  0  0  0  0  0  0  0  0
   57.5460   26.3250   46.7440 C   0  0  0  0  0  0  0  0  0  0  0  0
   58.1400   27.1320   45.5820 C   0  0  0  0  0  0  0  0  0  0  0  0
   57.2310   28.1980   45.1640 N   0  0  0  0  0  0  0  0  0  0  0  0
   57.5650   29.5850   45.2870 C   0  0  0  0  0  0  0  0  0  0  0  0
   58.6830   30.0340   45.9170 N   0  0  0  0  0  0  0  0  0  0  0  0
   58.5400   31.3650   45.8110 C   0  0  0  0  0  0  0  0  0  0  0  0
   59.3870   32.3570   46.2980 C   0  0  0  0  0  0  0  0  0  0  0  0
   59.0190   33.6970   46.0720 C   0  0  0  0  0  0  0  0  0  0  0  0
   57.8280   34.0050   45.3740 C   0  0  0  0  0  0  0  0  0  0  0  0
   56.9930   32.9750   44.8990 C   0  0  0  0  0  0  0  0  0  0  0  0
   57.3900   31.6640   45.1440 C   0  0  0  0  0  0  0  0  0  0  0  0
   56.7910   30.5510   44.8180 O   0  0  0  0  0  0  0  0  0  0  0  0
   53.5197   24.5883   45.0343 H   0  0  0  0  0  0  0  0  0  0  0  0
   54.4886   22.3021   44.7887 H   0  0  0  0  0  0  0  0  0  0  0  0
   56.8445   21.8617   45.4868 H   0  0  0  0  0  0  0  0  0  0  0  0
   58.2374   23.7040   46.4212 H   0  0  0  0  0  0  0  0  0  0  0  0
   56.9444   26.9971   47.3735 H   0  0  0  0  0  0  0  0  0  0  0  0
   58.3770   25.8864   47.3159 H   0  0  0  0  0  0  0  0  0  0  0  0
   59.0927   27.5777   45.9039 H   0  0  0  0  0  0  0  0  0  0  0  0
   58.2991   26.4540   44.7305 H   0  0  0  0  0  0  0  0  0  0  0  0
   56.2560   27.9440   44.8890 H   0  0  0  0  0  0  0  0  0  0  0  0
   60.3101   32.1030   46.8396 H   0  0  0  0  0  0  0  0  0  0  0  0
   59.6620   34.5098   46.4407 H   0  0  0  0  0  0  0  0  0  0  0  0
   57.5521   35.0557   45.2010 H   0  0  0  0  0  0  0  0  0  0  0  0
   56.0631   33.1983   44.3554 H   0  0  0  0  0  0  0  0  0  0  0  0
  1  2  1  0
  2  3  2  0
  3  4  1  0
  4  5  2  0
  5  6  1  0
  6  7  2  0
  7  8  1  0
  8  9  1  0
  9 10  1  0
 10 11  1  0
 11 12  2  0
 12 13  1  0
 13 14  2  0
 14 15  1  0
 15 16  2  0
 16 17  1  0
 17 18  2  0
 18 19  1  0
  7  2  1  0
 19 11  1  0
 18 13  1  0
  3 20  1  0
  4 21  1  0
  5 22  1  0
  6 23  1  0
  8 24  1  0
  8 25  1  0
  9 26  1  0
  9 27  1  0
 10 28  1  0
 14 29  1  0
 15 30  1  0
 16 31  1  0
 17 32  1  0
M  CHG  1   1  -1
M  END
>  <UniqueID>  (1) 
1

>  <SMILES>  (1) 
[O-]c1ccccc1CCNc1nc2ccccc2o1

>  <Energy>  (1) 
66.46929301590995

>  <Genealogy>  (1) 
[O-]c1ccccc1CCNc1nc2ccccc2o1 (protonated)
[O-]c1ccccc1CCNc1nc2ccccc2o1 (3D coordinates assigned)
[O-]c1ccccc1CCNc1nc2ccccc2o1 (optimized conformer: 66.46929301590995 kcal/mol)

>  <smiles>  (1) 
Oc1ccccc1CCNc1nc2ccccc2o1

>  <score_type>  (1) 
oracle

>  <origin>  (1) 
adg

>  <m_score__min__energy>  (1) 
-11.32

>  <m_primary>  (1) 
energy

$$$$
1:0
     RDKit          3D

 70 73  0  0  0  0  0  0  0  0999 V2000
   66.3870   33.1670   51.4590 C   0  0  0  0  0  0  0  0  0  0  0  0
   65.6030   32.3470   50.4780 C   0  0  0  0  0  0  0  0  0  0  0  0
   66.0890   31.2440   50.1030 O   0  0  0  0  0  0  0  0  0  0  0  0
   64.3050   32.7700   49.9890 N   0  0  0  0  0  0  0  0  0  0  0  0
   63.7160   32.0550   48.8480 C   0  0  0  0  0  0  0  0  0  0  0  0
   62.1910   32.1660   48.8650 C   0  0  0  0  0  0  0  0  0  0  0  0
   61.7920   33.5800   48.9630 N   0  0  0  0  0  0  0  0  0  0  0  0
   60.0530   33.7090   48.8550 S   0  0  0  0  0  0  0  0  0  0  0  0
   59.6100   34.9680   49.5460 O   0  0  0  0  0  0  0  0  0  0  0  0
   59.4110   32.5440   49.5590 O   0  0  0  0  0  0  0  0  0  0  0  0
   59.5070   33.7470   47.1770 C   0  0  0  0  0  0  0  0  0  0  0  0
   59.4400   34.9650   46.4900 C   0  0  0  0  0  0  0  0  0  0  0  0
   59.0450   34.9910   45.1520 C   0  0  0  0  0  0  0  0  0  0  0  0
   58.7150   33.8050   44.4920 C   0  0  0  0  0  0  0  0  0  0  0  0
   58.7670   32.5730   45.1680 C   0  0  0  0  0  0  0  0  0  0  0  0
   58.4390   31.3170   44.4520 C   0  0  0  0  0  0  0  0  0  0  0  0
   59.2210   30.3280   44.5390 O   0  0  0  0  0  0  0  0  0  0  0  0
   57.2570   31.2120   43.6450 N   0  0  0  0  0  0  0  0  0  0  0  0
   56.7700   29.9210   43.1630 C   0  0  0  0  0  0  0  0  0  0  0  0
   55.5000   29.5600   43.8650 C   0  0  0  0  0  0  0  0  0  0  0  0
   54.3930   29.7010   43.2780 O   0  0  0  0  0  0  0  0  0  0  0  0
   55.5580   29.0530   45.2020 N   0  0  0  0  0  0  0  0  0  0  0  0
   56.4540   28.0380   45.6720 C   0  0  0  0  0  0  0  0  0  0  0  0
   57.7700   28.4020   45.9840 C   0  0  0  0  0  0  0  0  0  0  0  0
   58.6760   27.4490   46.4730 C   0  0  0  0  0  0  0  0  0  0  0  0
   60.3230   27.9080   46.8950 S   0  0  0  0  0  0  0  0  0  0  0  0
   61.0820   26.6730   47.2970 O   0  0  0  0  0  0  0  0  0  0  0  0
   61.0050   28.5340   45.7090 O   0  0  0  0  0  0  0  0  0  0  0  0
   60.2880   29.0420   48.2220 N   0  0  0  0  0  0  0  0  0  0  0  0
   61.1660   28.6000   49.3300 C   0  0  0  0  0  0  0  0  0  0  0  0
   60.3670   28.1290   50.5570 C   0  0  0  0  0  0  0  0  0  0  0  0
   59.4960   29.1290   51.0620 O   0  0  0  0  0  0  0  0  0  0  0  0
   58.8570   29.9000   50.0490 C   0  0  0  0  0  0  0  0  0  0  0  0
   58.8940   29.2720   48.6460 C   0  0  0  0  0  0  0  0  0  0  0  0
   58.2560   26.1280   46.6640 C   0  0  0  0  0  0  0  0  0  0  0  0
   56.9380   25.7640   46.3850 C   0  0  0  0  0  0  0  0  0  0  0  0
   56.0290   26.7140   45.9080 C   0  0  0  0  0  0  0  0  0  0  0  0
   54.7050   26.3390   45.7140 O   0  0  0  0  0  0  0  0  0  0  0  0
   59.1700   32.5560   46.5150 C   0  0  0  0  0  0  0  0  0  0  0  0
   62.2610   34.1430   50.2380 C   0  0  0  0  0  0  0  0  0  0  0  0
   63.7920   34.1120   50.3030 C   0  0  0  0  0  0  0  0  0  0  0  0
   66.1099   32.8772   52.4833 H   0  0  0  0  0  0  0  0  0  0  0  0
   67.4622   32.9919   51.3066 H   0  0  0  0  0  0  0  0  0  0  0  0
   66.1639   34.2333   51.3066 H   0  0  0  0  0  0  0  0  0  0  0  0
   64.0987   32.4905   47.9132 H   0  0  0  0  0  0  0  0  0  0  0  0
   63.9926   30.9926   48.9174 H   0  0  0  0  0  0  0  0  0  0  0  0
   61.7837   31.7356   47.9383 H   0  0  0  0  0  0  0  0  0  0  0  0
   61.7979   31.6179   49.7340 H   0  0  0  0  0  0  0  0  0  0  0  0
   59.6988   35.9018   47.0052 H   0  0  0  0  0  0  0  0  0  0  0  0
   58.9933   35.9495   44.6147 H   0  0  0  0  0  0  0  0  0  0  0  0
   58.4120   33.8350   43.4350 H   0  0  0  0  0  0  0  0  0  0  0  0
   56.8030   32.0870   43.2950 H   0  0  0  0  0  0  0  0  0  0  0  0
   56.5833   29.9829   42.0807 H   0  0  0  0  0  0  0  0  0  0  0  0
   57.5275   29.1499   43.3669 H   0  0  0  0  0  0  0  0  0  0  0  0
   58.0958   29.4434   45.8445 H   0  0  0  0  0  0  0  0  0  0  0  0
   61.7917   27.7679   48.9749 H   0  0  0  0  0  0  0  0  0  0  0  0
   61.7780   29.4607   49.6376 H   0  0  0  0  0  0  0  0  0  0  0  0
   59.7674   27.2523   50.2708 H   0  0  0  0  0  0  0  0  0  0  0  0
   61.0896   27.8872   51.3504 H   0  0  0  0  0  0  0  0  0  0  0  0
   57.8039   30.0372   50.3356 H   0  0  0  0  0  0  0  0  0  0  0  0
   59.4131   30.8466   49.9810 H   0  0  0  0  0  0  0  0  0  0  0  0
   58.3577   28.3118   48.6645 H   0  0  0  0  0  0  0  0  0  0  0  0
   58.4136   29.9597   47.9345 H   0  0  0  0  0  0  0  0  0  0  0  0
   58.9665   25.3746   47.0350 H   0  0  0  0  0  0  0  0  0  0  0  0
   56.6124   24.7249   46.5410 H   0  0  0  0  0  0  0  0  0  0  0  0
   59.2217   31.5994   47.0556 H   0  0  0  0  0  0  0  0  0  0  0  0
   61.9153   35.1837   50.3240 H   0  0  0  0  0  0  0  0  0  0  0  0
   61.8559   33.5414   51.0650 H   0  0  0  0  0  0  0  0  0  0  0  0
   64.1977   34.8314   49.5765 H   0  0  0  0  0  0  0  0  0  0  0  0
   64.1052   34.3774   51.3235 H   0  0  0  0  0  0  0  0  0  0  0  0
  1  2  1  0
  2  3  2  0
  2  4  1  0
  4  5  1  0
  5  6  1  0
  6  7  1  0
  7  8  1  0
  8  9  2  0
  8 10  2  0
  8 11  1  0
 11 12  2  0
 12 13  1  0
 13 14  2  0
 14 15  1  0
 15 16  1  0
 16 17  2  0
 16 18  1  0
 18 19  1  0
 19 20  1  0
 20 21  2  0
 20 22  1  0
 22 23  1  0
 23 24  2  0
 24 25  1  0
 25 26  1  0
 26 27  2  0
 26 28  2  0
 26 29  1  0
 29 30  1  0
 30 31  1  0
 31 32  1  0
 32 33  1  0
 33 34  1  0
 25 35  2  0
 35 36  1  0
 36 37  2  0
 37 38  1  0
 15 39  2  0
  7 40  1  0
 40 41  1  0
 41  4  1  0
 39 11  1  0
 37 23  1  0
 34 29  1  0
  1 42  1  0
  1 43  1  0
  1 44  1  0
  5 45  1  0
  5 46  1  0
  6 47  1  0
  6 48  1  0
 12 49  1  0
 13 50  1  0
 14 51  1  0
 18 52  1  0
 19 53  1  0
 19 54  1  0
 24 55  1  0
 30 56  1  0
 30 57  1  0
 31 58  1  0
 31 59  1  0
 33 60  1  0
 33 61  1  0
 34 62  1  0
 34 63  1  0
 35 64  1  0
 36 65  1  0
 39 66  1  0
 40 67  1  0
 40 68  1  0
 41 69  1  0
 41 70  1  0
M  CHG  2  22  -1  38  -1
M  END
>  <UniqueID>  (2) 
2

>  <SMILES>  (2) 
CC(=O)N1CCN(S(=O)(=O)c2cccc(C(=O)NCC(=O)[N-]c3cc(S(=O)(=O)N4CCOCC4)ccc3[O-])c2)CC1

>  <Energy>  (2) 
86.25802826189114

>  <Genealogy>  (2) 
CC(=O)N1CCN(S(=O)(=O)c2cccc(C(=O)NCC(=O)[N-]c3cc(S(=O)(=O)N4CCOCC4)ccc3[O-])c2)CC1 (protonated)
CC(=O)N1CCN(S(=O)(=O)c2cccc(C(=O)NCC(=O)[N-]c3cc(S(=O)(=O)N4CCOCC4)ccc3[O-])c2)CC1 (3D coordinates assigned)
CC(=O)N1CCN(S(=O)(=O)c2cccc(C(=O)NCC(=O)[N-]c3cc(S(=O)(=O)N4CCOCC4)ccc3[O-])c2)CC1 (nonaromatic ring conformer: 86.25802826189114 kcal/mol)

>  <smiles>  (2) 
CC(=O)N1CCN(S(=O)(=O)c2cccc(C(=O)NCC(=O)Nc3cc(S(=O)(=O)N4CCOCC4)ccc3O)c2)CC1

>  <score_type>  (2) 
oracle

>  <origin>  (2) 
adg

>  <m_score__min__energy>  (2) 
-16.719999999999999

>  <m_primary>  (2) 
energy

$$$$
2:0
     RDKit          3D

 40 42  0  0  0  0  0  0  0  0999 V2000
   60.9750   30.4810   48.9660 C   0  0  0  0  0  0  0  0  0  0  0  0
   60.1500   31.5670   49.5800 C   0  0  0  0  0  0  0  0  0  0  0  0
   59.3480   31.3660   50.6450 N   0  0  0  0  0  0  0  0  0  0  0  0
   58.7900   32.5790   50.8300 C   0  0  0  0  0  0  0  0  0  0  0  0
   57.9540   32.8200   51.7410 O   0  0  0  0  0  0  0  0  0  0  0  0
   59.1960   33.4840   49.9700 O   0  0  0  0  0  0  0  0  0  0  0  0
   60.0560   32.8920   49.1780 C   0  0  0  0  0  0  0  0  0  0  0  0
   60.7490   33.5760   48.0680 C   0  0  0  0  0  0  0  0  0  0  0  0
   62.3130   34.0190   48.2660 S   0  0  0  0  0  0  0  0  0  0  0  0
   60.0800   33.9230   46.8480 N   0  0  0  0  0  0  0  0  0  0  0  0
   59.2240   33.0310   46.1120 C   0  0  0  0  0  0  0  0  0  0  0  0
   58.2350   33.5100   45.2310 C   0  0  0  0  0  0  0  0  0  0  0  0
   57.4090   32.6160   44.5440 C   0  0  0  0  0  0  0  0  0  0  0  0
   57.5490   31.2350   44.7370 C   0  0  0  0  0  0  0  0  0  0  0  0
   56.5020   30.0910   43.9040 S   0  0  0  0  0  0  0  0  0  0  0  0
   56.2730   30.5790   42.5020 O   0  0  0  0  0  0  0  0  0  0  0  0
   55.1700   29.9730   44.5910 O   0  0  0  0  0  0  0  0  0  0  0  0
   57.2640   28.5340   43.8450 N   0  0  0  0  0  0  0  0  0  0  0  0
   57.7970   27.8220   44.9710 C   0  0  0  0  0  0  0  0  0  0  0  0
   59.1820   27.7450   45.2160 C   0  0  0  0  0  0  0  0  0  0  0  0
   59.6630   27.0360   46.3210 C   0  0  0  0  0  0  0  0  0  0  0  0
   58.7720   26.4160   47.1980 C   0  0  0  0  0  0  0  0  0  0  0  0
   57.3970   26.4930   46.9680 C   0  0  0  0  0  0  0  0  0  0  0  0
   56.9050   27.1940   45.8570 C   0  0  0  0  0  0  0  0  0  0  0  0
   55.5320   27.2720   45.6290 O   0  0  0  0  0  0  0  0  0  0  0  0
   58.5210   30.7550   45.6220 C   0  0  0  0  0  0  0  0  0  0  0  0
   59.3500   31.6470   46.3080 C   0  0  0  0  0  0  0  0  0  0  0  0
   61.4348   29.8757   49.7611 H   0  0  0  0  0  0  0  0  0  0  0  0
   60.3333   29.8410   48.3426 H   0  0  0  0  0  0  0  0  0  0  0  0
   61.7637   30.9276   48.3426 H   0  0  0  0  0  0  0  0  0  0  0  0
   60.3190   34.8420   46.4080 H   0  0  0  0  0  0  0  0  0  0  0  0
   58.1121   34.5930   45.0829 H   0  0  0  0  0  0  0  0  0  0  0  0
   56.6463   32.9977   43.8493 H   0  0  0  0  0  0  0  0  0  0  0  0
   59.8876   28.2444   44.5357 H   0  0  0  0  0  0  0  0  0  0  0  0
   60.7462   26.9668   46.4994 H   0  0  0  0  0  0  0  0  0  0  0  0
   59.1532   25.8662   48.0712 H   0  0  0  0  0  0  0  0  0  0  0  0
   56.6971   26.0023   47.6604 H   0  0  0  0  0  0  0  0  0  0  0  0
   55.1450   27.8840   44.9180 H   0  0  0  0  0  0  0  0  0  0  0  0
   58.6330   29.6719   45.7783 H   0  0  0  0  0  0  0  0  0  0  0  0
   60.1069   31.2614   47.0068 H   0  0  0  0  0  0  0  0  0  0  0  0
  1  2  1  0
  2  3  1  0
  3  4  1  0
  4  5  2  0
  4  6  1  0
  6  7  1  0
  7  8  1  0
  8  9  2  0
  8 10  1  0
 10 11  1  0
 11 12  2  0
 12 13  1  0
 13 14  2  0
 14 15  1  0
 15 16  2  0
 15 17  2  0
 15 18  1  0
 18 19  1  0
 19 20  2  0
 20 21  1  0
 21 22  2  0
 22 23  1  0
 23 24  2  0
 24 25  1  0
 14 26  1  0
 26 27  2  0
  7  2  2  0
 27 11  1  0
 24 19  1  0
  1 28  1  0
  1 29  1  0
  1 30  1  0
 10 31  1  0
 12 32  1  0
 13 33  1  0
 20 34  1  0
 21 35  1  0
 22 36  1  0
 23 37  1  0
 25 38  1  0
 26 39  1  0
 27 40  1  0
M  CHG  2   3  -1  18  -1
M  END
>  <UniqueID>  (3) 
3

>  <SMILES>  (3) 
Cc1[n-]c(=O)oc1C(=S)Nc1ccc(S(=O)(=O)[N-]c2ccccc2O)cc1

>  <Energy>  (3) 
81.16631184086667

>  <Genealogy>  (3) 
Cc1[n-]c(=O)oc1C(=S)Nc1ccc(S(=O)(=O)[N-]c2ccccc2O)cc1 (protonated)
Cc1[n-]c(=O)oc1C(=S)Nc1ccc(S(=O)(=O)[N-]c2ccccc2O)cc1 (3D coordinates assigned)
Cc1[n-]c(=O)oc1C(=S)Nc1ccc(S(=O)(=O)[N-]c2ccccc2O)cc1 (optimized conformer: 81.16631184086667 kcal/mol)

>  <smiles>  (3) 
Cc1[nH]c(=O)oc1C(=S)Nc1ccc(S(=O)(=O)Nc2ccccc2O)cc1

>  <score_type>  (3) 
oracle

>  <origin>  (3) 
adg

>  <m_score__min__energy>  (3) 
-11.800000000000001

>  <m_primary>  (3) 
energy

$$$$
3:0
     RDKit          3D

 79 83  0  0  1  0  0  0  0  0999 V2000
   59.0630   21.8450   44.8640 C   0  0  0  0  0  0  0  0  0  0  0  0
   58.2390   21.8270   45.9930 O   0  0  0  0  0  0  0  0  0  0  0  0
   57.2040   20.9460   45.7480 C   0  0  0  0  0  0  0  0  0  0  0  0
   56.9100   20.8540   44.2710 C   0  0  0  0  0  0  0  0  0  0  0  0
   55.8950   21.7730   43.9140 N   0  0  0  0  0  0  0  0  0  0  0  0
   55.3160   22.4670   45.0470 C   0  0  0  0  0  0  0  0  0  0  0  0
   55.4350   23.9700   44.8990 C   0  0  0  0  0  0  0  0  0  0  0  0
   56.8070   24.2880   44.4120 C   0  0  0  0  0  0  0  0  0  0  0  0
   57.1440   25.6900   44.5290 N   0  0  0  0  0  0  0  0  0  0  0  0
   58.0200   26.2070   45.5220 C   0  0  0  0  0  0  0  0  0  0  0  0
   58.5480   25.4260   46.3620 O   0  0  0  0  0  0  0  0  0  0  0  0
   58.3550   27.6210   45.6350 C   0  0  0  0  0  0  0  0  0  0  0  0
   59.5730   27.9530   46.1900 C   0  0  0  0  0  0  0  0  0  0  0  0
   59.9210   29.3020   46.3110 C   0  0  0  0  0  0  0  0  0  0  0  0
   59.0760   30.3120   45.8910 C   0  0  0  0  0  0  0  0  0  0  0  0
   59.4390   31.6770   46.0190 N   0  0  0  0  0  0  0  0  0  0  0  0
   60.3470   32.0990   46.8290 C   0  0  0  0  0  0  0  0  0  0  0  0
   60.3930   31.5340   48.0520 N   0  0  0  0  0  0  0  0  0  0  0  0
   61.3030   31.9010   48.9780 C   0  0  0  0  0  0  0  0  0  0  0  0
   62.1910   32.8890   48.6090 C   0  0  0  0  0  0  0  0  0  0  0  0
   62.1240   33.4610   47.3330 C   0  0  0  0  0  0  0  0  0  0  0  0
   61.1960   33.0650   46.4320 N   0  0  0  0  0  0  0  0  0  0  0  0
   63.1220   33.1710   49.7440 C   0  0  0  0  0  0  0  0  0  0  0  0
   64.5580   32.8270   49.3620 C   0  0  0  0  0  0  0  0  0  0  0  0
   63.0230   34.6100   50.2140 C   0  0  0  0  0  0  0  0  0  0  0  0
   62.6380   32.2200   50.7790 C   0  0  0  0  0  0  0  0  0  0  0  0
   63.1160   32.0760   51.9470 O   0  0  0  0  0  0  0  0  0  0  0  0
   61.5480   31.4650   50.3070 N   0  0  0  0  0  0  0  0  0  0  0  0
   60.7600   30.4320   50.9510 C   0  0  0  0  0  0  0  0  0  0  0  0
   59.4240   30.9860   51.3240 C   0  0  0  0  0  0  0  0  0  0  0  0
   58.2680   30.2360   51.2870 C   0  0  0  0  0  0  0  0  0  0  0  0
   57.0750   30.8320   51.6510 C   0  0  0  0  0  0  0  0  0  0  0  0
   57.0510   32.1610   52.0420 C   0  0  0  0  0  0  0  0  0  0  0  0
   58.2040   32.9110   52.0790 C   0  0  0  0  0  0  0  0  0  0  0  0
   59.3890   32.3200   51.7190 C   0  0  0  0  0  0  0  0  0  0  0  0
   57.8550   29.9680   45.3350 C   0  0  0  0  0  0  0  0  0  0  0  0
   57.0280   31.0020   44.9210 O   0  0  0  0  0  0  0  0  0  0  0  0
   57.3910   31.8780   43.8840 C   0  0  0  0  0  0  0  0  0  0  0  0
   57.5190   28.6340   45.2180 C   0  0  0  0  0  0  0  0  0  0  0  0
   56.9570   23.7860   42.9950 C   0  0  0  0  0  0  0  0  0  0  0  0
   56.0780   22.5870   42.7770 C   0  0  0  0  0  0  0  0  0  0  0  0
   60.1166   21.8680   45.1793 H   0  0  0  0  0  0  0  0  0  0  0  0
   58.8800   20.9426   44.2621 H   0  0  0  0  0  0  0  0  0  0  0  0
   58.8408   22.7385   44.2621 H   0  0  0  0  0  0  0  0  0  0  0  0
   57.4835   19.9499   46.1218 H   0  0  0  0  0  0  0  0  0  0  0  0
   56.3032   21.3121   46.2624 H   0  0  0  0  0  0  0  0  0  0  0  0
   57.8240   21.0846   43.7040 H   0  0  0  0  0  0  0  0  0  0  0  0
   56.5683   19.8349   44.0370 H   0  0  0  0  0  0  0  0  0  0  0  0
   54.2520   22.1988   45.1245 H   0  0  0  0  0  0  0  0  0  0  0  0
   55.8634   22.1655   45.9522 H   0  0  0  0  0  0  0  0  0  0  0  0
   54.6906   24.3320   44.1746 H   0  0  0  0  0  0  0  0  0  0  0  0
   55.2547   24.4603   45.8670 H   0  0  0  0  0  0  0  0  0  0  0  0
   57.5277   23.7694   45.0614 H   0  0  0  0  0  0  0  0  0  0  0  0
   56.7080   26.3350   43.8350 H   0  0  0  0  0  0  0  0  0  0  0  0
   60.2618   27.1669   46.5330 H   0  0  0  0  0  0  0  0  0  0  0  0
   60.8933   29.5664   46.7523 H   0  0  0  0  0  0  0  0  0  0  0  0
   62.8407   34.2486   47.0574 H   0  0  0  0  0  0  0  0  0  0  0  0
   61.1130   33.4610   45.4820 H   0  0  0  0  0  0  0  0  0  0  0  0
   65.1558   32.6838   50.2742 H   0  0  0  0  0  0  0  0  0  0  0  0
   64.5677   31.9011   48.7681 H   0  0  0  0  0  0  0  0  0  0  0  0
   64.9862   33.6480   48.7681 H   0  0  0  0  0  0  0  0  0  0  0  0
   63.0211   34.6373   51.3137 H   0  0  0  0  0  0  0  0  0  0  0  0
   63.8841   35.1797   49.8346 H   0  0  0  0  0  0  0  0  0  0  0  0
   62.0920   35.0564   49.8346 H   0  0  0  0  0  0  0  0  0  0  0  0
   60.6267   29.5874   50.2590 H   0  0  0  0  0  0  0  0  0  0  0  0
   61.2793   30.0851   51.8565 H   0  0  0  0  0  0  0  0  0  0  0  0
   58.2944   29.1820   50.9734 H   0  0  0  0  0  0  0  0  0  0  0  0
   56.1421   30.2495   51.6302 H   0  0  0  0  0  0  0  0  0  0  0  0
   56.0949   32.6240   52.3274 H   0  0  0  0  0  0  0  0  0  0  0  0
   58.1764   33.9653   52.3915 H   0  0  0  0  0  0  0  0  0  0  0  0
   60.3196   32.9060   51.7429 H   0  0  0  0  0  0  0  0  0  0  0  0
   57.7787   32.8136   44.3132 H   0  0  0  0  0  0  0  0  0  0  0  0
   58.1690   31.4092   43.2635 H   0  0  0  0  0  0  0  0  0  0  0  0
   56.5095   32.0969   43.2635 H   0  0  0  0  0  0  0  0  0  0  0  0
   56.5473   28.3698   44.7752 H   0  0  0  0  0  0  0  0  0  0  0  0
   56.6666   24.5825   42.2941 H   0  0  0  0  0  0  0  0  0  0  0  0
   58.0052   23.5004   42.8230 H   0  0  0  0  0  0  0  0  0  0  0  0
   55.0903   22.9422   42.4479 H   0  0  0  0  0  0  0  0  0  0  0  0
   56.5866   21.9625   42.0278 H   0  0  0  0  0  0  0  0  0  0  0  0
  1  2  1  0
  2  3  1  0
  3  4  1  0
  4  5  1  0
  5  6  1  0
  6  7  1  0
  7  8  1  0
  8  9  1  0
  9 10  1  0
 10 11  2  0
 10 12  1  0
 12 13  2  0
 13 14  1  0
 14 15  2  0
 15 16  1  0
 16 17  2  0
 17 18  1  0
 18 19  2  0
 19 20  1  0
 20 21  2  0
 21 22  1  0
 20 23  1  0
 23 24  1  0
 23 25  1  0
 23 26  1  0
 26 27  2  0
 26 28  1  0
 28 29  1  0
 29 30  1  0
 30 31  2  0
 31 32  1  0
 32 33  2  0
 33 34  1  0
 34 35  2  0
 15 36  1  0
 36 37  1  0
 37 38  1  0
 36 39  2  0
  8 40  1  0
 40 41  1  0
 41  5  1  0
 39 12  1  0
 22 17  1  0
 35 30  1  0
 28 19  1  0
  1 42  1  0
  1 43  1  0
  1 44  1  0
  3 45  1  0
  3 46  1  0
  4 47  1  0
  4 48  1  0
  6 49  1  0
  6 50  1  0
  7 51  1  0
  7 52  1  0
  8 53  1  0
  9 54  1  0
 13 55  1  0
 14 56  1  0
 21 57  1  0
 22 58  1  0
 24 59  1  0
 24 60  1  0
 24 61  1  0
 25 62  1  0
 25 63  1  0
 25 64  1  0
 29 65  1  0
 29 66  1  0
 31 67  1  0
 32 68  1  0
 33 69  1  0
 34 70  1  0
 35 71  1  0
 38 72  1  0
 38 73  1  0
 38 74  1  0
 39 75  1  0
 40 76  1  0
 40 77  1  0
 41 78  1  0
 41 79  1  0
M  END
>  <smiles>  (4) 
COCCN1CCC(NC(=O)c2ccc(N=c3nc4c(c[nH]3)C(C)(C)C(=O)N4Cc3ccccc3)c(OC)c2)CC1

>  <score_type>  (4) 
oracle

>  <origin>  (4) 
adg

>  <m_score__min__energy>  (4) 
-8.9900000000000002

>  <m_primary>  (4) 
energy

$$$$
4:0
     RDKit          3D

 37 38  0  0  0  0  0  0  0  0999 V2000
   59.1910   34.0940   45.9160 C   0  0  0  0  0  0  0  0  0  0  0  0
   60.4810   34.5870   46.2670 O   0  0  0  0  0  0  0  0  0  0  0  0
   61.4940   33.8110   46.8490 C   0  0  0  0  0  0  0  0  0  0  0  0
   62.8360   33.8860   46.4320 C   0  0  0  0  0  0  0  0  0  0  0  0
   63.8100   33.0980   47.0500 C   0  0  0  0  0  0  0  0  0  0  0  0
   63.4570   32.2260   48.0820 C   0  0  0  0  0  0  0  0  0  0  0  0
   62.1200   32.1300   48.5000 C   0  0  0  0  0  0  0  0  0  0  0  0
   61.7470   31.2230   49.6380 C   0  0  0  0  0  0  0  0  0  0  0  0
   60.7040   30.2450   49.1900 C   0  0  0  0  0  0  0  0  0  0  0  0
   59.7380   29.9760   49.9550 O   0  0  0  0  0  0  0  0  0  0  0  0
   60.8110   29.6240   47.8990 N   0  0  0  0  0  0  0  0  0  0  0  0
   59.7370   28.9180   47.2550 C   0  0  0  0  0  0  0  0  0  0  0  0
   59.4670   27.5690   47.5450 C   0  0  0  0  0  0  0  0  0  0  0  0
   58.3960   26.9160   46.9290 C   0  0  0  0  0  0  0  0  0  0  0  0
   57.5810   27.6020   46.0270 C   0  0  0  0  0  0  0  0  0  0  0  0
   57.8300   28.9500   45.7380 C   0  0  0  0  0  0  0  0  0  0  0  0
   56.7940   29.8300   44.6190 S   0  0  0  0  0  0  0  0  0  0  0  0
   55.1530   29.3390   44.8420 N   0  0  0  0  0  0  0  0  0  0  0  0
   56.9190   31.3070   44.8700 O   0  0  0  0  0  0  0  0  0  0  0  0
   57.2100   29.5460   43.2020 O   0  0  0  0  0  0  0  0  0  0  0  0
   58.9000   29.6070   46.3630 C   0  0  0  0  0  0  0  0  0  0  0  0
   61.1470   32.9340   47.8840 C   0  0  0  0  0  0  0  0  0  0  0  0
   58.6204   33.8759   46.8308 H   0  0  0  0  0  0  0  0  0  0  0  0
   58.6577   34.8517   45.3231 H   0  0  0  0  0  0  0  0  0  0  0  0
   59.2990   33.1738   45.3231 H   0  0  0  0  0  0  0  0  0  0  0  0
   63.1191   34.5677   45.6164 H   0  0  0  0  0  0  0  0  0  0  0  0
   64.8581   33.1646   46.7227 H   0  0  0  0  0  0  0  0  0  0  0  0
   64.2290   31.6122   48.5691 H   0  0  0  0  0  0  0  0  0  0  0  0
   62.6393   30.6755   49.9756 H   0  0  0  0  0  0  0  0  0  0  0  0
   61.3458   31.8265   50.4655 H   0  0  0  0  0  0  0  0  0  0  0  0
   61.7440   29.6370   47.4290 H   0  0  0  0  0  0  0  0  0  0  0  0
   60.1017   27.0251   48.2601 H   0  0  0  0  0  0  0  0  0  0  0  0
   58.1947   25.8586   47.1555 H   0  0  0  0  0  0  0  0  0  0  0  0
   56.7412   27.0829   45.5419 H   0  0  0  0  0  0  0  0  0  0  0  0
   55.1470   28.6420   45.6200 H   0  0  0  0  0  0  0  0  0  0  0  0
   59.0849   30.6707   46.1526 H   0  0  0  0  0  0  0  0  0  0  0  0
   60.1007   32.8741   48.2183 H   0  0  0  0  0  0  0  0  0  0  0  0
  1  2  1  0
  2  3  1  0
  3  4  2  0
  4  5  1  0
  5  6  2  0
  6  7  1  0
  7  8  1  0
  8  9  1  0
  9 10  2  0
  9 11  1  0
 11 12  1  0
 12 13  2  0
 13 14  1  0
 14 15  2  0
 15 16  1  0
 16 17  1  0
 17 18  1  0
 17 19  2  0
 17 20  2  0
 16 21  2  0
  7 22  2  0
 22  3  1  0
 21 12  1  0
  1 23  1  0
  1 24  1  0
  1 25  1  0
  4 26  1  0
  5 27  1  0
  6 28  1  0
  8 29  1  0
  8 30  1  0
 11 31  1  0
 13 32  1  0
 14 33  1  0
 15 34  1  0
 18 35  1  0
 21 36  1  0
 22 37  1  0
M  CHG  1  18  -1
M  END
>  <UniqueID>  (5) 
4

>  <SMILES>  (5) 
COc1cccc(CC(=O)Nc2cccc(S([NH-])(=O)=O)c2)c1

>  <Energy>  (5) 
37.476877946746654

>  <Genealogy>  (5) 
COc1cccc(CC(=O)Nc2cccc(S([NH-])(=O)=O)c2)c1 (protonated)
COc1cccc(CC(=O)Nc2cccc(S([NH-])(=O)=O)c2)c1 (3D coordinates assigned)
COc1cccc(CC(=O)Nc2cccc(S([NH-])(=O)=O)c2)c1 (optimized conformer: 37.476877946746654 kcal/mol)

>  <smiles>  (5) 
COc1cccc(CC(=O)Nc2cccc(S(N)(=O)=O)c2)c1

>  <score_type>  (5) 
oracle

>  <origin>  (5) 
adg

>  <m_score__min__energy>  (5) 
-11.369999999999999

>  <m_primary>  (5) 
energy

$$$$
5:0
     RDKit          3D

 56 60  0  0  0  0  0  0  0  0999 V2000
   58.6420   25.9680   46.5660 O   0  0  0  0  0  0  0  0  0  0  0  0
   57.4210   25.8700   46.2630 C   0  0  0  0  0  0  0  0  0  0  0  0
   56.7220   24.5590   46.4630 C   0  0  0  0  0  0  0  0  0  0  0  0
   56.7390   23.7640   45.1870 C   0  0  0  0  0  0  0  0  0  0  0  0
   57.6790   22.7340   45.0020 C   0  0  0  0  0  0  0  0  0  0  0  0
   57.6840   21.9920   43.8190 C   0  0  0  0  0  0  0  0  0  0  0  0
   56.7480   22.2660   42.8160 C   0  0  0  0  0  0  0  0  0  0  0  0
   55.8020   23.2770   43.0000 C   0  0  0  0  0  0  0  0  0  0  0  0
   55.7930   24.0240   44.1810 C   0  0  0  0  0  0  0  0  0  0  0  0
   56.6980   26.9980   45.7490 N   0  0  0  0  0  0  0  0  0  0  0  0
   57.2550   28.3190   45.6260 C   0  0  0  0  0  0  0  0  0  0  0  0
   58.3640   28.5950   46.1580 O   0  0  0  0  0  0  0  0  0  0  0  0
   56.5350   29.3680   44.8820 C   0  0  0  0  0  0  0  0  0  0  0  0
   55.2810   29.3160   44.7760 O   0  0  0  0  0  0  0  0  0  0  0  0
   57.2670   30.4620   44.3130 N   0  0  0  0  0  0  0  0  0  0  0  0
   57.7110   31.6350   45.0120 C   0  0  0  0  0  0  0  0  0  0  0  0
   57.0200   32.8540   44.9230 C   0  0  0  0  0  0  0  0  0  0  0  0
   57.4940   33.9790   45.5980 C   0  0  0  0  0  0  0  0  0  0  0  0
   58.6660   33.9050   46.3540 C   0  0  0  0  0  0  0  0  0  0  0  0
   59.3850   32.6990   46.4380 C   0  0  0  0  0  0  0  0  0  0  0  0
   60.6390   32.6210   47.2340 C   0  0  0  0  0  0  0  0  0  0  0  0
   61.5450   31.5650   47.0390 C   0  0  0  0  0  0  0  0  0  0  0  0
   62.7280   31.4970   47.7800 C   0  0  0  0  0  0  0  0  0  0  0  0
   63.0330   32.4850   48.7300 C   0  0  0  0  0  0  0  0  0  0  0  0
   64.2950   32.4210   49.5030 C   0  0  0  0  0  0  0  0  0  0  0  0
   65.2780   33.3550   49.3910 N   0  0  0  0  0  0  0  0  0  0  0  0
   66.2110   32.9040   50.2420 C   0  0  0  0  0  0  0  0  0  0  0  0
   67.4500   33.4700   50.5290 C   0  0  0  0  0  0  0  0  0  0  0  0
   68.2720   32.8080   51.4620 C   0  0  0  0  0  0  0  0  0  0  0  0
   67.8350   31.6110   52.0750 C   0  0  0  0  0  0  0  0  0  0  0  0
   66.5740   31.0680   51.7590 C   0  0  0  0  0  0  0  0  0  0  0  0
   65.7910   31.7520   50.8310 C   0  0  0  0  0  0  0  0  0  0  0  0
   64.5740   31.4180   50.3790 N   0  0  0  0  0  0  0  0  0  0  0  0
   62.1260   33.5390   48.9300 C   0  0  0  0  0  0  0  0  0  0  0  0
   60.9420   33.6060   48.1900 C   0  0  0  0  0  0  0  0  0  0  0  0
   58.8970   31.5700   45.7540 C   0  0  0  0  0  0  0  0  0  0  0  0
   57.2346   23.9902   47.2528 H   0  0  0  0  0  0  0  0  0  0  0  0
   55.6785   24.7484   46.7551 H   0  0  0  0  0  0  0  0  0  0  0  0
   58.4122   22.5124   45.7915 H   0  0  0  0  0  0  0  0  0  0  0  0
   58.4246   21.1914   43.6756 H   0  0  0  0  0  0  0  0  0  0  0  0
   56.7571   21.6850   41.8820 H   0  0  0  0  0  0  0  0  0  0  0  0
   55.0621   23.4858   42.2132 H   0  0  0  0  0  0  0  0  0  0  0  0
   55.0440   24.8170   44.3234 H   0  0  0  0  0  0  0  0  0  0  0  0
   55.7170   26.8410   45.4270 H   0  0  0  0  0  0  0  0  0  0  0  0
   56.1028   32.9221   44.3196 H   0  0  0  0  0  0  0  0  0  0  0  0
   56.9423   34.9285   45.5346 H   0  0  0  0  0  0  0  0  0  0  0  0
   59.0292   34.7959   46.8873 H   0  0  0  0  0  0  0  0  0  0  0  0
   61.3212   30.7848   46.2965 H   0  0  0  0  0  0  0  0  0  0  0  0
   63.4260   30.6625   47.6176 H   0  0  0  0  0  0  0  0  0  0  0  0
   67.7759   34.4020   50.0440 H   0  0  0  0  0  0  0  0  0  0  0  0
   69.2584   33.2241   51.7149 H   0  0  0  0  0  0  0  0  0  0  0  0
   68.4833   31.1009   52.8027 H   0  0  0  0  0  0  0  0  0  0  0  0
   66.2203   30.1379   52.2278 H   0  0  0  0  0  0  0  0  0  0  0  0
   62.3492   34.3174   49.6745 H   0  0  0  0  0  0  0  0  0  0  0  0
   60.2410   34.4371   48.3573 H   0  0  0  0  0  0  0  0  0  0  0  0
   59.4549   30.6232   45.8029 H   0  0  0  0  0  0  0  0  0  0  0  0
  1  2  2  0
  2  3  1  0
  3  4  1  0
  4  5  2  0
  5  6  1  0
  6  7  2  0
  7  8  1  0
  8  9  2  0
  2 10  1  0
 10 11  1  0
 11 12  2  0
 11 13  1  0
 13 14  2  0
 13 15  1  0
 15 16  1  0
 16 17  2  0
 17 18  1  0
 18 19  2  0
 19 20  1  0
 20 21  1  0
 21 22  2  0
 22 23  1  0
 23 24  2  0
 24 25  1  0
 25 26  2  0
 26 27  1  0
 27 28  2  0
 28 29  1  0
 29 30  2  0
 30 31  1  0
 31 32  2  0
 32 33  1  0
 24 34  1  0
 34 35  2  0
 20 36  2  0
  9  4  1  0
 36 16  1  0
 35 21  1  0
 33 25  1  0
 32 27  1  0
  3 37  1  0
  3 38  1  0
  5 39  1  0
  6 40  1  0
  7 41  1  0
  8 42  1  0
  9 43  1  0
 10 44  1  0
 17 45  1  0
 18 46  1  0
 19 47  1  0
 22 48  1  0
 23 49  1  0
 28 50  1  0
 29 51  1  0
 30 52  1  0
 31 53  1  0
 34 54  1  0
 35 55  1  0
 36 56  1  0
M  CHG  2  15  -1  33  -1
M  END
>  <UniqueID>  (6) 
5

>  <SMILES>  (6) 
O=C(Cc1ccccc1)NC(=O)C(=O)[N-]c1cccc(-c2ccc(-c3nc4ccccc4[n-]3)cc2)c1

>  <Energy>  (6) 
104.65115414989897

>  <Genealogy>  (6) 
O=C(Cc1ccccc1)NC(=O)C(=O)[N-]c1cccc(-c2ccc(-c3nc4ccccc4[n-]3)cc2)c1 (protonated)
O=C(Cc1ccccc1)NC(=O)C(=O)[N-]c1cccc(-c2ccc(-c3nc4ccccc4[n-]3)cc2)c1 (3D coordinates assigned)
O=C(Cc1ccccc1)NC(=O)C(=O)[N-]c1cccc(-c2ccc(-c3nc4ccccc4[n-]3)cc2)c1 (optimized conformer: 104.65115414989897 kcal/mol)

>  <smiles>  (6) 
O=C(Cc1ccccc1)NC(=O)C(=O)Nc1cccc(-c2ccc(-c3nc4ccccc4[nH]3)cc2)c1

>  <score_type>  (6) 
oracle

>  <origin>  (6) 
adg

>  <m_score__min__energy>  (6) 
-13.15

>  <m_primary>  (6) 
energy

$$$$
6:0
     RDKit          3D

 44 46  0  0  0  0  0  0  0  0999 V2000
   54.3380   25.8850   45.7800 N   0  0  0  0  0  0  0  0  0  0  0  0
   55.9500   25.3380   46.0760 S   0  0  0  0  0  0  0  0  0  0  0  0
   56.2920   24.2350   45.1140 O   0  0  0  0  0  0  0  0  0  0  0  0
   56.0440   24.8030   47.4770 O   0  0  0  0  0  0  0  0  0  0  0  0
   57.0720   26.6770   45.8640 C   0  0  0  0  0  0  0  0  0  0  0  0
   58.3790   26.5960   46.3660 C   0  0  0  0  0  0  0  0  0  0  0  0
   59.2540   27.6740   46.2190 C   0  0  0  0  0  0  0  0  0  0  0  0
   58.8300   28.8420   45.5780 C   0  0  0  0  0  0  0  0  0  0  0  0
   57.5240   28.9350   45.0730 C   0  0  0  0  0  0  0  0  0  0  0  0
   57.0400   30.2020   44.4220 C   0  0  0  0  0  0  0  0  0  0  0  0
   57.3980   31.3550   45.2450 N   0  0  0  0  0  0  0  0  0  0  0  0
   57.8590   32.5880   44.6740 C   0  0  0  0  0  0  0  0  0  0  0  0
   57.6420   32.8340   43.4560 O   0  0  0  0  0  0  0  0  0  0  0  0
   58.5670   33.5890   45.5030 C   0  0  0  0  0  0  0  0  0  0  0  0
   58.9770   34.7990   44.9230 C   0  0  0  0  0  0  0  0  0  0  0  0
   59.6380   35.7500   45.7030 C   0  0  0  0  0  0  0  0  0  0  0  0
   59.9960   36.8450   45.1950 O   0  0  0  0  0  0  0  0  0  0  0  0
   59.8940   35.4980   47.0120 N   0  0  0  0  0  0  0  0  0  0  0  0
   59.5390   34.3250   47.6070 C   0  0  0  0  0  0  0  0  0  0  0  0
   59.8180   34.1110   49.0020 N   0  0  0  0  0  0  0  0  0  0  0  0
   61.1300   33.8380   49.5240 C   0  0  0  0  0  0  0  0  0  0  0  0
   61.2860   33.5820   50.8960 C   0  0  0  0  0  0  0  0  0  0  0  0
   62.5480   33.2920   51.4220 C   0  0  0  0  0  0  0  0  0  0  0  0
   63.6620   33.2380   50.5800 C   0  0  0  0  0  0  0  0  0  0  0  0
   63.5140   33.4670   49.2100 C   0  0  0  0  0  0  0  0  0  0  0  0
   64.5930   33.3950   48.3910 F   0  0  0  0  0  0  0  0  0  0  0  0
   62.2530   33.7590   48.6800 C   0  0  0  0  0  0  0  0  0  0  0  0
   58.8660   33.3450   46.8590 C   0  0  0  0  0  0  0  0  0  0  0  0
   58.5360   32.1300   47.4510 O   0  0  0  0  0  0  0  0  0  0  0  0
   56.6480   27.8480   45.2220 C   0  0  0  0  0  0  0  0  0  0  0  0
   54.1790   26.7160   46.3930 H   0  0  0  0  0  0  0  0  0  0  0  0
   58.7154   25.6815   46.8765 H   0  0  0  0  0  0  0  0  0  0  0  0
   60.2803   27.6042   46.6087 H   0  0  0  0  0  0  0  0  0  0  0  0
   59.5219   29.6902   45.4693 H   0  0  0  0  0  0  0  0  0  0  0  0
   57.5060   30.3032   43.4307 H   0  0  0  0  0  0  0  0  0  0  0  0
   55.9458   30.1589   44.3172 H   0  0  0  0  0  0  0  0  0  0  0  0
   57.3210   31.2660   46.2840 H   0  0  0  0  0  0  0  0  0  0  0  0
   58.7788   34.9974   43.8594 H   0  0  0  0  0  0  0  0  0  0  0  0
   59.0420   34.2420   49.6890 H   0  0  0  0  0  0  0  0  0  0  0  0
   60.4099   33.6099   51.5605 H   0  0  0  0  0  0  0  0  0  0  0  0
   62.6645   33.1061   52.4999 H   0  0  0  0  0  0  0  0  0  0  0  0
   64.6556   33.0151   50.9961 H   0  0  0  0  0  0  0  0  0  0  0  0
   62.1388   33.9276   47.5990 H   0  0  0  0  0  0  0  0  0  0  0  0
   55.6217   27.9161   44.8320 H   0  0  0  0  0  0  0  0  0  0  0  0
  1  2  1  0
  2  3  2  0
  2  4  2  0
  2  5  1  0
  5  6  2  0
  6  7  1  0
  7  8  2  0
  8  9  1  0
  9 10  1  0
 10 11  1  0
 11 12  1  0
 12 13  2  0
 12 14  1  0
 14 15  2  0
 15 16  1  0
 16 17  2  0
 16 18  1  0
 18 19  1  0
 19 20  1  0
 20 21  1  0
 21 22  2  0
 22 23  1  0
 23 24  2  0
 24 25  1  0
 25 26  1  0
 25 27  2  0
 19 28  2  0
 28 29  1  0
  9 30  2  0
 30  5  1  0
 28 14  1  0
 27 21  1  0
  1 31  1  0
  6 32  1  0
  7 33  1  0
  8 34  1  0
 10 35  1  0
 10 36  1  0
 11 37  1  0
 15 38  1  0
 20 39  1  0
 22 40  1  0
 23 41  1  0
 24 42  1  0
 27 43  1  0
 30 44  1  0
M  CHG  3   1  -1  18  -1  29  -1
M  END
>  <UniqueID>  (7) 
6

>  <SMILES>  (7) 
[NH-]S(=O)(=O)c1cccc(CNC(=O)c2cc(=O)[n-]c(Nc3cccc(F)c3)c2[O-])c1

>  <Energy>  (7) 
53.07536397832738

>  <Genealogy>  (7) 
[NH-]S(=O)(=O)c1cccc(CNC(=O)c2cc(=O)[n-]c(Nc3cccc(F)c3)c2[O-])c1 (protonated)
[NH-]S(=O)(=O)c1cccc(CNC(=O)c2cc(=O)[n-]c(Nc3cccc(F)c3)c2[O-])c1 (3D coordinates assigned)
[NH-]S(=O)(=O)c1cccc(CNC(=O)c2cc(=O)[n-]c(Nc3cccc(F)c3)c2[O-])c1 (optimized conformer: 53.07536397832738 kcal/mol)

>  <smiles>  (7) 
NS(=O)(=O)c1cccc(CNC(=O)c2cc(=O)[nH]c(Nc3cccc(F)c3)c2O)c1

>  <score_type>  (7) 
oracle

>  <origin>  (7) 
adg

>  <m_score__min__energy>  (7) 
-15.300000000000001

>  <m_primary>  (7) 
energy

$$$$
7:0
     RDKit          3D

 15 16  0  0  0  0  0  0  0  0999 V2000
   56.6480   29.1960   52.3250 O   0  0  0  0  0  0  0  0  0  0  0  0
   55.4840   29.6720   52.3780 C   0  0  0  0  0  0  0  0  0  0  0  0
   55.0740   30.6960   51.5840 N   0  0  0  0  0  0  0  0  0  0  0  0
   53.7980   30.8670   51.9760 C   0  0  0  0  0  0  0  0  0  0  0  0
   52.8770   31.7950   51.4960 C   0  0  0  0  0  0  0  0  0  0  0  0
   51.5860   31.7900   52.0620 C   0  0  0  0  0  0  0  0  0  0  0  0
   50.6330   32.6970   51.6150 O   0  0  0  0  0  0  0  0  0  0  0  0
   51.2570   30.8670   53.0810 C   0  0  0  0  0  0  0  0  0  0  0  0
   52.2120   29.9410   53.5430 C   0  0  0  0  0  0  0  0  0  0  0  0
   53.4760   29.9780   52.9600 C   0  0  0  0  0  0  0  0  0  0  0  0
   54.5380   29.2080   53.2280 N   0  0  0  0  0  0  0  0  0  0  0  0
   53.1477   32.5072   50.7026 H   0  0  0  0  0  0  0  0  0  0  0  0
   50.2469   30.8722   53.5165 H   0  0  0  0  0  0  0  0  0  0  0  0
   51.9688   29.2163   54.3340 H   0  0  0  0  0  0  0  0  0  0  0  0
   54.6190   28.4350   53.9260 H   0  0  0  0  0  0  0  0  0  0  0  0
  1  2  2  0
  2  3  1  0
  3  4  1  0
  4  5  2  0
  5  6  1  0
  6  7  1  0
  6  8  2  0
  8  9  1  0
  9 10  2  0
 10 11  1  0
 11  2  1  0
 10  4  1  0
  5 12  1  0
  8 13  1  0
  9 14  1  0
 11 15  1  0
M  CHG  2   3  -1   7  -1
M  END
>  <UniqueID>  (8) 
7

>  <SMILES>  (8) 
O=c1[n-]c2cc([O-])ccc2[nH]1

>  <Energy>  (8) 
52.91868162127773

>  <Genealogy>  (8) 
O=c1[n-]c2cc([O-])ccc2[nH]1 (protonated)
O=c1[n-]c2cc([O-])ccc2[nH]1 (3D coordinates assigned)
O=c1[n-]c2cc([O-])ccc2[nH]1 (optimized conformer: 52.91868162127773 kcal/mol)

>  <smiles>  (8) 
O=c1[nH]c2ccc(O)cc2[nH]1

>  <score_type>  (8) 
oracle

>  <origin>  (8) 
adg

>  <m_score__min__energy>  (8) 
-10.140000000000001

>  <m_primary>  (8) 
energy

$$$$
8:0
     RDKit          3D

 34 35  0  0  0  0  0  0  0  0999 V2000
   58.8230   35.7660   47.7000 H   0  0  0  0  0  0  0  0  0  0  0  0
   59.2120   35.4450   46.8210 O   0  0  0  0  0  0  0  0  0  0  0  0
   58.9370   34.1720   46.3240 C   0  0  0  0  0  0  0  0  0  0  0  0
   59.0290   33.0710   47.1730 C   0  0  0  0  0  0  0  0  0  0  0  0
   59.3169   33.2186   48.2243 H   0  0  0  0  0  0  0  0  0  0  0  0
   58.7590   31.7760   46.7040 C   0  0  0  0  0  0  0  0  0  0  0  0
   58.8920   30.6250   47.6710 C   0  0  0  0  0  0  0  0  0  0  0  0
   58.8480   31.0055   48.7022 H   0  0  0  0  0  0  0  0  0  0  0  0
   58.0702   29.9122   47.5078 H   0  0  0  0  0  0  0  0  0  0  0  0
   59.8547   30.1184   47.5078 H   0  0  0  0  0  0  0  0  0  0  0  0
   58.4070   31.5800   45.3390 C   0  0  0  0  0  0  0  0  0  0  0  0
   58.1030   30.1870   44.8080 C   0  0  0  0  0  0  0  0  0  0  0  0
   58.4587   30.1135   43.7697 H   0  0  0  0  0  0  0  0  0  0  0  0
   58.6146   29.4519   45.4467 H   0  0  0  0  0  0  0  0  0  0  0  0
   56.6310   29.9020   44.8420 C   0  0  0  0  0  0  0  0  0  0  0  0
   55.8120   30.8610   44.8390 O   0  0  0  0  0  0  0  0  0  0  0  0
   56.1650   28.5510   44.9660 N   0  0  0  0  0  0  0  0  0  0  0  0
   56.6900   27.5550   45.6270 C   0  0  0  0  0  0  0  0  0  0  0  0
   58.0430   27.5470   45.7820 N   0  0  0  0  0  0  0  0  0  0  0  0
   58.6980   26.5680   46.4580 C   0  0  0  0  0  0  0  0  0  0  0  0
   59.7927   26.6073   46.5579 H   0  0  0  0  0  0  0  0  0  0  0  0
   57.9850   25.5140   47.0250 C   0  0  0  0  0  0  0  0  0  0  0  0
   58.5076   24.7282   47.5901 H   0  0  0  0  0  0  0  0  0  0  0  0
   56.6010   25.4680   46.8670 C   0  0  0  0  0  0  0  0  0  0  0  0
   56.0271   24.6382   47.3052 H   0  0  0  0  0  0  0  0  0  0  0  0
   55.9390   26.4720   46.1540 C   0  0  0  0  0  0  0  0  0  0  0  0
   54.5720   26.3380   45.9430 O   0  0  0  0  0  0  0  0  0  0  0  0
   58.2970   32.7120   44.4860 C   0  0  0  0  0  0  0  0  0  0  0  0
   57.9190   32.5780   43.0310 C   0  0  0  0  0  0  0  0  0  0  0  0
   56.8848   32.2114   42.9531 H   0  0  0  0  0  0  0  0  0  0  0  0
   57.9982   33.5590   42.5397 H   0  0  0  0  0  0  0  0  0  0  0  0
   58.5984   31.8659   42.5397 H   0  0  0  0  0  0  0  0  0  0  0  0
   58.5730   33.9930   44.9890 C   0  0  0  0  0  0  0  0  0  0  0  0
   58.5015   34.8657   44.3232 H   0  0  0  0  0  0  0  0  0  0  0  0
  1  2  1  0
  2  3  1  0
  3  4  2  0
  4  5  1  0
  4  6  1  0
  6  7  1  0
  7  8  1  0
  7  9  1  0
  7 10  1  0
  6 11  2  0
 11 12  1  0
 12 13  1  0
 12 14  1  0
 12 15  1  0
 15 16  2  0
 15 17  1  0
 17 18  2  0
 18 19  1  0
 19 20  1  0
 20 21  1  0
 20 22  2  0
 22 23  1  0
 22 24  1  0
 24 25  1  0
 24 26  2  0
 26 27  1  0
 11 28  1  0
 28 29  1  0
 29 30  1  0
 29 31  1  0
 29 32  1  0
 28 33  2  0
 33 34  1  0
 33  3  1  0
 26 18  1  0
M  CHG  2  19  -1  27  -1
M  END
>  <UniqueID>  (9) 
8

>  <SMILES>  (9) 
Cc1cc(O)cc(C)c1CC(=O)/N=c1/[n-]cccc1[O-]

>  <Energy>  (9) 
48.25772784798331

>  <Genealogy>  (9) 
Cc1cc(O)cc(C)c1CC(=O)N=c1[n-]cccc1[O-] (protonated)
Cc1cc(O)cc(C)c1CC(=O)/N=c1/[n-]cccc1[O-] (cis-trans isomerization)
Cc1cc(O)cc(C)c1CC(=O)/N=c1/[n-]cccc1[O-] (3D coordinates assigned)
Cc1cc(O)cc(C)c1CC(=O)/N=c1/[n-]cccc1[O-] (optimized conformer: 48.25772784798331 kcal/mol)

>  <smiles>  (9) 
Cc1cc(O)cc(C)c1CC(=O)N=c1[nH]cccc1O

>  <score_type>  (9) 
oracle

>  <origin>  (9) 
adg

>  <m_score__min__energy>  (9) 
-12.74

>  <m_primary>  (9) 
energy

$$$$
9:0
     RDKit          3D

 69 73  0  0  0  0  0  0  0  0999 V2000
   60.3410   27.7320   48.5020 C   0  0  0  0  0  0  0  0  0  0  0  0
   59.3570   28.8740   48.7330 C   0  0  0  0  0  0  0  0  0  0  0  0
   59.7780   29.6230   49.8660 O   0  0  0  0  0  0  0  0  0  0  0  0
   60.8390   30.5270   49.8180 C   0  0  0  0  0  0  0  0  0  0  0  0
   62.0440   30.2140   50.3880 N   0  0  0  0  0  0  0  0  0  0  0  0
   63.0880   31.0890   50.3830 C   0  0  0  0  0  0  0  0  0  0  0  0
   64.3270   30.7370   50.9510 C   0  0  0  0  0  0  0  0  0  0  0  0
   65.3900   31.6430   50.9310 C   0  0  0  0  0  0  0  0  0  0  0  0
   65.2160   32.9260   50.3920 C   0  0  0  0  0  0  0  0  0  0  0  0
   63.9920   33.2870   49.8200 C   0  0  0  0  0  0  0  0  0  0  0  0
   62.9260   32.3760   49.8170 C   0  0  0  0  0  0  0  0  0  0  0  0
   61.6940   32.7190   49.2530 C   0  0  0  0  0  0  0  0  0  0  0  0
   60.6560   31.7810   49.2050 C   0  0  0  0  0  0  0  0  0  0  0  0
   59.4050   32.0850   48.4640 C   0  0  0  0  0  0  0  0  0  0  0  0
   58.3130   32.0530   49.0890 O   0  0  0  0  0  0  0  0  0  0  0  0
   59.4090   32.3740   47.0360 N   0  0  0  0  0  0  0  0  0  0  0  0
   60.2250   33.4800   46.5030 C   0  0  0  0  0  0  0  0  0  0  0  0
   59.3990   34.5520   45.7490 C   0  0  0  0  0  0  0  0  0  0  0  0
   59.9440   35.9720   45.9590 C   0  0  0  0  0  0  0  0  0  0  0  0
   59.2470   34.2340   44.2550 C   0  0  0  0  0  0  0  0  0  0  0  0
   58.6270   31.5720   46.1240 C   0  0  0  0  0  0  0  0  0  0  0  0
   59.1210   30.3580   45.6330 C   0  0  0  0  0  0  0  0  0  0  0  0
   60.3640   29.9050   46.0770 O   0  0  0  0  0  0  0  0  0  0  0  0
   58.3900   29.6140   44.7370 N   0  0  0  0  0  0  0  0  0  0  0  0
   58.8810   28.2960   44.2980 C   0  0  0  0  0  0  0  0  0  0  0  0
   58.3320   27.2120   45.1880 C   0  0  0  0  0  0  0  0  0  0  0  0
   59.1780   26.2000   45.6760 C   0  0  0  0  0  0  0  0  0  0  0  0
   58.6820   25.2260   46.5440 C   0  0  0  0  0  0  0  0  0  0  0  0
   57.3390   25.2540   46.9340 C   0  0  0  0  0  0  0  0  0  0  0  0
   56.4910   26.2560   46.4550 C   0  0  0  0  0  0  0  0  0  0  0  0
   56.9850   27.2340   45.5860 C   0  0  0  0  0  0  0  0  0  0  0  0
   57.1740   30.0840   44.3030 C   0  0  0  0  0  0  0  0  0  0  0  0
   56.4830   29.4250   43.4810 O   0  0  0  0  0  0  0  0  0  0  0  0
   56.6990   31.2790   44.7500 N   0  0  0  0  0  0  0  0  0  0  0  0
   57.3900   32.0290   45.6400 C   0  0  0  0  0  0  0  0  0  0  0  0
   56.9290   33.1470   45.9970 O   0  0  0  0  0  0  0  0  0  0  0  0
   66.2800   33.8330   50.4370 O   0  0  0  0  0  0  0  0  0  0  0  0
   67.4180   33.5940   51.2700 C   0  0  0  0  0  0  0  0  0  0  0  0
   67.7970   32.1080   51.2310 C   0  0  0  0  0  0  0  0  0  0  0  0
   66.6430   31.2920   51.4580 O   0  0  0  0  0  0  0  0  0  0  0  0
   60.6801   27.3384   49.4716 H   0  0  0  0  0  0  0  0  0  0  0  0
   59.8459   26.9307   47.9339 H   0  0  0  0  0  0  0  0  0  0  0  0
   61.2067   28.1032   47.9339 H   0  0  0  0  0  0  0  0  0  0  0  0
   59.3335   29.5260   47.8474 H   0  0  0  0  0  0  0  0  0  0  0  0
   58.3497   28.4682   48.9080 H   0  0  0  0  0  0  0  0  0  0  0  0
   62.1510   29.2720   50.8300 H   0  0  0  0  0  0  0  0  0  0  0  0
   64.4583   29.7467   51.4114 H   0  0  0  0  0  0  0  0  0  0  0  0
   63.8656   34.2841   49.3731 H   0  0  0  0  0  0  0  0  0  0  0  0
   61.5396   33.7291   48.8456 H   0  0  0  0  0  0  0  0  0  0  0  0
   60.7424   33.9667   47.3429 H   0  0  0  0  0  0  0  0  0  0  0  0
   60.9262   33.0430   45.7768 H   0  0  0  0  0  0  0  0  0  0  0  0
   58.3938   34.5193   46.1946 H   0  0  0  0  0  0  0  0  0  0  0  0
   60.0233   36.1787   47.0365 H   0  0  0  0  0  0  0  0  0  0  0  0
   60.9381   36.0555   45.4955 H   0  0  0  0  0  0  0  0  0  0  0  0
   59.2611   36.6991   45.4955 H   0  0  0  0  0  0  0  0  0  0  0  0
   58.7754   33.2473   44.1363 H   0  0  0  0  0  0  0  0  0  0  0  0
   58.6180   35.0007   43.7791 H   0  0  0  0  0  0  0  0  0  0  0  0
   60.2387   34.2261   43.7791 H   0  0  0  0  0  0  0  0  0  0  0  0
   58.5572   28.1144   43.2625 H   0  0  0  0  0  0  0  0  0  0  0  0
   59.9794   28.2853   44.3561 H   0  0  0  0  0  0  0  0  0  0  0  0
   60.2350   26.1760   45.3723 H   0  0  0  0  0  0  0  0  0  0  0  0
   59.3477   24.4359   46.9216 H   0  0  0  0  0  0  0  0  0  0  0  0
   56.9498   24.4861   47.6188 H   0  0  0  0  0  0  0  0  0  0  0  0
   55.4347   26.2755   46.7615 H   0  0  0  0  0  0  0  0  0  0  0  0
   56.3162   28.0235   45.2127 H   0  0  0  0  0  0  0  0  0  0  0  0
   68.2656   34.1952   50.9093 H   0  0  0  0  0  0  0  0  0  0  0  0
   67.1725   33.8759   52.3045 H   0  0  0  0  0  0  0  0  0  0  0  0
   68.2221   31.8682   50.2452 H   0  0  0  0  0  0  0  0  0  0  0  0
   68.5362   31.9077   52.0206 H   0  0  0  0  0  0  0  0  0  0  0  0
  1  2  1  0
  2  3  1  0
  3  4  1  0
  4  5  2  0
  5  6  1  0
  6  7  2  0
  7  8  1  0
  8  9  2  0
  9 10  1  0
 10 11  2  0
 11 12  1  0
 12 13  2  0
 13 14  1  0
 14 15  2  0
 14 16  1  0
 16 17  1  0
 17 18  1  0
 18 19  1  0
 18 20  1  0
 16 21  1  0
 21 22  2  0
 22 23  1  0
 22 24  1  0
 24 25  1  0
 25 26  1  0
 26 27  2  0
 27 28  1  0
 28 29  2  0
 29 30  1  0
 30 31  2  0
 24 32  1  0
 32 33  2  0
 32 34  1  0
 34 35  1  0
 35 36  2  0
  9 37  1  0
 37 38  1  0
 38 39  1  0
 39 40  1  0
 13  4  1  0
 35 21  1  0
 11  6  1  0
 31 26  1  0
 40  8  1  0
  1 41  1  0
  1 42  1  0
  1 43  1  0
  2 44  1  0
  2 45  1  0
  5 46  1  0
  7 47  1  0
 10 48  1  0
 12 49  1  0
 17 50  1  0
 17 51  1  0
 18 52  1  0
 19 53  1  0
 19 54  1  0
 19 55  1  0
 20 56  1  0
 20 57  1  0
 20 58  1  0
 25 59  1  0
 25 60  1  0
 27 61  1  0
 28 62  1  0
 29 63  1  0
 30 64  1  0
 31 65  1  0
 38 66  1  0
 38 67  1  0
 39 68  1  0
 39 69  1  0
M  CHG  3   5   1  23  -1  34  -1
M  END
>  <UniqueID>  (10) 
9

>  <SMILES>  (10) 
CCOc1[nH+]c2cc3c(cc2cc1C(=O)N(CC(C)C)c1c([O-])n(Cc2ccccc2)c(=O)[n-]c1=O)OCCO3

>  <Energy>  (10) 
89.00553903059497

>  <Genealogy>  (10) 
CCOc1[nH+]c2cc3c(cc2cc1C(=O)N(CC(C)C)c1c([O-])n(Cc2ccccc2)c(=O)[n-]c1=O)OCCO3 (protonated)
CCOc1[nH+]c2cc3c(cc2cc1C(=O)N(CC(C)C)c1c([O-])n(Cc2ccccc2)c(=O)[n-]c1=O)OCCO3 (3D coordinates assigned)
CCOc1[nH+]c2cc3c(cc2cc1C(=O)N(CC(C)C)c1c([O-])n(Cc2ccccc2)c(=O)[n-]c1=O)OCCO3 (nonaromatic ring conformer: 89.00553903059497 kcal/mol)

>  <smiles>  (10) 
CCOc1nc2cc3c(cc2cc1C(=O)N(CC(C)C)c1c(O)n(Cc2ccccc2)c(=O)[nH]c1=O)OCCO3

>  <score_type>  (10) 
oracle

>  <origin>  (10) 
adg

>  <m_score__min__energy>  (10) 
-11.609999999999999

>  <m_primary>  (10) 
energy

$$$$
10:0
     RDKit          3D

 39 40  0  0  0  0  0  0  0  0999 V2000
   57.0310   29.0550   43.3840 C   0  0  0  0  0  0  0  0  0  0  0  0
   56.5280   30.5010   43.4590 C   0  0  0  0  0  0  0  0  0  0  0  0
   57.3680   31.4070   42.5570 C   0  0  0  0  0  0  0  0  0  0  0  0
   56.6140   30.9830   44.7970 O   0  0  0  0  0  0  0  0  0  0  0  0
   57.4170   32.0590   45.1950 C   0  0  0  0  0  0  0  0  0  0  0  0
   56.9960   33.3410   45.0100 N   0  0  0  0  0  0  0  0  0  0  0  0
   57.7490   34.4130   45.3730 C   0  0  0  0  0  0  0  0  0  0  0  0
   58.9910   34.2220   45.9640 C   0  0  0  0  0  0  0  0  0  0  0  0
   59.4530   32.9200   46.1720 C   0  0  0  0  0  0  0  0  0  0  0  0
   58.6730   31.8230   45.7790 C   0  0  0  0  0  0  0  0  0  0  0  0
   59.2210   30.4300   45.9310 C   0  0  0  0  0  0  0  0  0  0  0  0
   58.1570   29.4840   46.2450 N   0  0  0  0  0  0  0  0  0  0  0  0
   58.3790   28.0630   46.2670 C   0  0  0  0  0  0  0  0  0  0  0  0
   59.3630   27.5680   45.6570 O   0  0  0  0  0  0  0  0  0  0  0  0
   57.4710   27.1840   46.9460 N   0  0  0  0  0  0  0  0  0  0  0  0
   57.0370   25.9010   46.4680 C   0  0  0  0  0  0  0  0  0  0  0  0
   57.9290   24.8240   46.5460 C   0  0  0  0  0  0  0  0  0  0  0  0
   57.5470   23.5550   46.0910 C   0  0  0  0  0  0  0  0  0  0  0  0
   56.2670   23.3580   45.5620 C   0  0  0  0  0  0  0  0  0  0  0  0
   55.3520   24.4180   45.5150 C   0  0  0  0  0  0  0  0  0  0  0  0
   53.7270   24.1360   44.8870 Cl  0  0  0  0  0  0  0  0  0  0  0  0
   55.7230   25.6870   45.9870 C   0  0  0  0  0  0  0  0  0  0  0  0
   54.7760   26.7080   46.0110 O   0  0  0  0  0  0  0  0  0  0  0  0
   57.1680   28.6612   44.4019 H   0  0  0  0  0  0  0  0  0  0  0  0
   56.2947   28.4380   42.8481 H   0  0  0  0  0  0  0  0  0  0  0  0
   57.9913   29.0281   42.8481 H   0  0  0  0  0  0  0  0  0  0  0  0
   55.4806   30.5153   43.1233 H   0  0  0  0  0  0  0  0  0  0  0  0
   57.9851   32.0726   43.1784 H   0  0  0  0  0  0  0  0  0  0  0  0
   58.0201   30.7893   41.9220 H   0  0  0  0  0  0  0  0  0  0  0  0
   56.7028   32.0106   41.9220 H   0  0  0  0  0  0  0  0  0  0  0  0
   57.3742   35.4324   45.1985 H   0  0  0  0  0  0  0  0  0  0  0  0
   59.6034   35.0849   46.2646 H   0  0  0  0  0  0  0  0  0  0  0  0
   60.4320   32.7549   46.6457 H   0  0  0  0  0  0  0  0  0  0  0  0
   59.7049   30.1286   44.9902 H   0  0  0  0  0  0  0  0  0  0  0  0
   59.9490   30.4267   46.7556 H   0  0  0  0  0  0  0  0  0  0  0  0
   57.2310   29.8660   46.5500 H   0  0  0  0  0  0  0  0  0  0  0  0
   58.9342   24.9751   46.9664 H   0  0  0  0  0  0  0  0  0  0  0  0
   58.2534   22.7139   46.1497 H   0  0  0  0  0  0  0  0  0  0  0  0
   55.9778   22.3672   45.1815 H   0  0  0  0  0  0  0  0  0  0  0  0
  1  2  1  0
  2  3  1  0
  2  4  1  0
  4  5  1  0
  5  6  2  0
  6  7  1  0
  7  8  2  0
  8  9  1  0
  9 10  2  0
 10 11  1  0
 11 12  1  0
 12 13  1  0
 13 14  2  0
 13 15  1  0
 15 16  1  0
 16 17  2  0
 17 18  1  0
 18 19  2  0
 19 20  1  0
 20 21  1  0
 20 22  2  0
 22 23  1  0
 10  5  1  0
 22 16  1  0
  1 24  1  0
  1 25  1  0
  1 26  1  0
  2 27  1  0
  3 28  1  0
  3 29  1  0
  3 30  1  0
  7 31  1  0
  8 32  1  0
  9 33  1  0
 11 34  1  0
 11 35  1  0
 12 36  1  0
 17 37  1  0
 18 38  1  0
 19 39  1  0
M  CHG  2  15  -1  23  -1
M  END
>  <UniqueID>  (11) 
10

>  <SMILES>  (11) 
CC(C)Oc1ncccc1CNC(=O)[N-]c1cccc(Cl)c1[O-]

>  <Energy>  (11) 
39.4039999596844

>  <Genealogy>  (11) 
CC(C)Oc1ncccc1CNC(=O)[N-]c1cccc(Cl)c1[O-] (protonated)
CC(C)Oc1ncccc1CNC(=O)[N-]c1cccc(Cl)c1[O-] (3D coordinates assigned)
CC(C)Oc1ncccc1CNC(=O)[N-]c1cccc(Cl)c1[O-] (optimized conformer: 39.4039999596844 kcal/mol)

>  <smiles>  (11) 
CC(C)Oc1ncccc1CNC(=O)Nc1cccc(Cl)c1O

>  <score_type>  (11) 
oracle

>  <origin>  (11) 
adg

>  <m_score__min__energy>  (11) 
-12.960000000000001

>  <m_primary>  (11) 
energy

$$$$
11:0
     RDKit          3D

 20 21  0  0  0  0  0  0  0  0999 V2000
   57.7890   26.7340   43.9150 O   0  0  0  0  0  0  0  0  0  0  0  0
   57.6020   26.8310   45.1570 C   0  0  0  0  0  0  0  0  0  0  0  0
   57.9620   28.0880   45.8440 C   0  0  0  0  0  0  0  0  0  0  0  0
   58.7100   28.0460   46.8580 O   0  0  0  0  0  0  0  0  0  0  0  0
   57.5190   29.4070   45.3510 C   0  0  0  0  0  0  0  0  0  0  0  0
   58.3190   30.4880   45.3150 N   0  0  0  0  0  0  0  0  0  0  0  0
   57.5180   31.4650   44.8370 C   0  0  0  0  0  0  0  0  0  0  0  0
   58.0360   32.9960   44.6010 S   0  0  0  0  0  0  0  0  0  0  0  0
   56.2520   31.0760   44.5800 N   0  0  0  0  0  0  0  0  0  0  0  0
   56.2640   29.7750   44.9150 C   0  0  0  0  0  0  0  0  0  0  0  0
   55.1400   28.9610   44.8550 O   0  0  0  0  0  0  0  0  0  0  0  0
   57.0620   25.6670   45.8960 C   0  0  0  0  0  0  0  0  0  0  0  0
   57.7700   24.5930   46.4000 C   0  0  0  0  0  0  0  0  0  0  0  0
   56.8360   23.7970   47.0300 C   0  0  0  0  0  0  0  0  0  0  0  0
   57.1320   22.6040   47.6790 O   0  0  0  0  0  0  0  0  0  0  0  0
   55.5920   24.3110   46.9540 N   0  0  0  0  0  0  0  0  0  0  0  0
   55.7450   25.4560   46.2620 C   0  0  0  0  0  0  0  0  0  0  0  0
   54.6850   26.3040   45.9630 O   0  0  0  0  0  0  0  0  0  0  0  0
   58.8516   24.4109   46.3164 H   0  0  0  0  0  0  0  0  0  0  0  0
   57.7600   22.5910   48.4740 H   0  0  0  0  0  0  0  0  0  0  0  0
  1  2  2  0
  2  3  1  0
  3  4  2  0
  3  5  1  0
  5  6  1  0
  6  7  1  0
  7  8  2  0
  7  9  1  0
  9 10  1  0
 10 11  1  0
  2 12  1  0
 12 13  1  0
 13 14  2  0
 14 15  1  0
 14 16  1  0
 16 17  1  0
 17 18  1  0
 10  5  2  0
 17 12  2  0
 13 19  1  0
 15 20  1  0
M  CHG  5   6  -1   9  -1  11  -1  16  -1  18  -1
M  END
>  <UniqueID>  (12) 
11

>  <SMILES>  (12) 
O=C(C(=O)c1[n-]c(=S)[n-]c1[O-])c1cc(O)[n-]c1[O-]

>  <Energy>  (12) 
79.85504331769059

>  <Genealogy>  (12) 
O=C(C(=O)c1[n-]c(=S)[n-]c1[O-])c1cc(O)[n-]c1[O-] (protonated)
O=C(C(=O)c1[n-]c(=S)[n-]c1[O-])c1cc(O)[n-]c1[O-] (3D coordinates assigned)
O=C(C(=O)c1[n-]c(=S)[n-]c1[O-])c1cc(O)[n-]c1[O-] (optimized conformer: 79.85504331769059 kcal/mol)

>  <smiles>  (12) 
O=C(C(=O)c1[nH]c(=S)[nH]c1O)c1cc(O)[nH]c1O

>  <score_type>  (12) 
oracle

>  <origin>  (12) 
adg

>  <m_score__min__energy>  (12) 
-18.289999999999999

>  <m_primary>  (12) 
energy

$$$$
12:0
     RDKit          3D

 39 40  0  0  0  0  0  0  0  0999 V2000
   57.5770   31.1450   51.3220 C   0  0  0  0  0  0  0  0  0  0  0  0
   57.9870   32.4540   50.9370 O   0  0  0  0  0  0  0  0  0  0  0  0
   58.9410   32.7290   49.9440 C   0  0  0  0  0  0  0  0  0  0  0  0
   58.6610   32.5600   48.5740 C   0  0  0  0  0  0  0  0  0  0  0  0
   59.6430   32.8120   47.6000 C   0  0  0  0  0  0  0  0  0  0  0  0
   59.3180   32.5920   46.1410 C   0  0  0  0  0  0  0  0  0  0  0  0
   57.9320   32.1600   45.9720 N   0  0  0  0  0  0  0  0  0  0  0  0
   57.4570   31.1300   45.0960 C   0  0  0  0  0  0  0  0  0  0  0  0
   56.2320   31.1060   44.8060 O   0  0  0  0  0  0  0  0  0  0  0  0
   58.3500   30.0330   44.5750 C   0  0  0  0  0  0  0  0  0  0  0  0
   58.4080   28.9100   45.5330 N   0  0  0  0  0  0  0  0  0  0  0  0
   59.5070   28.7410   46.3360 C   0  0  0  0  0  0  0  0  0  0  0  0
   60.4880   29.5320   46.2690 O   0  0  0  0  0  0  0  0  0  0  0  0
   59.5540   27.6910   47.2430 C   0  0  0  0  0  0  0  0  0  0  0  0
   58.4730   26.8270   47.3290 C   0  0  0  0  0  0  0  0  0  0  0  0
   57.3720   27.0050   46.5400 N   0  0  0  0  0  0  0  0  0  0  0  0
   56.2660   26.0780   46.6620 C   0  0  0  0  0  0  0  0  0  0  0  0
   55.0310   26.3320   45.9910 N   0  0  0  0  0  0  0  0  0  0  0  0
   56.3690   25.0390   47.3700 O   0  0  0  0  0  0  0  0  0  0  0  0
   57.3350   28.0580   45.6540 C   0  0  0  0  0  0  0  0  0  0  0  0
   56.3020   28.2570   44.9560 O   0  0  0  0  0  0  0  0  0  0  0  0
   60.9070   33.2900   48.0070 C   0  0  0  0  0  0  0  0  0  0  0  0
   62.2870   33.7400   46.7510 Br  0  0  0  0  0  0  0  0  0  0  0  0
   61.1790   33.4670   49.3670 C   0  0  0  0  0  0  0  0  0  0  0  0
   60.2110   33.1850   50.3330 C   0  0  0  0  0  0  0  0  0  0  0  0
   60.5300   33.3660   51.6790 O   0  0  0  0  0  0  0  0  0  0  0  0
   57.5552   31.0756   52.4196 H   0  0  0  0  0  0  0  0  0  0  0  0
   56.5725   30.9428   50.9218 H   0  0  0  0  0  0  0  0  0  0  0  0
   58.2867   30.4059   50.9218 H   0  0  0  0  0  0  0  0  0  0  0  0
   57.6604   32.2263   48.2619 H   0  0  0  0  0  0  0  0  0  0  0  0
   59.4707   33.5333   45.5926 H   0  0  0  0  0  0  0  0  0  0  0  0
   59.9802   31.8058   45.7494 H   0  0  0  0  0  0  0  0  0  0  0  0
   57.9536   29.6694   43.6155 H   0  0  0  0  0  0  0  0  0  0  0  0
   59.3645   30.4361   44.4397 H   0  0  0  0  0  0  0  0  0  0  0  0
   60.4361   27.5466   47.8841 H   0  0  0  0  0  0  0  0  0  0  0  0
   58.5022   25.9887   48.0406 H   0  0  0  0  0  0  0  0  0  0  0  0
   55.0090   26.8500   45.0850 H   0  0  0  0  0  0  0  0  0  0  0  0
   62.1680   33.8330   49.6799 H   0  0  0  0  0  0  0  0  0  0  0  0
   59.8650   33.1850   52.4210 H   0  0  0  0  0  0  0  0  0  0  0  0
  1  2  1  0
  2  3  1  0
  3  4  2  0
  4  5  1  0
  5  6  1  0
  6  7  1  0
  7  8  1  0
  8  9  2  0
  8 10  1  0
 10 11  1  0
 11 12  1  0
 12 13  2  0
 12 14  1  0
 14 15  2  0
 15 16  1  0
 16 17  1  0
 17 18  1  0
 17 19  2  0
 16 20  1  0
 20 21  2  0
  5 22  2  0
 22 23  1  0
 22 24  1  0
 24 25  2  0
 25 26  1  0
 25  3  1  0
 20 11  1  0
  1 27  1  0
  1 28  1  0
  1 29  1  0
  4 30  1  0
  6 31  1  0
  6 32  1  0
 10 33  1  0
 10 34  1  0
 14 35  1  0
 15 36  1  0
 18 37  1  0
 24 38  1  0
 26 39  1  0
M  CHG  2   7  -1  18  -1
M  END
>  <UniqueID>  (13) 
12

>  <SMILES>  (13) 
COc1cc(C[N-]C(=O)Cn2c(=O)ccn(C([NH-])=O)c2=O)c(Br)cc1O

>  <Energy>  (13) 
46.43309288950638

>  <Genealogy>  (13) 
COc1cc(C[N-]C(=O)Cn2c(=O)ccn(C([NH-])=O)c2=O)c(Br)cc1O (protonated)
COc1cc(C[N-]C(=O)Cn2c(=O)ccn(C([NH-])=O)c2=O)c(Br)cc1O (3D coordinates assigned)
COc1cc(C[N-]C(=O)Cn2c(=O)ccn(C([NH-])=O)c2=O)c(Br)cc1O (optimized conformer: 46.43309288950638 kcal/mol)

>  <smiles>  (13) 
COc1cc(CNC(=O)Cn2c(=O)ccn(C(N)=O)c2=O)c(Br)cc1O

>  <score_type>  (13) 
oracle

>  <origin>  (13) 
adg

>  <m_score__min__energy>  (13) 
-11.119999999999999

>  <m_primary>  (13) 
energy

$$$$
13:0
     RDKit          3D

 38 40  0  0  0  0  0  0  0  0999 V2000
   63.1561   33.2163   46.4393 H   0  0  0  0  0  0  0  0  0  0  0  0
   62.2720   33.4980   47.0300 C   0  0  0  0  0  0  0  0  0  0  0  0
   62.3350   33.4960   48.3890 N   0  0  0  0  0  0  0  0  0  0  0  0
   61.2630   33.8380   49.1520 C   0  0  0  0  0  0  0  0  0  0  0  0
   61.3442   33.8272   50.2489 H   0  0  0  0  0  0  0  0  0  0  0  0
   60.0590   34.2030   48.5460 C   0  0  0  0  0  0  0  0  0  0  0  0
   59.1895   34.4761   49.1619 H   0  0  0  0  0  0  0  0  0  0  0  0
   59.9660   34.2190   47.1460 C   0  0  0  0  0  0  0  0  0  0  0  0
   58.6700   34.5870   46.4800 C   0  0  0  0  0  0  0  0  0  0  0  0
   58.8776   35.2324   45.6138 H   0  0  0  0  0  0  0  0  0  0  0  0
   58.0347   35.1196   47.2030 H   0  0  0  0  0  0  0  0  0  0  0  0
   57.9720   33.3840   46.0290 N   0  0  0  0  0  0  0  0  0  0  0  0
   57.3950   32.8610   46.7250 H   0  0  0  0  0  0  0  0  0  0  0  0
   58.0540   32.9080   44.6770 C   0  0  0  0  0  0  0  0  0  0  0  0
   58.6990   33.5710   43.8200 O   0  0  0  0  0  0  0  0  0  0  0  0
   57.4020   31.6810   44.3020 N   0  0  0  0  0  0  0  0  0  0  0  0
   56.9840   30.7900   45.1890 N   0  0  0  0  0  0  0  0  0  0  0  0
   56.4320   29.7690   44.5080 C   0  0  0  0  0  0  0  0  0  0  0  0
   55.8980   28.7400   45.0980 N   0  0  0  0  0  0  0  0  0  0  0  0
   56.6180   27.6230   45.6380 C   0  0  0  0  0  0  0  0  0  0  0  0
   55.9730   26.6150   46.0300 O   0  0  0  0  0  0  0  0  0  0  0  0
   58.0820   27.6600   45.8170 C   0  0  0  0  0  0  0  0  0  0  0  0
   59.2190   27.9440   44.6070 S   0  0  0  0  0  0  0  0  0  0  0  0
   60.5710   27.8860   45.6030 C   0  0  0  0  0  0  0  0  0  0  0  0
   61.6151   28.0111   45.2801 H   0  0  0  0  0  0  0  0  0  0  0  0
   60.1440   27.6530   46.9040 C   0  0  0  0  0  0  0  0  0  0  0  0
   60.8329   27.5705   47.7576 H   0  0  0  0  0  0  0  0  0  0  0  0
   58.7540   27.5330   47.0270 C   0  0  0  0  0  0  0  0  0  0  0  0
   58.2448   27.3559   47.9858 H   0  0  0  0  0  0  0  0  0  0  0  0
   56.4810   30.0120   43.1450 C   0  0  0  0  0  0  0  0  0  0  0  0
   56.1057   29.3785   42.3278 H   0  0  0  0  0  0  0  0  0  0  0  0
   57.1120   31.2370   43.0540 C   0  0  0  0  0  0  0  0  0  0  0  0
   57.4100   31.9540   41.7720 C   0  0  0  0  0  0  0  0  0  0  0  0
   57.8234   32.9485   41.9956 H   0  0  0  0  0  0  0  0  0  0  0  0
   58.1420   31.3751   41.1897 H   0  0  0  0  0  0  0  0  0  0  0  0
   56.4833   32.0645   41.1897 H   0  0  0  0  0  0  0  0  0  0  0  0
   61.0870   33.8570   46.3830 C   0  0  0  0  0  0  0  0  0  0  0  0
   61.0330   33.8560   45.2843 H   0  0  0  0  0  0  0  0  0  0  0  0
  1  2  1  0
  2  3  2  0
  3  4  1  0
  4  5  1  0
  4  6  2  0
  6  7  1  0
  6  8  1  0
  8  9  1  0
  9 10  1  0
  9 11  1  0
  9 12  1  0
 12 13  1  0
 12 14  1  0
 14 15  2  0
 14 16  1  0
 16 17  1  0
 17 18  1  0
 18 19  2  0
 19 20  1  0
 20 21  2  0
 20 22  1  0
 22 23  1  0
 23 24  1  0
 24 25  1  0
 24 26  2  0
 26 27  1  0
 26 28  1  0
 28 29  1  0
 18 30  1  0
 30 31  1  0
 30 32  2  0
 32 33  1  0
 33 34  1  0
 33 35  1  0
 33 36  1  0
  8 37  2  0
 37 38  1  0
 37  2  1  0
 32 16  1  0
 28 22  2  0
M  CHG  1  17  -1
M  END
>  <UniqueID>  (14) 
13

>  <SMILES>  (14) 
Cc1c/c(=N\C(=O)c2cccs2)[n-]n1C(=O)NCc1ccncc1

>  <Energy>  (14) 
102.59259543416087

>  <Genealogy>  (14) 
Cc1cc(=NC(=O)c2cccs2)[n-]n1C(=O)NCc1ccncc1 (protonated)
Cc1c/c(=N\C(=O)c2cccs2)[n-]n1C(=O)NCc1ccncc1 (cis-trans isomerization)
Cc1c/c(=N\C(=O)c2cccs2)[n-]n1C(=O)NCc1ccncc1 (3D coordinates assigned)
Cc1c/c(=N\C(=O)c2cccs2)[n-]n1C(=O)NCc1ccncc1 (optimized conformer: 102.59259543416087 kcal/mol)

>  <smiles>  (14) 
Cc1cc(=NC(=O)c2cccs2)[nH]n1C(=O)NCc1ccncc1

>  <score_type>  (14) 
oracle

>  <origin>  (14) 
adg

>  <m_score__min__energy>  (14) 
-10.51

>  <m_primary>  (14) 
energy

$$$$
14:0
     RDKit          3D

 26 27  0  0  0  0  0  0  0  0999 V2000
   57.9945   33.7443   44.2451 H   0  0  0  0  0  0  0  0  0  0  0  0
   57.8960   32.6840   44.5210 C   0  0  0  0  0  0  0  0  0  0  0  0
   58.2770   32.2550   45.7950 C   0  0  0  0  0  0  0  0  0  0  0  0
   58.6744   32.9784   46.5222 H   0  0  0  0  0  0  0  0  0  0  0  0
   58.1540   30.9100   46.1460 C   0  0  0  0  0  0  0  0  0  0  0  0
   58.4498   30.5789   47.1524 H   0  0  0  0  0  0  0  0  0  0  0  0
   57.6550   29.9760   45.2230 C   0  0  0  0  0  0  0  0  0  0  0  0
   57.5060   28.5620   45.6240 C   0  0  0  0  0  0  0  0  0  0  0  0
   56.2620   28.0120   45.6280 N   0  0  0  0  0  0  0  0  0  0  0  0
   56.0510   26.7230   45.9950 C   0  0  0  0  0  0  0  0  0  0  0  0
   54.8370   26.2530   45.9790 N   0  0  0  0  0  0  0  0  0  0  0  0
   54.3730   24.9460   45.5930 C   0  0  0  0  0  0  0  0  0  0  0  0
   53.1340   24.7190   45.6230 O   0  0  0  0  0  0  0  0  0  0  0  0
   55.2900   23.8410   45.1580 C   0  0  0  0  0  0  0  0  0  0  0  0
   55.7061   23.3396   46.0442 H   0  0  0  0  0  0  0  0  0  0  0  0
   54.7269   23.1131   44.5554 H   0  0  0  0  0  0  0  0  0  0  0  0
   56.1092   24.2602   44.5554 H   0  0  0  0  0  0  0  0  0  0  0  0
   57.1090   25.9560   46.3710 N   0  0  0  0  0  0  0  0  0  0  0  0
   58.3730   26.4490   46.3830 C   0  0  0  0  0  0  0  0  0  0  0  0
   59.3270   25.7050   46.7300 O   0  0  0  0  0  0  0  0  0  0  0  0
   58.6090   27.7770   46.0050 C   0  0  0  0  0  0  0  0  0  0  0  0
   60.4100   28.4530   45.9560 Br  0  0  0  0  0  0  0  0  0  0  0  0
   57.2620   30.4140   43.9410 C   0  0  0  0  0  0  0  0  0  0  0  0
   56.6430   29.2940   42.7310 Cl  0  0  0  0  0  0  0  0  0  0  0  0
   57.3900   31.7660   43.5980 C   0  0  0  0  0  0  0  0  0  0  0  0
   57.0903   32.1067   42.5960 H   0  0  0  0  0  0  0  0  0  0  0  0
  1  2  1  0
  2  3  2  0
  3  4  1  0
  3  5  1  0
  5  6  1  0
  5  7  2  0
  7  8  1  0
  8  9  1  0
  9 10  1  0
 10 11  2  0
 11 12  1  0
 12 13  2  0
 12 14  1  0
 14 15  1  0
 14 16  1  0
 14 17  1  0
 10 18  1  0
 18 19  1  0
 19 20  2  0
 19 21  1  0
 21 22  1  0
  7 23  1  0
 23 24  1  0
 23 25  2  0
 25 26  1  0
 25  2  1  0
 21  8  2  0
M  CHG  2   9  -1  18  -1
M  END
>  <UniqueID>  (15) 
14

>  <SMILES>  (15) 
CC(=O)/N=c1/[n-]c(-c2ccccc2Cl)c(Br)c(=O)[n-]1

>  <Energy>  (15) 
39.50377827335679

>  <Genealogy>  (15) 
CC(=O)N=c1[n-]c(-c2ccccc2Cl)c(Br)c(=O)[n-]1 (protonated)
CC(=O)/N=c1/[n-]c(-c2ccccc2Cl)c(Br)c(=O)[n-]1 (cis-trans isomerization)
CC(=O)/N=c1/[n-]c(-c2ccccc2Cl)c(Br)c(=O)[n-]1 (3D coordinates assigned)
CC(=O)/N=c1/[n-]c(-c2ccccc2Cl)c(Br)c(=O)[n-]1 (optimized conformer: 39.50377827335679 kcal/mol)

>  <smiles>  (15) 
CC(=O)N=c1[nH]c(-c2ccccc2Cl)c(Br)c(=O)[nH]1

>  <score_type>  (15) 
oracle

>  <origin>  (15) 
adg

>  <m_score__min__energy>  (15) 
-10.890000000000001

>  <m_primary>  (15) 
energy

$$$$
15:0
     RDKit          3D

 54 57  0  0  0  0  0  0  0  0999 V2000
   51.4330   30.1920   52.7710 C   0  0  0  0  0  0  0  0  0  0  0  0
   52.5780   30.5030   51.4440 S   0  0  0  0  0  0  0  0  0  0  0  0
   52.8340   31.9770   51.3040 O   0  0  0  0  0  0  0  0  0  0  0  0
   51.9730   29.9950   50.1660 O   0  0  0  0  0  0  0  0  0  0  0  0
   54.0710   29.6630   51.7280 N   0  0  0  0  0  0  0  0  0  0  0  0
   55.2850   30.2860   52.1870 C   0  0  0  0  0  0  0  0  0  0  0  0
   55.6340   30.1770   53.5420 C   0  0  0  0  0  0  0  0  0  0  0  0
   56.8030   30.7700   54.0250 C   0  0  0  0  0  0  0  0  0  0  0  0
   57.6330   31.4870   53.1630 C   0  0  0  0  0  0  0  0  0  0  0  0
   57.3110   31.6030   51.7990 C   0  0  0  0  0  0  0  0  0  0  0  0
   58.1950   32.3620   50.8820 C   0  0  0  0  0  0  0  0  0  0  0  0
   58.6900   33.4630   51.2500 O   0  0  0  0  0  0  0  0  0  0  0  0
   58.5290   31.8210   49.5980 N   0  0  0  0  0  0  0  0  0  0  0  0
   58.7010   32.5610   48.3800 C   0  0  0  0  0  0  0  0  0  0  0  0
   59.2310   33.8620   48.3710 C   0  0  0  0  0  0  0  0  0  0  0  0
   59.3320   34.5700   47.1710 C   0  0  0  0  0  0  0  0  0  0  0  0
   58.9040   33.9900   45.9750 C   0  0  0  0  0  0  0  0  0  0  0  0
   58.3780   32.6890   45.9670 C   0  0  0  0  0  0  0  0  0  0  0  0
   57.9320   32.0450   44.6770 C   0  0  0  0  0  0  0  0  0  0  0  0
   57.4210   30.6470   44.9240 C   0  0  0  0  0  0  0  0  0  0  0  0
   56.0780   30.4380   44.8510 N   0  0  0  0  0  0  0  0  0  0  0  0
   55.5300   29.2500   45.0940 N   0  0  0  0  0  0  0  0  0  0  0  0
   56.2840   28.1740   45.4300 C   0  0  0  0  0  0  0  0  0  0  0  0
   55.7230   27.0650   45.6360 O   0  0  0  0  0  0  0  0  0  0  0  0
   57.6740   28.3140   45.5380 C   0  0  0  0  0  0  0  0  0  0  0  0
   58.2570   29.5680   45.2900 C   0  0  0  0  0  0  0  0  0  0  0  0
   59.7640   29.6630   45.3770 C   0  0  0  0  0  0  0  0  0  0  0  0
   60.2740   28.9490   46.6380 C   0  0  0  0  0  0  0  0  0  0  0  0
   59.6800   27.5360   46.8520 C   0  0  0  0  0  0  0  0  0  0  0  0
   58.5770   27.1440   45.8500 C   0  0  0  0  0  0  0  0  0  0  0  0
   58.2590   31.9910   47.1800 C   0  0  0  0  0  0  0  0  0  0  0  0
   56.1390   30.9900   51.3180 C   0  0  0  0  0  0  0  0  0  0  0  0
   51.9432   30.3306   53.7356 H   0  0  0  0  0  0  0  0  0  0  0  0
   50.5887   30.8934   52.6987 H   0  0  0  0  0  0  0  0  0  0  0  0
   51.0595   29.1599   52.6987 H   0  0  0  0  0  0  0  0  0  0  0  0
   54.0480   28.6250   51.6230 H   0  0  0  0  0  0  0  0  0  0  0  0
   54.9812   29.6196   54.2299 H   0  0  0  0  0  0  0  0  0  0  0  0
   57.0697   30.6713   55.0876 H   0  0  0  0  0  0  0  0  0  0  0  0
   58.5444   31.9643   53.5524 H   0  0  0  0  0  0  0  0  0  0  0  0
   59.5672   34.3242   49.3109 H   0  0  0  0  0  0  0  0  0  0  0  0
   59.7500   35.5875   47.1682 H   0  0  0  0  0  0  0  0  0  0  0  0
   58.9795   34.5556   45.0346 H   0  0  0  0  0  0  0  0  0  0  0  0
   57.1280   32.6493   44.2315 H   0  0  0  0  0  0  0  0  0  0  0  0
   58.7930   31.9900   43.9946 H   0  0  0  0  0  0  0  0  0  0  0  0
   60.2088   29.1911   44.4884 H   0  0  0  0  0  0  0  0  0  0  0  0
   60.0523   30.7234   45.4263 H   0  0  0  0  0  0  0  0  0  0  0  0
   61.3675   28.8556   46.5630 H   0  0  0  0  0  0  0  0  0  0  0  0
   59.9558   29.5586   47.4965 H   0  0  0  0  0  0  0  0  0  0  0  0
   60.4968   26.8042   46.7665 H   0  0  0  0  0  0  0  0  0  0  0  0
   59.2090   27.5437   47.8460 H   0  0  0  0  0  0  0  0  0  0  0  0
   59.0471   26.7964   44.9182 H   0  0  0  0  0  0  0  0  0  0  0  0
   57.9674   26.3470   46.3008 H   0  0  0  0  0  0  0  0  0  0  0  0
   57.8136   30.9853   47.1873 H   0  0  0  0  0  0  0  0  0  0  0  0
   55.8875   31.0621   50.2496 H   0  0  0  0  0  0  0  0  0  0  0  0
  1  2  1  0
  2  3  2  0
  2  4  2  0
  2  5  1  0
  5  6  1  0
  6  7  2  0
  7  8  1  0
  8  9  2  0
  9 10  1  0
 10 11  1  0
 11 12  2  0
 11 13  1  0
 13 14  1  0
 14 15  2  0
 15 16  1  0
 16 17  2  0
 17 18  1  0
 18 19  1  0
 19 20  1  0
 20 21  2  0
 21 22  1  0
 22 23  1  0
 23 24  2  0
 23 25  1  0
 25 26  2  0
 26 27  1  0
 27 28  1  0
 28 29  1  0
 29 30  1  0
 18 31  2  0
 10 32  2  0
 32  6  1  0
 31 14  1  0
 26 20  1  0
 30 25  1  0
  1 33  1  0
  1 34  1  0
  1 35  1  0
  5 36  1  0
  7 37  1  0
  8 38  1  0
  9 39  1  0
 15 40  1  0
 16 41  1  0
 17 42  1  0
 19 43  1  0
 19 44  1  0
 27 45  1  0
 27 46  1  0
 28 47  1  0
 28 48  1  0
 29 49  1  0
 29 50  1  0
 30 51  1  0
 30 52  1  0
 31 53  1  0
 32 54  1  0
M  CHG  2  13  -1  22  -1
M  END
>  <UniqueID>  (16) 
15

>  <SMILES>  (16) 
CS(=O)(=O)Nc1cccc(C(=O)[N-]c2cccc(Cc3n[n-]c(=O)c4c3CCCC4)c2)c1

>  <Energy>  (16) 
68.20296425727852

>  <Genealogy>  (16) 
CS(=O)(=O)Nc1cccc(C(=O)[N-]c2cccc(Cc3n[n-]c(=O)c4c3CCCC4)c2)c1 (protonated)
CS(=O)(=O)Nc1cccc(C(=O)[N-]c2cccc(Cc3n[n-]c(=O)c4c3CCCC4)c2)c1 (3D coordinates assigned)
CS(=O)(=O)Nc1cccc(C(=O)[N-]c2cccc(Cc3n[n-]c(=O)c4c3CCCC4)c2)c1 (nonaromatic ring conformer: 68.20296425727852 kcal/mol)

>  <smiles>  (16) 
CS(=O)(=O)Nc1cccc(C(=O)Nc2cccc(Cc3n[nH]c(=O)c4c3CCCC4)c2)c1

>  <score_type>  (16) 
oracle

>  <origin>  (16) 
adg

>  <m_score__min__energy>  (16) 
-14.27

>  <m_primary>  (16) 
energy

$$$$
16:0
     RDKit          3D

 57 60  0  0  0  0  0  0  0  0999 V2000
   63.7810   31.4840   50.3510 C   0  0  0  0  0  0  0  0  0  0  0  0
   64.3130   32.8850   49.3880 S   0  0  0  0  0  0  0  0  0  0  0  0
   65.8110   33.0080   49.4330 O   0  0  0  0  0  0  0  0  0  0  0  0
   63.7110   34.1310   49.9740 O   0  0  0  0  0  0  0  0  0  0  0  0
   63.7760   32.7250   47.7440 N   0  0  0  0  0  0  0  0  0  0  0  0
   62.4050   32.8340   47.3140 C   0  0  0  0  0  0  0  0  0  0  0  0
   61.4670   31.9080   47.7930 C   0  0  0  0  0  0  0  0  0  0  0  0
   60.1270   31.9840   47.4070 C   0  0  0  0  0  0  0  0  0  0  0  0
   59.6930   32.9930   46.5320 C   0  0  0  0  0  0  0  0  0  0  0  0
   58.2680   33.0860   46.1240 C   0  0  0  0  0  0  0  0  0  0  0  0
   57.5070   33.9050   46.7030 O   0  0  0  0  0  0  0  0  0  0  0  0
   57.7470   32.3160   45.0300 N   0  0  0  0  0  0  0  0  0  0  0  0
   57.7570   31.0170   44.9130 C   0  0  0  0  0  0  0  0  0  0  0  0
   58.9480   30.2720   44.8230 C   0  0  0  0  0  0  0  0  0  0  0  0
   58.8840   28.8850   44.6910 C   0  0  0  0  0  0  0  0  0  0  0  0
   57.6440   28.2310   44.6670 C   0  0  0  0  0  0  0  0  0  0  0  0
   57.5740   26.7610   44.4940 C   0  0  0  0  0  0  0  0  0  0  0  0
   58.1420   26.2300   43.5000 O   0  0  0  0  0  0  0  0  0  0  0  0
   56.8560   25.9240   45.4220 N   0  0  0  0  0  0  0  0  0  0  0  0
   57.0010   26.0920   46.8720 C   0  0  0  0  0  0  0  0  0  0  0  0
   57.4710   24.7790   47.5020 C   0  0  0  0  0  0  0  0  0  0  0  0
   56.6600   23.6580   47.0080 N   0  0  0  0  0  0  0  0  0  0  0  0
   56.3330   22.5700   47.8940 C   0  0  0  0  0  0  0  0  0  0  0  0
   55.1320   22.5670   48.6220 C   0  0  0  0  0  0  0  0  0  0  0  0
   54.8510   21.5040   49.4830 C   0  0  0  0  0  0  0  0  0  0  0  0
   55.7670   20.4610   49.6230 C   0  0  0  0  0  0  0  0  0  0  0  0
   56.9610   20.5020   48.9010 C   0  0  0  0  0  0  0  0  0  0  0  0
   57.2160   21.5440   48.0630 N   0  0  0  0  0  0  0  0  0  0  0  0
   56.5210   23.5050   45.5530 C   0  0  0  0  0  0  0  0  0  0  0  0
   56.0290   24.8140   44.9380 C   0  0  0  0  0  0  0  0  0  0  0  0
   56.4810   29.0090   44.7700 C   0  0  0  0  0  0  0  0  0  0  0  0
   56.5660   30.3600   44.8930 N   0  0  0  0  0  0  0  0  0  0  0  0
   60.6340   33.9120   46.0380 C   0  0  0  0  0  0  0  0  0  0  0  0
   61.9750   33.8360   46.4260 C   0  0  0  0  0  0  0  0  0  0  0  0
   63.8705   31.7198   51.4217 H   0  0  0  0  0  0  0  0  0  0  0  0
   62.7323   31.2524   50.1130 H   0  0  0  0  0  0  0  0  0  0  0  0
   64.4116   30.6147   50.1130 H   0  0  0  0  0  0  0  0  0  0  0  0
   64.5110   32.5270   47.0280 H   0  0  0  0  0  0  0  0  0  0  0  0
   61.7904   31.1127   48.4806 H   0  0  0  0  0  0  0  0  0  0  0  0
   59.4058   31.2477   47.7914 H   0  0  0  0  0  0  0  0  0  0  0  0
   59.9229   30.7805   44.8566 H   0  0  0  0  0  0  0  0  0  0  0  0
   59.8120   28.3006   44.6052 H   0  0  0  0  0  0  0  0  0  0  0  0
   57.7407   26.8802   47.0761 H   0  0  0  0  0  0  0  0  0  0  0  0
   56.0294   26.3744   47.3037 H   0  0  0  0  0  0  0  0  0  0  0  0
   58.5254   24.6075   47.2396 H   0  0  0  0  0  0  0  0  0  0  0  0
   57.3609   24.8465   48.5944 H   0  0  0  0  0  0  0  0  0  0  0  0
   54.4174   23.3964   48.5147 H   0  0  0  0  0  0  0  0  0  0  0  0
   53.9086   21.4891   50.0501 H   0  0  0  0  0  0  0  0  0  0  0  0
   55.5510   19.6167   50.2941 H   0  0  0  0  0  0  0  0  0  0  0  0
   57.6966   19.6914   49.0093 H   0  0  0  0  0  0  0  0  0  0  0  0
   57.4969   23.2420   45.1189 H   0  0  0  0  0  0  0  0  0  0  0  0
   55.7930   22.7083   45.3402 H   0  0  0  0  0  0  0  0  0  0  0  0
   56.1013   24.7539   43.8420 H   0  0  0  0  0  0  0  0  0  0  0  0
   54.9817   24.9840   45.2282 H   0  0  0  0  0  0  0  0  0  0  0  0
   55.4945   28.5227   44.7511 H   0  0  0  0  0  0  0  0  0  0  0  0
   60.3126   34.6986   45.3395 H   0  0  0  0  0  0  0  0  0  0  0  0
   62.6990   34.5653   46.0338 H   0  0  0  0  0  0  0  0  0  0  0  0
  1  2  1  0
  2  3  2  0
  2  4  2  0
  2  5  1  0
  5  6  1  0
  6  7  2  0
  7  8  1  0
  8  9  2  0
  9 10  1  0
 10 11  2  0
 10 12  1  0
 12 13  2  3
 13 14  1  0
 14 15  2  0
 15 16  1  0
 16 17  1  0
 17 18  2  0
 17 19  1  0
 19 20  1  0
 20 21  1  0
 21 22  1  0
 22 23  1  0
 23 24  2  0
 24 25  1  0
 25 26  2  0
 26 27  1  0
 27 28  2  0
 22 29  1  0
 29 30  1  0
 16 31  2  0
 31 32  1  0
  9 33  1  0
 33 34  2  0
 34  6  1  0
 32 13  1  0
 30 19  1  0
 28 23  1  0
  1 35  1  0
  1 36  1  0
  1 37  1  0
  5 38  1  0
  7 39  1  0
  8 40  1  0
 14 41  1  0
 15 42  1  0
 20 43  1  0
 20 44  1  0
 21 45  1  0
 21 46  1  0
 24 47  1  0
 25 48  1  0
 26 49  1  0
 27 50  1  0
 29 51  1  0
 29 52  1  0
 30 53  1  0
 30 54  1  0
 31 55  1  0
 33 56  1  0
 34 57  1  0
M  CHG  1  32  -1
M  END
>  <UniqueID>  (17) 
16

>  <SMILES>  (17) 
CS(=O)(=O)Nc1ccc(C(=O)N=c2ccc(C(=O)N3CCN(c4ccccn4)CC3)c[n-]2)cc1

>  <Energy>  (17) 
79.16026044061341

>  <Genealogy>  (17) 
CS(=O)(=O)Nc1ccc(C(=O)N=c2ccc(C(=O)N3CCN(c4ccccn4)CC3)c[n-]2)cc1 (protonated)
CS(=O)(=O)Nc1ccc(C(=O)N=c2ccc(C(=O)N3CCN(c4ccccn4)CC3)c[n-]2)cc1 (3D coordinates assigned)
CS(=O)(=O)Nc1ccc(C(=O)N=c2ccc(C(=O)N3CCN(c4ccccn4)CC3)c[n-]2)cc1 (nonaromatic ring conformer: 79.16026044061341 kcal/mol)

>  <smiles>  (17) 
CS(=O)(=O)Nc1ccc(C(=O)N=c2ccc(C(=O)N3CCN(c4ccccn4)CC3)c[nH]2)cc1

>  <score_type>  (17) 
oracle

>  <origin>  (17) 
adg

>  <m_score__min__energy>  (17) 
-11.119999999999999

>  <m_primary>  (17) 
energy

$$$$
17:0
     RDKit          3D

 66 69  0  0  0  0  0  0  0  0999 V2000
   56.9700   23.2850   48.7250 C   0  0  0  0  0  0  0  0  0  0  0  0
   57.3420   22.6220   47.5230 O   0  0  0  0  0  0  0  0  0  0  0  0
   56.5060   21.7030   46.8790 C   0  0  0  0  0  0  0  0  0  0  0  0
   55.3230   22.0210   46.5800 O   0  0  0  0  0  0  0  0  0  0  0  0
   57.0370   20.3390   46.4920 C   0  0  1  0  0  0  0  0  0  0  0  0
   56.1550   19.2560   47.1110 C   0  0  0  0  0  0  0  0  0  0  0  0
   55.1600   18.8840   46.0170 C   0  0  0  0  0  0  0  0  0  0  0  0
   55.6760   19.5440   44.7390 C   0  0  0  0  0  0  0  0  0  0  0  0
   57.0170   20.0640   45.0380 N   0  0  1  0  0  0  0  0  0  0  0  0
   57.4030   21.1640   44.1670 C   0  0  0  0  0  0  0  0  0  0  0  0
   58.5820   21.3950   43.9360 O   0  0  0  0  0  0  0  0  0  0  0  0
   56.3630   22.1090   43.6080 C   0  0  0  0  0  0  0  0  0  0  0  0
   56.9870   23.3320   42.9220 C   0  0  0  0  0  0  0  0  0  0  0  0
   57.0340   24.5270   43.8400 C   0  0  0  0  0  0  0  0  0  0  0  0
   56.5310   24.4270   45.1470 C   0  0  0  0  0  0  0  0  0  0  0  0
   56.6670   25.4920   46.0400 C   0  0  0  0  0  0  0  0  0  0  0  0
   57.3240   26.6700   45.6460 C   0  0  0  0  0  0  0  0  0  0  0  0
   57.5870   27.7640   46.6520 C   0  0  0  0  0  0  0  0  0  0  0  0
   57.7210   29.1010   45.9450 C   0  0  0  0  0  0  0  0  0  0  0  0
   58.8880   29.8960   46.0590 C   0  0  0  0  0  0  0  0  0  0  0  0
   60.0780   29.4150   46.6940 N   0  0  0  0  0  0  0  0  0  0  0  0
   58.8880   31.1570   45.5540 N   0  0  0  0  0  0  0  0  0  0  0  0
   57.8130   31.6640   44.9030 C   0  0  0  0  0  0  0  0  0  0  0  0
   57.8560   33.3360   44.2670 S   0  0  0  0  0  0  0  0  0  0  0  0
   57.7180   34.1340   45.9060 C   0  0  0  0  0  0  0  0  0  0  0  0
   58.9990   33.9560   46.6730 C   0  0  0  0  0  0  0  0  0  0  0  0
   58.9880   33.8370   48.0740 C   0  0  0  0  0  0  0  0  0  0  0  0
   60.1910   33.7620   48.7850 C   0  0  0  0  0  0  0  0  0  0  0  0
   61.4120   33.7940   48.1030 C   0  0  0  0  0  0  0  0  0  0  0  0
   62.5770   33.7340   48.7940 F   0  0  0  0  0  0  0  0  0  0  0  0
   61.4320   33.9070   46.7090 C   0  0  0  0  0  0  0  0  0  0  0  0
   60.2320   33.9870   45.9970 C   0  0  0  0  0  0  0  0  0  0  0  0
   56.7030   30.9070   44.7360 N   0  0  0  0  0  0  0  0  0  0  0  0
   56.6300   29.6480   45.2380 C   0  0  0  0  0  0  0  0  0  0  0  0
   55.5750   28.9830   45.0660 O   0  0  0  0  0  0  0  0  0  0  0  0
   57.7650   26.7960   44.3170 C   0  0  0  0  0  0  0  0  0  0  0  0
   57.6240   25.7330   43.4210 C   0  0  0  0  0  0  0  0  0  0  0  0
   58.0870   25.8710   42.1530 F   0  0  0  0  0  0  0  0  0  0  0  0
   57.3030   22.6915   49.5892 H   0  0  0  0  0  0  0  0  0  0  0  0
   57.4429   24.2776   48.7577 H   0  0  0  0  0  0  0  0  0  0  0  0
   55.8764   23.3986   48.7577 H   0  0  0  0  0  0  0  0  0  0  0  0
   58.0779   20.3321   46.8476 H   0  0  0  0  0  0  0  0  0  0  0  0
   56.7590   18.3825   47.3975 H   0  0  0  0  0  0  0  0  0  0  0  0
   55.6525   19.6050   48.0251 H   0  0  0  0  0  0  0  0  0  0  0  0
   55.1180   17.7918   45.8934 H   0  0  0  0  0  0  0  0  0  0  0  0
   54.1430   19.2227   46.2640 H   0  0  0  0  0  0  0  0  0  0  0  0
   55.7297   18.8044   43.9265 H   0  0  0  0  0  0  0  0  0  0  0  0
   55.0039   20.3521   44.4145 H   0  0  0  0  0  0  0  0  0  0  0  0
   57.6860   19.2710   44.8830 H   0  0  0  0  0  0  0  0  0  0  0  0
   55.7520   21.5656   42.8723 H   0  0  0  0  0  0  0  0  0  0  0  0
   55.7552   22.4723   44.4498 H   0  0  0  0  0  0  0  0  0  0  0  0
   58.0120   23.0814   42.6114 H   0  0  0  0  0  0  0  0  0  0  0  0
   56.3628   23.5923   42.0544 H   0  0  0  0  0  0  0  0  0  0  0  0
   56.0267   23.5041   45.4695 H   0  0  0  0  0  0  0  0  0  0  0  0
   56.2575   25.4083   47.0575 H   0  0  0  0  0  0  0  0  0  0  0  0
   56.7507   27.8115   47.3649 H   0  0  0  0  0  0  0  0  0  0  0  0
   58.5226   27.5441   47.1871 H   0  0  0  0  0  0  0  0  0  0  0  0
   60.6310   28.6140   46.3220 H   0  0  0  0  0  0  0  0  0  0  0  0
   60.4370   29.8950   47.5490 H   0  0  0  0  0  0  0  0  0  0  0  0
   57.5190   35.2076   45.7730 H   0  0  0  0  0  0  0  0  0  0  0  0
   56.8935   33.6689   46.4663 H   0  0  0  0  0  0  0  0  0  0  0  0
   58.0299   33.8027   48.6133 H   0  0  0  0  0  0  0  0  0  0  0  0
   60.1765   33.6778   49.8817 H   0  0  0  0  0  0  0  0  0  0  0  0
   62.3923   33.9329   46.1731 H   0  0  0  0  0  0  0  0  0  0  0  0
   60.2520   34.0748   44.9007 H   0  0  0  0  0  0  0  0  0  0  0  0
   58.2239   27.7373   43.9804 H   0  0  0  0  0  0  0  0  0  0  0  0
  1  2  1  0
  2  3  1  0
  3  4  2  0
  3  5  1  0
  5  6  1  0
  6  7  1  0
  7  8  1  0
  8  9  1  0
  9 10  1  0
 10 11  2  0
 10 12  1  0
 12 13  1  0
 13 14  1  0
 14 15  2  0
 15 16  1  0
 16 17  2  0
 17 18  1  0
 18 19  1  0
 19 20  2  0
 20 21  1  0
 20 22  1  0
 22 23  1  0
 23 24  1  0
 24 25  1  0
 25 26  1  0
 26 27  2  0
 27 28  1  0
 28 29  2  0
 29 30  1  0
 29 31  1  0
 31 32  2  0
 23 33  2  0
 33 34  1  0
 34 35  2  0
 17 36  1  0
 36 37  2  0
 37 38  1  0
  9  5  1  0
 37 14  1  0
 34 19  1  0
 32 26  1  0
  1 39  1  0
  1 40  1  0
  1 41  1  0
  5 42  1  1
  6 43  1  0
  6 44  1  0
  7 45  1  0
  7 46  1  0
  8 47  1  0
  8 48  1  0
  9 49  1  1
 12 50  1  0
 12 51  1  0
 13 52  1  0
 13 53  1  0
 15 54  1  0
 16 55  1  0
 18 56  1  0
 18 57  1  0
 21 58  1  0
 21 59  1  0
 25 60  1  0
 25 61  1  0
 27 62  1  0
 28 63  1  0
 31 64  1  0
 32 65  1  0
 36 66  1  0
M  CHG  2   9   1  22  -1
M  END
>  <UniqueID>  (18) 
17

>  <SMILES>  (18) 
COC(=O)[C@H]1CCC[N@H+]1C(=O)CCc1ccc(Cc2c(N)[n-]c(SCc3ccc(F)cc3)nc2=O)cc1F

>  <Energy>  (18) 
65.13769941208346

>  <Genealogy>  (18) 
COC(=O)C1CCC[NH+]1C(=O)CCc1ccc(Cc2c(N)[n-]c(SCc3ccc(F)cc3)nc2=O)cc1F (protonated)
COC(=O)[C@H]1CCC[N@H+]1C(=O)CCc1ccc(Cc2c(N)[n-]c(SCc3ccc(F)cc3)nc2=O)cc1F (chirality)
COC(=O)[C@H]1CCC[N@H+]1C(=O)CCc1ccc(Cc2c(N)[n-]c(SCc3ccc(F)cc3)nc2=O)cc1F (3D coordinates assigned)
COC(=O)[C@H]1CCC[N@H+]1C(=O)CCc1ccc(Cc2c(N)[n-]c(SCc3ccc(F)cc3)nc2=O)cc1F (nonaromatic ring conformer: 65.13769941208346 kcal/mol)

>  <smiles>  (18) 
COC(=O)C1CCCN1C(=O)CCc1ccc(Cc2c(N)[nH]c(SCc3ccc(F)cc3)nc2=O)cc1F

>  <score_type>  (18) 
oracle

>  <origin>  (18) 
adg

>  <m_score__min__energy>  (18) 
-10.15

>  <m_primary>  (18) 
energy

$$$$
18:0
     RDKit          3D

 26 27  0  0  0  0  0  0  0  0999 V2000
   59.4650   29.0630   46.1100 O   0  0  0  0  0  0  0  0  0  0  0  0
   58.4760   28.8520   45.3590 C   0  0  0  0  0  0  0  0  0  0  0  0
   58.3140   29.6780   44.1990 N   0  0  0  0  0  0  0  0  0  0  0  0
   57.2560   31.0470   44.0600 S   0  0  0  0  0  0  0  0  0  0  0  0
   57.1450   31.4340   42.6130 O   0  0  0  0  0  0  0  0  0  0  0  0
   55.8940   30.6720   44.5730 O   0  0  0  0  0  0  0  0  0  0  0  0
   57.9070   32.4180   44.9550 C   0  0  0  0  0  0  0  0  0  0  0  0
   58.5210   33.4850   44.2800 C   0  0  0  0  0  0  0  0  0  0  0  0
   59.0070   34.5820   44.9960 C   0  0  0  0  0  0  0  0  0  0  0  0
   58.8880   34.6190   46.3890 C   0  0  0  0  0  0  0  0  0  0  0  0
   59.3590   35.6850   47.0820 F   0  0  0  0  0  0  0  0  0  0  0  0
   58.2840   33.5560   47.0660 C   0  0  0  0  0  0  0  0  0  0  0  0
   57.7970   32.4570   46.3520 C   0  0  0  0  0  0  0  0  0  0  0  0
   57.5350   27.7690   45.7110 C   0  0  0  0  0  0  0  0  0  0  0  0
   57.9070   26.5340   46.2160 C   0  0  0  0  0  0  0  0  0  0  0  0
   56.7430   25.8200   46.3910 C   0  0  0  0  0  0  0  0  0  0  0  0
   55.7300   26.6530   45.9730 C   0  0  0  0  0  0  0  0  0  0  0  0
   54.3810   26.3220   45.9860 O   0  0  0  0  0  0  0  0  0  0  0  0
   56.1990   27.8410   45.5480 N   0  0  0  0  0  0  0  0  0  0  0  0
   58.6197   33.4573   43.1848 H   0  0  0  0  0  0  0  0  0  0  0  0
   59.4840   35.4179   44.4632 H   0  0  0  0  0  0  0  0  0  0  0  0
   58.1917   33.5840   48.1618 H   0  0  0  0  0  0  0  0  0  0  0  0
   57.3259   31.6201   46.8883 H   0  0  0  0  0  0  0  0  0  0  0  0
   58.9294   26.1917   46.4339 H   0  0  0  0  0  0  0  0  0  0  0  0
   56.6433   24.7971   46.7831 H   0  0  0  0  0  0  0  0  0  0  0  0
   54.0700   25.4370   46.3700 H   0  0  0  0  0  0  0  0  0  0  0  0
  1  2  2  0
  2  3  1  0
  3  4  1  0
  4  5  2  0
  4  6  2  0
  4  7  1  0
  7  8  2  0
  8  9  1  0
  9 10  2  0
 10 11  1  0
 10 12  1  0
 12 13  2  0
  2 14  1  0
 14 15  2  0
 15 16  1  0
 16 17  2  0
 17 18  1  0
 17 19  1  0
 13  7  1  0
 19 14  1  0
  8 20  1  0
  9 21  1  0
 12 22  1  0
 13 23  1  0
 15 24  1  0
 16 25  1  0
 18 26  1  0
M  CHG  2   3  -1  19  -1
M  END
>  <UniqueID>  (19) 
18

>  <SMILES>  (19) 
O=C([N-]S(=O)(=O)c1ccc(F)cc1)c1ccc(O)[n-]1

>  <Energy>  (19) 
54.2989624721342

>  <Genealogy>  (19) 
O=C([N-]S(=O)(=O)c1ccc(F)cc1)c1ccc(O)[n-]1 (protonated)
O=C([N-]S(=O)(=O)c1ccc(F)cc1)c1ccc(O)[n-]1 (3D coordinates assigned)
O=C([N-]S(=O)(=O)c1ccc(F)cc1)c1ccc(O)[n-]1 (optimized conformer: 54.2989624721342 kcal/mol)

>  <smiles>  (19) 
O=C(NS(=O)(=O)c1ccc(F)cc1)c1ccc(O)[nH]1

>  <score_type>  (19) 
oracle

>  <origin>  (19) 
adg

>  <m_score__min__energy>  (19) 
-11.279999999999999

>  <m_primary>  (19) 
energy

$$$$
19:0
     RDKit          3D

 35 37  0  0  0  0  0  0  0  0999 V2000
   56.9300   33.1330   45.7940 C   0  0  0  0  0  0  0  0  0  0  0  0
   58.7070   33.0800   45.8320 S   0  0  2  0  0  0  0  0  0  0  0  0
   59.2480   34.2180   45.0100 O   0  0  0  0  0  0  0  0  0  0  0  0
   59.1950   31.7170   45.2120 N   0  0  0  0  0  0  0  0  0  0  0  0
   58.6670   30.4140   45.5220 C   0  0  0  0  0  0  0  0  0  0  0  0
   57.6640   29.7990   44.7470 C   0  0  0  0  0  0  0  0  0  0  0  0
   57.2000   28.5220   45.0750 C   0  0  0  0  0  0  0  0  0  0  0  0
   57.7080   27.8450   46.1950 C   0  0  0  0  0  0  0  0  0  0  0  0
   57.2120   26.4880   46.5100 C   0  0  0  0  0  0  0  0  0  0  0  0
   57.9740   25.5000   46.9090 O   0  0  0  0  0  0  0  0  0  0  0  0
   57.1860   24.4650   47.0960 C   0  0  0  0  0  0  0  0  0  0  0  0
   57.6010   23.3450   47.4940 O   0  0  0  0  0  0  0  0  0  0  0  0
   55.8870   24.7140   46.8240 N   0  0  0  0  0  0  0  0  0  0  0  0
   55.9180   26.0050   46.4480 C   0  0  0  0  0  0  0  0  0  0  0  0
   54.7950   26.7050   46.0250 O   0  0  0  0  0  0  0  0  0  0  0  0
   58.7040   28.4610   46.9690 C   0  0  0  0  0  0  0  0  0  0  0  0
   59.1810   29.7310   46.6330 C   0  0  0  0  0  0  0  0  0  0  0  0
   60.1780   30.3140   47.4090 O   0  0  0  0  0  0  0  0  0  0  0  0
   59.2420   33.2170   47.5060 C   0  0  0  0  0  0  0  0  0  0  0  0
   60.4390   33.8830   47.8050 C   0  0  0  0  0  0  0  0  0  0  0  0
   60.8680   33.9950   49.1320 C   0  0  0  0  0  0  0  0  0  0  0  0
   60.1060   33.4390   50.1630 C   0  0  0  0  0  0  0  0  0  0  0  0
   58.9140   32.7690   49.8700 C   0  0  0  0  0  0  0  0  0  0  0  0
   58.4820   32.6570   48.5440 C   0  0  0  0  0  0  0  0  0  0  0  0
   56.5414   33.1446   46.8230 H   0  0  0  0  0  0  0  0  0  0  0  0
   56.6014   34.0413   45.2677 H   0  0  0  0  0  0  0  0  0  0  0  0
   56.5479   32.2459   45.2677 H   0  0  0  0  0  0  0  0  0  0  0  0
   57.2435   30.3270   43.8785 H   0  0  0  0  0  0  0  0  0  0  0  0
   56.4308   28.0438   44.4507 H   0  0  0  0  0  0  0  0  0  0  0  0
   59.1125   27.9398   47.8473 H   0  0  0  0  0  0  0  0  0  0  0  0
   61.0421   34.3184   46.9946 H   0  0  0  0  0  0  0  0  0  0  0  0
   61.8058   34.5211   49.3639 H   0  0  0  0  0  0  0  0  0  0  0  0
   60.4441   33.5284   51.2059 H   0  0  0  0  0  0  0  0  0  0  0  0
   58.3160   32.3300   50.6822 H   0  0  0  0  0  0  0  0  0  0  0  0
   57.5447   32.1289   48.3148 H   0  0  0  0  0  0  0  0  0  0  0  0
  2  1  1  1
  2  3  2  0
  2  4  2  0
  4  5  1  0
  5  6  2  0
  6  7  1  0
  7  8  2  0
  8  9  1  0
  9 10  1  0
 10 11  1  0
 11 12  2  0
 11 13  1  0
 13 14  1  0
 14 15  1  0
  8 16  1  0
 16 17  2  0
 17 18  1  0
  2 19  1  0
 19 20  2  0
 20 21  1  0
 21 22  2  0
 22 23  1  0
 23 24  2  0
 17  5  1  0
 24 19  1  0
 14  9  2  0
  1 25  1  0
  1 26  1  0
  1 27  1  0
  6 28  1  0
  7 29  1  0
 16 30  1  0
 20 31  1  0
 21 32  1  0
 22 33  1  0
 23 34  1  0
 24 35  1  0
M  CHG  3  13  -1  15  -1  18  -1
M  END
>  <UniqueID>  (20) 
19

>  <SMILES>  (20) 
C[S@](=O)(=Nc1ccc(-c2oc(=O)[n-]c2[O-])cc1[O-])c1ccccc1

>  <Energy>  (20) 
69.58995383159439

>  <Genealogy>  (20) 
CS(=O)(=Nc1ccc(-c2oc(=O)[n-]c2[O-])cc1[O-])c1ccccc1 (protonated)
C[S@](=O)(=Nc1ccc(-c2oc(=O)[n-]c2[O-])cc1[O-])c1ccccc1 (chirality)
C[S@](=O)(=Nc1ccc(-c2oc(=O)[n-]c2[O-])cc1[O-])c1ccccc1 (3D coordinates assigned)
C[S@](=O)(=Nc1ccc(-c2oc(=O)[n-]c2[O-])cc1[O-])c1ccccc1 (optimized conformer: 69.58995383159439 kcal/mol)

>  <smiles>  (20) 
CS(=O)(=Nc1ccc(-c2oc(=O)[nH]c2O)cc1O)c1ccccc1

>  <score_type>  (20) 
oracle

>  <origin>  (20) 
adg

>  <m_score__min__energy>  (20) 
-15.449999999999999

>  <m_primary>  (20) 
energy

$$$$
20:0
     RDKit          3D

 90 94  0  0  0  0  0  0  0  0999 V2000
   51.2650   24.3550   44.5660 C   0  0  0  0  0  0  0  0  0  0  0  0
   52.5920   24.0810   45.1880 C   0  0  0  0  0  0  0  0  0  0  0  0
   53.2950   25.0400   45.6100 O   0  0  0  0  0  0  0  0  0  0  0  0
   53.0770   22.7380   45.2610 N   0  0  0  0  0  0  0  0  0  0  0  0
   54.4380   22.4100   45.6590 C   0  0  0  0  0  0  0  0  0  0  0  0
   55.4270   23.1170   44.7260 C   0  0  0  0  0  0  0  0  0  0  0  0
   56.8330   23.2640   45.3390 C   0  0  0  0  0  0  0  0  0  0  0  0
   56.9080   24.2440   46.5250 C   0  0  0  0  0  0  0  0  0  0  0  0
   57.3490   25.6140   46.0990 C   0  0  0  0  0  0  0  0  0  0  0  0
   58.6390   25.9760   45.9360 N   0  0  0  0  0  0  0  0  0  0  0  0
   58.5670   27.2930   45.6340 C   0  0  0  0  0  0  0  0  0  0  0  0
   59.5860   28.0010   45.4260 O   0  0  0  0  0  0  0  0  0  0  0  0
   57.3040   27.7750   45.5980 N   0  0  0  0  0  0  0  0  0  0  0  0
   56.8900   29.1660   45.4130 C   0  0  0  0  0  0  0  0  0  0  0  0
   57.3850   29.6900   44.0620 C   0  0  0  0  0  0  0  0  0  0  0  0
   58.5080   30.5530   44.2360 O   0  0  0  0  0  0  0  0  0  0  0  0
   58.8280   31.2430   45.4180 C   0  0  0  0  0  0  0  0  0  0  0  0
   59.6440   30.6040   46.3600 C   0  0  0  0  0  0  0  0  0  0  0  0
   60.0120   31.2540   47.5430 C   0  0  0  0  0  0  0  0  0  0  0  0
   59.5700   32.5620   47.8010 C   0  0  0  0  0  0  0  0  0  0  0  0
   60.0300   33.2920   49.0420 C   0  0  0  0  0  0  0  0  0  0  0  0
   60.1780   32.3650   50.1820 N   0  0  0  0  0  0  0  0  0  0  0  0
   61.5410   32.0650   50.6650 C   0  0  0  0  0  0  0  0  0  0  0  0
   62.3310   31.2130   49.6550 C   0  0  0  0  0  0  0  0  0  0  0  0
   63.1440   32.1140   48.7120 C   0  0  0  0  0  0  0  0  0  0  0  0
   64.4590   32.6360   49.2760 C   0  0  0  0  0  0  0  0  0  0  0  0
   63.2690   33.5710   49.1360 C   0  0  0  0  0  0  0  0  0  0  0  0
   59.0190   31.7510   50.8110 C   0  0  0  0  0  0  0  0  0  0  0  0
   57.7480   32.3470   50.7170 C   0  0  0  0  0  0  0  0  0  0  0  0
   56.6310   31.7470   51.3010 C   0  0  0  0  0  0  0  0  0  0  0  0
   56.7510   30.5290   51.9920 C   0  0  0  0  0  0  0  0  0  0  0  0
   55.6460   29.9000   52.5880 O   0  0  0  0  0  0  0  0  0  0  0  0
   54.5250   30.5810   53.1440 C   0  0  0  0  0  0  0  0  0  0  0  0
   53.5070   30.8530   52.0390 C   0  0  0  0  0  0  0  0  0  0  0  0
   52.2060   31.1870   52.6140 N   0  0  0  0  0  0  0  0  0  0  0  0
   51.2760   32.0250   52.1210 C   0  0  0  0  0  0  0  0  0  0  0  0
   51.3870   32.7100   50.9150 O   0  0  0  0  0  0  0  0  0  0  0  0
   50.2120   32.0850   52.9940 C   0  0  0  0  0  0  0  0  0  0  0  0
   50.4920   31.2980   54.0160 O   0  0  0  0  0  0  0  0  0  0  0  0
   51.6780   30.7770   53.7860 C   0  0  0  0  0  0  0  0  0  0  0  0
   52.2550   29.9810   54.5760 O   0  0  0  0  0  0  0  0  0  0  0  0
   58.0130   29.9160   52.0890 C   0  0  0  0  0  0  0  0  0  0  0  0
   58.1810   28.6330   52.8570 C   0  0  0  0  0  0  0  0  0  0  0  0
   59.1330   30.5310   51.5090 C   0  0  0  0  0  0  0  0  0  0  0  0
   58.7390   33.1980   46.8650 C   0  0  0  0  0  0  0  0  0  0  0  0
   58.3640   32.5440   45.6880 C   0  0  0  0  0  0  0  0  0  0  0  0
   56.5380   26.7120   45.9070 C   0  0  0  0  0  0  0  0  0  0  0  0
   55.1510   26.7200   46.0300 O   0  0  0  0  0  0  0  0  0  0  0  0
   50.5149   24.5099   45.3556 H   0  0  0  0  0  0  0  0  0  0  0  0
   51.3321   25.2582   43.9418 H   0  0  0  0  0  0  0  0  0  0  0  0
   50.9689   23.4990   43.9418 H   0  0  0  0  0  0  0  0  0  0  0  0
   54.6078   22.7428   46.6936 H   0  0  0  0  0  0  0  0  0  0  0  0
   54.5869   21.3220   45.5949 H   0  0  0  0  0  0  0  0  0  0  0  0
   55.5091   22.5350   43.7962 H   0  0  0  0  0  0  0  0  0  0  0  0
   55.0401   24.1304   44.5433 H   0  0  0  0  0  0  0  0  0  0  0  0
   57.1616   22.2742   45.6887 H   0  0  0  0  0  0  0  0  0  0  0  0
   57.4795   23.6748   44.5495 H   0  0  0  0  0  0  0  0  0  0  0  0
   55.9122   24.3195   46.9862 H   0  0  0  0  0  0  0  0  0  0  0  0
   57.6501   23.8560   47.2383 H   0  0  0  0  0  0  0  0  0  0  0  0
   55.7921   29.2257   45.4457 H   0  0  0  0  0  0  0  0  0  0  0  0
   57.3237   29.7794   46.2165 H   0  0  0  0  0  0  0  0  0  0  0  0
   57.6784   28.8387   43.4301 H   0  0  0  0  0  0  0  0  0  0  0  0
   56.5732   30.2582   43.5844 H   0  0  0  0  0  0  0  0  0  0  0  0
   59.9991   29.5808   46.1678 H   0  0  0  0  0  0  0  0  0  0  0  0
   60.6508   30.7380   48.2749 H   0  0  0  0  0  0  0  0  0  0  0  0
   61.0002   33.7690   48.8390 H   0  0  0  0  0  0  0  0  0  0  0  0
   59.2739   34.0472   49.3026 H   0  0  0  0  0  0  0  0  0  0  0  0
   62.0771   33.0115   50.8286 H   0  0  0  0  0  0  0  0  0  0  0  0
   61.4540   31.4930   51.6005 H   0  0  0  0  0  0  0  0  0  0  0  0
   63.0164   30.5476   50.2004 H   0  0  0  0  0  0  0  0  0  0  0  0
   61.6225   30.6200   49.0581 H   0  0  0  0  0  0  0  0  0  0  0  0
   62.8403   31.5938   47.7916 H   0  0  0  0  0  0  0  0  0  0  0  0
   64.7939   32.3180   50.2743 H   0  0  0  0  0  0  0  0  0  0  0  0
   65.5030   32.6490   48.9297 H   0  0  0  0  0  0  0  0  0  0  0  0
   62.7430   33.9296   50.0331 H   0  0  0  0  0  0  0  0  0  0  0  0
   63.0957   34.5407   48.6464 H   0  0  0  0  0  0  0  0  0  0  0  0
   57.6330   33.2980   50.1763 H   0  0  0  0  0  0  0  0  0  0  0  0
   55.6472   32.2323   51.2196 H   0  0  0  0  0  0  0  0  0  0  0  0
   54.0643   29.9566   53.9237 H   0  0  0  0  0  0  0  0  0  0  0  0
   54.8526   31.5324   53.5884 H   0  0  0  0  0  0  0  0  0  0  0  0
   53.8574   31.6942   51.4228 H   0  0  0  0  0  0  0  0  0  0  0  0
   53.4019   29.9490   51.4212 H   0  0  0  0  0  0  0  0  0  0  0  0
   49.2962   32.6802   52.8632 H   0  0  0  0  0  0  0  0  0  0  0  0
   58.1532   28.8452   53.9360 H   0  0  0  0  0  0  0  0  0  0  0  0
   57.3658   27.9413   52.5982 H   0  0  0  0  0  0  0  0  0  0  0  0
   59.1468   28.1745   52.5982 H   0  0  0  0  0  0  0  0  0  0  0  0
   60.1191   30.0521   51.6006 H   0  0  0  0  0  0  0  0  0  0  0  0
   58.3801   34.2194   47.0595 H   0  0  0  0  0  0  0  0  0  0  0  0
   57.7025   33.0490   44.9687 H   0  0  0  0  0  0  0  0  0  0  0  0
   54.6390   25.9200   46.3760 H   0  0  0  0  0  0  0  0  0  0  0  0
  1  2  1  0
  2  3  2  0
  2  4  1  0
  4  5  1  0
  5  6  1  0
  6  7  1  0
  7  8  1  0
  8  9  1  0
  9 10  1  0
 10 11  1  0
 11 12  2  0
 11 13  1  0
 13 14  1  0
 14 15  1  0
 15 16  1  0
 16 17  1  0
 17 18  2  0
 18 19  1  0
 19 20  2  0
 20 21  1  0
 21 22  1  0
 22 23  1  0
 23 24  1  0
 24 25  1  0
 25 26  1  0
 26 27  1  0
 22 28  1  0
 28 29  2  0
 29 30  1  0
 30 31  2  0
 31 32  1  0
 32 33  1  0
 33 34  1  0
 34 35  1  0
 35 36  1  0
 36 37  1  0
 36 38  2  0
 38 39  1  0
 39 40  1  0
 40 41  2  0
 31 42  1  0
 42 43  1  0
 42 44  2  0
 20 45  1  0
 45 46  2  0
 13 47  1  0
 47 48  1  0
 47  9  2  0
 46 17  1  0
 27 25  1  0
 44 28  1  0
 40 35  1  0
  1 49  1  0
  1 50  1  0
  1 51  1  0
  5 52  1  0
  5 53  1  0
  6 54  1  0
  6 55  1  0
  7 56  1  0
  7 57  1  0
  8 58  1  0
  8 59  1  0
 14 60  1  0
 14 61  1  0
 15 62  1  0
 15 63  1  0
 18 64  1  0
 19 65  1  0
 21 66  1  0
 21 67  1  0
 23 68  1  0
 23 69  1  0
 24 70  1  0
 24 71  1  0
 25 72  1  0
 26 73  1  0
 26 74  1  0
 27 75  1  0
 27 76  1  0
 29 77  1  0
 30 78  1  0
 33 79  1  0
 33 80  1  0
 34 81  1  0
 34 82  1  0
 38 83  1  0
 43 84  1  0
 43 85  1  0
 43 86  1  0
 44 87  1  0
 45 88  1  0
 46 89  1  0
 48 90  1  0
M  CHG  3   4  -1  10  -1  37  -1
M  END
>  <UniqueID>  (21) 
20

>  <SMILES>  (21) 
CC(=O)[N-]CCCCc1[n-]c(=O)n(CCOc2ccc(CN(CCC3CC3)c3ccc(OCCn4c([O-])coc4=O)c(C)c3)cc2)c1O

>  <Energy>  (21) 
410.24835037944996

>  <Genealogy>  (21) 
CC(=O)[N-]CCCCc1[n-]c(=O)n(CCOc2ccc(CN(CCC3CC3)c3ccc(OCCn4c([O-])coc4=O)c(C)c3)cc2)c1O (protonated)
CC(=O)[N-]CCCCc1[n-]c(=O)n(CCOc2ccc(CN(CCC3CC3)c3ccc(OCCn4c([O-])coc4=O)c(C)c3)cc2)c1O (3D coordinates assigned)
CC(=O)[N-]CCCCc1[n-]c(=O)n(CCOc2ccc(CN(CCC3CC3)c3ccc(OCCn4c([O-])coc4=O)c(C)c3)cc2)c1O (nonaromatic ring conformer: 410.24835037944996 kcal/mol)

>  <smiles>  (21) 
CC(=O)NCCCCc1[nH]c(=O)n(CCOc2ccc(CN(CCC3CC3)c3ccc(OCCn4c(O)coc4=O)c(C)c3)cc2)c1O

>  <score_type>  (21) 
oracle

>  <origin>  (21) 
adg

>  <m_score__min__energy>  (21) 
-17.239999999999998

>  <m_primary>  (21) 
energy

$$$$
21:0
     RDKit          3D

 38 40  0  0  0  0  0  0  0  0999 V2000
   55.8460   30.5080   45.2450 H   0  0  0  0  0  0  0  0  0  0  0  0
   56.3290   31.2150   44.7080 O   0  0  0  0  0  0  0  0  0  0  0  0
   57.3490   32.0070   45.2370 C   0  0  0  0  0  0  0  0  0  0  0  0
   57.4190   33.3470   44.8370 C   0  0  0  0  0  0  0  0  0  0  0  0
   56.7239   33.7253   44.0730 H   0  0  0  0  0  0  0  0  0  0  0  0
   58.3640   34.2070   45.4000 C   0  0  0  0  0  0  0  0  0  0  0  0
   58.4050   35.2593   45.0821 H   0  0  0  0  0  0  0  0  0  0  0  0
   59.2610   33.7350   46.3690 C   0  0  0  0  0  0  0  0  0  0  0  0
   60.2420   34.6740   47.0170 C   0  0  0  0  0  0  0  0  0  0  0  0
   60.5433   35.4431   46.2906 H   0  0  0  0  0  0  0  0  0  0  0  0
   59.7651   35.1472   47.8880 H   0  0  0  0  0  0  0  0  0  0  0  0
   61.4600   33.9170   47.4740 C   0  0  0  0  0  0  0  0  0  0  0  0
   61.5570   33.4670   48.8010 C   0  0  0  0  0  0  0  0  0  0  0  0
   60.7275   33.6429   49.5017 H   0  0  0  0  0  0  0  0  0  0  0  0
   62.7050   32.7960   49.2340 C   0  0  0  0  0  0  0  0  0  0  0  0
   62.7736   32.4384   50.2720 H   0  0  0  0  0  0  0  0  0  0  0  0
   63.7660   32.5790   48.3490 C   0  0  0  0  0  0  0  0  0  0  0  0
   64.6680   32.0502   48.6907 H   0  0  0  0  0  0  0  0  0  0  0  0
   63.6800   33.0340   47.0310 C   0  0  0  0  0  0  0  0  0  0  0  0
   64.5151   32.8634   46.3357 H   0  0  0  0  0  0  0  0  0  0  0  0
   62.5340   33.7060   46.5940 C   0  0  0  0  0  0  0  0  0  0  0  0
   62.4736   34.0704   45.5579 H   0  0  0  0  0  0  0  0  0  0  0  0
   59.2000   32.3900   46.7660 C   0  0  0  0  0  0  0  0  0  0  0  0
   59.8845   32.0214   47.5442 H   0  0  0  0  0  0  0  0  0  0  0  0
   58.2780   31.5120   46.1830 C   0  0  0  0  0  0  0  0  0  0  0  0
   58.3010   30.1370   46.5920 N   0  0  0  0  0  0  0  0  0  0  0  0
   58.3810   29.1420   45.7650 C   0  0  0  0  0  0  0  0  0  0  0  0
   59.1136   29.1724   44.9450 H   0  0  0  0  0  0  0  0  0  0  0  0
   57.5020   27.9740   45.9130 C   0  0  0  0  0  0  0  0  0  0  0  0
   56.1540   27.9130   45.6200 C   0  0  0  0  0  0  0  0  0  0  0  0
   55.3980   28.9700   45.1270 O   0  0  0  0  0  0  0  0  0  0  0  0
   55.6380   26.6910   45.8700 N   0  0  0  0  0  0  0  0  0  0  0  0
   56.6720   25.9570   46.3310 C   0  0  0  0  0  0  0  0  0  0  0  0
   56.5390   24.5500   46.7250 C   0  0  0  0  0  0  0  0  0  0  0  0
   57.4057   23.8783   46.6377 H   0  0  0  0  0  0  0  0  0  0  0  0
   55.4460   24.1000   47.1620 O   0  0  0  0  0  0  0  0  0  0  0  0
   57.8280   26.7150   46.3690 C   0  0  0  0  0  0  0  0  0  0  0  0
   59.0820   26.2880   46.7880 O   0  0  0  0  0  0  0  0  0  0  0  0
  1  2  1  0
  2  3  1  0
  3  4  2  0
  4  5  1  0
  4  6  1  0
  6  7  1  0
  6  8  2  0
  8  9  1  0
  9 10  1  0
  9 11  1  0
  9 12  1  0
 12 13  2  0
 13 14  1  0
 13 15  1  0
 15 16  1  0
 15 17  2  0
 17 18  1  0
 17 19  1  0
 19 20  1  0
 19 21  2  0
 21 22  1  0
  8 23  1  0
 23 24  1  0
 23 25  2  0
 25 26  1  0
 26 27  2  0
 27 28  1  0
 27 29  1  0
 29 30  2  0
 30 31  1  0
 30 32  1  0
 32 33  1  0
 33 34  1  0
 34 35  1  0
 34 36  2  0
 33 37  2  0
 37 38  1  0
 25  3  1  0
 37 29  1  0
 21 12  1  0
M  CHG  3  31  -1  32  -1  38  -1
M  END
>  <UniqueID>  (22) 
21

>  <SMILES>  (22) 
O=Cc1[n-]c([O-])c(/C=N/c2cc(Cc3ccccc3)ccc2O)c1[O-]

>  <Energy>  (22) 
72.63548087198406

>  <Genealogy>  (22) 
O=Cc1[n-]c([O-])c(C=Nc2cc(Cc3ccccc3)ccc2O)c1[O-] (protonated)
O=Cc1[n-]c([O-])c(/C=N/c2cc(Cc3ccccc3)ccc2O)c1[O-] (cis-trans isomerization)
O=Cc1[n-]c([O-])c(/C=N/c2cc(Cc3ccccc3)ccc2O)c1[O-] (3D coordinates assigned)
O=Cc1[n-]c([O-])c(/C=N/c2cc(Cc3ccccc3)ccc2O)c1[O-] (optimized conformer: 72.63548087198406 kcal/mol)

>  <smiles>  (22) 
O=Cc1[nH]c(O)c(C=Nc2cc(Cc3ccccc3)ccc2O)c1O

>  <score_type>  (22) 
oracle

>  <origin>  (22) 
adg

>  <m_score__min__energy>  (22) 
-15.4

>  <m_primary>  (22) 
energy

$$$$
22:0
     RDKit          3D

 42 44  0  0  0  0  0  0  0  0999 V2000
   55.0670   29.3020   44.6200 O   0  0  0  0  0  0  0  0  0  0  0  0
   56.3170   29.4660   44.5720 C   0  0  0  0  0  0  0  0  0  0  0  0
   57.2300   28.3140   44.2750 C   0  0  0  0  0  0  0  0  0  0  0  0
   57.4430   27.4320   45.4690 C   0  0  0  0  0  0  0  0  0  0  0  0
   58.6350   27.2230   46.0550 N   0  0  0  0  0  0  0  0  0  0  0  0
   58.3340   26.3990   47.0820 C   0  0  0  0  0  0  0  0  0  0  0  0
   59.2050   25.9710   47.8850 O   0  0  0  0  0  0  0  0  0  0  0  0
   57.0280   26.0750   47.1870 N   0  0  0  0  0  0  0  0  0  0  0  0
   56.4770   26.7360   46.1560 C   0  0  0  0  0  0  0  0  0  0  0  0
   55.1230   26.7030   45.8420 O   0  0  0  0  0  0  0  0  0  0  0  0
   56.8910   30.7320   44.9080 N   0  0  0  0  0  0  0  0  0  0  0  0
   58.3470   30.8950   45.8300 S   0  0  0  0  0  0  0  0  0  0  0  0
   59.4520   30.1750   45.1090 O   0  0  0  0  0  0  0  0  0  0  0  0
   58.1400   30.2620   47.1760 O   0  0  0  0  0  0  0  0  0  0  0  0
   58.7760   32.5920   46.0660 C   0  0  0  0  0  0  0  0  0  0  0  0
   58.7700   33.4750   44.9740 C   0  0  0  0  0  0  0  0  0  0  0  0
   59.1250   34.8130   45.1470 C   0  0  0  0  0  0  0  0  0  0  0  0
   59.4780   35.2850   46.4130 C   0  0  0  0  0  0  0  0  0  0  0  0
   59.4640   34.4230   47.5100 C   0  0  0  0  0  0  0  0  0  0  0  0
   59.1040   33.0700   47.3510 C   0  0  0  0  0  0  0  0  0  0  0  0
   59.0440   32.1790   48.4370 O   0  0  0  0  0  0  0  0  0  0  0  0
   60.1570   31.4950   49.0130 C   0  0  0  0  0  0  0  0  0  0  0  0
   61.4520   32.1480   48.6120 C   0  0  0  0  0  0  0  0  0  0  0  0
   62.1650   31.6930   47.4900 C   0  0  0  0  0  0  0  0  0  0  0  0
   63.3530   32.3240   47.1080 C   0  0  0  0  0  0  0  0  0  0  0  0
   63.8320   33.4170   47.8370 C   0  0  0  0  0  0  0  0  0  0  0  0
   63.1230   33.8810   48.9490 C   0  0  0  0  0  0  0  0  0  0  0  0
   61.9350   33.2510   49.3350 C   0  0  0  0  0  0  0  0  0  0  0  0
   56.7892   27.7131   43.4659 H   0  0  0  0  0  0  0  0  0  0  0  0
   58.2072   28.7265   43.9836 H   0  0  0  0  0  0  0  0  0  0  0  0
   54.7790   27.1410   44.9970 H   0  0  0  0  0  0  0  0  0  0  0  0
   58.4838   33.1096   43.9767 H   0  0  0  0  0  0  0  0  0  0  0  0
   59.1269   35.4968   44.2854 H   0  0  0  0  0  0  0  0  0  0  0  0
   59.7675   36.3379   46.5455 H   0  0  0  0  0  0  0  0  0  0  0  0
   59.7359   34.8023   48.5061 H   0  0  0  0  0  0  0  0  0  0  0  0
   60.0661   31.5175   50.1090 H   0  0  0  0  0  0  0  0  0  0  0  0
   60.1588   30.4567   48.6499 H   0  0  0  0  0  0  0  0  0  0  0  0
   61.7875   30.8378   46.9103 H   0  0  0  0  0  0  0  0  0  0  0  0
   63.9115   31.9601   46.2329 H   0  0  0  0  0  0  0  0  0  0  0  0
   64.7670   33.9119   47.5354 H   0  0  0  0  0  0  0  0  0  0  0  0
   63.4995   34.7420   49.5208 H   0  0  0  0  0  0  0  0  0  0  0  0
   61.3772   33.6209   50.2079 H   0  0  0  0  0  0  0  0  0  0  0  0
  1  2  2  0
  2  3  1  0
  3  4  1  0
  4  5  1  0
  5  6  1  0
  6  7  2  0
  6  8  1  0
  8  9  1  0
  9 10  1  0
  2 11  1  0
 11 12  1  0
 12 13  2  0
 12 14  2  0
 12 15  1  0
 15 16  2  0
 16 17  1  0
 17 18  2  0
 18 19  1  0
 19 20  2  0
 20 21  1  0
 21 22  1  0
 22 23  1  0
 23 24  2  0
 24 25  1  0
 25 26  2  0
 26 27  1  0
 27 28  2  0
  9  4  2  0
 20 15  1  0
 28 23  1  0
  3 29  1  0
  3 30  1  0
 10 31  1  0
 16 32  1  0
 17 33  1  0
 18 34  1  0
 19 35  1  0
 22 36  1  0
 22 37  1  0
 24 38  1  0
 25 39  1  0
 26 40  1  0
 27 41  1  0
 28 42  1  0
M  CHG  3   5  -1   8  -1  11  -1
M  END
>  <UniqueID>  (23) 
22

>  <SMILES>  (23) 
O=C(Cc1[n-]c(=O)[n-]c1O)[N-]S(=O)(=O)c1ccccc1OCc1ccccc1

>  <Energy>  (23) 
74.68066664155761

>  <Genealogy>  (23) 
O=C(Cc1[n-]c(=O)[n-]c1O)[N-]S(=O)(=O)c1ccccc1OCc1ccccc1 (protonated)
O=C(Cc1[n-]c(=O)[n-]c1O)[N-]S(=O)(=O)c1ccccc1OCc1ccccc1 (3D coordinates assigned)
O=C(Cc1[n-]c(=O)[n-]c1O)[N-]S(=O)(=O)c1ccccc1OCc1ccccc1 (optimized conformer: 74.68066664155761 kcal/mol)

>  <smiles>  (23) 
O=C(Cc1[nH]c(=O)[nH]c1O)NS(=O)(=O)c1ccccc1OCc1ccccc1

>  <score_type>  (23) 
oracle

>  <origin>  (23) 
adg

>  <m_score__min__energy>  (23) 
-14.390000000000001

>  <m_primary>  (23) 
energy

$$$$
23:0
     RDKit          3D

 57 60  0  0  0  0  0  0  0  0999 V2000
   56.1590   31.4440   51.6350 C   0  0  0  0  0  0  0  0  0  0  0  0
   55.4530   30.4490   52.1920 C   0  0  0  0  0  0  0  0  0  0  0  0
   54.0830   30.2100   52.0380 C   0  0  0  0  0  0  0  0  0  0  0  0
   53.2000   30.9500   51.3390 C   0  0  0  0  0  0  0  0  0  0  0  0
   51.9810   31.5480   51.9180 C   0  0  0  0  0  0  0  0  0  0  0  0
   51.6790   31.4840   53.2290 N   0  0  0  0  0  0  0  0  0  0  0  0
   50.5480   32.2160   53.3270 C   0  0  0  0  0  0  0  0  0  0  0  0
   49.9420   32.3860   54.4200 O   0  0  0  0  0  0  0  0  0  0  0  0
   50.1240   32.7630   52.1660 N   0  0  0  0  0  0  0  0  0  0  0  0
   51.0480   32.3410   51.2850 C   0  0  0  0  0  0  0  0  0  0  0  0
   51.0620   32.7160   49.9460 O   0  0  0  0  0  0  0  0  0  0  0  0
   53.7960   29.0860   52.8070 C   0  0  0  0  0  0  0  0  0  0  0  0
   54.9840   28.6890   53.3870 C   0  0  0  0  0  0  0  0  0  0  0  0
   55.1550   27.4770   54.2510 C   0  0  0  0  0  0  0  0  0  0  0  0
   55.9870   29.5120   53.0120 N   0  0  0  0  0  0  0  0  0  0  0  0
   57.3480   29.4290   53.4630 C   0  0  0  0  0  0  0  0  0  0  0  0
   57.6820   29.7900   54.7740 C   0  0  0  0  0  0  0  0  0  0  0  0
   59.0060   29.6930   55.2110 C   0  0  0  0  0  0  0  0  0  0  0  0
   59.9990   29.2300   54.3420 C   0  0  0  0  0  0  0  0  0  0  0  0
   59.6780   28.8550   53.0300 C   0  0  0  0  0  0  0  0  0  0  0  0
   60.7040   28.3690   52.2030 O   0  0  0  0  0  0  0  0  0  0  0  0
   61.5550   27.2650   52.5130 C   0  0  0  0  0  0  0  0  0  0  0  0
   61.7460   26.3630   51.3210 C   0  0  0  0  0  0  0  0  0  0  0  0
   62.7770   25.6430   51.2480 O   0  0  0  0  0  0  0  0  0  0  0  0
   60.7440   26.2350   50.3030 N   0  0  0  0  0  0  0  0  0  0  0  0
   60.3970   27.2670   49.3260 C   0  0  0  0  0  0  0  0  0  0  0  0
   60.6180   26.7660   47.8890 C   0  0  0  0  0  0  0  0  0  0  0  0
   59.6880   27.4500   46.9170 C   0  0  0  0  0  0  0  0  0  0  0  0
   60.1070   28.5990   46.2230 C   0  0  0  0  0  0  0  0  0  0  0  0
   59.2320   29.2560   45.3500 C   0  0  0  0  0  0  0  0  0  0  0  0
   57.9280   28.7840   45.1750 C   0  0  0  0  0  0  0  0  0  0  0  0
   57.4930   27.6500   45.8720 C   0  0  0  0  0  0  0  0  0  0  0  0
   56.1800   27.2120   45.7150 O   0  0  0  0  0  0  0  0  0  0  0  0
   58.3770   26.9760   46.7310 C   0  0  0  0  0  0  0  0  0  0  0  0
   58.3450   28.9680   52.5930 C   0  0  0  0  0  0  0  0  0  0  0  0
   57.2380   31.5296   51.8312 H   0  0  0  0  0  0  0  0  0  0  0  0
   55.6591   32.1745   50.9820 H   0  0  0  0  0  0  0  0  0  0  0  0
   53.4001   31.1189   50.2706 H   0  0  0  0  0  0  0  0  0  0  0  0
   52.8133   28.6070   52.9289 H   0  0  0  0  0  0  0  0  0  0  0  0
   55.1133   27.7726   55.3097 H   0  0  0  0  0  0  0  0  0  0  0  0
   54.3493   26.7588   54.0388 H   0  0  0  0  0  0  0  0  0  0  0  0
   56.1280   27.0098   54.0388 H   0  0  0  0  0  0  0  0  0  0  0  0
   56.9017   30.1502   55.4605 H   0  0  0  0  0  0  0  0  0  0  0  0
   59.2673   29.9812   56.2399 H   0  0  0  0  0  0  0  0  0  0  0  0
   61.0399   29.1595   54.6906 H   0  0  0  0  0  0  0  0  0  0  0  0
   62.5355   27.6481   52.8321 H   0  0  0  0  0  0  0  0  0  0  0  0
   61.0828   26.6802   53.3161 H   0  0  0  0  0  0  0  0  0  0  0  0
   59.3390   27.5402   49.4525 H   0  0  0  0  0  0  0  0  0  0  0  0
   61.0447   28.1399   49.4950 H   0  0  0  0  0  0  0  0  0  0  0  0
   61.6577   26.9718   47.5944 H   0  0  0  0  0  0  0  0  0  0  0  0
   60.4110   25.6860   47.8638 H   0  0  0  0  0  0  0  0  0  0  0  0
   61.1275   28.9835   46.3669 H   0  0  0  0  0  0  0  0  0  0  0  0
   59.5715   30.1462   44.8002 H   0  0  0  0  0  0  0  0  0  0  0  0
   57.2429   29.3038   44.4891 H   0  0  0  0  0  0  0  0  0  0  0  0
   55.8850   26.7270   44.8730 H   0  0  0  0  0  0  0  0  0  0  0  0
   58.0419   26.0723   47.2612 H   0  0  0  0  0  0  0  0  0  0  0  0
   58.0838   28.6923   51.5606 H   0  0  0  0  0  0  0  0  0  0  0  0
  1  2  2  0
  2  3  1  0
  3  4  2  3
  4  5  1  0
  5  6  1  0
  6  7  1  0
  7  8  2  0
  7  9  1  0
  9 10  1  0
 10 11  1  0
  3 12  1  0
 12 13  2  0
 13 14  1  0
 13 15  1  0
 15 16  1  0
 16 17  2  0
 17 18  1  0
 18 19  2  0
 19 20  1  0
 20 21  1  0
 21 22  1  0
 22 23  1  0
 23 24  2  0
 23 25  1  0
 25 26  1  0
 26 27  1  0
 27 28  1  0
 28 29  2  0
 29 30  1  0
 30 31  2  0
 31 32  1  0
 32 33  1  0
 32 34  2  0
 20 35  2  0
 15  2  1  0
 35 16  1  0
 10  5  2  0
 34 28  1  0
  1 36  1  0
  1 37  1  0
  4 38  1  0
 12 39  1  0
 14 40  1  0
 14 41  1  0
 14 42  1  0
 17 43  1  0
 18 44  1  0
 19 45  1  0
 22 46  1  0
 22 47  1  0
 26 48  1  0
 26 49  1  0
 27 50  1  0
 27 51  1  0
 29 52  1  0
 30 53  1  0
 31 54  1  0
 33 55  1  0
 34 56  1  0
 35 57  1  0
M  CHG  4   6  -1   9  -1  11  -1  25  -1
M  END
>  <UniqueID>  (24) 
23

>  <SMILES>  (24) 
C=c1c(=Cc2[n-]c(=O)[n-]c2[O-])cc(C)n1-c1cccc(OCC(=O)[N-]CCc2cccc(O)c2)c1

>  <Energy>  (24) 
125.89045763867465

>  <Genealogy>  (24) 
C=c1c(=Cc2[n-]c(=O)[n-]c2[O-])cc(C)n1-c1cccc(OCC(=O)[N-]CCc2cccc(O)c2)c1 (protonated)
C=c1c(=Cc2[n-]c(=O)[n-]c2[O-])cc(C)n1-c1cccc(OCC(=O)[N-]CCc2cccc(O)c2)c1 (3D coordinates assigned)
C=c1c(=Cc2[n-]c(=O)[n-]c2[O-])cc(C)n1-c1cccc(OCC(=O)[N-]CCc2cccc(O)c2)c1 (optimized conformer: 125.89045763867465 kcal/mol)

>  <smiles>  (24) 
C=c1c(=Cc2[nH]c(=O)[nH]c2O)cc(C)n1-c1cccc(OCC(=O)NCCc2cccc(O)c2)c1

>  <score_type>  (24) 
oracle

>  <origin>  (24) 
adg

>  <m_score__min__energy>  (24) 
-19.18

>  <m_primary>  (24) 
energy

$$$$
24:0
     RDKit          3D

 35 37  0  0  0  0  0  0  0  0999 V2000
   51.0240   32.7150   51.2090 O   0  0  0  0  0  0  0  0  0  0  0  0
   51.7070   31.6380   51.7610 C   0  0  0  0  0  0  0  0  0  0  0  0
   51.0260   30.7150   52.5590 C   0  0  0  0  0  0  0  0  0  0  0  0
   51.7120   29.6310   53.1130 C   0  0  0  0  0  0  0  0  0  0  0  0
   53.0790   29.4690   52.8700 C   0  0  0  0  0  0  0  0  0  0  0  0
   53.7740   30.3880   52.0730 C   0  0  0  0  0  0  0  0  0  0  0  0
   55.1470   30.1790   51.8630 O   0  0  0  0  0  0  0  0  0  0  0  0
   56.1970   30.9130   52.4930 C   0  0  0  0  0  0  0  0  0  0  0  0
   57.3180   31.1540   51.5340 C   0  0  0  0  0  0  0  0  0  0  0  0
   57.9830   32.3420   51.3240 C   0  0  0  0  0  0  0  0  0  0  0  0
   58.8810   32.0950   50.3550 N   0  0  0  0  0  0  0  0  0  0  0  0
   59.7800   33.0600   49.7340 C   0  0  0  0  0  0  0  0  0  0  0  0
   59.2340   33.4790   48.3970 C   0  0  0  0  0  0  0  0  0  0  0  0
   59.7820   34.5840   47.7240 C   0  0  0  0  0  0  0  0  0  0  0  0
   59.3000   34.9480   46.4630 C   0  0  0  0  0  0  0  0  0  0  0  0
   58.2790   34.2070   45.8620 C   0  0  0  0  0  0  0  0  0  0  0  0
   57.7410   33.0980   46.5190 C   0  0  0  0  0  0  0  0  0  0  0  0
   58.2190   32.7300   47.7800 C   0  0  0  0  0  0  0  0  0  0  0  0
   58.7550   30.8330   49.9730 N   0  0  0  0  0  0  0  0  0  0  0  0
   57.8080   30.2320   50.6810 N   0  0  0  0  0  0  0  0  0  0  0  0
   53.0750   31.4780   51.5140 C   0  0  0  0  0  0  0  0  0  0  0  0
   49.9503   30.8417   52.7510 H   0  0  0  0  0  0  0  0  0  0  0  0
   51.1757   28.9044   53.7410 H   0  0  0  0  0  0  0  0  0  0  0  0
   53.6133   28.6131   53.3081 H   0  0  0  0  0  0  0  0  0  0  0  0
   55.8043   31.8799   52.8407 H   0  0  0  0  0  0  0  0  0  0  0  0
   56.5772   30.3291   53.3441 H   0  0  0  0  0  0  0  0  0  0  0  0
   57.8138   33.2970   51.8430 H   0  0  0  0  0  0  0  0  0  0  0  0
   59.8727   33.9430   50.3834 H   0  0  0  0  0  0  0  0  0  0  0  0
   60.7680   32.5973   49.5936 H   0  0  0  0  0  0  0  0  0  0  0  0
   60.5921   35.1640   48.1902 H   0  0  0  0  0  0  0  0  0  0  0  0
   59.7252   35.8192   45.9431 H   0  0  0  0  0  0  0  0  0  0  0  0
   57.8989   34.4971   44.8714 H   0  0  0  0  0  0  0  0  0  0  0  0
   56.9399   32.5133   46.0433 H   0  0  0  0  0  0  0  0  0  0  0  0
   57.7988   31.8510   48.2906 H   0  0  0  0  0  0  0  0  0  0  0  0
   53.6068   32.2045   50.8820 H   0  0  0  0  0  0  0  0  0  0  0  0
  1  2  1  0
  2  3  2  0
  3  4  1  0
  4  5  2  0
  5  6  1  0
  6  7  1  0
  7  8  1  0
  8  9  1  0
  9 10  2  0
 10 11  1  0
 11 12  1  0
 12 13  1  0
 13 14  2  0
 14 15  1  0
 15 16  2  0
 16 17  1  0
 17 18  2  0
 11 19  1  0
 19 20  2  0
  6 21  2  0
 21  2  1  0
 20  9  1  0
 18 13  1  0
  3 22  1  0
  4 23  1  0
  5 24  1  0
  8 25  1  0
  8 26  1  0
 10 27  1  0
 12 28  1  0
 12 29  1  0
 14 30  1  0
 15 31  1  0
 16 32  1  0
 17 33  1  0
 18 34  1  0
 21 35  1  0
M  CHG  1   1  -1
M  END
>  <UniqueID>  (25) 
24

>  <SMILES>  (25) 
[O-]c1cccc(OCc2cn(Cc3ccccc3)nn2)c1

>  <Energy>  (25) 
70.05241088926923

>  <Genealogy>  (25) 
[O-]c1cccc(OCc2cn(Cc3ccccc3)nn2)c1 (protonated)
[O-]c1cccc(OCc2cn(Cc3ccccc3)nn2)c1 (3D coordinates assigned)
[O-]c1cccc(OCc2cn(Cc3ccccc3)nn2)c1 (optimized conformer: 70.05241088926923 kcal/mol)

>  <smiles>  (25) 
Oc1cccc(OCc2cn(Cc3ccccc3)nn2)c1

>  <score_type>  (25) 
oracle

>  <origin>  (25) 
adg

>  <m_score__min__energy>  (25) 
-11.93

>  <m_primary>  (25) 
energy

$$$$
25:0
     RDKit          3D

 50 52  0  0  0  0  0  0  0  0999 V2000
   57.0900   31.4140   42.0840 O   0  0  0  0  0  0  0  0  0  0  0  0
   57.0360   30.9590   43.2600 C   0  0  0  0  0  0  0  0  0  0  0  0
   56.4650   29.5780   43.4600 C   0  0  0  0  0  0  0  0  0  0  0  0
   57.4210   28.5540   43.0140 N   0  0  0  0  0  0  0  0  0  0  0  0
   58.1980   28.0830   44.1340 C   0  0  0  0  0  0  0  0  0  0  0  0
   59.3890   28.7320   44.4920 C   0  0  0  0  0  0  0  0  0  0  0  0
   60.1240   28.2970   45.5950 C   0  0  0  0  0  0  0  0  0  0  0  0
   59.6810   27.2140   46.3610 C   0  0  0  0  0  0  0  0  0  0  0  0
   60.6620   26.7230   47.7400 Cl  0  0  0  0  0  0  0  0  0  0  0  0
   58.4780   26.5540   46.0260 C   0  0  0  0  0  0  0  0  0  0  0  0
   57.9810   25.3870   46.8530 C   0  0  0  0  0  0  0  0  0  0  0  0
   58.6350   24.2310   46.4670 F   0  0  0  0  0  0  0  0  0  0  0  0
   58.2060   25.5810   48.2060 F   0  0  0  0  0  0  0  0  0  0  0  0
   56.6200   25.2270   46.6600 F   0  0  0  0  0  0  0  0  0  0  0  0
   57.7430   27.0040   44.9110 C   0  0  0  0  0  0  0  0  0  0  0  0
   57.5390   31.7490   44.3600 N   0  0  0  0  0  0  0  0  0  0  0  0
   57.8900   33.1600   44.1460 C   0  0  0  0  0  0  0  0  0  0  0  0
   57.6340   33.9600   45.4300 C   0  0  0  0  0  0  0  0  0  0  0  0
   58.3320   33.4080   46.6160 N   0  0  0  0  0  0  0  0  0  0  0  0
   59.6860   34.4100   47.0840 S   0  0  0  0  0  0  0  0  0  0  0  0
   59.3680   35.1130   48.3760 O   0  0  0  0  0  0  0  0  0  0  0  0
   59.9170   35.4580   46.0310 O   0  0  0  0  0  0  0  0  0  0  0  0
   61.1570   33.4540   47.2890 C   0  0  0  0  0  0  0  0  0  0  0  0
   61.1690   32.3560   48.1630 C   0  0  0  0  0  0  0  0  0  0  0  0
   62.3390   31.6090   48.3380 C   0  0  0  0  0  0  0  0  0  0  0  0
   63.4990   31.9530   47.6380 C   0  0  0  0  0  0  0  0  0  0  0  0
   63.4900   33.0410   46.7600 C   0  0  0  0  0  0  0  0  0  0  0  0
   62.3220   33.7880   46.5840 C   0  0  0  0  0  0  0  0  0  0  0  0
   58.7620   32.0000   46.4880 C   0  0  0  0  0  0  0  0  0  0  0  0
   57.7560   31.1630   45.6910 C   0  0  0  0  0  0  0  0  0  0  0  0
   56.2464   29.4282   44.5276 H   0  0  0  0  0  0  0  0  0  0  0  0
   55.5434   29.4856   42.8666 H   0  0  0  0  0  0  0  0  0  0  0  0
   58.0610   28.9500   42.2850 H   0  0  0  0  0  0  0  0  0  0  0  0
   56.9030   27.7550   42.5800 H   0  0  0  0  0  0  0  0  0  0  0  0
   59.7451   29.5881   43.9001 H   0  0  0  0  0  0  0  0  0  0  0  0
   61.0592   28.8097   45.8643 H   0  0  0  0  0  0  0  0  0  0  0  0
   56.8001   26.5038   44.6452 H   0  0  0  0  0  0  0  0  0  0  0  0
   58.9535   33.2347   43.8752 H   0  0  0  0  0  0  0  0  0  0  0  0
   57.2710   33.5690   43.3339 H   0  0  0  0  0  0  0  0  0  0  0  0
   57.9782   34.9927   45.2720 H   0  0  0  0  0  0  0  0  0  0  0  0
   56.5545   33.9087   45.6351 H   0  0  0  0  0  0  0  0  0  0  0  0
   60.2560   32.0819   48.7120 H   0  0  0  0  0  0  0  0  0  0  0  0
   62.3460   30.7511   49.0264 H   0  0  0  0  0  0  0  0  0  0  0  0
   64.4195   31.3673   47.7780 H   0  0  0  0  0  0  0  0  0  0  0  0
   64.4026   33.3092   46.2075 H   0  0  0  0  0  0  0  0  0  0  0  0
   62.3167   34.6412   45.8897 H   0  0  0  0  0  0  0  0  0  0  0  0
   59.7342   31.9709   45.9743 H   0  0  0  0  0  0  0  0  0  0  0  0
   58.8335   31.5732   47.4993 H   0  0  0  0  0  0  0  0  0  0  0  0
   58.1453   30.1405   45.5773 H   0  0  0  0  0  0  0  0  0  0  0  0
   56.7988   31.1461   46.2328 H   0  0  0  0  0  0  0  0  0  0  0  0
  1  2  2  0
  2  3  1  0
  3  4  1  0
  4  5  1  0
  5  6  2  0
  6  7  1  0
  7  8  2  0
  8  9  1  0
  8 10  1  0
 10 11  1  0
 11 12  1  0
 11 13  1  0
 11 14  1  0
 10 15  2  0
  2 16  1  0
 16 17  1  0
 17 18  1  0
 18 19  1  0
 19 20  1  0
 20 21  2  0
 20 22  2  0
 20 23  1  0
 23 24  2  0
 24 25  1  0
 25 26  2  0
 26 27  1  0
 27 28  2  0
 19 29  1  0
 29 30  1  0
 15  5  1  0
 30 16  1  0
 28 23  1  0
  3 31  1  0
  3 32  1  0
  4 33  1  0
  4 34  1  0
  6 35  1  0
  7 36  1  0
 15 37  1  0
 17 38  1  0
 17 39  1  0
 18 40  1  0
 18 41  1  0
 24 42  1  0
 25 43  1  0
 26 44  1  0
 27 45  1  0
 28 46  1  0
 29 47  1  0
 29 48  1  0
 30 49  1  0
 30 50  1  0
M  CHG  1   4   1
M  END
>  <UniqueID>  (26) 
25

>  <SMILES>  (26) 
O=C(C[NH2+]c1ccc(Cl)c(C(F)(F)F)c1)N1CCN(S(=O)(=O)c2ccccc2)CC1

>  <Energy>  (26) 
58.662969865035684

>  <Genealogy>  (26) 
O=C(C[NH2+]c1ccc(Cl)c(C(F)(F)F)c1)N1CCN(S(=O)(=O)c2ccccc2)CC1 (protonated)
O=C(C[NH2+]c1ccc(Cl)c(C(F)(F)F)c1)N1CCN(S(=O)(=O)c2ccccc2)CC1 (3D coordinates assigned)
O=C(C[NH2+]c1ccc(Cl)c(C(F)(F)F)c1)N1CCN(S(=O)(=O)c2ccccc2)CC1 (nonaromatic ring conformer: 58.662969865035684 kcal/mol)

>  <smiles>  (26) 
O=C(CNc1ccc(Cl)c(C(F)(F)F)c1)N1CCN(S(=O)(=O)c2ccccc2)CC1

>  <score_type>  (26) 
oracle

>  <origin>  (26) 
adg

>  <m_score__min__energy>  (26) 
-8.1999999999999993

>  <m_primary>  (26) 
energy

$$$$
26:0
     RDKit          3D

 55 58  0  0  0  0  0  0  0  0999 V2000
   56.4020   21.4350   48.1620 C   0  0  0  0  0  0  0  0  0  0  0  0
   57.3680   22.0790   47.3370 O   0  0  0  0  0  0  0  0  0  0  0  0
   57.1470   22.4530   46.0000 C   0  0  0  0  0  0  0  0  0  0  0  0
   57.4620   21.5940   44.9260 C   0  0  0  0  0  0  0  0  0  0  0  0
   57.2150   21.9860   43.6090 C   0  0  0  0  0  0  0  0  0  0  0  0
   56.6520   23.2350   43.3480 C   0  0  0  0  0  0  0  0  0  0  0  0
   56.3270   24.0940   44.4000 C   0  0  0  0  0  0  0  0  0  0  0  0
   56.5830   23.7180   45.7290 C   0  0  0  0  0  0  0  0  0  0  0  0
   56.2390   24.6670   46.8570 C   0  0  0  0  0  0  0  0  0  0  0  0
   55.9530   26.0710   46.3730 C   0  0  0  0  0  0  0  0  0  0  0  0
   54.8540   26.3400   45.8170 O   0  0  0  0  0  0  0  0  0  0  0  0
   56.9500   27.0970   46.4470 N   0  0  0  0  0  0  0  0  0  0  0  0
   58.3490   26.8760   46.6630 C   0  0  0  0  0  0  0  0  0  0  0  0
   59.0250   25.9750   45.8310 C   0  0  0  0  0  0  0  0  0  0  0  0
   60.3910   25.7470   46.0010 C   0  0  0  0  0  0  0  0  0  0  0  0
   61.0970   26.4320   46.9910 C   0  0  0  0  0  0  0  0  0  0  0  0
   60.4400   27.3590   47.8040 C   0  0  0  0  0  0  0  0  0  0  0  0
   59.0600   27.6030   47.6380 C   0  0  0  0  0  0  0  0  0  0  0  0
   58.3720   28.5600   48.4040 O   0  0  0  0  0  0  0  0  0  0  0  0
   58.8100   29.8970   48.6410 C   0  0  0  0  0  0  0  0  0  0  0  0
   58.6900   30.7260   47.3910 C   0  0  0  0  0  0  0  0  0  0  0  0
   59.0820   32.0630   47.3890 C   0  0  0  0  0  0  0  0  0  0  0  0
   58.9270   32.8160   46.2260 C   0  0  0  0  0  0  0  0  0  0  0  0
   59.2890   34.0290   46.2380 O   0  0  0  0  0  0  0  0  0  0  0  0
   58.3940   32.2480   45.0960 N   0  0  0  0  0  0  0  0  0  0  0  0
   58.2420   33.0010   43.9550 C   0  0  0  0  0  0  0  0  0  0  0  0
   57.6970   32.4490   42.7970 C   0  0  0  0  0  0  0  0  0  0  0  0
   57.3040   31.1150   42.7950 C   0  0  0  0  0  0  0  0  0  0  0  0
   57.4560   30.3270   43.9460 C   0  0  0  0  0  0  0  0  0  0  0  0
   57.0460   28.8770   43.9000 C   0  0  0  0  0  0  0  0  0  0  0  0
   58.0070   30.9180   45.1160 C   0  0  0  0  0  0  0  0  0  0  0  0
   58.1500   30.1850   46.2650 N   0  0  0  0  0  0  0  0  0  0  0  0
   56.6532   21.6024   49.2198 H   0  0  0  0  0  0  0  0  0  0  0  0
   55.4052   21.8499   47.9517 H   0  0  0  0  0  0  0  0  0  0  0  0
   56.4016   20.3553   47.9517 H   0  0  0  0  0  0  0  0  0  0  0  0
   57.9056   20.6079   45.1279 H   0  0  0  0  0  0  0  0  0  0  0  0
   57.4643   21.3101   42.7777 H   0  0  0  0  0  0  0  0  0  0  0  0
   56.4632   23.5447   42.3095 H   0  0  0  0  0  0  0  0  0  0  0  0
   55.8679   25.0706   44.1867 H   0  0  0  0  0  0  0  0  0  0  0  0
   55.3481   24.2861   47.3777 H   0  0  0  0  0  0  0  0  0  0  0  0
   57.1110   24.7177   47.5256 H   0  0  0  0  0  0  0  0  0  0  0  0
   58.4762   25.4442   45.0392 H   0  0  0  0  0  0  0  0  0  0  0  0
   60.9122   25.0263   45.3538 H   0  0  0  0  0  0  0  0  0  0  0  0
   62.1713   26.2419   47.1313 H   0  0  0  0  0  0  0  0  0  0  0  0
   61.0019   27.9020   48.5783 H   0  0  0  0  0  0  0  0  0  0  0  0
   58.1906   30.3449   49.4321 H   0  0  0  0  0  0  0  0  0  0  0  0
   59.8656   29.8736   48.9496 H   0  0  0  0  0  0  0  0  0  0  0  0
   59.5088   32.5191   48.2944 H   0  0  0  0  0  0  0  0  0  0  0  0
   58.5555   34.0554   43.9565 H   0  0  0  0  0  0  0  0  0  0  0  0
   57.5787   33.0634   41.8923 H   0  0  0  0  0  0  0  0  0  0  0  0
   56.8710   30.6745   41.8848 H   0  0  0  0  0  0  0  0  0  0  0  0
   56.9377   28.4939   44.9254 H   0  0  0  0  0  0  0  0  0  0  0  0
   56.0863   28.7839   43.3705 H   0  0  0  0  0  0  0  0  0  0  0  0
   57.8148   28.2952   43.3705 H   0  0  0  0  0  0  0  0  0  0  0  0
   57.8420   29.1860   46.3060 H   0  0  0  0  0  0  0  0  0  0  0  0
  1  2  1  0
  2  3  1  0
  3  4  2  0
  4  5  1  0
  5  6  2  0
  6  7  1  0
  7  8  2  0
  8  9  1  0
  9 10  1  0
 10 11  2  0
 10 12  1  0
 12 13  1  0
 13 14  2  0
 14 15  1  0
 15 16  2  0
 16 17  1  0
 17 18  2  0
 18 19  1  0
 19 20  1  0
 20 21  1  0
 21 22  2  0
 22 23  1  0
 23 24  2  0
 23 25  1  0
 25 26  1  0
 26 27  2  0
 27 28  1  0
 28 29  2  0
 29 30  1  0
 29 31  1  0
 31 32  2  0
  8  3  1  0
 18 13  1  0
 32 21  1  0
 31 25  1  0
  1 33  1  0
  1 34  1  0
  1 35  1  0
  4 36  1  0
  5 37  1  0
  6 38  1  0
  7 39  1  0
  9 40  1  0
  9 41  1  0
 14 42  1  0
 15 43  1  0
 16 44  1  0
 17 45  1  0
 20 46  1  0
 20 47  1  0
 22 48  1  0
 26 49  1  0
 27 50  1  0
 28 51  1  0
 30 52  1  0
 30 53  1  0
 30 54  1  0
 32 55  1  0
M  CHG  2  12  -1  32   1
M  END
>  <UniqueID>  (27) 
26

>  <SMILES>  (27) 
COc1ccccc1CC(=O)[N-]c1ccccc1OCc1cc(=O)n2cccc(C)c2[nH+]1

>  <Energy>  (27) 
72.14929474838995

>  <Genealogy>  (27) 
COc1ccccc1CC(=O)[N-]c1ccccc1OCc1cc(=O)n2cccc(C)c2[nH+]1 (protonated)
COc1ccccc1CC(=O)[N-]c1ccccc1OCc1cc(=O)n2cccc(C)c2[nH+]1 (3D coordinates assigned)
COc1ccccc1CC(=O)[N-]c1ccccc1OCc1cc(=O)n2cccc(C)c2[nH+]1 (optimized conformer: 72.14929474838995 kcal/mol)

>  <smiles>  (27) 
COc1ccccc1CC(=O)Nc1ccccc1OCc1cc(=O)n2cccc(C)c2n1

>  <score_type>  (27) 
oracle

>  <origin>  (27) 
adg

>  <m_score__min__energy>  (27) 
-10.65

>  <m_primary>  (27) 
energy

$$$$
27:0
     RDKit          3D

 35 37  0  0  0  0  0  0  0  0999 V2000
   54.7810   26.3450   46.0100 N   0  0  0  0  0  0  0  0  0  0  0  0
   55.5510   24.8290   45.6970 S   0  0  0  0  0  0  0  0  0  0  0  0
   54.8880   24.1470   44.5330 O   0  0  0  0  0  0  0  0  0  0  0  0
   55.4140   23.9580   46.9130 O   0  0  0  0  0  0  0  0  0  0  0  0
   57.2150   25.0670   45.3750 O   0  0  0  0  0  0  0  0  0  0  0  0
   58.0260   26.0470   45.9650 C   0  0  0  0  0  0  0  0  0  0  0  0
   59.0030   25.7500   46.9350 C   0  0  0  0  0  0  0  0  0  0  0  0
   59.7850   26.7700   47.4860 C   0  0  0  0  0  0  0  0  0  0  0  0
   59.5850   28.1000   47.0920 C   0  0  0  0  0  0  0  0  0  0  0  0
   58.6180   28.4020   46.1260 C   0  0  0  0  0  0  0  0  0  0  0  0
   57.8420   27.3780   45.5670 C   0  0  0  0  0  0  0  0  0  0  0  0
   58.4460   29.8030   45.7100 C   0  0  0  0  0  0  0  0  0  0  0  0
   59.0510   30.7910   46.3990 C   0  0  0  0  0  0  0  0  0  0  0  0
   58.8720   32.2080   45.9790 C   0  0  0  0  0  0  0  0  0  0  0  0
   59.7950   33.1980   46.3680 C   0  0  0  0  0  0  0  0  0  0  0  0
   59.6130   34.5280   45.9750 C   0  0  0  0  0  0  0  0  0  0  0  0
   58.5110   34.8840   45.1960 C   0  0  0  0  0  0  0  0  0  0  0  0
   57.5850   33.9120   44.8090 C   0  0  0  0  0  0  0  0  0  0  0  0
   57.7620   32.5810   45.1990 C   0  0  0  0  0  0  0  0  0  0  0  0
   59.7290   30.4900   47.6480 N   0  0  0  0  0  0  0  0  0  0  0  0
   60.4630   29.2110   47.6050 C   0  0  0  0  0  0  0  0  0  0  0  0
   55.1600   27.0410   45.3300 H   0  0  0  0  0  0  0  0  0  0  0  0
   59.1517   24.7100   47.2610 H   0  0  0  0  0  0  0  0  0  0  0  0
   60.5584   26.5281   48.2299 H   0  0  0  0  0  0  0  0  0  0  0  0
   57.0822   27.6208   44.8096 H   0  0  0  0  0  0  0  0  0  0  0  0
   57.8232   30.0442   44.8360 H   0  0  0  0  0  0  0  0  0  0  0  0
   60.6639   32.9238   46.9843 H   0  0  0  0  0  0  0  0  0  0  0  0
   60.3399   35.2950   46.2805 H   0  0  0  0  0  0  0  0  0  0  0  0
   58.3715   35.9303   44.8866 H   0  0  0  0  0  0  0  0  0  0  0  0
   56.7157   34.1942   44.1968 H   0  0  0  0  0  0  0  0  0  0  0  0
   57.0284   31.8203   44.8939 H   0  0  0  0  0  0  0  0  0  0  0  0
   59.0160   30.4540   48.4140 H   0  0  0  0  0  0  0  0  0  0  0  0
   60.4180   31.2460   47.8670 H   0  0  0  0  0  0  0  0  0  0  0  0
   61.3328   29.3179   46.9401 H   0  0  0  0  0  0  0  0  0  0  0  0
   60.7860   28.9586   48.6258 H   0  0  0  0  0  0  0  0  0  0  0  0
  1  2  1  0
  2  3  2  0
  2  4  2  0
  2  5  1  0
  5  6  1  0
  6  7  2  0
  7  8  1  0
  8  9  2  0
  9 10  1  0
 10 11  2  0
 10 12  1  0
 12 13  2  0
 13 14  1  0
 14 15  2  0
 15 16  1  0
 16 17  2  0
 17 18  1  0
 18 19  2  0
 13 20  1  0
 20 21  1  0
 11  6  1  0
 19 14  1  0
 21  9  1  0
  1 22  1  0
  7 23  1  0
  8 24  1  0
 11 25  1  0
 12 26  1  0
 15 27  1  0
 16 28  1  0
 17 29  1  0
 18 30  1  0
 19 31  1  0
 20 32  1  0
 20 33  1  0
 21 34  1  0
 21 35  1  0
M  CHG  2   1  -1  20   1
M  END
>  <UniqueID>  (28) 
27

>  <SMILES>  (28) 
[NH-]S(=O)(=O)Oc1ccc2c(c1)C=C(c1ccccc1)[NH2+]C2

>  <Energy>  (28) 
44.74625039567329

>  <Genealogy>  (28) 
[NH-]S(=O)(=O)Oc1ccc2c(c1)C=C(c1ccccc1)[NH2+]C2 (protonated)
[NH-]S(=O)(=O)Oc1ccc2c(c1)C=C(c1ccccc1)[NH2+]C2 (3D coordinates assigned)
[NH-]S(=O)(=O)Oc1ccc2c(c1)C=C(c1ccccc1)[NH2+]C2 (nonaromatic ring conformer: 44.74625039567329 kcal/mol)

>  <smiles>  (28) 
NS(=O)(=O)Oc1ccc2c(c1)C=C(c1ccccc1)NC2

>  <score_type>  (28) 
oracle

>  <origin>  (28) 
adg

>  <m_score__min__energy>  (28) 
-8.9100000000000001

>  <m_primary>  (28) 
energy

$$$$
28:0
     RDKit          3D

 55 58  0  0  0  0  0  0  0  0999 V2000
   61.1120   29.6950   46.1030 C   0  0  0  0  0  0  0  0  0  0  0  0
   60.0620   29.5200   45.1570 O   0  0  0  0  0  0  0  0  0  0  0  0
   58.9490   28.6830   45.3460 C   0  0  0  0  0  0  0  0  0  0  0  0
   59.0920   27.2900   45.4960 C   0  0  0  0  0  0  0  0  0  0  0  0
   57.9720   26.4720   45.6560 C   0  0  0  0  0  0  0  0  0  0  0  0
   56.6850   27.0280   45.6610 C   0  0  0  0  0  0  0  0  0  0  0  0
   55.5130   26.2200   45.8520 N   0  0  0  0  0  0  0  0  0  0  0  0
   55.4960   24.8190   46.1590 C   0  0  0  0  0  0  0  0  0  0  0  0
   55.9090   24.4120   47.2750 O   0  0  0  0  0  0  0  0  0  0  0  0
   54.9980   23.9020   45.1730 N   0  0  0  0  0  0  0  0  0  0  0  0
   55.6800   23.0710   44.4360 C   0  0  0  0  0  0  0  0  0  0  0  0
   56.8940   22.4720   44.7360 C   0  0  0  0  0  0  0  0  0  0  0  0
   57.1560   21.7090   43.6170 C   0  0  0  0  0  0  0  0  0  0  0  0
   56.1710   21.8670   42.7590 O   0  0  0  0  0  0  0  0  0  0  0  0
   55.2630   22.6820   43.2180 N   0  0  0  0  0  0  0  0  0  0  0  0
   56.5370   28.4140   45.5480 C   0  0  0  0  0  0  0  0  0  0  0  0
   57.6540   29.2500   45.3720 C   0  0  0  0  0  0  0  0  0  0  0  0
   57.4530   30.7140   45.2310 C   0  0  0  0  0  0  0  0  0  0  0  0
   56.5260   31.1480   44.4950 O   0  0  0  0  0  0  0  0  0  0  0  0
   58.3090   31.6500   45.9140 N   0  0  0  0  0  0  0  0  0  0  0  0
   58.5720   32.9600   45.2980 C   0  0  0  0  0  0  0  0  0  0  0  0
   59.9550   33.4840   45.7050 C   0  0  0  0  0  0  0  0  0  0  0  0
   60.1210   33.4480   47.2350 C   0  0  0  0  0  0  0  0  0  0  0  0
   61.4060   34.0750   47.6370 N   0  0  0  0  0  0  0  0  0  0  0  0
   61.7250   33.9490   49.0670 C   0  0  0  0  0  0  0  0  0  0  0  0
   63.1840   33.5230   49.1780 C   0  0  0  0  0  0  0  0  0  0  0  0
   63.7780   33.8150   47.8190 C   0  0  0  0  0  0  0  0  0  0  0  0
   62.6020   33.7030   46.8680 C   0  0  0  0  0  0  0  0  0  0  0  0
   59.9130   31.9980   47.7470 C   0  0  0  0  0  0  0  0  0  0  0  0
   58.5130   31.5130   47.3640 C   0  0  0  0  0  0  0  0  0  0  0  0
   60.7028   29.6268   47.1218 H   0  0  0  0  0  0  0  0  0  0  0  0
   61.8698   28.9108   45.9590 H   0  0  0  0  0  0  0  0  0  0  0  0
   61.5745   30.6826   45.9590 H   0  0  0  0  0  0  0  0  0  0  0  0
   60.0965   26.8418   45.4870 H   0  0  0  0  0  0  0  0  0  0  0  0
   58.0999   25.3864   45.7787 H   0  0  0  0  0  0  0  0  0  0  0  0
   57.5016   22.5793   45.6466 H   0  0  0  0  0  0  0  0  0  0  0  0
   58.0415   21.0739   43.4669 H   0  0  0  0  0  0  0  0  0  0  0  0
   55.5314   28.8571   45.5975 H   0  0  0  0  0  0  0  0  0  0  0  0
   58.5323   32.8586   44.2034 H   0  0  0  0  0  0  0  0  0  0  0  0
   57.8086   33.6725   45.6438 H   0  0  0  0  0  0  0  0  0  0  0  0
   60.7300   32.8550   45.2427 H   0  0  0  0  0  0  0  0  0  0  0  0
   60.0541   34.5246   45.3626 H   0  0  0  0  0  0  0  0  0  0  0  0
   59.3458   34.0561   47.7241 H   0  0  0  0  0  0  0  0  0  0  0  0
   61.5771   34.9156   49.5709 H   0  0  0  0  0  0  0  0  0  0  0  0
   61.0686   33.2072   49.5453 H   0  0  0  0  0  0  0  0  0  0  0  0
   63.6985   34.1032   49.9582 H   0  0  0  0  0  0  0  0  0  0  0  0
   63.2864   32.4637   49.4562 H   0  0  0  0  0  0  0  0  0  0  0  0
   64.2081   34.8270   47.7903 H   0  0  0  0  0  0  0  0  0  0  0  0
   64.5966   33.1274   47.5601 H   0  0  0  0  0  0  0  0  0  0  0  0
   62.7348   34.3876   46.0173 H   0  0  0  0  0  0  0  0  0  0  0  0
   62.5135   32.6840   46.4634 H   0  0  0  0  0  0  0  0  0  0  0  0
   60.6661   31.3378   47.2921 H   0  0  0  0  0  0  0  0  0  0  0  0
   60.0189   31.9789   48.8417 H   0  0  0  0  0  0  0  0  0  0  0  0
   58.4038   30.4560   47.6484 H   0  0  0  0  0  0  0  0  0  0  0  0
   57.7644   32.1222   47.8917 H   0  0  0  0  0  0  0  0  0  0  0  0
  1  2  1  0
  2  3  1  0
  3  4  2  0
  4  5  1  0
  5  6  2  0
  6  7  1  0
  7  8  1  0
  8  9  2  0
  8 10  1  0
 10 11  2  3
 11 12  1  0
 12 13  2  0
 13 14  1  0
 14 15  1  0
  6 16  1  0
 16 17  2  0
 17 18  1  0
 18 19  2  0
 18 20  1  0
 20 21  1  0
 21 22  1  0
 22 23  1  0
 23 24  1  0
 24 25  1  0
 25 26  1  0
 26 27  1  0
 27 28  1  0
 23 29  1  0
 29 30  1  0
 17  3  1  0
 30 20  1  0
 15 11  1  0
 28 24  1  0
  1 31  1  0
  1 32  1  0
  1 33  1  0
  4 34  1  0
  5 35  1  0
 12 36  1  0
 13 37  1  0
 16 38  1  0
 21 39  1  0
 21 40  1  0
 22 41  1  0
 22 42  1  0
 23 43  1  0
 25 44  1  0
 25 45  1  0
 26 46  1  0
 26 47  1  0
 27 48  1  0
 27 49  1  0
 28 50  1  0
 28 51  1  0
 29 52  1  0
 29 53  1  0
 30 54  1  0
 30 55  1  0
M  CHG  2   7  -1  15  -1
M  END
>  <UniqueID>  (29) 
28

>  <SMILES>  (29) 
COc1ccc([N-]C(=O)N=c2cco[n-]2)cc1C(=O)N1CCC(N2CCCC2)CC1

>  <Energy>  (29) 
105.52132435208742

>  <Genealogy>  (29) 
COc1ccc([N-]C(=O)N=c2cco[n-]2)cc1C(=O)N1CCC(N2CCCC2)CC1 (protonated)
COc1ccc([N-]C(=O)N=c2cco[n-]2)cc1C(=O)N1CCC(N2CCCC2)CC1 (3D coordinates assigned)
COc1ccc([N-]C(=O)N=c2cco[n-]2)cc1C(=O)N1CCC(N2CCCC2)CC1 (nonaromatic ring conformer: 105.52132435208742 kcal/mol)

>  <smiles>  (29) 
COc1ccc(NC(=O)N=c2cco[nH]2)cc1C(=O)N1CCC(N2CCCC2)CC1

>  <score_type>  (29) 
oracle

>  <origin>  (29) 
adg

>  <m_score__min__energy>  (29) 
-12.17

>  <m_primary>  (29) 
energy

$$$$
29:0
     RDKit          3D

 60 63  0  0  0  0  0  0  0  0999 V2000
   55.7920   28.8050   45.1460 N   0  0  0  0  0  0  0  0  0  0  0  0
   57.0110   27.6860   45.6450 S   0  0  0  0  0  0  0  0  0  0  0  0
   57.5420   26.9600   44.4410 O   0  0  0  0  0  0  0  0  0  0  0  0
   56.4150   26.6830   46.5920 O   0  0  0  0  0  0  0  0  0  0  0  0
   58.3100   28.5570   46.4550 C   0  0  0  0  0  0  0  0  0  0  0  0
   59.5410   27.9380   46.7000 C   0  0  0  0  0  0  0  0  0  0  0  0
   60.5670   28.6420   47.3330 C   0  0  0  0  0  0  0  0  0  0  0  0
   60.3780   29.9750   47.7240 C   0  0  0  0  0  0  0  0  0  0  0  0
   61.4710   30.6920   48.3170 N   0  0  0  0  0  0  0  0  0  0  0  0
   61.6430   30.6980   49.7720 C   0  0  0  0  0  0  0  0  0  0  0  0
   63.1120   30.9610   50.1380 C   0  0  0  0  0  0  0  0  0  0  0  0
   63.6720   32.1810   49.4940 N   0  0  0  0  0  0  0  0  0  0  0  0
   63.7110   33.3330   50.4180 C   0  0  0  0  0  0  0  0  0  0  0  0
   62.3230   33.7960   50.7410 C   0  0  0  0  0  0  0  0  0  0  0  0
   61.7270   34.5740   49.9470 O   0  0  0  0  0  0  0  0  0  0  0  0
   61.7330   33.4380   51.9970 N   0  0  0  0  0  0  0  0  0  0  0  0
   60.4130   32.9100   52.2050 C   0  0  0  0  0  0  0  0  0  0  0  0
   59.2800   33.6610   51.8370 C   0  0  0  0  0  0  0  0  0  0  0  0
   57.9970   33.1420   52.0110 C   0  0  0  0  0  0  0  0  0  0  0  0
   57.8260   31.8650   52.5400 C   0  0  0  0  0  0  0  0  0  0  0  0
   58.9370   31.0960   52.8870 C   0  0  0  0  0  0  0  0  0  0  0  0
   60.2430   31.5970   52.7200 C   0  0  0  0  0  0  0  0  0  0  0  0
   61.3940   30.7330   53.0990 C   0  0  0  0  0  0  0  0  0  0  0  0
   62.2570   31.1210   53.9290 O   0  0  0  0  0  0  0  0  0  0  0  0
   61.5340   29.4690   52.5370 O   0  0  0  0  0  0  0  0  0  0  0  0
   63.0360   32.5600   48.2080 C   0  0  0  0  0  0  0  0  0  0  0  0
   62.4620   31.3530   47.4640 C   0  0  0  0  0  0  0  0  0  0  0  0
   59.1420   30.6110   47.4730 C   0  0  0  0  0  0  0  0  0  0  0  0
   58.8940   32.0040   47.9080 C   0  0  0  0  0  0  0  0  0  0  0  0
   58.5670   32.2170   49.1080 O   0  0  0  0  0  0  0  0  0  0  0  0
   59.0080   33.1520   46.9720 C   0  0  0  0  0  0  0  0  0  0  0  0
   59.8780   34.2190   47.2680 C   0  0  0  0  0  0  0  0  0  0  0  0
   60.0010   35.2980   46.3860 C   0  0  0  0  0  0  0  0  0  0  0  0
   59.2640   35.3210   45.1990 C   0  0  0  0  0  0  0  0  0  0  0  0
   58.4070   34.2620   44.8890 C   0  0  0  0  0  0  0  0  0  0  0  0
   58.2820   33.1810   45.7660 C   0  0  0  0  0  0  0  0  0  0  0  0
   58.1150   29.8890   46.8420 C   0  0  0  0  0  0  0  0  0  0  0  0
   55.1580   28.2940   44.4910 H   0  0  0  0  0  0  0  0  0  0  0  0
   59.7006   26.8938   46.3930 H   0  0  0  0  0  0  0  0  0  0  0  0
   61.5303   28.1474   47.5263 H   0  0  0  0  0  0  0  0  0  0  0  0
   61.0141   31.4883   50.2078 H   0  0  0  0  0  0  0  0  0  0  0  0
   61.3471   29.7161   50.1698 H   0  0  0  0  0  0  0  0  0  0  0  0
   63.1839   31.0785   51.2293 H   0  0  0  0  0  0  0  0  0  0  0  0
   63.6964   30.1035   49.7730 H   0  0  0  0  0  0  0  0  0  0  0  0
   64.2181   33.0343   51.3473 H   0  0  0  0  0  0  0  0  0  0  0  0
   64.2568   34.1570   49.9352 H   0  0  0  0  0  0  0  0  0  0  0  0
   59.4079   34.6660   51.4085 H   0  0  0  0  0  0  0  0  0  0  0  0
   57.1190   33.7422   51.7300 H   0  0  0  0  0  0  0  0  0  0  0  0
   56.8128   31.4619   52.6845 H   0  0  0  0  0  0  0  0  0  0  0  0
   58.7914   30.0854   53.2963 H   0  0  0  0  0  0  0  0  0  0  0  0
   62.2206   33.2695   48.4126 H   0  0  0  0  0  0  0  0  0  0  0  0
   63.8109   33.0101   47.5701 H   0  0  0  0  0  0  0  0  0  0  0  0
   61.9817   31.6883   46.5329 H   0  0  0  0  0  0  0  0  0  0  0  0
   63.2708   30.6484   47.2205 H   0  0  0  0  0  0  0  0  0  0  0  0
   60.4645   34.2040   48.1985 H   0  0  0  0  0  0  0  0  0  0  0  0
   60.6791   36.1298   46.6274 H   0  0  0  0  0  0  0  0  0  0  0  0
   59.3585   36.1725   44.5090 H   0  0  0  0  0  0  0  0  0  0  0  0
   57.8296   34.2791   43.9529 H   0  0  0  0  0  0  0  0  0  0  0  0
   57.6115   32.3467   45.5122 H   0  0  0  0  0  0  0  0  0  0  0  0
   57.1472   30.3752   46.6498 H   0  0  0  0  0  0  0  0  0  0  0  0
  1  2  1  0
  2  3  2  0
  2  4  2  0
  2  5  1  0
  5  6  2  0
  6  7  1  0
  7  8  2  0
  8  9  1  0
  9 10  1  0
 10 11  1  0
 11 12  1  0
 12 13  1  0
 13 14  1  0
 14 15  2  0
 14 16  1  0
 16 17  1  0
 17 18  2  0
 18 19  1  0
 19 20  2  0
 20 21  1  0
 21 22  2  0
 22 23  1  0
 23 24  2  0
 23 25  1  0
 12 26  1  0
 26 27  1  0
  8 28  1  0
 28 29  1  0
 29 30  2  0
 29 31  1  0
 31 32  2  0
 32 33  1  0
 33 34  2  0
 34 35  1  0
 35 36  2  0
 28 37  2  0
 37  5  1  0
 27  9  1  0
 36 31  1  0
 22 17  1  0
  1 38  1  0
  6 39  1  0
  7 40  1  0
 10 41  1  0
 10 42  1  0
 11 43  1  0
 11 44  1  0
 13 45  1  0
 13 46  1  0
 18 47  1  0
 19 48  1  0
 20 49  1  0
 21 50  1  0
 26 51  1  0
 26 52  1  0
 27 53  1  0
 27 54  1  0
 32 55  1  0
 33 56  1  0
 34 57  1  0
 35 58  1  0
 36 59  1  0
 37 60  1  0
M  CHG  3   1  -1  16  -1  25  -1
M  END
>  <UniqueID>  (30) 
29

>  <SMILES>  (30) 
[NH-]S(=O)(=O)c1ccc(N2CCN(CC(=O)[N-]c3ccccc3C(=O)[O-])CC2)c(C(=O)c2ccccc2)c1

>  <Energy>  (30) 
88.33336303735108

>  <Genealogy>  (30) 
[NH-]S(=O)(=O)c1ccc(N2CCN(CC(=O)[N-]c3ccccc3C(=O)[O-])CC2)c(C(=O)c2ccccc2)c1 (protonated)
[NH-]S(=O)(=O)c1ccc(N2CCN(CC(=O)[N-]c3ccccc3C(=O)[O-])CC2)c(C(=O)c2ccccc2)c1 (3D coordinates assigned)
[NH-]S(=O)(=O)c1ccc(N2CCN(CC(=O)[N-]c3ccccc3C(=O)[O-])CC2)c(C(=O)c2ccccc2)c1 (nonaromatic ring conformer: 88.33336303735108 kcal/mol)

>  <smiles>  (30) 
NS(=O)(=O)c1ccc(N2CCN(CC(=O)Nc3ccccc3C(=O)O)CC2)c(C(=O)c2ccccc2)c1

>  <score_type>  (30) 
oracle

>  <origin>  (30) 
adg

>  <m_score__min__energy>  (30) 
-15.17

>  <m_primary>  (30) 
energy

$$$$
30:0
     RDKit          3D

 37 39  0  0  0  0  0  0  0  0999 V2000
   58.3050   23.4710   45.3000 C   0  0  0  0  0  0  0  0  0  0  0  0
   57.4870   24.6540   45.5680 N   0  0  0  0  0  0  0  0  0  0  0  0
   56.1510   24.6950   45.4140 C   0  0  0  0  0  0  0  0  0  0  0  0
   55.7110   25.9050   45.8870 C   0  0  0  0  0  0  0  0  0  0  0  0
   54.3870   26.3220   45.9180 O   0  0  0  0  0  0  0  0  0  0  0  0
   56.7390   26.6450   46.3370 N   0  0  0  0  0  0  0  0  0  0  0  0
   57.8150   25.8610   46.1120 C   0  0  0  0  0  0  0  0  0  0  0  0
   59.0130   26.2610   46.4400 N   0  0  0  0  0  0  0  0  0  0  0  0
   59.4000   27.4240   47.1810 C   0  0  0  0  0  0  0  0  0  0  0  0
   59.3210   27.4350   48.4390 O   0  0  0  0  0  0  0  0  0  0  0  0
   60.0670   28.5640   46.4700 C   0  0  0  0  0  0  0  0  0  0  0  0
   59.1370   29.6930   46.0370 C   0  0  0  0  0  0  0  0  0  0  0  0
   57.8680   29.4240   45.4810 C   0  0  0  0  0  0  0  0  0  0  0  0
   57.0330   30.4720   45.0910 C   0  0  0  0  0  0  0  0  0  0  0  0
   55.9030   30.2280   44.5940 O   0  0  0  0  0  0  0  0  0  0  0  0
   57.4350   31.7570   45.2460 N   0  0  0  0  0  0  0  0  0  0  0  0
   58.6440   32.0730   45.7770 C   0  0  0  0  0  0  0  0  0  0  0  0
   58.9970   33.4170   45.9180 C   0  0  0  0  0  0  0  0  0  0  0  0
   60.2320   33.7670   46.4630 C   0  0  0  0  0  0  0  0  0  0  0  0
   61.1390   32.7770   46.8730 C   0  0  0  0  0  0  0  0  0  0  0  0
   62.4460   33.1720   47.4530 C   0  0  0  0  0  0  0  0  0  0  0  0
   63.6490   32.4670   47.1340 N   0  0  0  0  0  0  0  0  0  0  0  0
   62.5090   34.1600   48.2350 O   0  0  0  0  0  0  0  0  0  0  0  0
   60.7790   31.4230   46.7450 C   0  0  0  0  0  0  0  0  0  0  0  0
   59.5330   31.0510   46.1900 C   0  0  0  0  0  0  0  0  0  0  0  0
   58.6181   23.0183   46.2524 H   0  0  0  0  0  0  0  0  0  0  0  0
   57.7172   22.7418   44.7231 H   0  0  0  0  0  0  0  0  0  0  0  0
   59.1947   23.7635   44.7231 H   0  0  0  0  0  0  0  0  0  0  0  0
   55.5234   23.8998   44.9852 H   0  0  0  0  0  0  0  0  0  0  0  0
   60.8260   28.9879   47.1439 H   0  0  0  0  0  0  0  0  0  0  0  0
   60.4869   28.1427   45.5447 H   0  0  0  0  0  0  0  0  0  0  0  0
   57.5354   28.3831   45.3544 H   0  0  0  0  0  0  0  0  0  0  0  0
   58.2975   34.2032   45.5976 H   0  0  0  0  0  0  0  0  0  0  0  0
   60.4980   34.8287   46.5727 H   0  0  0  0  0  0  0  0  0  0  0  0
   64.5440   32.7280   47.6030 H   0  0  0  0  0  0  0  0  0  0  0  0
   63.6820   31.7530   46.3730 H   0  0  0  0  0  0  0  0  0  0  0  0
   61.4771   30.6424   47.0816 H   0  0  0  0  0  0  0  0  0  0  0  0
  1  2  1  0
  2  3  1  0
  3  4  2  0
  4  5  1  0
  4  6  1  0
  6  7  1  0
  7  8  2  3
  8  9  1  0
  9 10  2  0
  9 11  1  0
 11 12  1  0
 12 13  2  0
 13 14  1  0
 14 15  2  0
 14 16  1  0
 16 17  1  0
 17 18  2  0
 18 19  1  0
 19 20  2  0
 20 21  1  0
 21 22  1  0
 21 23  2  0
 20 24  1  0
 24 25  2  0
  7  2  1  0
 25 12  1  0
 25 17  1  0
  1 26  1  0
  1 27  1  0
  1 28  1  0
  3 29  1  0
 11 30  1  0
 11 31  1  0
 13 32  1  0
 18 33  1  0
 19 34  1  0
 22 35  1  0
 22 36  1  0
 24 37  1  0
M  CHG  3   5  -1   6  -1  16  -1
M  END
>  <UniqueID>  (31) 
30

>  <SMILES>  (31) 
Cn1cc([O-])[n-]c1=NC(=O)Cc1cc(=O)[n-]c2ccc(C(N)=O)cc12

>  <Energy>  (31) 
90.73739666456193

>  <Genealogy>  (31) 
Cn1cc([O-])[n-]c1=NC(=O)Cc1cc(=O)[n-]c2ccc(C(N)=O)cc12 (protonated)
Cn1cc([O-])[n-]c1=NC(=O)Cc1cc(=O)[n-]c2ccc(C(N)=O)cc12 (3D coordinates assigned)
Cn1cc([O-])[n-]c1=NC(=O)Cc1cc(=O)[n-]c2ccc(C(N)=O)cc12 (optimized conformer: 90.73739666456193 kcal/mol)

>  <smiles>  (31) 
Cn1cc(O)[nH]c1=NC(=O)Cc1cc(=O)[nH]c2ccc(C(N)=O)cc12

>  <score_type>  (31) 
oracle

>  <origin>  (31) 
adg

>  <m_score__min__energy>  (31) 
-14.74

>  <m_primary>  (31) 
energy

$$$$
31:0
     RDKit          3D

 67 71  0  0  0  0  0  0  0  0999 V2000
   55.8940   28.2210   45.2850 O   0  0  0  0  0  0  0  0  0  0  0  0
   56.7380   29.1540   45.1780 C   0  0  0  0  0  0  0  0  0  0  0  0
   56.3630   30.4000   44.5790 N   0  0  0  0  0  0  0  0  0  0  0  0
   57.1800   31.5780   44.5240 C   0  0  0  0  0  0  0  0  0  0  0  0
   57.7130   31.9740   43.2920 C   0  0  0  0  0  0  0  0  0  0  0  0
   58.5210   33.1110   43.2050 C   0  0  0  0  0  0  0  0  0  0  0  0
   58.8240   33.8470   44.3540 C   0  0  0  0  0  0  0  0  0  0  0  0
   58.3320   33.4410   45.6040 C   0  0  0  0  0  0  0  0  0  0  0  0
   58.6880   34.2020   46.8560 C   0  0  0  0  0  0  0  0  0  0  0  0
   59.4890   33.3420   47.8010 C   0  0  0  0  0  0  0  0  0  0  0  0
   58.8410   32.7950   48.8670 N   0  0  0  0  0  0  0  0  0  0  0  0
   59.4450   31.9640   49.7170 N   0  0  0  0  0  0  0  0  0  0  0  0
   60.7450   31.6110   49.5610 C   0  0  0  0  0  0  0  0  0  0  0  0
   61.2690   30.8060   50.3770 O   0  0  0  0  0  0  0  0  0  0  0  0
   61.4810   32.1380   48.4890 C   0  0  0  0  0  0  0  0  0  0  0  0
   60.8530   33.0230   47.5960 C   0  0  0  0  0  0  0  0  0  0  0  0
   61.6560   33.5000   46.4040 C   0  0  0  0  0  0  0  0  0  0  0  0
   63.0930   33.8900   46.8010 C   0  0  0  0  0  0  0  0  0  0  0  0
   63.7510   32.9700   47.8590 C   0  0  0  0  0  0  0  0  0  0  0  0
   62.9120   31.7380   48.2250 C   0  0  0  0  0  0  0  0  0  0  0  0
   57.5040   32.3070   45.6810 C   0  0  0  0  0  0  0  0  0  0  0  0
   58.0950   28.9520   45.5890 N   0  0  0  0  0  0  0  0  0  0  0  0
   58.5760   27.6990   46.1690 C   0  0  0  0  0  0  0  0  0  0  0  0
   57.7710   26.5480   45.6340 C   0  0  0  0  0  0  0  0  0  0  0  0
   57.9680   26.1040   44.3180 C   0  0  0  0  0  0  0  0  0  0  0  0
   57.2330   25.0230   43.8220 C   0  0  0  0  0  0  0  0  0  0  0  0
   56.2930   24.3760   44.6330 C   0  0  0  0  0  0  0  0  0  0  0  0
   55.3700   23.0120   44.0010 S   0  0  0  0  0  0  0  0  0  0  0  0
   54.0430   22.9430   44.7010 O   0  0  0  0  0  0  0  0  0  0  0  0
   55.1190   23.2480   42.5380 O   0  0  0  0  0  0  0  0  0  0  0  0
   56.2760   21.5270   44.2100 N   0  0  0  0  0  0  0  0  0  0  0  0
   57.7260   21.7120   44.0150 C   0  0  0  0  0  0  0  0  0  0  0  0
   58.4180   22.2600   45.2730 C   0  0  0  0  0  0  0  0  0  0  0  0
   58.1480   21.4420   46.3920 O   0  0  0  0  0  0  0  0  0  0  0  0
   56.7610   21.4590   46.6620 C   0  0  0  0  0  0  0  0  0  0  0  0
   55.9690   20.8590   45.4890 C   0  0  0  0  0  0  0  0  0  0  0  0
   56.1050   24.8080   45.9530 C   0  0  0  0  0  0  0  0  0  0  0  0
   56.8450   25.8830   46.4520 C   0  0  0  0  0  0  0  0  0  0  0  0
   57.4948   31.3873   42.3875 H   0  0  0  0  0  0  0  0  0  0  0  0
   58.9195   33.4275   42.2298 H   0  0  0  0  0  0  0  0  0  0  0  0
   59.4505   34.7479   44.2781 H   0  0  0  0  0  0  0  0  0  0  0  0
   59.2823   35.0864   46.5828 H   0  0  0  0  0  0  0  0  0  0  0  0
   57.7577   34.5038   47.3595 H   0  0  0  0  0  0  0  0  0  0  0  0
   61.6994   32.6929   45.6579 H   0  0  0  0  0  0  0  0  0  0  0  0
   61.1608   34.3921   45.9931 H   0  0  0  0  0  0  0  0  0  0  0  0
   63.7157   33.8677   45.8945 H   0  0  0  0  0  0  0  0  0  0  0  0
   63.0258   34.8876   47.2595 H   0  0  0  0  0  0  0  0  0  0  0  0
   64.7177   32.6249   47.4637 H   0  0  0  0  0  0  0  0  0  0  0  0
   63.8568   33.5666   48.7771 H   0  0  0  0  0  0  0  0  0  0  0  0
   62.9402   31.0195   47.3925 H   0  0  0  0  0  0  0  0  0  0  0  0
   63.3285   31.2788   49.1337 H   0  0  0  0  0  0  0  0  0  0  0  0
   57.1063   31.9877   46.6556 H   0  0  0  0  0  0  0  0  0  0  0  0
   58.7760   29.7370   45.4640 H   0  0  0  0  0  0  0  0  0  0  0  0
   59.6347   27.5576   45.9060 H   0  0  0  0  0  0  0  0  0  0  0  0
   58.4680   27.7402   47.2629 H   0  0  0  0  0  0  0  0  0  0  0  0
   58.7035   26.6082   43.6739 H   0  0  0  0  0  0  0  0  0  0  0  0
   57.3941   24.6792   42.7896 H   0  0  0  0  0  0  0  0  0  0  0  0
   58.1752   20.7412   43.7586 H   0  0  0  0  0  0  0  0  0  0  0  0
   57.8662   22.4453   43.2071 H   0  0  0  0  0  0  0  0  0  0  0  0
   59.5043   22.2903   45.1025 H   0  0  0  0  0  0  0  0  0  0  0  0
   58.0330   23.2705   45.4746 H   0  0  0  0  0  0  0  0  0  0  0  0
   56.5631   20.8699   47.5696 H   0  0  0  0  0  0  0  0  0  0  0  0
   56.4425   22.5021   46.8055 H   0  0  0  0  0  0  0  0  0  0  0  0
   56.2206   19.7918   45.4007 H   0  0  0  0  0  0  0  0  0  0  0  0
   54.8982   21.0019   45.6962 H   0  0  0  0  0  0  0  0  0  0  0  0
   55.3731   24.2995   46.5977 H   0  0  0  0  0  0  0  0  0  0  0  0
   56.7008   26.2099   47.4923 H   0  0  0  0  0  0  0  0  0  0  0  0
  1  2  2  0
  2  3  1  0
  3  4  1  0
  4  5  2  0
  5  6  1  0
  6  7  2  0
  7  8  1  0
  8  9  1  0
  9 10  1  0
 10 11  2  0
 11 12  1  0
 12 13  1  0
 13 14  2  0
 13 15  1  0
 15 16  2  0
 16 17  1  0
 17 18  1  0
 18 19  1  0
 19 20  1  0
  8 21  2  0
  2 22  1  0
 22 23  1  0
 23 24  1  0
 24 25  2  0
 25 26  1  0
 26 27  2  0
 27 28  1  0
 28 29  2  0
 28 30  2  0
 28 31  1  0
 31 32  1  0
 32 33  1  0
 33 34  1  0
 34 35  1  0
 35 36  1  0
 27 37  1  0
 37 38  2  0
 21  4  1  0
 38 24  1  0
 16 10  1  0
 36 31  1  0
 20 15  1  0
  5 39  1  0
  6 40  1  0
  7 41  1  0
  9 42  1  0
  9 43  1  0
 17 44  1  0
 17 45  1  0
 18 46  1  0
 18 47  1  0
 19 48  1  0
 19 49  1  0
 20 50  1  0
 20 51  1  0
 21 52  1  0
 22 53  1  0
 23 54  1  0
 23 55  1  0
 25 56  1  0
 26 57  1  0
 32 58  1  0
 32 59  1  0
 33 60  1  0
 33 61  1  0
 35 62  1  0
 35 63  1  0
 36 64  1  0
 36 65  1  0
 37 66  1  0
 38 67  1  0
M  CHG  2   3  -1  12  -1
M  END
>  <UniqueID>  (32) 
31

>  <SMILES>  (32) 
O=C([N-]c1cccc(Cc2n[n-]c(=O)c3c2CCCC3)c1)NCc1ccc(S(=O)(=O)N2CCOCC2)cc1

>  <Energy>  (32) 
85.22197739096158

>  <Genealogy>  (32) 
O=C([N-]c1cccc(Cc2n[n-]c(=O)c3c2CCCC3)c1)NCc1ccc(S(=O)(=O)N2CCOCC2)cc1 (protonated)
O=C([N-]c1cccc(Cc2n[n-]c(=O)c3c2CCCC3)c1)NCc1ccc(S(=O)(=O)N2CCOCC2)cc1 (3D coordinates assigned)
O=C([N-]c1cccc(Cc2n[n-]c(=O)c3c2CCCC3)c1)NCc1ccc(S(=O)(=O)N2CCOCC2)cc1 (nonaromatic ring conformer: 85.22197739096158 kcal/mol)

>  <smiles>  (32) 
O=C(NCc1ccc(S(=O)(=O)N2CCOCC2)cc1)Nc1cccc(Cc2n[nH]c(=O)c3c2CCCC3)c1

>  <score_type>  (32) 
oracle

>  <origin>  (32) 
adg

>  <m_score__min__energy>  (32) 
-14.300000000000001

>  <m_primary>  (32) 
energy

$$$$
32:0
     RDKit          3D

 71 75  0  0  0  0  0  0  0  0999 V2000
   58.4229   28.0977   53.7051 H   0  0  0  0  0  0  0  0  0  0  0  0
   58.7260   29.0930   53.3480 C   0  0  0  0  0  0  0  0  0  0  0  0
   57.8810   29.8310   52.5000 C   0  0  0  0  0  0  0  0  0  0  0  0
   56.6590   29.3320   52.0360 O   0  0  0  0  0  0  0  0  0  0  0  0
   55.5110   29.0890   52.8500 C   0  0  0  0  0  0  0  0  0  0  0  0
   55.6464   29.5765   53.8268 H   0  0  0  0  0  0  0  0  0  0  0  0
   55.3886   28.0048   52.9899 H   0  0  0  0  0  0  0  0  0  0  0  0
   54.2580   29.6560   52.1670 C   0  0  0  0  0  0  0  0  0  0  0  0
   54.1791   29.1833   51.1769 H   0  0  0  0  0  0  0  0  0  0  0  0
   52.9990   29.3180   52.9740 C   0  0  0  0  0  0  0  0  0  0  0  0
   53.2251   29.3787   54.0488 H   0  0  0  0  0  0  0  0  0  0  0  0
   52.2014   30.0338   52.7261 H   0  0  0  0  0  0  0  0  0  0  0  0
   52.6672   28.2990   52.7261 H   0  0  0  0  0  0  0  0  0  0  0  0
   54.3680   31.1720   51.9570 C   0  0  0  0  0  0  0  0  0  0  0  0
   54.4046   31.6758   52.9342 H   0  0  0  0  0  0  0  0  0  0  0  0
   55.2849   31.3985   51.3932 H   0  0  0  0  0  0  0  0  0  0  0  0
   53.4934   31.5285   51.3932 H   0  0  0  0  0  0  0  0  0  0  0  0
   58.2630   31.0750   52.1020 N   0  0  0  0  0  0  0  0  0  0  0  0
   59.4460   31.6370   52.4840 C   0  0  0  0  0  0  0  0  0  0  0  0
   59.7500   32.8510   52.1310 N   0  0  0  0  0  0  0  0  0  0  0  0
   59.5110   33.3570   50.8140 C   0  0  0  0  0  0  0  0  0  0  0  0
   59.2690   34.5840   50.6420 O   0  0  0  0  0  0  0  0  0  0  0  0
   59.6190   32.4480   49.6650 C   0  0  0  0  0  0  0  0  0  0  0  0
   60.3920   32.6390   48.5300 C   0  0  0  0  0  0  0  0  0  0  0  0
   60.4340   31.4000   47.9140 C   0  0  0  0  0  0  0  0  0  0  0  0
   59.7240   30.5190   48.6580 N   0  0  0  0  0  0  0  0  0  0  0  0
   59.7340   29.0590   48.5510 C   0  0  0  0  0  0  0  0  0  0  0  0
   60.7704   28.7089   48.4354 H   0  0  0  0  0  0  0  0  0  0  0  0
   59.2947   28.6261   49.4618 H   0  0  0  0  0  0  0  0  0  0  0  0
   58.9230   28.6260   47.3540 C   0  0  0  0  0  0  0  0  0  0  0  0
   58.8550   27.2750   46.9830 C   0  0  0  0  0  0  0  0  0  0  0  0
   59.4189   26.5206   47.5512 H   0  0  0  0  0  0  0  0  0  0  0  0
   58.0730   26.8860   45.8940 C   0  0  0  0  0  0  0  0  0  0  0  0
   58.0306   25.8262   45.6025 H   0  0  0  0  0  0  0  0  0  0  0  0
   57.3440   27.8340   45.1720 C   0  0  0  0  0  0  0  0  0  0  0  0
   56.7399   27.5202   44.3080 H   0  0  0  0  0  0  0  0  0  0  0  0
   57.3810   29.1900   45.5480 C   0  0  0  0  0  0  0  0  0  0  0  0
   56.6370   30.2210   44.8770 N   0  0  0  0  0  0  0  0  0  0  0  0
   57.0970   31.3520   44.1210 C   0  0  0  0  0  0  0  0  0  0  0  0
   56.9640   31.3870   42.8690 O   0  0  0  0  0  0  0  0  0  0  0  0
   57.7090   32.5010   44.8310 C   0  0  0  0  0  0  0  0  0  0  0  0
   58.5780   33.3800   44.1570 C   0  0  0  0  0  0  0  0  0  0  0  0
   58.8055   33.2149   43.0935 H   0  0  0  0  0  0  0  0  0  0  0  0
   59.1540   34.4620   44.8310 C   0  0  0  0  0  0  0  0  0  0  0  0
   59.8402   35.1377   44.2994 H   0  0  0  0  0  0  0  0  0  0  0  0
   58.8590   34.6860   46.1790 C   0  0  0  0  0  0  0  0  0  0  0  0
   59.3085   35.5406   46.7059 H   0  0  0  0  0  0  0  0  0  0  0  0
   57.9940   33.8250   46.8560 C   0  0  0  0  0  0  0  0  0  0  0  0
   57.7591   34.0053   47.9154 H   0  0  0  0  0  0  0  0  0  0  0  0
   57.4250   32.7340   46.1920 C   0  0  0  0  0  0  0  0  0  0  0  0
   56.7520   32.0538   46.7346 H   0  0  0  0  0  0  0  0  0  0  0  0
   58.1930   29.5760   46.6220 C   0  0  0  0  0  0  0  0  0  0  0  0
   58.2598   30.6392   46.8960 H   0  0  0  0  0  0  0  0  0  0  0  0
   59.2260   31.1600   49.7070 N   0  0  0  0  0  0  0  0  0  0  0  0
   58.7090   30.7060   50.4920 H   0  0  0  0  0  0  0  0  0  0  0  0
   61.4200   31.0720   46.8280 C   0  0  0  0  0  0  0  0  0  0  0  0
   61.1872   31.6667   45.9324 H   0  0  0  0  0  0  0  0  0  0  0  0
   61.3535   30.0000   46.5906 H   0  0  0  0  0  0  0  0  0  0  0  0
   62.8420   31.3970   47.2980 C   0  0  0  0  0  0  0  0  0  0  0  0
   63.5387   31.2547   46.4588 H   0  0  0  0  0  0  0  0  0  0  0  0
   63.0961   30.7248   48.1308 H   0  0  0  0  0  0  0  0  0  0  0  0
   62.9620   33.0950   47.8790 S   0  0  0  0  0  0  0  0  0  0  0  0
   63.7660   33.1190   49.1480 O   0  0  0  0  0  0  0  0  0  0  0  0
   63.6500   33.9390   46.8410 O   0  0  0  0  0  0  0  0  0  0  0  0
   61.3310   33.7630   48.2050 C   0  0  0  0  0  0  0  0  0  0  0  0
   60.9687   34.2991   47.3154 H   0  0  0  0  0  0  0  0  0  0  0  0
   61.3807   34.4597   49.0548 H   0  0  0  0  0  0  0  0  0  0  0  0
   60.3200   30.9130   53.3030 C   0  0  0  0  0  0  0  0  0  0  0  0
   61.2853   31.3452   53.6053 H   0  0  0  0  0  0  0  0  0  0  0  0
   59.9530   29.6360   53.7320 C   0  0  0  0  0  0  0  0  0  0  0  0
   60.6326   29.0565   54.3742 H   0  0  0  0  0  0  0  0  0  0  0  0
  1  2  1  0
  2  3  2  0
  3  4  1  0
  4  5  1  0
  5  6  1  0
  5  7  1  0
  5  8  1  0
  8  9  1  0
  8 10  1  0
 10 11  1  0
 10 12  1  0
 10 13  1  0
  8 14  1  0
 14 15  1  0
 14 16  1  0
 14 17  1  0
  3 18  1  0
 18 19  1  0
 19 20  2  0
 20 21  1  0
 21 22  2  0
 21 23  1  0
 23 24  1  0
 24 25  2  0
 25 26  1  0
 26 27  1  0
 27 28  1  0
 27 29  1  0
 27 30  1  0
 30 31  2  0
 31 32  1  0
 31 33  1  0
 33 34  1  0
 33 35  2  0
 35 36  1  0
 35 37  1  0
 37 38  1  0
 38 39  1  0
 39 40  2  0
 39 41  1  0
 41 42  2  0
 42 43  1  0
 42 44  1  0
 44 45  1  0
 44 46  2  0
 46 47  1  0
 46 48  1  0
 48 49  1  0
 48 50  2  0
 50 51  1  0
 37 52  2  0
 52 53  1  0
 26 54  1  0
 54 55  1  0
 25 56  1  0
 56 57  1  0
 56 58  1  0
 56 59  1  0
 59 60  1  0
 59 61  1  0
 59 62  1  0
 62 63  2  0
 62 64  2  0
 62 65  1  0
 65 66  1  0
 65 67  1  0
 19 68  1  0
 68 69  1  0
 68 70  2  0
 70 71  1  0
 70  2  1  0
 54 23  2  0
 65 24  1  0
 52 30  1  0
 50 41  1  0
M  CHG  3  18  -1  38  -1  54   1
M  END
>  <UniqueID>  (33) 
32

>  <SMILES>  (33) 
CC(C)COc1ccc/c(=N/C(=O)c2[nH+]n(Cc3cccc([N-]C(=O)c4ccccc4)c3)c3c2CS(=O)(=O)CC3)[n-]1

>  <Energy>  (33) 
111.73795174734765

>  <Genealogy>  (33) 
CC(C)COc1cccc(=NC(=O)c2[nH+]n(Cc3cccc([N-]C(=O)c4ccccc4)c3)c3c2CS(=O)(=O)CC3)[n-]1 (protonated)
CC(C)COc1ccc/c(=N/C(=O)c2[nH+]n(Cc3cccc([N-]C(=O)c4ccccc4)c3)c3c2CS(=O)(=O)CC3)[n-]1 (cis-trans isomerization)
CC(C)COc1ccc/c(=N/C(=O)c2[nH+]n(Cc3cccc([N-]C(=O)c4ccccc4)c3)c3c2CS(=O)(=O)CC3)[n-]1 (3D coordinates assigned)
CC(C)COc1ccc/c(=N/C(=O)c2[nH+]n(Cc3cccc([N-]C(=O)c4ccccc4)c3)c3c2CS(=O)(=O)CC3)[n-]1 (nonaromatic ring conformer: 111.73795174734765 kcal/mol)

>  <smiles>  (33) 
CC(C)COc1cccc(=NC(=O)c2nn(Cc3cccc(NC(=O)c4ccccc4)c3)c3c2CS(=O)(=O)CC3)[nH]1

>  <score_type>  (33) 
oracle

>  <origin>  (33) 
adg

>  <m_score__min__energy>  (33) 
-13.289999999999999

>  <m_primary>  (33) 
energy

$$$$
33:0
     RDKit          3D

 41 43  0  0  0  0  0  0  0  0999 V2000
   59.6970   26.7070   47.9480 O   0  0  0  0  0  0  0  0  0  0  0  0
   59.6650   27.6310   47.0920 C   0  0  0  0  0  0  0  0  0  0  0  0
   60.3860   28.8480   47.3160 N   0  0  0  0  0  0  0  0  0  0  0  0
   60.0500   29.8450   48.2910 C   0  0  0  0  0  0  0  0  0  0  0  0
   58.9110   29.6430   49.0800 C   0  0  0  0  0  0  0  0  0  0  0  0
   58.5380   30.5860   50.0410 C   0  0  0  0  0  0  0  0  0  0  0  0
   59.2940   31.7460   50.2080 C   0  0  0  0  0  0  0  0  0  0  0  0
   60.4130   31.9770   49.4050 C   0  0  0  0  0  0  0  0  0  0  0  0
   60.7940   31.0390   48.4230 C   0  0  0  0  0  0  0  0  0  0  0  0
   61.8730   31.2700   47.5530 O   0  0  0  0  0  0  0  0  0  0  0  0
   62.6470   32.4660   47.4880 C   0  0  0  0  0  0  0  0  0  0  0  0
   62.9920   32.8470   48.7700 F   0  0  0  0  0  0  0  0  0  0  0  0
   61.9080   33.4800   46.9050 F   0  0  0  0  0  0  0  0  0  0  0  0
   63.8040   32.2460   46.7620 F   0  0  0  0  0  0  0  0  0  0  0  0
   58.8250   27.4850   45.9450 N   0  0  0  0  0  0  0  0  0  0  0  0
   57.5210   26.8940   45.9490 C   0  0  0  0  0  0  0  0  0  0  0  0
   57.1600   25.6480   46.4180 C   0  0  0  0  0  0  0  0  0  0  0  0
   55.8160   25.5670   46.4310 N   0  0  0  0  0  0  0  0  0  0  0  0
   55.3120   26.7160   45.9960 N   0  0  0  0  0  0  0  0  0  0  0  0
   56.3320   27.5410   45.6930 C   0  0  0  0  0  0  0  0  0  0  0  0
   56.1480   28.9230   45.2260 C   0  0  0  0  0  0  0  0  0  0  0  0
   55.1450   29.1930   44.5150 O   0  0  0  0  0  0  0  0  0  0  0  0
   57.0970   29.9620   45.5050 N   0  0  0  0  0  0  0  0  0  0  0  0
   57.6000   30.9480   44.5500 C   0  0  0  0  0  0  0  0  0  0  0  0
   58.0530   32.1990   45.2530 C   0  0  0  0  0  0  0  0  0  0  0  0
   58.4150   33.3370   44.5170 C   0  0  0  0  0  0  0  0  0  0  0  0
   58.8460   34.4890   45.1780 C   0  0  0  0  0  0  0  0  0  0  0  0
   58.9060   34.4940   46.5720 C   0  0  0  0  0  0  0  0  0  0  0  0
   58.5460   33.3870   47.2740 N   0  0  0  0  0  0  0  0  0  0  0  0
   58.1230   32.2540   46.6540 C   0  0  0  0  0  0  0  0  0  0  0  0
   58.3054   28.7351   48.9422 H   0  0  0  0  0  0  0  0  0  0  0  0
   57.6489   30.4137   50.6653 H   0  0  0  0  0  0  0  0  0  0  0  0
   59.0080   32.4812   50.9746 H   0  0  0  0  0  0  0  0  0  0  0  0
   61.0012   32.8967   49.5393 H   0  0  0  0  0  0  0  0  0  0  0  0
   57.8540   24.8534   46.7293 H   0  0  0  0  0  0  0  0  0  0  0  0
   58.4500   30.5161   44.0014 H   0  0  0  0  0  0  0  0  0  0  0  0
   56.7869   31.2107   43.8573 H   0  0  0  0  0  0  0  0  0  0  0  0
   58.3593   33.3219   43.4185 H   0  0  0  0  0  0  0  0  0  0  0  0
   59.1351   35.3829   44.6059 H   0  0  0  0  0  0  0  0  0  0  0  0
   59.2452   35.3952   47.1038 H   0  0  0  0  0  0  0  0  0  0  0  0
   57.8345   31.3770   47.2520 H   0  0  0  0  0  0  0  0  0  0  0  0
  1  2  2  0
  2  3  1  0
  3  4  1  0
  4  5  2  0
  5  6  1  0
  6  7  2  0
  7  8  1  0
  8  9  2  0
  9 10  1  0
 10 11  1  0
 11 12  1  0
 11 13  1  0
 11 14  1  0
  2 15  1  0
 15 16  1  0
 16 17  1  0
 17 18  2  0
 18 19  1  0
 19 20  1  0
 20 21  1  0
 21 22  2  0
 21 23  1  0
 23 24  1  0
 24 25  1  0
 25 26  2  0
 26 27  1  0
 27 28  2  0
 28 29  1  0
 29 30  2  0
  9  4  1  0
 20 16  2  0
 30 25  1  0
  5 31  1  0
  6 32  1  0
  7 33  1  0
  8 34  1  0
 17 35  1  0
 24 36  1  0
 24 37  1  0
 26 38  1  0
 27 39  1  0
 28 40  1  0
 30 41  1  0
M  CHG  4   3  -1  15  -1  19  -1  23  -1
M  END
>  <UniqueID>  (34) 
33

>  <SMILES>  (34) 
O=C([N-]c1ccccc1OC(F)(F)F)[N-]c1cn[n-]c1C(=O)[N-]Cc1cccnc1

>  <Energy>  (34) 
84.90982680399198

>  <Genealogy>  (34) 
O=C([N-]c1ccccc1OC(F)(F)F)[N-]c1cn[n-]c1C(=O)[N-]Cc1cccnc1 (protonated)
O=C([N-]c1ccccc1OC(F)(F)F)[N-]c1cn[n-]c1C(=O)[N-]Cc1cccnc1 (3D coordinates assigned)
O=C([N-]c1ccccc1OC(F)(F)F)[N-]c1cn[n-]c1C(=O)[N-]Cc1cccnc1 (optimized conformer: 84.90982680399198 kcal/mol)

>  <smiles>  (34) 
O=C(Nc1ccccc1OC(F)(F)F)Nc1cn[nH]c1C(=O)NCc1cccnc1

>  <score_type>  (34) 
oracle

>  <origin>  (34) 
adg

>  <m_score__min__energy>  (34) 
-14.4

>  <m_primary>  (34) 
energy

$$$$
34:0
     RDKit          3D

 52 56  0  0  0  0  0  0  0  0999 V2000
   57.3810   32.3490   50.8910 O   0  0  0  0  0  0  0  0  0  0  0  0
   58.1760   31.4010   50.6640 C   0  0  0  0  0  0  0  0  0  0  0  0
   57.7570   30.0960   50.8860 O   0  0  0  0  0  0  0  0  0  0  0  0
   59.5430   31.6880   50.2040 C   0  0  0  0  0  0  0  0  0  0  0  0
   60.5160   32.1030   51.0490 N   0  0  0  0  0  0  0  0  0  0  0  0
   61.6290   32.1770   50.2920 C   0  0  0  0  0  0  0  0  0  0  0  0
   61.3900   31.8280   48.9980 C   0  0  0  0  0  0  0  0  0  0  0  0
   60.0520   31.5100   48.9200 C   0  0  0  0  0  0  0  0  0  0  0  0
   59.2340   30.8800   47.4470 S   0  0  0  0  0  0  0  0  0  0  0  0
   59.2240   32.4360   46.5310 C   0  0  0  0  0  0  0  0  0  0  0  0
   60.3550   33.2600   46.6340 C   0  0  0  0  0  0  0  0  0  0  0  0
   60.3700   34.5220   46.0380 C   0  0  0  0  0  0  0  0  0  0  0  0
   59.2450   34.9830   45.3550 C   0  0  0  0  0  0  0  0  0  0  0  0
   58.1140   34.1720   45.2410 C   0  0  0  0  0  0  0  0  0  0  0  0
   58.1030   32.8790   45.7970 C   0  0  0  0  0  0  0  0  0  0  0  0
   56.9820   32.0050   45.6200 N   0  0  0  0  0  0  0  0  0  0  0  0
   56.8890   30.6910   44.4840 S   0  0  0  0  0  0  0  0  0  0  0  0
   57.1700   31.2260   43.1090 O   0  0  0  0  0  0  0  0  0  0  0  0
   55.5200   30.0720   44.4670 O   0  0  0  0  0  0  0  0  0  0  0  0
   58.0770   29.4700   44.9220 C   0  0  0  0  0  0  0  0  0  0  0  0
   59.4110   29.5860   44.5010 C   0  0  0  0  0  0  0  0  0  0  0  0
   60.3470   28.6120   44.8630 C   0  0  0  0  0  0  0  0  0  0  0  0
   59.9560   27.5210   45.6440 C   0  0  0  0  0  0  0  0  0  0  0  0
   58.6280   27.4020   46.0650 C   0  0  0  0  0  0  0  0  0  0  0  0
   57.6900   28.3740   45.7050 C   0  0  0  0  0  0  0  0  0  0  0  0
   62.4900   31.5130   48.0290 C   0  0  0  0  0  0  0  0  0  0  0  0
   63.7630   32.3370   48.3300 C   0  0  0  0  0  0  0  0  0  0  0  0
   64.0500   32.4850   49.7760 N   0  0  0  0  0  0  0  0  0  0  0  0
   65.3380   32.9790   50.1890 C   0  0  0  0  0  0  0  0  0  0  0  0
   66.2950   33.0460   49.3720 O   0  0  0  0  0  0  0  0  0  0  0  0
   65.5180   33.4910   51.5850 C   0  0  0  0  0  0  0  0  0  0  0  0
   64.6190   32.7030   52.5380 C   0  0  0  0  0  0  0  0  0  0  0  0
   63.2480   32.6160   52.0290 N   0  0  0  0  0  0  0  0  0  0  0  0
   62.9910   32.4420   50.7610 C   0  0  0  0  0  0  0  0  0  0  0  0
   61.2372   32.9085   47.1891 H   0  0  0  0  0  0  0  0  0  0  0  0
   61.2687   35.1526   46.1070 H   0  0  0  0  0  0  0  0  0  0  0  0
   59.2485   35.9869   44.9054 H   0  0  0  0  0  0  0  0  0  0  0  0
   57.2249   34.5465   44.7126 H   0  0  0  0  0  0  0  0  0  0  0  0
   59.7205   30.4438   43.8858 H   0  0  0  0  0  0  0  0  0  0  0  0
   61.3921   28.7047   44.5326 H   0  0  0  0  0  0  0  0  0  0  0  0
   60.6933   26.7556   45.9276 H   0  0  0  0  0  0  0  0  0  0  0  0
   58.3211   26.5430   46.6798 H   0  0  0  0  0  0  0  0  0  0  0  0
   56.6457   28.2784   46.0371 H   0  0  0  0  0  0  0  0  0  0  0  0
   62.7323   30.4423   48.0990 H   0  0  0  0  0  0  0  0  0  0  0  0
   62.1432   31.7705   47.0174 H   0  0  0  0  0  0  0  0  0  0  0  0
   64.6203   31.8371   47.8554 H   0  0  0  0  0  0  0  0  0  0  0  0
   63.5926   33.3480   47.9315 H   0  0  0  0  0  0  0  0  0  0  0  0
   66.5686   33.3691   51.8874 H   0  0  0  0  0  0  0  0  0  0  0  0
   65.2463   34.5563   51.6222 H   0  0  0  0  0  0  0  0  0  0  0  0
   65.0233   31.6865   52.6533 H   0  0  0  0  0  0  0  0  0  0  0  0
   64.5969   33.2259   53.5055 H   0  0  0  0  0  0  0  0  0  0  0  0
   62.4720   32.6060   52.7290 H   0  0  0  0  0  0  0  0  0  0  0  0
  1  2  2  0
  2  3  1  0
  2  4  1  0
  4  5  1  0
  5  6  1  0
  6  7  2  0
  7  8  1  0
  8  9  1  0
  9 10  1  0
 10 11  2  0
 11 12  1  0
 12 13  2  0
 13 14  1  0
 14 15  2  0
 15 16  1  0
 16 17  1  0
 17 18  2  0
 17 19  2  0
 17 20  1  0
 20 21  2  0
 21 22  1  0
 22 23  2  0
 23 24  1  0
 24 25  2  0
  7 26  1  0
 26 27  1  0
 27 28  1  0
 28 29  1  0
 29 30  2  0
 29 31  1  0
 31 32  1  0
 32 33  1  0
 33 34  2  0
  8  4  2  0
 15 10  1  0
 25 20  1  0
 34 28  1  0
 34  6  1  0
 11 35  1  0
 12 36  1  0
 13 37  1  0
 14 38  1  0
 21 39  1  0
 22 40  1  0
 23 41  1  0
 24 42  1  0
 25 43  1  0
 26 44  1  0
 26 45  1  0
 27 46  1  0
 27 47  1  0
 31 48  1  0
 31 49  1  0
 32 50  1  0
 32 51  1  0
 33 52  1  0
M  CHG  4   3  -1   5  -1  16  -1  33   1
M  END
>  <UniqueID>  (35) 
34

>  <SMILES>  (35) 
O=C([O-])c1[n-]c2c(c1Sc1ccccc1[N-]S(=O)(=O)c1ccccc1)CCN1C(=O)CC[NH+]=C21

>  <Energy>  (35) 
92.84857598222422

>  <Genealogy>  (35) 
O=C([O-])c1[n-]c2c(c1Sc1ccccc1[N-]S(=O)(=O)c1ccccc1)CCN1C(=O)CC[NH+]=C21 (protonated)
O=C([O-])c1[n-]c2c(c1Sc1ccccc1[N-]S(=O)(=O)c1ccccc1)CCN1C(=O)CC[NH+]=C21 (3D coordinates assigned)
O=C([O-])c1[n-]c2c(c1Sc1ccccc1[N-]S(=O)(=O)c1ccccc1)CCN1C(=O)CC[NH+]=C21 (nonaromatic ring conformer: 92.84857598222422 kcal/mol)

>  <smiles>  (35) 
O=C(O)c1[nH]c2c(c1Sc1ccccc1NS(=O)(=O)c1ccccc1)CCN1C(=O)CCN=C21

>  <score_type>  (35) 
oracle

>  <origin>  (35) 
adg

>  <m_score__min__energy>  (35) 
-12.76

>  <m_primary>  (35) 
energy

$$$$
35:0
     RDKit          3D

 46 48  0  0  0  0  0  0  0  0999 V2000
   57.4350   31.8050   43.5780 C   0  0  0  0  0  0  0  0  0  0  0  0
   57.1850   30.6450   44.4290 N   0  0  0  0  0  0  0  0  0  0  0  0
   57.9350   30.2080   45.4600 C   0  0  0  0  0  0  0  0  0  0  0  0
   59.1490   30.8940   46.0140 C   0  0  0  0  0  0  0  0  0  0  0  0
   59.9610   29.9340   46.8240 C   0  0  0  0  0  0  0  0  0  0  0  0
   60.3070   28.8310   46.3220 O   0  0  0  0  0  0  0  0  0  0  0  0
   60.2780   30.2550   48.1850 N   0  0  0  0  0  0  0  0  0  0  0  0
   59.3480   30.5450   49.2400 C   0  0  0  0  0  0  0  0  0  0  0  0
   59.0890   29.5540   50.1950 C   0  0  0  0  0  0  0  0  0  0  0  0
   58.1770   29.7850   51.2280 C   0  0  0  0  0  0  0  0  0  0  0  0
   57.4870   31.0070   51.3090 C   0  0  0  0  0  0  0  0  0  0  0  0
   56.5280   31.2720   52.4100 C   0  0  0  0  0  0  0  0  0  0  0  0
   56.8860   32.0190   53.3610 O   0  0  0  0  0  0  0  0  0  0  0  0
   55.1660   30.6850   52.4360 C   0  0  0  0  0  0  0  0  0  0  0  0
   54.8120   29.7780   53.4470 C   0  0  0  0  0  0  0  0  0  0  0  0
   53.5370   29.2090   53.4740 C   0  0  0  0  0  0  0  0  0  0  0  0
   52.5920   29.5500   52.5030 C   0  0  0  0  0  0  0  0  0  0  0  0
   51.3340   28.9570   52.5450 O   0  0  0  0  0  0  0  0  0  0  0  0
   52.9160   30.4850   51.5010 C   0  0  0  0  0  0  0  0  0  0  0  0
   51.9170   30.8730   50.4400 C   0  0  0  0  0  0  0  0  0  0  0  0
   51.4260   32.2700   50.6560 C   0  0  0  0  0  0  0  0  0  0  0  0
   51.3990   33.0900   49.6980 O   0  0  0  0  0  0  0  0  0  0  0  0
   50.9670   32.6570   51.9090 O   0  0  0  0  0  0  0  0  0  0  0  0
   54.2040   31.0450   51.4740 C   0  0  0  0  0  0  0  0  0  0  0  0
   57.7430   31.9980   50.3470 C   0  0  0  0  0  0  0  0  0  0  0  0
   58.6520   31.7660   49.3120 C   0  0  0  0  0  0  0  0  0  0  0  0
   57.3330   29.0750   45.9640 C   0  0  0  0  0  0  0  0  0  0  0  0
   57.7760   28.3450   47.0620 O   0  0  0  0  0  0  0  0  0  0  0  0
   56.2310   28.7640   45.2500 N   0  0  0  0  0  0  0  0  0  0  0  0
   56.1830   29.7440   44.3210 C   0  0  0  0  0  0  0  0  0  0  0  0
   55.2810   29.8070   43.4440 O   0  0  0  0  0  0  0  0  0  0  0  0
   57.6251   32.6871   44.2071 H   0  0  0  0  0  0  0  0  0  0  0  0
   58.3121   31.6116   42.9429 H   0  0  0  0  0  0  0  0  0  0  0  0
   56.5561   31.9901   42.9429 H   0  0  0  0  0  0  0  0  0  0  0  0
   59.7606   31.2766   45.1837 H   0  0  0  0  0  0  0  0  0  0  0  0
   58.8282   31.7255   46.6588 H   0  0  0  0  0  0  0  0  0  0  0  0
   59.6077   28.5861   50.1314 H   0  0  0  0  0  0  0  0  0  0  0  0
   57.9977   29.0053   51.9830 H   0  0  0  0  0  0  0  0  0  0  0  0
   55.5444   29.5134   54.2239 H   0  0  0  0  0  0  0  0  0  0  0  0
   53.2755   28.4890   54.2634 H   0  0  0  0  0  0  0  0  0  0  0  0
   52.3969   30.8083   49.4523 H   0  0  0  0  0  0  0  0  0  0  0  0
   51.0597   30.1860   50.4956 H   0  0  0  0  0  0  0  0  0  0  0  0
   54.4637   31.7734   50.6917 H   0  0  0  0  0  0  0  0  0  0  0  0
   57.2231   32.9654   50.4092 H   0  0  0  0  0  0  0  0  0  0  0  0
   58.8244   32.5407   48.5503 H   0  0  0  0  0  0  0  0  0  0  0  0
   58.5600   28.6690   47.6160 H   0  0  0  0  0  0  0  0  0  0  0  0
  1  2  1  0
  2  3  1  0
  3  4  1  0
  4  5  1  0
  5  6  2  0
  5  7  1  0
  7  8  1  0
  8  9  2  0
  9 10  1  0
 10 11  2  0
 11 12  1  0
 12 13  2  0
 12 14  1  0
 14 15  2  0
 15 16  1  0
 16 17  2  0
 17 18  1  0
 17 19  1  0
 19 20  1  0
 20 21  1  0
 21 22  2  0
 21 23  1  0
 19 24  2  0
 11 25  1  0
 25 26  2  0
  3 27  2  0
 27 28  1  0
 27 29  1  0
 29 30  1  0
 30 31  2  0
 30  2  1  0
 26  8  1  0
 24 14  1  0
  1 32  1  0
  1 33  1  0
  1 34  1  0
  4 35  1  0
  4 36  1  0
  9 37  1  0
 10 38  1  0
 15 39  1  0
 16 40  1  0
 20 41  1  0
 20 42  1  0
 24 43  1  0
 25 44  1  0
 26 45  1  0
 28 46  1  0
M  CHG  4   7  -1  18  -1  23  -1  29  -1
M  END
>  <UniqueID>  (36) 
35

>  <SMILES>  (36) 
Cn1c(CC(=O)[N-]c2ccc(C(=O)c3ccc([O-])c(CC(=O)[O-])c3)cc2)c(O)[n-]c1=O

>  <Energy>  (36) 
85.81981104311761

>  <Genealogy>  (36) 
Cn1c(CC(=O)[N-]c2ccc(C(=O)c3ccc([O-])c(CC(=O)[O-])c3)cc2)c(O)[n-]c1=O (protonated)
Cn1c(CC(=O)[N-]c2ccc(C(=O)c3ccc([O-])c(CC(=O)[O-])c3)cc2)c(O)[n-]c1=O (3D coordinates assigned)
Cn1c(CC(=O)[N-]c2ccc(C(=O)c3ccc([O-])c(CC(=O)[O-])c3)cc2)c(O)[n-]c1=O (optimized conformer: 85.81981104311761 kcal/mol)

>  <smiles>  (36) 
Cn1c(CC(=O)Nc2ccc(C(=O)c3ccc(O)c(CC(=O)O)c3)cc2)c(O)[nH]c1=O

>  <score_type>  (36) 
oracle

>  <origin>  (36) 
adg

>  <m_score__min__energy>  (36) 
-14.83

>  <m_primary>  (36) 
energy

$$$$
36:0
     RDKit          3D

 56 60  0  0  0  0  0  0  0  0999 V2000
   57.7250   28.9460   54.3270 O   0  0  0  0  0  0  0  0  0  0  0  0
   57.5780   29.5030   53.2080 C   0  0  0  0  0  0  0  0  0  0  0  0
   58.6900   29.5750   52.3100 N   0  0  0  0  0  0  0  0  0  0  0  0
   58.6810   30.2760   51.0670 C   0  0  0  0  0  0  0  0  0  0  0  0
   58.1810   31.5650   51.0170 C   0  0  0  0  0  0  0  0  0  0  0  0
   58.2760   32.2920   49.8360 C   0  0  0  0  0  0  0  0  0  0  0  0
   58.8110   31.7170   48.6820 C   0  0  0  0  0  0  0  0  0  0  0  0
   59.2270   30.3730   48.6930 C   0  0  0  0  0  0  0  0  0  0  0  0
   59.1670   29.6630   49.8990 C   0  0  0  0  0  0  0  0  0  0  0  0
   59.7150   29.7310   47.4910 N   0  0  0  0  0  0  0  0  0  0  0  0
   59.0840   28.4670   47.0610 C   0  0  0  0  0  0  0  0  0  0  0  0
   58.4960   28.5570   45.6700 C   0  0  0  0  0  0  0  0  0  0  0  0
   58.7010   27.4980   44.7680 C   0  0  0  0  0  0  0  0  0  0  0  0
   58.1060   27.5140   43.5040 C   0  0  0  0  0  0  0  0  0  0  0  0
   57.2760   28.5770   43.1440 C   0  0  0  0  0  0  0  0  0  0  0  0
   57.0570   29.6310   44.0300 C   0  0  0  0  0  0  0  0  0  0  0  0
   57.6660   29.6240   45.2860 C   0  0  0  0  0  0  0  0  0  0  0  0
   60.7980   30.2910   46.7130 C   0  0  0  0  0  0  0  0  0  0  0  0
   61.1600   29.7300   45.6430 O   0  0  0  0  0  0  0  0  0  0  0  0
   61.5160   31.5050   47.1490 C   0  0  0  0  0  0  0  0  0  0  0  0
   62.9100   31.4660   47.3000 C   0  0  0  0  0  0  0  0  0  0  0  0
   63.5870   32.5700   47.8270 C   0  0  0  0  0  0  0  0  0  0  0  0
   62.8810   33.7170   48.2060 C   0  0  0  0  0  0  0  0  0  0  0  0
   61.5080   33.7920   47.9760 C   0  0  0  0  0  0  0  0  0  0  0  0
   60.8190   32.6890   47.4540 C   0  0  0  0  0  0  0  0  0  0  0  0
   59.0410   32.7480   47.2390 S   0  0  0  0  0  0  0  0  0  0  0  0
   56.2930   30.0170   52.8250 N   0  0  0  0  0  0  0  0  0  0  0  0
   55.0920   29.7060   53.6010 C   0  0  0  0  0  0  0  0  0  0  0  0
   53.8870   30.3310   52.9540 C   0  0  0  0  0  0  0  0  0  0  0  0
   52.7390   30.6130   53.7150 C   0  0  0  0  0  0  0  0  0  0  0  0
   51.6550   31.2690   53.1340 C   0  0  0  0  0  0  0  0  0  0  0  0
   51.7180   31.6750   51.7980 C   0  0  0  0  0  0  0  0  0  0  0  0
   50.6510   32.3410   51.2260 O   0  0  0  0  0  0  0  0  0  0  0  0
   52.8610   31.4200   51.0420 C   0  0  0  0  0  0  0  0  0  0  0  0
   53.9490   30.7550   51.6190 C   0  0  0  0  0  0  0  0  0  0  0  0
   57.7114   32.0116   51.9058 H   0  0  0  0  0  0  0  0  0  0  0  0
   57.9250   33.3342   49.8105 H   0  0  0  0  0  0  0  0  0  0  0  0
   59.5033   28.6162   49.9324 H   0  0  0  0  0  0  0  0  0  0  0  0
   59.8439   27.6718   47.0720 H   0  0  0  0  0  0  0  0  0  0  0  0
   58.2614   28.2499   47.7583 H   0  0  0  0  0  0  0  0  0  0  0  0
   59.3360   26.6487   45.0604 H   0  0  0  0  0  0  0  0  0  0  0  0
   58.2907   26.6928   42.7959 H   0  0  0  0  0  0  0  0  0  0  0  0
   56.7922   28.5831   42.1561 H   0  0  0  0  0  0  0  0  0  0  0  0
   56.4046   30.4676   43.7394 H   0  0  0  0  0  0  0  0  0  0  0  0
   57.4950   30.4599   45.9803 H   0  0  0  0  0  0  0  0  0  0  0  0
   63.4705   30.5670   47.0039 H   0  0  0  0  0  0  0  0  0  0  0  0
   64.6802   32.5366   47.9442 H   0  0  0  0  0  0  0  0  0  0  0  0
   63.4073   34.5565   48.6837 H   0  0  0  0  0  0  0  0  0  0  0  0
   60.9637   34.7201   48.2050 H   0  0  0  0  0  0  0  0  0  0  0  0
   56.1980   30.4830   51.9080 H   0  0  0  0  0  0  0  0  0  0  0  0
   54.9580   28.6150   53.6438 H   0  0  0  0  0  0  0  0  0  0  0  0
   55.2051   30.1076   54.6188 H   0  0  0  0  0  0  0  0  0  0  0  0
   52.6961   30.3148   54.7729 H   0  0  0  0  0  0  0  0  0  0  0  0
   50.7499   31.4672   53.7269 H   0  0  0  0  0  0  0  0  0  0  0  0
   52.9079   31.7417   49.9911 H   0  0  0  0  0  0  0  0  0  0  0  0
   54.8544   30.5646   51.0240 H   0  0  0  0  0  0  0  0  0  0  0  0
  1  2  2  0
  2  3  1  0
  3  4  1  0
  4  5  2  0
  5  6  1  0
  6  7  2  0
  7  8  1  0
  8  9  2  0
  8 10  1  0
 10 11  1  0
 11 12  1  0
 12 13  2  0
 13 14  1  0
 14 15  2  0
 15 16  1  0
 16 17  2  0
 10 18  1  0
 18 19  2  0
 18 20  1  0
 20 21  2  0
 21 22  1  0
 22 23  2  0
 23 24  1  0
 24 25  2  0
 25 26  1  0
  2 27  1  0
 27 28  1  0
 28 29  1  0
 29 30  2  0
 30 31  1  0
 31 32  2  0
 32 33  1  0
 32 34  1  0
 34 35  2  0
  9  4  1  0
 17 12  1  0
 25 20  1  0
 35 29  1  0
 26  7  1  0
  5 36  1  0
  6 37  1  0
  9 38  1  0
 11 39  1  0
 11 40  1  0
 13 41  1  0
 14 42  1  0
 15 43  1  0
 16 44  1  0
 17 45  1  0
 21 46  1  0
 22 47  1  0
 23 48  1  0
 24 49  1  0
 27 50  1  0
 28 51  1  0
 28 52  1  0
 30 53  1  0
 31 54  1  0
 34 55  1  0
 35 56  1  0
M  CHG  2   3  -1  33  -1
M  END
>  <UniqueID>  (37) 
36

>  <SMILES>  (37) 
O=C([N-]c1ccc2c(c1)N(Cc1ccccc1)C(=O)c1ccccc1S2)NCc1ccc([O-])cc1

>  <Energy>  (37) 
79.59991128130834

>  <Genealogy>  (37) 
O=C([N-]c1ccc2c(c1)N(Cc1ccccc1)C(=O)c1ccccc1S2)NCc1ccc([O-])cc1 (protonated)
O=C([N-]c1ccc2c(c1)N(Cc1ccccc1)C(=O)c1ccccc1S2)NCc1ccc([O-])cc1 (3D coordinates assigned)
O=C([N-]c1ccc2c(c1)N(Cc1ccccc1)C(=O)c1ccccc1S2)NCc1ccc([O-])cc1 (nonaromatic ring conformer: 79.59991128130834 kcal/mol)

>  <smiles>  (37) 
O=C(NCc1ccc(O)cc1)Nc1ccc2c(c1)N(Cc1ccccc1)C(=O)c1ccccc1S2

>  <score_type>  (37) 
oracle

>  <origin>  (37) 
adg

>  <m_score__min__energy>  (37) 
-15.619999999999999

>  <m_primary>  (37) 
energy

$$$$
37:0
     RDKit          3D

 38 39  0  0  0  0  0  0  0  0999 V2000
   59.2440   34.6420   45.4640 C   0  0  0  0  0  0  0  0  0  0  0  0
   58.2860   33.4920   45.7560 C   0  0  0  0  0  0  0  0  0  0  0  0
   58.2330   32.5640   44.6160 N   0  0  0  0  0  0  0  0  0  0  0  0
   58.4630   33.0790   43.2590 C   0  0  0  0  0  0  0  0  0  0  0  0
   57.7780   32.1900   42.2260 C   0  0  0  0  0  0  0  0  0  0  0  0
   57.9380   31.1660   44.8260 C   0  0  0  0  0  0  0  0  0  0  0  0
   56.6600   30.7130   44.7470 N   0  0  0  0  0  0  0  0  0  0  0  0
   56.3560   29.4040   44.9340 C   0  0  0  0  0  0  0  0  0  0  0  0
   55.1510   29.0400   44.8630 O   0  0  0  0  0  0  0  0  0  0  0  0
   57.3760   28.4740   45.2190 C   0  0  0  0  0  0  0  0  0  0  0  0
   57.0480   27.0430   45.4370 C   0  0  0  0  0  0  0  0  0  0  0  0
   55.7970   26.6590   46.0030 N   0  0  0  0  0  0  0  0  0  0  0  0
   57.8680   26.1480   45.0960 O   0  0  0  0  0  0  0  0  0  0  0  0
   58.7000   28.9640   45.2850 C   0  0  0  0  0  0  0  0  0  0  0  0
   60.1210   27.8940   45.5370 S   0  0  0  0  0  0  0  0  0  0  0  0
   60.1290   28.1740   47.3080 C   0  0  0  0  0  0  0  0  0  0  0  0
   59.6400   29.3790   47.8310 C   0  0  0  0  0  0  0  0  0  0  0  0
   59.6380   29.5920   49.2130 C   0  0  0  0  0  0  0  0  0  0  0  0
   60.1270   28.6040   50.0740 C   0  0  0  0  0  0  0  0  0  0  0  0
   60.1250   28.8160   51.4480 O   0  0  0  0  0  0  0  0  0  0  0  0
   60.6200   27.4030   49.5530 C   0  0  0  0  0  0  0  0  0  0  0  0
   60.6240   27.1890   48.1710 C   0  0  0  0  0  0  0  0  0  0  0  0
   58.9380   30.2860   45.0900 N   0  0  0  0  0  0  0  0  0  0  0  0
   59.6014   35.0711   46.4117 H   0  0  0  0  0  0  0  0  0  0  0  0
   60.1009   34.2674   44.8848 H   0  0  0  0  0  0  0  0  0  0  0  0
   58.7207   35.4171   44.8848 H   0  0  0  0  0  0  0  0  0  0  0  0
   58.6323   32.9499   46.6483 H   0  0  0  0  0  0  0  0  0  0  0  0
   57.2799   33.9019   45.9283 H   0  0  0  0  0  0  0  0  0  0  0  0
   58.0567   34.0986   43.1852 H   0  0  0  0  0  0  0  0  0  0  0  0
   59.5449   33.0861   43.0602 H   0  0  0  0  0  0  0  0  0  0  0  0
   57.1847   31.4200   42.7408 H   0  0  0  0  0  0  0  0  0  0  0  0
   57.1162   32.8027   41.5962 H   0  0  0  0  0  0  0  0  0  0  0  0
   58.5391   31.7063   41.5962 H   0  0  0  0  0  0  0  0  0  0  0  0
   55.1030   27.3770   46.3070 H   0  0  0  0  0  0  0  0  0  0  0  0
   59.2577   30.1573   47.1541 H   0  0  0  0  0  0  0  0  0  0  0  0
   59.2518   30.5368   49.6232 H   0  0  0  0  0  0  0  0  0  0  0  0
   61.0047   26.6266   50.2307 H   0  0  0  0  0  0  0  0  0  0  0  0
   61.0163   26.2463   47.7618 H   0  0  0  0  0  0  0  0  0  0  0  0
  1  2  1  0
  2  3  1  0
  3  4  1  0
  4  5  1  0
  3  6  1  0
  6  7  2  0
  7  8  1  0
  8  9  2  0
  8 10  1  0
 10 11  1  0
 11 12  1  0
 11 13  2  0
 10 14  2  0
 14 15  1  0
 15 16  1  0
 16 17  2  0
 17 18  1  0
 18 19  2  0
 19 20  1  0
 19 21  1  0
 21 22  2  0
 14 23  1  0
 23  6  1  0
 22 16  1  0
  1 24  1  0
  1 25  1  0
  1 26  1  0
  2 27  1  0
  2 28  1  0
  4 29  1  0
  4 30  1  0
  5 31  1  0
  5 32  1  0
  5 33  1  0
 12 34  1  0
 17 35  1  0
 18 36  1  0
 21 37  1  0
 22 38  1  0
M  CHG  3  12  -1  20  -1  23  -1
M  END
>  <UniqueID>  (38) 
37

>  <SMILES>  (38) 
CCN(CC)c1nc(=O)c(C([NH-])=O)c(Sc2ccc([O-])cc2)[n-]1

>  <Energy>  (38) 
33.04407966350309

>  <Genealogy>  (38) 
CCN(CC)c1nc(=O)c(C([NH-])=O)c(Sc2ccc([O-])cc2)[n-]1 (protonated)
CCN(CC)c1nc(=O)c(C([NH-])=O)c(Sc2ccc([O-])cc2)[n-]1 (3D coordinates assigned)
CCN(CC)c1nc(=O)c(C([NH-])=O)c(Sc2ccc([O-])cc2)[n-]1 (optimized conformer: 33.04407966350309 kcal/mol)

>  <smiles>  (38) 
CCN(CC)c1nc(=O)c(C(N)=O)c(Sc2ccc(O)cc2)[nH]1

>  <score_type>  (38) 
oracle

>  <origin>  (38) 
adg

>  <m_score__min__energy>  (38) 
-12.09

>  <m_primary>  (38) 
energy

$$$$
38:0
     RDKit          3D

 40 42  0  0  0  0  0  0  0  0999 V2000
   55.5720   29.8670   43.6840 C   0  0  0  0  0  0  0  0  0  0  0  0
   56.2970   30.0040   44.9020 O   0  0  0  0  0  0  0  0  0  0  0  0
   57.6160   29.5720   45.1040 C   0  0  0  0  0  0  0  0  0  0  0  0
   57.9730   28.2120   45.0190 C   0  0  0  0  0  0  0  0  0  0  0  0
   59.2960   27.8160   45.2220 C   0  0  0  0  0  0  0  0  0  0  0  0
   60.2700   28.7620   45.5310 C   0  0  0  0  0  0  0  0  0  0  0  0
   59.9290   30.1130   45.6300 C   0  0  0  0  0  0  0  0  0  0  0  0
   58.6080   30.5270   45.4000 C   0  0  0  0  0  0  0  0  0  0  0  0
   58.2790   31.9690   45.4450 C   0  0  0  0  0  0  0  0  0  0  0  0
   58.7810   32.8380   46.3180 C   0  0  0  0  0  0  0  0  0  0  0  0
   59.5800   32.4700   47.5090 C   0  0  0  0  0  0  0  0  0  0  0  0
   58.9840   31.9920   48.5160 O   0  0  0  0  0  0  0  0  0  0  0  0
   61.0520   32.6640   47.5480 C   0  0  0  0  0  0  0  0  0  0  0  0
   61.6500   33.6830   46.7840 C   0  0  0  0  0  0  0  0  0  0  0  0
   63.0350   33.8420   46.7800 C   0  0  0  0  0  0  0  0  0  0  0  0
   63.8430   32.9840   47.5290 C   0  0  0  0  0  0  0  0  0  0  0  0
   63.2680   31.9660   48.2890 C   0  0  0  0  0  0  0  0  0  0  0  0
   61.8760   31.7980   48.3040 C   0  0  0  0  0  0  0  0  0  0  0  0
   61.3140   30.7820   49.0790 O   0  0  0  0  0  0  0  0  0  0  0  0
   58.3270   34.2280   46.0470 C   0  0  0  0  0  0  0  0  0  0  0  0
   57.3650   34.0960   44.8640 C   0  0  0  0  0  0  0  0  0  0  0  0
   57.3840   32.6190   44.4550 C   0  0  0  0  0  0  0  0  0  0  0  0
   54.5137   29.6670   43.9077 H   0  0  0  0  0  0  0  0  0  0  0  0
   55.6544   30.7966   43.1017 H   0  0  0  0  0  0  0  0  0  0  0  0
   55.9879   29.0315   43.1017 H   0  0  0  0  0  0  0  0  0  0  0  0
   57.2051   27.4580   44.7914 H   0  0  0  0  0  0  0  0  0  0  0  0
   59.5699   26.7540   45.1377 H   0  0  0  0  0  0  0  0  0  0  0  0
   61.3100   28.4448   45.6975 H   0  0  0  0  0  0  0  0  0  0  0  0
   60.6986   30.8550   45.8892 H   0  0  0  0  0  0  0  0  0  0  0  0
   61.0207   34.3585   46.1860 H   0  0  0  0  0  0  0  0  0  0  0  0
   63.4928   34.6459   46.1849 H   0  0  0  0  0  0  0  0  0  0  0  0
   64.9355   33.1115   47.5195 H   0  0  0  0  0  0  0  0  0  0  0  0
   63.9081   31.2930   48.8783 H   0  0  0  0  0  0  0  0  0  0  0  0
   60.3490   30.8210   49.3950 H   0  0  0  0  0  0  0  0  0  0  0  0
   57.8098   34.6454   46.9235 H   0  0  0  0  0  0  0  0  0  0  0  0
   59.1655   34.9058   45.8293 H   0  0  0  0  0  0  0  0  0  0  0  0
   56.3497   34.3949   45.1638 H   0  0  0  0  0  0  0  0  0  0  0  0
   57.6674   34.7454   44.0292 H   0  0  0  0  0  0  0  0  0  0  0  0
   56.3727   32.1891   44.5044 H   0  0  0  0  0  0  0  0  0  0  0  0
   57.7314   32.4764   43.4211 H   0  0  0  0  0  0  0  0  0  0  0  0
  1  2  1  0
  2  3  1  0
  3  4  2  0
  4  5  1  0
  5  6  2  0
  6  7  1  0
  7  8  2  0
  8  9  1  0
  9 10  2  0
 10 11  1  0
 11 12  2  0
 11 13  1  0
 13 14  2  0
 14 15  1  0
 15 16  2  0
 16 17  1  0
 17 18  2  0
 18 19  1  0
 10 20  1  0
 20 21  1  0
 21 22  1  0
  8  3  1  0
 22  9  1  0
 18 13  1  0
  1 23  1  0
  1 24  1  0
  1 25  1  0
  4 26  1  0
  5 27  1  0
  6 28  1  0
  7 29  1  0
 14 30  1  0
 15 31  1  0
 16 32  1  0
 17 33  1  0
 19 34  1  0
 20 35  1  0
 20 36  1  0
 21 37  1  0
 21 38  1  0
 22 39  1  0
 22 40  1  0
M  END
>  <UniqueID>  (39) 
38

>  <SMILES>  (39) 
COc1ccccc1C1=C(C(=O)c2ccccc2O)CCC1

>  <Energy>  (39) 
57.3874827933504

>  <Genealogy>  (39) 
COc1ccccc1C1=C(C(=O)c2ccccc2O)CCC1 (3D coordinates assigned)
COc1ccccc1C1=C(C(=O)c2ccccc2O)CCC1 (nonaromatic ring conformer: 57.3874827933504 kcal/mol)

>  <smiles>  (39) 
COc1ccccc1C1=C(C(=O)c2ccccc2O)CCC1

>  <score_type>  (39) 
oracle

>  <origin>  (39) 
adg

>  <m_score__min__energy>  (39) 
-9.3800000000000008

>  <m_primary>  (39) 
energy

$$$$
39:0
     RDKit          3D

 54 55  0  0  0  0  0  0  0  0999 V2000
   56.2880   21.1090   44.8900 C   0  0  0  0  0  0  0  0  0  0  0  0
   56.8190   22.3810   44.1930 C   0  0  0  0  0  0  0  0  0  0  0  0
   56.5820   22.2410   42.6750 C   0  0  0  0  0  0  0  0  0  0  0  0
   58.3370   22.5210   44.4410 C   0  0  0  0  0  0  0  0  0  0  0  0
   56.0570   23.6410   44.6930 C   0  0  0  0  0  0  0  0  0  0  0  0
   56.9100   24.5900   45.4150 N   0  0  0  0  0  0  0  0  0  0  0  0
   56.3590   25.7430   46.0620 C   0  0  0  0  0  0  0  0  0  0  0  0
   55.1320   26.0100   45.9520 O   0  0  0  0  0  0  0  0  0  0  0  0
   57.2480   26.6430   46.8690 C   0  0  0  0  0  0  0  0  0  0  0  0
   58.6000   26.6780   46.2760 N   0  0  0  0  0  0  0  0  0  0  0  0
   59.4730   27.6500   46.9720 C   0  0  0  0  0  0  0  0  0  0  0  0
   58.9850   29.1040   46.7660 C   0  0  0  0  0  0  0  0  0  0  0  0
   59.3260   29.6910   45.3770 C   0  0  0  0  0  0  0  0  0  0  0  0
   58.3400   29.3920   44.3050 N   0  0  0  0  0  0  0  0  0  0  0  0
   57.1980   30.7090   44.1260 S   0  0  0  0  0  0  0  0  0  0  0  0
   55.9070   30.3620   44.8140 O   0  0  0  0  0  0  0  0  0  0  0  0
   56.8970   30.9110   42.6660 O   0  0  0  0  0  0  0  0  0  0  0  0
   57.8330   32.2050   44.8220 C   0  0  0  0  0  0  0  0  0  0  0  0
   57.7690   32.4020   46.2110 C   0  0  0  0  0  0  0  0  0  0  0  0
   58.2950   33.5630   46.7850 C   0  0  0  0  0  0  0  0  0  0  0  0
   58.8870   34.5370   45.9760 C   0  0  0  0  0  0  0  0  0  0  0  0
   59.4030   35.6600   46.5340 F   0  0  0  0  0  0  0  0  0  0  0  0
   58.9490   34.3530   44.5920 C   0  0  0  0  0  0  0  0  0  0  0  0
   58.4220   33.1950   44.0120 C   0  0  0  0  0  0  0  0  0  0  0  0
   58.4940   33.0420   42.6650 F   0  0  0  0  0  0  0  0  0  0  0  0
   57.6090   28.1120   44.4370 C   0  0  0  0  0  0  0  0  0  0  0  0
   58.5230   26.9270   44.8210 C   0  0  0  0  0  0  0  0  0  0  0  0
   56.3422   21.2389   45.9810 H   0  0  0  0  0  0  0  0  0  0  0  0
   55.2430   20.9371   44.5927 H   0  0  0  0  0  0  0  0  0  0  0  0
   56.9006   20.2451   44.5927 H   0  0  0  0  0  0  0  0  0  0  0  0
   55.6471   21.6887   42.4993 H   0  0  0  0  0  0  0  0  0  0  0  0
   56.5082   23.2405   42.2217 H   0  0  0  0  0  0  0  0  0  0  0  0
   57.4218   21.6939   42.2217 H   0  0  0  0  0  0  0  0  0  0  0  0
   58.5316   22.5389   45.5235 H   0  0  0  0  0  0  0  0  0  0  0  0
   58.8628   21.6675   43.9881 H   0  0  0  0  0  0  0  0  0  0  0  0
   58.6978   23.4562   43.9881 H   0  0  0  0  0  0  0  0  0  0  0  0
   55.6237   24.1546   43.8221 H   0  0  0  0  0  0  0  0  0  0  0  0
   55.2868   23.2956   45.3983 H   0  0  0  0  0  0  0  0  0  0  0  0
   57.9390   24.4350   45.4940 H   0  0  0  0  0  0  0  0  0  0  0  0
   56.8271   27.6592   46.8774 H   0  0  0  0  0  0  0  0  0  0  0  0
   57.3138   26.2590   47.8977 H   0  0  0  0  0  0  0  0  0  0  0  0
   59.4732   27.4227   48.0483 H   0  0  0  0  0  0  0  0  0  0  0  0
   60.4861   27.5645   46.5520 H   0  0  0  0  0  0  0  0  0  0  0  0
   57.8923   29.1230   46.8908 H   0  0  0  0  0  0  0  0  0  0  0  0
   59.5072   29.7234   47.5101 H   0  0  0  0  0  0  0  0  0  0  0  0
   59.3985   30.7840   45.4777 H   0  0  0  0  0  0  0  0  0  0  0  0
   60.2682   29.2154   45.0671 H   0  0  0  0  0  0  0  0  0  0  0  0
   57.3024   31.6385   46.8508 H   0  0  0  0  0  0  0  0  0  0  0  0
   58.2430   33.7101   47.8739 H   0  0  0  0  0  0  0  0  0  0  0  0
   59.4138   35.1216   43.9570 H   0  0  0  0  0  0  0  0  0  0  0  0
   56.8400   28.2270   45.2150 H   0  0  0  0  0  0  0  0  0  0  0  0
   57.1709   27.8824   43.4545 H   0  0  0  0  0  0  0  0  0  0  0  0
   58.1366   26.0194   44.3341 H   0  0  0  0  0  0  0  0  0  0  0  0
   59.5386   27.1853   44.4867 H   0  0  0  0  0  0  0  0  0  0  0  0
  1  2  1  0
  2  3  1  0
  2  4  1  0
  2  5  1  0
  5  6  1  0
  6  7  1  0
  7  8  2  0
  7  9  1  0
  9 10  1  0
 10 11  1  0
 11 12  1  0
 12 13  1  0
 13 14  1  0
 14 15  1  0
 15 16  2  0
 15 17  2  0
 15 18  1  0
 18 19  2  0
 19 20  1  0
 20 21  2  0
 21 22  1  0
 21 23  1  0
 23 24  2  0
 24 25  1  0
 14 26  1  0
 26 27  1  0
 27 10  1  0
 24 18  1  0
  1 28  1  0
  1 29  1  0
  1 30  1  0
  3 31  1  0
  3 32  1  0
  3 33  1  0
  4 34  1  0
  4 35  1  0
  4 36  1  0
  5 37  1  0
  5 38  1  0
  6 39  1  0
  9 40  1  0
  9 41  1  0
 11 42  1  0
 11 43  1  0
 12 44  1  0
 12 45  1  0
 13 46  1  0
 13 47  1  0
 19 48  1  0
 20 49  1  0
 23 50  1  0
 26 51  1  0
 26 52  1  0
 27 53  1  0
 27 54  1  0
M  END
>  <UniqueID>  (40) 
39

>  <SMILES>  (40) 
CC(C)(C)CNC(=O)CN1CCCN(S(=O)(=O)c2ccc(F)cc2F)CC1

>  <Energy>  (40) 
59.358905424111626

>  <Genealogy>  (40) 
CC(C)(C)CNC(=O)CN1CCCN(S(=O)(=O)c2ccc(F)cc2F)CC1 (3D coordinates assigned)
CC(C)(C)CNC(=O)CN1CCCN(S(=O)(=O)c2ccc(F)cc2F)CC1 (nonaromatic ring conformer: 59.358905424111626 kcal/mol)

>  <smiles>  (40) 
CC(C)(C)CNC(=O)CN1CCCN(S(=O)(=O)c2ccc(F)cc2F)CC1

>  <score_type>  (40) 
oracle

>  <origin>  (40) 
adg

>  <m_score__min__energy>  (40) 
-6.7599999999999998

>  <m_primary>  (40) 
energy

$$$$
40:0
     RDKit          3D

 61 64  0  0  0  0  0  0  0  0999 V2000
   53.9580   30.5650   51.6630 C   0  0  0  0  0  0  0  0  0  0  0  0
   55.1040   31.2060   52.2070 O   0  0  0  0  0  0  0  0  0  0  0  0
   56.3940   30.6740   52.0920 C   0  0  0  0  0  0  0  0  0  0  0  0
   56.5600   29.4250   52.0280 O   0  0  0  0  0  0  0  0  0  0  0  0
   57.5630   31.5810   52.0520 C   0  0  0  0  0  0  0  0  0  0  0  0
   57.4270   32.9400   52.3860 C   0  0  0  0  0  0  0  0  0  0  0  0
   58.5300   33.7960   52.3280 C   0  0  0  0  0  0  0  0  0  0  0  0
   59.7750   33.3110   51.9240 C   0  0  0  0  0  0  0  0  0  0  0  0
   59.9300   31.9590   51.5830 C   0  0  0  0  0  0  0  0  0  0  0  0
   61.2260   31.4600   51.0640 C   0  0  0  0  0  0  0  0  0  0  0  0
   61.8380   32.1320   50.1930 O   0  0  0  0  0  0  0  0  0  0  0  0
   61.7800   30.2020   51.4850 N   0  0  0  0  0  0  0  0  0  0  0  0
   61.3470   29.0030   51.1920 C   0  0  0  0  0  0  0  0  0  0  0  0
   61.0180   28.1330   52.2360 C   0  0  0  0  0  0  0  0  0  0  0  0
   60.5880   26.8350   51.9490 C   0  0  0  0  0  0  0  0  0  0  0  0
   60.4850   26.4170   50.6590 N   0  0  0  0  0  0  0  0  0  0  0  0
   60.7660   27.2370   49.6130 C   0  0  0  0  0  0  0  0  0  0  0  0
   60.6850   26.7260   48.3090 O   0  0  0  0  0  0  0  0  0  0  0  0
   59.8490   27.2460   47.3110 C   0  0  0  0  0  0  0  0  0  0  0  0
   58.4650   27.0130   47.3340 C   0  0  0  0  0  0  0  0  0  0  0  0
   57.6420   27.5780   46.3570 C   0  0  0  0  0  0  0  0  0  0  0  0
   58.1980   28.3550   45.3250 C   0  0  0  0  0  0  0  0  0  0  0  0
   57.3830   28.9260   44.2930 N   0  0  0  0  0  0  0  0  0  0  0  0
   56.2340   29.7600   44.5030 C   0  0  0  0  0  0  0  0  0  0  0  0
   55.1530   29.2310   44.8650 O   0  0  0  0  0  0  0  0  0  0  0  0
   56.2860   31.1800   44.3170 N   0  0  0  0  0  0  0  0  0  0  0  0
   57.2040   32.0670   44.9710 C   0  0  0  0  0  0  0  0  0  0  0  0
   57.3950   33.3780   44.5180 C   0  0  0  0  0  0  0  0  0  0  0  0
   58.2680   34.2290   45.1900 C   0  0  0  0  0  0  0  0  0  0  0  0
   58.9660   33.7860   46.3180 C   0  0  0  0  0  0  0  0  0  0  0  0
   60.0380   34.9340   47.1150 Cl  0  0  0  0  0  0  0  0  0  0  0  0
   58.8020   32.4580   46.7840 C   0  0  0  0  0  0  0  0  0  0  0  0
   59.5610   31.9970   48.0260 C   0  0  0  0  0  0  0  0  0  0  0  0
   59.2250   30.5820   48.5110 C   0  0  0  0  0  0  0  0  0  0  0  0
   60.9190   32.0410   47.7620 F   0  0  0  0  0  0  0  0  0  0  0  0
   59.2850   32.8710   49.0660 F   0  0  0  0  0  0  0  0  0  0  0  0
   57.9240   31.6050   46.0780 C   0  0  0  0  0  0  0  0  0  0  0  0
   59.5790   28.5870   45.3080 C   0  0  0  0  0  0  0  0  0  0  0  0
   60.4030   28.0190   46.2840 C   0  0  0  0  0  0  0  0  0  0  0  0
   61.1780   28.5560   49.8670 C   0  0  0  0  0  0  0  0  0  0  0  0
   58.8250   31.0960   51.6650 C   0  0  0  0  0  0  0  0  0  0  0  0
   53.3159   30.2059   52.4808 H   0  0  0  0  0  0  0  0  0  0  0  0
   53.3971   31.2804   51.0436 H   0  0  0  0  0  0  0  0  0  0  0  0
   54.2740   29.7127   51.0436 H   0  0  0  0  0  0  0  0  0  0  0  0
   56.4466   33.3317   52.6948 H   0  0  0  0  0  0  0  0  0  0  0  0
   58.4168   34.8554   52.6016 H   0  0  0  0  0  0  0  0  0  0  0  0
   60.6378   33.9914   51.8728 H   0  0  0  0  0  0  0  0  0  0  0  0
   61.0975   28.4695   53.2802 H   0  0  0  0  0  0  0  0  0  0  0  0
   60.3318   26.1486   52.7695 H   0  0  0  0  0  0  0  0  0  0  0  0
   58.0275   26.3840   48.1233 H   0  0  0  0  0  0  0  0  0  0  0  0
   56.5549   27.4146   46.3949 H   0  0  0  0  0  0  0  0  0  0  0  0
   56.8543   33.7361   43.6295 H   0  0  0  0  0  0  0  0  0  0  0  0
   58.4101   35.2589   44.8306 H   0  0  0  0  0  0  0  0  0  0  0  0
   59.2204   30.5628   49.6108 H   0  0  0  0  0  0  0  0  0  0  0  0
   58.2329   30.2915   48.1351 H   0  0  0  0  0  0  0  0  0  0  0  0
   59.9806   29.8765   48.1351 H   0  0  0  0  0  0  0  0  0  0  0  0
   57.8048   30.5612   46.4040 H   0  0  0  0  0  0  0  0  0  0  0  0
   60.0177   29.2196   44.5223 H   0  0  0  0  0  0  0  0  0  0  0  0
   61.4904   28.1801   46.2448 H   0  0  0  0  0  0  0  0  0  0  0  0
   61.3692   29.2418   49.0284 H   0  0  0  0  0  0  0  0  0  0  0  0
   58.9479   30.0298   51.4240 H   0  0  0  0  0  0  0  0  0  0  0  0
  1  2  1  0
  2  3  1  0
  3  4  2  0
  3  5  1  0
  5  6  2  0
  6  7  1  0
  7  8  2  0
  8  9  1  0
  9 10  1  0
 10 11  2  0
 10 12  1  0
 12 13  2  3
 13 14  1  0
 14 15  2  0
 15 16  1  0
 16 17  1  0
 17 18  1  0
 18 19  1  0
 19 20  2  0
 20 21  1  0
 21 22  2  0
 22 23  1  0
 23 24  1  0
 24 25  2  0
 24 26  1  0
 26 27  1  0
 27 28  2  0
 28 29  1  0
 29 30  2  0
 30 31  1  0
 30 32  1  0
 32 33  1  0
 33 34  1  0
 33 35  1  0
 33 36  1  0
 32 37  2  0
 22 38  1  0
 38 39  2  0
 17 40  2  0
  9 41  2  0
 41  5  1  0
 40 13  1  0
 39 19  1  0
 37 27  1  0
  1 42  1  0
  1 43  1  0
  1 44  1  0
  6 45  1  0
  7 46  1  0
  8 47  1  0
 14 48  1  0
 15 49  1  0
 20 50  1  0
 21 51  1  0
 28 52  1  0
 29 53  1  0
 34 54  1  0
 34 55  1  0
 34 56  1  0
 37 57  1  0
 38 58  1  0
 39 59  1  0
 40 60  1  0
 41 61  1  0
M  CHG  3  16  -1  23  -1  26  -1
M  END
>  <UniqueID>  (41) 
40

>  <SMILES>  (41) 
COC(=O)c1cccc(C(=O)N=c2cc[n-]c(Oc3ccc([N-]C(=O)[N-]c4ccc(Cl)c(C(C)(F)F)c4)cc3)c2)c1

>  <Energy>  (41) 
90.51256428151802

>  <Genealogy>  (41) 
COC(=O)c1cccc(C(=O)N=c2cc[n-]c(Oc3ccc([N-]C(=O)[N-]c4ccc(Cl)c(C(C)(F)F)c4)cc3)c2)c1 (protonated)
COC(=O)c1cccc(C(=O)N=c2cc[n-]c(Oc3ccc([N-]C(=O)[N-]c4ccc(Cl)c(C(C)(F)F)c4)cc3)c2)c1 (3D coordinates assigned)
COC(=O)c1cccc(C(=O)N=c2cc[n-]c(Oc3ccc([N-]C(=O)[N-]c4ccc(Cl)c(C(C)(F)F)c4)cc3)c2)c1 (optimized conformer: 90.51256428151802 kcal/mol)

>  <smiles>  (41) 
COC(=O)c1cccc(C(=O)N=c2cc[nH]c(Oc3ccc(NC(=O)Nc4ccc(Cl)c(C(C)(F)F)c4)cc3)c2)c1

>  <score_type>  (41) 
oracle

>  <origin>  (41) 
adg

>  <m_score__min__energy>  (41) 
-14.83

>  <m_primary>  (41) 
energy

$$$$
41:0
     RDKit          3D

 51 54  0  0  0  0  0  0  0  0999 V2000
   67.7970   31.9990   51.6280 C   0  0  0  0  0  0  0  0  0  0  0  0
   67.3270   33.4400   50.6940 S   0  0  0  0  0  0  0  0  0  0  0  0
   67.0540   34.5960   51.6140 O   0  0  0  0  0  0  0  0  0  0  0  0
   68.4580   33.8100   49.7760 O   0  0  0  0  0  0  0  0  0  0  0  0
   65.9230   33.0970   49.7340 N   0  0  0  0  0  0  0  0  0  0  0  0
   64.5600   33.3220   50.1220 C   0  0  0  0  0  0  0  0  0  0  0  0
   64.2280   33.9660   51.3270 C   0  0  0  0  0  0  0  0  0  0  0  0
   62.8930   34.1910   51.6610 C   0  0  0  0  0  0  0  0  0  0  0  0
   61.8760   33.7610   50.8120 C   0  0  0  0  0  0  0  0  0  0  0  0
   62.1780   33.0910   49.6160 C   0  0  0  0  0  0  0  0  0  0  0  0
   61.0560   32.5800   48.8010 C   0  0  0  0  0  0  0  0  0  0  0  0
   60.6280   33.2690   47.7090 N   0  0  0  0  0  0  0  0  0  0  0  0
   59.6190   32.7890   46.9400 C   0  0  0  0  0  0  0  0  0  0  0  0
   59.1920   33.4990   45.8140 C   0  0  0  0  0  0  0  0  0  0  0  0
   58.1590   32.9940   45.0200 C   0  0  0  0  0  0  0  0  0  0  0  0
   57.5300   31.7870   45.3520 C   0  0  0  0  0  0  0  0  0  0  0  0
   56.5050   31.2850   44.4850 N   0  0  0  0  0  0  0  0  0  0  0  0
   56.2010   29.9030   44.2500 C   0  0  0  0  0  0  0  0  0  0  0  0
   55.2600   29.3460   44.8760 O   0  0  0  0  0  0  0  0  0  0  0  0
   56.9050   29.1470   43.1990 C   0  0  0  0  0  0  0  0  0  0  0  0
   57.7720   28.1470   43.4170 C   0  0  0  0  0  0  0  0  0  0  0  0
   58.4670   27.8850   44.6950 C   0  0  0  0  0  0  0  0  0  0  0  0
   59.7660   28.3720   44.9340 C   0  0  0  0  0  0  0  0  0  0  0  0
   60.3980   28.1280   46.1570 C   0  0  0  0  0  0  0  0  0  0  0  0
   59.7280   27.4240   47.1620 C   0  0  0  0  0  0  0  0  0  0  0  0
   60.5210   27.1180   48.6970 Cl  0  0  0  0  0  0  0  0  0  0  0  0
   58.4230   26.9700   46.9450 C   0  0  0  0  0  0  0  0  0  0  0  0
   57.7920   27.2080   45.7210 C   0  0  0  0  0  0  0  0  0  0  0  0
   57.9710   31.0620   46.4750 C   0  0  0  0  0  0  0  0  0  0  0  0
   59.0130   31.5640   47.2730 C   0  0  0  0  0  0  0  0  0  0  0  0
   59.5030   30.8880   48.4010 C   0  0  0  0  0  0  0  0  0  0  0  0
   59.0130   29.7820   48.7550 O   0  0  0  0  0  0  0  0  0  0  0  0
   60.4950   31.4140   49.1120 O   0  0  0  0  0  0  0  0  0  0  0  0
   63.5360   32.9020   49.2550 C   0  0  0  0  0  0  0  0  0  0  0  0
   63.9030   32.3330   48.0310 O   0  0  0  0  0  0  0  0  0  0  0  0
   67.7251   32.2195   52.7033 H   0  0  0  0  0  0  0  0  0  0  0  0
   67.1243   31.1651   51.3789 H   0  0  0  0  0  0  0  0  0  0  0  0
   68.8320   31.7221   51.3789 H   0  0  0  0  0  0  0  0  0  0  0  0
   65.0256   34.2941   52.0098 H   0  0  0  0  0  0  0  0  0  0  0  0
   62.6422   34.7098   52.5980 H   0  0  0  0  0  0  0  0  0  0  0  0
   60.8260   33.9482   51.0813 H   0  0  0  0  0  0  0  0  0  0  0  0
   59.6692   34.4551   45.5531 H   0  0  0  0  0  0  0  0  0  0  0  0
   57.8369   33.5490   44.1265 H   0  0  0  0  0  0  0  0  0  0  0  0
   56.7037   29.4245   42.1538 H   0  0  0  0  0  0  0  0  0  0  0  0
   57.9826   27.4677   42.5778 H   0  0  0  0  0  0  0  0  0  0  0  0
   60.2865   28.9476   44.1544 H   0  0  0  0  0  0  0  0  0  0  0  0
   61.4225   28.4900   46.3285 H   0  0  0  0  0  0  0  0  0  0  0  0
   57.8923   26.4246   47.7393 H   0  0  0  0  0  0  0  0  0  0  0  0
   56.7600   26.8623   45.5614 H   0  0  0  0  0  0  0  0  0  0  0  0
   57.4993   30.1011   46.7283 H   0  0  0  0  0  0  0  0  0  0  0  0
   64.8600   32.2760   47.7080 H   0  0  0  0  0  0  0  0  0  0  0  0
  1  2  1  0
  2  3  2  0
  2  4  2  0
  2  5  1  0
  5  6  1  0
  6  7  2  0
  7  8  1  0
  8  9  2  0
  9 10  1  0
 10 11  1  0
 11 12  2  0
 12 13  1  0
 13 14  2  0
 14 15  1  0
 15 16  2  0
 16 17  1  0
 17 18  1  0
 18 19  2  0
 18 20  1  0
 20 21  2  3
 21 22  1  0
 22 23  2  0
 23 24  1  0
 24 25  2  0
 25 26  1  0
 25 27  1  0
 27 28  2  0
 16 29  1  0
 29 30  2  0
 30 31  1  0
 31 32  2  0
 31 33  1  0
 10 34  2  0
 34 35  1  0
 34  6  1  0
 33 11  1  0
 30 13  1  0
 28 22  1  0
  1 36  1  0
  1 37  1  0
  1 38  1  0
  7 39  1  0
  8 40  1  0
  9 41  1  0
 14 42  1  0
 15 43  1  0
 20 44  1  0
 21 45  1  0
 23 46  1  0
 24 47  1  0
 27 48  1  0
 28 49  1  0
 29 50  1  0
 35 51  1  0
M  CHG  2   5  -1  17  -1
M  END
>  <UniqueID>  (42) 
41

>  <SMILES>  (42) 
CS(=O)(=O)[N-]c1cccc(-c2nc3ccc([N-]C(=O)C=Cc4ccc(Cl)cc4)cc3c(=O)o2)c1O

>  <Energy>  (42) 
76.15476363530192

>  <Genealogy>  (42) 
CS(=O)(=O)[N-]c1cccc(-c2nc3ccc([N-]C(=O)C=Cc4ccc(Cl)cc4)cc3c(=O)o2)c1O (protonated)
CS(=O)(=O)[N-]c1cccc(-c2nc3ccc([N-]C(=O)C=Cc4ccc(Cl)cc4)cc3c(=O)o2)c1O (3D coordinates assigned)
CS(=O)(=O)[N-]c1cccc(-c2nc3ccc([N-]C(=O)C=Cc4ccc(Cl)cc4)cc3c(=O)o2)c1O (optimized conformer: 76.15476363530192 kcal/mol)

>  <smiles>  (42) 
CS(=O)(=O)Nc1cccc(-c2nc3ccc(NC(=O)C=Cc4ccc(Cl)cc4)cc3c(=O)o2)c1O

>  <score_type>  (42) 
oracle

>  <origin>  (42) 
adg

>  <m_score__min__energy>  (42) 
-13.84

>  <m_primary>  (42) 
energy

$$$$
42:0
     RDKit          3D

 46 49  0  0  0  0  0  0  0  0999 V2000
   56.5744   23.7219   45.9081 H   0  0  0  0  0  0  0  0  0  0  0  0
   56.3910   24.8060   45.9410 C   0  0  0  0  0  0  0  0  0  0  0  0
   55.2130   25.3810   46.0240 O   0  0  0  0  0  0  0  0  0  0  0  0
   55.3140   26.6790   46.0440 N   0  0  0  0  0  0  0  0  0  0  0  0
   56.6260   26.9600   45.9650 C   0  0  0  0  0  0  0  0  0  0  0  0
   57.0760   28.1830   45.9660 N   0  0  0  0  0  0  0  0  0  0  0  0
   56.6170   29.2930   45.1800 C   0  0  0  0  0  0  0  0  0  0  0  0
   55.4020   29.4130   44.8680 O   0  0  0  0  0  0  0  0  0  0  0  0
   57.5710   30.2670   44.7470 N   0  0  0  0  0  0  0  0  0  0  0  0
   57.7860   31.5580   45.3370 C   0  0  0  0  0  0  0  0  0  0  0  0
   57.0230   32.6400   44.8850 C   0  0  0  0  0  0  0  0  0  0  0  0
   56.2580   32.4838   44.1102 H   0  0  0  0  0  0  0  0  0  0  0  0
   57.2270   33.9180   45.4120 C   0  0  0  0  0  0  0  0  0  0  0  0
   56.6135   34.7611   45.0617 H   0  0  0  0  0  0  0  0  0  0  0  0
   58.2090   34.1260   46.3830 C   0  0  0  0  0  0  0  0  0  0  0  0
   58.3711   35.1344   46.7915 H   0  0  0  0  0  0  0  0  0  0  0  0
   58.9910   33.0510   46.8400 C   0  0  0  0  0  0  0  0  0  0  0  0
   60.0450   33.2410   47.7960 N   0  0  0  0  0  0  0  0  0  0  0  0
   61.4470   33.3170   47.5040 C   0  0  0  0  0  0  0  0  0  0  0  0
   61.8020   33.7420   46.3730 O   0  0  0  0  0  0  0  0  0  0  0  0
   62.4770   32.8630   48.4680 C   0  0  0  0  0  0  0  0  0  0  0  0
   63.7900   33.3530   48.3800 C   0  0  0  0  0  0  0  0  0  0  0  0
   64.0480   34.0850   47.6006 H   0  0  0  0  0  0  0  0  0  0  0  0
   64.7720   32.9180   49.2750 C   0  0  0  0  0  0  0  0  0  0  0  0
   65.7978   33.3063   49.1916 H   0  0  0  0  0  0  0  0  0  0  0  0
   64.4590   31.9930   50.2750 C   0  0  0  0  0  0  0  0  0  0  0  0
   65.4750   31.5670   51.1430 O   0  0  0  0  0  0  0  0  0  0  0  0
   65.8820   30.2360   51.3200 C   0  0  0  0  0  0  0  0  0  0  0  0
   65.0460   29.2750   51.9160 C   0  0  0  0  0  0  0  0  0  0  0  0
   64.0375   29.5588   52.2514 H   0  0  0  0  0  0  0  0  0  0  0  0
   65.4910   27.9610   52.0840 C   0  0  0  0  0  0  0  0  0  0  0  0
   64.8290   27.2104   52.5404 H   0  0  0  0  0  0  0  0  0  0  0  0
   66.7780   27.6000   51.6720 C   0  0  0  0  0  0  0  0  0  0  0  0
   67.1264   26.5645   51.7999 H   0  0  0  0  0  0  0  0  0  0  0  0
   67.6210   28.5550   51.0980 C   0  0  0  0  0  0  0  0  0  0  0  0
   68.6351   28.2721   50.7795 H   0  0  0  0  0  0  0  0  0  0  0  0
   67.1770   29.8700   50.9280 C   0  0  0  0  0  0  0  0  0  0  0  0
   67.8473   30.6209   50.4844 H   0  0  0  0  0  0  0  0  0  0  0  0
   63.1540   31.4770   50.3510 C   0  0  0  0  0  0  0  0  0  0  0  0
   62.9042   30.7312   51.1200 H   0  0  0  0  0  0  0  0  0  0  0  0
   62.1720   31.9070   49.4540 C   0  0  0  0  0  0  0  0  0  0  0  0
   61.1541   31.4952   49.5195 H   0  0  0  0  0  0  0  0  0  0  0  0
   58.7890   31.7750   46.2990 C   0  0  0  0  0  0  0  0  0  0  0  0
   59.4195   30.9362   46.6289 H   0  0  0  0  0  0  0  0  0  0  0  0
   57.3590   25.7860   45.9020 C   0  0  0  0  0  0  0  0  0  0  0  0
   58.4504   25.6653   45.8366 H   0  0  0  0  0  0  0  0  0  0  0  0
  1  2  1  0
  2  3  1  0
  3  4  1  0
  4  5  1  0
  5  6  2  0
  6  7  1  0
  7  8  2  0
  7  9  1  0
  9 10  1  0
 10 11  2  0
 11 12  1  0
 11 13  1  0
 13 14  1  0
 13 15  2  0
 15 16  1  0
 15 17  1  0
 17 18  1  0
 18 19  1  0
 19 20  2  0
 19 21  1  0
 21 22  2  0
 22 23  1  0
 22 24  1  0
 24 25  1  0
 24 26  2  0
 26 27  1  0
 27 28  1  0
 28 29  2  0
 29 30  1  0
 29 31  1  0
 31 32  1  0
 31 33  2  0
 33 34  1  0
 33 35  1  0
 35 36  1  0
 35 37  2  0
 37 38  1  0
 26 39  1  0
 39 40  1  0
 39 41  2  0
 41 42  1  0
 17 43  2  0
 43 44  1  0
  5 45  1  0
 45 46  1  0
 45  2  2  0
 43 10  1  0
 41 21  1  0
 37 28  1  0
M  CHG  3   4  -1   9  -1  18  -1
M  END
>  <UniqueID>  (43) 
42

>  <SMILES>  (43) 
O=C(/N=c1\cco[n-]1)[N-]c1cccc([N-]C(=O)c2ccc(Oc3ccccc3)cc2)c1

>  <Energy>  (43) 
102.75940930873297

>  <Genealogy>  (43) 
O=C(N=c1cco[n-]1)[N-]c1cccc([N-]C(=O)c2ccc(Oc3ccccc3)cc2)c1 (protonated)
O=C(/N=c1\cco[n-]1)[N-]c1cccc([N-]C(=O)c2ccc(Oc3ccccc3)cc2)c1 (cis-trans isomerization)
O=C(/N=c1\cco[n-]1)[N-]c1cccc([N-]C(=O)c2ccc(Oc3ccccc3)cc2)c1 (3D coordinates assigned)
O=C(/N=c1\cco[n-]1)[N-]c1cccc([N-]C(=O)c2ccc(Oc3ccccc3)cc2)c1 (optimized conformer: 102.75940930873297 kcal/mol)

>  <smiles>  (43) 
O=C(N=c1cco[nH]1)Nc1cccc(NC(=O)c2ccc(Oc3ccccc3)cc2)c1

>  <score_type>  (43) 
oracle

>  <origin>  (43) 
adg

>  <m_score__min__energy>  (43) 
-13.81

>  <m_primary>  (43) 
energy

$$$$
43:0
     RDKit          3D

 58 61  0  0  0  0  0  0  0  0999 V2000
   59.6110   24.9880   45.9970 C   0  0  0  0  0  0  0  0  0  0  0  0
   58.8750   26.2170   45.5510 C   0  0  0  0  0  0  0  0  0  0  0  0
   58.4860   27.1800   46.4930 C   0  0  0  0  0  0  0  0  0  0  0  0
   57.7590   28.3040   46.0910 C   0  0  0  0  0  0  0  0  0  0  0  0
   57.3850   28.4640   44.7480 C   0  0  0  0  0  0  0  0  0  0  0  0
   56.4270   29.8550   44.2430 S   0  0  0  0  0  0  0  0  0  0  0  0
   56.4140   29.9740   42.7430 O   0  0  0  0  0  0  0  0  0  0  0  0
   55.0110   29.6510   44.7090 O   0  0  0  0  0  0  0  0  0  0  0  0
   57.0400   31.3180   44.9520 N   0  0  0  0  0  0  0  0  0  0  0  0
   58.4180   31.6220   45.2010 C   0  0  0  0  0  0  0  0  0  0  0  0
   59.2720   30.7050   45.0630 O   0  0  0  0  0  0  0  0  0  0  0  0
   58.8560   32.9540   45.6680 C   0  0  0  0  0  0  0  0  0  0  0  0
   58.7300   34.0490   44.7990 C   0  0  0  0  0  0  0  0  0  0  0  0
   59.2440   35.2970   45.1530 C   0  0  0  0  0  0  0  0  0  0  0  0
   59.8990   35.4610   46.3710 C   0  0  0  0  0  0  0  0  0  0  0  0
   59.9780   34.4010   47.2810 C   0  0  0  0  0  0  0  0  0  0  0  0
   60.7070   34.5870   48.4990 N   0  0  0  0  0  0  0  0  0  0  0  0
   61.9300   33.8910   48.7840 C   0  0  0  0  0  0  0  0  0  0  0  0
   62.9510   33.8380   47.8170 C   0  0  0  0  0  0  0  0  0  0  0  0
   64.1300   33.1340   48.0690 C   0  0  0  0  0  0  0  0  0  0  0  0
   64.2970   32.4640   49.2800 C   0  0  0  0  0  0  0  0  0  0  0  0
   63.2880   32.4970   50.2440 C   0  0  0  0  0  0  0  0  0  0  0  0
   62.1010   33.2090   50.0100 C   0  0  0  0  0  0  0  0  0  0  0  0
   61.1010   33.2590   51.0350 N   0  0  0  0  0  0  0  0  0  0  0  0
   59.4140   33.1480   46.9560 C   0  0  0  0  0  0  0  0  0  0  0  0
   59.4780   32.0630   47.8960 N   0  0  0  0  0  0  0  0  0  0  0  0
   60.4850   31.0060   47.6920 C   0  0  0  0  0  0  0  0  0  0  0  0
   60.6650   30.0730   48.9170 C   0  0  0  0  0  0  0  0  0  0  0  0
   60.1330   30.6160   50.1090 O   0  0  0  0  0  0  0  0  0  0  0  0
   58.7570   30.8660   49.9260 C   0  0  0  0  0  0  0  0  0  0  0  0
   58.5890   32.1040   49.0600 C   0  0  0  0  0  0  0  0  0  0  0  0
   57.7770   27.5070   43.8040 C   0  0  0  0  0  0  0  0  0  0  0  0
   58.5110   26.3840   44.2040 C   0  0  0  0  0  0  0  0  0  0  0  0
   59.6325   24.9521   47.0962 H   0  0  0  0  0  0  0  0  0  0  0  0
   59.0995   24.0940   45.6109 H   0  0  0  0  0  0  0  0  0  0  0  0
   60.6406   25.0168   45.6109 H   0  0  0  0  0  0  0  0  0  0  0  0
   58.7539   27.0504   47.5520 H   0  0  0  0  0  0  0  0  0  0  0  0
   57.4784   29.0675   46.8315 H   0  0  0  0  0  0  0  0  0  0  0  0
   58.2222   33.9224   43.8315 H   0  0  0  0  0  0  0  0  0  0  0  0
   59.1318   36.1517   44.4697 H   0  0  0  0  0  0  0  0  0  0  0  0
   60.3571   36.4298   46.6192 H   0  0  0  0  0  0  0  0  0  0  0  0
   60.2280   35.0940   49.2780 H   0  0  0  0  0  0  0  0  0  0  0  0
   62.8191   34.3552   46.8552 H   0  0  0  0  0  0  0  0  0  0  0  0
   64.9274   33.1080   47.3117 H   0  0  0  0  0  0  0  0  0  0  0  0
   65.2257   31.9082   49.4763 H   0  0  0  0  0  0  0  0  0  0  0  0
   63.4241   31.9607   51.1947 H   0  0  0  0  0  0  0  0  0  0  0  0
   60.4690   32.4430   51.2010 H   0  0  0  0  0  0  0  0  0  0  0  0
   61.0100   34.0730   51.6810 H   0  0  0  0  0  0  0  0  0  0  0  0
   60.1768   30.3940   46.8315 H   0  0  0  0  0  0  0  0  0  0  0  0
   61.4494   31.5082   47.5255 H   0  0  0  0  0  0  0  0  0  0  0  0
   60.1570   29.1197   48.7090 H   0  0  0  0  0  0  0  0  0  0  0  0
   61.7457   29.9379   49.0712 H   0  0  0  0  0  0  0  0  0  0  0  0
   58.2882   30.0031   49.4304 H   0  0  0  0  0  0  0  0  0  0  0  0
   58.2759   31.0275   50.9020 H   0  0  0  0  0  0  0  0  0  0  0  0
   57.5466   32.1601   48.7132 H   0  0  0  0  0  0  0  0  0  0  0  0
   58.8462   32.9874   49.6629 H   0  0  0  0  0  0  0  0  0  0  0  0
   57.5076   27.6379   42.7456 H   0  0  0  0  0  0  0  0  0  0  0  0
   58.8043   25.6285   43.4602 H   0  0  0  0  0  0  0  0  0  0  0  0
  1  2  1  0
  2  3  2  0
  3  4  1  0
  4  5  2  0
  5  6  1  0
  6  7  2  0
  6  8  2  0
  6  9  1  0
  9 10  1  0
 10 11  2  0
 10 12  1  0
 12 13  2  0
 13 14  1  0
 14 15  2  0
 15 16  1  0
 16 17  1  0
 17 18  1  0
 18 19  2  0
 19 20  1  0
 20 21  2  0
 21 22  1  0
 22 23  2  0
 23 24  1  0
 16 25  2  0
 25 26  1  0
 26 27  1  0
 27 28  1  0
 28 29  1  0
 29 30  1  0
 30 31  1  0
  5 32  1  0
 32 33  2  0
 33  2  1  0
 25 12  1  0
 31 26  1  0
 23 18  1  0
  1 34  1  0
  1 35  1  0
  1 36  1  0
  3 37  1  0
  4 38  1  0
 13 39  1  0
 14 40  1  0
 15 41  1  0
 17 42  1  0
 19 43  1  0
 20 44  1  0
 21 45  1  0
 22 46  1  0
 24 47  1  0
 24 48  1  0
 27 49  1  0
 27 50  1  0
 28 51  1  0
 28 52  1  0
 30 53  1  0
 30 54  1  0
 31 55  1  0
 31 56  1  0
 32 57  1  0
 33 58  1  0
M  CHG  1   9  -1
M  END
>  <UniqueID>  (44) 
43

>  <SMILES>  (44) 
Cc1ccc(S(=O)(=O)[N-]C(=O)c2cccc(Nc3ccccc3N)c2N2CCOCC2)cc1

>  <Energy>  (44) 
83.34423620567945

>  <Genealogy>  (44) 
Cc1ccc(S(=O)(=O)[N-]C(=O)c2cccc(Nc3ccccc3N)c2N2CCOCC2)cc1 (protonated)
Cc1ccc(S(=O)(=O)[N-]C(=O)c2cccc(Nc3ccccc3N)c2N2CCOCC2)cc1 (3D coordinates assigned)
Cc1ccc(S(=O)(=O)[N-]C(=O)c2cccc(Nc3ccccc3N)c2N2CCOCC2)cc1 (nonaromatic ring conformer: 83.34423620567945 kcal/mol)

>  <smiles>  (44) 
Cc1ccc(S(=O)(=O)NC(=O)c2cccc(Nc3ccccc3N)c2N2CCOCC2)cc1

>  <score_type>  (44) 
oracle

>  <origin>  (44) 
adg

>  <m_score__min__energy>  (44) 
-11.300000000000001

>  <m_primary>  (44) 
energy

$$$$
44:0
     RDKit          3D

 70 74  0  0  0  0  0  0  0  0999 V2000
   63.9846   35.4635   51.5932 H   0  0  0  0  0  0  0  0  0  0  0  0
   63.6970   34.4950   51.1580 C   0  0  0  0  0  0  0  0  0  0  0  0
   64.2740   33.3490   51.6080 N   0  0  0  0  0  0  0  0  0  0  0  0
   63.9290   32.1390   51.0870 C   0  0  0  0  0  0  0  0  0  0  0  0
   64.4600   31.0340   51.5220 N   0  0  0  0  0  0  0  0  0  0  0  0
   63.8530   29.7320   51.5780 C   0  0  0  0  0  0  0  0  0  0  0  0
   62.4910   29.5470   51.3060 C   0  0  0  0  0  0  0  0  0  0  0  0
   61.8895   30.3908   50.9368 H   0  0  0  0  0  0  0  0  0  0  0  0
   61.8910   28.3030   51.4990 C   0  0  0  0  0  0  0  0  0  0  0  0
   60.8248   28.1746   51.2607 H   0  0  0  0  0  0  0  0  0  0  0  0
   62.6280   27.2050   51.9950 C   0  0  0  0  0  0  0  0  0  0  0  0
   61.9780   25.9260   52.2690 N   0  0  0  0  0  0  0  0  0  0  0  0
   60.5020   25.8660   52.3160 C   0  0  0  0  0  0  0  0  0  0  0  0
   60.1371   26.6794   52.9604 H   0  0  0  0  0  0  0  0  0  0  0  0
   60.1325   25.9668   51.2848 H   0  0  0  0  0  0  0  0  0  0  0  0
   59.9840   24.5410   52.8630 C   0  0  0  0  0  0  0  0  0  0  0  0
   60.1475   24.5067   53.9502 H   0  0  0  0  0  0  0  0  0  0  0  0
   58.9092   24.4554   52.6449 H   0  0  0  0  0  0  0  0  0  0  0  0
   60.6670   23.4690   52.2540 O   0  0  0  0  0  0  0  0  0  0  0  0
   61.9830   23.4400   52.7530 C   0  0  0  0  0  0  0  0  0  0  0  0
   61.9442   23.3847   53.8509 H   0  0  0  0  0  0  0  0  0  0  0  0
   62.4867   22.5608   52.3249 H   0  0  0  0  0  0  0  0  0  0  0  0
   62.7870   24.6880   52.3480 C   0  0  0  0  0  0  0  0  0  0  0  0
   63.5838   24.8422   53.0905 H   0  0  0  0  0  0  0  0  0  0  0  0
   63.1801   24.4996   51.3381 H   0  0  0  0  0  0  0  0  0  0  0  0
   64.0070   27.3990   52.2410 C   0  0  0  0  0  0  0  0  0  0  0  0
   64.6176   26.5521   52.5872 H   0  0  0  0  0  0  0  0  0  0  0  0
   64.6140   28.6570   52.0510 C   0  0  0  0  0  0  0  0  0  0  0  0
   65.9750   28.8770   52.3250 O   0  0  0  0  0  0  0  0  0  0  0  0
   66.9770   29.0940   51.3370 C   0  0  0  0  0  0  0  0  0  0  0  0
   67.9384   29.3022   51.8293 H   0  0  0  0  0  0  0  0  0  0  0  0
   67.0735   28.1959   50.7092 H   0  0  0  0  0  0  0  0  0  0  0  0
   66.6933   29.9515   50.7092 H   0  0  0  0  0  0  0  0  0  0  0  0
   62.9950   32.0740   50.1050 N   0  0  0  0  0  0  0  0  0  0  0  0
   62.3940   33.1900   49.6110 C   0  0  0  0  0  0  0  0  0  0  0  0
   61.4450   33.0530   48.4840 C   0  0  0  0  0  0  0  0  0  0  0  0
   61.2380   31.7900   47.9000 C   0  0  0  0  0  0  0  0  0  0  0  0
   61.7775   30.9149   48.2913 H   0  0  0  0  0  0  0  0  0  0  0  0
   60.3560   31.6350   46.8300 C   0  0  0  0  0  0  0  0  0  0  0  0
   60.2174   30.6438   46.3736 H   0  0  0  0  0  0  0  0  0  0  0  0
   59.6440   32.7400   46.3330 C   0  0  0  0  0  0  0  0  0  0  0  0
   58.7870   32.6290   45.1870 N   0  0  0  0  0  0  0  0  0  0  0  0
   57.3580   32.5340   45.2360 C   0  0  0  0  0  0  0  0  0  0  0  0
   56.7180   33.2860   46.0200 O   0  0  0  0  0  0  0  0  0  0  0  0
   56.6740   31.5280   44.4740 N   0  0  0  0  0  0  0  0  0  0  0  0
   56.6050   30.2660   44.7850 C   0  0  0  0  0  0  0  0  0  0  0  0
   55.4400   29.5990   44.8480 N   0  0  0  0  0  0  0  0  0  0  0  0
   55.7260   28.3940   45.2410 O   0  0  0  0  0  0  0  0  0  0  0  0
   57.0200   28.2430   45.4410 C   0  0  0  0  0  0  0  0  0  0  0  0
   57.6600   26.9820   45.9890 C   0  0  0  0  0  0  0  0  0  0  0  0
   56.5680   25.9690   46.3920 C   0  0  0  0  0  0  0  0  0  0  0  0
   56.5071   25.9125   47.4889 H   0  0  0  0  0  0  0  0  0  0  0  0
   55.5984   26.2946   45.9872 H   0  0  0  0  0  0  0  0  0  0  0  0
   56.8200   24.9777   45.9872 H   0  0  0  0  0  0  0  0  0  0  0  0
   58.4880   27.3520   47.2340 C   0  0  0  0  0  0  0  0  0  0  0  0
   57.9198   27.0981   48.1410 H   0  0  0  0  0  0  0  0  0  0  0  0
   59.4342   26.7911   47.2251 H   0  0  0  0  0  0  0  0  0  0  0  0
   58.7013   28.4311   47.2251 H   0  0  0  0  0  0  0  0  0  0  0  0
   58.5740   26.3320   44.9300 C   0  0  0  0  0  0  0  0  0  0  0  0
   59.3715   25.7649   45.4323 H   0  0  0  0  0  0  0  0  0  0  0  0
   57.9806   25.6519   44.3012 H   0  0  0  0  0  0  0  0  0  0  0  0
   59.0217   27.1157   44.3012 H   0  0  0  0  0  0  0  0  0  0  0  0
   57.6520   29.4440   45.1640 C   0  0  0  0  0  0  0  0  0  0  0  0
   58.7232   29.6853   45.2292 H   0  0  0  0  0  0  0  0  0  0  0  0
   59.8410   33.9960   46.9170 C   0  0  0  0  0  0  0  0  0  0  0  0
   59.2855   34.8659   46.5366 H   0  0  0  0  0  0  0  0  0  0  0  0
   60.7380   34.1580   47.9810 C   0  0  0  0  0  0  0  0  0  0  0  0
   60.8892   35.1535   48.4239 H   0  0  0  0  0  0  0  0  0  0  0  0
   62.7390   34.4420   50.1430 C   0  0  0  0  0  0  0  0  0  0  0  0
   62.2653   35.3615   49.7688 H   0  0  0  0  0  0  0  0  0  0  0  0
  1  2  1  0
  2  3  1  0
  3  4  1  0
  4  5  2  0
  5  6  1  0
  6  7  2  0
  7  8  1  0
  7  9  1  0
  9 10  1  0
  9 11  2  0
 11 12  1  0
 12 13  1  0
 13 14  1  0
 13 15  1  0
 13 16  1  0
 16 17  1  0
 16 18  1  0
 16 19  1  0
 19 20  1  0
 20 21  1  0
 20 22  1  0
 20 23  1  0
 23 24  1  0
 23 25  1  0
 11 26  1  0
 26 27  1  0
 26 28  2  0
 28 29  1  0
 29 30  1  0
 30 31  1  0
 30 32  1  0
 30 33  1  0
  4 34  1  0
 34 35  2  0
 35 36  1  0
 36 37  2  0
 37 38  1  0
 37 39  1  0
 39 40  1  0
 39 41  2  0
 41 42  1  0
 42 43  1  0
 43 44  2  0
 43 45  1  0
 45 46  2  3
 46 47  1  0
 47 48  1  0
 48 49  1  0
 49 50  1  0
 50 51  1  0
 51 52  1  0
 51 53  1  0
 51 54  1  0
 50 55  1  0
 55 56  1  0
 55 57  1  0
 55 58  1  0
 50 59  1  0
 59 60  1  0
 59 61  1  0
 59 62  1  0
 49 63  2  0
 63 64  1  0
 41 65  1  0
 65 66  1  0
 65 67  2  0
 67 68  1  0
 35 69  1  0
 69 70  1  0
 69  2  2  0
 28  6  1  0
 67 36  1  0
 23 12  1  0
 63 46  1  0
M  CHG  3   3  -1  42  -1  47  -1
M  END
>  <UniqueID>  (45) 
44

>  <SMILES>  (45) 
COc1cc(N2CCOCC2)ccc1/N=c1/nc(-c2ccc([N-]C(=O)N=c3cc(C(C)(C)C)o[n-]3)cc2)cc[n-]1

>  <Energy>  (45) 
131.79409840567251

>  <Genealogy>  (45) 
COc1cc(N2CCOCC2)ccc1N=c1nc(-c2ccc([N-]C(=O)N=c3cc(C(C)(C)C)o[n-]3)cc2)cc[n-]1 (protonated)
COc1cc(N2CCOCC2)ccc1/N=c1/nc(-c2ccc([N-]C(=O)N=c3cc(C(C)(C)C)o[n-]3)cc2)cc[n-]1 (cis-trans isomerization)
COc1cc(N2CCOCC2)ccc1/N=c1/nc(-c2ccc([N-]C(=O)N=c3cc(C(C)(C)C)o[n-]3)cc2)cc[n-]1 (3D coordinates assigned)
COc1cc(N2CCOCC2)ccc1/N=c1/nc(-c2ccc([N-]C(=O)N=c3cc(C(C)(C)C)o[n-]3)cc2)cc[n-]1 (nonaromatic ring conformer: 131.79409840567251 kcal/mol)

>  <smiles>  (45) 
COc1cc(N2CCOCC2)ccc1N=c1nc(-c2ccc(NC(=O)N=c3cc(C(C)(C)C)o[nH]3)cc2)cc[nH]1

>  <score_type>  (45) 
oracle

>  <origin>  (45) 
adg

>  <m_score__min__energy>  (45) 
-13.550000000000001

>  <m_primary>  (45) 
energy

$$$$
45:0
     RDKit          3D

 52 54  0  0  0  0  0  0  0  0999 V2000
   55.2010   26.0230   46.2810 O   0  0  0  0  0  0  0  0  0  0  0  0
   56.3630   25.9280   45.8060 C   0  0  0  0  0  0  0  0  0  0  0  0
   57.4800   26.7150   46.4420 C   0  0  0  0  0  0  0  0  0  0  0  0
   57.3740   28.1980   46.0870 C   0  0  0  0  0  0  0  0  0  0  0  0
   57.5680   28.3830   44.6480 N   0  0  0  0  0  0  0  0  0  0  0  0
   56.5560   29.6750   44.0760 S   0  0  0  0  0  0  0  0  0  0  0  0
   55.2970   29.7200   44.8950 O   0  0  0  0  0  0  0  0  0  0  0  0
   56.1990   29.4240   42.6360 O   0  0  0  0  0  0  0  0  0  0  0  0
   57.4040   31.2100   44.2330 C   0  0  0  0  0  0  0  0  0  0  0  0
   57.7790   31.9380   43.0950 C   0  0  0  0  0  0  0  0  0  0  0  0
   58.5200   33.1160   43.2310 C   0  0  0  0  0  0  0  0  0  0  0  0
   58.8980   33.5650   44.4990 C   0  0  0  0  0  0  0  0  0  0  0  0
   58.5220   32.8460   45.6430 C   0  0  0  0  0  0  0  0  0  0  0  0
   59.0570   33.3600   47.2440 S   0  0  0  0  0  0  0  0  0  0  0  0
   58.2190   32.6730   48.2860 O   0  0  0  0  0  0  0  0  0  0  0  0
   58.8560   34.8430   47.3870 O   0  0  0  0  0  0  0  0  0  0  0  0
   60.7420   32.9820   47.5120 N   0  0  0  0  0  0  0  0  0  0  0  0
   61.6050   33.8860   46.7300 C   0  0  0  0  0  0  0  0  0  0  0  0
   63.0600   33.3750   46.7130 C   0  0  0  0  0  0  0  0  0  0  0  0
   63.2710   32.4170   47.7320 O   0  0  0  0  0  0  0  0  0  0  0  0
   62.5000   31.2550   47.4710 C   0  0  0  0  0  0  0  0  0  0  0  0
   61.0230   31.5820   47.1640 C   0  0  0  0  0  0  0  0  0  0  0  0
   57.7530   31.6830   45.5040 C   0  0  0  0  0  0  0  0  0  0  0  0
   56.5570   25.1940   44.5890 N   0  0  0  0  0  0  0  0  0  0  0  0
   57.1350   23.8880   44.4850 C   0  0  0  0  0  0  0  0  0  0  0  0
   58.3640   23.5860   45.0930 C   0  0  0  0  0  0  0  0  0  0  0  0
   58.8930   22.2960   45.0050 C   0  0  0  0  0  0  0  0  0  0  0  0
   58.1910   21.2950   44.3270 C   0  0  0  0  0  0  0  0  0  0  0  0
   56.9520   21.5800   43.7430 C   0  0  0  0  0  0  0  0  0  0  0  0
   56.2570   20.5720   43.0780 O   0  0  0  0  0  0  0  0  0  0  0  0
   56.4200   22.8750   43.8340 C   0  0  0  0  0  0  0  0  0  0  0  0
   57.4237   26.6014   47.5347 H   0  0  0  0  0  0  0  0  0  0  0  0
   58.4393   26.3312   46.0645 H   0  0  0  0  0  0  0  0  0  0  0  0
   56.3788   28.5705   46.3713 H   0  0  0  0  0  0  0  0  0  0  0  0
   58.1504   28.7560   46.6309 H   0  0  0  0  0  0  0  0  0  0  0  0
   57.4902   31.5824   42.0949 H   0  0  0  0  0  0  0  0  0  0  0  0
   58.8060   33.6906   42.3376 H   0  0  0  0  0  0  0  0  0  0  0  0
   59.4922   34.4851   44.6003 H   0  0  0  0  0  0  0  0  0  0  0  0
   61.2294   33.9396   45.6975 H   0  0  0  0  0  0  0  0  0  0  0  0
   61.5865   34.8822   47.1962 H   0  0  0  0  0  0  0  0  0  0  0  0
   63.2682   32.9136   45.7364 H   0  0  0  0  0  0  0  0  0  0  0  0
   63.7335   34.2271   46.8871 H   0  0  0  0  0  0  0  0  0  0  0  0
   62.9326   30.7317   46.6056 H   0  0  0  0  0  0  0  0  0  0  0  0
   62.5227   30.6289   48.3752 H   0  0  0  0  0  0  0  0  0  0  0  0
   60.8291   31.4257   46.0926 H   0  0  0  0  0  0  0  0  0  0  0  0
   60.3732   30.9220   47.7575 H   0  0  0  0  0  0  0  0  0  0  0  0
   57.4210   31.1376   46.3997 H   0  0  0  0  0  0  0  0  0  0  0  0
   58.9119   24.3673   45.6402 H   0  0  0  0  0  0  0  0  0  0  0  0
   59.8634   22.0675   45.4699 H   0  0  0  0  0  0  0  0  0  0  0  0
   58.6133   20.2820   44.2526 H   0  0  0  0  0  0  0  0  0  0  0  0
   56.6190   19.6270   43.0240 H   0  0  0  0  0  0  0  0  0  0  0  0
   55.4371   23.0956   43.3921 H   0  0  0  0  0  0  0  0  0  0  0  0
  1  2  2  0
  2  3  1  0
  3  4  1  0
  4  5  1  0
  5  6  1  0
  6  7  2  0
  6  8  2  0
  6  9  1  0
  9 10  2  0
 10 11  1  0
 11 12  2  0
 12 13  1  0
 13 14  1  0
 14 15  2  0
 14 16  2  0
 14 17  1  0
 17 18  1  0
 18 19  1  0
 19 20  1  0
 20 21  1  0
 21 22  1  0
 13 23  2  0
  2 24  1  0
 24 25  1  0
 25 26  2  0
 26 27  1  0
 27 28  2  0
 28 29  1  0
 29 30  1  0
 29 31  2  0
 23  9  1  0
 31 25  1  0
 22 17  1  0
  3 32  1  0
  3 33  1  0
  4 34  1  0
  4 35  1  0
 10 36  1  0
 11 37  1  0
 12 38  1  0
 18 39  1  0
 18 40  1  0
 19 41  1  0
 19 42  1  0
 21 43  1  0
 21 44  1  0
 22 45  1  0
 22 46  1  0
 23 47  1  0
 26 48  1  0
 27 49  1  0
 28 50  1  0
 30 51  1  0
 31 52  1  0
M  CHG  2   5  -1  24  -1
M  END
>  <UniqueID>  (46) 
45

>  <SMILES>  (46) 
O=C(CC[N-]S(=O)(=O)c1cccc(S(=O)(=O)N2CCOCC2)c1)[N-]c1cccc(O)c1

>  <Energy>  (46) 
59.346918079440094

>  <Genealogy>  (46) 
O=C(CC[N-]S(=O)(=O)c1cccc(S(=O)(=O)N2CCOCC2)c1)[N-]c1cccc(O)c1 (protonated)
O=C(CC[N-]S(=O)(=O)c1cccc(S(=O)(=O)N2CCOCC2)c1)[N-]c1cccc(O)c1 (3D coordinates assigned)
O=C(CC[N-]S(=O)(=O)c1cccc(S(=O)(=O)N2CCOCC2)c1)[N-]c1cccc(O)c1 (nonaromatic ring conformer: 59.346918079440094 kcal/mol)

>  <smiles>  (46) 
O=C(CCNS(=O)(=O)c1cccc(S(=O)(=O)N2CCOCC2)c1)Nc1cccc(O)c1

>  <score_type>  (46) 
oracle

>  <origin>  (46) 
adg

>  <m_score__min__energy>  (46) 
-13.699999999999999

>  <m_primary>  (46) 
energy

$$$$
46:0
     RDKit          3D

 50 52  0  0  0  0  0  0  0  0999 V2000
   63.4090   32.8870   47.1500 C   0  0  0  0  0  0  0  0  0  0  0  0
   62.2200   33.7440   47.4320 C   0  0  0  0  0  0  0  0  0  0  0  0
   62.1730   34.4150   48.4980 O   0  0  0  0  0  0  0  0  0  0  0  0
   61.1310   33.7840   46.4980 N   0  0  0  0  0  0  0  0  0  0  0  0
   59.9690   34.6600   46.6820 C   0  0  2  0  0  0  0  0  0  0  0  0
   59.4850   34.6080   48.1370 C   0  0  0  0  0  0  0  0  0  0  0  0
   58.8430   34.3010   45.6880 C   0  0  0  0  0  0  0  0  0  0  0  0
   58.4950   32.8320   45.6910 C   0  0  0  0  0  0  0  0  0  0  0  0
   58.8810   32.0130   46.7650 C   0  0  0  0  0  0  0  0  0  0  0  0
   58.5410   30.6570   46.7770 C   0  0  0  0  0  0  0  0  0  0  0  0
   57.8100   30.1060   45.7170 C   0  0  0  0  0  0  0  0  0  0  0  0
   57.4580   28.7120   45.7320 C   0  0  0  0  0  0  0  0  0  0  0  0
   57.1640   27.5430   45.7450 C   0  0  0  0  0  0  0  0  0  0  0  0
   56.8110   26.1500   45.7590 C   0  0  0  0  0  0  0  0  0  0  0  0
   57.7860   25.1710   45.5430 C   0  0  0  0  0  0  0  0  0  0  0  0
   57.4160   23.8240   45.5640 C   0  0  0  0  0  0  0  0  0  0  0  0
   56.0860   23.4610   45.8010 C   0  0  0  0  0  0  0  0  0  0  0  0
   55.7580   22.0950   45.8160 O   0  0  0  0  0  0  0  0  0  0  0  0
   56.6140   21.0330   45.4000 C   0  0  0  0  0  0  0  0  0  0  0  0
   56.5120   20.8250   43.8840 C   0  0  0  0  0  0  0  0  0  0  0  0
   55.8090   19.7350   43.4030 F   0  0  0  0  0  0  0  0  0  0  0  0
   56.5660   22.0400   42.9720 C   0  0  0  0  0  0  0  0  0  0  0  0
   57.7780   21.1290   43.0980 C   0  0  0  0  0  0  0  0  0  0  0  0
   55.1380   24.4800   46.0070 C   0  0  0  0  0  0  0  0  0  0  0  0
   55.5210   25.7840   45.9810 N   0  0  0  0  0  0  0  0  0  0  0  0
   57.4240   30.9160   44.6420 C   0  0  0  0  0  0  0  0  0  0  0  0
   57.7640   32.2730   44.6290 C   0  0  0  0  0  0  0  0  0  0  0  0
   63.8601   32.5619   48.0991 H   0  0  0  0  0  0  0  0  0  0  0  0
   63.0965   32.0051   46.5715 H   0  0  0  0  0  0  0  0  0  0  0  0
   64.1468   33.4624   46.5715 H   0  0  0  0  0  0  0  0  0  0  0  0
   61.1760   33.1590   45.6610 H   0  0  0  0  0  0  0  0  0  0  0  0
   60.2716   35.6955   46.4671 H   0  0  0  0  0  0  0  0  0  0  0  0
   60.3472   34.7006   48.8138 H   0  0  0  0  0  0  0  0  0  0  0  0
   58.7845   35.4361   48.3202 H   0  0  0  0  0  0  0  0  0  0  0  0
   58.9763   33.6500   48.3202 H   0  0  0  0  0  0  0  0  0  0  0  0
   57.9434   34.8742   45.9565 H   0  0  0  0  0  0  0  0  0  0  0  0
   59.2048   34.5498   44.6794 H   0  0  0  0  0  0  0  0  0  0  0  0
   59.4538   32.4408   47.6010 H   0  0  0  0  0  0  0  0  0  0  0  0
   58.8482   30.0215   47.6207 H   0  0  0  0  0  0  0  0  0  0  0  0
   58.8318   25.4581   45.3588 H   0  0  0  0  0  0  0  0  0  0  0  0
   58.1740   23.0453   45.3934 H   0  0  0  0  0  0  0  0  0  0  0  0
   57.6530   21.2813   45.6624 H   0  0  0  0  0  0  0  0  0  0  0  0
   56.3060   20.1073   45.9081 H   0  0  0  0  0  0  0  0  0  0  0  0
   55.9830   22.0539   42.0393 H   0  0  0  0  0  0  0  0  0  0  0  0
   56.3862   23.1176   43.1005 H   0  0  0  0  0  0  0  0  0  0  0  0
   58.0713   20.4841   42.2565 H   0  0  0  0  0  0  0  0  0  0  0  0
   58.8375   21.2747   43.3554 H   0  0  0  0  0  0  0  0  0  0  0  0
   54.0846   24.2209   46.1895 H   0  0  0  0  0  0  0  0  0  0  0  0
   56.8527   30.4848   43.8067 H   0  0  0  0  0  0  0  0  0  0  0  0
   57.4575   32.9057   43.7830 H   0  0  0  0  0  0  0  0  0  0  0  0
  1  2  1  0
  2  3  2  0
  2  4  1  0
  4  5  1  0
  5  6  1  0
  5  7  1  0
  7  8  1  0
  8  9  2  0
  9 10  1  0
 10 11  2  0
 11 12  1  0
 12 13  3  0
 13 14  1  0
 14 15  2  0
 15 16  1  0
 16 17  2  0
 17 18  1  0
 18 19  1  0
 19 20  1  0
 20 21  1  0
 20 22  1  0
 22 23  1  0
 17 24  1  0
 24 25  2  0
 11 26  1  0
 26 27  2  0
 27  8  1  0
 25 14  1  0
 23 20  1  0
  1 28  1  0
  1 29  1  0
  1 30  1  0
  4 31  1  0
  5 32  1  6
  6 33  1  0
  6 34  1  0
  6 35  1  0
  7 36  1  0
  7 37  1  0
  9 38  1  0
 10 39  1  0
 15 40  1  0
 16 41  1  0
 19 42  1  0
 19 43  1  0
 22 44  1  0
 22 45  1  0
 23 46  1  0
 23 47  1  0
 24 48  1  0
 26 49  1  0
 27 50  1  0
M  END
>  <UniqueID>  (47) 
46

>  <SMILES>  (47) 
CC(=O)N[C@H](C)Cc1ccc(C#Cc2ccc(OCC3(F)CC3)cn2)cc1

>  <Energy>  (47) 
306.408504120845

>  <Genealogy>  (47) 
CC(=O)N[C@H](C)Cc1ccc(C#Cc2ccc(OCC3(F)CC3)cn2)cc1 (chirality)
CC(=O)N[C@H](C)Cc1ccc(C#Cc2ccc(OCC3(F)CC3)cn2)cc1 (3D coordinates assigned)
CC(=O)N[C@H](C)Cc1ccc(C#Cc2ccc(OCC3(F)CC3)cn2)cc1 (nonaromatic ring conformer: 306.408504120845 kcal/mol)

>  <smiles>  (47) 
CC(=O)NC(C)Cc1ccc(C#Cc2ccc(OCC3(F)CC3)cn2)cc1

>  <score_type>  (47) 
oracle

>  <origin>  (47) 
adg

>  <m_score__min__energy>  (47) 
-7.04

>  <m_primary>  (47) 
energy

$$$$
47:0
     RDKit          3D

 44 46  0  0  0  0  0  0  0  0999 V2000
   60.5250   30.3280   47.0350 C   0  0  0  0  0  0  0  0  0  0  0  0
   59.5800   31.3160   46.4140 C   0  0  0  0  0  0  0  0  0  0  0  0
   58.3790   30.8800   45.8330 C   0  0  0  0  0  0  0  0  0  0  0  0
   57.5080   31.8000   45.2250 C   0  0  0  0  0  0  0  0  0  0  0  0
   56.2630   31.3890   44.6400 N   0  0  0  0  0  0  0  0  0  0  0  0
   55.9700   30.0950   44.1010 C   0  0  0  0  0  0  0  0  0  0  0  0
   55.9190   29.9570   42.8500 O   0  0  0  0  0  0  0  0  0  0  0  0
   55.7960   28.9680   44.9740 N   0  0  0  0  0  0  0  0  0  0  0  0
   56.6850   28.0580   45.2400 C   0  0  0  0  0  0  0  0  0  0  0  0
   56.6120   27.1990   46.2820 N   0  0  0  0  0  0  0  0  0  0  0  0
   57.6830   26.3610   46.3110 C   0  0  0  0  0  0  0  0  0  0  0  0
   57.8530   25.3380   47.3930 C   0  0  0  0  0  0  0  0  0  0  0  0
   56.9250   24.1660   47.1960 C   0  0  0  0  0  0  0  0  0  0  0  0
   55.6830   24.3620   47.0960 O   0  0  0  0  0  0  0  0  0  0  0  0
   57.4070   22.8150   47.2000 N   0  0  0  0  0  0  0  0  0  0  0  0
   57.7110   22.0350   46.0030 C   0  0  0  0  0  0  0  0  0  0  0  0
   56.5570   22.0230   45.0040 C   0  0  0  0  0  0  0  0  0  0  0  0
   57.4070   22.8140   44.0180 C   0  0  0  0  0  0  0  0  0  0  0  0
   58.5580   22.8300   45.0150 C   0  0  0  0  0  0  0  0  0  0  0  0
   58.6200   26.5620   45.2980 C   0  0  0  0  0  0  0  0  0  0  0  0
   58.0740   27.8240   44.3270 S   0  0  0  0  0  0  0  0  0  0  0  0
   57.8250   33.1620   45.2420 C   0  0  0  0  0  0  0  0  0  0  0  0
   59.0190   33.6120   45.8250 C   0  0  0  0  0  0  0  0  0  0  0  0
   59.3720   35.0720   45.7970 C   0  0  0  0  0  0  0  0  0  0  0  0
   59.9060   32.6810   46.3930 C   0  0  0  0  0  0  0  0  0  0  0  0
   61.0780   33.1060   46.9330 F   0  0  0  0  0  0  0  0  0  0  0  0
   60.4593   30.3967   48.1309 H   0  0  0  0  0  0  0  0  0  0  0  0
   60.2549   29.3110   46.7145 H   0  0  0  0  0  0  0  0  0  0  0  0
   61.5530   30.5526   46.7145 H   0  0  0  0  0  0  0  0  0  0  0  0
   58.1180   29.8116   45.8537 H   0  0  0  0  0  0  0  0  0  0  0  0
   58.8920   24.9768   47.3834 H   0  0  0  0  0  0  0  0  0  0  0  0
   57.6118   25.8111   48.3563 H   0  0  0  0  0  0  0  0  0  0  0  0
   58.0784   21.0934   46.4371 H   0  0  0  0  0  0  0  0  0  0  0  0
   56.2774   21.0190   44.6521 H   0  0  0  0  0  0  0  0  0  0  0  0
   55.5609   22.3854   45.2979 H   0  0  0  0  0  0  0  0  0  0  0  0
   57.6295   22.2753   43.0851 H   0  0  0  0  0  0  0  0  0  0  0  0
   57.0301   23.7548   43.5904 H   0  0  0  0  0  0  0  0  0  0  0  0
   59.4592   22.3023   44.6694 H   0  0  0  0  0  0  0  0  0  0  0  0
   59.0207   23.7812   45.3168 H   0  0  0  0  0  0  0  0  0  0  0  0
   59.5523   25.9953   45.1580 H   0  0  0  0  0  0  0  0  0  0  0  0
   57.1309   33.8880   44.7936 H   0  0  0  0  0  0  0  0  0  0  0  0
   59.4627   35.4471   46.8271 H   0  0  0  0  0  0  0  0  0  0  0  0
   60.3289   35.2079   45.2717 H   0  0  0  0  0  0  0  0  0  0  0  0
   58.5829   35.6300   45.2717 H   0  0  0  0  0  0  0  0  0  0  0  0
  1  2  1  0
  2  3  2  0
  3  4  1  0
  4  5  1  0
  5  6  1  0
  6  7  2  0
  6  8  1  0
  8  9  2  3
  9 10  1  0
 10 11  1  0
 11 12  1  0
 12 13  1  0
 13 14  2  0
 13 15  1  0
 15 16  1  0
 16 17  1  0
 17 18  1  0
 18 19  1  0
 11 20  2  0
 20 21  1  0
  4 22  2  0
 22 23  1  0
 23 24  1  0
 23 25  2  0
 25 26  1  0
 25  2  1  0
 21  9  1  0
 19 16  1  0
  1 27  1  0
  1 28  1  0
  1 29  1  0
  3 30  1  0
 12 31  1  0
 12 32  1  0
 16 33  1  0
 17 34  1  0
 17 35  1  0
 18 36  1  0
 18 37  1  0
 19 38  1  0
 19 39  1  0
 20 40  1  0
 22 41  1  0
 24 42  1  0
 24 43  1  0
 24 44  1  0
M  CHG  3   5  -1  10  -1  15  -1
M  END
>  <UniqueID>  (48) 
47

>  <SMILES>  (48) 
Cc1cc([N-]C(=O)N=c2[n-]c(CC(=O)[N-]C3CCC3)cs2)cc(C)c1F

>  <Energy>  (48) 
135.71172100605887

>  <Genealogy>  (48) 
Cc1cc([N-]C(=O)N=c2[n-]c(CC(=O)[N-]C3CCC3)cs2)cc(C)c1F (protonated)
Cc1cc([N-]C(=O)N=c2[n-]c(CC(=O)[N-]C3CCC3)cs2)cc(C)c1F (3D coordinates assigned)
Cc1cc([N-]C(=O)N=c2[n-]c(CC(=O)[N-]C3CCC3)cs2)cc(C)c1F (nonaromatic ring conformer: 135.71172100605887 kcal/mol)

>  <smiles>  (48) 
Cc1cc(NC(=O)N=c2[nH]c(CC(=O)NC3CCC3)cs2)cc(C)c1F

>  <score_type>  (48) 
oracle

>  <origin>  (48) 
adg

>  <m_score__min__energy>  (48) 
-12.07

>  <m_primary>  (48) 
energy

$$$$
48:0
     RDKit          3D

 42 44  0  0  0  0  0  0  0  0999 V2000
   63.0010   33.8280   46.7280 C   0  0  0  0  0  0  0  0  0  0  0  0
   61.9540   33.4910   47.7480 C   0  0  0  0  0  0  0  0  0  0  0  0
   62.3110   32.8420   48.9380 C   0  0  0  0  0  0  0  0  0  0  0  0
   61.3420   32.5590   49.9060 C   0  0  0  0  0  0  0  0  0  0  0  0
   60.0070   32.9460   49.7070 C   0  0  0  0  0  0  0  0  0  0  0  0
   59.0100   32.6300   50.6940 N   0  0  0  0  0  0  0  0  0  0  0  0
   58.2610   31.5090   50.7190 C   0  0  0  0  0  0  0  0  0  0  0  0
   57.3850   31.5580   51.7890 C   0  0  0  0  0  0  0  0  0  0  0  0
   56.4200   30.5180   52.1700 C   0  0  0  0  0  0  0  0  0  0  0  0
   56.7100   29.3020   52.0090 O   0  0  0  0  0  0  0  0  0  0  0  0
   55.1570   30.8920   52.7260 N   0  0  0  0  0  0  0  0  0  0  0  0
   53.9740   30.0960   52.5890 C   0  0  0  0  0  0  0  0  0  0  0  0
   53.9210   28.8560   53.2380 C   0  0  0  0  0  0  0  0  0  0  0  0
   52.7780   28.0600   53.1510 C   0  0  0  0  0  0  0  0  0  0  0  0
   51.6710   28.5060   52.4290 C   0  0  0  0  0  0  0  0  0  0  0  0
   51.7010   29.7500   51.7960 C   0  0  0  0  0  0  0  0  0  0  0  0
   52.8500   30.5590   51.8630 C   0  0  0  0  0  0  0  0  0  0  0  0
   52.8170   31.9350   51.2420 C   0  0  0  0  0  0  0  0  0  0  0  0
   51.4070   32.3510   50.9710 C   0  0  0  0  0  0  0  0  0  0  0  0
   50.9450   32.2990   49.8000 O   0  0  0  0  0  0  0  0  0  0  0  0
   50.5860   32.7560   52.0160 O   0  0  0  0  0  0  0  0  0  0  0  0
   57.6120   32.7520   52.4510 C   0  0  0  0  0  0  0  0  0  0  0  0
   58.6250   33.3750   51.7550 C   0  0  0  0  0  0  0  0  0  0  0  0
   59.2020   34.5860   52.1380 O   0  0  0  0  0  0  0  0  0  0  0  0
   59.6510   33.5970   48.5160 C   0  0  0  0  0  0  0  0  0  0  0  0
   60.6210   33.8790   47.5480 C   0  0  0  0  0  0  0  0  0  0  0  0
   63.9282   34.1264   47.2391 H   0  0  0  0  0  0  0  0  0  0  0  0
   63.1965   32.9474   46.0985 H   0  0  0  0  0  0  0  0  0  0  0  0
   62.6461   34.6573   46.0985 H   0  0  0  0  0  0  0  0  0  0  0  0
   63.3583   32.5539   49.1114 H   0  0  0  0  0  0  0  0  0  0  0  0
   61.6271   32.0307   50.8277 H   0  0  0  0  0  0  0  0  0  0  0  0
   58.3351   30.6813   49.9983 H   0  0  0  0  0  0  0  0  0  0  0  0
   54.7865   28.5070   53.8204 H   0  0  0  0  0  0  0  0  0  0  0  0
   52.7501   27.0810   53.6517 H   0  0  0  0  0  0  0  0  0  0  0  0
   50.7721   27.8760   52.3582 H   0  0  0  0  0  0  0  0  0  0  0  0
   50.8188   30.1005   51.2402 H   0  0  0  0  0  0  0  0  0  0  0  0
   53.2811   32.6552   51.9319 H   0  0  0  0  0  0  0  0  0  0  0  0
   53.3707   31.9109   50.2918 H   0  0  0  0  0  0  0  0  0  0  0  0
   57.0924   33.1256   53.3457 H   0  0  0  0  0  0  0  0  0  0  0  0
   58.7340   35.4710   52.0000 H   0  0  0  0  0  0  0  0  0  0  0  0
   58.6042   33.8870   48.3426 H   0  0  0  0  0  0  0  0  0  0  0  0
   60.3370   34.4074   46.6260 H   0  0  0  0  0  0  0  0  0  0  0  0
  1  2  1  0
  2  3  2  0
  3  4  1  0
  4  5  2  0
  5  6  1  0
  6  7  1  0
  7  8  2  0
  8  9  1  0
  9 10  2  0
  9 11  1  0
 11 12  1  0
 12 13  2  0
 13 14  1  0
 14 15  2  0
 15 16  1  0
 16 17  2  0
 17 18  1  0
 18 19  1  0
 19 20  2  0
 19 21  1  0
  8 22  1  0
 22 23  2  0
 23 24  1  0
  5 25  1  0
 25 26  2  0
 26  2  1  0
 23  6  1  0
 17 12  1  0
  1 27  1  0
  1 28  1  0
  1 29  1  0
  3 30  1  0
  4 31  1  0
  7 32  1  0
 13 33  1  0
 14 34  1  0
 15 35  1  0
 16 36  1  0
 18 37  1  0
 18 38  1  0
 22 39  1  0
 24 40  1  0
 25 41  1  0
 26 42  1  0
M  CHG  2  11  -1  21  -1
M  END
>  <UniqueID>  (49) 
48

>  <SMILES>  (49) 
Cc1ccc(-n2cc(C(=O)[N-]c3ccccc3CC(=O)[O-])cc2O)cc1

>  <Energy>  (49) 
81.46097697237576

>  <Genealogy>  (49) 
Cc1ccc(-n2cc(C(=O)[N-]c3ccccc3CC(=O)[O-])cc2O)cc1 (protonated)
Cc1ccc(-n2cc(C(=O)[N-]c3ccccc3CC(=O)[O-])cc2O)cc1 (3D coordinates assigned)
Cc1ccc(-n2cc(C(=O)[N-]c3ccccc3CC(=O)[O-])cc2O)cc1 (optimized conformer: 81.46097697237576 kcal/mol)

>  <smiles>  (49) 
Cc1ccc(-n2cc(C(=O)Nc3ccccc3CC(=O)O)cc2O)cc1

>  <score_type>  (49) 
oracle

>  <origin>  (49) 
adg

>  <m_score__min__energy>  (49) 
-12.74

>  <m_primary>  (49) 
energy

$$$$
49:0
     RDKit          3D

 41 43  0  0  0  0  0  0  0  0999 V2000
   59.1550   27.4120   44.5410 O   0  0  0  0  0  0  0  0  0  0  0  0
   57.9170   27.2350   44.3900 C   0  0  0  0  0  0  0  0  0  0  0  0
   57.4040   25.8550   44.1080 C   0  0  0  0  0  0  0  0  0  0  0  0
   57.1000   25.1650   45.3650 N   0  0  0  0  0  0  0  0  0  0  0  0
   56.0480   25.4820   46.1740 C   0  0  0  0  0  0  0  0  0  0  0  0
   55.1780   26.5290   45.8930 O   0  0  0  0  0  0  0  0  0  0  0  0
   55.9030   24.6790   47.3020 C   0  0  0  0  0  0  0  0  0  0  0  0
   57.1300   23.5250   47.2770 S   0  0  0  0  0  0  0  0  0  0  0  0
   57.7850   24.0980   45.8430 C   0  0  0  0  0  0  0  0  0  0  0  0
   58.7920   23.5980   45.2750 O   0  0  0  0  0  0  0  0  0  0  0  0
   56.9940   28.3190   44.5770 N   0  0  0  0  0  0  0  0  0  0  0  0
   57.3860   29.6950   44.7220 C   0  0  0  0  0  0  0  0  0  0  0  0
   57.0190   30.6210   43.7360 C   0  0  0  0  0  0  0  0  0  0  0  0
   57.4020   31.9610   43.8440 C   0  0  0  0  0  0  0  0  0  0  0  0
   58.1640   32.3930   44.9380 C   0  0  0  0  0  0  0  0  0  0  0  0
   58.6530   34.0860   45.0730 S   0  0  0  0  0  0  0  0  0  0  0  0
   59.6380   34.3990   43.9810 O   0  0  0  0  0  0  0  0  0  0  0  0
   57.4460   34.9610   44.8760 O   0  0  0  0  0  0  0  0  0  0  0  0
   59.3800   34.4610   46.6180 N   0  0  0  0  0  0  0  0  0  0  0  0
   58.6490   33.8580   47.7300 C   0  0  0  0  0  0  0  0  0  0  0  0
   59.6480   33.7020   48.8650 C   0  0  0  0  0  0  0  0  0  0  0  0
   61.0190   33.7590   48.2060 C   0  0  0  0  0  0  0  0  0  0  0  0
   60.7450   33.9480   46.7220 C   0  0  0  0  0  0  0  0  0  0  0  0
   58.5620   31.4620   45.9090 C   0  0  0  0  0  0  0  0  0  0  0  0
   58.1780   30.1230   45.8020 C   0  0  0  0  0  0  0  0  0  0  0  0
   56.4898   25.9237   43.5001 H   0  0  0  0  0  0  0  0  0  0  0  0
   58.1736   25.2887   43.5630 H   0  0  0  0  0  0  0  0  0  0  0  0
   55.1250   24.7802   48.0730 H   0  0  0  0  0  0  0  0  0  0  0  0
   55.9840   28.0830   44.7070 H   0  0  0  0  0  0  0  0  0  0  0  0
   56.4252   30.2909   42.8709 H   0  0  0  0  0  0  0  0  0  0  0  0
   57.1039   32.6799   43.0666 H   0  0  0  0  0  0  0  0  0  0  0  0
   57.8202   34.5117   48.0396 H   0  0  0  0  0  0  0  0  0  0  0  0
   58.2157   32.8883   47.4437 H   0  0  0  0  0  0  0  0  0  0  0  0
   59.5358   34.5200   49.5918 H   0  0  0  0  0  0  0  0  0  0  0  0
   59.4976   32.7623   49.4167 H   0  0  0  0  0  0  0  0  0  0  0  0
   61.6012   34.6047   48.6008 H   0  0  0  0  0  0  0  0  0  0  0  0
   61.6055   32.8492   48.4015 H   0  0  0  0  0  0  0  0  0  0  0  0
   61.4563   34.6686   46.2923 H   0  0  0  0  0  0  0  0  0  0  0  0
   60.8596   33.0028   46.1711 H   0  0  0  0  0  0  0  0  0  0  0  0
   59.1796   31.7879   46.7589 H   0  0  0  0  0  0  0  0  0  0  0  0
   58.4970   29.3997   46.5668 H   0  0  0  0  0  0  0  0  0  0  0  0
  1  2  2  0
  2  3  1  0
  3  4  1  0
  4  5  1  0
  5  6  1  0
  5  7  2  0
  7  8  1  0
  8  9  1  0
  9 10  2  0
  2 11  1  0
 11 12  1  0
 12 13  2  0
 13 14  1  0
 14 15  2  0
 15 16  1  0
 16 17  2  0
 16 18  2  0
 16 19  1  0
 19 20  1  0
 20 21  1  0
 21 22  1  0
 22 23  1  0
 15 24  1  0
 24 25  2  0
  9  4  1  0
 25 12  1  0
 23 19  1  0
  3 26  1  0
  3 27  1  0
  7 28  1  0
 11 29  1  0
 13 30  1  0
 14 31  1  0
 20 32  1  0
 20 33  1  0
 21 34  1  0
 21 35  1  0
 22 36  1  0
 22 37  1  0
 23 38  1  0
 23 39  1  0
 24 40  1  0
 25 41  1  0
M  CHG  1   6  -1
M  END
>  <UniqueID>  (50) 
49

>  <SMILES>  (50) 
O=C(Cn1c([O-])csc1=O)Nc1ccc(S(=O)(=O)N2CCCC2)cc1

>  <Energy>  (50) 
76.14664474243025

>  <Genealogy>  (50) 
O=C(Cn1c([O-])csc1=O)Nc1ccc(S(=O)(=O)N2CCCC2)cc1 (protonated)
O=C(Cn1c([O-])csc1=O)Nc1ccc(S(=O)(=O)N2CCCC2)cc1 (3D coordinates assigned)
O=C(Cn1c([O-])csc1=O)Nc1ccc(S(=O)(=O)N2CCCC2)cc1 (nonaromatic ring conformer: 76.14664474243025 kcal/mol)

>  <smiles>  (50) 
O=C(Cn1c(O)csc1=O)Nc1ccc(S(=O)(=O)N2CCCC2)cc1

>  <score_type>  (50) 
oracle

>  <origin>  (50) 
adg

>  <m_score__min__energy>  (50) 
-11.869999999999999

>  <m_primary>  (50) 
energy

$$$$
50:0
     RDKit          3D

 47 49  0  0  0  0  0  0  0  0999 V2000
   57.0090   25.0870   47.6110 N   0  0  0  0  0  0  0  0  0  0  0  0
   56.5920   25.8260   46.1060 S   0  0  0  0  0  0  0  0  0  0  0  0
   56.8440   24.8420   44.9970 O   0  0  0  0  0  0  0  0  0  0  0  0
   55.1380   26.2000   46.1050 O   0  0  0  0  0  0  0  0  0  0  0  0
   57.5660   27.2730   45.8690 C   0  0  0  0  0  0  0  0  0  0  0  0
   58.8960   27.3260   46.3170 C   0  0  0  0  0  0  0  0  0  0  0  0
   59.6630   28.4750   46.1040 C   0  0  0  0  0  0  0  0  0  0  0  0
   59.1090   29.5750   45.4420 C   0  0  0  0  0  0  0  0  0  0  0  0
   57.7790   29.5340   44.9970 C   0  0  0  0  0  0  0  0  0  0  0  0
   57.0800   30.8980   44.1290 S   0  0  0  0  0  0  0  0  0  0  0  0
   55.7700   30.4930   43.5160 O   0  0  0  0  0  0  0  0  0  0  0  0
   58.0090   31.3350   43.0300 O   0  0  0  0  0  0  0  0  0  0  0  0
   56.8110   32.2110   45.2240 N   0  0  0  0  0  0  0  0  0  0  0  0
   57.8980   33.0330   45.6470 C   0  0  0  0  0  0  0  0  0  0  0  0
   58.2480   34.1530   44.8870 C   0  0  0  0  0  0  0  0  0  0  0  0
   59.2700   34.9950   45.3150 C   0  0  0  0  0  0  0  0  0  0  0  0
   59.9610   34.7130   46.4930 C   0  0  0  0  0  0  0  0  0  0  0  0
   59.6370   33.5850   47.2680 C   0  0  0  0  0  0  0  0  0  0  0  0
   60.5840   33.3050   48.7450 S   0  0  0  0  0  0  0  0  0  0  0  0
   59.6680   32.7010   49.7730 O   0  0  0  0  0  0  0  0  0  0  0  0
   61.0760   34.6030   49.3180 O   0  0  0  0  0  0  0  0  0  0  0  0
   61.9260   32.2030   48.5060 N   0  0  0  0  0  0  0  0  0  0  0  0
   62.3710   32.1450   47.1000 C   0  0  0  0  0  0  0  0  0  0  0  0
   63.5120   33.1360   46.7870 C   0  0  0  0  0  0  0  0  0  0  0  0
   63.6570   34.1030   47.8010 O   0  0  0  0  0  0  0  0  0  0  0  0
   64.0470   33.4720   49.0020 C   0  0  0  0  0  0  0  0  0  0  0  0
   63.0320   32.4040   49.4610 C   0  0  0  0  0  0  0  0  0  0  0  0
   58.5800   32.7390   46.8380 C   0  0  0  0  0  0  0  0  0  0  0  0
   58.1630   31.6190   47.5610 O   0  0  0  0  0  0  0  0  0  0  0  0
   57.0120   28.3800   45.2110 C   0  0  0  0  0  0  0  0  0  0  0  0
   56.1160   24.8070   48.0680 H   0  0  0  0  0  0  0  0  0  0  0  0
   59.3350   26.4615   46.8366 H   0  0  0  0  0  0  0  0  0  0  0  0
   60.7039   28.5139   46.4577 H   0  0  0  0  0  0  0  0  0  0  0  0
   59.7176   30.4750   45.2696 H   0  0  0  0  0  0  0  0  0  0  0  0
   57.7148   34.3690   43.9494 H   0  0  0  0  0  0  0  0  0  0  0  0
   59.5331   35.8842   44.7233 H   0  0  0  0  0  0  0  0  0  0  0  0
   60.7705   35.3819   46.8205 H   0  0  0  0  0  0  0  0  0  0  0  0
   62.7238   31.1254   46.8858 H   0  0  0  0  0  0  0  0  0  0  0  0
   61.5122   32.4230   46.4714 H   0  0  0  0  0  0  0  0  0  0  0  0
   64.4540   32.5760   46.6915 H   0  0  0  0  0  0  0  0  0  0  0  0
   63.2654   33.6569   45.8501 H   0  0  0  0  0  0  0  0  0  0  0  0
   65.0227   32.9885   48.8465 H   0  0  0  0  0  0  0  0  0  0  0  0
   64.0999   34.2432   49.7846 H   0  0  0  0  0  0  0  0  0  0  0  0
   63.5628   31.4488   49.5868 H   0  0  0  0  0  0  0  0  0  0  0  0
   62.5890   32.7586   50.4033 H   0  0  0  0  0  0  0  0  0  0  0  0
   58.4490   31.4160   48.5050 H   0  0  0  0  0  0  0  0  0  0  0  0
   55.9699   28.3430   44.8607 H   0  0  0  0  0  0  0  0  0  0  0  0
  1  2  1  0
  2  3  2  0
  2  4  2  0
  2  5  1  0
  5  6  2  0
  6  7  1  0
  7  8  2  0
  8  9  1  0
  9 10  1  0
 10 11  2  0
 10 12  2  0
 10 13  1  0
 13 14  1  0
 14 15  2  0
 15 16  1  0
 16 17  2  0
 17 18  1  0
 18 19  1  0
 19 20  2  0
 19 21  2  0
 19 22  1  0
 22 23  1  0
 23 24  1  0
 24 25  1  0
 25 26  1  0
 26 27  1  0
 18 28  2  0
 28 29  1  0
  9 30  2  0
 30  5  1  0
 28 14  1  0
 27 22  1  0
  1 31  1  0
  6 32  1  0
  7 33  1  0
  8 34  1  0
 15 35  1  0
 16 36  1  0
 17 37  1  0
 23 38  1  0
 23 39  1  0
 24 40  1  0
 24 41  1  0
 26 42  1  0
 26 43  1  0
 27 44  1  0
 27 45  1  0
 29 46  1  0
 30 47  1  0
M  CHG  2   1  -1  13  -1
M  END
>  <UniqueID>  (51) 
50

>  <SMILES>  (51) 
[NH-]S(=O)(=O)c1cccc(S(=O)(=O)[N-]c2cccc(S(=O)(=O)N3CCOCC3)c2O)c1

>  <Energy>  (51) 
69.67705390220051

>  <Genealogy>  (51) 
[NH-]S(=O)(=O)c1cccc(S(=O)(=O)[N-]c2cccc(S(=O)(=O)N3CCOCC3)c2O)c1 (protonated)
[NH-]S(=O)(=O)c1cccc(S(=O)(=O)[N-]c2cccc(S(=O)(=O)N3CCOCC3)c2O)c1 (3D coordinates assigned)
[NH-]S(=O)(=O)c1cccc(S(=O)(=O)[N-]c2cccc(S(=O)(=O)N3CCOCC3)c2O)c1 (nonaromatic ring conformer: 69.67705390220051 kcal/mol)

>  <smiles>  (51) 
NS(=O)(=O)c1cccc(S(=O)(=O)Nc2cccc(S(=O)(=O)N3CCOCC3)c2O)c1

>  <score_type>  (51) 
oracle

>  <origin>  (51) 
adg

>  <m_score__min__energy>  (51) 
-14.23

>  <m_primary>  (51) 
energy

$$$$
51:0
     RDKit          3D

 49 51  0  0  0  0  0  0  0  0999 V2000
   63.5940   31.5610   47.0760 N   0  0  0  0  0  0  0  0  0  0  0  0
   63.2840   33.2560   47.1950 S   0  0  0  0  0  0  0  0  0  0  0  0
   64.0510   33.8280   48.3540 O   0  0  0  0  0  0  0  0  0  0  0  0
   63.7380   33.9370   45.9340 O   0  0  0  0  0  0  0  0  0  0  0  0
   61.5590   33.5230   47.4300 C   0  0  0  0  0  0  0  0  0  0  0  0
   60.9750   33.2710   48.6790 C   0  0  0  0  0  0  0  0  0  0  0  0
   59.6010   33.4510   48.8580 C   0  0  0  0  0  0  0  0  0  0  0  0
   58.8070   33.8890   47.7950 C   0  0  0  0  0  0  0  0  0  0  0  0
   59.3800   34.1620   46.5460 C   0  0  0  0  0  0  0  0  0  0  0  0
   58.5220   34.5880   45.4790 N   0  0  0  0  0  0  0  0  0  0  0  0
   57.2090   34.0980   45.1780 C   0  0  0  0  0  0  0  0  0  0  0  0
   56.2790   34.8920   44.8760 O   0  0  0  0  0  0  0  0  0  0  0  0
   56.9250   32.6990   45.2720 N   0  0  0  0  0  0  0  0  0  0  0  0
   57.6570   31.6760   44.5330 C   0  0  0  0  0  0  0  0  0  0  0  0
   58.2170   30.6450   45.4760 C   0  0  0  0  0  0  0  0  0  0  0  0
   59.3880   30.9060   46.2070 C   0  0  0  0  0  0  0  0  0  0  0  0
   59.8840   29.9560   47.1010 C   0  0  0  0  0  0  0  0  0  0  0  0
   59.2230   28.7370   47.2710 C   0  0  0  0  0  0  0  0  0  0  0  0
   58.0590   28.4570   46.5390 C   0  0  0  0  0  0  0  0  0  0  0  0
   57.3430   27.1450   46.7350 C   0  0  0  0  0  0  0  0  0  0  0  0
   57.4780   26.3160   45.5810 O   0  0  0  0  0  0  0  0  0  0  0  0
   56.7420   25.1450   45.3300 C   0  0  0  0  0  0  0  0  0  0  0  0
   57.3460   23.9580   44.8730 C   0  0  0  0  0  0  0  0  0  0  0  0
   56.5740   22.8200   44.6420 C   0  0  0  0  0  0  0  0  0  0  0  0
   55.1970   22.8490   44.8580 C   0  0  0  0  0  0  0  0  0  0  0  0
   54.5710   24.0220   45.3070 C   0  0  0  0  0  0  0  0  0  0  0  0
   53.1060   24.0030   45.5160 C   0  0  0  0  0  0  0  0  0  0  0  0
   52.4060   23.0040   45.2050 O   0  0  0  0  0  0  0  0  0  0  0  0
   55.3540   25.1730   45.5410 C   0  0  0  0  0  0  0  0  0  0  0  0
   54.7690   26.3540   45.9890 O   0  0  0  0  0  0  0  0  0  0  0  0
   57.5540   29.4200   45.6520 C   0  0  0  0  0  0  0  0  0  0  0  0
   60.7590   33.9540   46.3620 C   0  0  0  0  0  0  0  0  0  0  0  0
   64.5170   31.4530   46.5990 H   0  0  0  0  0  0  0  0  0  0  0  0
   61.5988   32.9313   49.5189 H   0  0  0  0  0  0  0  0  0  0  0  0
   59.1436   33.2475   49.8375 H   0  0  0  0  0  0  0  0  0  0  0  0
   57.7245   34.0204   47.9398 H   0  0  0  0  0  0  0  0  0  0  0  0
   56.9755   31.1850   43.8227 H   0  0  0  0  0  0  0  0  0  0  0  0
   58.4879   32.1530   43.9926 H   0  0  0  0  0  0  0  0  0  0  0  0
   59.9156   31.8621   46.0743 H   0  0  0  0  0  0  0  0  0  0  0  0
   60.7988   30.1678   47.6739 H   0  0  0  0  0  0  0  0  0  0  0  0
   59.6162   27.9944   47.9809 H   0  0  0  0  0  0  0  0  0  0  0  0
   57.7731   26.6259   47.6042 H   0  0  0  0  0  0  0  0  0  0  0  0
   56.2745   27.3479   46.9000 H   0  0  0  0  0  0  0  0  0  0  0  0
   58.4315   23.9283   44.6975 H   0  0  0  0  0  0  0  0  0  0  0  0
   57.0535   21.8955   44.2879 H   0  0  0  0  0  0  0  0  0  0  0  0
   54.5967   21.9456   44.6751 H   0  0  0  0  0  0  0  0  0  0  0  0
   52.6160   24.8848   45.9545 H   0  0  0  0  0  0  0  0  0  0  0  0
   56.6312   29.2134   45.0900 H   0  0  0  0  0  0  0  0  0  0  0  0
   61.2121   34.1303   45.3753 H   0  0  0  0  0  0  0  0  0  0  0  0
  1  2  1  0
  2  3  2  0
  2  4  2  0
  2  5  1  0
  5  6  2  0
  6  7  1  0
  7  8  2  0
  8  9  1  0
  9 10  1  0
 10 11  1  0
 11 12  2  0
 11 13  1  0
 13 14  1  0
 14 15  1  0
 15 16  2  0
 16 17  1  0
 17 18  2  0
 18 19  1  0
 19 20  1  0
 20 21  1  0
 21 22  1  0
 22 23  2  0
 23 24  1  0
 24 25  2  0
 25 26  1  0
 26 27  1  0
 27 28  2  0
 26 29  2  0
 29 30  1  0
 19 31  2  0
  9 32  2  0
 32  5  1  0
 31 15  1  0
 29 22  1  0
  1 33  1  0
  6 34  1  0
  7 35  1  0
  8 36  1  0
 14 37  1  0
 14 38  1  0
 16 39  1  0
 17 40  1  0
 18 41  1  0
 20 42  1  0
 20 43  1  0
 23 44  1  0
 24 45  1  0
 25 46  1  0
 27 47  1  0
 31 48  1  0
 32 49  1  0
M  CHG  4   1  -1  10  -1  13  -1  30  -1
M  END
>  <UniqueID>  (52) 
51

>  <SMILES>  (52) 
[NH-]S(=O)(=O)c1cccc([N-]C(=O)[N-]Cc2cccc(COc3cccc(C=O)c3[O-])c2)c1

>  <Energy>  (52) 
52.891583157007325

>  <Genealogy>  (52) 
[NH-]S(=O)(=O)c1cccc([N-]C(=O)[N-]Cc2cccc(COc3cccc(C=O)c3[O-])c2)c1 (protonated)
[NH-]S(=O)(=O)c1cccc([N-]C(=O)[N-]Cc2cccc(COc3cccc(C=O)c3[O-])c2)c1 (3D coordinates assigned)
[NH-]S(=O)(=O)c1cccc([N-]C(=O)[N-]Cc2cccc(COc3cccc(C=O)c3[O-])c2)c1 (optimized conformer: 52.891583157007325 kcal/mol)

>  <smiles>  (52) 
NS(=O)(=O)c1cccc(NC(=O)NCc2cccc(COc3cccc(C=O)c3O)c2)c1

>  <score_type>  (52) 
oracle

>  <origin>  (52) 
adg

>  <m_score__min__energy>  (52) 
-16.640000000000001

>  <m_primary>  (52) 
energy

$$$$
52:0
     RDKit          3D

 49 51  0  0  0  0  0  0  0  0999 V2000
   58.0600   32.2900   42.7180 C   0  0  0  0  0  0  0  0  0  0  0  0
   58.2680   33.2950   43.7490 N   0  0  0  0  0  0  0  0  0  0  0  0
   57.8360   33.1240   45.1020 C   0  0  0  0  0  0  0  0  0  0  0  0
   56.6330   32.8390   45.3420 O   0  0  0  0  0  0  0  0  0  0  0  0
   58.8000   33.3290   46.2110 C   0  0  0  0  0  0  0  0  0  0  0  0
   58.7960   34.5690   46.8770 C   0  0  0  0  0  0  0  0  0  0  0  0
   59.6570   34.8080   47.9490 C   0  0  0  0  0  0  0  0  0  0  0  0
   60.5370   33.8150   48.3740 C   0  0  0  0  0  0  0  0  0  0  0  0
   60.5700   32.5840   47.7210 C   0  0  0  0  0  0  0  0  0  0  0  0
   59.7250   32.3280   46.6250 C   0  0  0  0  0  0  0  0  0  0  0  0
   59.8410   30.9840   45.9370 C   0  0  0  0  0  0  0  0  0  0  0  0
   59.5080   29.8760   46.8420 N   0  0  0  0  0  0  0  0  0  0  0  0
   60.3080   29.4370   47.8040 N   0  0  0  0  0  0  0  0  0  0  0  0
   59.7420   28.3380   48.3370 C   0  0  0  0  0  0  0  0  0  0  0  0
   60.3740   27.5110   49.4050 C   0  0  0  0  0  0  0  0  0  0  0  0
   58.5660   28.0410   47.6750 C   0  0  0  0  0  0  0  0  0  0  0  0
   58.4370   29.0530   46.7450 C   0  0  0  0  0  0  0  0  0  0  0  0
   57.3350   29.1710   45.7730 C   0  0  0  0  0  0  0  0  0  0  0  0
   57.2470   30.2060   45.0640 O   0  0  0  0  0  0  0  0  0  0  0  0
   56.3520   28.1400   45.6250 N   0  0  0  0  0  0  0  0  0  0  0  0
   56.6280   26.7310   45.6130 C   0  0  0  0  0  0  0  0  0  0  0  0
   57.9240   26.2450   45.3760 C   0  0  0  0  0  0  0  0  0  0  0  0
   58.1650   24.8730   45.3450 C   0  0  0  0  0  0  0  0  0  0  0  0
   57.1210   23.9720   45.5540 C   0  0  0  0  0  0  0  0  0  0  0  0
   55.8160   24.4330   45.8030 C   0  0  0  0  0  0  0  0  0  0  0  0
   54.7420   23.4390   46.0630 C   0  0  0  0  0  0  0  0  0  0  0  0
   54.4610   22.9080   47.4350 C   0  0  0  0  0  0  0  0  0  0  0  0
   54.0460   23.0140   45.1000 O   0  0  0  0  0  0  0  0  0  0  0  0
   55.5720   25.8260   45.8020 C   0  0  0  0  0  0  0  0  0  0  0  0
   54.2850   26.3250   45.9800 O   0  0  0  0  0  0  0  0  0  0  0  0
   57.8586   31.3169   43.1898 H   0  0  0  0  0  0  0  0  0  0  0  0
   57.2026   32.5786   42.0923 H   0  0  0  0  0  0  0  0  0  0  0  0
   58.9616   32.2145   42.0923 H   0  0  0  0  0  0  0  0  0  0  0  0
   58.1055   35.3597   46.5484 H   0  0  0  0  0  0  0  0  0  0  0  0
   59.6408   35.7823   48.4594 H   0  0  0  0  0  0  0  0  0  0  0  0
   61.2068   34.0027   49.2262 H   0  0  0  0  0  0  0  0  0  0  0  0
   61.2643   31.8038   48.0662 H   0  0  0  0  0  0  0  0  0  0  0  0
   59.1521   30.9625   45.0797 H   0  0  0  0  0  0  0  0  0  0  0  0
   60.8837   30.8565   45.6105 H   0  0  0  0  0  0  0  0  0  0  0  0
   60.0784   27.8978   50.3914 H   0  0  0  0  0  0  0  0  0  0  0  0
   60.0413   26.4672   49.3057 H   0  0  0  0  0  0  0  0  0  0  0  0
   61.4685   27.5580   49.3057 H   0  0  0  0  0  0  0  0  0  0  0  0
   57.8879   27.1925   47.8492 H   0  0  0  0  0  0  0  0  0  0  0  0
   58.7524   26.9504   45.2141 H   0  0  0  0  0  0  0  0  0  0  0  0
   59.1820   24.4992   45.1551 H   0  0  0  0  0  0  0  0  0  0  0  0
   57.3203   22.8906   45.5238 H   0  0  0  0  0  0  0  0  0  0  0  0
   54.8366   23.6177   48.1869 H   0  0  0  0  0  0  0  0  0  0  0  0
   53.3762   22.7783   47.5629 H   0  0  0  0  0  0  0  0  0  0  0  0
   54.9639   21.9381   47.5629 H   0  0  0  0  0  0  0  0  0  0  0  0
  1  2  1  0
  2  3  1  0
  3  4  2  0
  3  5  1  0
  5  6  2  0
  6  7  1  0
  7  8  2  0
  8  9  1  0
  9 10  2  0
 10 11  1  0
 11 12  1  0
 12 13  1  0
 13 14  2  0
 14 15  1  0
 14 16  1  0
 16 17  2  0
 17 18  1  0
 18 19  2  0
 18 20  1  0
 20 21  1  0
 21 22  2  0
 22 23  1  0
 23 24  2  0
 24 25  1  0
 25 26  1  0
 26 27  1  0
 26 28  2  0
 25 29  2  0
 29 30  1  0
 10  5  1  0
 17 12  1  0
 29 21  1  0
  1 31  1  0
  1 32  1  0
  1 33  1  0
  6 34  1  0
  7 35  1  0
  8 36  1  0
  9 37  1  0
 11 38  1  0
 11 39  1  0
 15 40  1  0
 15 41  1  0
 15 42  1  0
 16 43  1  0
 22 44  1  0
 23 45  1  0
 24 46  1  0
 27 47  1  0
 27 48  1  0
 27 49  1  0
M  CHG  3   2  -1  20  -1  30  -1
M  END
>  <UniqueID>  (53) 
52

>  <SMILES>  (53) 
C[N-]C(=O)c1ccccc1Cn1nc(C)cc1C(=O)[N-]c1cccc(C(C)=O)c1[O-]

>  <Energy>  (53) 
91.16699160683517

>  <Genealogy>  (53) 
C[N-]C(=O)c1ccccc1Cn1nc(C)cc1C(=O)[N-]c1cccc(C(C)=O)c1[O-] (protonated)
C[N-]C(=O)c1ccccc1Cn1nc(C)cc1C(=O)[N-]c1cccc(C(C)=O)c1[O-] (3D coordinates assigned)
C[N-]C(=O)c1ccccc1Cn1nc(C)cc1C(=O)[N-]c1cccc(C(C)=O)c1[O-] (optimized conformer: 91.16699160683517 kcal/mol)

>  <smiles>  (53) 
CNC(=O)c1ccccc1Cn1nc(C)cc1C(=O)Nc1cccc(C(C)=O)c1O

>  <score_type>  (53) 
oracle

>  <origin>  (53) 
adg

>  <m_score__min__energy>  (53) 
-15.630000000000001

>  <m_primary>  (53) 
energy

$$$$
53:0
     RDKit          3D

 47 49  0  0  0  0  0  0  0  0999 V2000
   56.9070   31.4760   41.6600 O   0  0  0  0  0  0  0  0  0  0  0  0
   56.9600   31.0580   42.8490 C   0  0  0  0  0  0  0  0  0  0  0  0
   56.3040   29.7440   43.1690 C   0  0  0  0  0  0  0  0  0  0  0  0
   57.2820   28.6610   43.0550 N   0  0  0  0  0  0  0  0  0  0  0  0
   57.4710   27.8730   44.5910 S   0  0  0  0  0  0  0  0  0  0  0  0
   57.8190   26.4290   44.3710 O   0  0  0  0  0  0  0  0  0  0  0  0
   56.1810   27.9460   45.3590 O   0  0  0  0  0  0  0  0  0  0  0  0
   58.7520   28.6330   45.5190 C   0  0  0  0  0  0  0  0  0  0  0  0
   59.9570   29.0870   45.0050 C   0  0  0  0  0  0  0  0  0  0  0  0
   60.7750   29.6760   45.9770 C   0  0  0  0  0  0  0  0  0  0  0  0
   60.2130   29.6850   47.2480 C   0  0  0  0  0  0  0  0  0  0  0  0
   58.6940   28.9630   47.1650 S   0  0  0  0  0  0  0  0  0  0  0  0
   57.6400   31.8800   43.8880 C   0  0  0  0  0  0  0  0  0  0  0  0
   58.3270   33.0510   43.5160 C   0  0  0  0  0  0  0  0  0  0  0  0
   58.9720   33.8360   44.4780 C   0  0  0  0  0  0  0  0  0  0  0  0
   58.9350   33.4690   45.8280 C   0  0  0  0  0  0  0  0  0  0  0  0
   59.7620   34.4340   47.0470 S   0  0  0  0  0  0  0  0  0  0  0  0
   60.0460   35.8100   46.5100 O   0  0  0  0  0  0  0  0  0  0  0  0
   58.8650   34.5630   48.2470 O   0  0  0  0  0  0  0  0  0  0  0  0
   61.2530   33.6520   47.5080 N   0  0  0  0  0  0  0  0  0  0  0  0
   62.2680   33.8460   46.4500 C   0  0  0  0  0  0  0  0  0  0  0  0
   63.6950   33.4930   46.9250 C   0  0  0  0  0  0  0  0  0  0  0  0
   63.6730   32.6460   48.1990 C   0  0  0  0  0  0  0  0  0  0  0  0
   62.9060   33.3620   49.3250 C   0  0  0  0  0  0  0  0  0  0  0  0
   61.7220   34.1920   48.7940 C   0  0  0  0  0  0  0  0  0  0  0  0
   58.2580   32.3050   46.2080 C   0  0  0  0  0  0  0  0  0  0  0  0
   57.6150   31.5170   45.2490 C   0  0  0  0  0  0  0  0  0  0  0  0
   55.9094   29.7732   44.1954 H   0  0  0  0  0  0  0  0  0  0  0  0
   55.4814   29.5666   42.4606 H   0  0  0  0  0  0  0  0  0  0  0  0
   58.2080   29.0810   42.8120 H   0  0  0  0  0  0  0  0  0  0  0  0
   60.2403   28.9943   43.9462 H   0  0  0  0  0  0  0  0  0  0  0  0
   61.7688   30.0923   45.7554 H   0  0  0  0  0  0  0  0  0  0  0  0
   60.6814   30.0946   48.1551 H   0  0  0  0  0  0  0  0  0  0  0  0
   58.3571   33.3519   42.4584 H   0  0  0  0  0  0  0  0  0  0  0  0
   59.5103   34.7452   44.1720 H   0  0  0  0  0  0  0  0  0  0  0  0
   62.0124   33.2037   45.5943 H   0  0  0  0  0  0  0  0  0  0  0  0
   62.2623   34.9107   46.1736 H   0  0  0  0  0  0  0  0  0  0  0  0
   64.2061   32.9292   46.1307 H   0  0  0  0  0  0  0  0  0  0  0  0
   64.2253   34.4311   47.1456 H   0  0  0  0  0  0  0  0  0  0  0  0
   63.1820   31.6855   47.9838 H   0  0  0  0  0  0  0  0  0  0  0  0
   64.7095   32.4838   48.5296 H   0  0  0  0  0  0  0  0  0  0  0  0
   62.5215   32.6066   50.0261 H   0  0  0  0  0  0  0  0  0  0  0  0
   63.6045   34.0529   49.8197 H   0  0  0  0  0  0  0  0  0  0  0  0
   60.8992   34.1576   49.5233 H   0  0  0  0  0  0  0  0  0  0  0  0
   62.0524   35.2307   48.6457 H   0  0  0  0  0  0  0  0  0  0  0  0
   58.2316   32.0084   47.2669 H   0  0  0  0  0  0  0  0  0  0  0  0
   57.0845   30.6049   45.5600 H   0  0  0  0  0  0  0  0  0  0  0  0
  1  2  2  0
  2  3  1  0
  3  4  1  0
  4  5  1  0
  5  6  2  0
  5  7  2  0
  5  8  1  0
  8  9  2  0
  9 10  1  0
 10 11  2  0
 11 12  1  0
  2 13  1  0
 13 14  2  0
 14 15  1  0
 15 16  2  0
 16 17  1  0
 17 18  2  0
 17 19  2  0
 17 20  1  0
 20 21  1  0
 21 22  1  0
 22 23  1  0
 23 24  1  0
 24 25  1  0
 16 26  1  0
 26 27  2  0
 12  8  1  0
 27 13  1  0
 25 20  1  0
  3 28  1  0
  3 29  1  0
  4 30  1  0
  9 31  1  0
 10 32  1  0
 11 33  1  0
 14 34  1  0
 15 35  1  0
 21 36  1  0
 21 37  1  0
 22 38  1  0
 22 39  1  0
 23 40  1  0
 23 41  1  0
 24 42  1  0
 24 43  1  0
 25 44  1  0
 25 45  1  0
 26 46  1  0
 27 47  1  0
M  END
>  <UniqueID>  (54) 
53

>  <SMILES>  (54) 
O=C(CNS(=O)(=O)c1cccs1)c1ccc(S(=O)(=O)N2CCCCC2)cc1

>  <Energy>  (54) 
74.71673424750925

>  <Genealogy>  (54) 
O=C(CNS(=O)(=O)c1cccs1)c1ccc(S(=O)(=O)N2CCCCC2)cc1 (3D coordinates assigned)
O=C(CNS(=O)(=O)c1cccs1)c1ccc(S(=O)(=O)N2CCCCC2)cc1 (nonaromatic ring conformer: 74.71673424750925 kcal/mol)

>  <smiles>  (54) 
O=C(CNS(=O)(=O)c1cccs1)c1ccc(S(=O)(=O)N2CCCCC2)cc1

>  <score_type>  (54) 
oracle

>  <origin>  (54) 
adg

>  <m_score__min__energy>  (54) 
-10.039999999999999

>  <m_primary>  (54) 
energy

$$$$
54:0
     RDKit          3D

 36 39  0  0  0  0  0  0  0  0999 V2000
   61.5480   34.2300   48.9940 C   0  0  0  0  0  0  0  0  0  0  0  0
   60.0660   34.5880   48.9660 C   0  0  0  0  0  0  0  0  0  0  0  0
   59.5210   34.3880   47.6610 O   0  0  0  0  0  0  0  0  0  0  0  0
   59.0920   33.1580   47.1350 C   0  0  0  0  0  0  0  0  0  0  0  0
   59.5610   31.9060   47.6260 C   0  0  0  0  0  0  0  0  0  0  0  0
   59.1030   30.6990   47.0670 C   0  0  0  0  0  0  0  0  0  0  0  0
   58.1710   30.7760   46.0320 C   0  0  0  0  0  0  0  0  0  0  0  0
   57.7370   31.9710   45.5410 C   0  0  0  0  0  0  0  0  0  0  0  0
   58.1710   33.1840   46.0680 C   0  0  0  0  0  0  0  0  0  0  0  0
   56.9000   31.7810   44.5040 N   0  0  0  0  0  0  0  0  0  0  0  0
   56.8500   30.4280   44.3930 C   0  0  0  0  0  0  0  0  0  0  0  0
   57.6090   29.7870   45.3160 N   0  0  0  0  0  0  0  0  0  0  0  0
   57.7780   28.3660   45.4510 C   0  0  0  0  0  0  0  0  0  0  0  0
   56.6590   27.5500   45.6430 C   0  0  0  0  0  0  0  0  0  0  0  0
   56.7750   26.1460   45.7860 C   0  0  0  0  0  0  0  0  0  0  0  0
   55.5690   25.3860   45.9650 C   0  0  0  0  0  0  0  0  0  0  0  0
   54.4570   25.9790   45.9940 O   0  0  0  0  0  0  0  0  0  0  0  0
   55.5560   24.0390   46.1100 N   0  0  0  0  0  0  0  0  0  0  0  0
   56.9890   23.1960   46.0830 S   0  0  0  0  0  0  0  0  0  0  0  0
   58.3210   24.1870   45.8690 C   0  0  0  0  0  0  0  0  0  0  0  0
   59.4770   23.6820   45.8290 O   0  0  0  0  0  0  0  0  0  0  0  0
   58.0960   25.5700   45.7410 C   0  0  0  0  0  0  0  0  0  0  0  0
   59.2080   26.4190   45.5650 C   0  0  0  0  0  0  0  0  0  0  0  0
   59.0530   27.7960   45.4280 C   0  0  0  0  0  0  0  0  0  0  0  0
   60.1560   28.5780   45.3120 F   0  0  0  0  0  0  0  0  0  0  0  0
   61.8858   34.1484   50.0376 H   0  0  0  0  0  0  0  0  0  0  0  0
   61.7027   33.2686   48.4823 H   0  0  0  0  0  0  0  0  0  0  0  0
   62.1245   35.0147   48.4823 H   0  0  0  0  0  0  0  0  0  0  0  0
   59.5275   33.9513   49.6833 H   0  0  0  0  0  0  0  0  0  0  0  0
   59.9540   35.6483   49.2364 H   0  0  0  0  0  0  0  0  0  0  0  0
   60.2887   31.8826   48.4506 H   0  0  0  0  0  0  0  0  0  0  0  0
   59.4673   29.7279   47.4335 H   0  0  0  0  0  0  0  0  0  0  0  0
   57.8047   34.1386   45.6623 H   0  0  0  0  0  0  0  0  0  0  0  0
   56.2537   29.9049   43.6309 H   0  0  0  0  0  0  0  0  0  0  0  0
   55.6612   28.0113   45.6841 H   0  0  0  0  0  0  0  0  0  0  0  0
   60.2182   25.9848   45.5353 H   0  0  0  0  0  0  0  0  0  0  0  0
  1  2  1  0
  2  3  1  0
  3  4  1  0
  4  5  2  0
  5  6  1  0
  6  7  2  0
  7  8  1  0
  8  9  2  0
  8 10  1  0
 10 11  2  0
 11 12  1  0
 12 13  1  0
 13 14  2  0
 14 15  1  0
 15 16  1  0
 16 17  2  0
 16 18  1  0
 18 19  1  0
 19 20  1  0
 20 21  2  0
 20 22  1  0
 22 23  1  0
 23 24  2  0
 24 25  1  0
  9  4  1  0
 24 13  1  0
 12  7  1  0
 22 15  2  0
  1 26  1  0
  1 27  1  0
  1 28  1  0
  2 29  1  0
  2 30  1  0
  5 31  1  0
  6 32  1  0
  9 33  1  0
 11 34  1  0
 14 35  1  0
 23 36  1  0
M  CHG  1  18  -1
M  END
>  <UniqueID>  (55) 
54

>  <SMILES>  (55) 
CCOc1ccc2c(c1)ncn2-c1cc2c(=O)[n-]sc(=O)c2cc1F

>  <Energy>  (55) 
94.24691546498596

>  <Genealogy>  (55) 
CCOc1ccc2c(c1)ncn2-c1cc2c(=O)[n-]sc(=O)c2cc1F (protonated)
CCOc1ccc2c(c1)ncn2-c1cc2c(=O)[n-]sc(=O)c2cc1F (3D coordinates assigned)
CCOc1ccc2c(c1)ncn2-c1cc2c(=O)[n-]sc(=O)c2cc1F (optimized conformer: 94.24691546498596 kcal/mol)

>  <smiles>  (55) 
CCOc1ccc2c(c1)ncn2-c1cc2c(=O)[nH]sc(=O)c2cc1F

>  <score_type>  (55) 
oracle

>  <origin>  (55) 
adg

>  <m_score__min__energy>  (55) 
-9.2799999999999994

>  <m_primary>  (55) 
energy

$$$$
55:0
     RDKit          3D

 56 59  0  0  0  0  0  0  0  0999 V2000
   57.6704   33.8702   45.6828 H   0  0  0  0  0  0  0  0  0  0  0  0
   58.3850   33.3700   46.3530 C   0  0  0  0  0  0  0  0  0  0  0  0
   58.5850   32.0440   46.2010 C   0  0  0  0  0  0  0  0  0  0  0  0
   57.8100   31.2460   45.2050 C   0  0  0  0  0  0  0  0  0  0  0  0
   57.2040   30.1000   45.6220 N   0  0  0  0  0  0  0  0  0  0  0  0
   56.4770   29.2980   44.7980 C   0  0  0  0  0  0  0  0  0  0  0  0
   55.8990   28.2220   45.2500 N   0  0  0  0  0  0  0  0  0  0  0  0
   56.5380   27.2050   46.0420 C   0  0  0  0  0  0  0  0  0  0  0  0
   55.8870   26.1650   46.3350 O   0  0  0  0  0  0  0  0  0  0  0  0
   57.9390   27.3370   46.5020 C   0  0  0  0  0  0  0  0  0  0  0  0
   58.9960   26.8540   45.7140 C   0  0  0  0  0  0  0  0  0  0  0  0
   58.7820   26.3626   44.7534 H   0  0  0  0  0  0  0  0  0  0  0  0
   60.3170   26.9940   46.1430 C   0  0  0  0  0  0  0  0  0  0  0  0
   61.1392   26.6009   45.5271 H   0  0  0  0  0  0  0  0  0  0  0  0
   60.5960   27.6330   47.3540 C   0  0  0  0  0  0  0  0  0  0  0  0
   61.6392   27.7451   47.6844 H   0  0  0  0  0  0  0  0  0  0  0  0
   59.5590   28.1310   48.1490 C   0  0  0  0  0  0  0  0  0  0  0  0
   59.8960   28.8220   49.3610 N   0  0  0  0  0  0  0  0  0  0  0  0
   60.7590   28.1410   50.7030 S   0  0  0  0  0  0  0  0  0  0  0  0
   61.1080   26.7090   50.4110 O   0  0  0  0  0  0  0  0  0  0  0  0
   59.8740   28.1830   51.9160 O   0  0  0  0  0  0  0  0  0  0  0  0
   62.2330   29.0830   51.0330 C   0  0  0  0  0  0  0  0  0  0  0  0
   62.3746   29.1735   52.1201 H   0  0  0  0  0  0  0  0  0  0  0  0
   63.1013   28.5720   50.5914 H   0  0  0  0  0  0  0  0  0  0  0  0
   62.1340   30.0856   50.5914 H   0  0  0  0  0  0  0  0  0  0  0  0
   58.2240   27.9670   47.7250 C   0  0  0  0  0  0  0  0  0  0  0  0
   57.4010   28.3345   48.3556 H   0  0  0  0  0  0  0  0  0  0  0  0
   56.3160   29.6610   43.4580 C   0  0  0  0  0  0  0  0  0  0  0  0
   55.7298   29.0270   42.7765 H   0  0  0  0  0  0  0  0  0  0  0  0
   56.9080   30.8380   42.9940 C   0  0  0  0  0  0  0  0  0  0  0  0
   56.7861   31.1349   41.9419 H   0  0  0  0  0  0  0  0  0  0  0  0
   57.6540   31.6390   43.8610 C   0  0  0  0  0  0  0  0  0  0  0  0
   58.1159   32.5689   43.4978 H   0  0  0  0  0  0  0  0  0  0  0  0
   59.5850   31.3280   47.0830 C   0  0  0  0  0  0  0  0  0  0  0  0
   60.0087   30.4785   46.5272 H   0  0  0  0  0  0  0  0  0  0  0  0
   59.0634   30.9815   47.9873 H   0  0  0  0  0  0  0  0  0  0  0  0
   60.7170   32.2570   47.5080 C   0  0  0  0  0  0  0  0  0  0  0  0
   61.3187   32.5302   46.6286 H   0  0  0  0  0  0  0  0  0  0  0  0
   61.3579   31.7470   48.2423 H   0  0  0  0  0  0  0  0  0  0  0  0
   60.1480   33.4660   48.1070 N   0  0  0  0  0  0  0  0  0  0  0  0
   60.8000   34.0810   49.2310 C   0  0  0  0  0  0  0  0  0  0  0  0
   61.7220   34.9190   49.0390 O   0  0  0  0  0  0  0  0  0  0  0  0
   60.3900   33.8010   50.5780 N   0  0  0  0  0  0  0  0  0  0  0  0
   59.5350   32.8940   50.9610 C   0  0  0  0  0  0  0  0  0  0  0  0
   58.4850   33.2740   51.7390 N   0  0  0  0  0  0  0  0  0  0  0  0
   57.5610   32.3790   52.1810 C   0  0  0  0  0  0  0  0  0  0  0  0
   56.7198   32.7133   52.8060 H   0  0  0  0  0  0  0  0  0  0  0  0
   57.6890   31.0330   51.8350 C   0  0  0  0  0  0  0  0  0  0  0  0
   56.9432   30.3001   52.1764 H   0  0  0  0  0  0  0  0  0  0  0  0
   58.7420   30.6340   51.0730 N   0  0  0  0  0  0  0  0  0  0  0  0
   58.8430   29.6240   50.8270 H   0  0  0  0  0  0  0  0  0  0  0  0
   59.6710   31.5270   50.6360 C   0  0  0  0  0  0  0  0  0  0  0  0
   60.5244   31.1852   50.0320 H   0  0  0  0  0  0  0  0  0  0  0  0
   59.0920   34.2020   47.3960 C   0  0  0  0  0  0  0  0  0  0  0  0
   59.5461   35.0724   46.8998 H   0  0  0  0  0  0  0  0  0  0  0  0
   58.3402   34.4972   48.1428 H   0  0  0  0  0  0  0  0  0  0  0  0
  1  2  1  0
  2  3  2  0
  3  4  1  0
  4  5  1  0
  5  6  1  0
  6  7  2  0
  7  8  1  0
  8  9  2  0
  8 10  1  0
 10 11  2  0
 11 12  1  0
 11 13  1  0
 13 14  1  0
 13 15  2  0
 15 16  1  0
 15 17  1  0
 17 18  1  0
 18 19  1  0
 19 20  2  0
 19 21  2  0
 19 22  1  0
 22 23  1  0
 22 24  1  0
 22 25  1  0
 17 26  2  0
 26 27  1  0
  6 28  1  0
 28 29  1  0
 28 30  2  0
 30 31  1  0
 30 32  1  0
 32 33  1  0
  3 34  1  0
 34 35  1  0
 34 36  1  0
 34 37  1  0
 37 38  1  0
 37 39  1  0
 37 40  1  0
 40 41  1  0
 41 42  2  0
 41 43  1  0
 43 44  2  3
 44 45  1  0
 45 46  1  0
 46 47  1  0
 46 48  2  0
 48 49  1  0
 48 50  1  0
 50 51  1  0
 50 52  2  0
 52 53  1  0
 40 54  1  0
 54 55  1  0
 54 56  1  0
 54  2  1  0
 32  4  2  0
 52 44  1  0
 26 10  1  0
M  CHG  4   5  -1  18  -1  45  -1  50   1
M  END
>  <UniqueID>  (56) 
55

>  <SMILES>  (56) 
CS(=O)(=O)[N-]c1cccc(C(=O)/N=c2/cccc(C3=CCN(C(=O)N=c4c[nH+]cc[n-]4)CC3)[n-]2)c1

>  <Energy>  (56) 
79.71413598570985

>  <Genealogy>  (56) 
CS(=O)(=O)[N-]c1cccc(C(=O)N=c2cccc(C3=CCN(C(=O)N=c4c[nH+]cc[n-]4)CC3)[n-]2)c1 (protonated)
CS(=O)(=O)[N-]c1cccc(C(=O)/N=c2/cccc(C3=CCN(C(=O)N=c4c[nH+]cc[n-]4)CC3)[n-]2)c1 (cis-trans isomerization)
CS(=O)(=O)[N-]c1cccc(C(=O)/N=c2/cccc(C3=CCN(C(=O)N=c4c[nH+]cc[n-]4)CC3)[n-]2)c1 (3D coordinates assigned)
CS(=O)(=O)[N-]c1cccc(C(=O)/N=c2/cccc(C3=CCN(C(=O)N=c4c[nH+]cc[n-]4)CC3)[n-]2)c1 (nonaromatic ring conformer: 79.71413598570985 kcal/mol)

>  <smiles>  (56) 
CS(=O)(=O)Nc1cccc(C(=O)N=c2cccc(C3=CCN(C(=O)N=c4cncc[nH]4)CC3)[nH]2)c1

>  <score_type>  (56) 
oracle

>  <origin>  (56) 
adg

>  <m_score__min__energy>  (56) 
-12.609999999999999

>  <m_primary>  (56) 
energy

$$$$
56:0
     RDKit          3D

 42 44  0  0  0  0  0  0  0  0999 V2000
   57.4400   31.9690   42.9460 O   0  0  0  0  0  0  0  0  0  0  0  0
   57.0680   31.2440   43.9090 C   0  0  0  0  0  0  0  0  0  0  0  0
   56.2850   29.9950   43.6310 C   0  0  0  0  0  0  0  0  0  0  0  0
   55.9200   29.3320   44.8770 N   0  0  0  0  0  0  0  0  0  0  0  0
   56.6070   28.1900   45.3990 C   0  0  0  0  0  0  0  0  0  0  0  0
   55.9700   27.1400   45.6910 O   0  0  0  0  0  0  0  0  0  0  0  0
   58.0580   28.2500   45.5980 C   0  0  0  0  0  0  0  0  0  0  0  0
   58.9930   28.6440   44.6610 C   0  0  0  0  0  0  0  0  0  0  0  0
   60.2160   28.5380   45.2890 C   0  0  0  0  0  0  0  0  0  0  0  0
   59.9520   28.0860   46.5670 C   0  0  0  0  0  0  0  0  0  0  0  0
   58.6580   27.9240   46.7200 O   0  0  0  0  0  0  0  0  0  0  0  0
   57.3840   31.6130   45.2590 N   0  0  0  0  0  0  0  0  0  0  0  0
   58.2100   32.7440   45.5700 C   0  0  0  0  0  0  0  0  0  0  0  0
   58.2330   33.8290   44.6780 C   0  0  0  0  0  0  0  0  0  0  0  0
   59.0140   34.9520   44.9450 C   0  0  0  0  0  0  0  0  0  0  0  0
   59.7800   35.0080   46.1050 C   0  0  0  0  0  0  0  0  0  0  0  0
   59.7710   33.9400   47.0050 C   0  0  0  0  0  0  0  0  0  0  0  0
   58.9900   32.7920   46.7590 C   0  0  0  0  0  0  0  0  0  0  0  0
   59.0460   31.6650   47.7330 C   0  0  0  0  0  0  0  0  0  0  0  0
   58.4240   30.5900   47.5150 O   0  0  0  0  0  0  0  0  0  0  0  0
   59.8170   31.7940   48.9340 N   0  0  0  0  0  0  0  0  0  0  0  0
   61.1560   31.2380   49.0990 C   0  0  0  0  0  0  0  0  0  0  0  0
   62.1700   32.0850   48.3970 C   0  0  0  0  0  0  0  0  0  0  0  0
   62.8590   31.7440   47.2410 C   0  0  0  0  0  0  0  0  0  0  0  0
   63.7400   32.7430   46.8110 C   0  0  0  0  0  0  0  0  0  0  0  0
   63.7440   33.8700   47.6240 C   0  0  0  0  0  0  0  0  0  0  0  0
   62.6530   33.6220   48.8790 S   0  0  0  0  0  0  0  0  0  0  0  0
   55.3702   30.2568   43.0790 H   0  0  0  0  0  0  0  0  0  0  0  0
   56.9065   29.3116   43.0337 H   0  0  0  0  0  0  0  0  0  0  0  0
   58.8019   28.9736   43.6291 H   0  0  0  0  0  0  0  0  0  0  0  0
   61.2023   28.7671   44.8591 H   0  0  0  0  0  0  0  0  0  0  0  0
   60.7106   27.8913   47.3394 H   0  0  0  0  0  0  0  0  0  0  0  0
   57.0160   31.0300   46.0440 H   0  0  0  0  0  0  0  0  0  0  0  0
   57.6286   33.7919   43.7597 H   0  0  0  0  0  0  0  0  0  0  0  0
   59.0248   35.7947   44.2380 H   0  0  0  0  0  0  0  0  0  0  0  0
   60.3946   35.8961   46.3140 H   0  0  0  0  0  0  0  0  0  0  0  0
   60.3816   33.9952   47.9183 H   0  0  0  0  0  0  0  0  0  0  0  0
   61.4001   31.1961   50.1707 H   0  0  0  0  0  0  0  0  0  0  0  0
   61.1759   30.2281   48.6635 H   0  0  0  0  0  0  0  0  0  0  0  0
   62.7261   30.7863   46.7165 H   0  0  0  0  0  0  0  0  0  0  0  0
   64.3696   32.6453   45.9143 H   0  0  0  0  0  0  0  0  0  0  0  0
   64.3566   34.7709   47.4723 H   0  0  0  0  0  0  0  0  0  0  0  0
  1  2  2  0
  2  3  1  0
  3  4  1  0
  4  5  1  0
  5  6  2  0
  5  7  1  0
  7  8  2  0
  8  9  1  0
  9 10  2  0
 10 11  1  0
  2 12  1  0
 12 13  1  0
 13 14  2  0
 14 15  1  0
 15 16  2  0
 16 17  1  0
 17 18  2  0
 18 19  1  0
 19 20  2  0
 19 21  1  0
 21 22  1  0
 22 23  1  0
 23 24  2  0
 24 25  1  0
 25 26  2  0
 26 27  1  0
 11  7  1  0
 18 13  1  0
 27 23  1  0
  3 28  1  0
  3 29  1  0
  8 30  1  0
  9 31  1  0
 10 32  1  0
 12 33  1  0
 14 34  1  0
 15 35  1  0
 16 36  1  0
 17 37  1  0
 22 38  1  0
 22 39  1  0
 24 40  1  0
 25 41  1  0
 26 42  1  0
M  CHG  2   4  -1  21  -1
M  END
>  <UniqueID>  (57) 
56

>  <SMILES>  (57) 
O=C(C[N-]C(=O)c1ccco1)Nc1ccccc1C(=O)[N-]Cc1cccs1

>  <Energy>  (57) 
96.10336552856297

>  <Genealogy>  (57) 
O=C(C[N-]C(=O)c1ccco1)Nc1ccccc1C(=O)[N-]Cc1cccs1 (protonated)
O=C(C[N-]C(=O)c1ccco1)Nc1ccccc1C(=O)[N-]Cc1cccs1 (3D coordinates assigned)
O=C(C[N-]C(=O)c1ccco1)Nc1ccccc1C(=O)[N-]Cc1cccs1 (optimized conformer: 96.10336552856297 kcal/mol)

>  <smiles>  (57) 
O=C(CNC(=O)c1ccco1)Nc1ccccc1C(=O)NCc1cccs1

>  <score_type>  (57) 
oracle

>  <origin>  (57) 
adg

>  <m_score__min__energy>  (57) 
-11.56

>  <m_primary>  (57) 
energy

$$$$
57:0
     RDKit          3D

 50 53  0  0  0  0  0  0  0  0999 V2000
   57.9206   29.7863   45.1380 H   0  0  0  0  0  0  0  0  0  0  0  0
   57.7320   28.7220   44.9340 C   0  0  0  0  0  0  0  0  0  0  0  0
   57.1345   28.4272   44.0587 H   0  0  0  0  0  0  0  0  0  0  0  0
   58.2310   27.7830   45.7530 C   0  0  0  0  0  0  0  0  0  0  0  0
   58.0760   26.4000   45.6230 C   0  0  0  0  0  0  0  0  0  0  0  0
   57.4090   25.7380   44.6570 C   0  0  0  0  0  0  0  0  0  0  0  0
   57.7619   25.8350   43.6197 H   0  0  0  0  0  0  0  0  0  0  0  0
   56.2260   24.8870   44.9190 C   0  0  0  0  0  0  0  0  0  0  0  0
   55.0870   25.3890   45.5730 C   0  0  0  0  0  0  0  0  0  0  0  0
   55.0390   26.7130   45.9950 O   0  0  0  0  0  0  0  0  0  0  0  0
   54.0110   24.5810   45.7800 N   0  0  0  0  0  0  0  0  0  0  0  0
   53.1730   24.9630   46.2740 H   0  0  0  0  0  0  0  0  0  0  0  0
   54.0090   23.2950   45.3390 C   0  0  0  0  0  0  0  0  0  0  0  0
   53.0040   22.5610   45.5370 O   0  0  0  0  0  0  0  0  0  0  0  0
   55.0850   22.7990   44.6790 N   0  0  0  0  0  0  0  0  0  0  0  0
   56.1850   23.5630   44.4540 C   0  0  0  0  0  0  0  0  0  0  0  0
   57.1660   23.0690   43.8350 O   0  0  0  0  0  0  0  0  0  0  0  0
   58.7910   25.8250   46.6650 C   0  0  0  0  0  0  0  0  0  0  0  0
   58.9036   24.7503   46.8710 H   0  0  0  0  0  0  0  0  0  0  0  0
   59.3330   26.8660   47.3920 C   0  0  0  0  0  0  0  0  0  0  0  0
   60.2010   26.6950   48.6020 C   0  0  0  0  0  0  0  0  0  0  0  0
   59.5919   26.8150   49.5101 H   0  0  0  0  0  0  0  0  0  0  0  0
   60.6504   25.6911   48.5919 H   0  0  0  0  0  0  0  0  0  0  0  0
   60.9976   27.4535   48.5919 H   0  0  0  0  0  0  0  0  0  0  0  0
   59.0010   28.0530   46.8380 N   0  0  0  0  0  0  0  0  0  0  0  0
   59.3890   29.3480   47.3310 C   0  0  0  0  0  0  0  0  0  0  0  0
   60.2720   30.1480   46.5950 C   0  0  0  0  0  0  0  0  0  0  0  0
   60.6617   29.7898   45.6307 H   0  0  0  0  0  0  0  0  0  0  0  0
   60.6600   31.4000   47.0810 C   0  0  0  0  0  0  0  0  0  0  0  0
   61.3504   32.0232   46.4937 H   0  0  0  0  0  0  0  0  0  0  0  0
   60.1770   31.8670   48.3090 C   0  0  0  0  0  0  0  0  0  0  0  0
   60.6050   33.1290   48.7530 O   0  0  0  0  0  0  0  0  0  0  0  0
   59.9430   34.3660   48.4840 C   0  0  0  0  0  0  0  0  0  0  0  0
   59.2672   34.6024   49.3191 H   0  0  0  0  0  0  0  0  0  0  0  0
   60.7017   35.1543   48.3703 H   0  0  0  0  0  0  0  0  0  0  0  0
   59.1430   34.2790   47.2110 C   0  0  0  0  0  0  0  0  0  0  0  0
   57.8970   33.6310   47.1920 C   0  0  0  0  0  0  0  0  0  0  0  0
   57.4954   33.1880   48.1153 H   0  0  0  0  0  0  0  0  0  0  0  0
   57.1650   33.5470   46.0030 C   0  0  0  0  0  0  0  0  0  0  0  0
   56.1866   33.0444   45.9951 H   0  0  0  0  0  0  0  0  0  0  0  0
   57.6740   34.1000   44.8260 C   0  0  0  0  0  0  0  0  0  0  0  0
   57.0958   34.0342   43.8925 H   0  0  0  0  0  0  0  0  0  0  0  0
   58.9180   34.7370   44.8340 C   0  0  0  0  0  0  0  0  0  0  0  0
   59.3187   35.1713   43.9062 H   0  0  0  0  0  0  0  0  0  0  0  0
   59.6540   34.8230   46.0200 C   0  0  0  0  0  0  0  0  0  0  0  0
   60.6363   35.3181   46.0208 H   0  0  0  0  0  0  0  0  0  0  0  0
   59.2850   31.0640   49.0460 C   0  0  0  0  0  0  0  0  0  0  0  0
   58.8905   31.4239   50.0077 H   0  0  0  0  0  0  0  0  0  0  0  0
   58.8990   29.8110   48.5600 C   0  0  0  0  0  0  0  0  0  0  0  0
   58.2079   29.1860   49.1446 H   0  0  0  0  0  0  0  0  0  0  0  0
  1  2  1  0
  2  3  1  0
  2  4  2  0
  4  5  1  0
  5  6  2  0
  6  7  1  0
  6  8  1  0
  8  9  2  0
  9 10  1  0
  9 11  1  0
 11 12  1  0
 11 13  1  0
 13 14  2  0
 13 15  1  0
 15 16  1  0
 16 17  2  0
  5 18  1  0
 18 19  1  0
 18 20  2  0
 20 21  1  0
 21 22  1  0
 21 23  1  0
 21 24  1  0
 20 25  1  0
 25 26  1  0
 26 27  2  0
 27 28  1  0
 27 29  1  0
 29 30  1  0
 29 31  2  0
 31 32  1  0
 32 33  1  0
 33 34  1  0
 33 35  1  0
 33 36  1  0
 36 37  2  0
 37 38  1  0
 37 39  1  0
 39 40  1  0
 39 41  2  0
 41 42  1  0
 41 43  1  0
 43 44  1  0
 43 45  2  0
 45 46  1  0
 31 47  1  0
 47 48  1  0
 47 49  2  0
 49 50  1  0
 25  4  1  0
 49 26  1  0
 16  8  1  0
 45 36  1  0
M  CHG  2  10  -1  15  -1
M  END
>  <UniqueID>  (58) 
57

>  <SMILES>  (58) 
C=c1/c(=C/c2c([O-])[nH]c(=O)[n-]c2=O)cc(C)n1-c1ccc(OCc2ccccc2)cc1

>  <Energy>  (58) 
98.95466709367817

>  <Genealogy>  (58) 
C=c1c(=Cc2c([O-])[nH]c(=O)[n-]c2=O)cc(C)n1-c1ccc(OCc2ccccc2)cc1 (protonated)
C=c1/c(=C/c2c([O-])[nH]c(=O)[n-]c2=O)cc(C)n1-c1ccc(OCc2ccccc2)cc1 (cis-trans isomerization)
C=c1/c(=C/c2c([O-])[nH]c(=O)[n-]c2=O)cc(C)n1-c1ccc(OCc2ccccc2)cc1 (3D coordinates assigned)
C=c1/c(=C/c2c([O-])[nH]c(=O)[n-]c2=O)cc(C)n1-c1ccc(OCc2ccccc2)cc1 (optimized conformer: 98.95466709367817 kcal/mol)

>  <smiles>  (58) 
C=c1c(=Cc2c(O)[nH]c(=O)[nH]c2=O)cc(C)n1-c1ccc(OCc2ccccc2)cc1

>  <score_type>  (58) 
oracle

>  <origin>  (58) 
adg

>  <m_score__min__energy>  (58) 
-14.49

>  <m_primary>  (58) 
energy

$$$$
58:0
     RDKit          3D

 42 43  0  0  0  0  0  0  0  0999 V2000
   55.7240   23.7040   43.6630 C   0  0  0  0  0  0  0  0  0  0  0  0
   54.7430   23.2910   45.0880 S   0  0  0  0  0  0  0  0  0  0  0  0
   53.2890   23.3750   44.7230 O   0  0  0  0  0  0  0  0  0  0  0  0
   55.0450   21.8830   45.5150 O   0  0  0  0  0  0  0  0  0  0  0  0
   55.0620   24.4310   46.3610 N   0  0  0  0  0  0  0  0  0  0  0  0
   55.8930   25.6000   46.3190 C   0  0  0  0  0  0  0  0  0  0  0  0
   55.3640   26.6960   45.9950 O   0  0  0  0  0  0  0  0  0  0  0  0
   57.3620   25.5820   46.6400 C   0  0  0  0  0  0  0  0  0  0  0  0
   58.1910   26.1220   45.4730 C   0  0  0  0  0  0  0  0  0  0  0  0
   58.3270   27.6180   45.5680 C   0  0  0  0  0  0  0  0  0  0  0  0
   58.3290   28.4030   44.4050 C   0  0  0  0  0  0  0  0  0  0  0  0
   58.4910   29.7870   44.4890 C   0  0  0  0  0  0  0  0  0  0  0  0
   58.6600   30.4060   45.7340 C   0  0  0  0  0  0  0  0  0  0  0  0
   58.8340   31.8300   45.7930 N   0  0  0  0  0  0  0  0  0  0  0  0
   60.0600   32.3510   46.4090 C   0  0  0  0  0  0  0  0  0  0  0  0
   60.3290   33.8020   45.9980 C   0  0  0  0  0  0  0  0  0  0  0  0
   59.0880   34.6600   46.2500 C   0  0  0  0  0  0  0  0  0  0  0  0
   57.9200   34.1860   45.3820 C   0  0  0  0  0  0  0  0  0  0  0  0
   57.7280   32.7000   45.4740 C   0  0  0  0  0  0  0  0  0  0  0  0
   56.6010   32.2120   45.1850 O   0  0  0  0  0  0  0  0  0  0  0  0
   58.6790   29.6230   46.9050 C   0  0  0  0  0  0  0  0  0  0  0  0
   58.8780   30.2290   48.1970 C   0  0  0  0  0  0  0  0  0  0  0  0
   59.0370   30.7160   49.2350 N   0  0  0  0  0  0  0  0  0  0  0  0
   58.5160   28.2330   46.8160 C   0  0  0  0  0  0  0  0  0  0  0  0
   56.6920   24.1115   43.9899 H   0  0  0  0  0  0  0  0  0  0  0  0
   55.8918   22.8002   43.0589 H   0  0  0  0  0  0  0  0  0  0  0  0
   55.1948   24.4557   43.0589 H   0  0  0  0  0  0  0  0  0  0  0  0
   57.5428   26.2063   47.5275 H   0  0  0  0  0  0  0  0  0  0  0  0
   57.6641   24.5413   46.8291 H   0  0  0  0  0  0  0  0  0  0  0  0
   59.1915   25.6656   45.4985 H   0  0  0  0  0  0  0  0  0  0  0  0
   57.6825   25.8711   44.5304 H   0  0  0  0  0  0  0  0  0  0  0  0
   58.2023   27.9255   43.4222 H   0  0  0  0  0  0  0  0  0  0  0  0
   58.4859   30.3949   43.5722 H   0  0  0  0  0  0  0  0  0  0  0  0
   59.9569   32.3038   47.5031 H   0  0  0  0  0  0  0  0  0  0  0  0
   60.9044   31.7354   46.0654 H   0  0  0  0  0  0  0  0  0  0  0  0
   61.1697   34.1969   46.5873 H   0  0  0  0  0  0  0  0  0  0  0  0
   60.5752   33.8322   44.9263 H   0  0  0  0  0  0  0  0  0  0  0  0
   58.8048   34.5835   47.3102 H   0  0  0  0  0  0  0  0  0  0  0  0
   59.3204   35.7039   45.9925 H   0  0  0  0  0  0  0  0  0  0  0  0
   56.9998   34.6860   45.7185 H   0  0  0  0  0  0  0  0  0  0  0  0
   58.1455   34.4388   44.3354 H   0  0  0  0  0  0  0  0  0  0  0  0
   58.5363   27.6207   47.7296 H   0  0  0  0  0  0  0  0  0  0  0  0
  1  2  1  0
  2  3  2  0
  2  4  2  0
  2  5  1  0
  5  6  1  0
  6  7  2  0
  6  8  1  0
  8  9  1  0
  9 10  1  0
 10 11  2  0
 11 12  1  0
 12 13  2  0
 13 14  1  0
 14 15  1  0
 15 16  1  0
 16 17  1  0
 17 18  1  0
 18 19  1  0
 19 20  2  0
 13 21  1  0
 21 22  1  0
 22 23  3  0
 21 24  2  0
 24 10  1  0
 19 14  1  0
  1 25  1  0
  1 26  1  0
  1 27  1  0
  8 28  1  0
  8 29  1  0
  9 30  1  0
  9 31  1  0
 11 32  1  0
 12 33  1  0
 15 34  1  0
 15 35  1  0
 16 36  1  0
 16 37  1  0
 17 38  1  0
 17 39  1  0
 18 40  1  0
 18 41  1  0
 24 42  1  0
M  CHG  1   5  -1
M  END
>  <UniqueID>  (59) 
58

>  <SMILES>  (59) 
CS(=O)(=O)[N-]C(=O)CCc1ccc(N2CCCCC2=O)c(C#N)c1

>  <Energy>  (59) 
40.987583671521286

>  <Genealogy>  (59) 
CS(=O)(=O)[N-]C(=O)CCc1ccc(N2CCCCC2=O)c(C#N)c1 (protonated)
CS(=O)(=O)[N-]C(=O)CCc1ccc(N2CCCCC2=O)c(C#N)c1 (3D coordinates assigned)
CS(=O)(=O)[N-]C(=O)CCc1ccc(N2CCCCC2=O)c(C#N)c1 (nonaromatic ring conformer: 40.987583671521286 kcal/mol)

>  <smiles>  (59) 
CS(=O)(=O)NC(=O)CCc1ccc(N2CCCCC2=O)c(C#N)c1

>  <score_type>  (59) 
oracle

>  <origin>  (59) 
adg

>  <m_score__min__energy>  (59) 
-10.75

>  <m_primary>  (59) 
energy

$$$$
59:0
     RDKit          3D

 51 54  0  0  0  0  0  0  0  0999 V2000
   62.5414   30.8058   48.2227 H   0  0  0  0  0  0  0  0  0  0  0  0
   61.4660   30.7590   47.9960 C   0  0  0  0  0  0  0  0  0  0  0  0
   60.5240   30.4930   49.0990 C   0  0  0  0  0  0  0  0  0  0  0  0
   60.0110   29.3450   49.1870 O   0  0  0  0  0  0  0  0  0  0  0  0
   60.2300   31.4880   50.0940 N   0  0  0  0  0  0  0  0  0  0  0  0
   60.9650   32.1970   50.3140 H   0  0  0  0  0  0  0  0  0  0  0  0
   59.0440   31.4750   50.9090 C   0  0  0  0  0  0  0  0  0  0  0  0
   58.5290   32.7020   51.4020 C   0  0  0  0  0  0  0  0  0  0  0  0
   59.0516   33.6421   51.1716 H   0  0  0  0  0  0  0  0  0  0  0  0
   57.3580   32.7310   52.1820 C   0  0  0  0  0  0  0  0  0  0  0  0
   56.9585   33.6768   52.5767 H   0  0  0  0  0  0  0  0  0  0  0  0
   56.7250   31.5190   52.4350 C   0  0  0  0  0  0  0  0  0  0  0  0
   55.6340   31.2890   53.1150 O   0  0  0  0  0  0  0  0  0  0  0  0
   55.4460   29.9820   53.0540 C   0  0  0  0  0  0  0  0  0  0  0  0
   54.2860   29.2910   53.6840 C   0  0  0  0  0  0  0  0  0  0  0  0
   54.3773   29.3454   54.7789 H   0  0  0  0  0  0  0  0  0  0  0  0
   53.3525   29.7804   53.3691 H   0  0  0  0  0  0  0  0  0  0  0  0
   54.2718   28.2371   53.3691 H   0  0  0  0  0  0  0  0  0  0  0  0
   56.3960   29.3280   52.3330 N   0  0  0  0  0  0  0  0  0  0  0  0
   57.2000   30.3380   51.9570 C   0  0  0  0  0  0  0  0  0  0  0  0
   58.3540   30.2680   51.1820 C   0  0  0  0  0  0  0  0  0  0  0  0
   58.7189   29.3057   50.7936 H   0  0  0  0  0  0  0  0  0  0  0  0
   61.0700   30.9460   46.7310 C   0  0  0  0  0  0  0  0  0  0  0  0
   61.6024   31.6833   46.1122 H   0  0  0  0  0  0  0  0  0  0  0  0
   59.9470   30.2000   46.1380 C   0  0  0  0  0  0  0  0  0  0  0  0
   58.3250   30.2860   46.5880 S   0  0  0  0  0  0  0  0  0  0  0  0
   57.7510   29.2120   45.4250 C   0  0  0  0  0  0  0  0  0  0  0  0
   56.3580   28.7590   45.2450 C   0  0  0  0  0  0  0  0  0  0  0  0
   55.5300   29.5560   44.7270 O   0  0  0  0  0  0  0  0  0  0  0  0
   55.8960   27.4540   45.6250 N   0  0  0  0  0  0  0  0  0  0  0  0
   56.6170   26.4340   46.3840 C   0  0  0  0  0  0  0  0  0  0  0  0
   56.9581   26.8708   47.3342 H   0  0  0  0  0  0  0  0  0  0  0  0
   55.9335   25.5907   46.5618 H   0  0  0  0  0  0  0  0  0  0  0  0
   57.8360   25.9090   45.6110 C   0  0  0  0  0  0  0  0  0  0  0  0
   58.0978   26.6362   44.8283 H   0  0  0  0  0  0  0  0  0  0  0  0
   58.6576   25.7772   46.3305 H   0  0  0  0  0  0  0  0  0  0  0  0
   57.5750   24.5740   44.9630 C   0  0  0  0  0  0  0  0  0  0  0  0
   58.4260   23.4860   45.2210 C   0  0  0  0  0  0  0  0  0  0  0  0
   59.2957   23.6156   45.8820 H   0  0  0  0  0  0  0  0  0  0  0  0
   58.1720   22.2390   44.6410 C   0  0  0  0  0  0  0  0  0  0  0  0
   58.8380   21.3893   44.8517 H   0  0  0  0  0  0  0  0  0  0  0  0
   57.0730   22.0710   43.7940 C   0  0  0  0  0  0  0  0  0  0  0  0
   56.8742   21.0894   43.3390 H   0  0  0  0  0  0  0  0  0  0  0  0
   56.2260   23.1510   43.5250 C   0  0  0  0  0  0  0  0  0  0  0  0
   55.1560   22.9850   42.7080 F   0  0  0  0  0  0  0  0  0  0  0  0
   56.4740   24.3990   44.1060 C   0  0  0  0  0  0  0  0  0  0  0  0
   55.8057   25.2461   43.8918 H   0  0  0  0  0  0  0  0  0  0  0  0
   58.8400   28.7410   44.6950 C   0  0  0  0  0  0  0  0  0  0  0  0
   58.7485   27.9978   43.8892 H   0  0  0  0  0  0  0  0  0  0  0  0
   60.0620   29.3030   45.0840 C   0  0  0  0  0  0  0  0  0  0  0  0
   61.0198   29.0579   44.6018 H   0  0  0  0  0  0  0  0  0  0  0  0
  1  2  1  0
  2  3  1  0
  3  4  2  0
  3  5  1  0
  5  6  1  0
  5  7  1  0
  7  8  2  0
  8  9  1  0
  8 10  1  0
 10 11  1  0
 10 12  2  0
 12 13  1  0
 13 14  1  0
 14 15  1  0
 15 16  1  0
 15 17  1  0
 15 18  1  0
 14 19  2  0
 19 20  1  0
 20 21  2  0
 21 22  1  0
  2 23  2  0
 23 24  1  0
 23 25  1  0
 25 26  1  0
 26 27  1  0
 27 28  1  0
 28 29  2  0
 28 30  1  0
 30 31  1  0
 31 32  1  0
 31 33  1  0
 31 34  1  0
 34 35  1  0
 34 36  1  0
 34 37  1  0
 37 38  2  0
 38 39  1  0
 38 40  1  0
 40 41  1  0
 40 42  2  0
 42 43  1  0
 42 44  1  0
 44 45  1  0
 44 46  2  0
 46 47  1  0
 27 48  2  0
 48 49  1  0
 48 50  1  0
 50 51  1  0
 21  7  1  0
 50 25  2  0
 20 12  1  0
 46 37  1  0
M  CHG  1  30  -1
M  END
>  <UniqueID>  (60) 
59

>  <SMILES>  (60) 
Cc1nc2cc(NC(=O)/C=C/c3ccc(C(=O)[N-]CCc4cccc(F)c4)s3)ccc2o1

>  <Energy>  (60) 
117.69869395839956

>  <Genealogy>  (60) 
Cc1nc2cc(NC(=O)C=Cc3ccc(C(=O)[N-]CCc4cccc(F)c4)s3)ccc2o1 (protonated)
Cc1nc2cc(NC(=O)/C=C/c3ccc(C(=O)[N-]CCc4cccc(F)c4)s3)ccc2o1 (cis-trans isomerization)
Cc1nc2cc(NC(=O)/C=C/c3ccc(C(=O)[N-]CCc4cccc(F)c4)s3)ccc2o1 (3D coordinates assigned)
Cc1nc2cc(NC(=O)/C=C/c3ccc(C(=O)[N-]CCc4cccc(F)c4)s3)ccc2o1 (optimized conformer: 117.69869395839956 kcal/mol)

>  <smiles>  (60) 
Cc1nc2cc(NC(=O)C=Cc3ccc(C(=O)NCCc4cccc(F)c4)s3)ccc2o1

>  <score_type>  (60) 
oracle

>  <origin>  (60) 
adg

>  <m_score__min__energy>  (60) 
-10.91

>  <m_primary>  (60) 
energy

$$$$
60:0
     RDKit          3D

 43 44  0  0  0  0  0  0  0  0999 V2000
   56.8255   31.0989   40.9371 H   0  0  0  0  0  0  0  0  0  0  0  0
   57.0310   31.2100   42.0120 C   0  0  0  0  0  0  0  0  0  0  0  0
   57.7420   32.3160   42.4750 C   0  0  0  0  0  0  0  0  0  0  0  0
   58.0877   33.0819   41.7651 H   0  0  0  0  0  0  0  0  0  0  0  0
   58.0170   32.4550   43.8380 C   0  0  0  0  0  0  0  0  0  0  0  0
   58.5828   33.3279   44.1956 H   0  0  0  0  0  0  0  0  0  0  0  0
   57.5730   31.4820   44.7580 C   0  0  0  0  0  0  0  0  0  0  0  0
   57.8230   31.5640   46.1380 O   0  0  0  0  0  0  0  0  0  0  0  0
   58.1850   32.9740   47.0490 S   0  0  0  0  0  0  0  0  0  0  0  0
   57.7640   32.7070   48.4670 O   0  0  0  0  0  0  0  0  0  0  0  0
   57.4080   34.1570   46.5440 O   0  0  0  0  0  0  0  0  0  0  0  0
   59.9020   33.3030   47.0390 N   0  0  0  0  0  0  0  0  0  0  0  0
   60.6610   32.0720   46.8010 C   0  0  0  0  0  0  0  0  0  0  0  0
   60.9393   31.6207   47.7648 H   0  0  0  0  0  0  0  0  0  0  0  0
   60.0422   31.3643   46.2298 H   0  0  0  0  0  0  0  0  0  0  0  0
   61.5712   32.3071   46.2298 H   0  0  0  0  0  0  0  0  0  0  0  0
   60.2000   34.2870   45.9900 C   0  0  0  0  0  0  0  0  0  0  0  0
   60.4891   35.2415   46.4541 H   0  0  0  0  0  0  0  0  0  0  0  0
   61.0266   33.9179   45.3652 H   0  0  0  0  0  0  0  0  0  0  0  0
   59.3075   34.4385   45.3652 H   0  0  0  0  0  0  0  0  0  0  0  0
   56.8280   30.3850   44.2900 C   0  0  0  0  0  0  0  0  0  0  0  0
   56.3930   29.3910   45.2300 N   0  0  0  0  0  0  0  0  0  0  0  0
   57.0400   28.1440   45.5000 C   0  0  0  0  0  0  0  0  0  0  0  0
   58.2530   28.0090   45.1830 O   0  0  0  0  0  0  0  0  0  0  0  0
   56.3320   27.0920   46.1780 N   0  0  0  0  0  0  0  0  0  0  0  0
   55.9160   25.9690   45.6670 C   0  0  0  0  0  0  0  0  0  0  0  0
   54.6000   25.6150   45.7100 N   0  0  0  0  0  0  0  0  0  0  0  0
   54.1460   24.4470   45.1800 C   0  0  0  0  0  0  0  0  0  0  0  0
   52.6880   24.1200   45.2380 C   0  0  0  0  0  0  0  0  0  0  0  0
   52.3697   24.0486   46.2885 H   0  0  0  0  0  0  0  0  0  0  0  0
   52.1143   24.9118   44.7341 H   0  0  0  0  0  0  0  0  0  0  0  0
   52.5074   23.1590   44.7341 H   0  0  0  0  0  0  0  0  0  0  0  0
   55.0450   23.5700   44.5610 C   0  0  0  0  0  0  0  0  0  0  0  0
   54.6840   22.6325   44.1129 H   0  0  0  0  0  0  0  0  0  0  0  0
   56.4070   23.8940   44.5160 C   0  0  0  0  0  0  0  0  0  0  0  0
   57.3800   22.9840   43.8280 C   0  0  0  0  0  0  0  0  0  0  0  0
   57.9655   22.4364   44.5812 H   0  0  0  0  0  0  0  0  0  0  0  0
   56.8307   22.2680   43.1990 H   0  0  0  0  0  0  0  0  0  0  0  0
   58.0577   23.5800   43.1990 H   0  0  0  0  0  0  0  0  0  0  0  0
   56.8400   25.1100   45.0610 C   0  0  0  0  0  0  0  0  0  0  0  0
   57.9030   25.3887   45.0127 H   0  0  0  0  0  0  0  0  0  0  0  0
   56.5800   30.2440   42.9120 C   0  0  0  0  0  0  0  0  0  0  0  0
   56.0276   29.3675   42.5424 H   0  0  0  0  0  0  0  0  0  0  0  0
  1  2  1  0
  2  3  2  0
  3  4  1  0
  3  5  1  0
  5  6  1  0
  5  7  2  0
  7  8  1  0
  8  9  1  0
  9 10  2  0
  9 11  2  0
  9 12  1  0
 12 13  1  0
 13 14  1  0
 13 15  1  0
 13 16  1  0
 12 17  1  0
 17 18  1  0
 17 19  1  0
 17 20  1  0
  7 21  1  0
 21 22  1  0
 22 23  1  0
 23 24  2  0
 23 25  1  0
 25 26  2  0
 26 27  1  0
 27 28  1  0
 28 29  1  0
 29 30  1  0
 29 31  1  0
 29 32  1  0
 28 33  2  0
 33 34  1  0
 33 35  1  0
 35 36  1  0
 36 37  1  0
 36 38  1  0
 36 39  1  0
 35 40  2  0
 40 41  1  0
 21 42  2  0
 42 43  1  0
 42  2  1  0
 40 26  1  0
M  CHG  2  22  -1  27  -1
M  END
>  <UniqueID>  (61) 
60

>  <SMILES>  (61) 
Cc1cc(C)[n-]/c(=N\C(=O)[N-]c2ccccc2OS(=O)(=O)N(C)C)c1

>  <Energy>  (61) 
46.559618292241076

>  <Genealogy>  (61) 
Cc1cc(C)[n-]c(=NC(=O)[N-]c2ccccc2OS(=O)(=O)N(C)C)c1 (protonated)
Cc1cc(C)[n-]/c(=N\C(=O)[N-]c2ccccc2OS(=O)(=O)N(C)C)c1 (cis-trans isomerization)
Cc1cc(C)[n-]/c(=N\C(=O)[N-]c2ccccc2OS(=O)(=O)N(C)C)c1 (3D coordinates assigned)
Cc1cc(C)[n-]/c(=N\C(=O)[N-]c2ccccc2OS(=O)(=O)N(C)C)c1 (optimized conformer: 46.559618292241076 kcal/mol)

>  <smiles>  (61) 
Cc1cc(C)[nH]c(=NC(=O)Nc2ccccc2OS(=O)(=O)N(C)C)c1

>  <score_type>  (61) 
oracle

>  <origin>  (61) 
adg

>  <m_score__min__energy>  (61) 
-10.92

>  <m_primary>  (61) 
energy

$$$$
61:0
     RDKit          3D

 40 42  0  0  0  0  0  0  0  0999 V2000
   58.7750   34.3410   45.9340 C   0  0  0  0  0  0  0  0  0  0  0  0
   60.0580   34.5770   46.7260 C   0  0  0  0  0  0  0  0  0  0  0  0
   60.0510   33.7740   47.9870 C   0  0  0  0  0  0  0  0  0  0  0  0
   61.1680   33.4280   48.6580 N   0  0  0  0  0  0  0  0  0  0  0  0
   60.7420   32.7840   49.7010 O   0  0  0  0  0  0  0  0  0  0  0  0
   59.4330   32.7390   49.6830 C   0  0  0  0  0  0  0  0  0  0  0  0
   58.6320   32.1060   50.6960 N   0  0  0  0  0  0  0  0  0  0  0  0
   58.3680   32.7900   51.9700 C   0  0  0  0  0  0  0  0  0  0  0  0
   56.9080   32.5850   52.3950 C   0  0  0  0  0  0  0  0  0  0  0  0
   56.4720   31.1940   52.1930 N   0  0  0  0  0  0  0  0  0  0  0  0
   55.0900   30.8450   52.3960 C   0  0  0  0  0  0  0  0  0  0  0  0
   54.6790   30.2530   53.5970 C   0  0  0  0  0  0  0  0  0  0  0  0
   53.3390   29.9190   53.7920 C   0  0  0  0  0  0  0  0  0  0  0  0
   52.3910   30.1720   52.7960 C   0  0  0  0  0  0  0  0  0  0  0  0
   51.0680   29.8130   53.0350 O   0  0  0  0  0  0  0  0  0  0  0  0
   52.7810   30.7780   51.5800 C   0  0  0  0  0  0  0  0  0  0  0  0
   51.8070   31.0740   50.4960 C   0  0  0  0  0  0  0  0  0  0  0  0
   51.0200   32.2630   50.5130 N   0  0  0  0  0  0  0  0  0  0  0  0
   51.6680   30.2690   49.5360 O   0  0  0  0  0  0  0  0  0  0  0  0
   54.1390   31.1090   51.3980 C   0  0  0  0  0  0  0  0  0  0  0  0
   57.4290   30.1910   51.7100 C   0  0  0  0  0  0  0  0  0  0  0  0
   58.1540   30.7330   50.4760 C   0  0  0  0  0  0  0  0  0  0  0  0
   58.9230   33.3630   48.6040 N   0  0  0  0  0  0  0  0  0  0  0  0
   57.9374   34.1869   46.6302 H   0  0  0  0  0  0  0  0  0  0  0  0
   58.5689   35.2163   45.3005 H   0  0  0  0  0  0  0  0  0  0  0  0
   58.8939   33.4497   45.3005 H   0  0  0  0  0  0  0  0  0  0  0  0
   60.9216   34.2801   46.1128 H   0  0  0  0  0  0  0  0  0  0  0  0
   60.1249   35.6441   46.9845 H   0  0  0  0  0  0  0  0  0  0  0  0
   59.0321   32.3806   52.7455 H   0  0  0  0  0  0  0  0  0  0  0  0
   58.5545   33.8665   51.8422 H   0  0  0  0  0  0  0  0  0  0  0  0
   56.8081   32.8386   53.4607 H   0  0  0  0  0  0  0  0  0  0  0  0
   56.2755   33.2360   51.7736 H   0  0  0  0  0  0  0  0  0  0  0  0
   55.4153   30.0509   54.3888 H   0  0  0  0  0  0  0  0  0  0  0  0
   53.0253   29.4525   54.7375 H   0  0  0  0  0  0  0  0  0  0  0  0
   50.1940   32.3520   51.1470 H   0  0  0  0  0  0  0  0  0  0  0  0
   54.4589   31.5822   50.4579 H   0  0  0  0  0  0  0  0  0  0  0  0
   58.1624   29.9730   52.5003 H   0  0  0  0  0  0  0  0  0  0  0  0
   56.8919   29.2684   51.4449 H   0  0  0  0  0  0  0  0  0  0  0  0
   59.0149   30.0855   50.2532 H   0  0  0  0  0  0  0  0  0  0  0  0
   57.4458   30.7431   49.6344 H   0  0  0  0  0  0  0  0  0  0  0  0
  1  2  1  0
  2  3  1  0
  3  4  2  0
  4  5  1  0
  5  6  1  0
  6  7  1  0
  7  8  1  0
  8  9  1  0
  9 10  1  0
 10 11  1  0
 11 12  2  0
 12 13  1  0
 13 14  2  0
 14 15  1  0
 14 16  1  0
 16 17  1  0
 17 18  1  0
 17 19  2  0
 16 20  2  0
 10 21  1  0
 21 22  1  0
  6 23  2  0
 23  3  1  0
 22  7  1  0
 20 11  1  0
  1 24  1  0
  1 25  1  0
  1 26  1  0
  2 27  1  0
  2 28  1  0
  8 29  1  0
  8 30  1  0
  9 31  1  0
  9 32  1  0
 12 33  1  0
 13 34  1  0
 18 35  1  0
 20 36  1  0
 21 37  1  0
 21 38  1  0
 22 39  1  0
 22 40  1  0
M  CHG  2  15  -1  18  -1
M  END
>  <UniqueID>  (62) 
61

>  <SMILES>  (62) 
CCc1noc(N2CCN(c3ccc([O-])c(C([NH-])=O)c3)CC2)n1

>  <Energy>  (62) 
76.38090592628558

>  <Genealogy>  (62) 
CCc1noc(N2CCN(c3ccc([O-])c(C([NH-])=O)c3)CC2)n1 (protonated)
CCc1noc(N2CCN(c3ccc([O-])c(C([NH-])=O)c3)CC2)n1 (3D coordinates assigned)
CCc1noc(N2CCN(c3ccc([O-])c(C([NH-])=O)c3)CC2)n1 (nonaromatic ring conformer: 76.38090592628558 kcal/mol)

>  <smiles>  (62) 
CCc1noc(N2CCN(c3ccc(O)c(C(N)=O)c3)CC2)n1

>  <score_type>  (62) 
oracle

>  <origin>  (62) 
adg

>  <m_score__min__energy>  (62) 
-12.24

>  <m_primary>  (62) 
energy

$$$$
62:0
     RDKit          3D

 63 66  0  0  0  0  0  0  0  0999 V2000
   58.3480   29.8630   47.5660 O   0  0  0  0  0  0  0  0  0  0  0  0
   58.9120   29.0100   48.3070 C   0  0  0  0  0  0  0  0  0  0  0  0
   59.3030   29.3970   49.7030 C   0  0  0  0  0  0  0  0  0  0  0  0
   58.1650   29.8290   50.4470 O   0  0  0  0  0  0  0  0  0  0  0  0
   58.1550   30.8690   51.3940 C   0  0  0  0  0  0  0  0  0  0  0  0
   57.9270   30.6280   52.7650 C   0  0  0  0  0  0  0  0  0  0  0  0
   57.9260   31.6850   53.6780 C   0  0  0  0  0  0  0  0  0  0  0  0
   58.1550   32.9900   53.2400 C   0  0  0  0  0  0  0  0  0  0  0  0
   58.3840   33.2430   51.8870 C   0  0  0  0  0  0  0  0  0  0  0  0
   58.3810   32.1910   50.9550 C   0  0  0  0  0  0  0  0  0  0  0  0
   58.6110   32.4870   49.4920 C   0  0  0  0  0  0  0  0  0  0  0  0
   59.8400   33.2570   49.2860 N   0  0  0  0  0  0  0  0  0  0  0  0
   59.8950   33.9630   47.6970 S   0  0  0  0  0  0  0  0  0  0  0  0
   59.2750   35.3300   47.7490 O   0  0  0  0  0  0  0  0  0  0  0  0
   61.3250   34.1100   47.2550 O   0  0  0  0  0  0  0  0  0  0  0  0
   58.9980   32.9790   46.5420 C   0  0  0  0  0  0  0  0  0  0  0  0
   59.5860   31.8220   46.0140 C   0  0  0  0  0  0  0  0  0  0  0  0
   58.8920   31.0460   45.0810 C   0  0  0  0  0  0  0  0  0  0  0  0
   57.6100   31.4240   44.6680 C   0  0  0  0  0  0  0  0  0  0  0  0
   56.6650   30.3630   43.3920 Br  0  0  0  0  0  0  0  0  0  0  0  0
   57.0210   32.5800   45.1910 C   0  0  0  0  0  0  0  0  0  0  0  0
   57.7120   33.3560   46.1260 C   0  0  0  0  0  0  0  0  0  0  0  0
   59.1780   27.6830   47.8240 N   0  0  0  0  0  0  0  0  0  0  0  0
   58.6720   27.1680   46.5830 C   0  0  0  0  0  0  0  0  0  0  0  0
   59.1020   27.7340   45.3740 C   0  0  0  0  0  0  0  0  0  0  0  0
   58.6450   27.2300   44.1540 C   0  0  0  0  0  0  0  0  0  0  0  0
   57.7680   26.1430   44.1290 C   0  0  0  0  0  0  0  0  0  0  0  0
   57.3480   25.5510   45.3280 C   0  0  0  0  0  0  0  0  0  0  0  0
   56.2660   24.1620   45.3180 S   0  0  0  0  0  0  0  0  0  0  0  0
   55.2030   24.3340   46.3690 O   0  0  0  0  0  0  0  0  0  0  0  0
   55.6090   24.0820   43.9680 O   0  0  0  0  0  0  0  0  0  0  0  0
   57.1990   22.7120   45.6280 N   0  0  0  0  0  0  0  0  0  0  0  0
   56.3340   21.5610   45.9610 C   0  0  0  0  0  0  0  0  0  0  0  0
   56.0940   20.6290   44.7600 C   0  0  0  0  0  0  0  0  0  0  0  0
   56.0870   21.3680   43.5600 O   0  0  0  0  0  0  0  0  0  0  0  0
   57.3860   21.8590   43.2780 C   0  0  0  0  0  0  0  0  0  0  0  0
   58.1220   22.4120   44.5200 C   0  0  0  0  0  0  0  0  0  0  0  0
   57.8030   26.0620   46.5510 C   0  0  0  0  0  0  0  0  0  0  0  0
   59.7535   28.5282   50.2052 H   0  0  0  0  0  0  0  0  0  0  0  0
   60.0246   30.2256   49.6499 H   0  0  0  0  0  0  0  0  0  0  0  0
   57.7489   29.6013   53.1173 H   0  0  0  0  0  0  0  0  0  0  0  0
   57.7443   31.4883   54.7449 H   0  0  0  0  0  0  0  0  0  0  0  0
   58.1550   33.8199   53.9619 H   0  0  0  0  0  0  0  0  0  0  0  0
   58.5682   34.2730   51.5475 H   0  0  0  0  0  0  0  0  0  0  0  0
   58.6884   31.5369   48.9431 H   0  0  0  0  0  0  0  0  0  0  0  0
   57.7640   33.0845   49.1238 H   0  0  0  0  0  0  0  0  0  0  0  0
   60.5953   31.5238   46.3341 H   0  0  0  0  0  0  0  0  0  0  0  0
   59.3549   30.1364   44.6708 H   0  0  0  0  0  0  0  0  0  0  0  0
   56.0133   32.8786   44.8662 H   0  0  0  0  0  0  0  0  0  0  0  0
   57.2466   34.2642   46.5366 H   0  0  0  0  0  0  0  0  0  0  0  0
   59.8480   27.0890   48.3640 H   0  0  0  0  0  0  0  0  0  0  0  0
   59.8041   28.5807   45.3866 H   0  0  0  0  0  0  0  0  0  0  0  0
   58.9763   27.6899   43.2113 H   0  0  0  0  0  0  0  0  0  0  0  0
   57.4065   25.7511   43.1669 H   0  0  0  0  0  0  0  0  0  0  0  0
   56.8127   20.9824   46.7648 H   0  0  0  0  0  0  0  0  0  0  0  0
   55.3570   21.9596   46.2717 H   0  0  0  0  0  0  0  0  0  0  0  0
   56.8960   19.8773   44.7183 H   0  0  0  0  0  0  0  0  0  0  0  0
   55.1190   20.1343   44.8808 H   0  0  0  0  0  0  0  0  0  0  0  0
   57.9842   21.0378   42.8564 H   0  0  0  0  0  0  0  0  0  0  0  0
   57.2686   22.6957   42.5736 H   0  0  0  0  0  0  0  0  0  0  0  0
   58.8527   21.6637   44.8608 H   0  0  0  0  0  0  0  0  0  0  0  0
   58.6155   23.3510   44.2289 H   0  0  0  0  0  0  0  0  0  0  0  0
   57.4784   25.5951   47.4926 H   0  0  0  0  0  0  0  0  0  0  0  0
  1  2  2  0
  2  3  1  0
  3  4  1  0
  4  5  1  0
  5  6  2  0
  6  7  1  0
  7  8  2  0
  8  9  1  0
  9 10  2  0
 10 11  1  0
 11 12  1  0
 12 13  1  0
 13 14  2  0
 13 15  2  0
 13 16  1  0
 16 17  2  0
 17 18  1  0
 18 19  2  0
 19 20  1  0
 19 21  1  0
 21 22  2  0
  2 23  1  0
 23 24  1  0
 24 25  2  0
 25 26  1  0
 26 27  2  0
 27 28  1  0
 28 29  1  0
 29 30  2  0
 29 31  2  0
 29 32  1  0
 32 33  1  0
 33 34  1  0
 34 35  1  0
 35 36  1  0
 36 37  1  0
 28 38  2  0
 10  5  1  0
 22 16  1  0
 38 24  1  0
 37 32  1  0
  3 39  1  0
  3 40  1  0
  6 41  1  0
  7 42  1  0
  8 43  1  0
  9 44  1  0
 11 45  1  0
 11 46  1  0
 17 47  1  0
 18 48  1  0
 21 49  1  0
 22 50  1  0
 23 51  1  0
 25 52  1  0
 26 53  1  0
 27 54  1  0
 33 55  1  0
 33 56  1  0
 34 57  1  0
 34 58  1  0
 36 59  1  0
 36 60  1  0
 37 61  1  0
 37 62  1  0
 38 63  1  0
M  CHG  1  12  -1
M  END
>  <UniqueID>  (63) 
62

>  <SMILES>  (63) 
O=C(COc1ccccc1C[N-]S(=O)(=O)c1ccc(Br)cc1)Nc1cccc(S(=O)(=O)N2CCOCC2)c1

>  <Energy>  (63) 
76.5041259431704

>  <Genealogy>  (63) 
O=C(COc1ccccc1C[N-]S(=O)(=O)c1ccc(Br)cc1)Nc1cccc(S(=O)(=O)N2CCOCC2)c1 (protonated)
O=C(COc1ccccc1C[N-]S(=O)(=O)c1ccc(Br)cc1)Nc1cccc(S(=O)(=O)N2CCOCC2)c1 (3D coordinates assigned)
O=C(COc1ccccc1C[N-]S(=O)(=O)c1ccc(Br)cc1)Nc1cccc(S(=O)(=O)N2CCOCC2)c1 (nonaromatic ring conformer: 76.5041259431704 kcal/mol)

>  <smiles>  (63) 
O=C(COc1ccccc1CNS(=O)(=O)c1ccc(Br)cc1)Nc1cccc(S(=O)(=O)N2CCOCC2)c1

>  <score_type>  (63) 
oracle

>  <origin>  (63) 
adg

>  <m_score__min__energy>  (63) 
-11.57

>  <m_primary>  (63) 
energy

$$$$
63:0
     RDKit          3D

 30 31  0  0  0  0  0  0  0  0999 V2000
   57.3410   31.3830   43.6890 C   0  0  0  0  0  0  0  0  0  0  0  0
   57.9830   31.1310   45.0280 C   0  0  0  0  0  0  0  0  0  0  0  0
   58.7290   32.1620   45.6250 C   0  0  0  0  0  0  0  0  0  0  0  0
   59.3460   31.9840   46.8740 C   0  0  0  0  0  0  0  0  0  0  0  0
   60.1250   33.0920   47.4820 C   0  0  0  0  0  0  0  0  0  0  0  0
   59.6190   34.4280   47.5190 N   0  0  0  0  0  0  0  0  0  0  0  0
   61.2650   32.8590   47.9660 O   0  0  0  0  0  0  0  0  0  0  0  0
   59.2290   30.7420   47.5150 C   0  0  0  0  0  0  0  0  0  0  0  0
   58.5050   29.7050   46.9260 C   0  0  0  0  0  0  0  0  0  0  0  0
   57.8860   29.8770   45.6780 C   0  0  0  0  0  0  0  0  0  0  0  0
   56.9850   28.5230   44.9690 S   0  0  0  0  0  0  0  0  0  0  0  0
   57.4860   28.2460   43.5790 O   0  0  0  0  0  0  0  0  0  0  0  0
   55.5300   28.8920   44.8840 O   0  0  0  0  0  0  0  0  0  0  0  0
   57.1790   27.0430   45.9280 C   0  0  0  0  0  0  0  0  0  0  0  0
   56.0560   26.3040   46.3330 C   0  0  0  0  0  0  0  0  0  0  0  0
   54.7720   26.7160   45.9940 O   0  0  0  0  0  0  0  0  0  0  0  0
   56.2150   25.1660   47.0570 N   0  0  0  0  0  0  0  0  0  0  0  0
   57.4500   24.7170   47.3940 C   0  0  0  0  0  0  0  0  0  0  0  0
   57.5740   23.6620   48.0680 O   0  0  0  0  0  0  0  0  0  0  0  0
   58.5530   25.4030   47.0000 N   0  0  0  0  0  0  0  0  0  0  0  0
   58.4490   26.5460   46.2740 C   0  0  0  0  0  0  0  0  0  0  0  0
   59.4970   27.1420   45.9150 O   0  0  0  0  0  0  0  0  0  0  0  0
   56.3265   31.7812   43.8379 H   0  0  0  0  0  0  0  0  0  0  0  0
   57.9420   32.1120   43.1256 H   0  0  0  0  0  0  0  0  0  0  0  0
   57.2857   30.4399   43.1256 H   0  0  0  0  0  0  0  0  0  0  0  0
   58.8314   33.1256   45.1045 H   0  0  0  0  0  0  0  0  0  0  0  0
   60.1610   35.1770   48.0040 H   0  0  0  0  0  0  0  0  0  0  0  0
   58.7590   34.7060   46.9970 H   0  0  0  0  0  0  0  0  0  0  0  0
   59.7122   30.5842   48.4905 H   0  0  0  0  0  0  0  0  0  0  0  0
   58.4181   28.7398   47.4465 H   0  0  0  0  0  0  0  0  0  0  0  0
  1  2  1  0
  2  3  2  0
  3  4  1  0
  4  5  1  0
  5  6  1  0
  5  7  2  0
  4  8  2  0
  8  9  1  0
  9 10  2  0
 10 11  1  0
 11 12  2  0
 11 13  2  0
 11 14  1  0
 14 15  2  0
 15 16  1  0
 15 17  1  0
 17 18  1  0
 18 19  2  0
 18 20  1  0
 20 21  1  0
 21 22  2  0
 10  2  1  0
 21 14  1  0
  1 23  1  0
  1 24  1  0
  1 25  1  0
  3 26  1  0
  6 27  1  0
  6 28  1  0
  8 29  1  0
  9 30  1  0
M  CHG  3  16  -1  17  -1  20  -1
M  END
>  <UniqueID>  (64) 
63

>  <SMILES>  (64) 
Cc1cc(C(N)=O)ccc1S(=O)(=O)c1c([O-])[n-]c(=O)[n-]c1=O

>  <Energy>  (64) 
39.76392022302212

>  <Genealogy>  (64) 
Cc1cc(C(N)=O)ccc1S(=O)(=O)c1c([O-])[n-]c(=O)[n-]c1=O (protonated)
Cc1cc(C(N)=O)ccc1S(=O)(=O)c1c([O-])[n-]c(=O)[n-]c1=O (3D coordinates assigned)
Cc1cc(C(N)=O)ccc1S(=O)(=O)c1c([O-])[n-]c(=O)[n-]c1=O (optimized conformer: 39.76392022302212 kcal/mol)

>  <smiles>  (64) 
Cc1cc(C(N)=O)ccc1S(=O)(=O)c1c(O)[nH]c(=O)[nH]c1=O

>  <score_type>  (64) 
oracle

>  <origin>  (64) 
adg

>  <m_score__min__energy>  (64) 
-14.390000000000001

>  <m_primary>  (64) 
energy

$$$$
64:0
     RDKit          3D

 41 42  0  0  0  0  0  0  0  0999 V2000
   59.0465   32.6187   47.1164 H   0  0  0  0  0  0  0  0  0  0  0  0
   58.6920   32.4430   46.0900 C   0  0  0  0  0  0  0  0  0  0  0  0
   58.2840   31.1620   45.7040 C   0  0  0  0  0  0  0  0  0  0  0  0
   58.3113   30.3368   46.4309 H   0  0  0  0  0  0  0  0  0  0  0  0
   57.8400   30.9240   44.3940 C   0  0  0  0  0  0  0  0  0  0  0  0
   57.3870   29.5450   43.9830 C   0  0  0  0  0  0  0  0  0  0  0  0
   58.2584   28.8736   43.9789 H   0  0  0  0  0  0  0  0  0  0  0  0
   56.9346   29.6248   42.9835 H   0  0  0  0  0  0  0  0  0  0  0  0
   56.3430   28.9790   44.9170 C   0  0  0  0  0  0  0  0  0  0  0  0
   55.1470   29.3640   44.8190 O   0  0  0  0  0  0  0  0  0  0  0  0
   56.6540   27.9970   45.9210 N   0  0  0  0  0  0  0  0  0  0  0  0
   56.4110   26.7190   45.8920 C   0  0  0  0  0  0  0  0  0  0  0  0
   55.1930   26.1560   46.0070 N   0  0  0  0  0  0  0  0  0  0  0  0
   55.3690   24.8470   45.9410 N   0  0  0  0  0  0  0  0  0  0  0  0
   54.2920   23.8760   46.0940 C   0  0  0  0  0  0  0  0  0  0  0  0
   53.4554   24.3418   46.6355 H   0  0  0  0  0  0  0  0  0  0  0  0
   54.6643   23.0087   46.6590 H   0  0  0  0  0  0  0  0  0  0  0  0
   53.8210   23.4220   44.7510 C   0  0  0  0  0  0  0  0  0  0  0  0
   54.6360   23.3400   43.7930 O   0  0  0  0  0  0  0  0  0  0  0  0
   52.4690   23.1220   44.5640 O   0  0  0  0  0  0  0  0  0  0  0  0
   51.4290   24.0570   44.8280 C   0  0  0  0  0  0  0  0  0  0  0  0
   51.8578   24.9647   45.2777 H   0  0  0  0  0  0  0  0  0  0  0  0
   50.7030   23.6104   45.5233 H   0  0  0  0  0  0  0  0  0  0  0  0
   50.7290   24.4180   43.5290 C   0  0  0  0  0  0  0  0  0  0  0  0
   49.7719   24.9116   43.7532 H   0  0  0  0  0  0  0  0  0  0  0  0
   51.3658   25.1001   42.9466 H   0  0  0  0  0  0  0  0  0  0  0  0
   50.5425   23.5037   42.9466 H   0  0  0  0  0  0  0  0  0  0  0  0
   56.6800   24.5630   45.8040 C   0  0  0  0  0  0  0  0  0  0  0  0
   57.1149   23.5549   45.7362 H   0  0  0  0  0  0  0  0  0  0  0  0
   57.3850   25.7490   45.7630 C   0  0  0  0  0  0  0  0  0  0  0  0
   58.4705   25.8888   45.6531 H   0  0  0  0  0  0  0  0  0  0  0  0
   57.7820   31.9900   43.4860 C   0  0  0  0  0  0  0  0  0  0  0  0
   57.4157   31.8180   42.4632 H   0  0  0  0  0  0  0  0  0  0  0  0
   58.1870   33.2700   43.8730 C   0  0  0  0  0  0  0  0  0  0  0  0
   58.1406   34.0981   43.1504 H   0  0  0  0  0  0  0  0  0  0  0  0
   58.6510   33.5080   45.1710 C   0  0  0  0  0  0  0  0  0  0  0  0
   59.0590   34.8090   45.5050 O   0  0  0  0  0  0  0  0  0  0  0  0
   59.5800   35.1860   46.7730 C   0  0  0  0  0  0  0  0  0  0  0  0
   58.9650   34.7410   47.5691 H   0  0  0  0  0  0  0  0  0  0  0  0
   60.6156   34.8267   46.8655 H   0  0  0  0  0  0  0  0  0  0  0  0
   59.5625   36.2820   46.8655 H   0  0  0  0  0  0  0  0  0  0  0  0
  1  2  1  0
  2  3  2  0
  3  4  1  0
  3  5  1  0
  5  6  1  0
  6  7  1  0
  6  8  1  0
  6  9  1  0
  9 10  2  0
  9 11  1  0
 11 12  2  0
 12 13  1  0
 13 14  1  0
 14 15  1  0
 15 16  1  0
 15 17  1  0
 15 18  1  0
 18 19  2  0
 18 20  1  0
 20 21  1  0
 21 22  1  0
 21 23  1  0
 21 24  1  0
 24 25  1  0
 24 26  1  0
 24 27  1  0
 14 28  1  0
 28 29  1  0
 28 30  2  0
 30 31  1  0
  5 32  2  0
 32 33  1  0
 32 34  1  0
 34 35  1  0
 34 36  2  0
 36 37  1  0
 37 38  1  0
 38 39  1  0
 38 40  1  0
 38 41  1  0
 36  2  1  0
 30 12  1  0
M  CHG  1  13  -1
M  END
>  <UniqueID>  (65) 
64

>  <SMILES>  (65) 
CCOC(=O)Cn1cc/c(=N/C(=O)Cc2ccc(OC)cc2)[n-]1

>  <Energy>  (65) 
66.49142803504284

>  <Genealogy>  (65) 
CCOC(=O)Cn1ccc(=NC(=O)Cc2ccc(OC)cc2)[n-]1 (protonated)
CCOC(=O)Cn1cc/c(=N/C(=O)Cc2ccc(OC)cc2)[n-]1 (cis-trans isomerization)
CCOC(=O)Cn1cc/c(=N/C(=O)Cc2ccc(OC)cc2)[n-]1 (3D coordinates assigned)
CCOC(=O)Cn1cc/c(=N/C(=O)Cc2ccc(OC)cc2)[n-]1 (optimized conformer: 66.49142803504284 kcal/mol)

>  <smiles>  (65) 
CCOC(=O)Cn1ccc(=NC(=O)Cc2ccc(OC)cc2)[nH]1

>  <score_type>  (65) 
oracle

>  <origin>  (65) 
adg

>  <m_score__min__energy>  (65) 
-9.0299999999999994

>  <m_primary>  (65) 
energy

$$$$
65:0
     RDKit          3D

 55 58  0  0  1  0  0  0  0  0999 V2000
   57.9320   32.3470   41.4180 C   0  0  0  0  0  0  0  0  0  0  0  0
   57.7510   32.1800   42.8930 C   0  0  0  0  0  0  0  0  0  0  0  0
   57.8440   33.2690   43.7350 C   0  0  0  0  0  0  0  0  0  0  0  0
   57.6770   33.0510   45.0770 C   0  0  0  0  0  0  0  0  0  0  0  0
   57.7520   34.1130   46.1130 C   0  0  0  0  0  0  0  0  0  0  0  0
   58.2650   33.6380   47.3810 N   0  0  0  0  0  0  0  0  0  0  0  0
   59.4050   34.1670   48.0290 C   0  0  0  0  0  0  0  0  0  0  0  0
   60.0480   35.1320   47.5040 O   0  0  0  0  0  0  0  0  0  0  0  0
   59.9120   33.6690   49.2980 C   0  0  0  0  0  0  0  0  0  0  0  0
   61.0120   34.2220   49.9440 C   0  0  0  0  0  0  0  0  0  0  0  0
   61.4580   33.7090   51.1680 C   0  0  0  0  0  0  0  0  0  0  0  0
   60.8250   32.6420   51.7750 C   0  0  0  0  0  0  0  0  0  0  0  0
   59.7360   32.0910   51.1400 C   0  0  0  0  0  0  0  0  0  0  0  0
   59.0960   31.0090   51.7590 O   0  0  0  0  0  0  0  0  0  0  0  0
   59.3100   32.6030   49.9430 C   0  0  0  0  0  0  0  0  0  0  0  0
   58.2130   32.0150   49.3460 O   0  0  0  0  0  0  0  0  0  0  0  0
   57.4200   31.7620   45.5540 C   0  0  0  0  0  0  0  0  0  0  0  0
   57.3320   30.6870   44.6820 C   0  0  0  0  0  0  0  0  0  0  0  0
   57.0470   29.3740   45.2610 C   0  0  0  0  0  0  0  0  0  0  0  0
   55.9210   28.8170   45.1890 O   0  0  0  0  0  0  0  0  0  0  0  0
   58.1640   28.7480   45.9320 N   0  0  0  0  0  0  0  0  0  0  0  0
   58.8890   29.3190   46.8010 C   0  0  0  0  0  0  0  0  0  0  0  0
   60.0440   29.9950   46.5770 C   0  0  0  0  0  0  0  0  0  0  0  0
   60.4720   30.4350   47.8230 C   0  0  0  0  0  0  0  0  0  0  0  0
   61.6830   31.2160   48.0740 C   0  0  0  0  0  0  0  0  0  0  0  0
   62.4380   31.0300   49.2170 C   0  0  0  0  0  0  0  0  0  0  0  0
   63.5690   31.7910   49.4010 C   0  0  0  0  0  0  0  0  0  0  0  0
   63.9190   32.7220   48.4340 C   0  0  0  0  0  0  0  0  0  0  0  0
   63.1770   32.9190   47.2900 C   0  0  0  0  0  0  0  0  0  0  0  0
   62.0480   32.1490   47.1220 C   0  0  0  0  0  0  0  0  0  0  0  0
   59.5580   30.0030   48.7340 N   0  0  0  0  0  0  0  0  0  0  0  0
   58.6080   29.3350   48.1280 N   0  0  0  0  0  0  0  0  0  0  0  0
   57.5000   30.9030   43.3400 C   0  0  0  0  0  0  0  0  0  0  0  0
   58.7282   33.0816   41.2271 H   0  0  0  0  0  0  0  0  0  0  0  0
   58.2095   31.3810   40.9709 H   0  0  0  0  0  0  0  0  0  0  0  0
   56.9914   32.7012   40.9709 H   0  0  0  0  0  0  0  0  0  0  0  0
   58.0452   34.2767   43.3425 H   0  0  0  0  0  0  0  0  0  0  0  0
   58.4121   34.9129   45.7464 H   0  0  0  0  0  0  0  0  0  0  0  0
   56.7269   34.4711   46.2887 H   0  0  0  0  0  0  0  0  0  0  0  0
   57.7620   32.8620   47.8310 H   0  0  0  0  0  0  0  0  0  0  0  0
   61.5385   35.0732   49.4877 H   0  0  0  0  0  0  0  0  0  0  0  0
   62.3313   34.1656   51.6567 H   0  0  0  0  0  0  0  0  0  0  0  0
   61.1808   32.2448   52.7371 H   0  0  0  0  0  0  0  0  0  0  0  0
   58.2450   30.6010   51.3540 H   0  0  0  0  0  0  0  0  0  0  0  0
   57.7460   31.1850   49.6710 H   0  0  0  0  0  0  0  0  0  0  0  0
   57.2860   31.5986   46.6335 H   0  0  0  0  0  0  0  0  0  0  0  0
   60.5391   30.1604   45.6087 H   0  0  0  0  0  0  0  0  0  0  0  0
   62.1387   30.2844   49.9683 H   0  0  0  0  0  0  0  0  0  0  0  0
   64.1870   31.6632   50.3020 H   0  0  0  0  0  0  0  0  0  0  0  0
   64.8249   33.3270   48.5867 H   0  0  0  0  0  0  0  0  0  0  0  0
   63.4757   33.6643   46.5382 H   0  0  0  0  0  0  0  0  0  0  0  0
   61.4303   32.2777   46.2210 H   0  0  0  0  0  0  0  0  0  0  0  0
   59.6460   30.1970   49.7410 H   0  0  0  0  0  0  0  0  0  0  0  0
   57.7750   28.8840   48.5710 H   0  0  0  0  0  0  0  0  0  0  0  0
   57.4351   30.0665   42.6287 H   0  0  0  0  0  0  0  0  0  0  0  0
  1  2  1  0
  2  3  2  0
  3  4  1  0
  4  5  1  0
  5  6  1  0
  6  7  1  0
  7  8  2  0
  7  9  1  0
  9 10  2  0
 10 11  1  0
 11 12  2  0
 12 13  1  0
 13 14  1  0
 13 15  2  0
 15 16  1  0
  4 17  2  0
 17 18  1  0
 18 19  1  0
 19 20  2  0
 19 21  1  0
 21 22  2  0
 22 23  1  0
 23 24  2  0
 24 25  1  0
 25 26  2  0
 26 27  1  0
 27 28  2  0
 28 29  1  0
 29 30  2  0
 24 31  1  0
 31 32  1  0
 18 33  2  0
 33  2  1  0
 15  9  1  0
 32 22  1  0
 30 25  1  0
  1 34  1  0
  1 35  1  0
  1 36  1  0
  3 37  1  0
  5 38  1  0
  5 39  1  0
  6 40  1  0
 10 41  1  0
 11 42  1  0
 12 43  1  0
 14 44  1  0
 16 45  1  0
 17 46  1  0
 23 47  1  0
 26 48  1  0
 27 49  1  0
 28 50  1  0
 29 51  1  0
 30 52  1  0
 31 53  1  0
 32 54  1  0
 33 55  1  0
M  END
>  <smiles>  (66) 
Cc1cc(CNC(=O)c2cccc(O)c2O)cc(C(=O)N=c2cc(-c3ccccc3)[nH][nH]2)c1

>  <score_type>  (66) 
oracle

>  <origin>  (66) 
adg

>  <m_score__min__energy>  (66) 
-10.9

>  <m_primary>  (66) 
energy

$$$$
66:0
     RDKit          3D

 43 45  0  0  0  0  0  0  0  0999 V2000
   63.9750   33.2140   47.5130 N   0  0  0  0  0  0  0  0  0  0  0  0
   62.6790   32.1440   47.9160 S   0  0  0  0  0  0  0  0  0  0  0  0
   62.8330   30.8650   47.1420 O   0  0  0  0  0  0  0  0  0  0  0  0
   62.7440   31.8170   49.3810 O   0  0  0  0  0  0  0  0  0  0  0  0
   61.1380   32.9020   47.4820 C   0  0  0  0  0  0  0  0  0  0  0  0
   60.9820   34.2640   47.7670 C   0  0  0  0  0  0  0  0  0  0  0  0
   59.7910   34.9190   47.4700 C   0  0  0  0  0  0  0  0  0  0  0  0
   58.7420   34.2300   46.8680 C   0  0  0  0  0  0  0  0  0  0  0  0
   58.8660   32.8600   46.5630 C   0  0  0  0  0  0  0  0  0  0  0  0
   57.8100   32.1610   45.8680 N   0  0  0  0  0  0  0  0  0  0  0  0
   57.6720   32.1100   44.4140 C   0  0  0  0  0  0  0  0  0  0  0  0
   56.7970   30.9640   44.0080 C   0  0  0  0  0  0  0  0  0  0  0  0
   56.7200   30.4070   42.7540 C   0  0  0  0  0  0  0  0  0  0  0  0
   55.8550   29.3780   42.7900 N   0  0  0  0  0  0  0  0  0  0  0  0
   55.4390   29.3410   44.0740 C   0  0  0  0  0  0  0  0  0  0  0  0
   55.9980   30.2910   44.8530 N   0  0  0  0  0  0  0  0  0  0  0  0
   60.0630   32.1840   46.9050 C   0  0  0  0  0  0  0  0  0  0  0  0
   60.1740   30.7720   46.6790 N   0  0  0  0  0  0  0  0  0  0  0  0
   59.2030   29.8230   47.2220 C   0  0  0  0  0  0  0  0  0  0  0  0
   58.8200   28.8090   46.1810 C   0  0  0  0  0  0  0  0  0  0  0  0
   57.8100   27.8690   46.4480 C   0  0  0  0  0  0  0  0  0  0  0  0
   57.4620   26.9170   45.4840 C   0  0  0  0  0  0  0  0  0  0  0  0
   58.1230   26.8930   44.2530 C   0  0  0  0  0  0  0  0  0  0  0  0
   59.1400   27.8150   43.9870 C   0  0  0  0  0  0  0  0  0  0  0  0
   59.4920   28.7670   44.9490 C   0  0  0  0  0  0  0  0  0  0  0  0
   63.6410   33.8190   46.7300 H   0  0  0  0  0  0  0  0  0  0  0  0
   64.7520   32.6280   47.1360 H   0  0  0  0  0  0  0  0  0  0  0  0
   61.8093   34.8216   48.2303 H   0  0  0  0  0  0  0  0  0  0  0  0
   59.6778   35.9861   47.7120 H   0  0  0  0  0  0  0  0  0  0  0  0
   57.8082   34.7596   46.6283 H   0  0  0  0  0  0  0  0  0  0  0  0
   57.1020   31.6270   46.4210 H   0  0  0  0  0  0  0  0  0  0  0  0
   57.2239   33.0502   44.0601 H   0  0  0  0  0  0  0  0  0  0  0  0
   58.6678   31.9717   43.9676 H   0  0  0  0  0  0  0  0  0  0  0  0
   57.2746   30.7469   41.8669 H   0  0  0  0  0  0  0  0  0  0  0  0
   54.7126   28.6055   44.4500 H   0  0  0  0  0  0  0  0  0  0  0  0
   60.9370   30.4200   46.0590 H   0  0  0  0  0  0  0  0  0  0  0  0
   59.6463   29.3056   48.0856 H   0  0  0  0  0  0  0  0  0  0  0  0
   58.3022   30.3732   47.5314 H   0  0  0  0  0  0  0  0  0  0  0  0
   57.2915   27.8819   47.4181 H   0  0  0  0  0  0  0  0  0  0  0  0
   56.6672   26.1865   45.6951 H   0  0  0  0  0  0  0  0  0  0  0  0
   57.8432   26.1486   43.4931 H   0  0  0  0  0  0  0  0  0  0  0  0
   59.6638   27.7915   43.0200 H   0  0  0  0  0  0  0  0  0  0  0  0
   60.2982   29.4855   44.7397 H   0  0  0  0  0  0  0  0  0  0  0  0
  1  2  1  0
  2  3  2  0
  2  4  2  0
  2  5  1  0
  5  6  2  0
  6  7  1  0
  7  8  2  0
  8  9  1  0
  9 10  1  0
 10 11  1  0
 11 12  1  0
 12 13  2  0
 13 14  1  0
 14 15  1  0
 15 16  2  0
  9 17  2  0
 17 18  1  0
 18 19  1  0
 19 20  1  0
 20 21  2  0
 21 22  1  0
 22 23  2  0
 23 24  1  0
 24 25  2  0
 17  5  1  0
 25 20  1  0
 16 12  1  0
  1 26  1  0
  1 27  1  0
  6 28  1  0
  7 29  1  0
  8 30  1  0
 10 31  1  0
 11 32  1  0
 11 33  1  0
 13 34  1  0
 15 35  1  0
 18 36  1  0
 19 37  1  0
 19 38  1  0
 21 39  1  0
 22 40  1  0
 23 41  1  0
 24 42  1  0
 25 43  1  0
M  CHG  1  14  -1
M  END
>  <UniqueID>  (67) 
65

>  <SMILES>  (67) 
NS(=O)(=O)c1cccc(NCc2c[n-]cn2)c1NCc1ccccc1

>  <Energy>  (67) 
75.52134580996693

>  <Genealogy>  (67) 
NS(=O)(=O)c1cccc(NCc2c[n-]cn2)c1NCc1ccccc1 (protonated)
NS(=O)(=O)c1cccc(NCc2c[n-]cn2)c1NCc1ccccc1 (3D coordinates assigned)
NS(=O)(=O)c1cccc(NCc2c[n-]cn2)c1NCc1ccccc1 (optimized conformer: 75.52134580996693 kcal/mol)

>  <smiles>  (67) 
NS(=O)(=O)c1cccc(NCc2c[nH]cn2)c1NCc1ccccc1

>  <score_type>  (67) 
oracle

>  <origin>  (67) 
adg

>  <m_score__min__energy>  (67) 
-8.9800000000000004

>  <m_primary>  (67) 
energy

$$$$
67:0
     RDKit          3D

 59 61  0  0  0  0  0  0  0  0999 V2000
   58.9350   34.4040   44.5140 O   0  0  0  0  0  0  0  0  0  0  0  0
   57.9840   33.7270   45.4630 S   0  0  0  0  0  0  0  0  0  0  0  0
   56.6460   34.4030   45.3590 O   0  0  0  0  0  0  0  0  0  0  0  0
   58.5560   33.8470   47.1050 N   0  0  0  0  0  0  0  0  0  0  0  0
   59.8670   34.4960   47.1770 C   0  0  0  0  0  0  0  0  0  0  0  0
   60.9820   33.4850   47.2370 C   0  0  0  0  0  0  0  0  0  0  0  0
   60.7040   32.1120   47.1270 C   0  0  0  0  0  0  0  0  0  0  0  0
   61.7430   31.1770   47.1740 C   0  0  0  0  0  0  0  0  0  0  0  0
   63.0640   31.6060   47.3200 C   0  0  0  0  0  0  0  0  0  0  0  0
   63.3500   32.9700   47.4290 C   0  0  0  0  0  0  0  0  0  0  0  0
   62.3140   33.9080   47.3840 C   0  0  0  0  0  0  0  0  0  0  0  0
   57.7950   32.0290   45.0340 C   0  0  0  0  0  0  0  0  0  0  0  0
   57.5440   31.6780   43.7040 C   0  0  0  0  0  0  0  0  0  0  0  0
   57.3800   30.3390   43.3490 C   0  0  0  0  0  0  0  0  0  0  0  0
   57.4620   29.3220   44.3160 C   0  0  0  0  0  0  0  0  0  0  0  0
   57.2420   27.9470   43.9190 N   0  0  0  0  0  0  0  0  0  0  0  0
   58.5110   27.2140   43.7600 C   0  0  0  0  0  0  0  0  0  0  0  0
   58.8020   26.2950   44.9550 C   0  0  0  0  0  0  0  0  0  0  0  0
   57.6220   26.2040   45.8270 N   0  0  0  0  0  0  0  0  0  0  0  0
   56.8010   25.0310   45.4960 C   0  0  0  0  0  0  0  0  0  0  0  0
   55.3170   25.3720   45.6320 C   0  0  0  0  0  0  0  0  0  0  0  0
   55.1490   26.7150   45.9940 O   0  0  0  0  0  0  0  0  0  0  0  0
   57.7190   29.6800   45.6640 C   0  0  0  0  0  0  0  0  0  0  0  0
   57.7870   28.6950   46.7030 N   0  0  0  0  0  0  0  0  0  0  0  0
   58.7790   28.7110   47.7460 C   0  0  0  0  0  0  0  0  0  0  0  0
   58.8590   29.7680   48.6740 C   0  0  0  0  0  0  0  0  0  0  0  0
   59.8350   29.7550   49.6750 C   0  0  0  0  0  0  0  0  0  0  0  0
   60.7370   28.6910   49.7610 C   0  0  0  0  0  0  0  0  0  0  0  0
   60.6620   27.6370   48.8480 C   0  0  0  0  0  0  0  0  0  0  0  0
   59.6880   27.6450   47.8460 C   0  0  0  0  0  0  0  0  0  0  0  0
   57.8740   31.0300   46.0100 C   0  0  0  0  0  0  0  0  0  0  0  0
   60.0033   35.1257   46.2854 H   0  0  0  0  0  0  0  0  0  0  0  0
   59.9016   35.1022   48.0942 H   0  0  0  0  0  0  0  0  0  0  0  0
   59.6654   31.7713   47.0035 H   0  0  0  0  0  0  0  0  0  0  0  0
   61.5195   30.1028   47.0959 H   0  0  0  0  0  0  0  0  0  0  0  0
   63.8806   30.8696   47.3493 H   0  0  0  0  0  0  0  0  0  0  0  0
   64.3905   33.3056   47.5502 H   0  0  0  0  0  0  0  0  0  0  0  0
   62.5425   34.9810   47.4640 H   0  0  0  0  0  0  0  0  0  0  0  0
   57.4756   32.4610   42.9344 H   0  0  0  0  0  0  0  0  0  0  0  0
   57.1840   30.0756   42.2991 H   0  0  0  0  0  0  0  0  0  0  0  0
   56.6800   27.4720   44.6640 H   0  0  0  0  0  0  0  0  0  0  0  0
   56.6820   27.8770   43.0410 H   0  0  0  0  0  0  0  0  0  0  0  0
   58.4550   26.6021   42.8476 H   0  0  0  0  0  0  0  0  0  0  0  0
   59.3230   27.9533   43.6962 H   0  0  0  0  0  0  0  0  0  0  0  0
   59.0594   25.2910   44.5866 H   0  0  0  0  0  0  0  0  0  0  0  0
   59.6416   26.7114   45.5309 H   0  0  0  0  0  0  0  0  0  0  0  0
   57.9590   26.0840   46.8110 H   0  0  0  0  0  0  0  0  0  0  0  0
   57.0096   24.7214   44.4613 H   0  0  0  0  0  0  0  0  0  0  0  0
   57.0470   24.2128   46.1888 H   0  0  0  0  0  0  0  0  0  0  0  0
   54.8154   25.1918   44.6698 H   0  0  0  0  0  0  0  0  0  0  0  0
   54.8784   24.7368   46.4157 H   0  0  0  0  0  0  0  0  0  0  0  0
   55.7810   26.8890   46.7410 H   0  0  0  0  0  0  0  0  0  0  0  0
   56.9890   28.0240   46.7800 H   0  0  0  0  0  0  0  0  0  0  0  0
   58.1505   30.6071   48.6107 H   0  0  0  0  0  0  0  0  0  0  0  0
   59.8930   30.5837   50.3961 H   0  0  0  0  0  0  0  0  0  0  0  0
   61.5058   28.6838   50.5477 H   0  0  0  0  0  0  0  0  0  0  0  0
   61.3710   26.7989   48.9177 H   0  0  0  0  0  0  0  0  0  0  0  0
   59.6329   26.8110   47.1309 H   0  0  0  0  0  0  0  0  0  0  0  0
   58.0594   31.3060   47.0585 H   0  0  0  0  0  0  0  0  0  0  0  0
  1  2  2  0
  2  3  2  0
  2  4  1  0
  4  5  1  0
  5  6  1  0
  6  7  2  0
  7  8  1  0
  8  9  2  0
  9 10  1  0
 10 11  2  0
  2 12  1  0
 12 13  2  0
 13 14  1  0
 14 15  2  0
 15 16  1  0
 16 17  1  0
 17 18  1  0
 18 19  1  0
 19 20  1  0
 20 21  1  0
 21 22  1  0
 15 23  1  0
 23 24  1  0
 24 25  1  0
 25 26  2  0
 26 27  1  0
 27 28  2  0
 28 29  1  0
 29 30  2  0
 23 31  2  0
 11  6  1  0
 31 12  1  0
 30 25  1  0
  5 32  1  0
  5 33  1  0
  7 34  1  0
  8 35  1  0
  9 36  1  0
 10 37  1  0
 11 38  1  0
 13 39  1  0
 14 40  1  0
 16 41  1  0
 16 42  1  0
 17 43  1  0
 17 44  1  0
 18 45  1  0
 18 46  1  0
 19 47  1  0
 20 48  1  0
 20 49  1  0
 21 50  1  0
 21 51  1  0
 22 52  1  0
 24 53  1  0
 26 54  1  0
 27 55  1  0
 28 56  1  0
 29 57  1  0
 30 58  1  0
 31 59  1  0
M  CHG  2   4  -1  16   1
M  END
>  <UniqueID>  (68) 
66

>  <SMILES>  (68) 
O=S(=O)([N-]Cc1ccccc1)c1ccc([NH2+]CCNCCO)c(Nc2ccccc2)c1

>  <Energy>  (68) 
60.10881538008803

>  <Genealogy>  (68) 
O=S(=O)([N-]Cc1ccccc1)c1ccc([NH2+]CCNCCO)c(Nc2ccccc2)c1 (protonated)
O=S(=O)([N-]Cc1ccccc1)c1ccc([NH2+]CCNCCO)c(Nc2ccccc2)c1 (3D coordinates assigned)
O=S(=O)([N-]Cc1ccccc1)c1ccc([NH2+]CCNCCO)c(Nc2ccccc2)c1 (optimized conformer: 60.10881538008803 kcal/mol)

>  <smiles>  (68) 
O=S(=O)(NCc1ccccc1)c1ccc(NCCNCCO)c(Nc2ccccc2)c1

>  <score_type>  (68) 
oracle

>  <origin>  (68) 
adg

>  <m_score__min__energy>  (68) 
-8.1999999999999993

>  <m_primary>  (68) 
energy

$$$$
68:0
     RDKit          3D

 44 46  0  0  0  0  0  0  0  0999 V2000
   59.0630   34.4550   44.8980 C   0  0  0  0  0  0  0  0  0  0  0  0
   59.0450   34.1050   46.3180 N   0  0  0  0  0  0  0  0  0  0  0  0
   59.8010   34.8790   47.3060 C   0  0  0  0  0  0  0  0  0  0  0  0
   61.1140   34.2060   47.5940 C   0  0  0  0  0  0  0  0  0  0  0  0
   61.9610   33.8310   46.5390 C   0  0  0  0  0  0  0  0  0  0  0  0
   63.1680   33.1770   46.8010 C   0  0  0  0  0  0  0  0  0  0  0  0
   63.5310   32.8800   48.1180 C   0  0  0  0  0  0  0  0  0  0  0  0
   62.6890   33.2390   49.1740 C   0  0  0  0  0  0  0  0  0  0  0  0
   61.4820   33.8970   48.9150 C   0  0  0  0  0  0  0  0  0  0  0  0
   58.3020   32.9530   46.7330 C   0  0  0  0  0  0  0  0  0  0  0  0
   57.1610   32.7450   46.2380 O   0  0  0  0  0  0  0  0  0  0  0  0
   58.8380   32.0490   47.7120 N   0  0  0  0  0  0  0  0  0  0  0  0
   58.5160   32.0150   49.0200 C   0  0  0  0  0  0  0  0  0  0  0  0
   59.2190   31.0090   49.6540 C   0  0  0  0  0  0  0  0  0  0  0  0
   60.0000   30.3990   48.6920 C   0  0  0  0  0  0  0  0  0  0  0  0
   59.7390   31.0660   47.5090 C   0  0  0  0  0  0  0  0  0  0  0  0
   60.3010   30.7840   46.2610 O   0  0  0  0  0  0  0  0  0  0  0  0
   59.9820   29.6270   45.4970 C   0  0  0  0  0  0  0  0  0  0  0  0
   58.6040   29.7910   44.9260 C   0  0  0  0  0  0  0  0  0  0  0  0
   58.3170   30.8340   44.0320 C   0  0  0  0  0  0  0  0  0  0  0  0
   57.0180   31.0050   43.5430 C   0  0  0  0  0  0  0  0  0  0  0  0
   55.9960   30.1460   43.9560 C   0  0  0  0  0  0  0  0  0  0  0  0
   56.2700   29.1180   44.8600 C   0  0  0  0  0  0  0  0  0  0  0  0
   57.5670   28.9410   45.3480 C   0  0  0  0  0  0  0  0  0  0  0  0
   59.1192   35.5483   44.7905 H   0  0  0  0  0  0  0  0  0  0  0  0
   59.9386   33.9938   44.4178 H   0  0  0  0  0  0  0  0  0  0  0  0
   58.1447   34.0861   44.4178 H   0  0  0  0  0  0  0  0  0  0  0  0
   59.9884   35.8885   46.9114 H   0  0  0  0  0  0  0  0  0  0  0  0
   59.2175   34.9433   48.2363 H   0  0  0  0  0  0  0  0  0  0  0  0
   61.6731   34.0531   45.5008 H   0  0  0  0  0  0  0  0  0  0  0  0
   63.8326   32.8959   45.9707 H   0  0  0  0  0  0  0  0  0  0  0  0
   64.4802   32.3633   48.3232 H   0  0  0  0  0  0  0  0  0  0  0  0
   62.9756   33.0040   50.2097 H   0  0  0  0  0  0  0  0  0  0  0  0
   60.8187   34.1735   49.7478 H   0  0  0  0  0  0  0  0  0  0  0  0
   57.7987   32.6893   49.5108 H   0  0  0  0  0  0  0  0  0  0  0  0
   59.1668   30.7445   50.7204 H   0  0  0  0  0  0  0  0  0  0  0  0
   60.6895   29.5543   48.8373 H   0  0  0  0  0  0  0  0  0  0  0  0
   60.7095   29.5109   44.6802 H   0  0  0  0  0  0  0  0  0  0  0  0
   60.0177   28.7337   46.1379 H   0  0  0  0  0  0  0  0  0  0  0  0
   59.1167   31.5195   43.7148 H   0  0  0  0  0  0  0  0  0  0  0  0
   56.8005   31.8163   42.8327 H   0  0  0  0  0  0  0  0  0  0  0  0
   54.9752   30.2799   43.5686 H   0  0  0  0  0  0  0  0  0  0  0  0
   55.4633   28.4463   45.1886 H   0  0  0  0  0  0  0  0  0  0  0  0
   57.7775   28.1337   46.0649 H   0  0  0  0  0  0  0  0  0  0  0  0
  1  2  1  0
  2  3  1  0
  3  4  1  0
  4  5  2  0
  5  6  1  0
  6  7  2  0
  7  8  1  0
  8  9  2  0
  2 10  1  0
 10 11  2  0
 10 12  1  0
 12 13  1  0
 13 14  2  0
 14 15  1  0
 15 16  2  0
 16 17  1  0
 17 18  1  0
 18 19  1  0
 19 20  2  0
 20 21  1  0
 21 22  2  0
 22 23  1  0
 23 24  2  0
  9  4  1  0
 16 12  1  0
 24 19  1  0
  1 25  1  0
  1 26  1  0
  1 27  1  0
  3 28  1  0
  3 29  1  0
  5 30  1  0
  6 31  1  0
  7 32  1  0
  8 33  1  0
  9 34  1  0
 13 35  1  0
 14 36  1  0
 15 37  1  0
 18 38  1  0
 18 39  1  0
 20 40  1  0
 21 41  1  0
 22 42  1  0
 23 43  1  0
 24 44  1  0
M  END
>  <UniqueID>  (69) 
67

>  <SMILES>  (69) 
CN(Cc1ccccc1)C(=O)n1cccc1OCc1ccccc1

>  <Energy>  (69) 
71.99599051009768

>  <Genealogy>  (69) 
CN(Cc1ccccc1)C(=O)n1cccc1OCc1ccccc1 (3D coordinates assigned)
CN(Cc1ccccc1)C(=O)n1cccc1OCc1ccccc1 (optimized conformer: 71.99599051009768 kcal/mol)

>  <smiles>  (69) 
CN(Cc1ccccc1)C(=O)n1cccc1OCc1ccccc1

>  <score_type>  (69) 
oracle

>  <origin>  (69) 
adg

>  <m_score__min__energy>  (69) 
-7.6500000000000004

>  <m_primary>  (69) 
energy

$$$$
69:0
     RDKit          3D

 53 56  0  0  0  0  0  0  0  0999 V2000
   52.5460   30.4770   50.8870 C   0  0  0  0  0  0  0  0  0  0  0  0
   53.7760   30.3210   51.7140 C   0  0  0  0  0  0  0  0  0  0  0  0
   53.8810   29.5550   52.8590 C   0  0  0  0  0  0  0  0  0  0  0  0
   55.1880   29.6930   53.2820 C   0  0  0  0  0  0  0  0  0  0  0  0
   55.7930   30.5280   52.3610 C   0  0  0  0  0  0  0  0  0  0  0  0
   57.2030   31.0160   52.4180 C   0  0  0  0  0  0  0  0  0  0  0  0
   57.3570   32.1590   51.5080 N   0  0  0  0  0  0  0  0  0  0  0  0
   57.8440   33.3600   52.2110 C   0  0  0  0  0  0  0  0  0  0  0  0
   59.2830   33.6780   51.7870 C   0  0  0  0  0  0  0  0  0  0  0  0
   59.5600   33.2080   50.3820 C   0  0  0  0  0  0  0  0  0  0  0  0
   59.6670   34.1350   49.3320 C   0  0  0  0  0  0  0  0  0  0  0  0
   59.8160   33.6950   48.0130 C   0  0  0  0  0  0  0  0  0  0  0  0
   59.8690   32.3190   47.7270 C   0  0  0  0  0  0  0  0  0  0  0  0
   60.0040   31.8320   46.4190 O   0  0  0  0  0  0  0  0  0  0  0  0
   58.9210   31.4750   45.6090 C   0  0  0  0  0  0  0  0  0  0  0  0
   58.4860   32.3670   44.6200 C   0  0  0  0  0  0  0  0  0  0  0  0
   57.4110   32.0360   43.7950 C   0  0  0  0  0  0  0  0  0  0  0  0
   56.7640   30.8060   43.9400 C   0  0  0  0  0  0  0  0  0  0  0  0
   57.1930   29.8940   44.9200 C   0  0  0  0  0  0  0  0  0  0  0  0
   56.5580   28.6510   45.0570 C   0  0  0  0  0  0  0  0  0  0  0  0
   56.9790   27.7270   46.0320 C   0  0  0  0  0  0  0  0  0  0  0  0
   56.2820   26.4170   46.1380 C   0  0  0  0  0  0  0  0  0  0  0  0
   56.9230   25.3540   46.3610 O   0  0  0  0  0  0  0  0  0  0  0  0
   54.8990   26.3420   45.9850 O   0  0  0  0  0  0  0  0  0  0  0  0
   58.0490   28.0760   46.8900 C   0  0  0  0  0  0  0  0  0  0  0  0
   58.4830   27.1920   47.8800 O   0  0  0  0  0  0  0  0  0  0  0  0
   58.6870   29.3170   46.7530 C   0  0  0  0  0  0  0  0  0  0  0  0
   58.2740   30.2310   45.7700 C   0  0  0  0  0  0  0  0  0  0  0  0
   59.7800   31.3970   48.7760 C   0  0  0  0  0  0  0  0  0  0  0  0
   59.6190   31.8360   50.0950 C   0  0  0  0  0  0  0  0  0  0  0  0
   54.9290   30.8860   51.4390 O   0  0  0  0  0  0  0  0  0  0  0  0
   51.6725   30.5878   51.5463 H   0  0  0  0  0  0  0  0  0  0  0  0
   52.6418   31.3702   50.2521 H   0  0  0  0  0  0  0  0  0  0  0  0
   52.4158   29.5882   50.2521 H   0  0  0  0  0  0  0  0  0  0  0  0
   53.0882   28.9591   53.3347 H   0  0  0  0  0  0  0  0  0  0  0  0
   55.6516   29.2340   54.1677 H   0  0  0  0  0  0  0  0  0  0  0  0
   57.4426   31.3288   53.4450 H   0  0  0  0  0  0  0  0  0  0  0  0
   57.8856   30.2084   52.1149 H   0  0  0  0  0  0  0  0  0  0  0  0
   56.4170   32.3730   51.0960 H   0  0  0  0  0  0  0  0  0  0  0  0
   57.1957   34.2134   51.9632 H   0  0  0  0  0  0  0  0  0  0  0  0
   57.8233   33.1733   53.2948 H   0  0  0  0  0  0  0  0  0  0  0  0
   59.4387   34.7658   51.8375 H   0  0  0  0  0  0  0  0  0  0  0  0
   59.9683   33.1530   52.4687 H   0  0  0  0  0  0  0  0  0  0  0  0
   59.6334   35.2130   49.5485 H   0  0  0  0  0  0  0  0  0  0  0  0
   59.8920   34.4278   47.1962 H   0  0  0  0  0  0  0  0  0  0  0  0
   58.9951   33.3338   44.4934 H   0  0  0  0  0  0  0  0  0  0  0  0
   57.0711   32.7463   43.0269 H   0  0  0  0  0  0  0  0  0  0  0  0
   55.9172   30.5508   43.2859 H   0  0  0  0  0  0  0  0  0  0  0  0
   55.7192   28.3945   44.3932 H   0  0  0  0  0  0  0  0  0  0  0  0
   58.2080   26.2170   47.8860 H   0  0  0  0  0  0  0  0  0  0  0  0
   59.5199   29.5775   47.4226 H   0  0  0  0  0  0  0  0  0  0  0  0
   59.8370   30.3195   48.5622 H   0  0  0  0  0  0  0  0  0  0  0  0
   59.5383   31.1021   50.9104 H   0  0  0  0  0  0  0  0  0  0  0  0
  1  2  1  0
  2  3  2  0
  3  4  1  0
  4  5  2  0
  5  6  1  0
  6  7  1  0
  7  8  1  0
  8  9  1  0
  9 10  1  0
 10 11  2  0
 11 12  1  0
 12 13  2  0
 13 14  1  0
 14 15  1  0
 15 16  2  0
 16 17  1  0
 17 18  2  0
 18 19  1  0
 19 20  2  0
 20 21  1  0
 21 22  1  0
 22 23  2  0
 22 24  1  0
 21 25  2  0
 25 26  1  0
 25 27  1  0
 27 28  2  0
 13 29  1  0
 29 30  2  0
  5 31  1  0
 31  2  1  0
 30 10  1  0
 28 15  1  0
 28 19  1  0
  1 32  1  0
  1 33  1  0
  1 34  1  0
  3 35  1  0
  4 36  1  0
  6 37  1  0
  6 38  1  0
  7 39  1  0
  8 40  1  0
  8 41  1  0
  9 42  1  0
  9 43  1  0
 11 44  1  0
 12 45  1  0
 16 46  1  0
 17 47  1  0
 18 48  1  0
 20 49  1  0
 26 50  1  0
 27 51  1  0
 29 52  1  0
 30 53  1  0
M  CHG  1  24  -1
M  END
>  <UniqueID>  (70) 
68

>  <SMILES>  (70) 
Cc1ccc(CNCCc2ccc(Oc3cccc4cc(C(=O)[O-])c(O)cc34)cc2)o1

>  <Energy>  (70) 
87.71489384451985

>  <Genealogy>  (70) 
Cc1ccc(CNCCc2ccc(Oc3cccc4cc(C(=O)[O-])c(O)cc34)cc2)o1 (protonated)
Cc1ccc(CNCCc2ccc(Oc3cccc4cc(C(=O)[O-])c(O)cc34)cc2)o1 (3D coordinates assigned)
Cc1ccc(CNCCc2ccc(Oc3cccc4cc(C(=O)[O-])c(O)cc34)cc2)o1 (optimized conformer: 87.71489384451985 kcal/mol)

>  <smiles>  (70) 
Cc1ccc(CNCCc2ccc(Oc3cccc4cc(C(=O)O)c(O)cc34)cc2)o1

>  <score_type>  (70) 
oracle

>  <origin>  (70) 
adg

>  <m_score__min__energy>  (70) 
-11.039999999999999

>  <m_primary>  (70) 
energy

$$$$
70:0
     RDKit          3D

 44 46  0  0  0  0  0  0  0  0999 V2000
   56.4690   30.7710   43.1180 N   0  0  0  0  0  0  0  0  0  0  0  0
   57.1680   30.1170   44.1820 C   0  0  0  0  0  0  0  0  0  0  0  0
   58.5330   30.3620   44.3730 C   0  0  0  0  0  0  0  0  0  0  0  0
   59.2280   29.7320   45.4080 C   0  0  0  0  0  0  0  0  0  0  0  0
   58.5690   28.8390   46.2720 C   0  0  0  0  0  0  0  0  0  0  0  0
   59.3020   28.1750   47.3750 C   0  0  0  0  0  0  0  0  0  0  0  0
   60.0450   27.1850   47.1300 O   0  0  0  0  0  0  0  0  0  0  0  0
   59.2050   28.6850   48.7120 N   0  0  0  0  0  0  0  0  0  0  0  0
   59.0740   30.0630   49.0910 C   0  0  0  0  0  0  0  0  0  0  0  0
   59.5270   31.1030   48.2580 C   0  0  0  0  0  0  0  0  0  0  0  0
   59.4200   32.4400   48.6660 C   0  0  0  0  0  0  0  0  0  0  0  0
   60.0140   33.7380   47.6250 S   0  0  0  0  0  0  0  0  0  0  0  0
   60.5350   34.8600   48.4800 O   0  0  0  0  0  0  0  0  0  0  0  0
   61.1530   33.2210   46.7910 O   0  0  0  0  0  0  0  0  0  0  0  0
   58.7580   34.3460   46.5700 N   0  0  0  0  0  0  0  0  0  0  0  0
   57.5830   33.4540   46.5990 C   0  0  0  0  0  0  0  0  0  0  0  0
   56.7110   33.6680   45.3520 C   0  0  0  0  0  0  0  0  0  0  0  0
   57.3820   33.4050   44.1250 O   0  0  0  0  0  0  0  0  0  0  0  0
   58.7950   33.5190   44.2070 C   0  0  0  0  0  0  0  0  0  0  0  0
   59.2630   34.5960   45.2030 C   0  0  0  0  0  0  0  0  0  0  0  0
   58.8510   32.7380   49.9110 C   0  0  0  0  0  0  0  0  0  0  0  0
   58.4210   31.7110   50.7520 C   0  0  0  0  0  0  0  0  0  0  0  0
   58.5410   30.3730   50.3500 C   0  0  0  0  0  0  0  0  0  0  0  0
   58.1230   29.3470   51.1970 O   0  0  0  0  0  0  0  0  0  0  0  0
   57.1970   28.5960   46.0780 C   0  0  0  0  0  0  0  0  0  0  0  0
   56.5000   29.2290   45.0420 C   0  0  0  0  0  0  0  0  0  0  0  0
   55.1440   28.9710   44.8760 O   0  0  0  0  0  0  0  0  0  0  0  0
   56.6810   31.7640   42.8740 H   0  0  0  0  0  0  0  0  0  0  0  0
   55.7380   30.2740   42.5630 H   0  0  0  0  0  0  0  0  0  0  0  0
   59.0621   31.0557   43.7031 H   0  0  0  0  0  0  0  0  0  0  0  0
   60.2997   29.9360   45.5485 H   0  0  0  0  0  0  0  0  0  0  0  0
   59.9685   30.8649   47.2790 H   0  0  0  0  0  0  0  0  0  0  0  0
   57.9234   32.4084   46.6270 H   0  0  0  0  0  0  0  0  0  0  0  0
   56.9853   33.6835   47.4935 H   0  0  0  0  0  0  0  0  0  0  0  0
   55.8399   32.9998   45.4201 H   0  0  0  0  0  0  0  0  0  0  0  0
   56.4290   34.7312   45.3392 H   0  0  0  0  0  0  0  0  0  0  0  0
   59.2056   32.5489   44.5235 H   0  0  0  0  0  0  0  0  0  0  0  0
   59.1558   33.8173   43.2116 H   0  0  0  0  0  0  0  0  0  0  0  0
   60.3627   34.6032   45.2269 H   0  0  0  0  0  0  0  0  0  0  0  0
   58.8649   35.5647   44.8665 H   0  0  0  0  0  0  0  0  0  0  0  0
   58.7428   33.7861   50.2269 H   0  0  0  0  0  0  0  0  0  0  0  0
   57.9865   31.9517   51.7335 H   0  0  0  0  0  0  0  0  0  0  0  0
   58.5420   28.4240   51.1590 H   0  0  0  0  0  0  0  0  0  0  0  0
   56.6668   27.9020   46.7467 H   0  0  0  0  0  0  0  0  0  0  0  0
  1  2  1  0
  2  3  2  0
  3  4  1  0
  4  5  2  0
  5  6  1  0
  6  7  2  0
  6  8  1  0
  8  9  1  0
  9 10  2  0
 10 11  1  0
 11 12  1  0
 12 13  2  0
 12 14  2  0
 12 15  1  0
 15 16  1  0
 16 17  1  0
 17 18  1  0
 18 19  1  0
 19 20  1  0
 11 21  2  0
 21 22  1  0
 22 23  2  0
 23 24  1  0
  5 25  1  0
 25 26  2  0
 26 27  1  0
 26  2  1  0
 23  9  1  0
 20 15  1  0
  1 28  1  0
  1 29  1  0
  3 30  1  0
  4 31  1  0
 10 32  1  0
 16 33  1  0
 16 34  1  0
 17 35  1  0
 17 36  1  0
 19 37  1  0
 19 38  1  0
 20 39  1  0
 20 40  1  0
 21 41  1  0
 22 42  1  0
 24 43  1  0
 25 44  1  0
M  CHG  2   8  -1  27  -1
M  END
>  <UniqueID>  (71) 
69

>  <SMILES>  (71) 
Nc1ccc(C(=O)[N-]c2cc(S(=O)(=O)N3CCOCC3)ccc2O)cc1[O-]

>  <Energy>  (71) 
61.19187008654937

>  <Genealogy>  (71) 
Nc1ccc(C(=O)[N-]c2cc(S(=O)(=O)N3CCOCC3)ccc2O)cc1[O-] (protonated)
Nc1ccc(C(=O)[N-]c2cc(S(=O)(=O)N3CCOCC3)ccc2O)cc1[O-] (3D coordinates assigned)
Nc1ccc(C(=O)[N-]c2cc(S(=O)(=O)N3CCOCC3)ccc2O)cc1[O-] (nonaromatic ring conformer: 61.19187008654937 kcal/mol)

>  <smiles>  (71) 
Nc1ccc(C(=O)Nc2cc(S(=O)(=O)N3CCOCC3)ccc2O)cc1O

>  <score_type>  (71) 
oracle

>  <origin>  (71) 
adg

>  <m_score__min__energy>  (71) 
-12.77

>  <m_primary>  (71) 
energy

$$$$
71:0
     RDKit          3D

 27 28  0  0  0  0  0  0  0  0999 V2000
   58.4790   32.6680   48.1950 C   0  0  0  0  0  0  0  0  0  0  0  0
   58.2280   32.6710   46.7210 C   0  0  0  0  0  0  0  0  0  0  0  0
   58.4600   33.8260   45.9640 C   0  0  0  0  0  0  0  0  0  0  0  0
   58.2170   33.8030   44.5910 C   0  0  0  0  0  0  0  0  0  0  0  0
   57.7470   32.6350   43.9860 C   0  0  0  0  0  0  0  0  0  0  0  0
   57.5240   31.4950   44.7680 C   0  0  0  0  0  0  0  0  0  0  0  0
   57.0860   30.4100   44.1970 N   0  0  0  0  0  0  0  0  0  0  0  0
   56.4000   29.3120   44.8260 C   0  0  0  0  0  0  0  0  0  0  0  0
   55.1480   29.3500   44.9840 O   0  0  0  0  0  0  0  0  0  0  0  0
   57.1740   28.1300   45.2890 C   0  0  0  0  0  0  0  0  0  0  0  0
   58.5750   28.1210   45.1740 C   0  0  0  0  0  0  0  0  0  0  0  0
   59.3140   27.0200   45.6040 C   0  0  0  0  0  0  0  0  0  0  0  0
   58.6520   25.9220   46.1530 C   0  0  0  0  0  0  0  0  0  0  0  0
   59.3120   24.9230   46.5450 O   0  0  0  0  0  0  0  0  0  0  0  0
   57.2960   25.9310   46.2650 N   0  0  0  0  0  0  0  0  0  0  0  0
   56.5480   26.9940   45.8530 C   0  0  0  0  0  0  0  0  0  0  0  0
   55.1650   26.9360   45.9970 O   0  0  0  0  0  0  0  0  0  0  0  0
   57.7690   31.5450   46.1090 N   0  0  0  0  0  0  0  0  0  0  0  0
   57.5183   32.6795   48.7306 H   0  0  0  0  0  0  0  0  0  0  0  0
   59.0410   31.7631   48.4694 H   0  0  0  0  0  0  0  0  0  0  0  0
   59.0624   33.5592   48.4694 H   0  0  0  0  0  0  0  0  0  0  0  0
   58.8302   34.7421   46.4475 H   0  0  0  0  0  0  0  0  0  0  0  0
   58.3952   34.7036   43.9851 H   0  0  0  0  0  0  0  0  0  0  0  0
   57.5535   32.6109   42.9034 H   0  0  0  0  0  0  0  0  0  0  0  0
   59.0924   28.9899   44.7411 H   0  0  0  0  0  0  0  0  0  0  0  0
   60.4101   27.0172   45.5111 H   0  0  0  0  0  0  0  0  0  0  0  0
   56.8120   25.1010   46.6770 H   0  0  0  0  0  0  0  0  0  0  0  0
  1  2  1  0
  2  3  2  0
  3  4  1  0
  4  5  2  0
  5  6  1  0
  6  7  2  3
  7  8  1  0
  8  9  2  0
  8 10  1  0
 10 11  1  0
 11 12  2  0
 12 13  1  0
 13 14  2  0
 13 15  1  0
 15 16  1  0
 16 17  1  0
  6 18  1  0
 18  2  1  0
 16 10  2  0
  1 19  1  0
  1 20  1  0
  1 21  1  0
  3 22  1  0
  4 23  1  0
  5 24  1  0
 11 25  1  0
 12 26  1  0
 15 27  1  0
M  CHG  2  17  -1  18  -1
M  END
>  <UniqueID>  (72) 
70

>  <SMILES>  (72) 
Cc1cccc(=NC(=O)c2ccc(=O)[nH]c2[O-])[n-]1

>  <Energy>  (72) 
32.67816234007976

>  <Genealogy>  (72) 
Cc1cccc(=NC(=O)c2ccc(=O)[nH]c2[O-])[n-]1 (protonated)
Cc1cccc(=NC(=O)c2ccc(=O)[nH]c2[O-])[n-]1 (3D coordinates assigned)
Cc1cccc(=NC(=O)c2ccc(=O)[nH]c2[O-])[n-]1 (optimized conformer: 32.67816234007976 kcal/mol)

>  <smiles>  (72) 
Cc1cccc(=NC(=O)c2ccc(=O)[nH]c2O)[nH]1

>  <score_type>  (72) 
oracle

>  <origin>  (72) 
adg

>  <m_score__min__energy>  (72) 
-12

>  <m_primary>  (72) 
energy

$$$$
72:0
     RDKit          3D

 54 56  0  0  0  0  0  0  0  0999 V2000
   56.5830   30.2660   43.3190 C   0  0  0  0  0  0  0  0  0  0  0  0
   56.4890   30.9310   44.5750 O   0  0  0  0  0  0  0  0  0  0  0  0
   57.5680   31.5780   45.1820 C   0  0  0  0  0  0  0  0  0  0  0  0
   57.8800   32.7550   44.8530 O   0  0  0  0  0  0  0  0  0  0  0  0
   58.3820   30.8530   46.1720 C   0  0  0  0  0  0  0  0  0  0  0  0
   58.1210   29.5330   46.5340 C   0  0  0  0  0  0  0  0  0  0  0  0
   57.0620   28.7180   46.0090 N   0  0  0  0  0  0  0  0  0  0  0  0
   56.9460   27.3140   46.2690 C   0  0  0  0  0  0  0  0  0  0  0  0
   57.8100   26.7150   46.9640 O   0  0  0  0  0  0  0  0  0  0  0  0
   55.8310   26.5950   45.7340 N   0  0  0  0  0  0  0  0  0  0  0  0
   55.8260   25.1950   45.4130 C   0  0  0  0  0  0  0  0  0  0  0  0
   56.9060   24.6570   44.7040 C   0  0  0  0  0  0  0  0  0  0  0  0
   56.8970   23.3140   44.3140 C   0  0  0  0  0  0  0  0  0  0  0  0
   55.8050   22.4970   44.6290 C   0  0  0  0  0  0  0  0  0  0  0  0
   54.7230   23.0160   45.3470 C   0  0  0  0  0  0  0  0  0  0  0  0
   53.5910   22.1730   45.6030 N   0  0  0  0  0  0  0  0  0  0  0  0
   52.2200   22.5850   45.6130 C   0  0  0  0  0  0  0  0  0  0  0  0
   51.4020   22.5770   46.8670 C   0  0  0  0  0  0  0  0  0  0  0  0
   51.6800   22.9380   44.5290 O   0  0  0  0  0  0  0  0  0  0  0  0
   54.7230   24.3740   45.7140 C   0  0  0  0  0  0  0  0  0  0  0  0
   59.1860   29.0790   47.7490 S   0  0  0  0  0  0  0  0  0  0  0  0
   59.9970   30.5500   47.8470 C   0  0  0  0  0  0  0  0  0  0  0  0
   61.1320   30.8030   48.7530 C   0  0  0  0  0  0  0  0  0  0  0  0
   61.2150   30.1740   49.8400 O   0  0  0  0  0  0  0  0  0  0  0  0
   62.1260   31.7910   48.4230 N   0  0  0  0  0  0  0  0  0  0  0  0
   62.8180   31.7120   47.1310 C   0  0  0  0  0  0  0  0  0  0  0  0
   63.3970   33.0830   46.7710 C   0  0  0  0  0  0  0  0  0  0  0  0
   64.1960   33.5790   47.8260 O   0  0  0  0  0  0  0  0  0  0  0  0
   63.3920   33.8210   48.9640 C   0  0  0  0  0  0  0  0  0  0  0  0
   62.7970   32.5180   49.5040 C   0  0  0  0  0  0  0  0  0  0  0  0
   59.4310   31.4360   46.9220 C   0  0  0  0  0  0  0  0  0  0  0  0
   59.9370   32.8370   46.7190 C   0  0  0  0  0  0  0  0  0  0  0  0
   56.7352   29.1893   43.4847 H   0  0  0  0  0  0  0  0  0  0  0  0
   55.6539   30.4219   42.7511 H   0  0  0  0  0  0  0  0  0  0  0  0
   57.4325   30.6733   42.7511 H   0  0  0  0  0  0  0  0  0  0  0  0
   56.2600   29.1820   45.5310 H   0  0  0  0  0  0  0  0  0  0  0  0
   57.7667   25.2940   44.4521 H   0  0  0  0  0  0  0  0  0  0  0  0
   57.7505   22.8986   43.7581 H   0  0  0  0  0  0  0  0  0  0  0  0
   55.7979   21.4440   44.3110 H   0  0  0  0  0  0  0  0  0  0  0  0
   52.0702   22.5835   47.7407 H   0  0  0  0  0  0  0  0  0  0  0  0
   50.7586   23.4689   46.8908 H   0  0  0  0  0  0  0  0  0  0  0  0
   50.7762   21.6727   46.8908 H   0  0  0  0  0  0  0  0  0  0  0  0
   53.8547   24.7974   46.2401 H   0  0  0  0  0  0  0  0  0  0  0  0
   63.6334   30.9767   47.1973 H   0  0  0  0  0  0  0  0  0  0  0  0
   62.1039   31.4026   46.3536 H   0  0  0  0  0  0  0  0  0  0  0  0
   64.0132   32.9884   45.8647 H   0  0  0  0  0  0  0  0  0  0  0  0
   62.5669   33.7832   46.5958 H   0  0  0  0  0  0  0  0  0  0  0  0
   64.0084   34.2865   49.7472 H   0  0  0  0  0  0  0  0  0  0  0  0
   62.5672   34.4886   48.6742 H   0  0  0  0  0  0  0  0  0  0  0  0
   63.6021   31.8936   49.9187 H   0  0  0  0  0  0  0  0  0  0  0  0
   62.0656   32.7526   50.2914 H   0  0  0  0  0  0  0  0  0  0  0  0
   60.1080   33.3104   47.6971 H   0  0  0  0  0  0  0  0  0  0  0  0
   60.8814   32.8078   46.1557 H   0  0  0  0  0  0  0  0  0  0  0  0
   59.1919   33.4179   46.1557 H   0  0  0  0  0  0  0  0  0  0  0  0
  1  2  1  0
  2  3  1  0
  3  4  2  0
  3  5  1  0
  5  6  2  0
  6  7  1  0
  7  8  1  0
  8  9  2  0
  8 10  1  0
 10 11  1  0
 11 12  2  0
 12 13  1  0
 13 14  2  0
 14 15  1  0
 15 16  1  0
 16 17  1  0
 17 18  1  0
 17 19  2  0
 15 20  2  0
  6 21  1  0
 21 22  1  0
 22 23  1  0
 23 24  2  0
 23 25  1  0
 25 26  1  0
 26 27  1  0
 27 28  1  0
 28 29  1  0
 29 30  1  0
 22 31  2  0
 31 32  1  0
 31  5  1  0
 20 11  1  0
 30 25  1  0
  1 33  1  0
  1 34  1  0
  1 35  1  0
  7 36  1  0
 12 37  1  0
 13 38  1  0
 14 39  1  0
 18 40  1  0
 18 41  1  0
 18 42  1  0
 20 43  1  0
 26 44  1  0
 26 45  1  0
 27 46  1  0
 27 47  1  0
 29 48  1  0
 29 49  1  0
 30 50  1  0
 30 51  1  0
 32 52  1  0
 32 53  1  0
 32 54  1  0
M  CHG  2  10  -1  16  -1
M  END
>  <UniqueID>  (73) 
71

>  <SMILES>  (73) 
COC(=O)c1c(NC(=O)[N-]c2cccc([N-]C(C)=O)c2)sc(C(=O)N2CCOCC2)c1C

>  <Energy>  (73) 
100.56347919286456

>  <Genealogy>  (73) 
COC(=O)c1c(NC(=O)[N-]c2cccc([N-]C(C)=O)c2)sc(C(=O)N2CCOCC2)c1C (protonated)
COC(=O)c1c(NC(=O)[N-]c2cccc([N-]C(C)=O)c2)sc(C(=O)N2CCOCC2)c1C (3D coordinates assigned)
COC(=O)c1c(NC(=O)[N-]c2cccc([N-]C(C)=O)c2)sc(C(=O)N2CCOCC2)c1C (nonaromatic ring conformer: 100.56347919286456 kcal/mol)

>  <smiles>  (73) 
COC(=O)c1c(NC(=O)Nc2cccc(NC(C)=O)c2)sc(C(=O)N2CCOCC2)c1C

>  <score_type>  (73) 
oracle

>  <origin>  (73) 
adg

>  <m_score__min__energy>  (73) 
-11.699999999999999

>  <m_primary>  (73) 
energy

$$$$
73:0
     RDKit          3D

 48 50  0  0  0  0  0  0  0  0999 V2000
   57.4330   32.1520   44.8300 C   0  0  0  0  0  0  0  0  0  0  0  0
   57.8460   30.7530   44.3930 C   0  0  0  0  0  0  0  0  0  0  0  0
   56.4130   29.7070   44.1680 S   0  0  0  0  0  0  0  0  0  0  0  0
   56.3510   29.2780   42.7290 O   0  0  0  0  0  0  0  0  0  0  0  0
   55.1590   30.4660   44.4970 O   0  0  0  0  0  0  0  0  0  0  0  0
   56.5260   28.2910   45.1640 N   0  0  0  0  0  0  0  0  0  0  0  0
   57.7040   27.8330   45.8470 C   0  0  0  0  0  0  0  0  0  0  0  0
   58.2680   28.5580   46.9130 C   0  0  0  0  0  0  0  0  0  0  0  0
   59.4260   28.0970   47.5630 C   0  0  0  0  0  0  0  0  0  0  0  0
   60.0230   28.8840   48.6720 C   0  0  0  0  0  0  0  0  0  0  0  0
   60.5630   28.2210   49.7790 C   0  0  0  0  0  0  0  0  0  0  0  0
   61.1160   28.9600   50.8160 C   0  0  0  0  0  0  0  0  0  0  0  0
   61.1300   30.3130   50.7420 N   0  0  0  0  0  0  0  0  0  0  0  0
   60.6260   30.9760   49.6970 N   0  0  0  0  0  0  0  0  0  0  0  0
   60.7200   32.4430   49.7060 C   0  0  0  0  0  0  0  0  0  0  0  0
   61.5210   32.9240   48.5130 C   0  0  0  0  0  0  0  0  0  0  0  0
   62.8590   32.4960   48.4170 C   0  0  0  0  0  0  0  0  0  0  0  0
   63.6690   32.9110   47.3630 C   0  0  0  0  0  0  0  0  0  0  0  0
   63.1600   33.7590   46.3850 C   0  0  0  0  0  0  0  0  0  0  0  0
   61.8370   34.1960   46.4540 C   0  0  0  0  0  0  0  0  0  0  0  0
   60.9960   33.7960   47.5150 C   0  0  0  0  0  0  0  0  0  0  0  0
   59.5550   34.2730   47.5380 C   0  0  0  0  0  0  0  0  0  0  0  0
   59.3090   35.0990   46.4580 F   0  0  0  0  0  0  0  0  0  0  0  0
   59.3130   34.9640   48.7120 F   0  0  0  0  0  0  0  0  0  0  0  0
   58.6610   33.2170   47.4720 F   0  0  0  0  0  0  0  0  0  0  0  0
   60.0720   30.2920   48.6420 C   0  0  0  0  0  0  0  0  0  0  0  0
   59.6240   30.9150   47.6400 O   0  0  0  0  0  0  0  0  0  0  0  0
   60.0220   26.9010   47.1350 C   0  0  0  0  0  0  0  0  0  0  0  0
   59.4630   26.1700   46.0860 C   0  0  0  0  0  0  0  0  0  0  0  0
   58.3080   26.6290   45.4420 C   0  0  0  0  0  0  0  0  0  0  0  0
   57.7560   25.8570   44.3550 C   0  0  0  0  0  0  0  0  0  0  0  0
   57.3130   25.2370   43.4840 N   0  0  0  0  0  0  0  0  0  0  0  0
   57.4178   32.2034   45.9287 H   0  0  0  0  0  0  0  0  0  0  0  0
   58.1528   32.8859   44.4385 H   0  0  0  0  0  0  0  0  0  0  0  0
   56.4300   32.3773   44.4385 H   0  0  0  0  0  0  0  0  0  0  0  0
   58.3960   30.8200   43.4427 H   0  0  0  0  0  0  0  0  0  0  0  0
   58.4830   30.3138   45.1749 H   0  0  0  0  0  0  0  0  0  0  0  0
   57.7973   29.4964   47.2415 H   0  0  0  0  0  0  0  0  0  0  0  0
   60.5496   27.1222   49.8275 H   0  0  0  0  0  0  0  0  0  0  0  0
   61.5406   28.4499   51.6932 H   0  0  0  0  0  0  0  0  0  0  0  0
   59.7081   32.8721   49.6610 H   0  0  0  0  0  0  0  0  0  0  0  0
   61.2239   32.7645   50.6295 H   0  0  0  0  0  0  0  0  0  0  0  0
   63.2701   31.8245   49.1852 H   0  0  0  0  0  0  0  0  0  0  0  0
   64.7124   32.5678   47.3038 H   0  0  0  0  0  0  0  0  0  0  0  0
   63.8028   34.0861   45.5544 H   0  0  0  0  0  0  0  0  0  0  0  0
   61.4438   34.8612   45.6711 H   0  0  0  0  0  0  0  0  0  0  0  0
   60.9351   26.5376   47.6292 H   0  0  0  0  0  0  0  0  0  0  0  0
   59.9321   25.2287   45.7637 H   0  0  0  0  0  0  0  0  0  0  0  0
  1  2  1  0
  2  3  1  0
  3  4  2  0
  3  5  2  0
  3  6  1  0
  6  7  1  0
  7  8  2  0
  8  9  1  0
  9 10  1  0
 10 11  2  0
 11 12  1  0
 12 13  2  0
 13 14  1  0
 14 15  1  0
 15 16  1  0
 16 17  2  0
 17 18  1  0
 18 19  2  0
 19 20  1  0
 20 21  2  0
 21 22  1  0
 22 23  1  0
 22 24  1  0
 22 25  1  0
 14 26  1  0
 26 27  2  0
  9 28  2  0
 28 29  1  0
 29 30  2  0
 30 31  1  0
 31 32  3  0
 30  7  1  0
 26 10  1  0
 21 16  1  0
  1 33  1  0
  1 34  1  0
  1 35  1  0
  2 36  1  0
  2 37  1  0
  8 38  1  0
 11 39  1  0
 12 40  1  0
 15 41  1  0
 15 42  1  0
 17 43  1  0
 18 44  1  0
 19 45  1  0
 20 46  1  0
 28 47  1  0
 29 48  1  0
M  CHG  1   6  -1
M  END
>  <UniqueID>  (74) 
72

>  <SMILES>  (74) 
CCS(=O)(=O)[N-]c1cc(-c2ccnn(Cc3ccccc3C(F)(F)F)c2=O)ccc1C#N

>  <Energy>  (74) 
59.03241153343702

>  <Genealogy>  (74) 
CCS(=O)(=O)[N-]c1cc(-c2ccnn(Cc3ccccc3C(F)(F)F)c2=O)ccc1C#N (protonated)
CCS(=O)(=O)[N-]c1cc(-c2ccnn(Cc3ccccc3C(F)(F)F)c2=O)ccc1C#N (3D coordinates assigned)
CCS(=O)(=O)[N-]c1cc(-c2ccnn(Cc3ccccc3C(F)(F)F)c2=O)ccc1C#N (optimized conformer: 59.03241153343702 kcal/mol)

>  <smiles>  (74) 
CCS(=O)(=O)Nc1cc(-c2ccnn(Cc3ccccc3C(F)(F)F)c2=O)ccc1C#N

>  <score_type>  (74) 
oracle

>  <origin>  (74) 
adg

>  <m_score__min__energy>  (74) 
-10.4

>  <m_primary>  (74) 
energy

$$$$
74:0
     RDKit          3D

 66 69  0  0  0  0  0  0  0  0999 V2000
   60.9260   29.1000   50.4470 C   0  0  0  0  0  0  0  0  0  0  0  0
   61.1050   30.4670   50.9350 N   0  0  0  0  0  0  0  0  0  0  0  0
   60.1900   31.4610   50.9430 C   0  0  0  0  0  0  0  0  0  0  0  0
   58.8120   31.3450   50.4370 C   0  0  0  0  0  0  0  0  0  0  0  0
   58.5640   31.5130   49.1730 N   0  0  0  0  0  0  0  0  0  0  0  0
   59.2540   30.8820   48.0810 C   0  0  0  0  0  0  0  0  0  0  0  0
   60.6210   31.1020   47.8180 C   0  0  0  0  0  0  0  0  0  0  0  0
   61.2470   30.4440   46.7540 C   0  0  0  0  0  0  0  0  0  0  0  0
   60.5210   29.5620   45.9510 C   0  0  0  0  0  0  0  0  0  0  0  0
   59.1610   29.3430   46.1970 C   0  0  0  0  0  0  0  0  0  0  0  0
   58.2800   28.1570   45.2360 S   0  0  0  0  0  0  0  0  0  0  0  0
   58.2030   26.8690   46.0070 O   0  0  0  0  0  0  0  0  0  0  0  0
   58.9790   27.8970   43.9320 O   0  0  0  0  0  0  0  0  0  0  0  0
   56.6760   28.7370   44.9350 N   0  0  0  0  0  0  0  0  0  0  0  0
   56.3970   29.9440   44.2190 C   0  0  0  0  0  0  0  0  0  0  0  0
   55.2560   30.4670   44.3260 O   0  0  0  0  0  0  0  0  0  0  0  0
   57.3930   30.5570   43.3900 N   0  0  0  0  0  0  0  0  0  0  0  0
   57.3820   31.9800   43.0630 C   0  0  0  0  0  0  0  0  0  0  0  0
   57.7830   32.8080   44.2540 C   0  0  0  0  0  0  0  0  0  0  0  0
   57.0920   32.6740   45.4700 C   0  0  0  0  0  0  0  0  0  0  0  0
   57.4490   33.4590   46.5720 C   0  0  0  0  0  0  0  0  0  0  0  0
   58.4880   34.3910   46.4620 C   0  0  0  0  0  0  0  0  0  0  0  0
   59.1760   34.5330   45.2540 C   0  0  0  0  0  0  0  0  0  0  0  0
   58.8260   33.7480   44.1520 C   0  0  0  0  0  0  0  0  0  0  0  0
   58.5290   30.0210   47.2500 C   0  0  0  0  0  0  0  0  0  0  0  0
   60.7710   32.5710   51.5330 C   0  0  0  0  0  0  0  0  0  0  0  0
   60.1700   33.8120   51.7090 O   0  0  0  0  0  0  0  0  0  0  0  0
   62.0320   32.2730   51.9070 N   0  0  0  0  0  0  0  0  0  0  0  0
   62.9940   33.1510   52.5790 C   0  0  0  0  0  0  0  0  0  0  0  0
   63.6240   34.1530   51.5980 C   0  0  0  0  0  0  0  0  0  0  0  0
   64.3140   33.4830   50.3960 C   0  0  0  0  0  0  0  0  0  0  0  0
   63.5030   33.6030   49.1290 C   0  0  0  0  0  0  0  0  0  0  0  0
   64.0560   33.2130   47.8950 C   0  0  0  0  0  0  0  0  0  0  0  0
   63.3030   33.3160   46.7210 C   0  0  0  0  0  0  0  0  0  0  0  0
   61.9980   33.8140   46.7670 C   0  0  0  0  0  0  0  0  0  0  0  0
   61.4450   34.2160   47.9860 C   0  0  0  0  0  0  0  0  0  0  0  0
   62.1950   34.1160   49.1630 C   0  0  0  0  0  0  0  0  0  0  0  0
   62.2050   30.9880   51.5240 C   0  0  0  0  0  0  0  0  0  0  0  0
   63.2760   30.3430   51.7020 O   0  0  0  0  0  0  0  0  0  0  0  0
   60.8362   28.4142   51.3023 H   0  0  0  0  0  0  0  0  0  0  0  0
   60.0130   29.0454   49.8358 H   0  0  0  0  0  0  0  0  0  0  0  0
   61.7941   28.8122   49.8358 H   0  0  0  0  0  0  0  0  0  0  0  0
   57.9903   31.1154   51.1313 H   0  0  0  0  0  0  0  0  0  0  0  0
   61.1972   31.7929   48.4510 H   0  0  0  0  0  0  0  0  0  0  0  0
   62.3131   30.6217   46.5495 H   0  0  0  0  0  0  0  0  0  0  0  0
   61.0197   29.0377   45.1225 H   0  0  0  0  0  0  0  0  0  0  0  0
   58.1790   29.9780   43.0220 H   0  0  0  0  0  0  0  0  0  0  0  0
   58.0886   32.1660   42.2407 H   0  0  0  0  0  0  0  0  0  0  0  0
   56.3620   32.2642   42.7649 H   0  0  0  0  0  0  0  0  0  0  0  0
   56.2682   31.9501   45.5560 H   0  0  0  0  0  0  0  0  0  0  0  0
   56.9129   33.3437   47.5256 H   0  0  0  0  0  0  0  0  0  0  0  0
   58.7630   35.0120   47.3273 H   0  0  0  0  0  0  0  0  0  0  0  0
   59.9941   35.2636   45.1704 H   0  0  0  0  0  0  0  0  0  0  0  0
   59.3674   33.8650   43.2016 H   0  0  0  0  0  0  0  0  0  0  0  0
   57.4528   29.8743   47.4241 H   0  0  0  0  0  0  0  0  0  0  0  0
   62.4755   33.7071   53.3740 H   0  0  0  0  0  0  0  0  0  0  0  0
   63.7971   32.5265   52.9973 H   0  0  0  0  0  0  0  0  0  0  0  0
   62.8315   34.8156   51.2199 H   0  0  0  0  0  0  0  0  0  0  0  0
   64.3992   34.7039   52.1508 H   0  0  0  0  0  0  0  0  0  0  0  0
   65.2913   33.9623   50.2370 H   0  0  0  0  0  0  0  0  0  0  0  0
   64.4235   32.4127   50.6249 H   0  0  0  0  0  0  0  0  0  0  0  0
   65.0847   32.8256   47.8537 H   0  0  0  0  0  0  0  0  0  0  0  0
   63.7385   33.0046   45.7601 H   0  0  0  0  0  0  0  0  0  0  0  0
   61.4057   33.8896   45.8432 H   0  0  0  0  0  0  0  0  0  0  0  0
   60.4191   34.6114   48.0201 H   0  0  0  0  0  0  0  0  0  0  0  0
   61.7588   34.4404   50.1193 H   0  0  0  0  0  0  0  0  0  0  0  0
  1  2  1  0
  2  3  1  0
  3  4  1  0
  4  5  2  3
  5  6  1  0
  6  7  2  0
  7  8  1  0
  8  9  2  0
  9 10  1  0
 10 11  1  0
 11 12  2  0
 11 13  2  0
 11 14  1  0
 14 15  1  0
 15 16  2  0
 15 17  1  0
 17 18  1  0
 18 19  1  0
 19 20  2  0
 20 21  1  0
 21 22  2  0
 22 23  1  0
 23 24  2  0
 10 25  2  0
  3 26  2  0
 26 27  1  0
 26 28  1  0
 28 29  1  0
 29 30  1  0
 30 31  1  0
 31 32  1  0
 32 33  2  0
 33 34  1  0
 34 35  2  0
 35 36  1  0
 36 37  2  0
 28 38  1  0
 38 39  2  0
 38  2  1  0
 25  6  1  0
 37 32  1  0
 24 19  1  0
  1 40  1  0
  1 41  1  0
  1 42  1  0
  4 43  1  0
  7 44  1  0
  8 45  1  0
  9 46  1  0
 17 47  1  0
 18 48  1  0
 18 49  1  0
 20 50  1  0
 21 51  1  0
 22 52  1  0
 23 53  1  0
 24 54  1  0
 25 55  1  0
 29 56  1  0
 29 57  1  0
 30 58  1  0
 30 59  1  0
 31 60  1  0
 31 61  1  0
 33 62  1  0
 34 63  1  0
 35 64  1  0
 36 65  1  0
 37 66  1  0
M  CHG  2  14  -1  27  -1
M  END
>  <UniqueID>  (75) 
73

>  <SMILES>  (75) 
Cn1c(C=Nc2cccc(S(=O)(=O)[N-]C(=O)NCc3ccccc3)c2)c([O-])n(CCCc2ccccc2)c1=O

>  <Energy>  (75) 
103.06167679565709

>  <Genealogy>  (75) 
Cn1c(C=Nc2cccc(S(=O)(=O)[N-]C(=O)NCc3ccccc3)c2)c([O-])n(CCCc2ccccc2)c1=O (protonated)
Cn1c(C=Nc2cccc(S(=O)(=O)[N-]C(=O)NCc3ccccc3)c2)c([O-])n(CCCc2ccccc2)c1=O (3D coordinates assigned)
Cn1c(C=Nc2cccc(S(=O)(=O)[N-]C(=O)NCc3ccccc3)c2)c([O-])n(CCCc2ccccc2)c1=O (optimized conformer: 103.06167679565709 kcal/mol)

>  <smiles>  (75) 
Cn1c(C=Nc2cccc(S(=O)(=O)NC(=O)NCc3ccccc3)c2)c(O)n(CCCc2ccccc2)c1=O

>  <score_type>  (75) 
oracle

>  <origin>  (75) 
adg

>  <m_score__min__energy>  (75) 
-16.23

>  <m_primary>  (75) 
energy

$$$$
75:0
     RDKit          3D

 48 52  0  0  0  0  0  0  0  0999 V2000
   53.8049   32.6294   52.3592 H   0  0  0  0  0  0  0  0  0  0  0  0
   53.7110   31.6000   51.9830 C   0  0  0  0  0  0  0  0  0  0  0  0
   52.6090   31.3010   51.0530 C   0  0  0  0  0  0  0  0  0  0  0  0
   52.6810   30.3460   50.1090 N   0  0  0  0  0  0  0  0  0  0  0  0
   51.5090   30.4680   49.4480 C   0  0  0  0  0  0  0  0  0  0  0  0
   51.1940   29.7240   48.4830 O   0  0  0  0  0  0  0  0  0  0  0  0
   50.7070   31.4570   49.8950 N   0  0  0  0  0  0  0  0  0  0  0  0
   51.4210   31.9840   50.9020 C   0  0  0  0  0  0  0  0  0  0  0  0
   51.0150   33.0950   51.6300 O   0  0  0  0  0  0  0  0  0  0  0  0
   54.6070   30.6930   52.3990 C   0  0  0  0  0  0  0  0  0  0  0  0
   54.4280   29.5880   53.2320 C   0  0  0  0  0  0  0  0  0  0  0  0
   53.4812   29.3071   53.7165 H   0  0  0  0  0  0  0  0  0  0  0  0
   55.5970   28.9130   53.3540 N   0  0  0  0  0  0  0  0  0  0  0  0
   56.4970   29.5560   52.6250 N   0  0  0  0  0  0  0  0  0  0  0  0
   57.8140   29.2600   52.4270 C   0  0  0  0  0  0  0  0  0  0  0  0
   58.4070   28.2380   52.9750 N   0  0  0  0  0  0  0  0  0  0  0  0
   59.8420   28.0740   53.1840 C   0  0  0  0  0  0  0  0  0  0  0  0
   59.9400   28.7221   54.0674 H   0  0  0  0  0  0  0  0  0  0  0  0
   60.3310   26.6940   52.7870 C   0  0  0  0  0  0  0  0  0  0  0  0
   61.1391   26.2118   53.3566 H   0  0  0  0  0  0  0  0  0  0  0  0
   59.8549   25.7143   52.6333 H   0  0  0  0  0  0  0  0  0  0  0  0
   60.6350   27.8930   51.9020 C   0  0  0  0  0  0  0  0  0  0  0  0
   61.6628   28.2785   51.8316 H   0  0  0  0  0  0  0  0  0  0  0  0
   60.4700   28.1407   50.8430 H   0  0  0  0  0  0  0  0  0  0  0  0
   58.5330   30.0830   51.6150 N   0  0  0  0  0  0  0  0  0  0  0  0
   57.9580   31.1720   51.0210 C   0  0  0  0  0  0  0  0  0  0  0  0
   58.6790   31.9170   50.2340 N   0  0  0  0  0  0  0  0  0  0  0  0
   58.5990   31.9790   48.7980 C   0  0  0  0  0  0  0  0  0  0  0  0
   58.2710   33.1830   48.1440 C   0  0  0  0  0  0  0  0  0  0  0  0
   58.0577   34.0856   48.7355 H   0  0  0  0  0  0  0  0  0  0  0  0
   58.2150   33.2380   46.7510 C   0  0  0  0  0  0  0  0  0  0  0  0
   57.9408   34.1775   46.2489 H   0  0  0  0  0  0  0  0  0  0  0  0
   58.5060   32.1040   45.9950 C   0  0  0  0  0  0  0  0  0  0  0  0
   58.4550   32.1484   44.8971 H   0  0  0  0  0  0  0  0  0  0  0  0
   58.8620   30.9120   46.6280 C   0  0  0  0  0  0  0  0  0  0  0  0
   59.1036   30.0254   46.0233 H   0  0  0  0  0  0  0  0  0  0  0  0
   58.9150   30.8330   48.0340 C   0  0  0  0  0  0  0  0  0  0  0  0
   59.2960   29.6100   48.6950 N   0  0  0  0  0  0  0  0  0  0  0  0
   59.3990   29.5970   49.7340 H   0  0  0  0  0  0  0  0  0  0  0  0
   59.4240   28.0770   47.8920 S   0  0  0  0  0  0  0  0  0  0  0  0
   60.0410   27.0630   48.8130 O   0  0  0  0  0  0  0  0  0  0  0  0
   58.0460   27.6110   47.5130 O   0  0  0  0  0  0  0  0  0  0  0  0
   60.3920   28.2370   46.4060 C   0  0  0  0  0  0  0  0  0  0  0  0
   61.4452   28.4111   46.6714 H   0  0  0  0  0  0  0  0  0  0  0  0
   60.3108   27.3133   45.8143 H   0  0  0  0  0  0  0  0  0  0  0  0
   60.0179   29.0855   45.8143 H   0  0  0  0  0  0  0  0  0  0  0  0
   56.6350   31.4380   51.2280 N   0  0  0  0  0  0  0  0  0  0  0  0
   55.9320   30.6150   52.0390 C   0  0  0  0  0  0  0  0  0  0  0  0
  1  2  1  0
  2  3  1  0
  3  4  1  0
  4  5  1  0
  5  6  2  0
  5  7  1  0
  7  8  1  0
  8  9  1  0
  2 10  2  0
 10 11  1  0
 11 12  1  0
 11 13  2  0
 13 14  1  0
 14 15  1  0
 15 16  2  3
 16 17  1  0
 17 18  1  0
 17 19  1  0
 19 20  1  0
 19 21  1  0
 19 22  1  0
 22 23  1  0
 22 24  1  0
 15 25  1  0
 25 26  1  0
 26 27  2  3
 27 28  1  0
 28 29  2  0
 29 30  1  0
 29 31  1  0
 31 32  1  0
 31 33  2  0
 33 34  1  0
 33 35  1  0
 35 36  1  0
 35 37  2  0
 37 38  1  0
 38 39  1  0
 38 40  1  0
 40 41  2  0
 40 42  2  0
 40 43  1  0
 43 44  1  0
 43 45  1  0
 43 46  1  0
 26 47  1  0
 47 48  2  0
  8  3  2  0
 48 10  1  0
 48 14  1  0
 22 17  1  0
 37 28  1  0
M  CHG  4   4  -1   7  -1   9  -1  25  -1
M  END
>  <UniqueID>  (76) 
74

>  <SMILES>  (76) 
CS(=O)(=O)Nc1ccccc1N=c1nc2/c(=C/c3[n-]c(=O)[n-]c3[O-])cnn2c(=NC2CC2)[n-]1

>  <Energy>  (76) 
400.2117579080855

>  <Genealogy>  (76) 
CS(=O)(=O)Nc1ccccc1N=c1nc2c(=Cc3[n-]c(=O)[n-]c3[O-])cnn2c(=NC2CC2)[n-]1 (protonated)
CS(=O)(=O)Nc1ccccc1N=c1nc2/c(=C/c3[n-]c(=O)[n-]c3[O-])cnn2c(=NC2CC2)[n-]1 (cis-trans isomerization)
CS(=O)(=O)Nc1ccccc1N=c1nc2/c(=C/c3[n-]c(=O)[n-]c3[O-])cnn2c(=NC2CC2)[n-]1 (3D coordinates assigned)
CS(=O)(=O)Nc1ccccc1N=c1nc2/c(=C/c3[n-]c(=O)[n-]c3[O-])cnn2c(=NC2CC2)[n-]1 (nonaromatic ring conformer: 400.2117579080855 kcal/mol)

>  <smiles>  (76) 
CS(=O)(=O)Nc1ccccc1N=c1nc2c(=Cc3[nH]c(=O)[nH]c3O)cnn2c(=NC2CC2)[nH]1

>  <score_type>  (76) 
oracle

>  <origin>  (76) 
adg

>  <m_score__min__energy>  (76) 
-17.73

>  <m_primary>  (76) 
energy

$$$$
76:0
     RDKit          3D

 63 67  0  0  0  0  0  0  0  0999 V2000
   57.5900   25.9710   47.0700 C   0  0  0  0  0  0  0  0  0  0  0  0
   57.8080   26.6290   45.9160 C   0  0  0  0  0  0  0  0  0  0  0  0
   57.7220   26.1190   44.6060 C   0  0  0  0  0  0  0  0  0  0  0  0
   57.2710   24.9370   44.1460 C   0  0  0  0  0  0  0  0  0  0  0  0
   56.0180   24.2840   44.5590 C   0  0  0  0  0  0  0  0  0  0  0  0
   55.1780   24.8040   45.4750 N   0  0  0  0  0  0  0  0  0  0  0  0
   54.2250   23.8540   45.5940 C   0  0  0  0  0  0  0  0  0  0  0  0
   53.2300   23.9850   46.3560 O   0  0  0  0  0  0  0  0  0  0  0  0
   54.4170   22.7510   44.8260 N   0  0  0  0  0  0  0  0  0  0  0  0
   55.5660   23.0290   44.1860 C   0  0  0  0  0  0  0  0  0  0  0  0
   56.1920   22.1350   43.3040 O   0  0  0  0  0  0  0  0  0  0  0  0
   58.1790   27.1230   43.7650 C   0  0  0  0  0  0  0  0  0  0  0  0
   58.4650   28.2120   44.5650 C   0  0  0  0  0  0  0  0  0  0  0  0
   58.9560   29.5380   44.0620 C   0  0  0  0  0  0  0  0  0  0  0  0
   58.2320   27.9170   45.8620 N   0  0  0  0  0  0  0  0  0  0  0  0
   58.4500   28.8040   46.9690 C   0  0  0  0  0  0  0  0  0  0  0  0
   58.3100   30.1870   46.8000 C   0  0  0  0  0  0  0  0  0  0  0  0
   58.5750   31.0550   47.8580 C   0  0  0  0  0  0  0  0  0  0  0  0
   58.9840   30.5470   49.1040 C   0  0  0  0  0  0  0  0  0  0  0  0
   59.3900   31.4870   50.2050 C   0  0  0  0  0  0  0  0  0  0  0  0
   58.6630   31.1220   51.4710 C   0  0  0  0  0  0  0  0  0  0  0  0
   57.4240   31.7070   51.7750 C   0  0  0  0  0  0  0  0  0  0  0  0
   56.7100   31.3040   52.9060 C   0  0  0  0  0  0  0  0  0  0  0  0
   57.2090   30.2830   53.7350 C   0  0  0  0  0  0  0  0  0  0  0  0
   56.4460   29.8180   54.9210 C   0  0  0  0  0  0  0  0  0  0  0  0
   56.8890   30.0820   56.0730 O   0  0  0  0  0  0  0  0  0  0  0  0
   55.1480   29.1130   54.8240 C   0  0  0  0  0  0  0  0  0  0  0  0
   54.4380   28.9270   53.6980 C   0  0  0  0  0  0  0  0  0  0  0  0
   53.5770   29.9380   53.0480 C   0  0  0  0  0  0  0  0  0  0  0  0
   52.4630   30.4340   53.7470 C   0  0  0  0  0  0  0  0  0  0  0  0
   51.6160   31.3770   53.1520 C   0  0  0  0  0  0  0  0  0  0  0  0
   51.8620   31.8140   51.8470 C   0  0  0  0  0  0  0  0  0  0  0  0
   51.0160   32.7430   51.2550 O   0  0  0  0  0  0  0  0  0  0  0  0
   52.9530   31.3090   51.1330 C   0  0  0  0  0  0  0  0  0  0  0  0
   53.8040   30.3670   51.7250 C   0  0  0  0  0  0  0  0  0  0  0  0
   58.4600   29.7130   53.4390 C   0  0  0  0  0  0  0  0  0  0  0  0
   59.1800   30.1260   52.3150 C   0  0  0  0  0  0  0  0  0  0  0  0
   59.1130   29.1590   49.2750 C   0  0  0  0  0  0  0  0  0  0  0  0
   58.8340   28.2910   48.2170 C   0  0  0  0  0  0  0  0  0  0  0  0
   57.6933   26.4966   48.0308 H   0  0  0  0  0  0  0  0  0  0  0  0
   57.3086   24.9078   47.0522 H   0  0  0  0  0  0  0  0  0  0  0  0
   57.8896   24.4163   43.4002 H   0  0  0  0  0  0  0  0  0  0  0  0
   57.0490   21.6560   43.5590 H   0  0  0  0  0  0  0  0  0  0  0  0
   58.2918   27.0634   42.6724 H   0  0  0  0  0  0  0  0  0  0  0  0
   59.1967   30.1879   44.9162 H   0  0  0  0  0  0  0  0  0  0  0  0
   59.8579   29.3871   43.4506 H   0  0  0  0  0  0  0  0  0  0  0  0
   58.1734   30.0109   43.4506 H   0  0  0  0  0  0  0  0  0  0  0  0
   57.9895   30.5902   45.8280 H   0  0  0  0  0  0  0  0  0  0  0  0
   58.4639   32.1404   47.7179 H   0  0  0  0  0  0  0  0  0  0  0  0
   60.4748   31.4109   50.3704 H   0  0  0  0  0  0  0  0  0  0  0  0
   59.1335   32.5179   49.9196 H   0  0  0  0  0  0  0  0  0  0  0  0
   57.0125   32.4878   51.1185 H   0  0  0  0  0  0  0  0  0  0  0  0
   55.7525   31.7876   53.1496 H   0  0  0  0  0  0  0  0  0  0  0  0
   54.7276   28.7055   55.7553 H   0  0  0  0  0  0  0  0  0  0  0  0
   54.5030   27.9387   53.2195 H   0  0  0  0  0  0  0  0  0  0  0  0
   52.2554   30.0793   54.7673 H   0  0  0  0  0  0  0  0  0  0  0  0
   50.7564   31.7742   53.7118 H   0  0  0  0  0  0  0  0  0  0  0  0
   53.1432   31.6519   50.1052 H   0  0  0  0  0  0  0  0  0  0  0  0
   54.6526   29.9606   51.1551 H   0  0  0  0  0  0  0  0  0  0  0  0
   58.8750   28.9358   54.0976 H   0  0  0  0  0  0  0  0  0  0  0  0
   60.1552   29.6693   52.0905 H   0  0  0  0  0  0  0  0  0  0  0  0
   59.4349   28.7540   50.2457 H   0  0  0  0  0  0  0  0  0  0  0  0
   58.9155   27.2037   48.3625 H   0  0  0  0  0  0  0  0  0  0  0  0
  1  2  2  0
  2  3  1  0
  3  4  2  3
  4  5  1  0
  5  6  1  0
  6  7  1  0
  7  8  2  0
  7  9  1  0
  9 10  1  0
 10 11  1  0
  3 12  1  0
 12 13  2  0
 13 14  1  0
 13 15  1  0
 15 16  1  0
 16 17  2  0
 17 18  1  0
 18 19  2  0
 19 20  1  0
 20 21  1  0
 21 22  2  0
 22 23  1  0
 23 24  2  0
 24 25  1  0
 25 26  2  0
 25 27  1  0
 27 28  2  3
 28 29  1  0
 29 30  2  0
 30 31  1  0
 31 32  2  0
 32 33  1  0
 32 34  1  0
 34 35  2  0
 24 36  1  0
 36 37  2  0
 19 38  1  0
 38 39  2  0
 15  2  1  0
 39 16  1  0
 10  5  2  0
 37 21  1  0
 35 29  1  0
  1 40  1  0
  1 41  1  0
  4 42  1  0
 11 43  1  0
 12 44  1  0
 14 45  1  0
 14 46  1  0
 14 47  1  0
 17 48  1  0
 18 49  1  0
 20 50  1  0
 20 51  1  0
 22 52  1  0
 23 53  1  0
 27 54  1  0
 28 55  1  0
 30 56  1  0
 31 57  1  0
 34 58  1  0
 35 59  1  0
 36 60  1  0
 37 61  1  0
 38 62  1  0
 39 63  1  0
M  CHG  3   6  -1   9  -1  33  -1
M  END
>  <UniqueID>  (77) 
75

>  <SMILES>  (77) 
C=c1c(=Cc2[n-]c(=O)[n-]c2O)cc(C)n1-c1ccc(Cc2ccc(C(=O)C=Cc3ccc([O-])cc3)cc2)cc1

>  <Energy>  (77) 
150.32466272612928

>  <Genealogy>  (77) 
C=c1c(=Cc2[n-]c(=O)[n-]c2O)cc(C)n1-c1ccc(Cc2ccc(C(=O)C=Cc3ccc([O-])cc3)cc2)cc1 (protonated)
C=c1c(=Cc2[n-]c(=O)[n-]c2O)cc(C)n1-c1ccc(Cc2ccc(C(=O)C=Cc3ccc([O-])cc3)cc2)cc1 (3D coordinates assigned)
C=c1c(=Cc2[n-]c(=O)[n-]c2O)cc(C)n1-c1ccc(Cc2ccc(C(=O)C=Cc3ccc([O-])cc3)cc2)cc1 (optimized conformer: 150.32466272612928 kcal/mol)

>  <smiles>  (77) 
C=c1c(=Cc2[nH]c(=O)[nH]c2O)cc(C)n1-c1ccc(Cc2ccc(C(=O)C=Cc3ccc(O)cc3)cc2)cc1

>  <score_type>  (77) 
oracle

>  <origin>  (77) 
adg

>  <m_score__min__energy>  (77) 
-18.850000000000001

>  <m_primary>  (77) 
energy

$$$$
77:0
     RDKit          3D

 41 44  0  0  0  0  0  0  0  0999 V2000
   53.6590   26.7030   46.3770 H   0  0  0  0  0  0  0  0  0  0  0  0
   54.0220   25.9140   45.7990 N   0  0  0  0  0  0  0  0  0  0  0  0
   55.2720   25.5870   45.8210 C   0  0  0  0  0  0  0  0  0  0  0  0
   55.6970   24.3120   45.6340 N   0  0  0  0  0  0  0  0  0  0  0  0
   57.0290   24.4420   45.7380 C   0  0  0  0  0  0  0  0  0  0  0  0
   57.9900   23.4490   45.5960 C   0  0  0  0  0  0  0  0  0  0  0  0
   57.7031   22.4047   45.4030 H   0  0  0  0  0  0  0  0  0  0  0  0
   59.3420   23.8220   45.7070 C   0  0  0  0  0  0  0  0  0  0  0  0
   60.1299   23.0633   45.5900 H   0  0  0  0  0  0  0  0  0  0  0  0
   59.6940   25.1660   45.9680 C   0  0  0  0  0  0  0  0  0  0  0  0
   60.7547   25.4435   46.0568 H   0  0  0  0  0  0  0  0  0  0  0  0
   58.6970   26.1570   46.1160 C   0  0  0  0  0  0  0  0  0  0  0  0
   59.0550   27.5690   46.3750 C   0  0  0  0  0  0  0  0  0  0  0  0
   58.5800   28.1880   47.4660 C   0  0  0  0  0  0  0  0  0  0  0  0
   57.9263   27.6317   48.1539 H   0  0  0  0  0  0  0  0  0  0  0  0
   58.9150   29.6180   47.7750 C   0  0  0  0  0  0  0  0  0  0  0  0
   58.0834   30.0628   48.3413 H   0  0  0  0  0  0  0  0  0  0  0  0
   59.8467   29.6291   48.3596 H   0  0  0  0  0  0  0  0  0  0  0  0
   59.1360   30.4110   46.5540 N   0  0  2  0  0  0  0  0  0  0  0  0
   59.5190   31.3400   46.8560 H   0  0  0  0  0  0  0  0  0  0  0  0
   57.8920   30.6820   45.8670 C   0  0  0  0  0  0  0  0  0  0  0  0
   57.0680   29.7530   45.6410 O   0  0  0  0  0  0  0  0  0  0  0  0
   57.5380   32.0470   45.5840 N   0  0  0  0  0  0  0  0  0  0  0  0
   58.2170   33.1360   45.8170 C   0  0  0  0  0  0  0  0  0  0  0  0
   58.6970   33.3320   47.0780 N   0  0  0  0  0  0  0  0  0  0  0  0
   59.3990   34.4440   47.4270 C   0  0  0  0  0  0  0  0  0  0  0  0
   59.7629   34.5641   48.4581 H   0  0  0  0  0  0  0  0  0  0  0  0
   59.6570   35.4320   46.4760 C   0  0  0  0  0  0  0  0  0  0  0  0
   60.2065   36.3431   46.7553 H   0  0  0  0  0  0  0  0  0  0  0  0
   59.2100   35.2510   45.1670 C   0  0  0  0  0  0  0  0  0  0  0  0
   59.4270   36.0117   44.4026 H   0  0  0  0  0  0  0  0  0  0  0  0
   58.4870   34.1050   44.8250 C   0  0  0  0  0  0  0  0  0  0  0  0
   58.1319   33.9590   43.7942 H   0  0  0  0  0  0  0  0  0  0  0  0
   60.1690   29.7890   45.6970 C   0  0  0  0  0  0  0  0  0  0  0  0
   60.2349   30.3626   44.7607 H   0  0  0  0  0  0  0  0  0  0  0  0
   61.1104   29.8043   46.2659 H   0  0  0  0  0  0  0  0  0  0  0  0
   59.8780   28.3120   45.3450 C   0  0  0  0  0  0  0  0  0  0  0  0
   59.3343   28.2879   44.3891 H   0  0  0  0  0  0  0  0  0  0  0  0
   60.8529   27.8045   45.3000 H   0  0  0  0  0  0  0  0  0  0  0  0
   57.3610   25.7430   45.9860 C   0  0  0  0  0  0  0  0  0  0  0  0
   56.2550   26.4970   46.0370 N   0  0  0  0  0  0  0  0  0  0  0  0
  1  2  1  0
  2  3  2  0
  3  4  1  0
  4  5  1  0
  5  6  2  0
  6  7  1  0
  6  8  1  0
  8  9  1  0
  8 10  2  0
 10 11  1  0
 10 12  1  0
 12 13  1  0
 13 14  2  0
 14 15  1  0
 14 16  1  0
 16 17  1  0
 16 18  1  0
 16 19  1  0
 19 20  1  1
 19 21  1  0
 21 22  2  0
 21 23  1  0
 23 24  2  0
 24 25  1  0
 25 26  1  0
 26 27  1  0
 26 28  2  0
 28 29  1  0
 28 30  1  0
 30 31  1  0
 30 32  2  0
 32 33  1  0
 19 34  1  0
 34 35  1  0
 34 36  1  0
 34 37  1  0
 37 38  1  0
 37 39  1  0
 12 40  2  0
 40 41  1  0
 41  3  1  0
 40  5  1  0
 37 13  1  0
 32 24  1  0
M  CHG  4   4  -1  19   1  25  -1  41  -1
M  END
>  <UniqueID>  (78) 
76

>  <SMILES>  (78) 
[H]/N=c1\[n-]c2cccc(C3=CC[N@H+](C(=O)/N=c4\cccc[n-]4)CC3)c2[n-]1

>  <Energy>  (78) 
101.0996189135517

>  <Genealogy>  (78) 
N=c1[n-]c2cccc(C3=CC[NH+](C(=O)N=c4cccc[n-]4)CC3)c2[n-]1 (protonated)
N=c1[n-]c2cccc(C3=CC[N@H+](C(=O)N=c4cccc[n-]4)CC3)c2[n-]1 (chirality)
[H]/N=c1\[n-]c2cccc(C3=CC[N@H+](C(=O)/N=c4\cccc[n-]4)CC3)c2[n-]1 (cis-trans isomerization)
[H]/N=c1\[n-]c2cccc(C3=CC[N@H+](C(=O)/N=c4\cccc[n-]4)CC3)c2[n-]1 (3D coordinates assigned)
[H]/N=c1\[n-]c2cccc(C3=CC[N@H+](C(=O)/N=c4\cccc[n-]4)CC3)c2[n-]1 (nonaromatic ring conformer: 101.0996189135517 kcal/mol)

>  <smiles>  (78) 
N=c1[nH]c2cccc(C3=CCN(C(=O)N=c4cccc[nH]4)CC3)c2[nH]1

>  <score_type>  (78) 
oracle

>  <origin>  (78) 
adg

>  <m_score__min__energy>  (78) 
-11.6

>  <m_primary>  (78) 
energy

$$$$
78:0
     RDKit          3D

 53 56  0  0  0  0  0  0  0  0999 V2000
   58.3850   29.5120   43.3740 H   0  0  0  0  0  0  0  0  0  0  0  0
   58.0480   29.0220   44.1910 O   0  0  0  0  0  0  0  0  0  0  0  0
   58.5110   29.2740   45.4850 C   0  0  0  0  0  0  0  0  0  0  0  0
   58.4260   28.2770   46.4850 C   0  0  0  0  0  0  0  0  0  0  0  0
   57.6530   27.0310   46.2760 C   0  0  0  0  0  0  0  0  0  0  0  0
   58.2970   25.7810   46.3080 C   0  0  0  0  0  0  0  0  0  0  0  0
   59.3827   25.7276   46.4768 H   0  0  0  0  0  0  0  0  0  0  0  0
   57.5620   24.6070   46.1260 C   0  0  0  0  0  0  0  0  0  0  0  0
   58.0711   23.6321   46.1472 H   0  0  0  0  0  0  0  0  0  0  0  0
   56.1810   24.6680   45.9170 C   0  0  0  0  0  0  0  0  0  0  0  0
   55.6057   23.7418   45.7714 H   0  0  0  0  0  0  0  0  0  0  0  0
   55.5310   25.9050   45.8930 C   0  0  0  0  0  0  0  0  0  0  0  0
   54.1580   25.9650   45.6910 O   0  0  0  0  0  0  0  0  0  0  0  0
   56.2620   27.0840   46.0780 C   0  0  0  0  0  0  0  0  0  0  0  0
   55.7464   28.0557   46.0685 H   0  0  0  0  0  0  0  0  0  0  0  0
   59.0770   28.4730   47.7080 C   0  0  0  0  0  0  0  0  0  0  0  0
   59.0421   27.6916   48.4815 H   0  0  0  0  0  0  0  0  0  0  0  0
   59.7710   29.6610   47.9460 C   0  0  0  0  0  0  0  0  0  0  0  0
   60.4980   29.8430   49.2220 C   0  0  0  0  0  0  0  0  0  0  0  0
   59.9343   29.6782   50.1521 H   0  0  0  0  0  0  0  0  0  0  0  0
   61.7900   30.1930   49.3380 C   0  0  0  0  0  0  0  0  0  0  0  0
   62.4672   29.4737   49.8217 H   0  0  0  0  0  0  0  0  0  0  0  0
   62.3750   31.4670   48.8680 C   0  0  0  0  0  0  0  0  0  0  0  0
   62.5730   31.6660   47.4920 C   0  0  0  0  0  0  0  0  0  0  0  0
   62.2715   30.8869   46.7764 H   0  0  0  0  0  0  0  0  0  0  0  0
   63.1520   32.8510   47.0290 C   0  0  0  0  0  0  0  0  0  0  0  0
   63.2894   33.0090   45.9491 H   0  0  0  0  0  0  0  0  0  0  0  0
   63.5570   33.8360   47.9350 C   0  0  0  0  0  0  0  0  0  0  0  0
   64.0053   34.7709   47.5676 H   0  0  0  0  0  0  0  0  0  0  0  0
   63.3920   33.6320   49.3060 C   0  0  0  0  0  0  0  0  0  0  0  0
   63.7163   34.4044   50.0189 H   0  0  0  0  0  0  0  0  0  0  0  0
   62.8150   32.4470   49.7750 C   0  0  0  0  0  0  0  0  0  0  0  0
   62.7052   32.2815   50.8569 H   0  0  0  0  0  0  0  0  0  0  0  0
   59.7990   30.6210   46.9850 N   0  0  0  0  0  0  0  0  0  0  0  0
   59.1620   30.4970   45.7910 C   0  0  0  0  0  0  0  0  0  0  0  0
   59.2150   31.5140   44.9740 N   0  0  0  0  0  0  0  0  0  0  0  0
   58.2490   32.5530   44.7780 C   0  0  0  0  0  0  0  0  0  0  0  0
   57.7480   32.7180   43.6350 O   0  0  0  0  0  0  0  0  0  0  0  0
   57.9090   33.4290   45.8630 N   0  0  0  0  0  0  0  0  0  0  0  0
   58.5380   33.5050   47.1540 C   0  0  0  0  0  0  0  0  0  0  0  0
   58.1370   32.6750   48.2180 C   0  0  0  0  0  0  0  0  0  0  0  0
   57.3333   31.9398   48.0646 H   0  0  0  0  0  0  0  0  0  0  0  0
   58.7530   32.7790   49.4670 C   0  0  0  0  0  0  0  0  0  0  0  0
   58.4392   32.1203   50.2902 H   0  0  0  0  0  0  0  0  0  0  0  0
   59.7650   33.7160   49.6730 C   0  0  0  0  0  0  0  0  0  0  0  0
   60.2562   33.7875   50.6546 H   0  0  0  0  0  0  0  0  0  0  0  0
   60.1550   34.5630   48.6350 C   0  0  0  0  0  0  0  0  0  0  0  0
   60.9518   35.3024   48.8035 H   0  0  0  0  0  0  0  0  0  0  0  0
   59.5370   34.4780   47.3760 C   0  0  0  0  0  0  0  0  0  0  0  0
   59.9780   35.3910   46.2640 C   0  0  0  0  0  0  0  0  0  0  0  0
   60.4188   36.3035   46.6918 H   0  0  0  0  0  0  0  0  0  0  0  0
   60.7275   34.8778   45.6437 H   0  0  0  0  0  0  0  0  0  0  0  0
   59.1101   35.6591   45.6437 H   0  0  0  0  0  0  0  0  0  0  0  0
  1  2  1  0
  2  3  1  0
  3  4  2  0
  4  5  1  0
  5  6  2  0
  6  7  1  0
  6  8  1  0
  8  9  1  0
  8 10  2  0
 10 11  1  0
 10 12  1  0
 12 13  1  0
 12 14  2  0
 14 15  1  0
  4 16  1  0
 16 17  1  0
 16 18  2  0
 18 19  1  0
 19 20  1  0
 19 21  2  0
 21 22  1  0
 21 23  1  0
 23 24  2  0
 24 25  1  0
 24 26  1  0
 26 27  1  0
 26 28  2  0
 28 29  1  0
 28 30  1  0
 30 31  1  0
 30 32  2  0
 32 33  1  0
 18 34  1  0
 34 35  1  0
 35 36  2  0
 36 37  1  0
 37 38  2  0
 37 39  1  0
 39 40  1  0
 40 41  2  0
 41 42  1  0
 41 43  1  0
 43 44  1  0
 43 45  2  0
 45 46  1  0
 45 47  1  0
 47 48  1  0
 47 49  2  0
 49 50  1  0
 50 51  1  0
 50 52  1  0
 50 53  1  0
 35  3  1  0
 49 40  1  0
 14  5  1  0
 32 23  1  0
M  CHG  3  13  -1  34  -1  39  -1
M  END
>  <UniqueID>  (79) 
77

>  <SMILES>  (79) 
Cc1ccccc1[N-]C(=O)/N=c1/[n-]c(/C=C\c2ccccc2)cc(-c2cccc([O-])c2)c1O

>  <Energy>  (79) 
88.1108915410127

>  <Genealogy>  (79) 
Cc1ccccc1[N-]C(=O)N=c1[n-]c(C=Cc2ccccc2)cc(-c2cccc([O-])c2)c1O (protonated)
Cc1ccccc1[N-]C(=O)/N=c1/[n-]c(/C=C\c2ccccc2)cc(-c2cccc([O-])c2)c1O (cis-trans isomerization)
Cc1ccccc1[N-]C(=O)/N=c1/[n-]c(/C=C\c2ccccc2)cc(-c2cccc([O-])c2)c1O (3D coordinates assigned)
Cc1ccccc1[N-]C(=O)/N=c1/[n-]c(/C=C\c2ccccc2)cc(-c2cccc([O-])c2)c1O (optimized conformer: 88.1108915410127 kcal/mol)

>  <smiles>  (79) 
Cc1ccccc1NC(=O)N=c1[nH]c(C=Cc2ccccc2)cc(-c2cccc(O)c2)c1O

>  <score_type>  (79) 
oracle

>  <origin>  (79) 
adg

>  <m_score__min__energy>  (79) 
-13.380000000000001

>  <m_primary>  (79) 
energy

$$$$
79:0
     RDKit          3D

 35 37  0  0  0  0  0  0  0  0999 V2000
   58.7790   27.2300   44.5710 O   0  0  0  0  0  0  0  0  0  0  0  0
   57.7320   27.3480   45.2630 C   0  0  0  0  0  0  0  0  0  0  0  0
   57.0690   28.6130   45.3740 N   0  0  0  0  0  0  0  0  0  0  0  0
   57.3320   29.8030   44.6150 C   0  0  0  0  0  0  0  0  0  0  0  0
   56.7270   30.0300   43.3650 C   0  0  0  0  0  0  0  0  0  0  0  0
   56.9610   31.2230   42.6750 C   0  0  0  0  0  0  0  0  0  0  0  0
   57.7840   32.2040   43.2290 C   0  0  0  0  0  0  0  0  0  0  0  0
   58.3700   32.0000   44.4800 C   0  0  0  0  0  0  0  0  0  0  0  0
   58.1490   30.8030   45.1790 C   0  0  0  0  0  0  0  0  0  0  0  0
   58.7530   30.6050   46.4670 N   0  0  0  0  0  0  0  0  0  0  0  0
   58.5250   31.5840   47.5330 C   0  0  0  0  0  0  0  0  0  0  0  0
   59.0310   31.0350   48.8670 C   0  0  0  0  0  0  0  0  0  0  0  0
   58.7160   29.6630   48.9570 O   0  0  0  0  0  0  0  0  0  0  0  0
   59.5570   28.9070   48.0980 C   0  0  0  0  0  0  0  0  0  0  0  0
   59.6990   29.5030   46.6770 C   0  0  0  0  0  0  0  0  0  0  0  0
   57.2140   26.1950   46.0140 C   0  0  0  0  0  0  0  0  0  0  0  0
   57.9590   25.1580   46.5350 C   0  0  0  0  0  0  0  0  0  0  0  0
   57.0460   24.3190   47.1400 C   0  0  0  0  0  0  0  0  0  0  0  0
   57.3750   23.1390   47.7940 O   0  0  0  0  0  0  0  0  0  0  0  0
   55.7820   24.7710   47.0270 N   0  0  0  0  0  0  0  0  0  0  0  0
   55.8970   25.9210   46.3340 C   0  0  0  0  0  0  0  0  0  0  0  0
   54.8080   26.7150   45.9960 O   0  0  0  0  0  0  0  0  0  0  0  0
   56.0672   29.2655   42.9290 H   0  0  0  0  0  0  0  0  0  0  0  0
   56.4950   31.3888   41.6925 H   0  0  0  0  0  0  0  0  0  0  0  0
   57.9714   33.1386   42.6800 H   0  0  0  0  0  0  0  0  0  0  0  0
   59.0078   32.7810   44.9197 H   0  0  0  0  0  0  0  0  0  0  0  0
   59.0628   32.5135   47.2945 H   0  0  0  0  0  0  0  0  0  0  0  0
   57.4465   31.7856   47.6123 H   0  0  0  0  0  0  0  0  0  0  0  0
   60.1214   31.1663   48.9283 H   0  0  0  0  0  0  0  0  0  0  0  0
   58.5509   31.5780   49.6944 H   0  0  0  0  0  0  0  0  0  0  0  0
   60.5573   28.8526   48.5524 H   0  0  0  0  0  0  0  0  0  0  0  0
   59.0907   27.9172   47.9843 H   0  0  0  0  0  0  0  0  0  0  0  0
   60.7240   29.8803   46.5469 H   0  0  0  0  0  0  0  0  0  0  0  0
   59.4810   28.7122   45.9441 H   0  0  0  0  0  0  0  0  0  0  0  0
   59.0498   25.0275   46.4799 H   0  0  0  0  0  0  0  0  0  0  0  0
  1  2  2  0
  2  3  1  0
  3  4  1  0
  4  5  2  0
  5  6  1  0
  6  7  2  0
  7  8  1  0
  8  9  2  0
  9 10  1  0
 10 11  1  0
 11 12  1  0
 12 13  1  0
 13 14  1  0
 14 15  1  0
  2 16  1  0
 16 17  1  0
 17 18  2  0
 18 19  1  0
 18 20  1  0
 20 21  1  0
 21 22  1  0
  9  4  1  0
 15 10  1  0
 21 16  2  0
  5 23  1  0
  6 24  1  0
  7 25  1  0
  8 26  1  0
 11 27  1  0
 11 28  1  0
 12 29  1  0
 12 30  1  0
 14 31  1  0
 14 32  1  0
 15 33  1  0
 15 34  1  0
 17 35  1  0
M  CHG  4   3  -1  19  -1  20  -1  22  -1
M  END
>  <UniqueID>  (80) 
78

>  <SMILES>  (80) 
O=C([N-]c1ccccc1N1CCOCC1)c1cc([O-])[n-]c1[O-]

>  <Energy>  (80) 
76.7488221665354

>  <Genealogy>  (80) 
O=C([N-]c1ccccc1N1CCOCC1)c1cc([O-])[n-]c1[O-] (protonated)
O=C([N-]c1ccccc1N1CCOCC1)c1cc([O-])[n-]c1[O-] (3D coordinates assigned)
O=C([N-]c1ccccc1N1CCOCC1)c1cc([O-])[n-]c1[O-] (nonaromatic ring conformer: 76.7488221665354 kcal/mol)

>  <smiles>  (80) 
O=C(Nc1ccccc1N1CCOCC1)c1cc(O)[nH]c1O

>  <score_type>  (80) 
oracle

>  <origin>  (80) 
adg

>  <m_score__min__energy>  (80) 
-15.77

>  <m_primary>  (80) 
energy

$$$$
80:0
     RDKit          3D

 58 62  0  0  0  0  0  0  0  0999 V2000
   54.8060   29.3470   44.8950 O   0  0  0  0  0  0  0  0  0  0  0  0
   56.1600   29.0360   44.9410 C   0  0  0  0  0  0  0  0  0  0  0  0
   56.6190   27.7730   45.0430 N   0  0  0  0  0  0  0  0  0  0  0  0
   57.9630   27.8860   45.0460 C   0  0  0  0  0  0  0  0  0  0  0  0
   58.8840   26.7230   45.2680 C   0  0  0  0  0  0  0  0  0  0  0  0
   59.2630   26.5790   46.7500 C   0  0  0  0  0  0  0  0  0  0  0  0
   59.5250   27.9180   47.3950 C   0  0  0  0  0  0  0  0  0  0  0  0
   58.5310   28.5370   48.1700 C   0  0  0  0  0  0  0  0  0  0  0  0
   58.7570   29.8010   48.7250 C   0  0  0  0  0  0  0  0  0  0  0  0
   59.9700   30.4570   48.5060 C   0  0  0  0  0  0  0  0  0  0  0  0
   60.9620   29.8510   47.7280 C   0  0  0  0  0  0  0  0  0  0  0  0
   60.7420   28.5870   47.1740 C   0  0  0  0  0  0  0  0  0  0  0  0
   58.3440   29.2100   44.9500 C   0  0  0  0  0  0  0  0  0  0  0  0
   59.6580   29.6680   44.8970 O   0  0  0  0  0  0  0  0  0  0  0  0
   57.1870   29.9630   44.9040 C   0  0  0  0  0  0  0  0  0  0  0  0
   57.0440   31.4680   44.8840 C   0  0  0  0  0  0  0  0  0  0  0  0
   57.9530   32.1720   45.8180 N   0  0  0  0  0  0  0  0  0  0  0  0
   57.2700   33.1430   46.6890 C   0  0  0  0  0  0  0  0  0  0  0  0
   58.1780   33.4660   47.8790 C   0  0  0  0  0  0  0  0  0  0  0  0
   59.5850   33.5930   47.4640 N   0  0  0  0  0  0  0  0  0  0  0  0
   60.6480   33.6300   48.4480 C   0  0  0  0  0  0  0  0  0  0  0  0
   60.3920   33.9480   49.7970 C   0  0  0  0  0  0  0  0  0  0  0  0
   61.4390   33.9660   50.7200 C   0  0  0  0  0  0  0  0  0  0  0  0
   62.7410   33.6680   50.3040 C   0  0  0  0  0  0  0  0  0  0  0  0
   63.8170   33.6780   51.2060 C   0  0  0  0  0  0  0  0  0  0  0  0
   65.1060   33.3750   50.7560 C   0  0  0  0  0  0  0  0  0  0  0  0
   65.3280   33.0620   49.4110 C   0  0  0  0  0  0  0  0  0  0  0  0
   64.2600   33.0520   48.5060 C   0  0  0  0  0  0  0  0  0  0  0  0
   62.9670   33.3540   48.9470 C   0  0  0  0  0  0  0  0  0  0  0  0
   61.9270   33.3440   48.0710 N   0  0  0  0  0  0  0  0  0  0  0  0
   59.8800   33.7860   46.0370 C   0  0  0  0  0  0  0  0  0  0  0  0
   59.1590   32.7370   45.1660 C   0  0  0  0  0  0  0  0  0  0  0  0
   58.3827   25.8018   44.9362 H   0  0  0  0  0  0  0  0  0  0  0  0
   59.8047   26.8974   44.6919 H   0  0  0  0  0  0  0  0  0  0  0  0
   58.4376   26.0832   47.2819 H   0  0  0  0  0  0  0  0  0  0  0  0
   60.1865   25.9844   46.8102 H   0  0  0  0  0  0  0  0  0  0  0  0
   57.5718   28.0264   48.3412 H   0  0  0  0  0  0  0  0  0  0  0  0
   57.9771   30.2794   49.3356 H   0  0  0  0  0  0  0  0  0  0  0  0
   60.1454   31.4501   48.9452 H   0  0  0  0  0  0  0  0  0  0  0  0
   61.9159   30.3697   47.5521 H   0  0  0  0  0  0  0  0  0  0  0  0
   61.5241   28.1134   46.5625 H   0  0  0  0  0  0  0  0  0  0  0  0
   59.8950   30.6270   45.1120 H   0  0  0  0  0  0  0  0  0  0  0  0
   57.2543   31.8219   43.8639 H   0  0  0  0  0  0  0  0  0  0  0  0
   56.0174   31.6945   45.2077 H   0  0  0  0  0  0  0  0  0  0  0  0
   57.0609   34.0631   46.1236 H   0  0  0  0  0  0  0  0  0  0  0  0
   56.3211   32.7183   47.0486 H   0  0  0  0  0  0  0  0  0  0  0  0
   57.8515   34.4142   48.3310 H   0  0  0  0  0  0  0  0  0  0  0  0
   58.1045   32.6416   48.6036 H   0  0  0  0  0  0  0  0  0  0  0  0
   59.3676   34.1819   50.1223 H   0  0  0  0  0  0  0  0  0  0  0  0
   61.2406   34.2142   51.7731 H   0  0  0  0  0  0  0  0  0  0  0  0
   63.6464   33.9237   52.2646 H   0  0  0  0  0  0  0  0  0  0  0  0
   65.9488   33.3829   51.4628 H   0  0  0  0  0  0  0  0  0  0  0  0
   66.3440   32.8232   49.0636 H   0  0  0  0  0  0  0  0  0  0  0  0
   64.4373   32.8068   47.4484 H   0  0  0  0  0  0  0  0  0  0  0  0
   59.5480   34.7905   45.7357 H   0  0  0  0  0  0  0  0  0  0  0  0
   60.9641   33.6723   45.8893 H   0  0  0  0  0  0  0  0  0  0  0  0
   58.8562   33.2137   44.2220 H   0  0  0  0  0  0  0  0  0  0  0  0
   59.8623   31.9076   45.0004 H   0  0  0  0  0  0  0  0  0  0  0  0
  1  2  1  0
  2  3  1  0
  3  4  1  0
  4  5  1  0
  5  6  1  0
  6  7  1  0
  7  8  2  0
  8  9  1  0
  9 10  2  0
 10 11  1  0
 11 12  2  0
  4 13  2  0
 13 14  1  0
 13 15  1  0
 15 16  1  0
 16 17  1  0
 17 18  1  0
 18 19  1  0
 19 20  1  0
 20 21  1  0
 21 22  2  0
 22 23  1  0
 23 24  2  0
 24 25  1  0
 25 26  2  0
 26 27  1  0
 27 28  2  0
 28 29  1  0
 29 30  2  0
 20 31  1  0
 31 32  1  0
 15  2  2  0
 32 17  1  0
 12  7  1  0
 30 21  1  0
 29 24  1  0
  5 33  1  0
  5 34  1  0
  6 35  1  0
  6 36  1  0
  8 37  1  0
  9 38  1  0
 10 39  1  0
 11 40  1  0
 12 41  1  0
 14 42  1  0
 16 43  1  0
 16 44  1  0
 18 45  1  0
 18 46  1  0
 19 47  1  0
 19 48  1  0
 22 49  1  0
 23 50  1  0
 25 51  1  0
 26 52  1  0
 27 53  1  0
 28 54  1  0
 31 55  1  0
 31 56  1  0
 32 57  1  0
 32 58  1  0
M  CHG  2   1  -1   3  -1
M  END
>  <UniqueID>  (81) 
79

>  <SMILES>  (81) 
[O-]c1[n-]c(CCc2ccccc2)c(O)c1CN1CCN(c2ccc3ccccc3n2)CC1

>  <Energy>  (81) 
98.92834880201312

>  <Genealogy>  (81) 
[O-]c1[n-]c(CCc2ccccc2)c(O)c1CN1CCN(c2ccc3ccccc3n2)CC1 (protonated)
[O-]c1[n-]c(CCc2ccccc2)c(O)c1CN1CCN(c2ccc3ccccc3n2)CC1 (3D coordinates assigned)
[O-]c1[n-]c(CCc2ccccc2)c(O)c1CN1CCN(c2ccc3ccccc3n2)CC1 (nonaromatic ring conformer: 98.92834880201312 kcal/mol)

>  <smiles>  (81) 
Oc1[nH]c(CCc2ccccc2)c(O)c1CN1CCN(c2ccc3ccccc3n2)CC1

>  <score_type>  (81) 
oracle

>  <origin>  (81) 
adg

>  <m_score__min__energy>  (81) 
-13.800000000000001

>  <m_primary>  (81) 
energy

$$$$
81:0
     RDKit          3D

 50 52  0  0  0  0  0  0  0  0999 V2000
   60.3080   29.0450   48.7580 C   0  0  0  0  0  0  0  0  0  0  0  0
   59.6940   28.4640   47.5710 N   0  0  0  0  0  0  0  0  0  0  0  0
   58.4660   27.9160   47.5090 C   0  0  0  0  0  0  0  0  0  0  0  0
   58.2860   27.4370   46.2300 C   0  0  0  0  0  0  0  0  0  0  0  0
   57.0610   26.8000   45.6630 C   0  0  0  0  0  0  0  0  0  0  0  0
   55.9900   27.7870   45.5940 N   0  0  0  0  0  0  0  0  0  0  0  0
   56.0180   28.9620   44.7770 C   0  0  0  0  0  0  0  0  0  0  0  0
   55.1550   29.8590   44.9800 O   0  0  0  0  0  0  0  0  0  0  0  0
   57.0960   29.1870   43.7440 C   0  0  0  0  0  0  0  0  0  0  0  0
   57.0750   30.6040   43.1560 C   0  0  0  0  0  0  0  0  0  0  0  0
   57.8080   31.5880   44.0320 C   0  0  0  0  0  0  0  0  0  0  0  0
   57.7850   32.9580   43.7310 C   0  0  0  0  0  0  0  0  0  0  0  0
   58.4490   33.8740   44.5540 C   0  0  0  0  0  0  0  0  0  0  0  0
   59.1420   33.4280   45.6880 C   0  0  0  0  0  0  0  0  0  0  0  0
   59.9640   34.5650   46.7510 S   0  0  0  0  0  0  0  0  0  0  0  0
   59.6480   35.9870   46.3730 O   0  0  0  0  0  0  0  0  0  0  0  0
   61.4470   34.3480   46.6310 O   0  0  0  0  0  0  0  0  0  0  0  0
   59.4770   34.2880   48.3920 N   0  0  0  0  0  0  0  0  0  0  0  0
   59.3330   32.9980   48.9990 C   0  0  0  0  0  0  0  0  0  0  0  0
   58.1940   32.4570   48.9980 O   0  0  0  0  0  0  0  0  0  0  0  0
   60.4750   32.3090   49.6990 C   0  0  0  0  0  0  0  0  0  0  0  0
   61.7620   32.4890   48.9480 C   0  0  0  0  0  0  0  0  0  0  0  0
   62.1520   31.6570   47.8870 C   0  0  0  0  0  0  0  0  0  0  0  0
   63.3810   31.9920   47.3400 C   0  0  0  0  0  0  0  0  0  0  0  0
   63.9790   33.3130   48.1850 S   0  0  0  0  0  0  0  0  0  0  0  0
   62.6920   33.4760   49.2520 C   0  0  0  0  0  0  0  0  0  0  0  0
   59.1640   32.0610   45.9920 C   0  0  0  0  0  0  0  0  0  0  0  0
   58.5000   31.1460   45.1710 C   0  0  0  0  0  0  0  0  0  0  0  0
   59.4560   27.7360   45.5570 C   0  0  0  0  0  0  0  0  0  0  0  0
   60.3030   28.3550   46.4010 N   0  0  0  0  0  0  0  0  0  0  0  0
   59.8489   28.6106   49.6583 H   0  0  0  0  0  0  0  0  0  0  0  0
   61.3866   28.8291   48.7559 H   0  0  0  0  0  0  0  0  0  0  0  0
   60.1520   30.1339   48.7559 H   0  0  0  0  0  0  0  0  0  0  0  0
   57.7376   27.8607   48.3314 H   0  0  0  0  0  0  0  0  0  0  0  0
   57.2777   26.4223   44.6529 H   0  0  0  0  0  0  0  0  0  0  0  0
   56.7497   25.9642   46.3069 H   0  0  0  0  0  0  0  0  0  0  0  0
   58.0750   29.0177   44.2161 H   0  0  0  0  0  0  0  0  0  0  0  0
   56.9122   28.4846   42.9176 H   0  0  0  0  0  0  0  0  0  0  0  0
   57.5531   30.5850   42.1655 H   0  0  0  0  0  0  0  0  0  0  0  0
   56.0261   30.9274   43.0843 H   0  0  0  0  0  0  0  0  0  0  0  0
   57.2419   33.3139   42.8431 H   0  0  0  0  0  0  0  0  0  0  0  0
   58.4272   34.9465   44.3107 H   0  0  0  0  0  0  0  0  0  0  0  0
   60.5860   32.7339   50.7075 H   0  0  0  0  0  0  0  0  0  0  0  0
   60.2515   31.2333   49.7528 H   0  0  0  0  0  0  0  0  0  0  0  0
   61.5401   30.8182   47.5237 H   0  0  0  0  0  0  0  0  0  0  0  0
   63.8766   31.4822   46.5006 H   0  0  0  0  0  0  0  0  0  0  0  0
   62.6015   34.2291   50.0487 H   0  0  0  0  0  0  0  0  0  0  0  0
   59.7063   31.7063   46.8808 H   0  0  0  0  0  0  0  0  0  0  0  0
   58.5195   30.0743   45.4181 H   0  0  0  0  0  0  0  0  0  0  0  0
   59.6619   27.5052   44.5014 H   0  0  0  0  0  0  0  0  0  0  0  0
  1  2  1  0
  2  3  1  0
  3  4  2  0
  4  5  1  0
  5  6  1  0
  6  7  1  0
  7  8  2  0
  7  9  1  0
  9 10  1  0
 10 11  1  0
 11 12  2  0
 12 13  1  0
 13 14  2  0
 14 15  1  0
 15 16  2  0
 15 17  2  0
 15 18  1  0
 18 19  1  0
 19 20  2  0
 19 21  1  0
 21 22  1  0
 22 23  1  0
 23 24  2  0
 24 25  1  0
 25 26  1  0
 14 27  1  0
 27 28  2  0
  4 29  1  0
 29 30  2  0
 30  2  1  0
 28 11  1  0
 26 22  2  0
  1 31  1  0
  1 32  1  0
  1 33  1  0
  3 34  1  0
  5 35  1  0
  5 36  1  0
  9 37  1  0
  9 38  1  0
 10 39  1  0
 10 40  1  0
 12 41  1  0
 13 42  1  0
 21 43  1  0
 21 44  1  0
 23 45  1  0
 24 46  1  0
 26 47  1  0
 27 48  1  0
 28 49  1  0
 29 50  1  0
M  CHG  2   6  -1  18  -1
M  END
>  <UniqueID>  (82) 
80

>  <SMILES>  (82) 
Cn1cc(C[N-]C(=O)CCc2ccc(S(=O)(=O)[N-]C(=O)Cc3ccsc3)cc2)cn1

>  <Energy>  (82) 
99.83427157908581

>  <Genealogy>  (82) 
Cn1cc(C[N-]C(=O)CCc2ccc(S(=O)(=O)[N-]C(=O)Cc3ccsc3)cc2)cn1 (protonated)
Cn1cc(C[N-]C(=O)CCc2ccc(S(=O)(=O)[N-]C(=O)Cc3ccsc3)cc2)cn1 (3D coordinates assigned)
Cn1cc(C[N-]C(=O)CCc2ccc(S(=O)(=O)[N-]C(=O)Cc3ccsc3)cc2)cn1 (optimized conformer: 99.83427157908581 kcal/mol)

>  <smiles>  (82) 
Cn1cc(CNC(=O)CCc2ccc(S(=O)(=O)NC(=O)Cc3ccsc3)cc2)cn1

>  <score_type>  (82) 
oracle

>  <origin>  (82) 
adg

>  <m_score__min__energy>  (82) 
-11.85

>  <m_primary>  (82) 
energy

$$$$
82:0
     RDKit          3D

 69 70  0  0  0  0  0  0  0  0999 V2000
   57.0595   25.2939   47.7690 H   0  0  0  0  0  0  0  0  0  0  0  0
   57.2990   25.7140   46.7810 C   0  0  0  0  0  0  0  0  0  0  0  0
   58.4720   31.0080   46.3920 C   0  0  0  0  0  0  0  0  0  0  0  0
   57.6079   30.5560   46.9008 H   0  0  0  0  0  0  0  0  0  0  0  0
   58.7880   32.4150   46.7540 C   0  0  0  0  0  0  0  0  0  0  0  0
   59.7610   32.6130   47.6920 C   0  0  0  0  0  0  0  0  0  0  0  0
   60.0810   31.5300   48.7080 C   0  0  0  0  0  0  0  0  0  0  0  0
   59.9617   31.9338   49.7242 H   0  0  0  0  0  0  0  0  0  0  0  0
   59.3952   30.6815   48.5677 H   0  0  0  0  0  0  0  0  0  0  0  0
   61.1179   31.1905   48.5677 H   0  0  0  0  0  0  0  0  0  0  0  0
   60.5470   33.9220   47.7960 C   0  0  1  0  0  0  0  0  0  0  0  0
   60.1168   34.4682   48.6484 H   0  0  0  0  0  0  0  0  0  0  0  0
   61.9740   33.6580   48.0280 N   0  0  0  0  0  0  0  0  0  0  0  0
   62.6500   33.8530   49.1740 C   0  0  0  0  0  0  0  0  0  0  0  0
   62.1889   34.2273   50.0999 H   0  0  0  0  0  0  0  0  0  0  0  0
   63.9580   33.5380   49.0610 N   0  0  0  0  0  0  0  0  0  0  0  0
   64.0980   33.1290   47.7830 C   0  0  0  0  0  0  0  0  0  0  0  0
   65.0360   32.7795   47.3269 H   0  0  0  0  0  0  0  0  0  0  0  0
   62.8840   33.2170   47.1380 C   0  0  0  0  0  0  0  0  0  0  0  0
   62.6918   32.9708   46.0833 H   0  0  0  0  0  0  0  0  0  0  0  0
   60.4090   34.7930   46.5440 C   0  0  0  0  0  0  0  0  0  0  0  0
   60.8218   35.7926   46.7450 H   0  0  0  0  0  0  0  0  0  0  0  0
   60.9600   34.3304   45.7119 H   0  0  0  0  0  0  0  0  0  0  0  0
   58.9390   34.9160   46.1740 C   0  0  0  0  0  0  0  0  0  0  0  0
   58.3851   35.3169   47.0357 H   0  0  0  0  0  0  0  0  0  0  0  0
   58.8544   35.5899   45.3087 H   0  0  0  0  0  0  0  0  0  0  0  0
   58.3380   33.5400   45.7830 C   0  0  0  0  0  0  0  0  0  0  0  0
   56.7970   33.7030   45.8130 C   0  0  0  0  0  0  0  0  0  0  0  0
   56.4524   33.7394   46.8570 H   0  0  0  0  0  0  0  0  0  0  0  0
   56.5169   34.6358   45.3016 H   0  0  0  0  0  0  0  0  0  0  0  0
   56.3280   32.8495   45.3016 H   0  0  0  0  0  0  0  0  0  0  0  0
   58.7680   33.1780   44.3330 C   0  0  0  0  0  0  0  0  0  0  0  0
   59.6091   32.4699   44.3660 H   0  0  0  0  0  0  0  0  0  0  0  0
   57.9211   32.7169   43.8037 H   0  0  0  0  0  0  0  0  0  0  0  0
   59.0779   34.0911   43.8037 H   0  0  0  0  0  0  0  0  0  0  0  0
   60.0270   29.1080   45.8420 C   0  0  0  0  0  0  0  0  0  0  0  0
   60.0280   28.5820   47.0810 C   0  0  0  0  0  0  0  0  0  0  0  0
   60.2276   29.2453   47.9355 H   0  0  0  0  0  0  0  0  0  0  0  0
   59.7730   27.1560   47.3390 C   0  0  0  0  0  0  0  0  0  0  0  0
   59.6911   26.8306   48.3866 H   0  0  0  0  0  0  0  0  0  0  0  0
   59.6340   26.2280   46.3840 C   0  0  0  0  0  0  0  0  0  0  0  0
   60.4576   26.1235   45.6624 H   0  0  0  0  0  0  0  0  0  0  0  0
   58.4640   25.3260   46.2130 C   0  0  0  0  0  0  0  0  0  0  0  0
   59.1220   30.2260   45.5140 C   0  0  0  0  0  0  0  0  0  0  0  0
   58.9641   30.4402   44.4467 H   0  0  0  0  0  0  0  0  0  0  0  0
   56.3220   26.6490   46.1950 C   0  0  0  0  0  0  0  0  0  0  0  0
   55.1450   26.2380   45.9980 O   0  0  0  0  0  0  0  0  0  0  0  0
   56.6870   27.9580   45.8390 O   0  0  0  0  0  0  0  0  0  0  0  0
   57.0230   28.3330   44.4970 C   0  0  0  0  0  0  0  0  0  0  0  0
   56.7272   27.5258   43.8108 H   0  0  0  0  0  0  0  0  0  0  0  0
   58.1080   28.5037   44.4365 H   0  0  0  0  0  0  0  0  0  0  0  0
   56.2960   29.6220   44.1020 C   0  0  0  0  0  0  0  0  0  0  0  0
   56.7364   30.4588   44.6640 H   0  0  0  0  0  0  0  0  0  0  0  0
   55.2305   29.4836   44.3379 H   0  0  0  0  0  0  0  0  0  0  0  0
   56.3970   29.9350   42.5960 C   0  0  0  0  0  0  0  0  0  0  0  0
   55.3814   29.9653   42.1746 H   0  0  0  0  0  0  0  0  0  0  0  0
   57.0075   29.1451   42.1342 H   0  0  0  0  0  0  0  0  0  0  0  0
   57.0820   31.2690   42.3130 C   0  0  0  0  0  0  0  0  0  0  0  0
   57.3344   31.7606   43.2641 H   0  0  0  0  0  0  0  0  0  0  0  0
   58.0016   31.0937   41.7355 H   0  0  0  0  0  0  0  0  0  0  0  0
   56.4037   31.9142   41.7355 H   0  0  0  0  0  0  0  0  0  0  0  0
   58.5470   24.1360   45.2840 C   0  0  0  0  0  0  0  0  0  0  0  0
   58.6115   23.2117   45.8769 H   0  0  0  0  0  0  0  0  0  0  0  0
   57.6490   24.1028   44.6496 H   0  0  0  0  0  0  0  0  0  0  0  0
   59.4409   24.2277   44.6496 H   0  0  0  0  0  0  0  0  0  0  0  0
   61.1400   28.8170   44.8640 C   0  0  0  0  0  0  0  0  0  0  0  0
   62.0602   28.5764   45.4167 H   0  0  0  0  0  0  0  0  0  0  0  0
   60.8581   27.9624   44.2314 H   0  0  0  0  0  0  0  0  0  0  0  0
   61.3125   29.7002   44.2314 H   0  0  0  0  0  0  0  0  0  0  0  0
  1  2  1  0
  2  3  2  3
  3  4  1  0
  3  5  1  0
  5  6  2  0
  6  7  1  0
  7  8  1  0
  7  9  1  0
  7 10  1  0
  6 11  1  0
 11 12  1  1
 11 13  1  0
 13 14  1  0
 14 15  1  0
 14 16  2  0
 16 17  1  0
 17 18  1  0
 17 19  2  0
 19 20  1  0
 11 21  1  0
 21 22  1  0
 21 23  1  0
 21 24  1  0
 24 25  1  0
 24 26  1  0
 24 27  1  0
 27 28  1  0
 28 29  1  0
 28 30  1  0
 28 31  1  0
 27 32  1  0
 32 33  1  0
 32 34  1  0
 32 35  1  0
  2 36  1  0
 36 37  2  0
 37 38  1  0
 37 39  1  0
 39 40  1  0
 39 41  2  0
 41 42  1  0
 41 43  1  0
 43 44  2  3
 44 45  1  0
 44 46  1  0
 46 47  2  0
 46 48  1  0
 48 49  1  0
 49 50  1  0
 49 51  1  0
 49 52  1  0
 52 53  1  0
 52 54  1  0
 52 55  1  0
 55 56  1  0
 55 57  1  0
 55 58  1  0
 58 59  1  0
 58 60  1  0
 58 61  1  0
 43 62  1  0
 62 63  1  0
 62 64  1  0
 62 65  1  0
 36 66  1  0
 66 67  1  0
 66 68  1  0
 66 69  1  0
 27  5  1  0
 19 13  1  0
M  END
>  <UniqueID>  (83) 
81

>  <SMILES>  (83) 
CCCCOC(=O)C=C(C)/C=C\C=C(C)C=CC1=C(C)[C@@H](n2ccnc2)CCC1(C)C

>  <Energy>  (83) 
116.90933085301923

>  <Genealogy>  (83) 
CCCCOC(=O)C=C(C)C=CC=C(C)C=CC1=C(C)[C@@H](n2ccnc2)CCC1(C)C (chirality)
CCCCOC(=O)C=C(C)/C=C\C=C(C)C=CC1=C(C)[C@@H](n2ccnc2)CCC1(C)C (cis-trans isomerization)
CCCCOC(=O)C=C(C)/C=C\C=C(C)C=CC1=C(C)[C@@H](n2ccnc2)CCC1(C)C (3D coordinates assigned)
CCCCOC(=O)C=C(C)/C=C\C=C(C)C=CC1=C(C)[C@@H](n2ccnc2)CCC1(C)C (nonaromatic ring conformer: 116.90933085301923 kcal/mol)

>  <smiles>  (83) 
CCCCOC(=O)C=C(C)C=CC=C(C)C=CC1=C(C)C(n2ccnc2)CCC1(C)C

>  <score_type>  (83) 
oracle

>  <origin>  (83) 
adg

>  <m_score__min__energy>  (83) 
-8.8100000000000005

>  <m_primary>  (83) 
energy

$$$$
83:0
     RDKit          3D

 46 48  0  0  0  0  0  0  0  0999 V2000
   64.7800   32.3500   49.3460 C   0  0  0  0  0  0  0  0  0  0  0  0
   63.5160   32.9730   48.8330 C   0  0  0  0  0  0  0  0  0  0  0  0
   62.6790   33.6840   49.7050 C   0  0  0  0  0  0  0  0  0  0  0  0
   61.5040   34.2700   49.2320 C   0  0  0  0  0  0  0  0  0  0  0  0
   61.1690   34.1800   47.8760 C   0  0  0  0  0  0  0  0  0  0  0  0
   59.6750   34.9660   47.2640 S   0  0  0  0  0  0  0  0  0  0  0  0
   58.8640   33.3910   46.9560 C   0  0  0  0  0  0  0  0  0  0  0  0
   58.6770   32.3490   47.8520 C   0  0  0  0  0  0  0  0  0  0  0  0
   58.9540   32.3550   49.3210 C   0  0  0  0  0  0  0  0  0  0  0  0
   58.1520   31.2990   47.1930 N   0  0  0  0  0  0  0  0  0  0  0  0
   57.9980   31.6330   45.9210 N   0  0  0  0  0  0  0  0  0  0  0  0
   57.5740   30.5070   44.6710 S   0  0  0  0  0  0  0  0  0  0  0  0
   58.1510   30.9760   43.3670 O   0  0  0  0  0  0  0  0  0  0  0  0
   56.0790   30.4170   44.5440 O   0  0  0  0  0  0  0  0  0  0  0  0
   58.2100   28.9280   45.1120 C   0  0  0  0  0  0  0  0  0  0  0  0
   59.5920   28.7270   45.2590 C   0  0  0  0  0  0  0  0  0  0  0  0
   60.0790   27.4790   45.6550 C   0  0  0  0  0  0  0  0  0  0  0  0
   59.1920   26.4270   45.9130 C   0  0  0  0  0  0  0  0  0  0  0  0
   59.6820   25.2210   46.2980 F   0  0  0  0  0  0  0  0  0  0  0  0
   57.8040   26.6220   45.7820 C   0  0  0  0  0  0  0  0  0  0  0  0
   56.8550   25.4960   46.0650 C   0  0  0  0  0  0  0  0  0  0  0  0
   57.3190   27.8750   45.3730 C   0  0  0  0  0  0  0  0  0  0  0  0
   58.3990   32.9110   45.7440 C   0  0  0  0  0  0  0  0  0  0  0  0
   58.4450   33.6260   44.4270 C   0  0  0  0  0  0  0  0  0  0  0  0
   62.0070   33.4780   47.0010 C   0  0  0  0  0  0  0  0  0  0  0  0
   63.1790   32.8830   47.4750 C   0  0  0  0  0  0  0  0  0  0  0  0
   64.7708   32.3545   50.4460 H   0  0  0  0  0  0  0  0  0  0  0  0
   64.8511   31.3136   48.9842 H   0  0  0  0  0  0  0  0  0  0  0  0
   65.6452   32.9249   48.9842 H   0  0  0  0  0  0  0  0  0  0  0  0
   62.9498   33.7803   50.7668 H   0  0  0  0  0  0  0  0  0  0  0  0
   60.8393   34.8041   49.9269 H   0  0  0  0  0  0  0  0  0  0  0  0
   58.0031   32.3344   49.8735 H   0  0  0  0  0  0  0  0  0  0  0  0
   59.5508   31.4696   49.5852 H   0  0  0  0  0  0  0  0  0  0  0  0
   59.5119   33.2654   49.5852 H   0  0  0  0  0  0  0  0  0  0  0  0
   57.9390   30.3590   47.5960 H   0  0  0  0  0  0  0  0  0  0  0  0
   60.2915   29.5528   45.0622 H   0  0  0  0  0  0  0  0  0  0  0  0
   61.1623   27.3224   45.7644 H   0  0  0  0  0  0  0  0  0  0  0  0
   56.7491   25.3703   47.1527 H   0  0  0  0  0  0  0  0  0  0  0  0
   55.8731   25.7246   45.6250 H   0  0  0  0  0  0  0  0  0  0  0  0
   57.2466   24.5670   45.6250 H   0  0  0  0  0  0  0  0  0  0  0  0
   56.2365   28.0319   45.2567 H   0  0  0  0  0  0  0  0  0  0  0  0
   58.5147   34.7100   44.6005 H   0  0  0  0  0  0  0  0  0  0  0  0
   59.3233   33.2886   43.8571 H   0  0  0  0  0  0  0  0  0  0  0  0
   57.5307   33.4040   43.8571 H   0  0  0  0  0  0  0  0  0  0  0  0
   61.7417   33.3947   45.9367 H   0  0  0  0  0  0  0  0  0  0  0  0
   63.8392   32.3424   46.7808 H   0  0  0  0  0  0  0  0  0  0  0  0
  1  2  1  0
  2  3  2  0
  3  4  1  0
  4  5  2  0
  5  6  1  0
  6  7  1  0
  7  8  1  0
  8  9  1  0
  8 10  2  0
 10 11  1  0
 11 12  1  0
 12 13  2  0
 12 14  2  0
 12 15  1  0
 15 16  2  0
 16 17  1  0
 17 18  2  0
 18 19  1  0
 18 20  1  0
 20 21  1  0
 20 22  2  0
 11 23  1  0
 23 24  1  0
  5 25  1  0
 25 26  2  0
 26  2  1  0
 23  7  2  0
 22 15  1  0
  1 27  1  0
  1 28  1  0
  1 29  1  0
  3 30  1  0
  4 31  1  0
  9 32  1  0
  9 33  1  0
  9 34  1  0
 10 35  1  0
 16 36  1  0
 17 37  1  0
 21 38  1  0
 21 39  1  0
 21 40  1  0
 22 41  1  0
 24 42  1  0
 24 43  1  0
 24 44  1  0
 25 45  1  0
 26 46  1  0
M  CHG  1  10   1
M  END
>  <UniqueID>  (84) 
82

>  <SMILES>  (84) 
Cc1ccc(Sc2c(C)[nH+]n(S(=O)(=O)c3ccc(F)c(C)c3)c2C)cc1

>  <Energy>  (84) 
70.69993648667545

>  <Genealogy>  (84) 
Cc1ccc(Sc2c(C)[nH+]n(S(=O)(=O)c3ccc(F)c(C)c3)c2C)cc1 (protonated)
Cc1ccc(Sc2c(C)[nH+]n(S(=O)(=O)c3ccc(F)c(C)c3)c2C)cc1 (3D coordinates assigned)
Cc1ccc(Sc2c(C)[nH+]n(S(=O)(=O)c3ccc(F)c(C)c3)c2C)cc1 (optimized conformer: 70.69993648667545 kcal/mol)

>  <smiles>  (84) 
Cc1ccc(Sc2c(C)nn(S(=O)(=O)c3ccc(F)c(C)c3)c2C)cc1

>  <score_type>  (84) 
oracle

>  <origin>  (84) 
adg

>  <m_score__min__energy>  (84) 
-7.75

>  <m_primary>  (84) 
energy

$$$$
84:0
     RDKit          3D

 54 56  0  0  0  0  0  0  0  0999 V2000
   57.2570   23.7150   46.4580 C   0  0  0  0  0  0  0  0  0  0  0  0
   57.5540   25.1600   46.1630 C   0  0  0  0  0  0  0  0  0  0  0  0
   58.8740   25.5640   45.9140 C   0  0  0  0  0  0  0  0  0  0  0  0
   59.1650   26.8980   45.6280 C   0  0  0  0  0  0  0  0  0  0  0  0
   58.1410   27.8560   45.5730 C   0  0  0  0  0  0  0  0  0  0  0  0
   58.4610   29.2730   45.2740 C   0  0  0  0  0  0  0  0  0  0  0  0
   59.4220   29.5430   44.5010 O   0  0  0  0  0  0  0  0  0  0  0  0
   57.6650   30.3390   45.8170 N   0  0  0  0  0  0  0  0  0  0  0  0
   58.1350   31.6900   45.9680 C   0  0  0  0  0  0  0  0  0  0  0  0
   57.7820   32.6540   45.0120 C   0  0  0  0  0  0  0  0  0  0  0  0
   58.2190   33.9760   45.1460 C   0  0  0  0  0  0  0  0  0  0  0  0
   59.0000   34.3490   46.2420 C   0  0  0  0  0  0  0  0  0  0  0  0
   59.3360   33.4030   47.2200 C   0  0  0  0  0  0  0  0  0  0  0  0
   60.3230   33.8540   48.6080 S   0  0  0  0  0  0  0  0  0  0  0  0
   59.6550   34.9600   49.3770 O   0  0  0  0  0  0  0  0  0  0  0  0
   60.4450   32.6560   49.5080 O   0  0  0  0  0  0  0  0  0  0  0  0
   61.9200   34.3520   48.0900 N   0  0  0  0  0  0  0  0  0  0  0  0
   62.9430   34.1130   49.1270 C   0  0  0  0  0  0  0  0  0  0  0  0
   63.3060   32.6240   49.2790 C   0  0  0  0  0  0  0  0  0  0  0  0
   63.3780   31.8800   47.9330 C   0  0  0  0  0  0  0  0  0  0  0  0
   63.4630   32.8440   46.7510 C   0  0  0  0  0  0  0  0  0  0  0  0
   62.2630   33.8090   46.7510 C   0  0  0  0  0  0  0  0  0  0  0  0
   58.9010   32.0780   47.0830 C   0  0  0  0  0  0  0  0  0  0  0  0
   56.8170   27.4530   45.8220 C   0  0  0  0  0  0  0  0  0  0  0  0
   56.5130   26.1080   46.1120 C   0  0  0  0  0  0  0  0  0  0  0  0
   55.1640   25.6790   46.3590 N   0  0  0  0  0  0  0  0  0  0  0  0
   54.3310   24.3920   45.5450 S   0  0  0  0  0  0  0  0  0  0  0  0
   54.2680   22.9470   46.5840 C   0  0  0  0  0  0  0  0  0  0  0  0
   55.0810   24.0510   44.2890 O   0  0  0  0  0  0  0  0  0  0  0  0
   52.9430   24.8310   45.1730 O   0  0  0  0  0  0  0  0  0  0  0  0
   57.2256   23.5620   47.5469 H   0  0  0  0  0  0  0  0  0  0  0  0
   56.2844   23.4440   46.0214 H   0  0  0  0  0  0  0  0  0  0  0  0
   58.0439   23.0824   46.0214 H   0  0  0  0  0  0  0  0  0  0  0  0
   59.6863   24.8229   45.9445 H   0  0  0  0  0  0  0  0  0  0  0  0
   60.2061   27.2016   45.4440 H   0  0  0  0  0  0  0  0  0  0  0  0
   56.6560   30.1480   46.0120 H   0  0  0  0  0  0  0  0  0  0  0  0
   57.1581   32.3687   44.1522 H   0  0  0  0  0  0  0  0  0  0  0  0
   57.9469   34.7236   44.3863 H   0  0  0  0  0  0  0  0  0  0  0  0
   59.3520   35.3868   46.3378 H   0  0  0  0  0  0  0  0  0  0  0  0
   63.8524   34.6702   48.8579 H   0  0  0  0  0  0  0  0  0  0  0  0
   62.5251   34.4505   50.0869 H   0  0  0  0  0  0  0  0  0  0  0  0
   64.2865   32.5512   49.7723 H   0  0  0  0  0  0  0  0  0  0  0  0
   62.5102   32.1512   49.8732 H   0  0  0  0  0  0  0  0  0  0  0  0
   64.2694   31.2354   47.9306 H   0  0  0  0  0  0  0  0  0  0  0  0
   62.4582   31.2868   47.8226 H   0  0  0  0  0  0  0  0  0  0  0  0
   64.3941   33.4250   46.8247 H   0  0  0  0  0  0  0  0  0  0  0  0
   63.4502   32.2623   45.8175 H   0  0  0  0  0  0  0  0  0  0  0  0
   62.4988   34.6531   46.0863 H   0  0  0  0  0  0  0  0  0  0  0  0
   61.3914   33.2304   46.4112 H   0  0  0  0  0  0  0  0  0  0  0  0
   59.1601   31.3359   47.8525 H   0  0  0  0  0  0  0  0  0  0  0  0
   56.0079   28.1976   45.7900 H   0  0  0  0  0  0  0  0  0  0  0  0
   54.2814   23.2540   47.6402 H   0  0  0  0  0  0  0  0  0  0  0  0
   53.3446   22.3864   46.3768 H   0  0  0  0  0  0  0  0  0  0  0  0
   55.1391   22.3081   46.3768 H   0  0  0  0  0  0  0  0  0  0  0  0
  1  2  1  0
  2  3  2  0
  3  4  1  0
  4  5  2  0
  5  6  1  0
  6  7  2  0
  6  8  1  0
  8  9  1  0
  9 10  2  0
 10 11  1  0
 11 12  2  0
 12 13  1  0
 13 14  1  0
 14 15  2  0
 14 16  2  0
 14 17  1  0
 17 18  1  0
 18 19  1  0
 19 20  1  0
 20 21  1  0
 21 22  1  0
 13 23  2  0
  5 24  1  0
 24 25  2  0
 25 26  1  0
 26 27  1  0
 27 28  1  0
 27 29  2  0
 27 30  2  0
 25  2  1  0
 23  9  1  0
 22 17  1  0
  1 31  1  0
  1 32  1  0
  1 33  1  0
  3 34  1  0
  4 35  1  0
  8 36  1  0
 10 37  1  0
 11 38  1  0
 12 39  1  0
 18 40  1  0
 18 41  1  0
 19 42  1  0
 19 43  1  0
 20 44  1  0
 20 45  1  0
 21 46  1  0
 21 47  1  0
 22 48  1  0
 22 49  1  0
 23 50  1  0
 24 51  1  0
 28 52  1  0
 28 53  1  0
 28 54  1  0
M  CHG  1  26  -1
M  END
>  <UniqueID>  (85) 
83

>  <SMILES>  (85) 
Cc1ccc(C(=O)Nc2cccc(S(=O)(=O)N3CCCCC3)c2)cc1[N-]S(C)(=O)=O

>  <Energy>  (85) 
66.21984175074128

>  <Genealogy>  (85) 
Cc1ccc(C(=O)Nc2cccc(S(=O)(=O)N3CCCCC3)c2)cc1[N-]S(C)(=O)=O (protonated)
Cc1ccc(C(=O)Nc2cccc(S(=O)(=O)N3CCCCC3)c2)cc1[N-]S(C)(=O)=O (3D coordinates assigned)
Cc1ccc(C(=O)Nc2cccc(S(=O)(=O)N3CCCCC3)c2)cc1[N-]S(C)(=O)=O (nonaromatic ring conformer: 66.21984175074128 kcal/mol)

>  <smiles>  (85) 
Cc1ccc(C(=O)Nc2cccc(S(=O)(=O)N3CCCCC3)c2)cc1NS(C)(=O)=O

>  <score_type>  (85) 
oracle

>  <origin>  (85) 
adg

>  <m_score__min__energy>  (85) 
-11.27

>  <m_primary>  (85) 
energy

$$$$
85:0
     RDKit          3D

 46 47  0  0  0  0  0  0  0  0999 V2000
   60.0370   30.7480   51.7990 C   0  0  0  0  0  0  0  0  0  0  0  0
   58.6350   30.9010   50.7110 S   0  0  0  0  0  0  0  0  0  0  0  0
   57.8520   32.1430   51.0320 O   0  0  0  0  0  0  0  0  0  0  0  0
   57.7460   29.7060   50.9110 O   0  0  0  0  0  0  0  0  0  0  0  0
   59.1600   30.9380   49.0570 N   0  0  0  0  0  0  0  0  0  0  0  0
   59.1040   29.8140   48.1590 C   0  0  0  0  0  0  0  0  0  0  0  0
   59.6080   28.5480   48.5130 C   0  0  0  0  0  0  0  0  0  0  0  0
   59.5350   27.4820   47.6150 C   0  0  0  0  0  0  0  0  0  0  0  0
   58.9690   27.6630   46.3520 C   0  0  0  0  0  0  0  0  0  0  0  0
   58.4790   28.9210   45.9720 C   0  0  0  0  0  0  0  0  0  0  0  0
   57.8600   29.1100   44.6140 C   0  0  0  0  0  0  0  0  0  0  0  0
   56.5080   29.7360   44.7440 C   0  0  0  0  0  0  0  0  0  0  0  0
   55.4910   29.0080   44.9080 O   0  0  0  0  0  0  0  0  0  0  0  0
   56.3730   31.1560   44.6490 N   0  0  0  0  0  0  0  0  0  0  0  0
   57.5150   32.0510   44.5140 C   0  0  0  0  0  0  0  0  0  0  0  0
   57.6630   32.9010   45.7710 C   0  0  0  0  0  0  0  0  0  0  0  0
   58.5570   34.4530   45.3830 S   0  0  0  0  0  0  0  0  0  0  0  0
   60.2440   33.8620   45.7720 C   0  0  0  0  0  0  0  0  0  0  0  0
   60.4990   33.8760   47.2610 C   0  0  0  0  0  0  0  0  0  0  0  0
   59.4280   34.1000   48.1450 C   0  0  0  0  0  0  0  0  0  0  0  0
   59.6390   34.1150   49.5260 C   0  0  0  0  0  0  0  0  0  0  0  0
   60.9200   33.9120   50.0410 C   0  0  0  0  0  0  0  0  0  0  0  0
   61.9920   33.6830   49.1770 C   0  0  0  0  0  0  0  0  0  0  0  0
   61.7920   33.6610   47.7910 C   0  0  0  0  0  0  0  0  0  0  0  0
   63.1820   33.3470   46.7550 Cl  0  0  0  0  0  0  0  0  0  0  0  0
   58.5430   29.9880   46.8830 C   0  0  0  0  0  0  0  0  0  0  0  0
   59.6959   30.7852   52.8441 H   0  0  0  0  0  0  0  0  0  0  0  0
   60.5430   29.7893   51.6124 H   0  0  0  0  0  0  0  0  0  0  0  0
   60.7379   31.5750   51.6124 H   0  0  0  0  0  0  0  0  0  0  0  0
   59.4690   31.8640   48.6850 H   0  0  0  0  0  0  0  0  0  0  0  0
   60.0622   28.3980   49.5036 H   0  0  0  0  0  0  0  0  0  0  0  0
   59.9252   26.4949   47.9039 H   0  0  0  0  0  0  0  0  0  0  0  0
   58.9071   26.8163   45.6525 H   0  0  0  0  0  0  0  0  0  0  0  0
   58.5057   29.7628   44.0083 H   0  0  0  0  0  0  0  0  0  0  0  0
   57.7554   28.1287   44.1280 H   0  0  0  0  0  0  0  0  0  0  0  0
   58.4285   31.4562   44.3669 H   0  0  0  0  0  0  0  0  0  0  0  0
   57.3560   32.7110   43.6485 H   0  0  0  0  0  0  0  0  0  0  0  0
   56.6651   33.1450   46.1644 H   0  0  0  0  0  0  0  0  0  0  0  0
   58.2344   32.3355   46.5218 H   0  0  0  0  0  0  0  0  0  0  0  0
   60.3589   32.8339   45.3981 H   0  0  0  0  0  0  0  0  0  0  0  0
   60.9682   34.5342   45.2887 H   0  0  0  0  0  0  0  0  0  0  0  0
   58.4163   34.2647   47.7458 H   0  0  0  0  0  0  0  0  0  0  0  0
   58.7938   34.2872   50.2086 H   0  0  0  0  0  0  0  0  0  0  0  0
   61.0850   33.9325   51.1284 H   0  0  0  0  0  0  0  0  0  0  0  0
   62.9995   33.5189   49.5869 H   0  0  0  0  0  0  0  0  0  0  0  0
   58.1485   30.9732   46.5934 H   0  0  0  0  0  0  0  0  0  0  0  0
  1  2  1  0
  2  3  2  0
  2  4  2  0
  2  5  1  0
  5  6  1  0
  6  7  2  0
  7  8  1  0
  8  9  2  0
  9 10  1  0
 10 11  1  0
 11 12  1  0
 12 13  2  0
 12 14  1  0
 14 15  1  0
 15 16  1  0
 16 17  1  0
 17 18  1  0
 18 19  1  0
 19 20  2  0
 20 21  1  0
 21 22  2  0
 22 23  1  0
 23 24  2  0
 24 25  1  0
 10 26  2  0
 26  6  1  0
 24 19  1  0
  1 27  1  0
  1 28  1  0
  1 29  1  0
  5 30  1  0
  7 31  1  0
  8 32  1  0
  9 33  1  0
 11 34  1  0
 11 35  1  0
 15 36  1  0
 15 37  1  0
 16 38  1  0
 16 39  1  0
 18 40  1  0
 18 41  1  0
 20 42  1  0
 21 43  1  0
 22 44  1  0
 23 45  1  0
 26 46  1  0
M  CHG  1  14  -1
M  END
>  <UniqueID>  (86) 
84

>  <SMILES>  (86) 
CS(=O)(=O)Nc1cccc(CC(=O)[N-]CCSCc2ccccc2Cl)c1

>  <Energy>  (86) 
34.36343627019908

>  <Genealogy>  (86) 
CS(=O)(=O)Nc1cccc(CC(=O)[N-]CCSCc2ccccc2Cl)c1 (protonated)
CS(=O)(=O)Nc1cccc(CC(=O)[N-]CCSCc2ccccc2Cl)c1 (3D coordinates assigned)
CS(=O)(=O)Nc1cccc(CC(=O)[N-]CCSCc2ccccc2Cl)c1 (optimized conformer: 34.36343627019908 kcal/mol)

>  <smiles>  (86) 
CS(=O)(=O)Nc1cccc(CC(=O)NCCSCc2ccccc2Cl)c1

>  <score_type>  (86) 
oracle

>  <origin>  (86) 
adg

>  <m_score__min__energy>  (86) 
-10.75

>  <m_primary>  (86) 
energy

$$$$
86:0
     RDKit          3D

 50 53  0  0  0  0  0  0  0  0999 V2000
   57.8920   28.1150   44.1620 O   0  0  0  0  0  0  0  0  0  0  0  0
   57.4530   28.5250   45.2700 C   0  0  0  0  0  0  0  0  0  0  0  0
   57.5890   27.6670   46.4850 C   0  0  0  0  0  0  0  0  0  0  0  0
   57.1620   26.3030   46.1740 N   0  0  0  0  0  0  0  0  0  0  0  0
   57.9390   25.1990   46.1480 C   0  0  0  0  0  0  0  0  0  0  0  0
   59.3140   25.2040   46.3500 O   0  0  0  0  0  0  0  0  0  0  0  0
   57.1690   24.0760   45.9160 C   0  0  0  0  0  0  0  0  0  0  0  0
   55.8700   24.5060   45.8150 C   0  0  0  0  0  0  0  0  0  0  0  0
   55.8940   25.8770   45.9880 C   0  0  0  0  0  0  0  0  0  0  0  0
   54.7790   26.7070   45.9940 O   0  0  0  0  0  0  0  0  0  0  0  0
   54.6990   23.5990   45.6230 C   0  0  0  0  0  0  0  0  0  0  0  0
   55.1330   22.1600   45.4240 C   0  0  0  0  0  0  0  0  0  0  0  0
   56.4130   21.7350   45.5250 C   0  0  0  0  0  0  0  0  0  0  0  0
   57.5840   22.6420   45.8480 C   0  0  0  0  0  0  0  0  0  0  0  0
   56.8140   29.8030   45.3770 N   0  0  0  0  0  0  0  0  0  0  0  0
   57.3830   31.0600   44.9810 C   0  0  0  0  0  0  0  0  0  0  0  0
   58.1540   31.8300   45.8700 C   0  0  0  0  0  0  0  0  0  0  0  0
   58.6990   33.0550   45.4620 C   0  0  0  0  0  0  0  0  0  0  0  0
   59.6300   34.0350   46.5980 S   0  0  0  0  0  0  0  0  0  0  0  0
   59.9510   35.3590   45.9620 O   0  0  0  0  0  0  0  0  0  0  0  0
   58.7990   34.2970   47.8250 O   0  0  0  0  0  0  0  0  0  0  0  0
   61.1150   33.2390   47.0660 N   0  0  0  0  0  0  0  0  0  0  0  0
   61.2800   33.2060   48.5360 C   0  0  0  0  0  0  0  0  0  0  0  0
   62.3270   34.2250   49.0240 C   0  0  0  0  0  0  0  0  0  0  0  0
   63.6120   34.0270   48.4490 O   0  0  0  0  0  0  0  0  0  0  0  0
   63.5740   33.5360   47.1140 C   0  0  0  0  0  0  0  0  0  0  0  0
   62.2650   33.8440   46.3680 C   0  0  0  0  0  0  0  0  0  0  0  0
   58.5000   33.4940   44.1460 C   0  0  0  0  0  0  0  0  0  0  0  0
   57.7660   32.7160   43.2480 C   0  0  0  0  0  0  0  0  0  0  0  0
   57.2120   31.5010   43.6610 C   0  0  0  0  0  0  0  0  0  0  0  0
   56.4840   30.7370   42.7550 O   0  0  0  0  0  0  0  0  0  0  0  0
   58.6399   27.6564   46.8096 H   0  0  0  0  0  0  0  0  0  0  0  0
   56.9584   28.0721   47.2902 H   0  0  0  0  0  0  0  0  0  0  0  0
   54.0532   23.6572   46.5115 H   0  0  0  0  0  0  0  0  0  0  0  0
   54.1580   23.9225   44.7215 H   0  0  0  0  0  0  0  0  0  0  0  0
   54.3595   21.4161   45.1827 H   0  0  0  0  0  0  0  0  0  0  0  0
   56.6168   20.6663   45.3629 H   0  0  0  0  0  0  0  0  0  0  0  0
   58.0065   22.3465   46.8197 H   0  0  0  0  0  0  0  0  0  0  0  0
   58.3300   22.5382   45.0463 H   0  0  0  0  0  0  0  0  0  0  0  0
   58.3307   31.4680   46.8936 H   0  0  0  0  0  0  0  0  0  0  0  0
   60.3132   33.4376   49.0068 H   0  0  0  0  0  0  0  0  0  0  0  0
   61.6292   32.2010   48.8154 H   0  0  0  0  0  0  0  0  0  0  0  0
   61.9793   35.2355   48.7633 H   0  0  0  0  0  0  0  0  0  0  0  0
   62.4312   34.0914   50.1109 H   0  0  0  0  0  0  0  0  0  0  0  0
   64.4052   33.9907   46.5551 H   0  0  0  0  0  0  0  0  0  0  0  0
   63.6527   32.4406   47.1769 H   0  0  0  0  0  0  0  0  0  0  0  0
   62.1251   34.9339   46.3183 H   0  0  0  0  0  0  0  0  0  0  0  0
   62.3267   33.4216   45.3542 H   0  0  0  0  0  0  0  0  0  0  0  0
   58.9236   34.4551   43.8191 H   0  0  0  0  0  0  0  0  0  0  0  0
   57.6235   33.0603   42.2130 H   0  0  0  0  0  0  0  0  0  0  0  0
  1  2  2  0
  2  3  1  0
  3  4  1  0
  4  5  1  0
  5  6  1  0
  5  7  2  0
  7  8  1  0
  8  9  2  0
  9 10  1  0
  8 11  1  0
 11 12  1  0
 12 13  2  0
 13 14  1  0
  2 15  1  0
 15 16  1  0
 16 17  2  0
 17 18  1  0
 18 19  1  0
 19 20  2  0
 19 21  2  0
 19 22  1  0
 22 23  1  0
 23 24  1  0
 24 25  1  0
 25 26  1  0
 26 27  1  0
 18 28  2  0
 28 29  1  0
 29 30  2  0
 30 31  1  0
  9  4  1  0
 30 16  1  0
 14  7  1  0
 27 22  1  0
  3 32  1  0
  3 33  1  0
 11 34  1  0
 11 35  1  0
 12 36  1  0
 13 37  1  0
 14 38  1  0
 14 39  1  0
 17 40  1  0
 23 41  1  0
 23 42  1  0
 24 43  1  0
 24 44  1  0
 26 45  1  0
 26 46  1  0
 27 47  1  0
 27 48  1  0
 28 49  1  0
 29 50  1  0
M  CHG  4   6  -1  10  -1  15  -1  31  -1
M  END
>  <UniqueID>  (87) 
85

>  <SMILES>  (87) 
O=C(Cn1c([O-])c2c(c1[O-])CC=CC2)[N-]c1cc(S(=O)(=O)N2CCOCC2)ccc1[O-]

>  <Energy>  (87) 
98.19649746050996

>  <Genealogy>  (87) 
O=C(Cn1c([O-])c2c(c1[O-])CC=CC2)[N-]c1cc(S(=O)(=O)N2CCOCC2)ccc1[O-] (protonated)
O=C(Cn1c([O-])c2c(c1[O-])CC=CC2)[N-]c1cc(S(=O)(=O)N2CCOCC2)ccc1[O-] (3D coordinates assigned)
O=C(Cn1c([O-])c2c(c1[O-])CC=CC2)[N-]c1cc(S(=O)(=O)N2CCOCC2)ccc1[O-] (nonaromatic ring conformer: 98.19649746050996 kcal/mol)

>  <smiles>  (87) 
O=C(Cn1c(O)c2c(c1O)CC=CC2)Nc1cc(S(=O)(=O)N2CCOCC2)ccc1O

>  <score_type>  (87) 
oracle

>  <origin>  (87) 
adg

>  <m_score__min__energy>  (87) 
-16.59

>  <m_primary>  (87) 
energy

$$$$
87:0
     RDKit          3D

 48 50  0  0  0  0  0  0  0  0999 V2000
   59.8350   29.4790   48.2990 C   0  0  0  0  0  0  0  0  0  0  0  0
   59.8720   30.8930   48.8760 C   0  0  0  0  0  0  0  0  0  0  0  0
   61.2030   31.5630   48.6120 C   0  0  0  0  0  0  0  0  0  0  0  0
   62.2920   31.2290   49.4370 C   0  0  0  0  0  0  0  0  0  0  0  0
   63.5550   31.7780   49.2090 C   0  0  0  0  0  0  0  0  0  0  0  0
   63.7530   32.6620   48.1510 C   0  0  0  0  0  0  0  0  0  0  0  0
   62.6860   33.0080   47.3210 C   0  0  0  0  0  0  0  0  0  0  0  0
   61.4030   32.4810   47.5460 C   0  0  0  0  0  0  0  0  0  0  0  0
   60.3210   32.8820   46.6260 C   0  0  0  0  0  0  0  0  0  0  0  0
   60.2480   34.1870   46.1220 C   0  0  0  0  0  0  0  0  0  0  0  0
   59.2180   34.5210   45.2400 C   0  0  0  0  0  0  0  0  0  0  0  0
   59.1340   35.6930   44.7850 O   0  0  0  0  0  0  0  0  0  0  0  0
   58.2840   33.5540   44.8600 C   0  0  0  0  0  0  0  0  0  0  0  0
   58.3980   32.2470   45.3630 C   0  0  0  0  0  0  0  0  0  0  0  0
   57.4440   31.1890   44.9660 C   0  0  0  0  0  0  0  0  0  0  0  0
   56.5670   31.4330   44.0930 O   0  0  0  0  0  0  0  0  0  0  0  0
   57.5130   29.8860   45.5670 N   0  0  0  0  0  0  0  0  0  0  0  0
   56.6060   28.7980   45.2030 C   0  0  0  0  0  0  0  0  0  0  0  0
   57.1060   27.5000   45.7840 C   0  0  0  0  0  0  0  0  0  0  0  0
   58.4850   27.2810   45.9070 C   0  0  0  0  0  0  0  0  0  0  0  0
   58.9630   26.0710   46.4090 C   0  0  0  0  0  0  0  0  0  0  0  0
   58.0700   25.0670   46.7840 C   0  0  0  0  0  0  0  0  0  0  0  0
   56.6880   25.2510   46.6580 C   0  0  0  0  0  0  0  0  0  0  0  0
   55.8650   24.1820   47.0530 O   0  0  0  0  0  0  0  0  0  0  0  0
   54.7900   23.6270   46.3040 C   0  0  0  0  0  0  0  0  0  0  0  0
   56.2020   26.4800   46.1460 C   0  0  0  0  0  0  0  0  0  0  0  0
   54.8370   26.7030   45.9890 O   0  0  0  0  0  0  0  0  0  0  0  0
   59.4110   31.9530   46.2240 N   0  0  0  0  0  0  0  0  0  0  0  0
   59.8159   28.7480   49.1208 H   0  0  0  0  0  0  0  0  0  0  0  0
   58.9334   29.3589   47.6804 H   0  0  0  0  0  0  0  0  0  0  0  0
   60.7291   29.3119   47.6804 H   0  0  0  0  0  0  0  0  0  0  0  0
   59.0728   31.4897   48.4121 H   0  0  0  0  0  0  0  0  0  0  0  0
   59.7281   30.8264   49.9645 H   0  0  0  0  0  0  0  0  0  0  0  0
   62.1468   30.5271   50.2714 H   0  0  0  0  0  0  0  0  0  0  0  0
   64.3958   31.5119   49.8664 H   0  0  0  0  0  0  0  0  0  0  0  0
   64.7510   33.0876   47.9697 H   0  0  0  0  0  0  0  0  0  0  0  0
   62.8509   33.7002   46.4822 H   0  0  0  0  0  0  0  0  0  0  0  0
   60.9934   34.9400   46.4176 H   0  0  0  0  0  0  0  0  0  0  0  0
   57.4657   33.8138   44.1723 H   0  0  0  0  0  0  0  0  0  0  0  0
   58.1590   29.7300   46.3740 H   0  0  0  0  0  0  0  0  0  0  0  0
   55.6019   29.0121   45.5980 H   0  0  0  0  0  0  0  0  0  0  0  0
   56.5629   28.7125   44.1072 H   0  0  0  0  0  0  0  0  0  0  0  0
   59.1933   28.0671   45.6062 H   0  0  0  0  0  0  0  0  0  0  0  0
   60.0462   25.9079   46.5095 H   0  0  0  0  0  0  0  0  0  0  0  0
   58.4569   24.1182   47.1840 H   0  0  0  0  0  0  0  0  0  0  0  0
   54.0279   23.2335   46.9928 H   0  0  0  0  0  0  0  0  0  0  0  0
   54.3435   24.4073   45.6701 H   0  0  0  0  0  0  0  0  0  0  0  0
   55.1675   22.8111   45.6701 H   0  0  0  0  0  0  0  0  0  0  0  0
  1  2  1  0
  2  3  1  0
  3  4  2  0
  4  5  1  0
  5  6  2  0
  6  7  1  0
  7  8  2  0
  8  9  1  0
  9 10  2  0
 10 11  1  0
 11 12  2  0
 11 13  1  0
 13 14  2  0
 14 15  1  0
 15 16  2  0
 15 17  1  0
 17 18  1  0
 18 19  1  0
 19 20  2  0
 20 21  1  0
 21 22  2  0
 22 23  1  0
 23 24  1  0
 24 25  1  0
 23 26  2  0
 26 27  1  0
 14 28  1  0
  8  3  1  0
 28  9  1  0
 26 19  1  0
  1 29  1  0
  1 30  1  0
  1 31  1  0
  2 32  1  0
  2 33  1  0
  4 34  1  0
  5 35  1  0
  6 36  1  0
  7 37  1  0
 10 38  1  0
 13 39  1  0
 17 40  1  0
 18 41  1  0
 18 42  1  0
 20 43  1  0
 21 44  1  0
 22 45  1  0
 25 46  1  0
 25 47  1  0
 25 48  1  0
M  CHG  2  27  -1  28  -1
M  END
>  <UniqueID>  (88) 
86

>  <SMILES>  (88) 
CCc1ccccc1-c1cc(=O)cc(C(=O)NCc2cccc(OC)c2[O-])[n-]1

>  <Energy>  (88) 
58.16394248195806

>  <Genealogy>  (88) 
CCc1ccccc1-c1cc(=O)cc(C(=O)NCc2cccc(OC)c2[O-])[n-]1 (protonated)
CCc1ccccc1-c1cc(=O)cc(C(=O)NCc2cccc(OC)c2[O-])[n-]1 (3D coordinates assigned)
CCc1ccccc1-c1cc(=O)cc(C(=O)NCc2cccc(OC)c2[O-])[n-]1 (optimized conformer: 58.16394248195806 kcal/mol)

>  <smiles>  (88) 
CCc1ccccc1-c1cc(=O)cc(C(=O)NCc2cccc(OC)c2O)[nH]1

>  <score_type>  (88) 
oracle

>  <origin>  (88) 
adg

>  <m_score__min__energy>  (88) 
-13.25

>  <m_primary>  (88) 
energy

$$$$
88:0
     RDKit          3D

 56 59  0  0  0  0  0  0  0  0999 V2000
   59.8260   30.1840   47.0260 C   0  0  0  0  0  0  0  0  0  0  0  0
   59.0740   30.9730   46.2400 C   0  0  0  0  0  0  0  0  0  0  0  0
   58.4290   30.5970   45.0480 C   0  0  0  0  0  0  0  0  0  0  0  0
   58.2570   29.3900   44.4700 C   0  0  0  0  0  0  0  0  0  0  0  0
   57.5670   28.2340   45.0730 C   0  0  0  0  0  0  0  0  0  0  0  0
   56.1750   28.2380   45.2730 C   0  0  0  0  0  0  0  0  0  0  0  0
   55.4160   29.3570   44.9390 O   0  0  0  0  0  0  0  0  0  0  0  0
   55.5630   27.1410   45.7930 N   0  0  0  0  0  0  0  0  0  0  0  0
   56.2710   26.0260   46.1070 C   0  0  0  0  0  0  0  0  0  0  0  0
   55.6840   25.0240   46.5890 O   0  0  0  0  0  0  0  0  0  0  0  0
   57.6110   25.9890   45.8950 N   0  0  0  0  0  0  0  0  0  0  0  0
   58.2710   27.0590   45.3800 C   0  0  0  0  0  0  0  0  0  0  0  0
   59.5150   26.9880   45.1900 O   0  0  0  0  0  0  0  0  0  0  0  0
   57.9260   31.7600   44.4960 C   0  0  0  0  0  0  0  0  0  0  0  0
   58.2160   32.7810   45.3730 C   0  0  0  0  0  0  0  0  0  0  0  0
   57.8740   34.2200   45.1260 C   0  0  0  0  0  0  0  0  0  0  0  0
   58.9130   32.3120   46.4370 N   0  0  0  0  0  0  0  0  0  0  0  0
   59.4460   33.1430   47.5310 C   0  0  0  0  0  0  0  0  0  0  0  0
   60.9510   33.2150   47.4630 C   0  0  0  0  0  0  0  0  0  0  0  0
   61.5770   33.8570   46.3890 C   0  0  0  0  0  0  0  0  0  0  0  0
   62.9650   33.9470   46.3390 C   0  0  0  0  0  0  0  0  0  0  0  0
   63.7460   33.3990   47.3570 C   0  0  0  0  0  0  0  0  0  0  0  0
   63.1510   32.7350   48.4580 C   0  0  0  0  0  0  0  0  0  0  0  0
   63.9670   32.1690   49.5340 N   0  0  0  0  0  0  0  0  0  0  0  0
   65.3320   32.6980   49.7460 C   0  0  0  0  0  0  0  0  0  0  0  0
   66.1370   31.9930   50.8470 C   0  0  0  0  0  0  0  0  0  0  0  0
   65.3100   31.5660   51.9810 N   0  0  0  0  0  0  0  0  0  0  0  0
   64.7390   32.6960   52.7340 C   0  0  0  0  0  0  0  0  0  0  0  0
   64.2940   30.6150   51.5210 C   0  0  0  0  0  0  0  0  0  0  0  0
   63.3450   31.2050   50.4700 C   0  0  0  0  0  0  0  0  0  0  0  0
   61.7370   32.6550   48.4850 C   0  0  0  0  0  0  0  0  0  0  0  0
   60.2825   30.5925   47.9396 H   0  0  0  0  0  0  0  0  0  0  0  0
   59.9851   29.1296   46.7557 H   0  0  0  0  0  0  0  0  0  0  0  0
   58.6681   29.2560   43.4586 H   0  0  0  0  0  0  0  0  0  0  0  0
   55.2450   30.0910   45.6150 H   0  0  0  0  0  0  0  0  0  0  0  0
   57.3945   31.8524   43.5374 H   0  0  0  0  0  0  0  0  0  0  0  0
   57.7509   34.7381   46.0885 H   0  0  0  0  0  0  0  0  0  0  0  0
   58.6839   34.6964   44.5541 H   0  0  0  0  0  0  0  0  0  0  0  0
   56.9363   34.2811   44.5541 H   0  0  0  0  0  0  0  0  0  0  0  0
   59.0320   34.1587   47.4472 H   0  0  0  0  0  0  0  0  0  0  0  0
   59.1572   32.6904   48.4911 H   0  0  0  0  0  0  0  0  0  0  0  0
   60.9701   34.2921   45.5813 H   0  0  0  0  0  0  0  0  0  0  0  0
   63.4495   34.4536   45.4912 H   0  0  0  0  0  0  0  0  0  0  0  0
   64.8414   33.4839   47.3039 H   0  0  0  0  0  0  0  0  0  0  0  0
   65.8868   32.5994   48.8013 H   0  0  0  0  0  0  0  0  0  0  0  0
   65.2102   33.7409   50.0739 H   0  0  0  0  0  0  0  0  0  0  0  0
   66.6211   31.1057   50.4130 H   0  0  0  0  0  0  0  0  0  0  0  0
   66.8713   32.7166   51.2307 H   0  0  0  0  0  0  0  0  0  0  0  0
   64.8360   32.5041   53.8128 H   0  0  0  0  0  0  0  0  0  0  0  0
   65.2789   33.6189   52.4758 H   0  0  0  0  0  0  0  0  0  0  0  0
   63.6757   32.8088   52.4758 H   0  0  0  0  0  0  0  0  0  0  0  0
   64.8034   29.7443   51.0824 H   0  0  0  0  0  0  0  0  0  0  0  0
   63.6842   30.3406   52.3944 H   0  0  0  0  0  0  0  0  0  0  0  0
   62.9318   30.3743   49.8791 H   0  0  0  0  0  0  0  0  0  0  0  0
   62.5817   31.7677   51.0274 H   0  0  0  0  0  0  0  0  0  0  0  0
   61.2431   32.1434   49.3242 H   0  0  0  0  0  0  0  0  0  0  0  0
  1  2  2  0
  2  3  1  0
  3  4  2  3
  4  5  1  0
  5  6  2  0
  6  7  1  0
  6  8  1  0
  8  9  1  0
  9 10  2  0
  9 11  1  0
 11 12  1  0
 12 13  2  0
  3 14  1  0
 14 15  2  0
 15 16  1  0
 15 17  1  0
 17 18  1  0
 18 19  1  0
 19 20  2  0
 20 21  1  0
 21 22  2  0
 22 23  1  0
 23 24  1  0
 24 25  1  0
 25 26  1  0
 26 27  1  0
 27 28  1  0
 27 29  1  0
 29 30  1  0
 23 31  2  0
 17  2  1  0
 31 19  1  0
 12  5  1  0
 30 24  1  0
  1 32  1  0
  1 33  1  0
  4 34  1  0
  7 35  1  0
 14 36  1  0
 16 37  1  0
 16 38  1  0
 16 39  1  0
 18 40  1  0
 18 41  1  0
 20 42  1  0
 21 43  1  0
 22 44  1  0
 25 45  1  0
 25 46  1  0
 26 47  1  0
 26 48  1  0
 28 49  1  0
 28 50  1  0
 28 51  1  0
 29 52  1  0
 29 53  1  0
 30 54  1  0
 30 55  1  0
 31 56  1  0
M  CHG  2   8  -1  11  -1
M  END
>  <UniqueID>  (89) 
87

>  <SMILES>  (89) 
C=c1c(=Cc2c(O)[n-]c(=O)[n-]c2=O)cc(C)n1Cc1cccc(N2CCN(C)CC2)c1

>  <Energy>  (89) 
111.64023442743762

>  <Genealogy>  (89) 
C=c1c(=Cc2c(O)[n-]c(=O)[n-]c2=O)cc(C)n1Cc1cccc(N2CCN(C)CC2)c1 (protonated)
C=c1c(=Cc2c(O)[n-]c(=O)[n-]c2=O)cc(C)n1Cc1cccc(N2CCN(C)CC2)c1 (3D coordinates assigned)
C=c1c(=Cc2c(O)[n-]c(=O)[n-]c2=O)cc(C)n1Cc1cccc(N2CCN(C)CC2)c1 (nonaromatic ring conformer: 111.64023442743762 kcal/mol)

>  <smiles>  (89) 
C=c1c(=Cc2c(O)[nH]c(=O)[nH]c2=O)cc(C)n1Cc1cccc(N2CCN(C)CC2)c1

>  <score_type>  (89) 
oracle

>  <origin>  (89) 
adg

>  <m_score__min__energy>  (89) 
-14.039999999999999

>  <m_primary>  (89) 
energy

$$$$
89:0
     RDKit          3D

 44 46  0  0  0  0  0  0  0  0999 V2000
   58.2270   33.3670   45.9150 C   0  0  0  0  0  0  0  0  0  0  0  0
   57.7960   32.0300   44.8250 S   0  0  0  0  0  0  0  0  0  0  0  0
   58.2730   32.3410   43.4330 O   0  0  0  0  0  0  0  0  0  0  0  0
   56.3020   31.8640   44.7970 O   0  0  0  0  0  0  0  0  0  0  0  0
   58.5510   30.5450   45.3950 C   0  0  0  0  0  0  0  0  0  0  0  0
   58.7370   29.4670   44.5180 C   0  0  0  0  0  0  0  0  0  0  0  0
   59.3270   28.2850   44.9730 C   0  0  0  0  0  0  0  0  0  0  0  0
   59.7370   28.1660   46.3100 C   0  0  0  0  0  0  0  0  0  0  0  0
   60.3790   26.8910   46.7910 C   0  0  0  0  0  0  0  0  0  0  0  0
   59.4100   26.0740   47.5180 N   0  0  0  0  0  0  0  0  0  0  0  0
   58.0700   25.8580   47.0540 C   0  0  0  0  0  0  0  0  0  0  0  0
   57.1240   26.8250   46.7510 C   0  0  0  0  0  0  0  0  0  0  0  0
   55.9950   26.1210   46.3750 C   0  0  0  0  0  0  0  0  0  0  0  0
   54.7890   26.7020   46.0020 O   0  0  0  0  0  0  0  0  0  0  0  0
   56.2090   24.7880   46.4230 N   0  0  0  0  0  0  0  0  0  0  0  0
   55.2290   23.7330   46.1740 C   0  0  0  0  0  0  0  0  0  0  0  0
   55.6970   22.8480   45.0510 C   0  0  0  0  0  0  0  0  0  0  0  0
   56.0760   21.5200   45.3060 C   0  0  0  0  0  0  0  0  0  0  0  0
   56.5520   20.7120   44.2700 C   0  0  0  0  0  0  0  0  0  0  0  0
   56.6630   21.2260   42.9750 C   0  0  0  0  0  0  0  0  0  0  0  0
   56.3000   22.5490   42.7160 C   0  0  0  0  0  0  0  0  0  0  0  0
   55.8230   23.3610   43.7490 C   0  0  0  0  0  0  0  0  0  0  0  0
   57.4770   24.6300   46.8470 C   0  0  0  0  0  0  0  0  0  0  0  0
   58.0860   23.3970   47.0550 O   0  0  0  0  0  0  0  0  0  0  0  0
   59.5320   29.2400   47.1900 C   0  0  0  0  0  0  0  0  0  0  0  0
   58.9430   30.4230   46.7330 C   0  0  0  0  0  0  0  0  0  0  0  0
   58.1208   33.0376   46.9591 H   0  0  0  0  0  0  0  0  0  0  0  0
   59.2682   33.6697   45.7301 H   0  0  0  0  0  0  0  0  0  0  0  0
   57.5586   34.2208   45.7301 H   0  0  0  0  0  0  0  0  0  0  0  0
   58.4176   29.5520   43.4688 H   0  0  0  0  0  0  0  0  0  0  0  0
   59.4709   27.4432   44.2797 H   0  0  0  0  0  0  0  0  0  0  0  0
   60.7530   26.3248   45.9252 H   0  0  0  0  0  0  0  0  0  0  0  0
   61.2100   27.1433   47.4661 H   0  0  0  0  0  0  0  0  0  0  0  0
   59.7010   25.6530   48.4280 H   0  0  0  0  0  0  0  0  0  0  0  0
   57.2454   27.9172   46.7993 H   0  0  0  0  0  0  0  0  0  0  0  0
   55.1045   23.1295   47.0852 H   0  0  0  0  0  0  0  0  0  0  0  0
   54.2689   24.1917   45.8951 H   0  0  0  0  0  0  0  0  0  0  0  0
   55.9978   21.1142   46.3254 H   0  0  0  0  0  0  0  0  0  0  0  0
   56.8397   19.6701   44.4739 H   0  0  0  0  0  0  0  0  0  0  0  0
   57.0363   20.5883   42.1601 H   0  0  0  0  0  0  0  0  0  0  0  0
   56.3895   22.9532   41.6969 H   0  0  0  0  0  0  0  0  0  0  0  0
   55.5454   24.4050   43.5419 H   0  0  0  0  0  0  0  0  0  0  0  0
   59.8359   29.1508   48.2434 H   0  0  0  0  0  0  0  0  0  0  0  0
   58.7871   31.2612   47.4280 H   0  0  0  0  0  0  0  0  0  0  0  0
  1  2  1  0
  2  3  2  0
  2  4  2  0
  2  5  1  0
  5  6  2  0
  6  7  1  0
  7  8  2  0
  8  9  1  0
  9 10  1  0
 10 11  1  0
 11 12  1  0
 12 13  2  0
 13 14  1  0
 13 15  1  0
 15 16  1  0
 16 17  1  0
 17 18  2  0
 18 19  1  0
 19 20  2  0
 20 21  1  0
 21 22  2  0
 15 23  1  0
 23 24  1  0
  8 25  1  0
 25 26  2  0
 26  5  1  0
 23 11  2  0
 22 17  1  0
  1 27  1  0
  1 28  1  0
  1 29  1  0
  6 30  1  0
  7 31  1  0
  9 32  1  0
  9 33  1  0
 10 34  1  0
 12 35  1  0
 16 36  1  0
 16 37  1  0
 18 38  1  0
 19 39  1  0
 20 40  1  0
 21 41  1  0
 22 42  1  0
 25 43  1  0
 26 44  1  0
M  CHG  2  14  -1  24  -1
M  END
>  <UniqueID>  (90) 
88

>  <SMILES>  (90) 
CS(=O)(=O)c1ccc(CNc2cc([O-])n(Cc3ccccc3)c2[O-])cc1

>  <Energy>  (90) 
68.72529590591847

>  <Genealogy>  (90) 
CS(=O)(=O)c1ccc(CNc2cc([O-])n(Cc3ccccc3)c2[O-])cc1 (protonated)
CS(=O)(=O)c1ccc(CNc2cc([O-])n(Cc3ccccc3)c2[O-])cc1 (3D coordinates assigned)
CS(=O)(=O)c1ccc(CNc2cc([O-])n(Cc3ccccc3)c2[O-])cc1 (optimized conformer: 68.72529590591847 kcal/mol)

>  <smiles>  (90) 
CS(=O)(=O)c1ccc(CNc2cc(O)n(Cc3ccccc3)c2O)cc1

>  <score_type>  (90) 
oracle

>  <origin>  (90) 
adg

>  <m_score__min__energy>  (90) 
-13.77

>  <m_primary>  (90) 
energy

$$$$
90:0
     RDKit          3D

 49 51  0  0  0  0  0  0  0  0999 V2000
   61.5960   30.9320   47.3770 C   0  0  0  0  0  0  0  0  0  0  0  0
   60.7830   30.7110   48.6230 C   0  0  0  0  0  0  0  0  0  0  0  0
   61.1420   29.6880   49.5140 C   0  0  0  0  0  0  0  0  0  0  0  0
   60.4230   29.4950   50.6940 C   0  0  0  0  0  0  0  0  0  0  0  0
   59.3530   30.3310   51.0100 C   0  0  0  0  0  0  0  0  0  0  0  0
   58.9830   31.3700   50.1400 C   0  0  0  0  0  0  0  0  0  0  0  0
   57.8490   32.2860   50.5130 C   0  0  0  0  0  0  0  0  0  0  0  0
   59.6900   31.5510   48.9300 C   0  0  0  0  0  0  0  0  0  0  0  0
   59.3160   32.6050   48.0300 N   0  0  0  0  0  0  0  0  0  0  0  0
   58.6200   32.2830   46.9370 N   0  0  0  0  0  0  0  0  0  0  0  0
   58.2530   33.2050   46.0070 C   0  0  0  0  0  0  0  0  0  0  0  0
   57.4630   32.8210   44.8130 C   0  0  0  0  0  0  0  0  0  0  0  0
   57.6060   31.6830   44.1120 C   0  0  0  0  0  0  0  0  0  0  0  0
   57.9350   30.3680   44.6930 C   0  0  0  0  0  0  0  0  0  0  0  0
   59.2560   30.0450   45.0400 C   0  0  0  0  0  0  0  0  0  0  0  0
   59.5480   28.7970   45.5910 C   0  0  0  0  0  0  0  0  0  0  0  0
   58.5320   27.8580   45.7870 C   0  0  0  0  0  0  0  0  0  0  0  0
   57.2040   28.1630   45.4350 C   0  0  0  0  0  0  0  0  0  0  0  0
   56.1310   27.2220   45.6140 N   0  0  0  0  0  0  0  0  0  0  0  0
   56.3410   25.5590   46.0700 S   0  0  0  0  0  0  0  0  0  0  0  0
   55.0060   24.8700   46.1370 O   0  0  0  0  0  0  0  0  0  0  0  0
   56.9690   25.5130   47.4350 O   0  0  0  0  0  0  0  0  0  0  0  0
   57.4210   24.7240   44.9240 C   0  0  0  0  0  0  0  0  0  0  0  0
   58.6250   24.4470   45.5420 F   0  0  0  0  0  0  0  0  0  0  0  0
   56.8340   23.5400   44.5180 F   0  0  0  0  0  0  0  0  0  0  0  0
   57.6450   25.5180   43.8180 F   0  0  0  0  0  0  0  0  0  0  0  0
   56.9210   29.4150   44.8660 C   0  0  0  0  0  0  0  0  0  0  0  0
   58.5900   34.5450   46.2200 C   0  0  0  0  0  0  0  0  0  0  0  0
   59.3010   34.8960   47.3650 C   0  0  0  0  0  0  0  0  0  0  0  0
   59.6630   33.9040   48.2760 C   0  0  0  0  0  0  0  0  0  0  0  0
   60.3010   34.2160   49.3180 O   0  0  0  0  0  0  0  0  0  0  0  0
   62.6232   31.2112   47.6542 H   0  0  0  0  0  0  0  0  0  0  0  0
   61.6153   30.0065   46.7828 H   0  0  0  0  0  0  0  0  0  0  0  0
   61.1441   31.7399   46.7828 H   0  0  0  0  0  0  0  0  0  0  0  0
   61.9954   29.0343   49.2807 H   0  0  0  0  0  0  0  0  0  0  0  0
   60.7016   28.6797   51.3779 H   0  0  0  0  0  0  0  0  0  0  0  0
   58.7955   30.1762   51.9456 H   0  0  0  0  0  0  0  0  0  0  0  0
   57.7727   32.3477   51.6086 H   0  0  0  0  0  0  0  0  0  0  0  0
   58.0370   33.2887   50.1015 H   0  0  0  0  0  0  0  0  0  0  0  0
   56.9083   31.8913   50.1015 H   0  0  0  0  0  0  0  0  0  0  0  0
   56.6932   33.5284   44.4710 H   0  0  0  0  0  0  0  0  0  0  0  0
   57.4671   31.7366   43.0221 H   0  0  0  0  0  0  0  0  0  0  0  0
   60.0615   30.7762   44.8774 H   0  0  0  0  0  0  0  0  0  0  0  0
   60.5826   28.5511   45.8724 H   0  0  0  0  0  0  0  0  0  0  0  0
   58.7715   26.8750   46.2188 H   0  0  0  0  0  0  0  0  0  0  0  0
   55.1470   27.5700   45.5620 H   0  0  0  0  0  0  0  0  0  0  0  0
   55.8933   29.6507   44.5527 H   0  0  0  0  0  0  0  0  0  0  0  0
   58.2966   35.3143   45.4906 H   0  0  0  0  0  0  0  0  0  0  0  0
   59.5744   35.9455   47.5490 H   0  0  0  0  0  0  0  0  0  0  0  0
  1  2  1  0
  2  3  2  0
  3  4  1  0
  4  5  2  0
  5  6  1  0
  6  7  1  0
  6  8  2  0
  8  9  1  0
  9 10  1  0
 10 11  2  0
 11 12  1  0
 12 13  2  3
 13 14  1  0
 14 15  2  0
 15 16  1  0
 16 17  2  0
 17 18  1  0
 18 19  1  0
 19 20  1  0
 20 21  2  0
 20 22  2  0
 20 23  1  0
 23 24  1  0
 23 25  1  0
 23 26  1  0
 18 27  2  0
 11 28  1  0
 28 29  2  0
 29 30  1  0
 30 31  2  0
  8  2  1  0
 30  9  1  0
 27 14  1  0
  1 32  1  0
  1 33  1  0
  1 34  1  0
  3 35  1  0
  4 36  1  0
  5 37  1  0
  7 38  1  0
  7 39  1  0
  7 40  1  0
 12 41  1  0
 13 42  1  0
 15 43  1  0
 16 44  1  0
 17 45  1  0
 19 46  1  0
 27 47  1  0
 28 48  1  0
 29 49  1  0
M  END
>  <UniqueID>  (91) 
89

>  <SMILES>  (91) 
Cc1cccc(C)c1-n1nc(C=Cc2cccc(NS(=O)(=O)C(F)(F)F)c2)ccc1=O

>  <Energy>  (91) 
62.9749198812035

>  <Genealogy>  (91) 
Cc1cccc(C)c1-n1nc(C=Cc2cccc(NS(=O)(=O)C(F)(F)F)c2)ccc1=O (3D coordinates assigned)
Cc1cccc(C)c1-n1nc(C=Cc2cccc(NS(=O)(=O)C(F)(F)F)c2)ccc1=O (optimized conformer: 62.9749198812035 kcal/mol)

>  <smiles>  (91) 
Cc1cccc(C)c1-n1nc(C=Cc2cccc(NS(=O)(=O)C(F)(F)F)c2)ccc1=O

>  <score_type>  (91) 
oracle

>  <origin>  (91) 
adg

>  <m_score__min__energy>  (91) 
-9

>  <m_primary>  (91) 
energy

$$$$
91:0
     RDKit          3D

 21 22  0  0  0  0  0  0  0  0999 V2000
   55.1470   26.7160   45.9940 O   0  0  0  0  0  0  0  0  0  0  0  0
   55.8910   25.7950   46.4230 C   0  0  0  0  0  0  0  0  0  0  0  0
   55.4590   24.4770   46.3610 O   0  0  0  0  0  0  0  0  0  0  0  0
   57.2160   26.1220   47.0360 C   0  0  0  0  0  0  0  0  0  0  0  0
   58.0400   26.8220   46.1060 O   0  0  0  0  0  0  0  0  0  0  0  0
   58.2870   28.2040   46.1300 C   0  0  0  0  0  0  0  0  0  0  0  0
   59.4030   28.7870   46.7820 C   0  0  0  0  0  0  0  0  0  0  0  0
   59.5910   30.1880   46.7680 C   0  0  0  0  0  0  0  0  0  0  0  0
   58.6750   31.0260   46.1050 C   0  0  0  0  0  0  0  0  0  0  0  0
   58.9230   32.9200   46.0810 Br  0  0  0  0  0  0  0  0  0  0  0  0
   57.5880   30.4250   45.4720 C   0  0  0  0  0  0  0  0  0  0  0  0
   56.5990   31.0270   44.7850 N   0  0  0  0  0  0  0  0  0  0  0  0
   55.8330   29.9760   44.3990 C   0  0  0  0  0  0  0  0  0  0  0  0
   54.7820   30.1130   43.7200 O   0  0  0  0  0  0  0  0  0  0  0  0
   56.2910   28.7700   44.8070 N   0  0  0  0  0  0  0  0  0  0  0  0
   57.4060   29.0710   45.4860 C   0  0  0  0  0  0  0  0  0  0  0  0
   57.0580   26.7514   47.9242 H   0  0  0  0  0  0  0  0  0  0  0  0
   57.7173   25.1845   47.3184 H   0  0  0  0  0  0  0  0  0  0  0  0
   60.1280   28.1442   47.3027 H   0  0  0  0  0  0  0  0  0  0  0  0
   60.4604   30.6268   47.2795 H   0  0  0  0  0  0  0  0  0  0  0  0
   55.8730   27.8290   44.6320 H   0  0  0  0  0  0  0  0  0  0  0  0
  1  2  2  0
  2  3  1  0
  2  4  1  0
  4  5  1  0
  5  6  1  0
  6  7  2  0
  7  8  1  0
  8  9  2  0
  9 10  1  0
  9 11  1  0
 11 12  1  0
 12 13  1  0
 13 14  2  0
 13 15  1  0
 15 16  1  0
 16  6  1  0
 16 11  2  0
  4 17  1  0
  4 18  1  0
  7 19  1  0
  8 20  1  0
 15 21  1  0
M  CHG  2   3  -1  12  -1
M  END
>  <UniqueID>  (92) 
90

>  <SMILES>  (92) 
O=C([O-])COc1ccc(Br)c2[n-]c(=O)[nH]c12

>  <Energy>  (92) 
57.69485345434413

>  <Genealogy>  (92) 
O=C([O-])COc1ccc(Br)c2[n-]c(=O)[nH]c12 (protonated)
O=C([O-])COc1ccc(Br)c2[n-]c(=O)[nH]c12 (3D coordinates assigned)
O=C([O-])COc1ccc(Br)c2[n-]c(=O)[nH]c12 (optimized conformer: 57.69485345434413 kcal/mol)

>  <smiles>  (92) 
O=C(O)COc1ccc(Br)c2[nH]c(=O)[nH]c12

>  <score_type>  (92) 
oracle

>  <origin>  (92) 
adg

>  <m_score__min__energy>  (92) 
-11.390000000000001

>  <m_primary>  (92) 
energy

$$$$
92:0
     RDKit          3D

 45 46  0  0  0  0  0  0  0  0999 V2000
   55.1030   27.1040   45.3120 H   0  0  0  0  0  0  0  0  0  0  0  0
   54.8900   26.3330   45.9840 N   0  0  0  0  0  0  0  0  0  0  0  0
   56.3090   25.3510   46.0920 S   0  0  0  0  0  0  0  0  0  0  0  0
   56.3920   24.7390   47.4620 O   0  0  0  0  0  0  0  0  0  0  0  0
   56.2380   24.2490   45.0740 O   0  0  0  0  0  0  0  0  0  0  0  0
   57.7310   26.3470   45.7950 C   0  0  0  0  0  0  0  0  0  0  0  0
   58.0740   26.7130   44.4880 C   0  0  0  0  0  0  0  0  0  0  0  0
   57.4461   26.3903   43.6444 H   0  0  0  0  0  0  0  0  0  0  0  0
   59.2120   27.4870   44.2540 C   0  0  0  0  0  0  0  0  0  0  0  0
   59.4776   27.7730   43.2256 H   0  0  0  0  0  0  0  0  0  0  0  0
   60.0150   27.9000   45.3200 C   0  0  0  0  0  0  0  0  0  0  0  0
   60.9136   28.5042   45.1265 H   0  0  0  0  0  0  0  0  0  0  0  0
   59.6790   27.5460   46.6420 C   0  0  0  0  0  0  0  0  0  0  0  0
   60.5060   27.9440   47.8090 C   0  0  0  0  0  0  0  0  0  0  0  0
   61.2548   27.2304   48.1831 H   0  0  0  0  0  0  0  0  0  0  0  0
   60.3900   29.1260   48.4320 C   0  0  0  0  0  0  0  0  0  0  0  0
   60.9771   29.2990   49.3460 H   0  0  0  0  0  0  0  0  0  0  0  0
   59.5100   30.2030   47.9450 C   0  0  0  0  0  0  0  0  0  0  0  0
   58.4820   29.9900   47.1550 O   0  0  0  0  0  0  0  0  0  0  0  0
   57.8800   31.1080   46.8760 N   0  0  0  0  0  0  0  0  0  0  0  0
   57.0370   31.1950   46.2670 H   0  0  0  0  0  0  0  0  0  0  0  0
   58.5340   32.1010   47.5060 C   0  0  0  0  0  0  0  0  0  0  0  0
   58.1590   33.5180   47.4390 C   0  0  0  0  0  0  0  0  0  0  0  0
   56.9800   33.8420   47.1290 O   0  0  0  0  0  0  0  0  0  0  0  0
   59.1160   34.4980   47.7280 O   0  0  0  0  0  0  0  0  0  0  0  0
   60.0400   35.0020   46.7670 C   0  0  0  0  0  0  0  0  0  0  0  0
   60.4978   35.9244   47.1538 H   0  0  0  0  0  0  0  0  0  0  0  0
   60.8144   34.2423   46.5850 H   0  0  0  0  0  0  0  0  0  0  0  0
   59.3250   35.3090   45.4450 C   0  0  0  0  0  0  0  0  0  0  0  0
   58.2879   35.6018   45.6658 H   0  0  0  0  0  0  0  0  0  0  0  0
   59.8798   36.1184   44.9479 H   0  0  0  0  0  0  0  0  0  0  0  0
   59.3030   34.1050   44.4870 C   0  0  0  0  0  0  0  0  0  0  0  0
   59.6755   34.4338   43.5056 H   0  0  0  0  0  0  0  0  0  0  0  0
   59.9369   33.3243   44.9329 H   0  0  0  0  0  0  0  0  0  0  0  0
   57.9080   33.5010   44.2990 C   0  0  0  0  0  0  0  0  0  0  0  0
   57.2160   33.9535   45.0245 H   0  0  0  0  0  0  0  0  0  0  0  0
   57.5656   33.7044   43.2736 H   0  0  0  0  0  0  0  0  0  0  0  0
   57.9470   32.0920   44.5030 O   0  0  0  0  0  0  0  0  0  0  0  0
   57.0320   31.2410   43.9160 N   0  0  0  0  0  0  0  0  0  0  0  0
   56.2240   30.5880   44.6090 O   0  0  0  0  0  0  0  0  0  0  0  0
   57.0090   31.1130   42.5480 O   0  0  0  0  0  0  0  0  0  0  0  0
   59.5940   31.5630   48.2100 C   0  0  0  0  0  0  0  0  0  0  0  0
   60.3315   32.0889   48.8341 H   0  0  0  0  0  0  0  0  0  0  0  0
   58.5390   26.7540   46.8650 C   0  0  0  0  0  0  0  0  0  0  0  0
   58.2787   26.4508   47.8898 H   0  0  0  0  0  0  0  0  0  0  0  0
  1  2  1  0
  2  3  1  0
  3  4  2  0
  3  5  2  0
  3  6  1  0
  6  7  2  0
  7  8  1  0
  7  9  1  0
  9 10  1  0
  9 11  2  0
 11 12  1  0
 11 13  1  0
 13 14  1  0
 14 15  1  0
 14 16  2  0
 16 17  1  0
 16 18  1  0
 18 19  1  0
 19 20  1  0
 20 21  1  0
 20 22  2  0
 22 23  1  0
 23 24  2  0
 23 25  1  0
 25 26  1  0
 26 27  1  0
 26 28  1  0
 26 29  1  0
 29 30  1  0
 29 31  1  0
 29 32  1  0
 32 33  1  0
 32 34  1  0
 32 35  1  0
 35 36  1  0
 35 37  1  0
 35 38  1  0
 38 39  1  0
 39 40  2  0
 39 41  1  0
 22 42  1  0
 42 43  1  0
 13 44  2  0
 44 45  1  0
 44  6  1  0
 42 18  2  0
M  CHG  4   2  -1  20   1  39   1  41  -1
M  END
>  <UniqueID>  (93) 
91

>  <SMILES>  (93) 
[NH-]S(=O)(=O)c1cccc(/C=C/c2cc(C(=O)OCCCCO[N+](=O)[O-])[nH+]o2)c1

>  <Energy>  (93) 
68.69007157794358

>  <Genealogy>  (93) 
[NH-]S(=O)(=O)c1cccc(C=Cc2cc(C(=O)OCCCCO[N+](=O)[O-])[nH+]o2)c1 (protonated)
[NH-]S(=O)(=O)c1cccc(/C=C/c2cc(C(=O)OCCCCO[N+](=O)[O-])[nH+]o2)c1 (cis-trans isomerization)
[NH-]S(=O)(=O)c1cccc(/C=C/c2cc(C(=O)OCCCCO[N+](=O)[O-])[nH+]o2)c1 (3D coordinates assigned)
[NH-]S(=O)(=O)c1cccc(/C=C/c2cc(C(=O)OCCCCO[N+](=O)[O-])[nH+]o2)c1 (optimized conformer: 68.69007157794358 kcal/mol)

>  <smiles>  (93) 
NS(=O)(=O)c1cccc(C=Cc2cc(C(=O)OCCCCO[N+](=O)[O-])no2)c1

>  <score_type>  (93) 
oracle

>  <origin>  (93) 
adg

>  <m_score__min__energy>  (93) 
-10.24

>  <m_primary>  (93) 
energy

$$$$
93:0
     RDKit          3D

 65 67  0  0  0  0  0  0  0  0999 V2000
   55.5170   25.5640   45.7230 C   0  0  0  0  0  0  0  0  0  0  0  0
   56.1220   26.8360   45.9380 O   0  0  0  0  0  0  0  0  0  0  0  0
   57.4930   27.0370   46.1630 C   0  0  0  0  0  0  0  0  0  0  0  0
   58.1390   26.5620   47.3230 C   0  0  0  0  0  0  0  0  0  0  0  0
   59.5020   26.8040   47.5180 C   0  0  0  0  0  0  0  0  0  0  0  0
   60.2330   27.5210   46.5660 C   0  0  0  0  0  0  0  0  0  0  0  0
   59.6040   27.9910   45.4120 C   0  0  0  0  0  0  0  0  0  0  0  0
   58.2390   27.7460   45.2030 C   0  0  0  0  0  0  0  0  0  0  0  0
   57.6130   28.2080   44.0000 N   0  0  0  0  0  0  0  0  0  0  0  0
   57.7690   27.4450   42.7650 C   0  0  0  0  0  0  0  0  0  0  0  0
   56.6320   29.6400   44.0370 S   0  0  0  0  0  0  0  0  0  0  0  0
   56.3170   30.0730   42.6330 O   0  0  0  0  0  0  0  0  0  0  0  0
   55.3350   29.3440   44.7380 O   0  0  0  0  0  0  0  0  0  0  0  0
   57.4850   30.9280   44.8840 C   0  0  0  0  0  0  0  0  0  0  0  0
   57.5290   32.2210   44.3450 C   0  0  0  0  0  0  0  0  0  0  0  0
   58.1900   33.2460   45.0260 C   0  0  0  0  0  0  0  0  0  0  0  0
   58.8180   32.9870   46.2480 C   0  0  0  0  0  0  0  0  0  0  0  0
   59.4640   33.9870   46.9010 N   0  0  0  0  0  0  0  0  0  0  0  0
   60.0950   33.7840   48.0860 C   0  0  0  0  0  0  0  0  0  0  0  0
   60.1000   32.5130   48.6870 C   0  0  0  0  0  0  0  0  0  0  0  0
   60.7930   32.2960   49.9870 C   0  0  0  0  0  0  0  0  0  0  0  0
   61.6180   31.3450   50.0860 O   0  0  0  0  0  0  0  0  0  0  0  0
   60.5390   33.1570   51.1330 N   0  0  2  0  0  0  0  0  0  0  0  0
   61.1500   32.5910   52.3650 C   0  0  0  0  0  0  0  0  0  0  0  0
   62.6550   32.8980   52.4530 C   0  0  0  0  0  0  0  0  0  0  0  0
   62.9580   34.1150   51.7720 O   0  0  0  0  0  0  0  0  0  0  0  0
   63.2750   34.1760   50.4110 C   0  0  0  0  0  0  0  0  0  0  0  0
   64.4640   33.4350   49.8990 C   0  0  0  0  0  0  0  0  0  0  0  0
   62.5540   34.8280   49.6080 O   0  0  0  0  0  0  0  0  0  0  0  0
   59.0760   33.4450   51.2580 C   0  0  0  0  0  0  0  0  0  0  0  0
   58.1830   32.1860   51.2540 C   0  0  0  0  0  0  0  0  0  0  0  0
   58.7680   34.3000   52.5010 C   0  0  0  0  0  0  0  0  0  0  0  0
   59.4310   31.4560   48.0320 C   0  0  0  0  0  0  0  0  0  0  0  0
   59.4270   30.3000   48.5380 O   0  0  0  0  0  0  0  0  0  0  0  0
   58.7830   31.6890   46.8030 C   0  0  0  0  0  0  0  0  0  0  0  0
   58.1090   30.6640   46.1110 C   0  0  0  0  0  0  0  0  0  0  0  0
   55.2941   25.0954   46.6929 H   0  0  0  0  0  0  0  0  0  0  0  0
   54.5838   25.6931   45.1551 H   0  0  0  0  0  0  0  0  0  0  0  0
   56.2060   24.9216   45.1551 H   0  0  0  0  0  0  0  0  0  0  0  0
   57.5687   25.9993   48.0768 H   0  0  0  0  0  0  0  0  0  0  0  0
   60.0011   26.4290   48.4237 H   0  0  0  0  0  0  0  0  0  0  0  0
   61.3039   27.7147   46.7264 H   0  0  0  0  0  0  0  0  0  0  0  0
   60.1806   28.5552   44.6642 H   0  0  0  0  0  0  0  0  0  0  0  0
   57.9839   26.3939   43.0080 H   0  0  0  0  0  0  0  0  0  0  0  0
   56.8404   27.5032   42.1783 H   0  0  0  0  0  0  0  0  0  0  0  0
   58.6003   27.8630   42.1783 H   0  0  0  0  0  0  0  0  0  0  0  0
   57.0409   32.4296   43.3815 H   0  0  0  0  0  0  0  0  0  0  0  0
   58.2165   34.2597   44.5997 H   0  0  0  0  0  0  0  0  0  0  0  0
   60.6074   34.6223   48.5807 H   0  0  0  0  0  0  0  0  0  0  0  0
   61.0250   34.0670   50.9600 H   0  0  0  0  0  0  0  0  0  0  0  0
   60.6470   33.0237   53.2424 H   0  0  0  0  0  0  0  0  0  0  0  0
   61.0264   31.4984   52.3354 H   0  0  0  0  0  0  0  0  0  0  0  0
   62.9437   32.9933   53.5102 H   0  0  0  0  0  0  0  0  0  0  0  0
   63.2136   32.0771   51.9796 H   0  0  0  0  0  0  0  0  0  0  0  0
   65.0584   33.0646   50.7472 H   0  0  0  0  0  0  0  0  0  0  0  0
   64.1302   32.5848   49.2861 H   0  0  0  0  0  0  0  0  0  0  0  0
   65.0803   34.1092   49.2861 H   0  0  0  0  0  0  0  0  0  0  0  0
   58.8255   34.0146   50.3509 H   0  0  0  0  0  0  0  0  0  0  0  0
   57.9693   31.8847   52.2901 H   0  0  0  0  0  0  0  0  0  0  0  0
   57.2391   32.4076   50.7345 H   0  0  0  0  0  0  0  0  0  0  0  0
   58.7042   31.3684   50.7345 H   0  0  0  0  0  0  0  0  0  0  0  0
   58.9784   33.7159   53.4091 H   0  0  0  0  0  0  0  0  0  0  0  0
   59.3978   35.2018   52.4909 H   0  0  0  0  0  0  0  0  0  0  0  0
   57.7078   34.5930   52.4909 H   0  0  0  0  0  0  0  0  0  0  0  0
   58.0721   29.6501   46.5361 H   0  0  0  0  0  0  0  0  0  0  0  0
  1  2  1  0
  2  3  1  0
  3  4  2  0
  4  5  1  0
  5  6  2  0
  6  7  1  0
  7  8  2  0
  8  9  1  0
  9 10  1  0
  9 11  1  0
 11 12  2  0
 11 13  2  0
 11 14  1  0
 14 15  2  0
 15 16  1  0
 16 17  2  0
 17 18  1  0
 18 19  1  0
 19 20  2  0
 20 21  1  0
 21 22  2  0
 21 23  1  0
 23 24  1  0
 24 25  1  0
 25 26  1  0
 26 27  1  0
 27 28  1  0
 27 29  2  0
 23 30  1  0
 30 31  1  0
 30 32  1  0
 20 33  1  0
 33 34  2  0
 33 35  1  0
 35 36  2  0
  8  3  1  0
 36 14  1  0
 35 17  1  0
  1 37  1  0
  1 38  1  0
  1 39  1  0
  4 40  1  0
  5 41  1  0
  6 42  1  0
  7 43  1  0
 10 44  1  0
 10 45  1  0
 10 46  1  0
 15 47  1  0
 16 48  1  0
 19 49  1  0
 23 50  1  6
 24 51  1  0
 24 52  1  0
 25 53  1  0
 25 54  1  0
 28 55  1  0
 28 56  1  0
 28 57  1  0
 30 58  1  0
 31 59  1  0
 31 60  1  0
 31 61  1  0
 32 62  1  0
 32 63  1  0
 32 64  1  0
 36 65  1  0
M  CHG  2  18  -1  23   1
M  END
>  <UniqueID>  (94) 
92

>  <SMILES>  (94) 
COc1ccccc1N(C)S(=O)(=O)c1ccc2[n-]cc(C(=O)[N@H+](CCOC(C)=O)C(C)C)c(=O)c2c1

>  <Energy>  (94) 
80.10627570117857

>  <Genealogy>  (94) 
COc1ccccc1N(C)S(=O)(=O)c1ccc2[n-]cc(C(=O)[NH+](CCOC(C)=O)C(C)C)c(=O)c2c1 (protonated)
COc1ccccc1N(C)S(=O)(=O)c1ccc2[n-]cc(C(=O)[N@H+](CCOC(C)=O)C(C)C)c(=O)c2c1 (chirality)
COc1ccccc1N(C)S(=O)(=O)c1ccc2[n-]cc(C(=O)[N@H+](CCOC(C)=O)C(C)C)c(=O)c2c1 (3D coordinates assigned)
COc1ccccc1N(C)S(=O)(=O)c1ccc2[n-]cc(C(=O)[N@H+](CCOC(C)=O)C(C)C)c(=O)c2c1 (optimized conformer: 80.10627570117857 kcal/mol)

>  <smiles>  (94) 
COc1ccccc1N(C)S(=O)(=O)c1ccc2[nH]cc(C(=O)N(CCOC(C)=O)C(C)C)c(=O)c2c1

>  <score_type>  (94) 
oracle

>  <origin>  (94) 
adg

>  <m_score__min__energy>  (94) 
-8.6199999999999992

>  <m_primary>  (94) 
energy

$$$$
