0:0
     RDKit          3D

 41 44  0  0  0  0  0  0  0  0999 V2000
   57.7630   30.6400   43.1420 N   0  0  0  0  0  0  0  0  0  0  0  0
   57.2380   30.8150   44.7790 S   0  0  0  0  0  0  0  0  0  0  0  0
   56.5370   29.5620   45.2220 O   0  0  0  0  0  0  0  0  0  0  0  0
   56.2800   31.9700   44.8790 O   0  0  0  0  0  0  0  0  0  0  0  0
   58.6200   31.1100   45.8180 C   0  0  0  0  0  0  0  0  0  0  0  0
   59.7460   30.3030   45.9080 C   0  0  0  0  0  0  0  0  0  0  0  0
   60.6990   30.7920   46.8090 C   0  0  0  0  0  0  0  0  0  0  0  0
   60.3080   31.9810   47.4150 C   0  0  0  0  0  0  0  0  0  0  0  0
   61.0770   32.7160   48.3810 N   0  0  0  0  0  0  0  0  0  0  0  0
   60.7490   32.9850   49.6640 C   0  0  0  0  0  0  0  0  0  0  0  0
   59.6050   32.4170   50.4120 C   0  0  0  0  0  0  0  0  0  0  0  0
   59.2110   31.0880   50.1930 C   0  0  0  0  0  0  0  0  0  0  0  0
   58.1300   30.5470   50.8930 C   0  0  0  0  0  0  0  0  0  0  0  0
   57.4130   31.3280   51.8180 C   0  0  0  0  0  0  0  0  0  0  0  0
   56.2660   30.7530   52.5640 C   0  0  0  0  0  0  0  0  0  0  0  0
   56.4530   30.1850   53.8390 C   0  0  0  0  0  0  0  0  0  0  0  0
   55.3700   29.6430   54.5380 C   0  0  0  0  0  0  0  0  0  0  0  0
   54.0920   29.6610   53.9760 C   0  0  0  0  0  0  0  0  0  0  0  0
   53.8930   30.2210   52.7120 C   0  0  0  0  0  0  0  0  0  0  0  0
   54.9720   30.7650   52.0080 C   0  0  0  0  0  0  0  0  0  0  0  0
   57.7990   32.6650   52.0190 C   0  0  0  0  0  0  0  0  0  0  0  0
   58.8800   33.2060   51.3190 C   0  0  0  0  0  0  0  0  0  0  0  0
   61.7010   33.8350   50.1890 C   0  0  0  0  0  0  0  0  0  0  0  0
   62.6280   34.1060   49.2490 N   0  0  0  0  0  0  0  0  0  0  0  0
   62.2200   33.4100   48.1680 C   0  0  0  0  0  0  0  0  0  0  0  0
   62.9970   33.5070   46.7270 S   0  0  0  0  0  0  0  0  0  0  0  0
   58.7920   32.4360   46.8370 S   0  0  0  0  0  0  0  0  0  0  0  0
   57.7040   29.6240   42.9090 H   0  0  0  0  0  0  0  0  0  0  0  0
   58.7760   30.8950   43.1190 H   0  0  0  0  0  0  0  0  0  0  0  0
   59.8758   29.3755   45.3311 H   0  0  0  0  0  0  0  0  0  0  0  0
   61.6554   30.2893   47.0157 H   0  0  0  0  0  0  0  0  0  0  0  0
   59.7566   30.4687   49.4659 H   0  0  0  0  0  0  0  0  0  0  0  0
   57.8367   29.5011   50.7195 H   0  0  0  0  0  0  0  0  0  0  0  0
   57.4571   30.1676   54.2878 H   0  0  0  0  0  0  0  0  0  0  0  0
   55.5253   29.2012   55.5334 H   0  0  0  0  0  0  0  0  0  0  0  0
   53.2420   29.2342   54.5286 H   0  0  0  0  0  0  0  0  0  0  0  0
   52.8860   30.2342   52.2696 H   0  0  0  0  0  0  0  0  0  0  0  0
   54.8090   31.2053   51.0132 H   0  0  0  0  0  0  0  0  0  0  0  0
   57.2447   33.2907   52.7340 H   0  0  0  0  0  0  0  0  0  0  0  0
   59.1648   34.2563   51.4794 H   0  0  0  0  0  0  0  0  0  0  0  0
   61.7029   34.2301   51.2156 H   0  0  0  0  0  0  0  0  0  0  0  0
  1  2  1  0
  2  3  2  0
  2  4  2  0
  2  5  1  0
  5  6  2  0
  6  7  1  0
  7  8  2  0
  8  9  1  0
  9 10  1  0
 10 11  1  0
 11 12  2  0
 12 13  1  0
 13 14  2  0
 14 15  1  0
 15 16  2  0
 16 17  1  0
 17 18  2  0
 18 19  1  0
 19 20  2  0
 14 21  1  0
 21 22  2  0
 10 23  2  0
 23 24  1  0
 24 25  1  0
 25 26  2  0
  8 27  1  0
 27  5  1  0
 25  9  1  0
 22 11  1  0
 20 15  1  0
  1 28  1  0
  1 29  1  0
  6 30  1  0
  7 31  1  0
 12 32  1  0
 13 33  1  0
 16 34  1  0
 17 35  1  0
 18 36  1  0
 19 37  1  0
 20 38  1  0
 21 39  1  0
 22 40  1  0
 23 41  1  0
M  CHG  1  24  -1
M  END
>  <UniqueID>  (1) 
1

>  <SMILES>  (1) 
NS(=O)(=O)c1ccc(-n2c(-c3ccc(-c4ccccc4)cc3)c[n-]c2=S)s1

>  <Energy>  (1) 
116.34483235282312

>  <Genealogy>  (1) 
NS(=O)(=O)c1ccc(-n2c(-c3ccc(-c4ccccc4)cc3)c[n-]c2=S)s1 (protonated)
NS(=O)(=O)c1ccc(-n2c(-c3ccc(-c4ccccc4)cc3)c[n-]c2=S)s1 (3D coordinates assigned)
NS(=O)(=O)c1ccc(-n2c(-c3ccc(-c4ccccc4)cc3)c[n-]c2=S)s1 (optimized conformer: 116.34483235282312 kcal/mol)

>  <smiles>  (1) 
NS(=O)(=O)c1ccc(-n2c(-c3ccc(-c4ccccc4)cc3)c[nH]c2=S)s1

>  <score_type>  (1) 
oracle

>  <origin>  (1) 
adg

>  <m_score__min__energy>  (1) 
-9.6999999999999993

>  <m_primary>  (1) 
energy

$$$$
1:0
     RDKit          3D

 38 40  0  0  0  0  0  0  0  0999 V2000
   53.6460   25.9090   46.3870 H   0  0  0  0  0  0  0  0  0  0  0  0
   54.2730   25.7060   45.6190 O   0  0  0  0  0  0  0  0  0  0  0  0
   55.6470   25.6630   45.8250 C   0  0  0  0  0  0  0  0  0  0  0  0
   56.3140   26.5550   46.5210 O   0  0  0  0  0  0  0  0  0  0  0  0
   57.5900   26.2240   46.5200 C   0  0  0  0  0  0  0  0  0  0  0  0
   58.5440   26.9240   47.1590 C   0  0  0  0  0  0  0  0  0  0  0  0
   59.2441   26.3754   47.8062 H   0  0  0  0  0  0  0  0  0  0  0  0
   58.7060   28.3930   47.0410 C   0  0  0  0  0  0  0  0  0  0  0  0
   58.4950   28.9980   45.7980 C   0  0  0  0  0  0  0  0  0  0  0  0
   58.2286   28.3781   44.9292 H   0  0  0  0  0  0  0  0  0  0  0  0
   58.6190   30.3820   45.6480 C   0  0  0  0  0  0  0  0  0  0  0  0
   58.4643   30.8343   44.6573 H   0  0  0  0  0  0  0  0  0  0  0  0
   58.9400   31.2110   46.7480 C   0  0  0  0  0  0  0  0  0  0  0  0
   59.0720   32.6590   46.5940 N   0  0  0  0  0  0  0  0  0  0  0  0
   59.6050   33.4610   47.7160 C   0  0  0  0  0  0  0  0  0  0  0  0
   58.9820   33.2749   48.6033 H   0  0  0  0  0  0  0  0  0  0  0  0
   60.6498   33.1514   47.8660 H   0  0  0  0  0  0  0  0  0  0  0  0
   59.6180   34.9670   47.4410 C   0  0  0  0  0  0  0  0  0  0  0  0
   58.6167   35.3773   47.6384 H   0  0  0  0  0  0  0  0  0  0  0  0
   60.3638   35.4368   48.0991 H   0  0  0  0  0  0  0  0  0  0  0  0
   59.9690   35.2330   46.1040 O   0  0  0  0  0  0  0  0  0  0  0  0
   58.9170   34.8000   45.2770 C   0  0  0  0  0  0  0  0  0  0  0  0
   57.9714   35.2232   45.6469 H   0  0  0  0  0  0  0  0  0  0  0  0
   59.1164   35.1400   44.2501 H   0  0  0  0  0  0  0  0  0  0  0  0
   58.8140   33.2730   45.2730 C   0  0  0  0  0  0  0  0  0  0  0  0
   57.7998   32.9936   44.9517 H   0  0  0  0  0  0  0  0  0  0  0  0
   59.5879   32.8991   44.5866 H   0  0  0  0  0  0  0  0  0  0  0  0
   59.1310   30.5870   48.0030 C   0  0  0  0  0  0  0  0  0  0  0  0
   59.3813   31.2017   48.8802 H   0  0  0  0  0  0  0  0  0  0  0  0
   59.0070   29.2020   48.1470 C   0  0  0  0  0  0  0  0  0  0  0  0
   59.1467   28.7423   49.1365 H   0  0  0  0  0  0  0  0  0  0  0  0
   57.7620   25.0470   45.7850 C   0  0  0  0  0  0  0  0  0  0  0  0
   58.8960   24.3800   45.5420 C   0  0  0  0  0  0  0  0  0  0  0  0
   59.8496   24.7510   45.9457 H   0  0  0  0  0  0  0  0  0  0  0  0
   58.8748   23.4605   44.9385 H   0  0  0  0  0  0  0  0  0  0  0  0
   56.4970   24.6950   45.3410 C   0  0  0  0  0  0  0  0  0  0  0  0
   56.1270   23.5590   44.5370 C   0  0  0  0  0  0  0  0  0  0  0  0
   55.8290   22.6460   43.8910 N   0  0  0  0  0  0  0  0  0  0  0  0
  1  2  1  0
  2  3  1  0
  3  4  1  0
  4  5  1  0
  5  6  2  0
  6  7  1  0
  6  8  1  0
  8  9  2  0
  9 10  1  0
  9 11  1  0
 11 12  1  0
 11 13  2  0
 13 14  1  0
 14 15  1  0
 15 16  1  0
 15 17  1  0
 15 18  1  0
 18 19  1  0
 18 20  1  0
 18 21  1  0
 21 22  1  0
 22 23  1  0
 22 24  1  0
 22 25  1  0
 25 26  1  0
 25 27  1  0
 13 28  1  0
 28 29  1  0
 28 30  2  0
 30 31  1  0
  5 32  1  0
 32 33  2  0
 33 34  1  0
 33 35  1  0
 32 36  1  0
 36 37  1  0
 37 38  3  0
 36  3  2  0
 30  8  1  0
 25 14  1  0
M  END
>  <UniqueID>  (2) 
2

>  <SMILES>  (2) 
C=c1c(C#N)c(O)o/c1=C\c1ccc(N2CCOCC2)cc1

>  <Energy>  (2) 
80.97311598220622

>  <Genealogy>  (2) 
C=c1c(C#N)c(O)o/c1=C\c1ccc(N2CCOCC2)cc1 (cis-trans isomerization)
C=c1c(C#N)c(O)o/c1=C\c1ccc(N2CCOCC2)cc1 (3D coordinates assigned)
C=c1c(C#N)c(O)o/c1=C\c1ccc(N2CCOCC2)cc1 (nonaromatic ring conformer: 80.97311598220622 kcal/mol)

>  <smiles>  (2) 
C=c1c(C#N)c(O)oc1=Cc1ccc(N2CCOCC2)cc1

>  <score_type>  (2) 
oracle

>  <origin>  (2) 
adg

>  <m_score__min__energy>  (2) 
-7.6200000000000001

>  <m_primary>  (2) 
energy

$$$$
2:0
     RDKit          3D

 40 42  0  0  0  0  0  0  0  0999 V2000
   59.0716   33.4053   48.1168 H   0  0  0  0  0  0  0  0  0  0  0  0
   58.7570   33.3370   47.0650 C   0  0  0  0  0  0  0  0  0  0  0  0
   58.1470   32.1710   46.5920 C   0  0  0  0  0  0  0  0  0  0  0  0
   57.9861   31.3217   47.2723 H   0  0  0  0  0  0  0  0  0  0  0  0
   57.7400   32.0810   45.2540 C   0  0  0  0  0  0  0  0  0  0  0  0
   56.9590   30.6150   44.6650 S   0  0  0  0  0  0  0  0  0  0  0  0
   55.5220   30.9470   44.3810 O   0  0  0  0  0  0  0  0  0  0  0  0
   57.5910   30.1270   43.3920 O   0  0  0  0  0  0  0  0  0  0  0  0
   56.9920   29.3630   45.8690 N   0  0  0  0  0  0  0  0  0  0  0  0
   57.1990   28.0740   45.8090 C   0  0  0  0  0  0  0  0  0  0  0  0
   56.1550   27.2310   45.6280 N   0  0  0  0  0  0  0  0  0  0  0  0
   55.1470   27.4800   45.5060 H   0  0  0  0  0  0  0  0  0  0  0  0
   56.6950   26.0080   45.6430 C   0  0  0  0  0  0  0  0  0  0  0  0
   56.0490   24.7870   45.4720 C   0  0  0  0  0  0  0  0  0  0  0  0
   54.9592   24.7347   45.3323 H   0  0  0  0  0  0  0  0  0  0  0  0
   56.8370   23.6230   45.4840 C   0  0  0  0  0  0  0  0  0  0  0  0
   56.3595   22.6401   45.3585 H   0  0  0  0  0  0  0  0  0  0  0  0
   58.2460   23.7050   45.6570 C   0  0  0  0  0  0  0  0  0  0  0  0
   59.0660   22.5670   45.6650 O   0  0  0  0  0  0  0  0  0  0  0  0
   59.5000   21.8810   44.4950 C   0  0  0  0  0  0  0  0  0  0  0  0
   60.0673   20.9843   44.7849 H   0  0  0  0  0  0  0  0  0  0  0  0
   58.6250   21.5842   43.8981 H   0  0  0  0  0  0  0  0  0  0  0  0
   60.1430   22.5446   43.8981 H   0  0  0  0  0  0  0  0  0  0  0  0
   58.8560   24.9640   45.8230 C   0  0  0  0  0  0  0  0  0  0  0  0
   59.9453   25.0492   45.9504 H   0  0  0  0  0  0  0  0  0  0  0  0
   58.0430   26.1050   45.8220 C   0  0  0  0  0  0  0  0  0  0  0  0
   58.3980   27.4080   45.9400 N   0  0  0  0  0  0  0  0  0  0  0  0
   59.7870   27.8820   45.9510 C   0  0  0  0  0  0  0  0  0  0  0  0
   60.4630   27.0249   45.8151 H   0  0  0  0  0  0  0  0  0  0  0  0
   59.9872   28.3741   46.9142 H   0  0  0  0  0  0  0  0  0  0  0  0
   60.0180   28.8870   44.8260 C   0  0  0  0  0  0  0  0  0  0  0  0
   60.2448   29.8735   45.2565 H   0  0  0  0  0  0  0  0  0  0  0  0
   60.8632   28.5547   44.2053 H   0  0  0  0  0  0  0  0  0  0  0  0
   59.1126   28.9571   44.2053 H   0  0  0  0  0  0  0  0  0  0  0  0
   57.9580   33.1640   44.3890 C   0  0  0  0  0  0  0  0  0  0  0  0
   57.6479   33.0967   43.3358 H   0  0  0  0  0  0  0  0  0  0  0  0
   58.5690   34.3290   44.8640 C   0  0  0  0  0  0  0  0  0  0  0  0
   58.7365   35.1777   44.1846 H   0  0  0  0  0  0  0  0  0  0  0  0
   58.9670   34.4160   46.2010 C   0  0  0  0  0  0  0  0  0  0  0  0
   59.5590   35.5460   46.6600 F   0  0  0  0  0  0  0  0  0  0  0  0
  1  2  1  0
  2  3  2  0
  3  4  1  0
  3  5  1  0
  5  6  1  0
  6  7  2  0
  6  8  2  0
  6  9  1  0
  9 10  2  0
 10 11  1  0
 11 12  1  0
 11 13  1  0
 13 14  2  0
 14 15  1  0
 14 16  1  0
 16 17  1  0
 16 18  2  0
 18 19  1  0
 19 20  1  0
 20 21  1  0
 20 22  1  0
 20 23  1  0
 18 24  1  0
 24 25  1  0
 24 26  2  0
 26 27  1  0
 27 28  1  0
 28 29  1  0
 28 30  1  0
 28 31  1  0
 31 32  1  0
 31 33  1  0
 31 34  1  0
  5 35  2  0
 35 36  1  0
 35 37  1  0
 37 38  1  0
 37 39  2  0
 39 40  1  0
 39  2  1  0
 27 10  1  0
 26 13  1  0
M  END
>  <UniqueID>  (3) 
3

>  <SMILES>  (3) 
CCn1/c(=N\S(=O)(=O)c2ccc(F)cc2)[nH]c2ccc(OC)cc21

>  <Energy>  (3) 
92.62338108082474

>  <Genealogy>  (3) 
CCn1/c(=N\S(=O)(=O)c2ccc(F)cc2)[nH]c2ccc(OC)cc21 (cis-trans isomerization)
CCn1/c(=N\S(=O)(=O)c2ccc(F)cc2)[nH]c2ccc(OC)cc21 (3D coordinates assigned)
CCn1/c(=N\S(=O)(=O)c2ccc(F)cc2)[nH]c2ccc(OC)cc21 (optimized conformer: 92.62338108082474 kcal/mol)

>  <smiles>  (3) 
CCn1c(=NS(=O)(=O)c2ccc(F)cc2)[nH]c2ccc(OC)cc21

>  <score_type>  (3) 
oracle

>  <origin>  (3) 
adg

>  <m_score__min__energy>  (3) 
-8

>  <m_primary>  (3) 
energy

$$$$
3:0
     RDKit          3D

 57 60  0  0  0  0  0  0  0  0999 V2000
   54.9400   24.3800   45.6270 C   0  0  0  0  0  0  0  0  0  0  0  0
   55.0330   25.7620   45.9650 O   0  0  0  0  0  0  0  0  0  0  0  0
   56.2360   26.4290   46.2350 C   0  0  0  0  0  0  0  0  0  0  0  0
   57.0770   25.8990   47.2110 C   0  0  0  0  0  0  0  0  0  0  0  0
   58.2940   26.5160   47.5070 C   0  0  0  0  0  0  0  0  0  0  0  0
   58.6880   27.7020   46.8580 C   0  0  0  0  0  0  0  0  0  0  0  0
   57.8260   28.2540   45.8690 C   0  0  0  0  0  0  0  0  0  0  0  0
   56.6210   27.5990   45.5590 C   0  0  0  0  0  0  0  0  0  0  0  0
   58.1910   29.4400   45.1390 N   0  0  0  0  0  0  0  0  0  0  0  0
   57.2050   30.5140   44.9190 C   0  0  0  0  0  0  0  0  0  0  0  0
   57.7800   31.8610   45.2690 C   0  0  0  0  0  0  0  0  0  0  0  0
   57.7560   32.3240   46.5940 C   0  0  0  0  0  0  0  0  0  0  0  0
   58.2650   33.5870   46.9090 C   0  0  0  0  0  0  0  0  0  0  0  0
   58.8140   34.3870   45.9070 C   0  0  0  0  0  0  0  0  0  0  0  0
   58.8490   33.9320   44.5870 C   0  0  0  0  0  0  0  0  0  0  0  0
   58.3350   32.6710   44.2670 C   0  0  0  0  0  0  0  0  0  0  0  0
   59.6110   29.7060   44.9220 C   0  0  0  0  0  0  0  0  0  0  0  0
   60.2090   30.4680   46.1150 C   0  0  0  0  0  0  0  0  0  0  0  0
   60.1030   29.7400   47.4120 N   0  0  2  0  0  0  0  0  0  0  0  0
   61.1510   30.1390   48.4190 C   0  0  0  0  0  0  0  0  0  0  0  0
   61.8210   31.4890   48.1890 C   0  0  0  0  0  0  0  0  0  0  0  0
   63.0060   31.5240   47.4330 C   0  0  0  0  0  0  0  0  0  0  0  0
   63.6470   32.7330   47.1670 C   0  0  0  0  0  0  0  0  0  0  0  0
   63.1260   33.9240   47.6700 C   0  0  0  0  0  0  0  0  0  0  0  0
   61.9570   33.9110   48.4330 C   0  0  0  0  0  0  0  0  0  0  0  0
   61.2920   32.7020   48.7050 C   0  0  0  0  0  0  0  0  0  0  0  0
   60.0430   32.7360   49.5500 C   0  0  0  0  0  0  0  0  0  0  0  0
   60.0690   28.2650   47.2000 C   0  0  0  0  0  0  0  0  0  0  0  0
   54.8996   23.7793   46.5476 H   0  0  0  0  0  0  0  0  0  0  0  0
   54.0282   24.2075   45.0363 H   0  0  0  0  0  0  0  0  0  0  0  0
   55.8205   24.0869   45.0363 H   0  0  0  0  0  0  0  0  0  0  0  0
   56.7803   24.9884   47.7520 H   0  0  0  0  0  0  0  0  0  0  0  0
   58.9573   26.0674   48.2611 H   0  0  0  0  0  0  0  0  0  0  0  0
   55.9688   28.0095   44.7741 H   0  0  0  0  0  0  0  0  0  0  0  0
   56.9062   30.5155   43.8604 H   0  0  0  0  0  0  0  0  0  0  0  0
   56.3359   30.3272   45.5669 H   0  0  0  0  0  0  0  0  0  0  0  0
   57.3347   31.6899   47.3880 H   0  0  0  0  0  0  0  0  0  0  0  0
   58.2326   33.9500   47.9469 H   0  0  0  0  0  0  0  0  0  0  0  0
   59.2202   35.3782   46.1569 H   0  0  0  0  0  0  0  0  0  0  0  0
   59.2811   34.5657   43.7985 H   0  0  0  0  0  0  0  0  0  0  0  0
   58.3660   32.3136   43.2271 H   0  0  0  0  0  0  0  0  0  0  0  0
   60.1429   28.7509   44.8003 H   0  0  0  0  0  0  0  0  0  0  0  0
   59.7214   30.3221   44.0174 H   0  0  0  0  0  0  0  0  0  0  0  0
   61.2733   30.6544   45.9085 H   0  0  0  0  0  0  0  0  0  0  0  0
   59.6303   31.3973   46.2225 H   0  0  0  0  0  0  0  0  0  0  0  0
   59.1940   30.0160   47.8520 H   0  0  0  0  0  0  0  0  0  0  0  0
   60.6730   30.1652   49.4094 H   0  0  0  0  0  0  0  0  0  0  0  0
   61.9521   29.3911   48.3246 H   0  0  0  0  0  0  0  0  0  0  0  0
   63.4323   30.5863   47.0469 H   0  0  0  0  0  0  0  0  0  0  0  0
   64.5642   32.7471   46.5600 H   0  0  0  0  0  0  0  0  0  0  0  0
   63.6371   34.8763   47.4653 H   0  0  0  0  0  0  0  0  0  0  0  0
   61.5521   34.8555   48.8253 H   0  0  0  0  0  0  0  0  0  0  0  0
   60.3202   32.7285   50.6145 H   0  0  0  0  0  0  0  0  0  0  0  0
   59.4734   33.6500   49.3259 H   0  0  0  0  0  0  0  0  0  0  0  0
   59.4246   31.8544   49.3259 H   0  0  0  0  0  0  0  0  0  0  0  0
   60.7530   28.0213   46.3737 H   0  0  0  0  0  0  0  0  0  0  0  0
   60.3649   27.8060   48.1549 H   0  0  0  0  0  0  0  0  0  0  0  0
  1  2  1  0
  2  3  1  0
  3  4  2  0
  4  5  1  0
  5  6  2  0
  6  7  1  0
  7  8  2  0
  7  9  1  0
  9 10  1  0
 10 11  1  0
 11 12  2  0
 12 13  1  0
 13 14  2  0
 14 15  1  0
 15 16  2  0
  9 17  1  0
 17 18  1  0
 18 19  1  0
 19 20  1  0
 20 21  1  0
 21 22  2  0
 22 23  1  0
 23 24  2  0
 24 25  1  0
 25 26  2  0
 26 27  1  0
 19 28  1  0
  8  3  1  0
 16 11  1  0
 26 21  1  0
 28  6  1  0
  1 29  1  0
  1 30  1  0
  1 31  1  0
  4 32  1  0
  5 33  1  0
  8 34  1  0
 10 35  1  0
 10 36  1  0
 12 37  1  0
 13 38  1  0
 14 39  1  0
 15 40  1  0
 16 41  1  0
 17 42  1  0
 17 43  1  0
 18 44  1  0
 18 45  1  0
 19 46  1  1
 20 47  1  0
 20 48  1  0
 22 49  1  0
 23 50  1  0
 24 51  1  0
 25 52  1  0
 27 53  1  0
 27 54  1  0
 27 55  1  0
 28 56  1  0
 28 57  1  0
M  CHG  1  19   1
M  END
>  <UniqueID>  (4) 
4

>  <SMILES>  (4) 
COc1ccc2c(c1)N(Cc1ccccc1)CC[N@H+](Cc1ccccc1C)C2

>  <Energy>  (4) 
85.08807198596557

>  <Genealogy>  (4) 
COc1ccc2c(c1)N(Cc1ccccc1)CC[NH+](Cc1ccccc1C)C2 (protonated)
COc1ccc2c(c1)N(Cc1ccccc1)CC[N@H+](Cc1ccccc1C)C2 (chirality)
COc1ccc2c(c1)N(Cc1ccccc1)CC[N@H+](Cc1ccccc1C)C2 (3D coordinates assigned)
COc1ccc2c(c1)N(Cc1ccccc1)CC[N@H+](Cc1ccccc1C)C2 (nonaromatic ring conformer: 85.08807198596557 kcal/mol)

>  <smiles>  (4) 
COc1ccc2c(c1)N(Cc1ccccc1)CCN(Cc1ccccc1C)C2

>  <score_type>  (4) 
oracle

>  <origin>  (4) 
adg

>  <m_score__min__energy>  (4) 
-5.1900000000000004

>  <m_primary>  (4) 
energy

$$$$
4:0
     RDKit          3D

 38 39  0  0  0  0  0  0  0  0999 V2000
   57.8440   27.5240   43.9620 C   0  0  0  0  0  0  0  0  0  0  0  0
   56.8600   28.1790   45.2930 S   0  0  0  0  0  0  0  0  0  0  0  0
   55.7510   27.2200   45.6200 O   0  0  0  0  0  0  0  0  0  0  0  0
   57.7270   28.3410   46.5090 O   0  0  0  0  0  0  0  0  0  0  0  0
   56.2120   29.7320   44.8640 N   0  0  0  0  0  0  0  0  0  0  0  0
   56.9900   30.8810   44.5080 C   0  0  0  0  0  0  0  0  0  0  0  0
   57.0510   31.2200   43.2980 O   0  0  0  0  0  0  0  0  0  0  0  0
   57.7090   31.6820   45.5150 C   0  0  0  0  0  0  0  0  0  0  0  0
   58.4250   31.0440   46.5390 C   0  0  0  0  0  0  0  0  0  0  0  0
   59.1110   31.7950   47.5000 C   0  0  0  0  0  0  0  0  0  0  0  0
   60.0580   30.9560   48.7200 Cl  0  0  0  0  0  0  0  0  0  0  0  0
   59.0630   33.1990   47.4560 C   0  0  0  0  0  0  0  0  0  0  0  0
   59.7330   33.9750   48.4050 O   0  0  0  0  0  0  0  0  0  0  0  0
   61.0670   34.4460   48.2030 C   0  0  0  0  0  0  0  0  0  0  0  0
   61.9030   34.1620   49.4720 C   0  0  0  0  0  0  0  0  0  0  0  0
   62.6400   32.8220   49.3810 C   0  0  0  0  0  0  0  0  0  0  0  0
   63.6350   32.7950   48.1970 C   0  0  0  0  0  0  0  0  0  0  0  0
   64.8750   33.2270   48.6350 F   0  0  0  0  0  0  0  0  0  0  0  0
   63.7640   31.4890   47.7570 F   0  0  0  0  0  0  0  0  0  0  0  0
   63.1890   33.6860   47.0150 C   0  0  0  0  0  0  0  0  0  0  0  0
   61.6640   33.7940   46.9310 C   0  0  0  0  0  0  0  0  0  0  0  0
   58.3460   33.8360   46.4370 C   0  0  0  0  0  0  0  0  0  0  0  0
   57.6620   33.0860   45.4760 C   0  0  0  0  0  0  0  0  0  0  0  0
   56.9740   33.7270   44.4990 F   0  0  0  0  0  0  0  0  0  0  0  0
   58.6922   26.9594   44.3765 H   0  0  0  0  0  0  0  0  0  0  0  0
   57.2263   26.8563   43.3435 H   0  0  0  0  0  0  0  0  0  0  0  0
   58.2216   28.3516   43.3435 H   0  0  0  0  0  0  0  0  0  0  0  0
   58.4473   29.9453   46.5868 H   0  0  0  0  0  0  0  0  0  0  0  0
   61.0755   35.5336   48.0388 H   0  0  0  0  0  0  0  0  0  0  0  0
   62.6421   34.9668   49.5987 H   0  0  0  0  0  0  0  0  0  0  0  0
   61.2163   34.1164   50.3301 H   0  0  0  0  0  0  0  0  0  0  0  0
   63.1945   32.6560   50.3164 H   0  0  0  0  0  0  0  0  0  0  0  0
   61.8934   32.0305   49.2193 H   0  0  0  0  0  0  0  0  0  0  0  0
   63.6108   34.6931   47.1487 H   0  0  0  0  0  0  0  0  0  0  0  0
   63.5520   33.2270   46.0836 H   0  0  0  0  0  0  0  0  0  0  0  0
   61.3972   34.4066   46.0572 H   0  0  0  0  0  0  0  0  0  0  0  0
   61.2519   32.7782   46.8396 H   0  0  0  0  0  0  0  0  0  0  0  0
   58.3205   34.9348   46.3919 H   0  0  0  0  0  0  0  0  0  0  0  0
  1  2  1  0
  2  3  2  0
  2  4  2  0
  2  5  1  0
  5  6  1  0
  6  7  2  0
  6  8  1  0
  8  9  2  0
  9 10  1  0
 10 11  1  0
 10 12  2  0
 12 13  1  0
 13 14  1  0
 14 15  1  0
 15 16  1  0
 16 17  1  0
 17 18  1  0
 17 19  1  0
 17 20  1  0
 20 21  1  0
 12 22  1  0
 22 23  2  0
 23 24  1  0
 23  8  1  0
 21 14  1  0
  1 25  1  0
  1 26  1  0
  1 27  1  0
  9 28  1  0
 14 29  1  0
 15 30  1  0
 15 31  1  0
 16 32  1  0
 16 33  1  0
 20 34  1  0
 20 35  1  0
 21 36  1  0
 21 37  1  0
 22 38  1  0
M  CHG  1   5  -1
M  END
>  <UniqueID>  (5) 
5

>  <SMILES>  (5) 
CS(=O)(=O)[N-]C(=O)c1cc(Cl)c(OC2CCC(F)(F)CC2)cc1F

>  <Energy>  (5) 
50.31242411494647

>  <Genealogy>  (5) 
CS(=O)(=O)[N-]C(=O)c1cc(Cl)c(OC2CCC(F)(F)CC2)cc1F (protonated)
CS(=O)(=O)[N-]C(=O)c1cc(Cl)c(OC2CCC(F)(F)CC2)cc1F (3D coordinates assigned)
CS(=O)(=O)[N-]C(=O)c1cc(Cl)c(OC2CCC(F)(F)CC2)cc1F (nonaromatic ring conformer: 50.31242411494647 kcal/mol)

>  <smiles>  (5) 
CS(=O)(=O)NC(=O)c1cc(Cl)c(OC2CCC(F)(F)CC2)cc1F

>  <score_type>  (5) 
oracle

>  <origin>  (5) 
adg

>  <m_score__min__energy>  (5) 
-9.5099999999999998

>  <m_primary>  (5) 
energy

$$$$
5:0
     RDKit          3D

 39 41  0  0  0  0  0  0  0  0999 V2000
   51.8300   19.8040   45.7560 C   0  0  0  0  0  0  0  0  0  0  0  0
   51.3840   21.0590   45.1640 N   0  0  0  0  0  0  0  0  0  0  0  0
   52.4150   22.3640   45.6680 S   0  0  0  0  0  0  0  0  0  0  0  0
   52.4080   23.4120   44.5920 O   0  0  0  0  0  0  0  0  0  0  0  0
   51.8950   22.9910   46.9320 O   0  0  0  0  0  0  0  0  0  0  0  0
   54.0510   21.8130   45.8710 N   0  0  0  0  0  0  0  0  0  0  0  0
   55.2610   22.5580   45.6580 C   0  0  0  0  0  0  0  0  0  0  0  0
   56.4480   21.8430   45.4610 C   0  0  0  0  0  0  0  0  0  0  0  0
   57.6570   22.5160   45.2670 C   0  0  0  0  0  0  0  0  0  0  0  0
   57.6890   23.9110   45.2620 C   0  0  0  0  0  0  0  0  0  0  0  0
   56.5100   24.6470   45.4420 C   0  0  0  0  0  0  0  0  0  0  0  0
   56.5740   26.0840   45.4650 N   0  0  0  0  0  0  0  0  0  0  0  0
   57.3900   26.8360   46.3780 C   0  0  0  0  0  0  0  0  0  0  0  0
   57.8600   26.2760   47.4060 O   0  0  0  0  0  0  0  0  0  0  0  0
   57.6470   28.2740   46.1260 C   0  0  0  0  0  0  0  0  0  0  0  0
   58.7870   28.7960   46.5770 O   0  0  0  0  0  0  0  0  0  0  0  0
   59.1190   30.0730   46.4140 C   0  0  0  0  0  0  0  0  0  0  0  0
   60.3360   30.5410   46.9190 C   0  0  0  0  0  0  0  0  0  0  0  0
   60.6960   31.8810   46.7540 C   0  0  0  0  0  0  0  0  0  0  0  0
   59.8420   32.7600   46.0800 C   0  0  0  0  0  0  0  0  0  0  0  0
   58.6230   32.3020   45.5690 C   0  0  0  0  0  0  0  0  0  0  0  0
   58.2520   30.9550   45.7320 C   0  0  0  0  0  0  0  0  0  0  0  0
   57.0410   30.4450   45.2390 C   0  0  0  0  0  0  0  0  0  0  0  0
   56.2300   31.1890   44.6220 O   0  0  0  0  0  0  0  0  0  0  0  0
   56.7310   29.0950   45.4350 C   0  0  0  0  0  0  0  0  0  0  0  0
   55.5310   28.5880   44.9440 O   0  0  0  0  0  0  0  0  0  0  0  0
   55.2990   23.9640   45.6590 C   0  0  0  0  0  0  0  0  0  0  0  0
   51.8011   19.8852   46.8526 H   0  0  0  0  0  0  0  0  0  0  0  0
   51.1664   18.9891   45.4311 H   0  0  0  0  0  0  0  0  0  0  0  0
   52.8590   19.5906   45.4311 H   0  0  0  0  0  0  0  0  0  0  0  0
   56.4289   20.7432   45.4589 H   0  0  0  0  0  0  0  0  0  0  0  0
   58.5853   21.9451   45.1179 H   0  0  0  0  0  0  0  0  0  0  0  0
   58.6447   24.4358   45.1160 H   0  0  0  0  0  0  0  0  0  0  0  0
   55.9220   26.6100   44.8400 H   0  0  0  0  0  0  0  0  0  0  0  0
   61.0117   29.8525   47.4475 H   0  0  0  0  0  0  0  0  0  0  0  0
   61.6532   32.2454   47.1551 H   0  0  0  0  0  0  0  0  0  0  0  0
   60.1296   33.8139   45.9514 H   0  0  0  0  0  0  0  0  0  0  0  0
   57.9539   32.9959   45.0392 H   0  0  0  0  0  0  0  0  0  0  0  0
   54.3743   24.5345   45.8309 H   0  0  0  0  0  0  0  0  0  0  0  0
  1  2  1  0
  2  3  1  0
  3  4  2  0
  3  5  2  0
  3  6  1  0
  6  7  1  0
  7  8  2  0
  8  9  1  0
  9 10  2  0
 10 11  1  0
 11 12  1  0
 12 13  1  0
 13 14  2  0
 13 15  1  0
 15 16  1  0
 16 17  1  0
 17 18  2  0
 18 19  1  0
 19 20  2  0
 20 21  1  0
 21 22  2  0
 22 23  1  0
 23 24  2  0
 23 25  1  0
 25 26  1  0
 11 27  2  0
 27  7  1  0
 25 15  2  0
 22 17  1  0
  1 28  1  0
  1 29  1  0
  1 30  1  0
  8 31  1  0
  9 32  1  0
 10 33  1  0
 12 34  1  0
 18 35  1  0
 19 36  1  0
 20 37  1  0
 21 38  1  0
 27 39  1  0
M  CHG  3   2  -1   6  -1  26  -1
M  END
>  <UniqueID>  (6) 
6

>  <SMILES>  (6) 
C[N-]S(=O)(=O)[N-]c1cccc(NC(=O)c2oc3ccccc3c(=O)c2[O-])c1

>  <Energy>  (6) 
53.01182141802635

>  <Genealogy>  (6) 
C[N-]S(=O)(=O)[N-]c1cccc(NC(=O)c2oc3ccccc3c(=O)c2[O-])c1 (protonated)
C[N-]S(=O)(=O)[N-]c1cccc(NC(=O)c2oc3ccccc3c(=O)c2[O-])c1 (3D coordinates assigned)
C[N-]S(=O)(=O)[N-]c1cccc(NC(=O)c2oc3ccccc3c(=O)c2[O-])c1 (optimized conformer: 53.01182141802635 kcal/mol)

>  <smiles>  (6) 
CNS(=O)(=O)Nc1cccc(NC(=O)c2oc3ccccc3c(=O)c2O)c1

>  <score_type>  (6) 
oracle

>  <origin>  (6) 
adg

>  <m_score__min__energy>  (6) 
-12.85

>  <m_primary>  (6) 
energy

$$$$
6:0
     RDKit          3D

 52 54  0  0  0  0  0  0  0  0999 V2000
   61.3640   33.8140   46.5660 C   0  0  0  0  0  0  0  0  0  0  0  0
   60.0670   34.6030   46.4190 C   0  0  0  0  0  0  0  0  0  0  0  0
   58.9340   33.8900   47.0280 N   0  0  0  0  0  0  0  0  0  0  0  0
   57.6140   33.9260   46.3740 C   0  0  0  0  0  0  0  0  0  0  0  0
   57.7300   34.2100   44.8700 C   0  0  0  0  0  0  0  0  0  0  0  0
   57.7020   32.9790   44.0860 N   0  0  0  0  0  0  0  0  0  0  0  0
   57.3970   31.6730   44.5900 C   0  0  0  0  0  0  0  0  0  0  0  0
   56.2090   31.2640   44.5200 O   0  0  0  0  0  0  0  0  0  0  0  0
   58.4100   30.8520   45.1970 N   0  0  0  0  0  0  0  0  0  0  0  0
   58.2830   29.4340   45.4010 C   0  0  0  0  0  0  0  0  0  0  0  0
   59.4390   28.6400   45.4390 C   0  0  0  0  0  0  0  0  0  0  0  0
   59.3520   27.2560   45.6010 C   0  0  0  0  0  0  0  0  0  0  0  0
   58.0960   26.6310   45.7140 C   0  0  0  0  0  0  0  0  0  0  0  0
   57.9470   25.2340   45.8740 C   0  0  0  0  0  0  0  0  0  0  0  0
   59.1330   24.3070   45.9460 C   0  0  0  0  0  0  0  0  0  0  0  0
   56.6540   24.7030   45.9670 C   0  0  0  0  0  0  0  0  0  0  0  0
   55.5520   25.5580   45.9010 C   0  0  0  0  0  0  0  0  0  0  0  0
   54.3870   25.0910   45.9840 O   0  0  0  0  0  0  0  0  0  0  0  0
   55.7240   26.8660   45.7520 O   0  0  0  0  0  0  0  0  0  0  0  0
   56.9260   27.4270   45.6580 C   0  0  0  0  0  0  0  0  0  0  0  0
   57.0250   28.8120   45.4990 C   0  0  0  0  0  0  0  0  0  0  0  0
   59.1580   33.0680   48.1940 C   0  0  0  0  0  0  0  0  0  0  0  0
   58.9510   31.6790   48.1430 C   0  0  0  0  0  0  0  0  0  0  0  0
   59.1550   30.8930   49.2800 C   0  0  0  0  0  0  0  0  0  0  0  0
   59.5700   31.4820   50.4770 C   0  0  0  0  0  0  0  0  0  0  0  0
   59.7960   32.8650   50.5400 C   0  0  0  0  0  0  0  0  0  0  0  0
   60.2020   33.5110   51.8330 C   0  0  0  0  0  0  0  0  0  0  0  0
   59.5770   33.6530   49.4010 C   0  0  0  0  0  0  0  0  0  0  0  0
   61.5904   33.6763   47.6336 H   0  0  0  0  0  0  0  0  0  0  0  0
   61.2517   32.8310   46.0852 H   0  0  0  0  0  0  0  0  0  0  0  0
   62.1853   34.3657   46.0852 H   0  0  0  0  0  0  0  0  0  0  0  0
   60.1835   35.5787   46.9134 H   0  0  0  0  0  0  0  0  0  0  0  0
   59.8593   34.7316   45.3465 H   0  0  0  0  0  0  0  0  0  0  0  0
   57.1200   32.9534   46.5155 H   0  0  0  0  0  0  0  0  0  0  0  0
   57.0284   34.7374   46.8308 H   0  0  0  0  0  0  0  0  0  0  0  0
   56.8891   34.8486   44.5616 H   0  0  0  0  0  0  0  0  0  0  0  0
   58.6921   34.7114   44.6882 H   0  0  0  0  0  0  0  0  0  0  0  0
   59.2600   31.3180   45.5830 H   0  0  0  0  0  0  0  0  0  0  0  0
   60.4267   29.1140   45.3399 H   0  0  0  0  0  0  0  0  0  0  0  0
   60.2698   26.6509   45.6405 H   0  0  0  0  0  0  0  0  0  0  0  0
   59.3825   24.1120   46.9994 H   0  0  0  0  0  0  0  0  0  0  0  0
   58.8880   23.3586   45.4456 H   0  0  0  0  0  0  0  0  0  0  0  0
   59.9942   24.7738   45.4456 H   0  0  0  0  0  0  0  0  0  0  0  0
   56.5078   23.6198   46.0912 H   0  0  0  0  0  0  0  0  0  0  0  0
   56.1106   29.4215   45.4500 H   0  0  0  0  0  0  0  0  0  0  0  0
   58.6267   31.2082   47.2032 H   0  0  0  0  0  0  0  0  0  0  0  0
   58.9883   29.8067   49.2325 H   0  0  0  0  0  0  0  0  0  0  0  0
   59.7198   30.8600   51.3718 H   0  0  0  0  0  0  0  0  0  0  0  0
   59.8259   32.9125   52.6758 H   0  0  0  0  0  0  0  0  0  0  0  0
   61.2992   33.5690   51.8853 H   0  0  0  0  0  0  0  0  0  0  0  0
   59.7784   34.5248   51.8853 H   0  0  0  0  0  0  0  0  0  0  0  0
   59.7348   34.7404   49.4529 H   0  0  0  0  0  0  0  0  0  0  0  0
  1  2  1  0
  2  3  1  0
  3  4  1  0
  4  5  1  0
  5  6  1  0
  6  7  1  0
  7  8  2  0
  7  9  1  0
  9 10  1  0
 10 11  2  0
 11 12  1  0
 12 13  2  0
 13 14  1  0
 14 15  1  0
 14 16  2  0
 16 17  1  0
 17 18  2  0
 17 19  1  0
 19 20  1  0
 20 21  2  0
  3 22  1  0
 22 23  2  0
 23 24  1  0
 24 25  2  0
 25 26  1  0
 26 27  1  0
 26 28  2  0
 21 10  1  0
 28 22  1  0
 20 13  1  0
  1 29  1  0
  1 30  1  0
  1 31  1  0
  2 32  1  0
  2 33  1  0
  4 34  1  0
  4 35  1  0
  5 36  1  0
  5 37  1  0
  9 38  1  0
 11 39  1  0
 12 40  1  0
 15 41  1  0
 15 42  1  0
 15 43  1  0
 16 44  1  0
 21 45  1  0
 23 46  1  0
 24 47  1  0
 25 48  1  0
 27 49  1  0
 27 50  1  0
 27 51  1  0
 28 52  1  0
M  CHG  1   6  -1
M  END
>  <UniqueID>  (7) 
7

>  <SMILES>  (7) 
CCN(CC[N-]C(=O)Nc1ccc2c(C)cc(=O)oc2c1)c1cccc(C)c1

>  <Energy>  (7) 
57.81982752850032

>  <Genealogy>  (7) 
CCN(CC[N-]C(=O)Nc1ccc2c(C)cc(=O)oc2c1)c1cccc(C)c1 (protonated)
CCN(CC[N-]C(=O)Nc1ccc2c(C)cc(=O)oc2c1)c1cccc(C)c1 (3D coordinates assigned)
CCN(CC[N-]C(=O)Nc1ccc2c(C)cc(=O)oc2c1)c1cccc(C)c1 (optimized conformer: 57.81982752850032 kcal/mol)

>  <smiles>  (7) 
CCN(CCNC(=O)Nc1ccc2c(C)cc(=O)oc2c1)c1cccc(C)c1

>  <score_type>  (7) 
oracle

>  <origin>  (7) 
adg

>  <m_score__min__energy>  (7) 
-10.31

>  <m_primary>  (7) 
energy

$$$$
7:0
     RDKit          3D

 46 48  0  0  0  0  0  0  0  0999 V2000
   51.7642   23.4388   46.2198 H   0  0  0  0  0  0  0  0  0  0  0  0
   52.7240   22.9140   46.3350 C   0  0  0  0  0  0  0  0  0  0  0  0
   53.5110   22.5900   45.2730 N   0  0  0  0  0  0  0  0  0  0  0  0
   54.6340   21.9530   45.6620 C   0  0  0  0  0  0  0  0  0  0  0  0
   55.5300   21.5490   44.8140 N   0  0  0  0  0  0  0  0  0  0  0  0
   56.2260   22.5480   43.5770 S   0  0  0  0  0  0  0  0  0  0  0  0
   55.2070   22.7730   42.4960 O   0  0  0  0  0  0  0  0  0  0  0  0
   57.4160   21.8450   42.9870 O   0  0  0  0  0  0  0  0  0  0  0  0
   56.7520   24.0790   44.2700 C   0  0  0  0  0  0  0  0  0  0  0  0
   56.5260   24.3430   45.6250 C   0  0  0  0  0  0  0  0  0  0  0  0
   56.0308   23.5893   46.2548 H   0  0  0  0  0  0  0  0  0  0  0  0
   56.9270   25.5610   46.1820 C   0  0  0  0  0  0  0  0  0  0  0  0
   56.7538   25.7564   47.2506 H   0  0  0  0  0  0  0  0  0  0  0  0
   57.5490   26.5360   45.3870 C   0  0  0  0  0  0  0  0  0  0  0  0
   57.9690   27.7730   45.9870 N   0  0  0  0  0  0  0  0  0  0  0  0
   58.6300   27.7250   46.7950 H   0  0  0  0  0  0  0  0  0  0  0  0
   57.4120   29.0540   45.6460 C   0  0  0  0  0  0  0  0  0  0  0  0
   56.2760   29.1160   45.1010 O   0  0  0  0  0  0  0  0  0  0  0  0
   58.1340   30.3080   45.9730 C   0  0  0  0  0  0  0  0  0  0  0  0
   59.2090   30.3040   46.8750 C   0  0  0  0  0  0  0  0  0  0  0  0
   59.5183   29.3620   47.3514 H   0  0  0  0  0  0  0  0  0  0  0  0
   59.8880   31.4850   47.1720 C   0  0  0  0  0  0  0  0  0  0  0  0
   60.7274   31.4662   47.8827 H   0  0  0  0  0  0  0  0  0  0  0  0
   59.5120   32.6970   46.5740 C   0  0  0  0  0  0  0  0  0  0  0  0
   60.2750   33.8830   46.8520 N   0  0  0  0  0  0  0  0  0  0  0  0
   61.7330   33.8260   46.7420 C   0  0  0  0  0  0  0  0  0  0  0  0
   62.1763   33.8087   47.7486 H   0  0  0  0  0  0  0  0  0  0  0  0
   62.0243   32.9158   46.1974 H   0  0  0  0  0  0  0  0  0  0  0  0
   62.0945   34.7107   46.1974 H   0  0  0  0  0  0  0  0  0  0  0  0
   59.6770   34.9530   47.6480 C   0  0  0  0  0  0  0  0  0  0  0  0
   59.8025   34.7284   48.7175 H   0  0  0  0  0  0  0  0  0  0  0  0
   60.1732   35.9061   47.4128 H   0  0  0  0  0  0  0  0  0  0  0  0
   58.6052   35.0298   47.4128 H   0  0  0  0  0  0  0  0  0  0  0  0
   58.4250   32.7220   45.6680 C   0  0  0  0  0  0  0  0  0  0  0  0
   57.9740   33.9490   45.0620 N   0  0  0  0  0  0  0  0  0  0  0  0
   58.7820   34.7270   44.5150 O   0  0  0  0  0  0  0  0  0  0  0  0
   56.6600   34.3410   45.1850 O   0  0  0  0  0  0  0  0  0  0  0  0
   57.7590   31.5200   45.3680 C   0  0  0  0  0  0  0  0  0  0  0  0
   56.9289   31.5286   44.6462 H   0  0  0  0  0  0  0  0  0  0  0  0
   57.7970   26.2560   44.0310 C   0  0  0  0  0  0  0  0  0  0  0  0
   58.3087   27.0007   43.4036 H   0  0  0  0  0  0  0  0  0  0  0  0
   57.3970   25.0370   43.4760 C   0  0  0  0  0  0  0  0  0  0  0  0
   57.5890   24.8291   42.4130 H   0  0  0  0  0  0  0  0  0  0  0  0
   54.6990   21.7650   47.3370 S   0  0  0  0  0  0  0  0  0  0  0  0
   53.2220   22.5330   47.5770 C   0  0  0  0  0  0  0  0  0  0  0  0
   52.7342   22.7044   48.5479 H   0  0  0  0  0  0  0  0  0  0  0  0
  1  2  1  0
  2  3  1  0
  3  4  1  0
  4  5  2  0
  5  6  1  0
  6  7  2  0
  6  8  2  0
  6  9  1  0
  9 10  2  0
 10 11  1  0
 10 12  1  0
 12 13  1  0
 12 14  2  0
 14 15  1  0
 15 16  1  0
 15 17  1  0
 17 18  2  0
 17 19  1  0
 19 20  2  0
 20 21  1  0
 20 22  1  0
 22 23  1  0
 22 24  2  0
 24 25  1  0
 25 26  1  0
 26 27  1  0
 26 28  1  0
 26 29  1  0
 25 30  1  0
 30 31  1  0
 30 32  1  0
 30 33  1  0
 24 34  1  0
 34 35  1  0
 35 36  2  0
 35 37  1  0
 34 38  2  0
 38 39  1  0
 14 40  1  0
 40 41  1  0
 40 42  2  0
 42 43  1  0
  4 44  1  0
 44 45  1  0
 45 46  1  0
 45  2  2  0
 42  9  1  0
 38 19  1  0
M  CHG  3   3  -1  35   1  37  -1
M  END
>  <UniqueID>  (8) 
8

>  <SMILES>  (8) 
CN(C)c1ccc(C(=O)Nc2ccc(S(=O)(=O)/N=c3/[n-]ccs3)cc2)cc1[N+](=O)[O-]

>  <Energy>  (8) 
94.68428449760623

>  <Genealogy>  (8) 
CN(C)c1ccc(C(=O)Nc2ccc(S(=O)(=O)N=c3[n-]ccs3)cc2)cc1[N+](=O)[O-] (protonated)
CN(C)c1ccc(C(=O)Nc2ccc(S(=O)(=O)/N=c3/[n-]ccs3)cc2)cc1[N+](=O)[O-] (cis-trans isomerization)
CN(C)c1ccc(C(=O)Nc2ccc(S(=O)(=O)/N=c3/[n-]ccs3)cc2)cc1[N+](=O)[O-] (3D coordinates assigned)
CN(C)c1ccc(C(=O)Nc2ccc(S(=O)(=O)/N=c3/[n-]ccs3)cc2)cc1[N+](=O)[O-] (optimized conformer: 94.68428449760623 kcal/mol)

>  <smiles>  (8) 
CN(C)c1ccc(C(=O)Nc2ccc(S(=O)(=O)N=c3[nH]ccs3)cc2)cc1[N+](=O)[O-]

>  <score_type>  (8) 
oracle

>  <origin>  (8) 
adg

>  <m_score__min__energy>  (8) 
-9.6999999999999993

>  <m_primary>  (8) 
energy

$$$$
8:0
     RDKit          3D

 43 46  0  0  0  0  0  0  0  0999 V2000
   55.4350   30.1640   44.4010 O   0  0  0  0  0  0  0  0  0  0  0  0
   56.4030   29.4170   44.7130 C   0  0  0  0  0  0  0  0  0  0  0  0
   56.1420   28.1980   45.2590 N   0  0  0  0  0  0  0  0  0  0  0  0
   57.1450   27.3510   45.6090 C   0  0  0  0  0  0  0  0  0  0  0  0
   56.8540   26.0970   46.1690 C   0  0  0  0  0  0  0  0  0  0  0  0
   57.8870   25.2160   46.5320 C   0  0  0  0  0  0  0  0  0  0  0  0
   57.5810   23.9310   47.1050 N   0  0  0  0  0  0  0  0  0  0  0  0
   57.1700   23.8380   48.2810 O   0  0  0  0  0  0  0  0  0  0  0  0
   57.7350   22.7810   46.3670 O   0  0  0  0  0  0  0  0  0  0  0  0
   59.2210   25.6090   46.3260 C   0  0  0  0  0  0  0  0  0  0  0  0
   59.5180   26.8550   45.7690 C   0  0  0  0  0  0  0  0  0  0  0  0
   58.4830   27.7350   45.4070 C   0  0  0  0  0  0  0  0  0  0  0  0
   58.7380   28.9970   44.8430 C   0  0  0  0  0  0  0  0  0  0  0  0
   59.9330   29.3630   44.6540 O   0  0  0  0  0  0  0  0  0  0  0  0
   57.6970   29.8260   44.5030 N   0  0  0  0  0  0  0  0  0  0  0  0
   57.9590   31.1380   43.8740 C   0  0  0  0  0  0  0  0  0  0  0  0
   58.1510   32.1990   44.9280 C   0  0  0  0  0  0  0  0  0  0  0  0
   57.1660   33.1750   45.1380 C   0  0  0  0  0  0  0  0  0  0  0  0
   57.3610   34.1780   46.0890 C   0  0  0  0  0  0  0  0  0  0  0  0
   58.5420   34.2210   46.8340 C   0  0  0  0  0  0  0  0  0  0  0  0
   59.5440   33.2540   46.6360 C   0  0  0  0  0  0  0  0  0  0  0  0
   60.8020   33.2990   47.4250 C   0  0  0  0  0  0  0  0  0  0  0  0
   61.8850   32.4650   47.0900 C   0  0  0  0  0  0  0  0  0  0  0  0
   63.0680   32.5070   47.8360 C   0  0  0  0  0  0  0  0  0  0  0  0
   63.1820   33.3800   48.9200 C   0  0  0  0  0  0  0  0  0  0  0  0
   62.1150   34.2140   49.2610 C   0  0  0  0  0  0  0  0  0  0  0  0
   60.9300   34.1750   48.5190 C   0  0  0  0  0  0  0  0  0  0  0  0
   59.3380   32.2450   45.6770 C   0  0  0  0  0  0  0  0  0  0  0  0
   55.1460   27.9150   45.4080 H   0  0  0  0  0  0  0  0  0  0  0  0
   55.8062   25.8008   46.3253 H   0  0  0  0  0  0  0  0  0  0  0  0
   60.0387   24.9287   46.6062 H   0  0  0  0  0  0  0  0  0  0  0  0
   60.5664   27.1491   45.6129 H   0  0  0  0  0  0  0  0  0  0  0  0
   58.8685   31.0696   43.2590 H   0  0  0  0  0  0  0  0  0  0  0  0
   57.0974   31.4107   43.2469 H   0  0  0  0  0  0  0  0  0  0  0  0
   56.2361   33.1500   44.5510 H   0  0  0  0  0  0  0  0  0  0  0  0
   56.5820   34.9372   46.2524 H   0  0  0  0  0  0  0  0  0  0  0  0
   58.6892   35.0159   47.5800 H   0  0  0  0  0  0  0  0  0  0  0  0
   61.8009   31.7760   46.2366 H   0  0  0  0  0  0  0  0  0  0  0  0
   63.9096   31.8513   47.5682 H   0  0  0  0  0  0  0  0  0  0  0  0
   64.1127   33.4108   49.5055 H   0  0  0  0  0  0  0  0  0  0  0  0
   62.2066   34.9024   50.1141 H   0  0  0  0  0  0  0  0  0  0  0  0
   60.0924   34.8335   48.7924 H   0  0  0  0  0  0  0  0  0  0  0  0
   60.1151   31.4841   45.5123 H   0  0  0  0  0  0  0  0  0  0  0  0
  1  2  2  0
  2  3  1  0
  3  4  1  0
  4  5  2  0
  5  6  1  0
  6  7  1  0
  7  8  2  0
  7  9  1  0
  6 10  2  0
 10 11  1  0
 11 12  2  0
 12 13  1  0
 13 14  2  0
 13 15  1  0
 15 16  1  0
 16 17  1  0
 17 18  2  0
 18 19  1  0
 19 20  2  0
 20 21  1  0
 21 22  1  0
 22 23  2  0
 23 24  1  0
 24 25  2  0
 25 26  1  0
 26 27  2  0
 21 28  2  0
 15  2  1  0
 28 17  1  0
 12  4  1  0
 27 22  1  0
  3 29  1  0
  5 30  1  0
 10 31  1  0
 11 32  1  0
 16 33  1  0
 16 34  1  0
 18 35  1  0
 19 36  1  0
 20 37  1  0
 23 38  1  0
 24 39  1  0
 25 40  1  0
 26 41  1  0
 27 42  1  0
 28 43  1  0
M  CHG  2   7   1   9  -1
M  END
>  <UniqueID>  (9) 
9

>  <SMILES>  (9) 
O=c1[nH]c2cc([N+](=O)[O-])ccc2c(=O)n1Cc1cccc(-c2ccccc2)c1

>  <Energy>  (9) 
62.29167286888905

>  <Genealogy>  (9) 
O=c1[nH]c2cc([N+](=O)[O-])ccc2c(=O)n1Cc1cccc(-c2ccccc2)c1 (3D coordinates assigned)
O=c1[nH]c2cc([N+](=O)[O-])ccc2c(=O)n1Cc1cccc(-c2ccccc2)c1 (optimized conformer: 62.29167286888905 kcal/mol)

>  <smiles>  (9) 
O=c1[nH]c2cc([N+](=O)[O-])ccc2c(=O)n1Cc1cccc(-c2ccccc2)c1

>  <score_type>  (9) 
oracle

>  <origin>  (9) 
adg

>  <m_score__min__energy>  (9) 
-9.8699999999999992

>  <m_primary>  (9) 
energy

$$$$
9:0
     RDKit          3D

 32 33  0  0  0  0  0  0  0  0999 V2000
   56.3370   24.8290   46.0840 O   0  0  0  0  0  0  0  0  0  0  0  0
   55.9610   26.0290   46.1190 C   0  0  0  0  0  0  0  0  0  0  0  0
   54.6090   26.3240   46.0000 O   0  0  0  0  0  0  0  0  0  0  0  0
   56.9420   27.1220   46.2420 C   0  0  0  0  0  0  0  0  0  0  0  0
   57.4140   27.3940   47.3780 O   0  0  0  0  0  0  0  0  0  0  0  0
   57.3240   27.9320   45.1230 N   0  0  0  0  0  0  0  0  0  0  0  0
   57.5210   29.3520   45.1340 C   0  0  0  0  0  0  0  0  0  0  0  0
   56.6250   30.2250   44.4910 C   0  0  0  0  0  0  0  0  0  0  0  0
   56.8560   31.6040   44.5010 C   0  0  0  0  0  0  0  0  0  0  0  0
   57.9870   32.1240   45.1420 C   0  0  0  0  0  0  0  0  0  0  0  0
   58.2520   33.8640   45.1790 S   0  0  0  0  0  0  0  0  0  0  0  0
   56.9540   34.5580   44.8810 O   0  0  0  0  0  0  0  0  0  0  0  0
   59.2720   34.2680   44.1490 O   0  0  0  0  0  0  0  0  0  0  0  0
   58.8130   34.3460   46.7490 N   0  0  0  0  0  0  0  0  0  0  0  0
   60.1260   34.0490   47.2580 C   0  0  0  0  0  0  0  0  0  0  0  0
   61.2210   33.8210   46.4020 C   0  0  0  0  0  0  0  0  0  0  0  0
   62.4810   33.5220   46.9310 C   0  0  0  0  0  0  0  0  0  0  0  0
   62.6640   33.4560   48.3150 C   0  0  0  0  0  0  0  0  0  0  0  0
   64.2450   33.0820   48.9760 Cl  0  0  0  0  0  0  0  0  0  0  0  0
   61.5850   33.6920   49.1730 C   0  0  0  0  0  0  0  0  0  0  0  0
   60.3240   33.9890   48.6470 C   0  0  0  0  0  0  0  0  0  0  0  0
   58.8980   31.2530   45.7540 C   0  0  0  0  0  0  0  0  0  0  0  0
   58.6690   29.8740   45.7420 C   0  0  0  0  0  0  0  0  0  0  0  0
   55.7393   29.8214   43.9784 H   0  0  0  0  0  0  0  0  0  0  0  0
   56.1471   32.2824   44.0038 H   0  0  0  0  0  0  0  0  0  0  0  0
   58.1140   34.7970   47.3820 H   0  0  0  0  0  0  0  0  0  0  0  0
   61.0847   33.8783   45.3120 H   0  0  0  0  0  0  0  0  0  0  0  0
   63.3299   33.3384   46.2560 H   0  0  0  0  0  0  0  0  0  0  0  0
   61.7285   33.6439   50.2625 H   0  0  0  0  0  0  0  0  0  0  0  0
   59.4800   34.1772   49.3269 H   0  0  0  0  0  0  0  0  0  0  0  0
   59.7961   31.6555   46.2454 H   0  0  0  0  0  0  0  0  0  0  0  0
   59.3951   29.1951   46.2130 H   0  0  0  0  0  0  0  0  0  0  0  0
  1  2  2  0
  2  3  1  0
  2  4  1  0
  4  5  2  0
  4  6  1  0
  6  7  1  0
  7  8  2  0
  8  9  1  0
  9 10  2  0
 10 11  1  0
 11 12  2  0
 11 13  2  0
 11 14  1  0
 14 15  1  0
 15 16  2  0
 16 17  1  0
 17 18  2  0
 18 19  1  0
 18 20  1  0
 20 21  2  0
 10 22  1  0
 22 23  2  0
 23  7  1  0
 21 15  1  0
  8 24  1  0
  9 25  1  0
 14 26  1  0
 16 27  1  0
 17 28  1  0
 20 29  1  0
 21 30  1  0
 22 31  1  0
 23 32  1  0
M  CHG  2   3  -1   6  -1
M  END
>  <UniqueID>  (10) 
10

>  <SMILES>  (10) 
O=C([O-])C(=O)[N-]c1ccc(S(=O)(=O)Nc2ccc(Cl)cc2)cc1

>  <Energy>  (10) 
39.86718220877442

>  <Genealogy>  (10) 
O=C([O-])C(=O)[N-]c1ccc(S(=O)(=O)Nc2ccc(Cl)cc2)cc1 (protonated)
O=C([O-])C(=O)[N-]c1ccc(S(=O)(=O)Nc2ccc(Cl)cc2)cc1 (3D coordinates assigned)
O=C([O-])C(=O)[N-]c1ccc(S(=O)(=O)Nc2ccc(Cl)cc2)cc1 (optimized conformer: 39.86718220877442 kcal/mol)

>  <smiles>  (10) 
O=C(O)C(=O)Nc1ccc(S(=O)(=O)Nc2ccc(Cl)cc2)cc1

>  <score_type>  (10) 
oracle

>  <origin>  (10) 
adg

>  <m_score__min__energy>  (10) 
-12.27

>  <m_primary>  (10) 
energy

$$$$
10:0
     RDKit          3D

 33 34  0  0  0  0  0  0  0  0999 V2000
   57.7560   32.2140   41.9120 C   0  0  0  0  0  0  0  0  0  0  0  0
   57.7720   32.2650   43.2430 C   0  0  0  0  0  0  0  0  0  0  0  0
   57.3710   31.1230   44.0850 C   0  0  0  0  0  0  0  0  0  0  0  0
   56.3360   31.1940   44.8020 O   0  0  0  0  0  0  0  0  0  0  0  0
   58.1470   29.9140   44.0490 N   0  0  0  0  0  0  0  0  0  0  0  0
   57.9840   28.8230   44.9710 C   0  0  0  0  0  0  0  0  0  0  0  0
   59.0240   28.5100   45.8580 C   0  0  0  0  0  0  0  0  0  0  0  0
   58.8870   27.4580   46.7670 C   0  0  0  0  0  0  0  0  0  0  0  0
   57.6990   26.7270   46.8160 C   0  0  0  0  0  0  0  0  0  0  0  0
   56.6280   27.0630   45.9770 C   0  0  0  0  0  0  0  0  0  0  0  0
   55.3990   26.3260   46.0090 N   0  0  0  0  0  0  0  0  0  0  0  0
   55.2660   24.9080   45.8450 C   0  0  0  0  0  0  0  0  0  0  0  0
   55.1730   24.1860   46.8720 O   0  0  0  0  0  0  0  0  0  0  0  0
   55.3420   24.2500   44.4930 C   0  0  0  0  0  0  0  0  0  0  0  0
   56.5530   23.3750   44.3600 C   0  0  0  0  0  0  0  0  0  0  0  0
   56.6470   22.2040   43.6160 C   0  0  0  0  0  0  0  0  0  0  0  0
   57.8850   21.5620   43.7510 C   0  0  0  0  0  0  0  0  0  0  0  0
   58.7590   22.2110   44.6140 C   0  0  0  0  0  0  0  0  0  0  0  0
   57.9890   23.5820   45.2100 S   0  0  0  0  0  0  0  0  0  0  0  0
   56.7800   28.0960   45.0430 C   0  0  0  0  0  0  0  0  0  0  0  0
   58.0640   33.0913   41.3242 H   0  0  0  0  0  0  0  0  0  0  0  0
   57.4348   31.2946   41.4006 H   0  0  0  0  0  0  0  0  0  0  0  0
   58.0969   33.1948   43.7328 H   0  0  0  0  0  0  0  0  0  0  0  0
   58.8120   29.7850   43.2520 H   0  0  0  0  0  0  0  0  0  0  0  0
   59.9542   29.0969   45.8379 H   0  0  0  0  0  0  0  0  0  0  0  0
   59.7160   27.2056   47.4446 H   0  0  0  0  0  0  0  0  0  0  0  0
   57.6030   25.8839   47.5159 H   0  0  0  0  0  0  0  0  0  0  0  0
   54.4419   23.6349   44.3465 H   0  0  0  0  0  0  0  0  0  0  0  0
   55.4110   25.0426   43.7333 H   0  0  0  0  0  0  0  0  0  0  0  0
   55.8316   21.8204   42.9851 H   0  0  0  0  0  0  0  0  0  0  0  0
   58.1409   20.6314   43.2232 H   0  0  0  0  0  0  0  0  0  0  0  0
   59.7791   21.8843   44.8644 H   0  0  0  0  0  0  0  0  0  0  0  0
   55.9527   28.3411   44.3607 H   0  0  0  0  0  0  0  0  0  0  0  0
  1  2  2  0
  2  3  1  0
  3  4  2  0
  3  5  1  0
  5  6  1  0
  6  7  2  0
  7  8  1  0
  8  9  2  0
  9 10  1  0
 10 11  1  0
 11 12  1  0
 12 13  2  0
 12 14  1  0
 14 15  1  0
 15 16  2  0
 16 17  1  0
 17 18  2  0
 18 19  1  0
 10 20  2  0
 20  6  1  0
 19 15  1  0
  1 21  1  0
  1 22  1  0
  2 23  1  0
  5 24  1  0
  7 25  1  0
  8 26  1  0
  9 27  1  0
 14 28  1  0
 14 29  1  0
 16 30  1  0
 17 31  1  0
 18 32  1  0
 20 33  1  0
M  CHG  1  11  -1
M  END
>  <UniqueID>  (11) 
11

>  <SMILES>  (11) 
C=CC(=O)Nc1cccc([N-]C(=O)Cc2cccs2)c1

>  <Energy>  (11) 
64.04444288551662

>  <Genealogy>  (11) 
C=CC(=O)Nc1cccc([N-]C(=O)Cc2cccs2)c1 (protonated)
C=CC(=O)Nc1cccc([N-]C(=O)Cc2cccs2)c1 (3D coordinates assigned)
C=CC(=O)Nc1cccc([N-]C(=O)Cc2cccs2)c1 (optimized conformer: 64.04444288551662 kcal/mol)

>  <smiles>  (11) 
C=CC(=O)Nc1cccc(NC(=O)Cc2cccs2)c1

>  <score_type>  (11) 
oracle

>  <origin>  (11) 
adg

>  <m_score__min__energy>  (11) 
-9.7799999999999994

>  <m_primary>  (11) 
energy

$$$$
11:0
     RDKit          3D

 36 37  0  0  0  0  0  0  0  0999 V2000
   59.8210   27.5780   48.0330 C   0  0  0  0  0  0  0  0  0  0  0  0
   59.9250   28.0380   46.6110 C   0  0  0  0  0  0  0  0  0  0  0  0
   60.5960   29.1490   46.2490 N   0  0  0  0  0  0  0  0  0  0  0  0
   60.3870   29.2880   44.9270 C   0  0  0  0  0  0  0  0  0  0  0  0
   59.5740   28.2570   44.5000 C   0  0  0  0  0  0  0  0  0  0  0  0
   59.2810   27.4760   45.5600 N   0  0  0  0  0  0  0  0  0  0  0  0
   58.3610   26.3360   45.5540 C   0  0  0  0  0  0  0  0  0  0  0  0
   57.2480   26.5120   46.5950 C   0  0  0  0  0  0  0  0  0  0  0  0
   55.9660   26.9770   45.9610 C   0  0  0  0  0  0  0  0  0  0  0  0
   54.9410   26.2490   46.0280 O   0  0  0  0  0  0  0  0  0  0  0  0
   55.8950   28.2120   45.2450 N   0  0  0  0  0  0  0  0  0  0  0  0
   56.6220   29.2970   45.6210 O   0  0  0  0  0  0  0  0  0  0  0  0
   56.8890   30.0290   44.4500 C   0  0  0  0  0  0  0  0  0  0  0  0
   57.5260   31.3410   44.8270 C   0  0  0  0  0  0  0  0  0  0  0  0
   57.7810   31.6260   46.1810 C   0  0  0  0  0  0  0  0  0  0  0  0
   58.3670   32.8380   46.5540 C   0  0  0  0  0  0  0  0  0  0  0  0
   58.7180   33.7750   45.5800 C   0  0  0  0  0  0  0  0  0  0  0  0
   58.4900   33.4970   44.2280 C   0  0  0  0  0  0  0  0  0  0  0  0
   57.8970   32.2870   43.8430 C   0  0  0  0  0  0  0  0  0  0  0  0
   57.6290   31.9660   41.9710 Br  0  0  0  0  0  0  0  0  0  0  0  0
   60.0126   28.4256   48.7075 H   0  0  0  0  0  0  0  0  0  0  0  0
   58.8110   27.1834   48.2178 H   0  0  0  0  0  0  0  0  0  0  0  0
   60.5630   26.7873   48.2178 H   0  0  0  0  0  0  0  0  0  0  0  0
   61.1440   29.7900   46.8670 H   0  0  0  0  0  0  0  0  0  0  0  0
   60.7954   30.0887   44.2929 H   0  0  0  0  0  0  0  0  0  0  0  0
   59.2242   28.0991   43.4691 H   0  0  0  0  0  0  0  0  0  0  0  0
   57.9072   26.2471   44.5559 H   0  0  0  0  0  0  0  0  0  0  0  0
   58.9306   25.4290   45.8049 H   0  0  0  0  0  0  0  0  0  0  0  0
   57.0703   25.5480   47.0942 H   0  0  0  0  0  0  0  0  0  0  0  0
   57.5709   27.2752   47.3184 H   0  0  0  0  0  0  0  0  0  0  0  0
   57.5740   29.4579   43.8061 H   0  0  0  0  0  0  0  0  0  0  0  0
   55.9515   30.2138   43.9051 H   0  0  0  0  0  0  0  0  0  0  0  0
   57.5166   30.8880   46.9526 H   0  0  0  0  0  0  0  0  0  0  0  0
   58.5522   33.0545   47.6165 H   0  0  0  0  0  0  0  0  0  0  0  0
   59.1737   34.7315   45.8757 H   0  0  0  0  0  0  0  0  0  0  0  0
   58.7779   34.2326   43.4625 H   0  0  0  0  0  0  0  0  0  0  0  0
  1  2  1  0
  2  3  2  0
  3  4  1  0
  4  5  2  0
  5  6  1  0
  6  7  1  0
  7  8  1  0
  8  9  1  0
  9 10  2  0
  9 11  1  0
 11 12  1  0
 12 13  1  0
 13 14  1  0
 14 15  2  0
 15 16  1  0
 16 17  2  0
 17 18  1  0
 18 19  2  0
 19 20  1  0
  6  2  1  0
 19 14  1  0
  1 21  1  0
  1 22  1  0
  1 23  1  0
  3 24  1  0
  4 25  1  0
  5 26  1  0
  7 27  1  0
  7 28  1  0
  8 29  1  0
  8 30  1  0
 13 31  1  0
 13 32  1  0
 15 33  1  0
 16 34  1  0
 17 35  1  0
 18 36  1  0
M  CHG  2   3   1  11  -1
M  END
>  <UniqueID>  (12) 
12

>  <SMILES>  (12) 
Cc1[nH+]ccn1CCC(=O)[N-]OCc1ccccc1Br

>  <Energy>  (12) 
57.73763322324323

>  <Genealogy>  (12) 
Cc1[nH+]ccn1CCC(=O)[N-]OCc1ccccc1Br (protonated)
Cc1[nH+]ccn1CCC(=O)[N-]OCc1ccccc1Br (3D coordinates assigned)
Cc1[nH+]ccn1CCC(=O)[N-]OCc1ccccc1Br (optimized conformer: 57.73763322324323 kcal/mol)

>  <smiles>  (12) 
Cc1nccn1CCC(=O)NOCc1ccccc1Br

>  <score_type>  (12) 
oracle

>  <origin>  (12) 
adg

>  <m_score__min__energy>  (12) 
-8.0600000000000005

>  <m_primary>  (12) 
energy

$$$$
12:0
     RDKit          3D

 35 36  0  0  0  0  0  0  0  0999 V2000
   63.6170   31.5350   50.4820 C   0  0  0  0  0  0  0  0  0  0  0  0
   64.0030   33.1310   49.8010 S   0  0  0  0  0  0  0  0  0  0  0  0
   65.3250   33.0670   49.0880 O   0  0  0  0  0  0  0  0  0  0  0  0
   64.1020   34.1400   50.9100 O   0  0  0  0  0  0  0  0  0  0  0  0
   62.7380   33.6050   48.6720 C   0  0  0  0  0  0  0  0  0  0  0  0
   61.5090   34.0790   49.1490 C   0  0  0  0  0  0  0  0  0  0  0  0
   60.4980   34.4370   48.2530 C   0  0  0  0  0  0  0  0  0  0  0  0
   60.7000   34.3130   46.8690 C   0  0  0  0  0  0  0  0  0  0  0  0
   59.6050   34.6970   45.9070 C   0  0  0  0  0  0  0  0  0  0  0  0
   58.4460   33.8150   46.0640 N   0  0  0  0  0  0  0  0  0  0  0  0
   58.0200   32.8460   45.0860 C   0  0  0  0  0  0  0  0  0  0  0  0
   58.2120   33.1220   43.7250 C   0  0  0  0  0  0  0  0  0  0  0  0
   57.8040   32.2090   42.7500 C   0  0  0  0  0  0  0  0  0  0  0  0
   58.0460   32.5750   41.0510 Cl  0  0  0  0  0  0  0  0  0  0  0  0
   57.2010   31.0060   43.1250 C   0  0  0  0  0  0  0  0  0  0  0  0
   57.0040   30.7010   44.4820 C   0  0  0  0  0  0  0  0  0  0  0  0
   56.3840   29.4600   44.8650 N   0  0  0  0  0  0  0  0  0  0  0  0
   55.1400   29.3420   44.8710 O   0  0  0  0  0  0  0  0  0  0  0  0
   57.1520   28.3760   45.2270 O   0  0  0  0  0  0  0  0  0  0  0  0
   57.4210   31.6260   45.4580 C   0  0  0  0  0  0  0  0  0  0  0  0
   61.9360   33.8450   46.3950 C   0  0  0  0  0  0  0  0  0  0  0  0
   62.9460   33.4870   47.2920 C   0  0  0  0  0  0  0  0  0  0  0  0
   63.6308   31.5920   51.5804 H   0  0  0  0  0  0  0  0  0  0  0  0
   62.6177   31.2238   50.1435 H   0  0  0  0  0  0  0  0  0  0  0  0
   64.3637   30.8016   50.1435 H   0  0  0  0  0  0  0  0  0  0  0  0
   61.3393   34.1697   50.2320 H   0  0  0  0  0  0  0  0  0  0  0  0
   59.5390   34.8179   48.6340 H   0  0  0  0  0  0  0  0  0  0  0  0
   59.2985   35.7349   46.1042 H   0  0  0  0  0  0  0  0  0  0  0  0
   59.9865   34.6007   44.8798 H   0  0  0  0  0  0  0  0  0  0  0  0
   57.9320   33.8660   46.9730 H   0  0  0  0  0  0  0  0  0  0  0  0
   58.6883   34.0662   43.4223 H   0  0  0  0  0  0  0  0  0  0  0  0
   56.8782   30.2927   42.3524 H   0  0  0  0  0  0  0  0  0  0  0  0
   57.2775   31.3936   46.5236 H   0  0  0  0  0  0  0  0  0  0  0  0
   62.1102   33.7597   45.3122 H   0  0  0  0  0  0  0  0  0  0  0  0
   63.9078   33.1112   46.9129 H   0  0  0  0  0  0  0  0  0  0  0  0
  1  2  1  0
  2  3  2  0
  2  4  2  0
  2  5  1  0
  5  6  2  0
  6  7  1  0
  7  8  2  0
  8  9  1  0
  9 10  1  0
 10 11  1  0
 11 12  2  0
 12 13  1  0
 13 14  1  0
 13 15  2  0
 15 16  1  0
 16 17  1  0
 17 18  2  0
 17 19  1  0
 16 20  2  0
  8 21  1  0
 21 22  2  0
 22  5  1  0
 20 11  1  0
  1 23  1  0
  1 24  1  0
  1 25  1  0
  6 26  1  0
  7 27  1  0
  9 28  1  0
  9 29  1  0
 10 30  1  0
 12 31  1  0
 15 32  1  0
 20 33  1  0
 21 34  1  0
 22 35  1  0
M  CHG  2  17   1  19  -1
M  END
>  <UniqueID>  (13) 
13

>  <SMILES>  (13) 
CS(=O)(=O)c1ccc(CNc2cc(Cl)cc([N+](=O)[O-])c2)cc1

>  <Energy>  (13) 
32.83304271000239

>  <Genealogy>  (13) 
CS(=O)(=O)c1ccc(CNc2cc(Cl)cc([N+](=O)[O-])c2)cc1 (3D coordinates assigned)
CS(=O)(=O)c1ccc(CNc2cc(Cl)cc([N+](=O)[O-])c2)cc1 (optimized conformer: 32.83304271000239 kcal/mol)

>  <smiles>  (13) 
CS(=O)(=O)c1ccc(CNc2cc(Cl)cc([N+](=O)[O-])c2)cc1

>  <score_type>  (13) 
oracle

>  <origin>  (13) 
adg

>  <m_score__min__energy>  (13) 
-8.3100000000000005

>  <m_primary>  (13) 
energy

$$$$
13:0
     RDKit          3D

 30 32  0  0  0  0  0  0  0  0999 V2000
   53.7400   22.8520   47.1070 C   0  0  0  0  0  0  0  0  0  0  0  0
   53.3520   23.2940   45.7280 C   0  0  0  0  0  0  0  0  0  0  0  0
   52.3300   22.7970   45.1900 O   0  0  0  0  0  0  0  0  0  0  0  0
   54.1230   24.2570   44.9990 N   0  0  0  0  0  0  0  0  0  0  0  0
   55.4950   24.5890   45.2690 C   0  0  0  0  0  0  0  0  0  0  0  0
   56.5120   23.6780   44.9290 C   0  0  0  0  0  0  0  0  0  0  0  0
   56.1930   22.4410   44.3300 C   0  0  0  0  0  0  0  0  0  0  0  0
   57.1950   21.5330   43.9980 C   0  0  0  0  0  0  0  0  0  0  0  0
   58.5270   21.8410   44.2560 C   0  0  0  0  0  0  0  0  0  0  0  0
   58.8660   23.0570   44.8510 C   0  0  0  0  0  0  0  0  0  0  0  0
   57.8680   24.0010   45.2040 C   0  0  0  0  0  0  0  0  0  0  0  0
   58.1680   25.2510   45.8160 C   0  0  0  0  0  0  0  0  0  0  0  0
   59.4870   25.6500   46.1480 C   0  0  0  0  0  0  0  0  0  0  0  0
   59.7350   26.8920   46.7340 C   0  0  0  0  0  0  0  0  0  0  0  0
   58.6850   27.7620   47.0040 C   0  0  0  0  0  0  0  0  0  0  0  0
   57.3780   27.3950   46.6930 C   0  0  0  0  0  0  0  0  0  0  0  0
   57.0990   26.1450   46.1040 C   0  0  0  0  0  0  0  0  0  0  0  0
   55.8090   25.7990   45.8120 N   0  0  0  0  0  0  0  0  0  0  0  0
   54.7960   26.7140   46.0170 O   0  0  0  0  0  0  0  0  0  0  0  0
   53.2056   23.4608   47.8511 H   0  0  0  0  0  0  0  0  0  0  0  0
   53.4746   21.7929   47.2408 H   0  0  0  0  0  0  0  0  0  0  0  0
   54.8245   22.9779   47.2408 H   0  0  0  0  0  0  0  0  0  0  0  0
   55.1419   22.1914   44.1232 H   0  0  0  0  0  0  0  0  0  0  0  0
   56.9334   20.5718   43.5315 H   0  0  0  0  0  0  0  0  0  0  0  0
   59.3165   21.1228   43.9898 H   0  0  0  0  0  0  0  0  0  0  0  0
   59.9233   23.2869   45.0492 H   0  0  0  0  0  0  0  0  0  0  0  0
   60.3272   24.9709   45.9408 H   0  0  0  0  0  0  0  0  0  0  0  0
   60.7659   27.1838   46.9833 H   0  0  0  0  0  0  0  0  0  0  0  0
   58.8865   28.7409   47.4636 H   0  0  0  0  0  0  0  0  0  0  0  0
   56.5529   28.0894   46.9097 H   0  0  0  0  0  0  0  0  0  0  0  0
  1  2  1  0
  2  3  2  0
  2  4  1  0
  4  5  1  0
  5  6  2  0
  6  7  1  0
  7  8  2  0
  8  9  1  0
  9 10  2  0
 10 11  1  0
 11 12  2  0
 12 13  1  0
 13 14  2  0
 14 15  1  0
 15 16  2  0
 16 17  1  0
 17 18  2  0
 18 19  1  0
 18  5  1  0
 11  6  1  0
 17 12  1  0
  1 20  1  0
  1 21  1  0
  1 22  1  0
  7 23  1  0
  8 24  1  0
  9 25  1  0
 10 26  1  0
 13 27  1  0
 14 28  1  0
 15 29  1  0
 16 30  1  0
M  CHG  3   4  -1  18   1  19  -1
M  END
>  <UniqueID>  (14) 
14

>  <SMILES>  (14) 
CC(=O)[N-]c1c2ccccc2c2ccccc2[n+]1[O-]

>  <Energy>  (14) 
52.20628667780727

>  <Genealogy>  (14) 
CC(=O)[N-]c1c2ccccc2c2ccccc2[n+]1[O-] (protonated)
CC(=O)[N-]c1c2ccccc2c2ccccc2[n+]1[O-] (3D coordinates assigned)
CC(=O)[N-]c1c2ccccc2c2ccccc2[n+]1[O-] (optimized conformer: 52.20628667780727 kcal/mol)

>  <smiles>  (14) 
CC(=O)Nc1c2ccccc2c2ccccc2[n+]1[O-]

>  <score_type>  (14) 
oracle

>  <origin>  (14) 
adg

>  <m_score__min__energy>  (14) 
-10.16

>  <m_primary>  (14) 
energy

$$$$
14:0
     RDKit          3D

 38 40  0  0  0  0  0  0  0  0999 V2000
   55.9480   29.7170   43.3550 C   0  0  0  0  0  0  0  0  0  0  0  0
   56.8060   30.8890   43.6920 C   0  0  0  0  0  0  0  0  0  0  0  0
   57.4800   31.6820   42.7840 C   0  0  0  0  0  0  0  0  0  0  0  0
   58.1200   32.6460   43.5310 C   0  0  0  0  0  0  0  0  0  0  0  0
   57.7910   32.3800   44.8480 C   0  0  0  0  0  0  0  0  0  0  0  0
   58.2390   33.1680   46.0450 C   0  0  0  0  0  0  0  0  0  0  0  0
   59.3690   32.5080   46.7470 N   0  0  0  0  0  0  0  0  0  0  0  0
   58.9150   31.2380   47.3700 C   0  0  0  0  0  0  0  0  0  0  0  0
   59.4170   30.0380   46.6160 C   0  0  0  0  0  0  0  0  0  0  0  0
   59.0710   28.7250   46.8620 C   0  0  0  0  0  0  0  0  0  0  0  0
   59.7770   27.9800   45.9420 C   0  0  0  0  0  0  0  0  0  0  0  0
   60.5060   28.8830   45.1950 C   0  0  0  0  0  0  0  0  0  0  0  0
   60.2690   30.1020   45.6200 O   0  0  0  0  0  0  0  0  0  0  0  0
   59.9330   33.4140   47.7790 C   0  0  0  0  0  0  0  0  0  0  0  0
   61.4340   33.4510   47.7320 C   0  0  0  0  0  0  0  0  0  0  0  0
   62.2590   33.9760   48.7060 C   0  0  0  0  0  0  0  0  0  0  0  0
   63.5430   33.7750   48.2490 C   0  0  0  0  0  0  0  0  0  0  0  0
   63.4220   33.1420   47.0290 C   0  0  0  0  0  0  0  0  0  0  0  0
   62.1510   32.9610   46.7480 O   0  0  0  0  0  0  0  0  0  0  0  0
   57.0050   31.3300   44.9130 O   0  0  0  0  0  0  0  0  0  0  0  0
   55.5986   29.2397   44.2824 H   0  0  0  0  0  0  0  0  0  0  0  0
   55.0815   30.0539   42.7670 H   0  0  0  0  0  0  0  0  0  0  0  0
   56.5309   28.9928   42.7670 H   0  0  0  0  0  0  0  0  0  0  0  0
   57.5013   31.5673   41.6902 H   0  0  0  0  0  0  0  0  0  0  0  0
   58.7601   33.4590   43.1577 H   0  0  0  0  0  0  0  0  0  0  0  0
   58.5597   34.1669   45.7143 H   0  0  0  0  0  0  0  0  0  0  0  0
   57.3938   33.2366   46.7457 H   0  0  0  0  0  0  0  0  0  0  0  0
   60.1190   32.2880   46.0450 H   0  0  0  0  0  0  0  0  0  0  0  0
   59.2912   31.1931   48.4027 H   0  0  0  0  0  0  0  0  0  0  0  0
   57.8153   31.2202   47.3499 H   0  0  0  0  0  0  0  0  0  0  0  0
   58.3779   28.3516   47.6303 H   0  0  0  0  0  0  0  0  0  0  0  0
   59.7624   26.8862   45.8264 H   0  0  0  0  0  0  0  0  0  0  0  0
   61.1831   28.6208   44.3687 H   0  0  0  0  0  0  0  0  0  0  0  0
   59.5467   34.4300   47.6098 H   0  0  0  0  0  0  0  0  0  0  0  0
   59.6321   33.0348   48.7668 H   0  0  0  0  0  0  0  0  0  0  0  0
   61.9552   34.4543   49.6488 H   0  0  0  0  0  0  0  0  0  0  0  0
   64.4768   34.0615   48.7549 H   0  0  0  0  0  0  0  0  0  0  0  0
   64.2621   32.8353   46.3886 H   0  0  0  0  0  0  0  0  0  0  0  0
  1  2  1  0
  2  3  2  0
  3  4  1  0
  4  5  2  0
  5  6  1  0
  6  7  1  0
  7  8  1  0
  8  9  1  0
  9 10  2  0
 10 11  1  0
 11 12  2  0
 12 13  1  0
  7 14  1  0
 14 15  1  0
 15 16  2  0
 16 17  1  0
 17 18  2  0
 18 19  1  0
  5 20  1  0
 20  2  1  0
 13  9  1  0
 19 15  1  0
  1 21  1  0
  1 22  1  0
  1 23  1  0
  3 24  1  0
  4 25  1  0
  6 26  1  0
  6 27  1  0
  7 28  1  0
  8 29  1  0
  8 30  1  0
 10 31  1  0
 11 32  1  0
 12 33  1  0
 14 34  1  0
 14 35  1  0
 16 36  1  0
 17 37  1  0
 18 38  1  0
M  CHG  1   7   1
M  END
>  <UniqueID>  (15) 
15

>  <SMILES>  (15) 
Cc1ccc(C[NH+](Cc2ccco2)Cc2ccco2)o1

>  <Energy>  (15) 
117.36005066287568

>  <Genealogy>  (15) 
Cc1ccc(C[NH+](Cc2ccco2)Cc2ccco2)o1 (protonated)
Cc1ccc(C[NH+](Cc2ccco2)Cc2ccco2)o1 (3D coordinates assigned)
Cc1ccc(C[NH+](Cc2ccco2)Cc2ccco2)o1 (optimized conformer: 117.36005066287568 kcal/mol)

>  <smiles>  (15) 
Cc1ccc(CN(Cc2ccco2)Cc2ccco2)o1

>  <score_type>  (15) 
oracle

>  <origin>  (15) 
adg

>  <m_score__min__energy>  (15) 
-3.9300000000000002

>  <m_primary>  (15) 
energy

$$$$
15:0
     RDKit          3D

 51 53  0  0  0  0  0  0  0  0999 V2000
   62.4710   32.0800   48.5300 C   0  0  0  0  0  0  0  0  0  0  0  0
   62.4300   33.8440   48.2990 S   0  0  0  0  0  0  0  0  0  0  0  0
   63.2640   34.1950   47.0940 O   0  0  0  0  0  0  0  0  0  0  0  0
   63.0010   34.5460   49.5040 O   0  0  0  0  0  0  0  0  0  0  0  0
   60.8000   34.3740   48.0210 N   0  0  0  0  0  0  0  0  0  0  0  0
   59.8960   33.8410   47.0380 C   0  0  0  0  0  0  0  0  0  0  0  0
   59.7710   34.4000   45.7500 C   0  0  0  0  0  0  0  0  0  0  0  0
   58.8780   33.8450   44.8220 C   0  0  0  0  0  0  0  0  0  0  0  0
   58.1050   32.7210   45.1630 C   0  0  0  0  0  0  0  0  0  0  0  0
   57.1710   32.0940   44.1640 C   0  0  0  0  0  0  0  0  0  0  0  0
   56.3010   31.1380   44.8380 N   0  0  0  0  0  0  0  0  0  0  0  0
   56.0330   29.8350   44.3210 C   0  0  0  0  0  0  0  0  0  0  0  0
   55.1490   29.1240   44.8660 O   0  0  0  0  0  0  0  0  0  0  0  0
   56.8020   29.3250   43.2250 N   0  0  0  0  0  0  0  0  0  0  0  0
   57.7660   28.2390   43.3530 C   0  0  0  0  0  0  0  0  0  0  0  0
   58.3810   28.2360   44.7330 C   0  0  0  0  0  0  0  0  0  0  0  0
   59.1790   29.3180   45.1330 C   0  0  0  0  0  0  0  0  0  0  0  0
   59.7310   29.3550   46.4080 C   0  0  0  0  0  0  0  0  0  0  0  0
   59.4810   28.3010   47.2970 C   0  0  0  0  0  0  0  0  0  0  0  0
   60.0160   28.3370   48.7010 C   0  0  0  0  0  0  0  0  0  0  0  0
   60.3730   27.0590   49.1070 F   0  0  0  0  0  0  0  0  0  0  0  0
   59.0560   28.8260   49.5730 F   0  0  0  0  0  0  0  0  0  0  0  0
   61.1260   29.1600   48.7490 F   0  0  0  0  0  0  0  0  0  0  0  0
   58.6780   27.2740   46.9100 N   0  0  0  0  0  0  0  0  0  0  0  0
   58.1350   27.2020   45.6630 C   0  0  0  0  0  0  0  0  0  0  0  0
   57.2480   26.0650   45.3520 C   0  0  0  0  0  0  0  0  0  0  0  0
   57.6340   25.0850   44.4250 C   0  0  0  0  0  0  0  0  0  0  0  0
   56.7660   24.0120   44.1310 C   0  0  0  0  0  0  0  0  0  0  0  0
   55.5270   23.9030   44.7760 C   0  0  0  0  0  0  0  0  0  0  0  0
   54.7150   22.8480   44.5160 F   0  0  0  0  0  0  0  0  0  0  0  0
   55.1460   24.8730   45.7070 C   0  0  0  0  0  0  0  0  0  0  0  0
   55.9960   25.9510   45.9940 C   0  0  0  0  0  0  0  0  0  0  0  0
   58.2380   32.1600   46.4450 C   0  0  0  0  0  0  0  0  0  0  0  0
   59.1190   32.7220   47.3780 C   0  0  0  0  0  0  0  0  0  0  0  0
   59.2290   32.1640   48.6140 F   0  0  0  0  0  0  0  0  0  0  0  0
   62.4763   31.8511   49.6059 H   0  0  0  0  0  0  0  0  0  0  0  0
   61.5831   31.6284   48.0634 H   0  0  0  0  0  0  0  0  0  0  0  0
   63.3789   31.6701   48.0634 H   0  0  0  0  0  0  0  0  0  0  0  0
   60.3764   35.2752   45.4717 H   0  0  0  0  0  0  0  0  0  0  0  0
   58.7817   34.2916   43.8214 H   0  0  0  0  0  0  0  0  0  0  0  0
   56.5586   32.8776   43.6940 H   0  0  0  0  0  0  0  0  0  0  0  0
   57.7580   31.5724   43.3937 H   0  0  0  0  0  0  0  0  0  0  0  0
   57.2552   27.2798   43.1824 H   0  0  0  0  0  0  0  0  0  0  0  0
   58.5634   28.3821   42.6089 H   0  0  0  0  0  0  0  0  0  0  0  0
   59.3695   30.1439   44.4319 H   0  0  0  0  0  0  0  0  0  0  0  0
   60.3586   30.2041   46.7165 H   0  0  0  0  0  0  0  0  0  0  0  0
   58.6128   25.1531   43.9277 H   0  0  0  0  0  0  0  0  0  0  0  0
   57.0643   23.2557   43.3901 H   0  0  0  0  0  0  0  0  0  0  0  0
   54.1749   24.7907   46.2171 H   0  0  0  0  0  0  0  0  0  0  0  0
   55.6850   26.7127   46.7242 H   0  0  0  0  0  0  0  0  0  0  0  0
   57.6463   31.2737   46.7175 H   0  0  0  0  0  0  0  0  0  0  0  0
  1  2  1  0
  2  3  2  0
  2  4  2  0
  2  5  1  0
  5  6  1  0
  6  7  2  0
  7  8  1  0
  8  9  2  0
  9 10  1  0
 10 11  1  0
 11 12  1  0
 12 13  2  0
 12 14  1  0
 14 15  1  0
 15 16  1  0
 16 17  2  0
 17 18  1  0
 18 19  2  0
 19 20  1  0
 20 21  1  0
 20 22  1  0
 20 23  1  0
 19 24  1  0
 24 25  2  0
 25 26  1  0
 26 27  2  0
 27 28  1  0
 28 29  2  0
 29 30  1  0
 29 31  1  0
 31 32  2  0
  9 33  1  0
 33 34  2  0
 34 35  1  0
 34  6  1  0
 25 16  1  0
 32 26  1  0
  1 36  1  0
  1 37  1  0
  1 38  1  0
  7 39  1  0
  8 40  1  0
 10 41  1  0
 10 42  1  0
 15 43  1  0
 15 44  1  0
 17 45  1  0
 18 46  1  0
 27 47  1  0
 28 48  1  0
 31 49  1  0
 32 50  1  0
 33 51  1  0
M  CHG  3   5  -1  11  -1  14  -1
M  END
>  <UniqueID>  (16) 
16

>  <SMILES>  (16) 
CS(=O)(=O)[N-]c1ccc(C[N-]C(=O)[N-]Cc2ccc(C(F)(F)F)nc2-c2ccc(F)cc2)cc1F

>  <Energy>  (16) 
55.271724700821615

>  <Genealogy>  (16) 
CS(=O)(=O)[N-]c1ccc(C[N-]C(=O)[N-]Cc2ccc(C(F)(F)F)nc2-c2ccc(F)cc2)cc1F (protonated)
CS(=O)(=O)[N-]c1ccc(C[N-]C(=O)[N-]Cc2ccc(C(F)(F)F)nc2-c2ccc(F)cc2)cc1F (3D coordinates assigned)
CS(=O)(=O)[N-]c1ccc(C[N-]C(=O)[N-]Cc2ccc(C(F)(F)F)nc2-c2ccc(F)cc2)cc1F (optimized conformer: 55.271724700821615 kcal/mol)

>  <smiles>  (16) 
CS(=O)(=O)Nc1ccc(CNC(=O)NCc2ccc(C(F)(F)F)nc2-c2ccc(F)cc2)cc1F

>  <score_type>  (16) 
oracle

>  <origin>  (16) 
adg

>  <m_score__min__energy>  (16) 
-13.18

>  <m_primary>  (16) 
energy

$$$$
16:0
     RDKit          3D

 51 53  0  0  0  0  0  0  0  0999 V2000
   58.0740   29.6730   46.5490 C   0  0  0  0  0  0  0  0  0  0  0  0
   57.6230   30.0400   45.1630 C   0  0  0  0  0  0  0  0  0  0  0  0
   58.2750   31.0750   44.4720 C   0  0  0  0  0  0  0  0  0  0  0  0
   57.8430   31.4490   43.1960 C   0  0  0  0  0  0  0  0  0  0  0  0
   56.7510   30.8050   42.6100 C   0  0  0  0  0  0  0  0  0  0  0  0
   56.0940   29.7770   43.2890 C   0  0  0  0  0  0  0  0  0  0  0  0
   56.5430   29.3610   44.5550 C   0  0  0  0  0  0  0  0  0  0  0  0
   55.8840   28.3050   45.2730 N   0  0  0  0  0  0  0  0  0  0  0  0
   56.4520   27.0340   45.6310 C   0  0  0  0  0  0  0  0  0  0  0  0
   55.9040   26.2990   46.4940 O   0  0  0  0  0  0  0  0  0  0  0  0
   57.6730   26.5480   44.9180 C   0  0  0  0  0  0  0  0  0  0  0  0
   58.7680   25.5990   46.0370 S   0  0  0  0  0  0  0  0  0  0  0  0
   60.0950   26.8400   46.2100 C   0  0  0  0  0  0  0  0  0  0  0  0
   60.1040   27.4300   47.5880 C   0  0  0  0  0  0  0  0  0  0  0  0
   59.6390   26.7680   48.5530 O   0  0  0  0  0  0  0  0  0  0  0  0
   60.6720   28.7270   47.8080 N   0  0  0  0  0  0  0  0  0  0  0  0
   60.5090   29.4720   49.0270 C   0  0  0  0  0  0  0  0  0  0  0  0
   60.2180   28.7940   50.2250 C   0  0  0  0  0  0  0  0  0  0  0  0
   59.9530   29.5060   51.3970 C   0  0  0  0  0  0  0  0  0  0  0  0
   59.9680   30.9010   51.3870 C   0  0  0  0  0  0  0  0  0  0  0  0
   60.2520   31.5900   50.2050 C   0  0  0  0  0  0  0  0  0  0  0  0
   60.5210   30.8880   49.0150 C   0  0  0  0  0  0  0  0  0  0  0  0
   60.8330   31.6490   47.7800 C   0  0  0  0  0  0  0  0  0  0  0  0
   61.5980   31.1420   46.9170 O   0  0  0  0  0  0  0  0  0  0  0  0
   60.3830   33.0010   47.5920 N   0  0  0  0  0  0  0  0  0  0  0  0
   59.4200   33.4190   46.8210 C   0  0  0  0  0  0  0  0  0  0  0  0
   59.6470   34.2180   45.6860 C   0  0  0  0  0  0  0  0  0  0  0  0
   58.5660   34.6100   44.8940 C   0  0  0  0  0  0  0  0  0  0  0  0
   57.2740   34.2200   45.2330 C   0  0  0  0  0  0  0  0  0  0  0  0
   57.0790   33.4510   46.3780 C   0  0  0  0  0  0  0  0  0  0  0  0
   58.1400   33.0870   47.1440 N   0  0  0  0  0  0  0  0  0  0  0  0
   57.4422   30.1871   47.2883 H   0  0  0  0  0  0  0  0  0  0  0  0
   57.9880   28.5850   46.6865 H   0  0  0  0  0  0  0  0  0  0  0  0
   59.1218   29.9783   46.6865 H   0  0  0  0  0  0  0  0  0  0  0  0
   59.1276   31.5924   44.9361 H   0  0  0  0  0  0  0  0  0  0  0  0
   58.3638   32.2514   42.6530 H   0  0  0  0  0  0  0  0  0  0  0  0
   56.4074   31.1087   41.6102 H   0  0  0  0  0  0  0  0  0  0  0  0
   55.2205   29.2899   42.8311 H   0  0  0  0  0  0  0  0  0  0  0  0
   57.3660   25.9001   44.0837 H   0  0  0  0  0  0  0  0  0  0  0  0
   58.2293   27.4225   44.5495 H   0  0  0  0  0  0  0  0  0  0  0  0
   61.0651   26.3580   46.0190 H   0  0  0  0  0  0  0  0  0  0  0  0
   59.9158   27.6474   45.4848 H   0  0  0  0  0  0  0  0  0  0  0  0
   61.2460   29.1470   47.0470 H   0  0  0  0  0  0  0  0  0  0  0  0
   60.1990   27.6942   50.2387 H   0  0  0  0  0  0  0  0  0  0  0  0
   59.7321   28.9659   52.3295 H   0  0  0  0  0  0  0  0  0  0  0  0
   59.7560   31.4592   52.3108 H   0  0  0  0  0  0  0  0  0  0  0  0
   60.2655   32.6899   50.2045 H   0  0  0  0  0  0  0  0  0  0  0  0
   60.6683   34.5317   45.4243 H   0  0  0  0  0  0  0  0  0  0  0  0
   58.7360   35.2284   44.0003 H   0  0  0  0  0  0  0  0  0  0  0  0
   56.4194   34.5146   44.6062 H   0  0  0  0  0  0  0  0  0  0  0  0
   56.0636   33.1379   46.6624 H   0  0  0  0  0  0  0  0  0  0  0  0
  1  2  1  0
  2  3  2  0
  3  4  1  0
  4  5  2  0
  5  6  1  0
  6  7  2  0
  7  8  1  0
  8  9  1  0
  9 10  2  0
  9 11  1  0
 11 12  1  0
 12 13  1  0
 13 14  1  0
 14 15  2  0
 14 16  1  0
 16 17  1  0
 17 18  2  0
 18 19  1  0
 19 20  2  0
 20 21  1  0
 21 22  2  0
 22 23  1  0
 23 24  2  0
 23 25  1  0
 25 26  2  3
 26 27  1  0
 27 28  2  0
 28 29  1  0
 29 30  2  0
 30 31  1  0
  7  2  1  0
 22 17  1  0
 31 26  1  0
  1 32  1  0
  1 33  1  0
  1 34  1  0
  3 35  1  0
  4 36  1  0
  5 37  1  0
  6 38  1  0
 11 39  1  0
 11 40  1  0
 13 41  1  0
 13 42  1  0
 16 43  1  0
 18 44  1  0
 19 45  1  0
 20 46  1  0
 21 47  1  0
 27 48  1  0
 28 49  1  0
 29 50  1  0
 30 51  1  0
M  CHG  2   8  -1  31  -1
M  END
>  <UniqueID>  (17) 
17

>  <SMILES>  (17) 
Cc1ccccc1[N-]C(=O)CSCC(=O)Nc1ccccc1C(=O)N=c1cccc[n-]1

>  <Energy>  (17) 
65.57167174556649

>  <Genealogy>  (17) 
Cc1ccccc1[N-]C(=O)CSCC(=O)Nc1ccccc1C(=O)N=c1cccc[n-]1 (protonated)
Cc1ccccc1[N-]C(=O)CSCC(=O)Nc1ccccc1C(=O)N=c1cccc[n-]1 (3D coordinates assigned)
Cc1ccccc1[N-]C(=O)CSCC(=O)Nc1ccccc1C(=O)N=c1cccc[n-]1 (optimized conformer: 65.57167174556649 kcal/mol)

>  <smiles>  (17) 
Cc1ccccc1NC(=O)CSCC(=O)Nc1ccccc1C(=O)N=c1cccc[nH]1

>  <score_type>  (17) 
oracle

>  <origin>  (17) 
adg

>  <m_score__min__energy>  (17) 
-12.050000000000001

>  <m_primary>  (17) 
energy

$$$$
17:0
     RDKit          3D

 27 29  0  0  0  0  0  0  0  0999 V2000
   60.1140   30.1280   46.0060 O   0  0  0  0  0  0  0  0  0  0  0  0
   59.9770   31.3040   46.4380 C   0  0  0  0  0  0  0  0  0  0  0  0
   61.0120   32.0460   47.1440 C   0  0  0  0  0  0  0  0  0  0  0  0
   62.3290   31.7100   47.4540 C   0  0  0  0  0  0  0  0  0  0  0  0
   63.1030   32.6540   48.1530 C   0  0  0  0  0  0  0  0  0  0  0  0
   62.5470   33.8980   48.5220 C   0  0  0  0  0  0  0  0  0  0  0  0
   61.2150   34.2070   48.1950 C   0  0  0  0  0  0  0  0  0  0  0  0
   60.4740   33.2500   47.5020 C   0  0  0  0  0  0  0  0  0  0  0  0
   59.1010   33.2700   47.0220 C   0  0  0  0  0  0  0  0  0  0  0  0
   58.2920   34.2160   47.2160 O   0  0  0  0  0  0  0  0  0  0  0  0
   58.7530   32.0610   46.3130 N   0  0  0  0  0  0  0  0  0  0  0  0
   58.3960   32.3190   44.9010 C   0  0  0  0  0  0  0  0  0  0  0  0
   57.4500   31.2940   44.3260 C   0  0  0  0  0  0  0  0  0  0  0  0
   57.2370   31.0510   42.9840 C   0  0  0  0  0  0  0  0  0  0  0  0
   56.2710   30.0710   42.9340 C   0  0  0  0  0  0  0  0  0  0  0  0
   55.9540   29.7770   44.2450 C   0  0  0  0  0  0  0  0  0  0  0  0
   56.6730   30.5230   45.0510 O   0  0  0  0  0  0  0  0  0  0  0  0
   62.7499   30.7368   47.1611 H   0  0  0  0  0  0  0  0  0  0  0  0
   64.1462   32.4218   48.4133 H   0  0  0  0  0  0  0  0  0  0  0  0
   63.1596   34.6300   49.0687 H   0  0  0  0  0  0  0  0  0  0  0  0
   60.7712   35.1732   48.4769 H   0  0  0  0  0  0  0  0  0  0  0  0
   57.9770   31.5660   46.8110 H   0  0  0  0  0  0  0  0  0  0  0  0
   57.9194   33.3083   44.8369 H   0  0  0  0  0  0  0  0  0  0  0  0
   59.3261   32.2673   44.3159 H   0  0  0  0  0  0  0  0  0  0  0  0
   57.7348   31.5383   42.1327 H   0  0  0  0  0  0  0  0  0  0  0  0
   55.8390   29.6144   42.0313 H   0  0  0  0  0  0  0  0  0  0  0  0
   55.2118   29.0311   44.5655 H   0  0  0  0  0  0  0  0  0  0  0  0
  1  2  2  0
  2  3  1  0
  3  4  2  0
  4  5  1  0
  5  6  2  0
  6  7  1  0
  7  8  2  0
  8  9  1  0
  9 10  2  0
  9 11  1  0
 11 12  1  0
 12 13  1  0
 13 14  2  0
 14 15  1  0
 15 16  2  0
 16 17  1  0
 11  2  1  0
 17 13  1  0
  8  3  1  0
  4 18  1  0
  5 19  1  0
  6 20  1  0
  7 21  1  0
 11 22  1  0
 12 23  1  0
 12 24  1  0
 14 25  1  0
 15 26  1  0
 16 27  1  0
M  CHG  1  11   1
M  END
>  <UniqueID>  (18) 
18

>  <SMILES>  (18) 
O=C1c2ccccc2C(=O)[NH+]1Cc1ccco1

>  <Energy>  (18) 
81.01300372757403

>  <Genealogy>  (18) 
O=C1c2ccccc2C(=O)[NH+]1Cc1ccco1 (protonated)
O=C1c2ccccc2C(=O)[NH+]1Cc1ccco1 (3D coordinates assigned)
O=C1c2ccccc2C(=O)[NH+]1Cc1ccco1 (nonaromatic ring conformer: 81.01300372757403 kcal/mol)

>  <smiles>  (18) 
O=C1c2ccccc2C(=O)N1Cc1ccco1

>  <score_type>  (18) 
oracle

>  <origin>  (18) 
adg

>  <m_score__min__energy>  (18) 
-5.0199999999999996

>  <m_primary>  (18) 
energy

$$$$
18:0
     RDKit          3D

 43 45  0  0  0  0  0  0  0  0999 V2000
   56.8259   33.2322   43.5360 H   0  0  0  0  0  0  0  0  0  0  0  0
   57.4180   33.0500   44.4450 C   0  0  0  0  0  0  0  0  0  0  0  0
   58.2120   34.0710   44.9650 C   0  0  0  0  0  0  0  0  0  0  0  0
   58.2387   35.0497   44.4636 H   0  0  0  0  0  0  0  0  0  0  0  0
   58.9760   33.8620   46.1200 C   0  0  0  0  0  0  0  0  0  0  0  0
   59.8240   34.9480   46.6690 C   0  0  0  0  0  0  0  0  0  0  0  0
   59.7290   36.1130   46.1950 O   0  0  0  0  0  0  0  0  0  0  0  0
   60.6800   34.6870   47.7960 N   0  0  0  0  0  0  0  0  0  0  0  0
   61.6350   33.8060   47.9230 C   0  0  0  0  0  0  0  0  0  0  0  0
   61.6560   32.8410   48.9550 C   0  0  0  0  0  0  0  0  0  0  0  0
   60.8439   32.8054   49.6961 H   0  0  0  0  0  0  0  0  0  0  0  0
   62.7140   31.9330   49.0280 C   0  0  0  0  0  0  0  0  0  0  0  0
   62.7327   31.1732   49.8232 H   0  0  0  0  0  0  0  0  0  0  0  0
   63.7460   31.9890   48.0940 C   0  0  0  0  0  0  0  0  0  0  0  0
   64.5783   31.2713   48.1410 H   0  0  0  0  0  0  0  0  0  0  0  0
   63.7120   32.9650   47.0990 C   0  0  0  0  0  0  0  0  0  0  0  0
   64.5254   33.0238   46.3608 H   0  0  0  0  0  0  0  0  0  0  0  0
   62.6760   33.8450   47.0380 N   0  0  0  0  0  0  0  0  0  0  0  0
   62.6810   34.5650   46.2800 H   0  0  0  0  0  0  0  0  0  0  0  0
   58.9260   32.6060   46.7460 C   0  0  0  0  0  0  0  0  0  0  0  0
   59.5289   32.4315   47.6493 H   0  0  0  0  0  0  0  0  0  0  0  0
   58.1250   31.5690   46.2460 C   0  0  0  0  0  0  0  0  0  0  0  0
   58.1430   30.3620   46.9700 O   0  0  0  0  0  0  0  0  0  0  0  0
   58.9670   29.2160   46.7410 C   0  0  0  0  0  0  0  0  0  0  0  0
   59.0310   28.6724   47.6952 H   0  0  0  0  0  0  0  0  0  0  0  0
   60.3700   29.6130   46.2570 C   0  0  0  0  0  0  0  0  0  0  0  0
   60.4307   30.7040   46.1302 H   0  0  0  0  0  0  0  0  0  0  0  0
   61.1356   29.3139   46.9881 H   0  0  0  0  0  0  0  0  0  0  0  0
   60.5960   28.9180   44.9200 C   0  0  0  0  0  0  0  0  0  0  0  0
   60.4812   29.6336   44.0925 H   0  0  0  0  0  0  0  0  0  0  0  0
   61.6106   28.4990   44.8489 H   0  0  0  0  0  0  0  0  0  0  0  0
   59.5380   27.8340   44.8310 C   0  0  0  0  0  0  0  0  0  0  0  0
   59.2503   27.6593   43.7838 H   0  0  0  0  0  0  0  0  0  0  0  0
   59.8981   26.8713   45.2229 H   0  0  0  0  0  0  0  0  0  0  0  0
   58.3620   28.3690   45.6250 C   0  0  0  0  0  0  0  0  0  0  0  0
   57.7151   28.9855   44.9836 H   0  0  0  0  0  0  0  0  0  0  0  0
   57.7393   27.5555   46.0254 H   0  0  0  0  0  0  0  0  0  0  0  0
   57.3640   31.7870   45.0690 C   0  0  0  0  0  0  0  0  0  0  0  0
   56.5830   30.7530   44.5330 O   0  0  0  0  0  0  0  0  0  0  0  0
   56.6710   30.2700   43.1970 C   0  0  0  0  0  0  0  0  0  0  0  0
   56.8682   29.1879   43.2106 H   0  0  0  0  0  0  0  0  0  0  0  0
   55.7228   30.4634   42.6740 H   0  0  0  0  0  0  0  0  0  0  0  0
   57.4900   30.7854   42.6740 H   0  0  0  0  0  0  0  0  0  0  0  0
  1  2  1  0
  2  3  2  0
  3  4  1  0
  3  5  1  0
  5  6  1  0
  6  7  2  0
  6  8  1  0
  8  9  2  0
  9 10  1  0
 10 11  1  0
 10 12  2  0
 12 13  1  0
 12 14  1  0
 14 15  1  0
 14 16  2  0
 16 17  1  0
 16 18  1  0
 18 19  1  0
  5 20  2  0
 20 21  1  0
 20 22  1  0
 22 23  1  0
 23 24  1  0
 24 25  1  0
 24 26  1  0
 26 27  1  0
 26 28  1  0
 26 29  1  0
 29 30  1  0
 29 31  1  0
 29 32  1  0
 32 33  1  0
 32 34  1  0
 32 35  1  0
 35 36  1  0
 35 37  1  0
 22 38  2  0
 38 39  1  0
 39 40  1  0
 40 41  1  0
 40 42  1  0
 40 43  1  0
 38  2  1  0
 18  9  1  0
 35 24  1  0
M  END
>  <UniqueID>  (19) 
19

>  <SMILES>  (19) 
COc1ccc(C(=O)/N=c2\cccc[nH]2)cc1OC1CCCC1

>  <Energy>  (19) 
55.97669277584143

>  <Genealogy>  (19) 
COc1ccc(C(=O)/N=c2\cccc[nH]2)cc1OC1CCCC1 (cis-trans isomerization)
COc1ccc(C(=O)/N=c2\cccc[nH]2)cc1OC1CCCC1 (3D coordinates assigned)
COc1ccc(C(=O)/N=c2\cccc[nH]2)cc1OC1CCCC1 (nonaromatic ring conformer: 55.97669277584143 kcal/mol)

>  <smiles>  (19) 
COc1ccc(C(=O)N=c2cccc[nH]2)cc1OC1CCCC1

>  <score_type>  (19) 
oracle

>  <origin>  (19) 
adg

>  <m_score__min__energy>  (19) 
-7.3200000000000003

>  <m_primary>  (19) 
energy

$$$$
19:0
     RDKit          3D

 45 47  0  0  1  0  0  0  0  0999 V2000
   57.0670   31.2110   43.0450 C   0  0  0  0  0  0  0  0  0  0  0  0
   56.4590   30.1390   43.9040 C   0  0  0  0  0  0  0  0  0  0  0  0
   56.9320   30.1810   45.2700 N   0  0  0  0  0  0  0  0  0  0  0  0
   58.1740   29.9790   45.5250 C   0  0  0  0  0  0  0  0  0  0  0  0
   58.9320   29.2080   44.6310 C   0  0  0  0  0  0  0  0  0  0  0  0
   60.2740   29.0220   44.9470 C   0  0  0  0  0  0  0  0  0  0  0  0
   60.8630   29.5190   46.0200 N   0  0  0  0  0  0  0  0  0  0  0  0
   60.1150   30.2570   46.8670 C   0  0  0  0  0  0  0  0  0  0  0  0
   60.6050   30.7860   47.9220 N   0  0  0  0  0  0  0  0  0  0  0  0
   61.5820   31.8040   47.9240 C   0  0  0  0  0  0  0  0  0  0  0  0
   62.7850   31.6140   47.2440 C   0  0  0  0  0  0  0  0  0  0  0  0
   63.7570   32.5850   47.1770 C   0  0  0  0  0  0  0  0  0  0  0  0
   63.5930   33.8110   47.7850 C   0  0  0  0  0  0  0  0  0  0  0  0
   62.3940   34.0230   48.4720 C   0  0  0  0  0  0  0  0  0  0  0  0
   61.4140   33.0220   48.5310 C   0  0  0  0  0  0  0  0  0  0  0  0
   60.2050   33.3830   49.3360 C   0  0  0  0  0  0  0  0  0  0  0  0
   58.9770   33.0140   48.6030 C   0  0  0  0  0  0  0  0  0  0  0  0
   58.1400   32.1900   49.0970 O   0  0  0  0  0  0  0  0  0  0  0  0
   58.6150   33.5430   47.2890 C   0  0  0  0  0  0  0  0  0  0  0  0
   59.4960   34.3860   46.6440 C   0  0  0  0  0  0  0  0  0  0  0  0
   59.2350   34.9300   45.3900 C   0  0  0  0  0  0  0  0  0  0  0  0
   58.0290   34.5990   44.7770 C   0  0  0  0  0  0  0  0  0  0  0  0
   57.1190   33.7610   45.3860 C   0  0  0  0  0  0  0  0  0  0  0  0
   57.4430   33.2510   46.6380 C   0  0  0  0  0  0  0  0  0  0  0  0
   58.8100   30.4630   46.5990 N   0  0  0  0  0  0  0  0  0  0  0  0
   57.5080   31.9885   43.6861 H   0  0  0  0  0  0  0  0  0  0  0  0
   57.8504   30.7716   42.4099 H   0  0  0  0  0  0  0  0  0  0  0  0
   56.2879   31.6578   42.4099 H   0  0  0  0  0  0  0  0  0  0  0  0
   55.3665   30.2676   43.9061 H   0  0  0  0  0  0  0  0  0  0  0  0
   56.7543   29.1677   43.4806 H   0  0  0  0  0  0  0  0  0  0  0  0
   58.4870   28.7719   43.7245 H   0  0  0  0  0  0  0  0  0  0  0  0
   60.8853   28.4212   44.2576 H   0  0  0  0  0  0  0  0  0  0  0  0
   61.8650   29.3960   46.2830 H   0  0  0  0  0  0  0  0  0  0  0  0
   62.9631   30.6514   46.7424 H   0  0  0  0  0  0  0  0  0  0  0  0
   64.6862   32.3784   46.6257 H   0  0  0  0  0  0  0  0  0  0  0  0
   64.3703   34.5875   47.7321 H   0  0  0  0  0  0  0  0  0  0  0  0
   62.2173   34.9866   48.9722 H   0  0  0  0  0  0  0  0  0  0  0  0
   60.2322   32.8440   50.2945 H   0  0  0  0  0  0  0  0  0  0  0  0
   60.2039   34.4682   49.5161 H   0  0  0  0  0  0  0  0  0  0  0  0
   60.4440   34.6387   47.1414 H   0  0  0  0  0  0  0  0  0  0  0  0
   59.9571   35.5991   44.8993 H   0  0  0  0  0  0  0  0  0  0  0  0
   57.7974   35.0152   43.7854 H   0  0  0  0  0  0  0  0  0  0  0  0
   56.1676   33.5044   44.8971 H   0  0  0  0  0  0  0  0  0  0  0  0
   56.7242   32.5801   47.1312 H   0  0  0  0  0  0  0  0  0  0  0  0
   58.2740   31.0270   47.2620 H   0  0  0  0  0  0  0  0  0  0  0  0
  1  2  1  0
  2  3  1  0
  3  4  2  0
  4  5  1  0
  5  6  2  0
  6  7  1  0
  7  8  1  0
  8  9  2  0
  9 10  1  0
 10 11  2  0
 11 12  1  0
 12 13  2  0
 13 14  1  0
 14 15  2  0
 15 16  1  0
 16 17  1  0
 17 18  2  0
 17 19  1  0
 19 20  2  0
 20 21  1  0
 21 22  2  0
 22 23  1  0
 23 24  2  0
  8 25  1  0
 25  4  1  0
 15 10  1  0
 24 19  1  0
  1 26  1  0
  1 27  1  0
  1 28  1  0
  2 29  1  0
  2 30  1  0
  5 31  1  0
  6 32  1  0
  7 33  1  0
 11 34  1  0
 12 35  1  0
 13 36  1  0
 14 37  1  0
 16 38  1  0
 16 39  1  0
 20 40  1  0
 21 41  1  0
 22 42  1  0
 23 43  1  0
 24 44  1  0
 25 45  1  0
M  END
>  <smiles>  (20) 
CCN=c1cc[nH]c(=Nc2ccccc2CC(=O)c2ccccc2)[nH]1

>  <score_type>  (20) 
oracle

>  <origin>  (20) 
adg

>  <m_score__min__energy>  (20) 
-8.5299999999999994

>  <m_primary>  (20) 
energy

$$$$
20:0
     RDKit          3D

 36 40  0  0  0  0  0  0  0  0999 V2000
   57.4130   31.3170   42.3400 O   0  0  0  0  0  0  0  0  0  0  0  0
   57.6900   31.1340   43.5540 C   0  0  0  0  0  0  0  0  0  0  0  0
   57.9690   32.1440   44.5660 C   0  0  0  0  0  0  0  0  0  0  0  0
   58.0070   33.5330   44.4810 C   0  0  0  0  0  0  0  0  0  0  0  0
   58.3100   34.2560   45.6470 C   0  0  0  0  0  0  0  0  0  0  0  0
   58.5650   33.5820   46.8610 C   0  0  0  0  0  0  0  0  0  0  0  0
   58.5200   32.1770   46.9220 C   0  0  0  0  0  0  0  0  0  0  0  0
   58.2180   31.4730   45.7520 C   0  0  0  0  0  0  0  0  0  0  0  0
   58.1120   30.0550   45.5590 N   0  0  0  0  0  0  0  0  0  0  0  0
   57.8000   29.8640   44.2580 C   0  0  0  0  0  0  0  0  0  0  0  0
   57.6270   28.6240   43.7420 N   0  0  0  0  0  0  0  0  0  0  0  0
   57.7700   27.5370   44.5520 C   0  0  0  0  0  0  0  0  0  0  0  0
   57.5940   26.2520   44.0260 C   0  0  0  0  0  0  0  0  0  0  0  0
   57.7400   25.1180   44.8450 C   0  0  0  0  0  0  0  0  0  0  0  0
   57.5520   23.7550   44.2840 C   0  0  0  0  0  0  0  0  0  0  0  0
   58.4990   22.7430   44.5160 C   0  0  0  0  0  0  0  0  0  0  0  0
   58.3090   21.4680   43.9820 C   0  0  0  0  0  0  0  0  0  0  0  0
   57.1720   21.2100   43.2160 C   0  0  0  0  0  0  0  0  0  0  0  0
   56.2610   22.1940   42.9990 N   0  0  0  0  0  0  0  0  0  0  0  0
   56.4220   23.4450   43.5050 C   0  0  0  0  0  0  0  0  0  0  0  0
   58.0670   25.2900   46.2030 C   0  0  0  0  0  0  0  0  0  0  0  0
   58.2450   26.5700   46.7390 C   0  0  0  0  0  0  0  0  0  0  0  0
   58.1000   27.7040   45.9240 C   0  0  0  0  0  0  0  0  0  0  0  0
   58.2710   29.0130   46.4200 C   0  0  0  0  0  0  0  0  0  0  0  0
   58.5620   29.2150   47.6300 O   0  0  0  0  0  0  0  0  0  0  0  0
   57.8060   34.0486   43.5303 H   0  0  0  0  0  0  0  0  0  0  0  0
   58.3488   35.3548   45.6137 H   0  0  0  0  0  0  0  0  0  0  0  0
   58.8008   34.1600   47.7667 H   0  0  0  0  0  0  0  0  0  0  0  0
   58.7172   31.6463   47.8651 H   0  0  0  0  0  0  0  0  0  0  0  0
   57.3393   26.1280   42.9631 H   0  0  0  0  0  0  0  0  0  0  0  0
   59.3929   22.9567   45.1205 H   0  0  0  0  0  0  0  0  0  0  0  0
   59.0485   20.6741   44.1632 H   0  0  0  0  0  0  0  0  0  0  0  0
   57.0131   20.2094   42.7876 H   0  0  0  0  0  0  0  0  0  0  0  0
   55.6658   24.2184   43.3047 H   0  0  0  0  0  0  0  0  0  0  0  0
   58.1839   24.4083   46.8502 H   0  0  0  0  0  0  0  0  0  0  0  0
   58.4994   26.6883   47.8026 H   0  0  0  0  0  0  0  0  0  0  0  0
  1  2  2  0
  2  3  1  0
  3  4  2  0
  4  5  1  0
  5  6  2  0
  6  7  1  0
  7  8  2  0
  8  9  1  0
  9 10  1  0
 10 11  2  0
 11 12  1  0
 12 13  2  0
 13 14  1  0
 14 15  1  0
 15 16  2  0
 16 17  1  0
 17 18  2  0
 18 19  1  0
 19 20  2  0
 14 21  2  0
 21 22  1  0
 22 23  2  0
 23 24  1  0
 24 25  2  0
 10  2  1  0
 23 12  1  0
  8  3  1  0
 24  9  1  0
 20 15  1  0
  4 26  1  0
  5 27  1  0
  6 28  1  0
  7 29  1  0
 13 30  1  0
 16 31  1  0
 17 32  1  0
 18 33  1  0
 20 34  1  0
 21 35  1  0
 22 36  1  0
M  END
>  <UniqueID>  (21) 
20

>  <SMILES>  (21) 
O=C1c2ccccc2-n2c1nc1cc(-c3cccnc3)ccc1c2=O

>  <Energy>  (21) 
93.0463773168925

>  <Genealogy>  (21) 
O=C1c2ccccc2-n2c1nc1cc(-c3cccnc3)ccc1c2=O (3D coordinates assigned)
O=C1c2ccccc2-n2c1nc1cc(-c3cccnc3)ccc1c2=O (nonaromatic ring conformer: 93.0463773168925 kcal/mol)

>  <smiles>  (21) 
O=C1c2ccccc2-n2c1nc1cc(-c3cccnc3)ccc1c2=O

>  <score_type>  (21) 
oracle

>  <origin>  (21) 
adg

>  <m_score__min__energy>  (21) 
-8.7100000000000009

>  <m_primary>  (21) 
energy

$$$$
21:0
     RDKit          3D

 58 62  0  0  0  0  0  0  0  0999 V2000
   59.5200   31.1120   54.5770 C   0  0  0  0  0  0  0  0  0  0  0  0
   59.4260   31.8660   53.2840 C   0  0  0  0  0  0  0  0  0  0  0  0
   59.7260   33.2540   53.2500 C   0  0  0  0  0  0  0  0  0  0  0  0
   59.6750   33.9710   52.0400 C   0  0  0  0  0  0  0  0  0  0  0  0
   59.3320   33.2670   50.8900 C   0  0  0  0  0  0  0  0  0  0  0  0
   59.2250   33.7040   49.6600 O   0  0  0  0  0  0  0  0  0  0  0  0
   58.8860   32.6550   48.9230 C   0  0  0  0  0  0  0  0  0  0  0  0
   58.6700   32.7350   47.4590 C   0  0  0  0  0  0  0  0  0  0  0  0
   59.1360   33.8540   46.7520 C   0  0  0  0  0  0  0  0  0  0  0  0
   58.9620   33.9460   45.3700 C   0  0  0  0  0  0  0  0  0  0  0  0
   58.3140   32.9230   44.6610 C   0  0  0  0  0  0  0  0  0  0  0  0
   58.2050   33.0440   43.1640 C   0  0  0  0  0  0  0  0  0  0  0  0
   57.7860   31.8190   45.3750 C   0  0  0  0  0  0  0  0  0  0  0  0
   57.0540   30.7660   44.7280 N   0  0  0  0  0  0  0  0  0  0  0  0
   56.8480   29.4490   45.2540 C   0  0  0  0  0  0  0  0  0  0  0  0
   55.6950   28.9470   45.2000 O   0  0  0  0  0  0  0  0  0  0  0  0
   57.9390   28.6620   45.8500 C   0  0  0  0  0  0  0  0  0  0  0  0
   58.7680   27.7660   45.1990 C   0  0  0  0  0  0  0  0  0  0  0  0
   59.6510   27.3090   46.1530 C   0  0  0  0  0  0  0  0  0  0  0  0
   59.3010   27.9510   47.3230 C   0  0  0  0  0  0  0  0  0  0  0  0
   60.0170   27.8330   48.6300 C   0  0  0  0  0  0  0  0  0  0  0  0
   60.1730   29.1230   49.2230 O   0  0  0  0  0  0  0  0  0  0  0  0
   61.1030   30.0990   48.8200 C   0  0  0  0  0  0  0  0  0  0  0  0
   61.1450   30.5870   47.4980 C   0  0  0  0  0  0  0  0  0  0  0  0
   62.1090   31.5260   47.1220 C   0  0  0  0  0  0  0  0  0  0  0  0
   63.0310   31.9970   48.0570 C   0  0  0  0  0  0  0  0  0  0  0  0
   62.9910   31.5330   49.3740 C   0  0  0  0  0  0  0  0  0  0  0  0
   62.0210   30.5970   49.7680 C   0  0  0  0  0  0  0  0  0  0  0  0
   62.0250   30.0720   51.1750 C   0  0  0  0  0  0  0  0  0  0  0  0
   58.2730   28.7390   47.1170 O   0  0  0  0  0  0  0  0  0  0  0  0
   58.0010   31.7190   46.7560 C   0  0  0  0  0  0  0  0  0  0  0  0
   58.7690   31.5220   49.6690 N   0  0  0  0  0  0  0  0  0  0  0  0
   59.0560   31.9340   50.9120 C   0  0  0  0  0  0  0  0  0  0  0  0
   59.0970   31.1880   52.0870 C   0  0  0  0  0  0  0  0  0  0  0  0
   59.4324   31.8149   55.4186 H   0  0  0  0  0  0  0  0  0  0  0  0
   58.7070   30.3729   54.6304 H   0  0  0  0  0  0  0  0  0  0  0  0
   60.4895   30.5951   54.6304 H   0  0  0  0  0  0  0  0  0  0  0  0
   60.0012   33.7741   54.1794 H   0  0  0  0  0  0  0  0  0  0  0  0
   59.8980   35.0476   52.0048 H   0  0  0  0  0  0  0  0  0  0  0  0
   59.6435   34.6668   47.2922 H   0  0  0  0  0  0  0  0  0  0  0  0
   59.3365   34.8290   44.8315 H   0  0  0  0  0  0  0  0  0  0  0  0
   57.4884   33.8395   42.9116 H   0  0  0  0  0  0  0  0  0  0  0  0
   59.1908   33.2916   42.7434 H   0  0  0  0  0  0  0  0  0  0  0  0
   57.8562   32.0893   42.7434 H   0  0  0  0  0  0  0  0  0  0  0  0
   58.7301   27.4777   44.1381 H   0  0  0  0  0  0  0  0  0  0  0  0
   60.4655   26.5833   46.0113 H   0  0  0  0  0  0  0  0  0  0  0  0
   59.4354   27.1896   49.3066 H   0  0  0  0  0  0  0  0  0  0  0  0
   61.0106   27.3937   48.4575 H   0  0  0  0  0  0  0  0  0  0  0  0
   60.4148   30.2265   46.7584 H   0  0  0  0  0  0  0  0  0  0  0  0
   62.1410   31.8948   46.0861 H   0  0  0  0  0  0  0  0  0  0  0  0
   63.7901   32.7344   47.7569 H   0  0  0  0  0  0  0  0  0  0  0  0
   63.7234   31.9029   50.1066 H   0  0  0  0  0  0  0  0  0  0  0  0
   62.0186   30.9154   51.8811 H   0  0  0  0  0  0  0  0  0  0  0  0
   61.1316   29.4512   51.3372 H   0  0  0  0  0  0  0  0  0  0  0  0
   62.9278   29.4649   51.3372 H   0  0  0  0  0  0  0  0  0  0  0  0
   57.6407   30.8320   47.2977 H   0  0  0  0  0  0  0  0  0  0  0  0
   58.5240   30.5530   49.3690 H   0  0  0  0  0  0  0  0  0  0  0  0
   58.8811   30.1094   52.0845 H   0  0  0  0  0  0  0  0  0  0  0  0
  1  2  1  0
  2  3  2  0
  3  4  1  0
  4  5  2  0
  5  6  1  0
  6  7  1  0
  7  8  1  0
  8  9  2  0
  9 10  1  0
 10 11  2  0
 11 12  1  0
 11 13  1  0
 13 14  1  0
 14 15  1  0
 15 16  2  0
 15 17  1  0
 17 18  2  0
 18 19  1  0
 19 20  2  0
 20 21  1  0
 21 22  1  0
 22 23  1  0
 23 24  2  0
 24 25  1  0
 25 26  2  0
 26 27  1  0
 27 28  2  0
 28 29  1  0
 20 30  1  0
 13 31  2  0
  7 32  2  0
 32 33  1  0
 33 34  2  0
 34  2  1  0
 33  5  1  0
 31  8  1  0
 30 17  1  0
 28 23  1  0
  1 35  1  0
  1 36  1  0
  1 37  1  0
  3 38  1  0
  4 39  1  0
  9 40  1  0
 10 41  1  0
 12 42  1  0
 12 43  1  0
 12 44  1  0
 18 45  1  0
 19 46  1  0
 21 47  1  0
 21 48  1  0
 24 49  1  0
 25 50  1  0
 26 51  1  0
 27 52  1  0
 29 53  1  0
 29 54  1  0
 29 55  1  0
 31 56  1  0
 32 57  1  0
 34 58  1  0
M  CHG  2  14  -1  32   1
M  END
>  <UniqueID>  (22) 
21

>  <SMILES>  (22) 
Cc1ccc2oc(-c3ccc(C)c([N-]C(=O)c4ccc(COc5ccccc5C)o4)c3)[nH+]c2c1

>  <Energy>  (22) 
134.6486145559619

>  <Genealogy>  (22) 
Cc1ccc2oc(-c3ccc(C)c([N-]C(=O)c4ccc(COc5ccccc5C)o4)c3)[nH+]c2c1 (protonated)
Cc1ccc2oc(-c3ccc(C)c([N-]C(=O)c4ccc(COc5ccccc5C)o4)c3)[nH+]c2c1 (3D coordinates assigned)
Cc1ccc2oc(-c3ccc(C)c([N-]C(=O)c4ccc(COc5ccccc5C)o4)c3)[nH+]c2c1 (optimized conformer: 134.6486145559619 kcal/mol)

>  <smiles>  (22) 
Cc1ccc2oc(-c3ccc(C)c(NC(=O)c4ccc(COc5ccccc5C)o4)c3)nc2c1

>  <score_type>  (22) 
oracle

>  <origin>  (22) 
adg

>  <m_score__min__energy>  (22) 
-10.31

>  <m_primary>  (22) 
energy

$$$$
22:0
     RDKit          3D

 38 39  0  0  0  0  0  0  0  0999 V2000
   60.3920   28.2370   45.6930 C   0  0  0  0  0  0  0  0  0  0  0  0
   60.3770   27.9980   47.1980 C   0  0  0  0  0  0  0  0  0  0  0  0
   59.4220   28.8460   47.8330 O   0  0  0  0  0  0  0  0  0  0  0  0
   59.6050   30.2230   48.0030 C   0  0  0  0  0  0  0  0  0  0  0  0
   60.2390   30.6650   49.0010 O   0  0  0  0  0  0  0  0  0  0  0  0
   58.9990   31.1710   47.0460 C   0  0  0  0  0  0  0  0  0  0  0  0
   58.1330   30.6420   46.0760 C   0  0  0  0  0  0  0  0  0  0  0  0
   57.5510   31.4580   45.0990 C   0  0  0  0  0  0  0  0  0  0  0  0
   56.6670   30.8950   44.1110 N   0  0  0  0  0  0  0  0  0  0  0  0
   56.8910   31.0490   42.8930 O   0  0  0  0  0  0  0  0  0  0  0  0
   55.5540   30.1810   44.4940 O   0  0  0  0  0  0  0  0  0  0  0  0
   57.8570   32.8240   45.0880 C   0  0  0  0  0  0  0  0  0  0  0  0
   58.7150   33.3840   46.0460 C   0  0  0  0  0  0  0  0  0  0  0  0
   58.9980   34.7900   45.9730 N   0  0  0  0  0  0  0  0  0  0  0  0
   59.2580   35.3160   44.8720 O   0  0  0  0  0  0  0  0  0  0  0  0
   59.2490   35.4980   47.1260 O   0  0  0  0  0  0  0  0  0  0  0  0
   59.2730   32.5690   47.0660 C   0  0  0  0  0  0  0  0  0  0  0  0
   59.9690   33.1810   48.1850 N   0  0  0  0  0  0  0  0  0  0  0  0
   61.3850   33.2600   47.9090 C   0  0  0  0  0  0  0  0  0  0  0  0
   61.8500   33.7540   46.6760 C   0  0  0  0  0  0  0  0  0  0  0  0
   63.2220   33.8360   46.4190 C   0  0  0  0  0  0  0  0  0  0  0  0
   64.1420   33.4220   47.3850 C   0  0  0  0  0  0  0  0  0  0  0  0
   63.6930   32.9200   48.6100 C   0  0  0  0  0  0  0  0  0  0  0  0
   64.8490   32.3950   49.8200 Cl  0  0  0  0  0  0  0  0  0  0  0  0
   62.3210   32.8360   48.8700 C   0  0  0  0  0  0  0  0  0  0  0  0
   60.4598   29.3167   45.4939 H   0  0  0  0  0  0  0  0  0  0  0  0
   61.2599   27.7272   45.2494 H   0  0  0  0  0  0  0  0  0  0  0  0
   59.4671   27.8397   45.2494 H   0  0  0  0  0  0  0  0  0  0  0  0
   60.1147   26.9479   47.3944 H   0  0  0  0  0  0  0  0  0  0  0  0
   61.3748   28.2238   47.6022 H   0  0  0  0  0  0  0  0  0  0  0  0
   57.9075   29.5654   46.0839 H   0  0  0  0  0  0  0  0  0  0  0  0
   57.4166   33.4699   44.3141 H   0  0  0  0  0  0  0  0  0  0  0  0
   59.6330   34.1450   48.3890 H   0  0  0  0  0  0  0  0  0  0  0  0
   59.7870   32.6420   49.0590 H   0  0  0  0  0  0  0  0  0  0  0  0
   61.1299   34.0775   45.9100 H   0  0  0  0  0  0  0  0  0  0  0  0
   63.5774   34.2272   45.4543 H   0  0  0  0  0  0  0  0  0  0  0  0
   65.2208   33.4910   47.1816 H   0  0  0  0  0  0  0  0  0  0  0  0
   61.9714   32.4355   49.8330 H   0  0  0  0  0  0  0  0  0  0  0  0
  1  2  1  0
  2  3  1  0
  3  4  1  0
  4  5  2  0
  4  6  1  0
  6  7  2  0
  7  8  1  0
  8  9  1  0
  9 10  2  0
  9 11  1  0
  8 12  2  0
 12 13  1  0
 13 14  1  0
 14 15  2  0
 14 16  1  0
 13 17  2  0
 17 18  1  0
 18 19  1  0
 19 20  2  0
 20 21  1  0
 21 22  2  0
 22 23  1  0
 23 24  1  0
 23 25  2  0
 17  6  1  0
 25 19  1  0
  1 26  1  0
  1 27  1  0
  1 28  1  0
  2 29  1  0
  2 30  1  0
  7 31  1  0
 12 32  1  0
 18 33  1  0
 18 34  1  0
 20 35  1  0
 21 36  1  0
 22 37  1  0
 25 38  1  0
M  CHG  5   9   1  11  -1  14   1  16  -1  18   1
M  END
>  <UniqueID>  (23) 
22

>  <SMILES>  (23) 
CCOC(=O)c1cc([N+](=O)[O-])cc([N+](=O)[O-])c1[NH2+]c1cccc(Cl)c1

>  <Energy>  (23) 
52.56097971123604

>  <Genealogy>  (23) 
CCOC(=O)c1cc([N+](=O)[O-])cc([N+](=O)[O-])c1[NH2+]c1cccc(Cl)c1 (protonated)
CCOC(=O)c1cc([N+](=O)[O-])cc([N+](=O)[O-])c1[NH2+]c1cccc(Cl)c1 (3D coordinates assigned)
CCOC(=O)c1cc([N+](=O)[O-])cc([N+](=O)[O-])c1[NH2+]c1cccc(Cl)c1 (optimized conformer: 52.56097971123604 kcal/mol)

>  <smiles>  (23) 
CCOC(=O)c1cc([N+](=O)[O-])cc([N+](=O)[O-])c1Nc1cccc(Cl)c1

>  <score_type>  (23) 
oracle

>  <origin>  (23) 
adg

>  <m_score__min__energy>  (23) 
-5.9299999999999997

>  <m_primary>  (23) 
energy

$$$$
23:0
     RDKit          3D

 31 33  0  0  0  0  0  0  0  0999 V2000
   61.1387   28.7546   47.9617 H   0  0  0  0  0  0  0  0  0  0  0  0
   60.3740   28.7950   47.1720 C   0  0  0  0  0  0  0  0  0  0  0  0
   60.6990   29.3020   45.9110 C   0  0  0  0  0  0  0  0  0  0  0  0
   61.7205   29.6558   45.7075 H   0  0  0  0  0  0  0  0  0  0  0  0
   59.7260   29.3600   44.9070 C   0  0  0  0  0  0  0  0  0  0  0  0
   59.9865   29.7540   43.9136 H   0  0  0  0  0  0  0  0  0  0  0  0
   58.4180   28.9170   45.1630 C   0  0  0  0  0  0  0  0  0  0  0  0
   57.3810   28.9520   44.0730 C   0  0  0  0  0  0  0  0  0  0  0  0
   57.0211   27.9302   43.8821 H   0  0  0  0  0  0  0  0  0  0  0  0
   57.8347   29.3691   43.1619 H   0  0  0  0  0  0  0  0  0  0  0  0
   56.2210   29.8180   44.4810 C   0  0  0  0  0  0  0  0  0  0  0  0
   55.1510   29.2750   44.8680 O   0  0  0  0  0  0  0  0  0  0  0  0
   56.2670   31.2440   44.3470 N   0  0  0  0  0  0  0  0  0  0  0  0
   57.1100   32.0410   44.9350 C   0  0  0  0  0  0  0  0  0  0  0  0
   57.7070   31.7100   46.1090 N   0  0  0  0  0  0  0  0  0  0  0  0
   58.5070   32.7660   46.3400 C   0  0  0  0  0  0  0  0  0  0  0  0
   59.3680   32.9630   47.4170 C   0  0  0  0  0  0  0  0  0  0  0  0
   59.4516   32.2188   48.2227 H   0  0  0  0  0  0  0  0  0  0  0  0
   60.1280   34.1490   47.4380 C   0  0  0  0  0  0  0  0  0  0  0  0
   60.8171   34.3415   48.2735 H   0  0  0  0  0  0  0  0  0  0  0  0
   60.0110   35.0940   46.3920 C   0  0  0  0  0  0  0  0  0  0  0  0
   60.6099   36.0163   46.4189 H   0  0  0  0  0  0  0  0  0  0  0  0
   59.1320   34.8610   45.3160 C   0  0  0  0  0  0  0  0  0  0  0  0
   59.0328   35.5844   44.4933 H   0  0  0  0  0  0  0  0  0  0  0  0
   58.3930   33.6800   45.3330 C   0  0  0  0  0  0  0  0  0  0  0  0
   57.5140   33.2380   44.4270 N   0  0  0  0  0  0  0  0  0  0  0  0
   57.2530   33.6960   43.5260 H   0  0  0  0  0  0  0  0  0  0  0  0
   58.1030   28.3960   46.4300 C   0  0  0  0  0  0  0  0  0  0  0  0
   57.0855   28.0317   46.6350 H   0  0  0  0  0  0  0  0  0  0  0  0
   59.0780   28.3390   47.4310 C   0  0  0  0  0  0  0  0  0  0  0  0
   58.8251   27.9352   48.4225 H   0  0  0  0  0  0  0  0  0  0  0  0
  1  2  1  0
  2  3  2  0
  3  4  1  0
  3  5  1  0
  5  6  1  0
  5  7  2  0
  7  8  1  0
  8  9  1  0
  8 10  1  0
  8 11  1  0
 11 12  2  0
 11 13  1  0
 13 14  2  0
 14 15  1  0
 15 16  1  0
 16 17  2  0
 17 18  1  0
 17 19  1  0
 19 20  1  0
 19 21  2  0
 21 22  1  0
 21 23  1  0
 23 24  1  0
 23 25  2  0
 25 26  1  0
 26 27  1  0
  7 28  1  0
 28 29  1  0
 28 30  2  0
 30 31  1  0
 30  2  1  0
 26 14  1  0
 25 16  1  0
M  CHG  1  15  -1
M  END
>  <UniqueID>  (24) 
23

>  <SMILES>  (24) 
O=C(Cc1ccccc1)/N=c1/[n-]c2ccccc2[nH]1

>  <Energy>  (24) 
76.05857976279748

>  <Genealogy>  (24) 
O=C(Cc1ccccc1)N=c1[n-]c2ccccc2[nH]1 (protonated)
O=C(Cc1ccccc1)/N=c1/[n-]c2ccccc2[nH]1 (cis-trans isomerization)
O=C(Cc1ccccc1)/N=c1/[n-]c2ccccc2[nH]1 (3D coordinates assigned)
O=C(Cc1ccccc1)/N=c1/[n-]c2ccccc2[nH]1 (optimized conformer: 76.05857976279748 kcal/mol)

>  <smiles>  (24) 
O=C(Cc1ccccc1)N=c1[nH]c2ccccc2[nH]1

>  <score_type>  (24) 
oracle

>  <origin>  (24) 
adg

>  <m_score__min__energy>  (24) 
-8.9299999999999997

>  <m_primary>  (24) 
energy

$$$$
24:0
     RDKit          3D

 48 50  0  0  0  0  0  0  0  0999 V2000
   58.8870   33.7810   52.3000 C   0  0  0  0  0  0  0  0  0  0  0  0
   59.6930   33.6290   51.0520 C   0  0  0  0  0  0  0  0  0  0  0  0
   59.2430   34.0830   49.9650 O   0  0  0  0  0  0  0  0  0  0  0  0
   60.9300   32.9000   51.0830 N   0  0  0  0  0  0  0  0  0  0  0  0
   61.8320   32.8220   49.9650 C   0  0  0  0  0  0  0  0  0  0  0  0
   61.8530   33.8510   49.0060 C   0  0  0  0  0  0  0  0  0  0  0  0
   62.7660   33.8220   47.9510 C   0  0  0  0  0  0  0  0  0  0  0  0
   63.6750   32.7710   47.8430 C   0  0  0  0  0  0  0  0  0  0  0  0
   63.6780   31.7480   48.7920 C   0  0  0  0  0  0  0  0  0  0  0  0
   62.7680   31.7620   49.8640 C   0  0  0  0  0  0  0  0  0  0  0  0
   62.7600   30.6350   50.8290 C   0  0  0  0  0  0  0  0  0  0  0  0
   63.8510   30.0990   51.1600 O   0  0  0  0  0  0  0  0  0  0  0  0
   61.5070   30.1260   51.4190 C   0  0  0  0  0  0  0  0  0  0  0  0
   61.2780   30.2840   52.6490 O   0  0  0  0  0  0  0  0  0  0  0  0
   60.5240   29.5220   50.5690 N   0  0  0  0  0  0  0  0  0  0  0  0
   60.0680   30.0250   49.3050 C   0  0  0  0  0  0  0  0  0  0  0  0
   60.7130   29.7030   48.0970 C   0  0  0  0  0  0  0  0  0  0  0  0
   60.2470   30.2280   46.8890 C   0  0  0  0  0  0  0  0  0  0  0  0
   59.1350   31.0830   46.8700 C   0  0  0  0  0  0  0  0  0  0  0  0
   58.6440   31.6420   45.5950 C   0  0  0  0  0  0  0  0  0  0  0  0
   59.0230   32.9490   45.2470 C   0  0  0  0  0  0  0  0  0  0  0  0
   58.6080   33.5100   44.0390 C   0  0  0  0  0  0  0  0  0  0  0  0
   57.8100   32.7740   43.1650 C   0  0  0  0  0  0  0  0  0  0  0  0
   57.4130   31.4780   43.5010 C   0  0  0  0  0  0  0  0  0  0  0  0
   57.8120   30.9010   44.7180 C   0  0  0  0  0  0  0  0  0  0  0  0
   57.2270   29.2770   45.1180 S   0  0  0  0  0  0  0  0  0  0  0  0
   55.5110   29.2120   44.9230 N   0  0  0  0  0  0  0  0  0  0  0  0
   57.5720   28.9470   46.5440 O   0  0  0  0  0  0  0  0  0  0  0  0
   57.8790   28.2570   44.2260 O   0  0  0  0  0  0  0  0  0  0  0  0
   58.5180   31.4370   48.0780 C   0  0  0  0  0  0  0  0  0  0  0  0
   58.9840   30.9130   49.2870 C   0  0  0  0  0  0  0  0  0  0  0  0
   59.5408   33.6577   53.1760 H   0  0  0  0  0  0  0  0  0  0  0  0
   58.4297   34.7812   52.3216 H   0  0  0  0  0  0  0  0  0  0  0  0
   58.0968   33.0160   52.3216 H   0  0  0  0  0  0  0  0  0  0  0  0
   61.1570   32.3600   51.9490 H   0  0  0  0  0  0  0  0  0  0  0  0
   61.1427   34.6868   49.0885 H   0  0  0  0  0  0  0  0  0  0  0  0
   62.7683   34.6294   47.2039 H   0  0  0  0  0  0  0  0  0  0  0  0
   64.3911   32.7479   47.0084 H   0  0  0  0  0  0  0  0  0  0  0  0
   64.3993   30.9225   48.7007 H   0  0  0  0  0  0  0  0  0  0  0  0
   61.5873   29.0355   48.1035 H   0  0  0  0  0  0  0  0  0  0  0  0
   60.7547   29.9696   45.9480 H   0  0  0  0  0  0  0  0  0  0  0  0
   59.6524   33.5352   45.9328 H   0  0  0  0  0  0  0  0  0  0  0  0
   58.9109   34.5343   43.7761 H   0  0  0  0  0  0  0  0  0  0  0  0
   57.4922   33.2148   42.2086 H   0  0  0  0  0  0  0  0  0  0  0  0
   56.7822   30.9038   42.8064 H   0  0  0  0  0  0  0  0  0  0  0  0
   55.1430   28.5820   45.6720 H   0  0  0  0  0  0  0  0  0  0  0  0
   57.6637   32.1299   48.0743 H   0  0  0  0  0  0  0  0  0  0  0  0
   58.4967   31.1995   50.2306 H   0  0  0  0  0  0  0  0  0  0  0  0
  1  2  1  0
  2  3  2  0
  2  4  1  0
  4  5  1  0
  5  6  2  0
  6  7  1  0
  7  8  2  0
  8  9  1  0
  9 10  2  0
 10 11  1  0
 11 12  2  0
 11 13  1  0
 13 14  2  0
 13 15  1  0
 15 16  1  0
 16 17  2  0
 17 18  1  0
 18 19  2  0
 19 20  1  0
 20 21  2  0
 21 22  1  0
 22 23  2  0
 23 24  1  0
 24 25  2  0
 25 26  1  0
 26 27  1  0
 26 28  2  0
 26 29  2  0
 19 30  1  0
 30 31  2  0
 10  5  1  0
 31 16  1  0
 25 20  1  0
  1 32  1  0
  1 33  1  0
  1 34  1  0
  4 35  1  0
  6 36  1  0
  7 37  1  0
  8 38  1  0
  9 39  1  0
 17 40  1  0
 18 41  1  0
 21 42  1  0
 22 43  1  0
 23 44  1  0
 24 45  1  0
 27 46  1  0
 30 47  1  0
 31 48  1  0
M  CHG  2  15  -1  27  -1
M  END
>  <UniqueID>  (25) 
24

>  <SMILES>  (25) 
CC(=O)Nc1ccccc1C(=O)C(=O)[N-]c1ccc(-c2ccccc2S([NH-])(=O)=O)cc1

>  <Energy>  (25) 
69.52754461499933

>  <Genealogy>  (25) 
CC(=O)Nc1ccccc1C(=O)C(=O)[N-]c1ccc(-c2ccccc2S([NH-])(=O)=O)cc1 (protonated)
CC(=O)Nc1ccccc1C(=O)C(=O)[N-]c1ccc(-c2ccccc2S([NH-])(=O)=O)cc1 (3D coordinates assigned)
CC(=O)Nc1ccccc1C(=O)C(=O)[N-]c1ccc(-c2ccccc2S([NH-])(=O)=O)cc1 (optimized conformer: 69.52754461499933 kcal/mol)

>  <smiles>  (25) 
CC(=O)Nc1ccccc1C(=O)C(=O)Nc1ccc(-c2ccccc2S(N)(=O)=O)cc1

>  <score_type>  (25) 
oracle

>  <origin>  (25) 
adg

>  <m_score__min__energy>  (25) 
-13

>  <m_primary>  (25) 
energy

$$$$
25:0
     RDKit          3D

 53 56  0  0  1  0  0  0  0  0999 V2000
   57.2900   30.9010   43.5430 C   0  0  0  0  0  0  0  0  0  0  0  0
   57.3920   32.2870   43.1560 N   0  0  0  0  0  0  0  0  0  0  0  0
   57.6030   32.3130   41.7130 C   0  0  0  0  0  0  0  0  0  0  0  0
   58.5190   32.9410   43.7640 C   0  0  0  0  0  0  0  0  0  0  0  0
   58.1310   33.6010   45.0460 C   0  0  2  0  0  0  0  0  0  0  0  0
   56.9340   34.2930   44.9170 O   0  0  0  0  0  0  0  0  0  0  0  0
   59.2300   34.5390   45.4990 C   0  0  0  0  0  0  0  0  0  0  0  0
   59.4520   34.2280   46.9570 C   0  0  0  0  0  0  0  0  0  0  0  0
   58.3920   33.3450   47.3720 N   0  0  0  0  0  0  0  0  0  0  0  0
   58.9480   32.4630   48.4150 C   0  0  0  0  0  0  0  0  0  0  0  0
   60.2380   32.8930   48.9230 C   0  0  0  0  0  0  0  0  0  0  0  0
   60.2090   33.8400   50.0060 C   0  0  0  0  0  0  0  0  0  0  0  0
   61.4730   34.2110   50.3330 C   0  0  0  0  0  0  0  0  0  0  0  0
   62.2950   33.5590   49.5280 N   0  0  0  0  0  0  0  0  0  0  0  0
   63.6220   33.6260   49.4920 N   0  0  0  0  0  0  0  0  0  0  0  0
   64.3330   32.9060   48.6100 C   0  0  0  0  0  0  0  0  0  0  0  0
   63.6250   32.1210   47.7780 N   0  0  0  0  0  0  0  0  0  0  0  0
   62.2730   32.0460   47.8090 C   0  0  0  0  0  0  0  0  0  0  0  0
   61.6980   31.2820   47.0810 N   0  0  0  0  0  0  0  0  0  0  0  0
   60.8630   30.2960   46.9370 C   0  0  0  0  0  0  0  0  0  0  0  0
   60.4620   29.4710   48.0060 C   0  0  0  0  0  0  0  0  0  0  0  0
   59.4680   28.5460   47.8930 C   0  0  0  0  0  0  0  0  0  0  0  0
   58.8110   28.3880   46.6990 C   0  0  0  0  0  0  0  0  0  0  0  0
   57.8330   27.4650   46.6250 F   0  0  0  0  0  0  0  0  0  0  0  0
   59.1560   29.1550   45.6340 C   0  0  0  0  0  0  0  0  0  0  0  0
   60.1580   30.0940   45.7350 C   0  0  0  0  0  0  0  0  0  0  0  0
   61.5580   32.7820   48.7010 C   0  0  0  0  0  0  0  0  0  0  0  0
   57.9740   32.6230   46.1940 C   0  0  0  0  0  0  0  0  0  0  0  0
   57.2845   30.8262   44.6404 H   0  0  0  0  0  0  0  0  0  0  0  0
   56.3581   30.4759   43.1418 H   0  0  0  0  0  0  0  0  0  0  0  0
   58.1496   30.3441   43.1418 H   0  0  0  0  0  0  0  0  0  0  0  0
   58.6744   32.4450   41.5014 H   0  0  0  0  0  0  0  0  0  0  0  0
   57.2567   31.3654   41.2747 H   0  0  0  0  0  0  0  0  0  0  0  0
   57.0370   33.1482   41.2747 H   0  0  0  0  0  0  0  0  0  0  0  0
   59.3011   32.1945   43.9667 H   0  0  0  0  0  0  0  0  0  0  0  0
   58.8899   33.7120   43.0727 H   0  0  0  0  0  0  0  0  0  0  0  0
   56.6180   34.1360   43.9850 H   0  0  0  0  0  0  0  0  0  0  0  0
   60.1500   34.3591   44.9235 H   0  0  0  0  0  0  0  0  0  0  0  0
   58.9553   35.5929   45.3446 H   0  0  0  0  0  0  0  0  0  0  0  0
   60.4266   33.7364   47.0931 H   0  0  0  0  0  0  0  0  0  0  0  0
   59.4488   35.1499   47.5571 H   0  0  0  0  0  0  0  0  0  0  0  0
   58.2385   32.4301   49.2550 H   0  0  0  0  0  0  0  0  0  0  0  0
   59.1000   31.4771   47.9515 H   0  0  0  0  0  0  0  0  0  0  0  0
   59.2964   34.2091   50.4968 H   0  0  0  0  0  0  0  0  0  0  0  0
   61.7604   34.9222   51.1215 H   0  0  0  0  0  0  0  0  0  0  0  0
   65.4312   32.9550   48.5699 H   0  0  0  0  0  0  0  0  0  0  0  0
   64.1580   31.5650   47.1000 H   0  0  0  0  0  0  0  0  0  0  0  0
   60.9735   29.5782   48.9739 H   0  0  0  0  0  0  0  0  0  0  0  0
   59.1924   27.9261   48.7589 H   0  0  0  0  0  0  0  0  0  0  0  0
   58.6283   29.0249   44.6776 H   0  0  0  0  0  0  0  0  0  0  0  0
   60.4142   30.7016   44.8545 H   0  0  0  0  0  0  0  0  0  0  0  0
   58.6111   31.7401   46.0374 H   0  0  0  0  0  0  0  0  0  0  0  0
   56.9399   32.2587   46.2827 H   0  0  0  0  0  0  0  0  0  0  0  0
  1  2  1  0
  2  3  1  0
  2  4  1  0
  4  5  1  0
  5  6  1  6
  5  7  1  0
  7  8  1  0
  8  9  1  0
  9 10  1  0
 10 11  1  0
 11 12  1  0
 12 13  2  0
 13 14  1  0
 14 15  1  0
 15 16  2  0
 16 17  1  0
 17 18  1  0
 18 19  2  0
 19 20  1  0
 20 21  2  0
 21 22  1  0
 22 23  2  0
 23 24  1  0
 23 25  1  0
 25 26  2  0
 18 27  1  0
  9 28  1  0
 28  5  1  0
 27 11  2  0
 27 14  1  0
 26 20  1  0
  1 29  1  0
  1 30  1  0
  1 31  1  0
  3 32  1  0
  3 33  1  0
  3 34  1  0
  4 35  1  0
  4 36  1  0
  6 37  1  0
  7 38  1  0
  7 39  1  0
  8 40  1  0
  8 41  1  0
 10 42  1  0
 10 43  1  0
 12 44  1  0
 13 45  1  0
 16 46  1  0
 17 47  1  0
 21 48  1  0
 22 49  1  0
 25 50  1  0
 26 51  1  0
 28 52  1  0
 28 53  1  0
M  END
>  <smiles>  (26) 
CN(C)CC1(O)CCN(Cc2ccn3nc[nH]c(=Nc4ccc(F)cc4)c23)C1

>  <score_type>  (26) 
oracle

>  <origin>  (26) 
adg

>  <m_score__min__energy>  (26) 
-8.1500000000000004

>  <m_primary>  (26) 
energy

$$$$
26:0
     RDKit          3D

 35 37  0  0  0  0  0  0  0  0999 V2000
   57.3117   27.3949   46.4241 H   0  0  0  0  0  0  0  0  0  0  0  0
   58.1960   28.0380   46.3040 C   0  0  0  0  0  0  0  0  0  0  0  0
   58.8510   28.5410   47.4320 C   0  0  0  0  0  0  0  0  0  0  0  0
   58.4767   28.2975   48.4373 H   0  0  0  0  0  0  0  0  0  0  0  0
   59.9850   29.3560   47.2860 C   0  0  0  0  0  0  0  0  0  0  0  0
   60.6660   29.9270   48.4940 C   0  0  0  0  0  0  0  0  0  0  0  0
   60.1924   29.5299   49.4039 H   0  0  0  0  0  0  0  0  0  0  0  0
   61.7296   29.6467   48.4821 H   0  0  0  0  0  0  0  0  0  0  0  0
   60.5755   31.0232   48.4821 H   0  0  0  0  0  0  0  0  0  0  0  0
   60.4330   29.6900   45.9980 C   0  0  0  0  0  0  0  0  0  0  0  0
   61.3039   30.3505   45.8747 H   0  0  0  0  0  0  0  0  0  0  0  0
   59.7760   29.1860   44.8720 C   0  0  0  0  0  0  0  0  0  0  0  0
   60.1347   29.4464   43.8653 H   0  0  0  0  0  0  0  0  0  0  0  0
   58.6630   28.3510   45.0220 C   0  0  0  0  0  0  0  0  0  0  0  0
   57.8210   27.7060   43.5730 S   0  0  0  0  0  0  0  0  0  0  0  0
   57.0340   29.2920   43.1260 C   0  0  0  0  0  0  0  0  0  0  0  0
   57.8160   30.0340   42.9072 H   0  0  0  0  0  0  0  0  0  0  0  0
   56.3988   29.1345   42.2418 H   0  0  0  0  0  0  0  0  0  0  0  0
   56.1810   29.7940   44.2470 C   0  0  0  0  0  0  0  0  0  0  0  0
   55.5300   28.9710   44.9480 O   0  0  0  0  0  0  0  0  0  0  0  0
   56.1040   31.2060   44.4930 N   0  0  0  0  0  0  0  0  0  0  0  0
   57.0310   31.9430   45.0320 C   0  0  0  0  0  0  0  0  0  0  0  0
   57.7330   31.5850   46.1420 N   0  0  0  0  0  0  0  0  0  0  0  0
   58.5480   32.6400   46.3210 C   0  0  0  0  0  0  0  0  0  0  0  0
   59.4980   32.8230   47.3250 C   0  0  0  0  0  0  0  0  0  0  0  0
   59.6622   32.0592   48.0994 H   0  0  0  0  0  0  0  0  0  0  0  0
   60.2400   34.0200   47.3130 C   0  0  0  0  0  0  0  0  0  0  0  0
   60.9990   34.2006   48.0884 H   0  0  0  0  0  0  0  0  0  0  0  0
   60.0150   34.9910   46.3100 C   0  0  0  0  0  0  0  0  0  0  0  0
   60.6013   35.9217   46.3096 H   0  0  0  0  0  0  0  0  0  0  0  0
   59.0460   34.7750   45.3120 C   0  0  0  0  0  0  0  0  0  0  0  0
   58.8592   35.5224   44.5268 H   0  0  0  0  0  0  0  0  0  0  0  0
   58.3330   33.5800   45.3560 C   0  0  0  0  0  0  0  0  0  0  0  0
   57.3720   33.1520   44.5280 N   0  0  0  0  0  0  0  0  0  0  0  0
   56.9770   33.6400   43.6930 H   0  0  0  0  0  0  0  0  0  0  0  0
  1  2  1  0
  2  3  2  0
  3  4  1  0
  3  5  1  0
  5  6  1  0
  6  7  1  0
  6  8  1  0
  6  9  1  0
  5 10  2  0
 10 11  1  0
 10 12  1  0
 12 13  1  0
 12 14  2  0
 14 15  1  0
 15 16  1  0
 16 17  1  0
 16 18  1  0
 16 19  1  0
 19 20  2  0
 19 21  1  0
 21 22  2  0
 22 23  1  0
 23 24  1  0
 24 25  2  0
 25 26  1  0
 25 27  1  0
 27 28  1  0
 27 29  2  0
 29 30  1  0
 29 31  1  0
 31 32  1  0
 31 33  2  0
 33 34  1  0
 34 35  1  0
 14  2  1  0
 34 22  1  0
 33 24  1  0
M  CHG  1  23  -1
M  END
>  <UniqueID>  (27) 
25

>  <SMILES>  (27) 
Cc1ccc(SCC(=O)/N=c2\[n-]c3ccccc3[nH]2)cc1

>  <Energy>  (27) 
69.86351124131777

>  <Genealogy>  (27) 
Cc1ccc(SCC(=O)N=c2[n-]c3ccccc3[nH]2)cc1 (protonated)
Cc1ccc(SCC(=O)/N=c2\[n-]c3ccccc3[nH]2)cc1 (cis-trans isomerization)
Cc1ccc(SCC(=O)/N=c2\[n-]c3ccccc3[nH]2)cc1 (3D coordinates assigned)
Cc1ccc(SCC(=O)/N=c2\[n-]c3ccccc3[nH]2)cc1 (optimized conformer: 69.86351124131777 kcal/mol)

>  <smiles>  (27) 
Cc1ccc(SCC(=O)N=c2[nH]c3ccccc3[nH]2)cc1

>  <score_type>  (27) 
oracle

>  <origin>  (27) 
adg

>  <m_score__min__energy>  (27) 
-9.0700000000000003

>  <m_primary>  (27) 
energy

$$$$
27:0
     RDKit          3D

 22 22  0  0  0  0  0  0  0  0999 V2000
   58.6466   34.4797   44.3477 H   0  0  0  0  0  0  0  0  0  0  0  0
   58.3540   33.4200   44.3860 C   0  0  0  0  0  0  0  0  0  0  0  0
   58.1340   32.7120   43.2010 C   0  0  0  0  0  0  0  0  0  0  0  0
   58.2571   33.2147   42.2303 H   0  0  0  0  0  0  0  0  0  0  0  0
   57.7580   31.3670   43.2470 C   0  0  0  0  0  0  0  0  0  0  0  0
   57.5934   30.8125   42.3114 H   0  0  0  0  0  0  0  0  0  0  0  0
   57.5890   30.7190   44.4830 C   0  0  0  0  0  0  0  0  0  0  0  0
   57.2070   29.2860   44.5220 C   0  0  0  0  0  0  0  0  0  0  0  0
   57.2760   28.5140   43.3170 N   0  0  0  0  0  0  0  0  0  0  0  0
   56.9850   27.5120   43.3050 H   0  0  0  0  0  0  0  0  0  0  0  0
   57.6440   28.9320   42.4350 H   0  0  0  0  0  0  0  0  0  0  0  0
   56.7950   28.7220   45.6230 N   0  0  0  0  0  0  0  0  0  0  0  0
   57.0720   29.1310   46.5440 H   0  0  0  0  0  0  0  0  0  0  0  0
   56.0440   27.5650   45.6030 O   0  0  0  0  0  0  0  0  0  0  0  0
   56.6020   26.3210   45.9990 C   0  0  0  0  0  0  0  0  0  0  0  0
   56.6277   26.2637   47.0972 H   0  0  0  0  0  0  0  0  0  0  0  0
   55.9858   25.5002   45.6033 H   0  0  0  0  0  0  0  0  0  0  0  0
   57.6248   26.2353   45.6033 H   0  0  0  0  0  0  0  0  0  0  0  0
   57.8250   31.4350   45.6690 C   0  0  0  0  0  0  0  0  0  0  0  0
   57.7126   30.9342   46.6419 H   0  0  0  0  0  0  0  0  0  0  0  0
   58.2020   32.7810   45.6190 C   0  0  0  0  0  0  0  0  0  0  0  0
   58.3790   33.3370   46.5515 H   0  0  0  0  0  0  0  0  0  0  0  0
  1  2  1  0
  2  3  2  0
  3  4  1  0
  3  5  1  0
  5  6  1  0
  5  7  2  0
  7  8  1  0
  8  9  1  0
  9 10  1  0
  9 11  1  0
  8 12  2  0
 12 13  1  0
 12 14  1  0
 14 15  1  0
 15 16  1  0
 15 17  1  0
 15 18  1  0
  7 19  1  0
 19 20  1  0
 19 21  2  0
 21 22  1  0
 21  2  1  0
M  CHG  1  12   1
M  END
>  <UniqueID>  (28) 
26

>  <SMILES>  (28) 
CO/[NH+]=C(/N)c1ccccc1

>  <Energy>  (28) 
20.77163762448324

>  <Genealogy>  (28) 
CO[NH+]=C(N)c1ccccc1 (protonated)
CO/[NH+]=C(/N)c1ccccc1 (cis-trans isomerization)
CO/[NH+]=C(/N)c1ccccc1 (3D coordinates assigned)
CO/[NH+]=C(/N)c1ccccc1 (optimized conformer: 20.77163762448324 kcal/mol)

>  <smiles>  (28) 
CON=C(N)c1ccccc1

>  <score_type>  (28) 
oracle

>  <origin>  (28) 
adg

>  <m_score__min__energy>  (28) 
-4.1200000000000001

>  <m_primary>  (28) 
energy

$$$$
28:0
     RDKit          3D

 52 56  0  0  0  0  0  0  0  0999 V2000
   60.0585   31.7886   46.3222 H   0  0  0  0  0  0  0  0  0  0  0  0
   59.7720   32.8290   46.1090 C   0  0  0  0  0  0  0  0  0  0  0  0
   60.3130   33.8810   46.7010 C   0  0  0  0  0  0  0  0  0  0  0  0
   61.4270   33.8390   47.6900 C   0  0  0  0  0  0  0  0  0  0  0  0
   61.1940   34.2090   49.0290 C   0  0  0  0  0  0  0  0  0  0  0  0
   60.1841   34.5118   49.3427 H   0  0  0  0  0  0  0  0  0  0  0  0
   62.2350   34.1950   49.9640 C   0  0  0  0  0  0  0  0  0  0  0  0
   62.0392   34.4818   51.0078 H   0  0  0  0  0  0  0  0  0  0  0  0
   63.5210   33.8180   49.5750 C   0  0  0  0  0  0  0  0  0  0  0  0
   64.3376   33.8070   50.3120 H   0  0  0  0  0  0  0  0  0  0  0  0
   63.7710   33.4550   48.2510 C   0  0  0  0  0  0  0  0  0  0  0  0
   64.7860   33.1618   47.9448 H   0  0  0  0  0  0  0  0  0  0  0  0
   62.7350   33.4630   47.3130 C   0  0  0  0  0  0  0  0  0  0  0  0
   62.9402   33.1738   46.2717 H   0  0  0  0  0  0  0  0  0  0  0  0
   59.6580   35.1380   46.2080 C   0  0  0  0  0  0  0  0  0  0  0  0
   59.1728   35.6756   47.0360 H   0  0  0  0  0  0  0  0  0  0  0  0
   60.3778   35.8423   45.7655 H   0  0  0  0  0  0  0  0  0  0  0  0
   58.6160   34.6470   45.1930 C   0  0  0  0  0  0  0  0  0  0  0  0
   57.6005   34.9174   45.5182 H   0  0  0  0  0  0  0  0  0  0  0  0
   58.7568   35.0998   44.2005 H   0  0  0  0  0  0  0  0  0  0  0  0
   58.7780   33.2010   45.1660 N   0  0  0  0  0  0  0  0  0  0  0  0
   58.1600   32.3280   44.2000 C   0  0  0  0  0  0  0  0  0  0  0  0
   57.8280   31.0040   44.5100 C   0  0  0  0  0  0  0  0  0  0  0  0
   58.0420   30.3850   45.6960 N   0  0  0  0  0  0  0  0  0  0  0  0
   57.6260   29.0950   45.6480 C   0  0  0  0  0  0  0  0  0  0  0  0
   57.6670   28.2860   46.6640 N   0  0  0  0  0  0  0  0  0  0  0  0
   58.6700   28.2870   47.6970 C   0  0  0  0  0  0  0  0  0  0  0  0
   58.9150   29.4320   48.4820 C   0  0  0  0  0  0  0  0  0  0  0  0
   58.3478   30.3554   48.2931 H   0  0  0  0  0  0  0  0  0  0  0  0
   59.8730   29.4020   49.4980 C   0  0  0  0  0  0  0  0  0  0  0  0
   60.0511   30.2972   50.1118 H   0  0  0  0  0  0  0  0  0  0  0  0
   60.6040   28.2380   49.7350 C   0  0  0  0  0  0  0  0  0  0  0  0
   61.3468   28.2114   50.5459 H   0  0  0  0  0  0  0  0  0  0  0  0
   60.3940   27.1060   48.9440 C   0  0  0  0  0  0  0  0  0  0  0  0
   60.9786   26.1930   49.1304 H   0  0  0  0  0  0  0  0  0  0  0  0
   59.4410   27.1260   47.9120 C   0  0  0  0  0  0  0  0  0  0  0  0
   59.2330   25.9550   47.1020 N   0  0  0  0  0  0  0  0  0  0  0  0
   57.9330   25.2820   47.1290 C   0  0  0  0  0  0  0  0  0  0  0  0
   57.6244   25.1223   48.1727 H   0  0  0  0  0  0  0  0  0  0  0  0
   57.1860   25.9067   46.6173 H   0  0  0  0  0  0  0  0  0  0  0  0
   58.0119   24.3115   46.6173 H   0  0  0  0  0  0  0  0  0  0  0  0
   60.1420   25.6680   45.9930 C   0  0  0  0  0  0  0  0  0  0  0  0
   61.1199   25.3592   46.3910 H   0  0  0  0  0  0  0  0  0  0  0  0
   59.7245   24.8580   45.3769 H   0  0  0  0  0  0  0  0  0  0  0  0
   60.2653   26.5709   45.3769 H   0  0  0  0  0  0  0  0  0  0  0  0
   56.9740   28.6690   44.1410 S   0  0  0  0  0  0  0  0  0  0  0  0
   57.2590   30.2120   43.5400 C   0  0  0  0  0  0  0  0  0  0  0  0
   57.0120   30.6660   42.2900 N   0  0  0  0  0  0  0  0  0  0  0  0
   57.3440   31.9530   41.9850 C   0  0  0  0  0  0  0  0  0  0  0  0
   57.1513   32.3406   40.9737 H   0  0  0  0  0  0  0  0  0  0  0  0
   57.9150   32.7670   42.9260 N   0  0  0  0  0  0  0  0  0  0  0  0
   58.1530   33.7470   42.6560 H   0  0  0  0  0  0  0  0  0  0  0  0
  1  2  1  0
  2  3  2  0
  3  4  1  0
  4  5  2  0
  5  6  1  0
  5  7  1  0
  7  8  1  0
  7  9  2  0
  9 10  1  0
  9 11  1  0
 11 12  1  0
 11 13  2  0
 13 14  1  0
  3 15  1  0
 15 16  1  0
 15 17  1  0
 15 18  1  0
 18 19  1  0
 18 20  1  0
 18 21  1  0
 21 22  1  0
 22 23  2  0
 23 24  1  0
 24 25  1  0
 25 26  2  0
 26 27  1  0
 27 28  2  0
 28 29  1  0
 28 30  1  0
 30 31  1  0
 30 32  2  0
 32 33  1  0
 32 34  1  0
 34 35  1  0
 34 36  2  0
 36 37  1  0
 37 38  1  0
 38 39  1  0
 38 40  1  0
 38 41  1  0
 37 42  1  0
 42 43  1  0
 42 44  1  0
 42 45  1  0
 25 46  1  0
 46 47  1  0
 47 48  2  0
 48 49  1  0
 49 50  1  0
 49 51  2  0
 51 52  1  0
 21  2  1  0
 51 22  1  0
 13  4  1  0
 47 23  1  0
 36 27  1  0
M  CHG  2  24  -1  51   1
M  END
>  <UniqueID>  (29) 
27

>  <SMILES>  (29) 
CN(C)c1ccccc1/N=c1\[n-]c2c(N3C=C(c4ccccc4)CC3)[nH+]cnc2s1

>  <Energy>  (29) 
116.82584971645804

>  <Genealogy>  (29) 
CN(C)c1ccccc1N=c1[n-]c2c(N3C=C(c4ccccc4)CC3)[nH+]cnc2s1 (protonated)
CN(C)c1ccccc1/N=c1\[n-]c2c(N3C=C(c4ccccc4)CC3)[nH+]cnc2s1 (cis-trans isomerization)
CN(C)c1ccccc1/N=c1\[n-]c2c(N3C=C(c4ccccc4)CC3)[nH+]cnc2s1 (3D coordinates assigned)
CN(C)c1ccccc1/N=c1\[n-]c2c(N3C=C(c4ccccc4)CC3)[nH+]cnc2s1 (nonaromatic ring conformer: 116.82584971645804 kcal/mol)

>  <smiles>  (29) 
CN(C)c1ccccc1N=c1[nH]c2c(N3C=C(c4ccccc4)CC3)ncnc2s1

>  <score_type>  (29) 
oracle

>  <origin>  (29) 
adg

>  <m_score__min__energy>  (29) 
-9.9499999999999993

>  <m_primary>  (29) 
energy

$$$$
29:0
     RDKit          3D

 48 51  0  0  0  0  0  0  0  0999 V2000
   56.0060   30.0970   42.8530 O   0  0  0  0  0  0  0  0  0  0  0  0
   56.0430   30.1180   44.1120 C   0  0  0  0  0  0  0  0  0  0  0  0
   55.1520   29.3240   44.8250 O   0  0  0  0  0  0  0  0  0  0  0  0
   57.0200   30.9740   44.8210 C   0  0  0  0  0  0  0  0  0  0  0  0
   58.1840   30.4130   45.3760 C   0  0  0  0  0  0  0  0  0  0  0  0
   59.1110   31.2190   46.0430 C   0  0  0  0  0  0  0  0  0  0  0  0
   58.8860   32.5960   46.1680 C   0  0  0  0  0  0  0  0  0  0  0  0
   60.0540   33.6300   46.9810 S   0  0  0  0  0  0  0  0  0  0  0  0
   61.3060   33.6870   46.1510 O   0  0  0  0  0  0  0  0  0  0  0  0
   59.5160   35.0250   47.1420 O   0  0  0  0  0  0  0  0  0  0  0  0
   60.4030   32.9680   48.5470 N   0  0  0  0  0  0  0  0  0  0  0  0
   59.3500   32.2730   49.2930 C   0  0  0  0  0  0  0  0  0  0  0  0
   59.7640   30.8540   49.5760 C   0  0  0  0  0  0  0  0  0  0  0  0
   60.5470   30.5600   50.7000 C   0  0  0  0  0  0  0  0  0  0  0  0
   60.9960   29.2580   50.9220 C   0  0  0  0  0  0  0  0  0  0  0  0
   60.6790   28.2390   50.0190 C   0  0  0  0  0  0  0  0  0  0  0  0
   61.1450   26.9850   50.2490 F   0  0  0  0  0  0  0  0  0  0  0  0
   59.8990   28.5160   48.8810 C   0  0  0  0  0  0  0  0  0  0  0  0
   59.5940   27.4130   47.8950 C   0  0  0  0  0  0  0  0  0  0  0  0
   59.5440   26.2030   48.5620 F   0  0  0  0  0  0  0  0  0  0  0  0
   60.5570   27.3310   46.9030 F   0  0  0  0  0  0  0  0  0  0  0  0
   58.3690   27.6510   47.2950 F   0  0  0  0  0  0  0  0  0  0  0  0
   59.4500   29.8320   48.6650 C   0  0  0  0  0  0  0  0  0  0  0  0
   61.6660   33.2470   49.1600 C   0  0  0  0  0  0  0  0  0  0  0  0
   61.8530   34.2080   50.5390 S   0  0  0  0  0  0  0  0  0  0  0  0
   63.5060   33.9360   50.6640 C   0  0  0  0  0  0  0  0  0  0  0  0
   64.3830   34.4340   51.6240 C   0  0  0  0  0  0  0  0  0  0  0  0
   65.7360   34.0710   51.5390 C   0  0  0  0  0  0  0  0  0  0  0  0
   66.1800   33.2220   50.5080 C   0  0  0  0  0  0  0  0  0  0  0  0
   65.2770   32.7300   49.5510 C   0  0  0  0  0  0  0  0  0  0  0  0
   63.9290   33.0950   49.6410 C   0  0  0  0  0  0  0  0  0  0  0  0
   62.8930   32.6970   48.7830 C   0  0  0  0  0  0  0  0  0  0  0  0
   63.1410   31.5910   47.2380 Br  0  0  0  0  0  0  0  0  0  0  0  0
   57.7310   33.1610   45.6180 C   0  0  0  0  0  0  0  0  0  0  0  0
   56.8020   32.3580   44.9500 C   0  0  0  0  0  0  0  0  0  0  0  0
   58.3663   29.3321   45.2846 H   0  0  0  0  0  0  0  0  0  0  0  0
   60.0198   30.7707   46.4710 H   0  0  0  0  0  0  0  0  0  0  0  0
   59.1726   32.7963   50.2441 H   0  0  0  0  0  0  0  0  0  0  0  0
   58.4292   32.2652   48.6913 H   0  0  0  0  0  0  0  0  0  0  0  0
   60.8086   31.3585   51.4099 H   0  0  0  0  0  0  0  0  0  0  0  0
   61.6022   29.0321   51.8116 H   0  0  0  0  0  0  0  0  0  0  0  0
   58.8473   30.0626   47.7742 H   0  0  0  0  0  0  0  0  0  0  0  0
   64.0249   35.0943   52.4276 H   0  0  0  0  0  0  0  0  0  0  0  0
   66.4527   34.4517   52.2815 H   0  0  0  0  0  0  0  0  0  0  0  0
   67.2421   32.9416   50.4512 H   0  0  0  0  0  0  0  0  0  0  0  0
   65.6240   32.0683   48.7437 H   0  0  0  0  0  0  0  0  0  0  0  0
   57.5527   34.2424   45.7115 H   0  0  0  0  0  0  0  0  0  0  0  0
   55.8952   32.8108   44.5227 H   0  0  0  0  0  0  0  0  0  0  0  0
  1  2  2  0
  2  3  1  0
  2  4  1  0
  4  5  2  0
  5  6  1  0
  6  7  2  0
  7  8  1  0
  8  9  2  0
  8 10  2  0
  8 11  1  0
 11 12  1  0
 12 13  1  0
 13 14  2  0
 14 15  1  0
 15 16  2  0
 16 17  1  0
 16 18  1  0
 18 19  1  0
 19 20  1  0
 19 21  1  0
 19 22  1  0
 18 23  2  0
 11 24  1  0
 24 25  1  0
 25 26  1  0
 26 27  2  0
 27 28  1  0
 28 29  2  0
 29 30  1  0
 30 31  2  0
 31 32  1  0
 32 33  1  0
  7 34  1  0
 34 35  2  0
 35  4  1  0
 23 13  1  0
 32 24  2  0
 31 26  1  0
  5 36  1  0
  6 37  1  0
 12 38  1  0
 12 39  1  0
 14 40  1  0
 15 41  1  0
 23 42  1  0
 27 43  1  0
 28 44  1  0
 29 45  1  0
 30 46  1  0
 34 47  1  0
 35 48  1  0
M  CHG  1   3  -1
M  END
>  <UniqueID>  (30) 
28

>  <SMILES>  (30) 
O=C([O-])c1ccc(S(=O)(=O)N(Cc2ccc(F)c(C(F)(F)F)c2)c2sc3ccccc3c2Br)cc1

>  <Energy>  (30) 
89.43447182136804

>  <Genealogy>  (30) 
O=C([O-])c1ccc(S(=O)(=O)N(Cc2ccc(F)c(C(F)(F)F)c2)c2sc3ccccc3c2Br)cc1 (protonated)
O=C([O-])c1ccc(S(=O)(=O)N(Cc2ccc(F)c(C(F)(F)F)c2)c2sc3ccccc3c2Br)cc1 (3D coordinates assigned)
O=C([O-])c1ccc(S(=O)(=O)N(Cc2ccc(F)c(C(F)(F)F)c2)c2sc3ccccc3c2Br)cc1 (optimized conformer: 89.43447182136804 kcal/mol)

>  <smiles>  (30) 
O=C(O)c1ccc(S(=O)(=O)N(Cc2ccc(F)c(C(F)(F)F)c2)c2sc3ccccc3c2Br)cc1

>  <score_type>  (30) 
oracle

>  <origin>  (30) 
adg

>  <m_score__min__energy>  (30) 
-10.93

>  <m_primary>  (30) 
energy

$$$$
30:0
     RDKit          3D

 28 28  0  0  0  0  0  0  0  0999 V2000
   64.8810   33.0750   46.3750 H   0  0  0  0  0  0  0  0  0  0  0  0
   63.8890   33.3910   46.4500 N   0  0  0  0  0  0  0  0  0  0  0  0
   63.0910   32.9310   47.3630 C   0  0  0  0  0  0  0  0  0  0  0  0
   61.6960   33.4340   47.4390 C   0  0  0  0  0  0  0  0  0  0  0  0
   61.1670   33.9150   48.6510 C   0  0  0  0  0  0  0  0  0  0  0  0
   61.7911   33.9165   49.5568 H   0  0  0  0  0  0  0  0  0  0  0  0
   59.8540   34.3910   48.7120 C   0  0  0  0  0  0  0  0  0  0  0  0
   59.4486   34.7611   49.6652 H   0  0  0  0  0  0  0  0  0  0  0  0
   59.0560   34.3980   47.5670 C   0  0  0  0  0  0  0  0  0  0  0  0
   58.0215   34.7680   47.6200 H   0  0  0  0  0  0  0  0  0  0  0  0
   59.5710   33.9350   46.3530 C   0  0  0  0  0  0  0  0  0  0  0  0
   58.5480   33.9470   44.8800 S   0  0  0  0  0  0  0  0  0  0  0  0
   57.9880   32.2230   45.1060 C   0  0  0  0  0  0  0  0  0  0  0  0
   58.8365   31.6106   45.4451 H   0  0  0  0  0  0  0  0  0  0  0  0
   57.1815   32.2115   45.8540 H   0  0  0  0  0  0  0  0  0  0  0  0
   57.4470   31.6470   43.7970 C   0  0  0  0  0  0  0  0  0  0  0  0
   56.7358   32.3624   43.3584 H   0  0  0  0  0  0  0  0  0  0  0  0
   58.2956   31.4736   43.1189 H   0  0  0  0  0  0  0  0  0  0  0  0
   56.7470   30.3380   44.0210 C   0  0  0  0  0  0  0  0  0  0  0  0
   55.7770   30.2760   44.8230 O   0  0  0  0  0  0  0  0  0  0  0  0
   57.1500   29.1680   43.3070 N   0  0  0  0  0  0  0  0  0  0  0  0
   57.9410   29.2030   42.6270 H   0  0  0  0  0  0  0  0  0  0  0  0
   56.6500   28.2630   43.4560 H   0  0  0  0  0  0  0  0  0  0  0  0
   60.8860   33.4550   46.2890 C   0  0  0  0  0  0  0  0  0  0  0  0
   61.2881   33.0917   45.3318 H   0  0  0  0  0  0  0  0  0  0  0  0
   63.5660   31.9330   48.2760 N   0  0  0  0  0  0  0  0  0  0  0  0
   62.9170   31.4290   48.9180 H   0  0  0  0  0  0  0  0  0  0  0  0
   64.5660   31.6310   48.2590 H   0  0  0  0  0  0  0  0  0  0  0  0
  1  2  1  0
  2  3  2  0
  3  4  1  0
  4  5  2  0
  5  6  1  0
  5  7  1  0
  7  8  1  0
  7  9  2  0
  9 10  1  0
  9 11  1  0
 11 12  1  0
 12 13  1  0
 13 14  1  0
 13 15  1  0
 13 16  1  0
 16 17  1  0
 16 18  1  0
 16 19  1  0
 19 20  2  0
 19 21  1  0
 21 22  1  0
 21 23  1  0
 11 24  2  0
 24 25  1  0
  3 26  1  0
 26 27  1  0
 26 28  1  0
 24  4  1  0
M  END
>  <UniqueID>  (31) 
29

>  <SMILES>  (31) 
[H]/N=C(\N)c1cccc(SCCC(N)=O)c1

>  <Energy>  (31) 
18.993890933209844

>  <Genealogy>  (31) 
[H]/N=C(\N)c1cccc(SCCC(N)=O)c1 (cis-trans isomerization)
[H]/N=C(\N)c1cccc(SCCC(N)=O)c1 (3D coordinates assigned)
[H]/N=C(\N)c1cccc(SCCC(N)=O)c1 (optimized conformer: 18.993890933209844 kcal/mol)

>  <smiles>  (31) 
N=C(N)c1cccc(SCCC(N)=O)c1

>  <score_type>  (31) 
oracle

>  <origin>  (31) 
adg

>  <m_score__min__energy>  (31) 
-7.0800000000000001

>  <m_primary>  (31) 
energy

$$$$
31:0
     RDKit          3D

 38 40  0  0  0  0  0  0  0  0999 V2000
   57.9222   33.0947   47.8703 H   0  0  0  0  0  0  0  0  0  0  0  0
   57.8890   32.9450   46.7810 C   0  0  0  0  0  0  0  0  0  0  0  0
   57.7700   31.6900   46.2720 N   0  0  0  0  0  0  0  0  0  0  0  0
   57.7300   31.4490   44.9320 C   0  0  0  0  0  0  0  0  0  0  0  0
   57.6050   30.2150   44.5290 N   0  0  0  0  0  0  0  0  0  0  0  0
   56.7550   29.1970   45.0790 C   0  0  0  0  0  0  0  0  0  0  0  0
   55.5100   29.3880   45.0770 O   0  0  0  0  0  0  0  0  0  0  0  0
   57.3120   27.9950   45.7530 C   0  0  0  0  0  0  0  0  0  0  0  0
   56.6430   26.7640   45.6230 C   0  0  0  0  0  0  0  0  0  0  0  0
   55.7067   26.7105   45.0482 H   0  0  0  0  0  0  0  0  0  0  0  0
   57.1570   25.6100   46.2170 C   0  0  0  0  0  0  0  0  0  0  0  0
   56.6273   24.6524   46.1052 H   0  0  0  0  0  0  0  0  0  0  0  0
   58.3410   25.6690   46.9520 C   0  0  0  0  0  0  0  0  0  0  0  0
   58.7432   24.7582   47.4195 H   0  0  0  0  0  0  0  0  0  0  0  0
   59.0160   26.8820   47.0950 C   0  0  0  0  0  0  0  0  0  0  0  0
   59.9441   26.9237   47.6839 H   0  0  0  0  0  0  0  0  0  0  0  0
   58.5190   28.0520   46.4920 C   0  0  0  0  0  0  0  0  0  0  0  0
   59.1810   29.3090   46.7170 N   0  0  0  0  0  0  0  0  0  0  0  0
   59.1290   30.0200   45.9550 H   0  0  0  0  0  0  0  0  0  0  0  0
   59.9110   29.6100   47.9200 C   0  0  0  0  0  0  0  0  0  0  0  0
   59.9790   28.7530   48.8440 O   0  0  0  0  0  0  0  0  0  0  0  0
   60.5940   30.9140   48.0950 C   0  0  0  0  0  0  0  0  0  0  0  0
   61.7450   31.2070   47.3390 C   0  0  0  0  0  0  0  0  0  0  0  0
   62.1334   30.4653   46.6256 H   0  0  0  0  0  0  0  0  0  0  0  0
   62.3980   32.4350   47.4890 C   0  0  0  0  0  0  0  0  0  0  0  0
   63.3008   32.6522   46.8993 H   0  0  0  0  0  0  0  0  0  0  0  0
   61.9060   33.3860   48.3860 C   0  0  0  0  0  0  0  0  0  0  0  0
   62.5390   34.5760   48.5280 F   0  0  0  0  0  0  0  0  0  0  0  0
   60.7570   33.1120   49.1310 C   0  0  0  0  0  0  0  0  0  0  0  0
   60.3672   33.8630   49.8339 H   0  0  0  0  0  0  0  0  0  0  0  0
   60.1000   31.8850   48.9860 C   0  0  0  0  0  0  0  0  0  0  0  0
   59.1922   31.6782   49.5718 H   0  0  0  0  0  0  0  0  0  0  0  0
   57.7870   32.5410   44.0400 C   0  0  0  0  0  0  0  0  0  0  0  0
   57.7326   32.3735   42.9542 H   0  0  0  0  0  0  0  0  0  0  0  0
   57.9130   33.8360   44.5470 C   0  0  0  0  0  0  0  0  0  0  0  0
   57.9681   34.6929   43.8594 H   0  0  0  0  0  0  0  0  0  0  0  0
   57.9690   34.0430   45.9250 C   0  0  0  0  0  0  0  0  0  0  0  0
   58.0749   35.0596   46.3316 H   0  0  0  0  0  0  0  0  0  0  0  0
  1  2  1  0
  2  3  1  0
  3  4  1  0
  4  5  2  0
  5  6  1  0
  6  7  2  0
  6  8  1  0
  8  9  2  0
  9 10  1  0
  9 11  1  0
 11 12  1  0
 11 13  2  0
 13 14  1  0
 13 15  1  0
 15 16  1  0
 15 17  2  0
 17 18  1  0
 18 19  1  0
 18 20  1  0
 20 21  2  0
 20 22  1  0
 22 23  2  0
 23 24  1  0
 23 25  1  0
 25 26  1  0
 25 27  2  0
 27 28  1  0
 27 29  1  0
 29 30  1  0
 29 31  2  0
 31 32  1  0
  4 33  1  0
 33 34  1  0
 33 35  2  0
 35 36  1  0
 35 37  1  0
 37 38  1  0
 37  2  2  0
 17  8  1  0
 31 22  1  0
M  CHG  1   3  -1
M  END
>  <UniqueID>  (32) 
30

>  <SMILES>  (32) 
O=C(Nc1ccccc1C(=O)/N=c1\cccc[n-]1)c1ccc(F)cc1

>  <Energy>  (32) 
61.27444132281378

>  <Genealogy>  (32) 
O=C(Nc1ccccc1C(=O)N=c1cccc[n-]1)c1ccc(F)cc1 (protonated)
O=C(Nc1ccccc1C(=O)/N=c1\cccc[n-]1)c1ccc(F)cc1 (cis-trans isomerization)
O=C(Nc1ccccc1C(=O)/N=c1\cccc[n-]1)c1ccc(F)cc1 (3D coordinates assigned)
O=C(Nc1ccccc1C(=O)/N=c1\cccc[n-]1)c1ccc(F)cc1 (optimized conformer: 61.27444132281378 kcal/mol)

>  <smiles>  (32) 
O=C(Nc1ccccc1C(=O)N=c1cccc[nH]1)c1ccc(F)cc1

>  <score_type>  (32) 
oracle

>  <origin>  (32) 
adg

>  <m_score__min__energy>  (32) 
-8.7400000000000002

>  <m_primary>  (32) 
energy

$$$$
32:0
     RDKit          3D

 40 42  0  0  0  0  0  0  0  0999 V2000
   55.1160   26.3660   45.9630 N   0  0  0  0  0  0  0  0  0  0  0  0
   56.8330   26.5230   45.8490 S   0  0  0  0  0  0  0  0  0  0  0  0
   57.3500   25.5980   44.7830 O   0  0  0  0  0  0  0  0  0  0  0  0
   57.4620   26.1450   47.1610 O   0  0  0  0  0  0  0  0  0  0  0  0
   57.2470   28.1870   45.4470 C   0  0  0  0  0  0  0  0  0  0  0  0
   57.7840   29.0320   46.4250 C   0  0  0  0  0  0  0  0  0  0  0  0
   58.1040   30.3570   46.1180 C   0  0  0  0  0  0  0  0  0  0  0  0
   57.8950   30.8610   44.8170 C   0  0  0  0  0  0  0  0  0  0  0  0
   58.2090   32.1900   44.4450 C   0  0  0  0  0  0  0  0  0  0  0  0
   58.8900   33.0820   45.3550 N   0  0  0  0  0  0  0  0  0  0  0  0
   58.8480   34.5430   45.2750 C   0  0  0  0  0  0  0  0  0  0  0  0
   59.8080   35.1850   46.2840 C   0  0  0  0  0  0  0  0  0  0  0  0
   60.0800   34.3090   47.3810 O   0  0  0  0  0  0  0  0  0  0  0  0
   61.1620   33.4190   47.4840 C   0  0  0  0  0  0  0  0  0  0  0  0
   62.4160   33.8540   47.0370 C   0  0  0  0  0  0  0  0  0  0  0  0
   63.5230   33.0020   47.0830 C   0  0  0  0  0  0  0  0  0  0  0  0
   63.3880   31.7070   47.5890 C   0  0  0  0  0  0  0  0  0  0  0  0
   62.1480   31.2660   48.0550 C   0  0  0  0  0  0  0  0  0  0  0  0
   61.0380   32.1160   48.0110 C   0  0  0  0  0  0  0  0  0  0  0  0
   57.9020   32.6040   43.1370 C   0  0  0  0  0  0  0  0  0  0  0  0
   57.3310   31.6980   42.2410 C   0  0  0  0  0  0  0  0  0  0  0  0
   57.0690   32.0600   41.0650 O   0  0  0  0  0  0  0  0  0  0  0  0
   57.0670   30.4550   42.6170 O   0  0  0  0  0  0  0  0  0  0  0  0
   57.3190   30.0070   43.8420 C   0  0  0  0  0  0  0  0  0  0  0  0
   57.0050   28.6830   44.1620 C   0  0  0  0  0  0  0  0  0  0  0  0
   54.7900   27.0840   46.6480 H   0  0  0  0  0  0  0  0  0  0  0  0
   57.9553   28.6504   47.4424 H   0  0  0  0  0  0  0  0  0  0  0  0
   58.5220   31.0121   46.8966 H   0  0  0  0  0  0  0  0  0  0  0  0
   59.5110   32.6850   46.0940 H   0  0  0  0  0  0  0  0  0  0  0  0
   59.1346   34.8545   44.2597 H   0  0  0  0  0  0  0  0  0  0  0  0
   57.8256   34.8740   45.5100 H   0  0  0  0  0  0  0  0  0  0  0  0
   60.7534   35.4244   45.7751 H   0  0  0  0  0  0  0  0  0  0  0  0
   59.3339   36.0954   46.6794 H   0  0  0  0  0  0  0  0  0  0  0  0
   62.5307   34.8758   46.6461 H   0  0  0  0  0  0  0  0  0  0  0  0
   64.5010   33.3514   46.7206 H   0  0  0  0  0  0  0  0  0  0  0  0
   64.2583   31.0350   47.6203 H   0  0  0  0  0  0  0  0  0  0  0  0
   62.0437   30.2477   48.4577 H   0  0  0  0  0  0  0  0  0  0  0  0
   60.0653   31.7675   48.3884 H   0  0  0  0  0  0  0  0  0  0  0  0
   58.1106   33.6368   42.8209 H   0  0  0  0  0  0  0  0  0  0  0  0
   56.5643   28.0264   43.3974 H   0  0  0  0  0  0  0  0  0  0  0  0
  1  2  1  0
  2  3  2  0
  2  4  2  0
  2  5  1  0
  5  6  2  0
  6  7  1  0
  7  8  2  0
  8  9  1  0
  9 10  1  0
 10 11  1  0
 11 12  1  0
 12 13  1  0
 13 14  1  0
 14 15  2  0
 15 16  1  0
 16 17  2  0
 17 18  1  0
 18 19  2  0
  9 20  2  0
 20 21  1  0
 21 22  2  0
 21 23  1  0
 23 24  1  0
 24 25  2  0
 25  5  1  0
 24  8  1  0
 19 14  1  0
  1 26  1  0
  6 27  1  0
  7 28  1  0
 10 29  1  0
 11 30  1  0
 11 31  1  0
 12 32  1  0
 12 33  1  0
 15 34  1  0
 16 35  1  0
 17 36  1  0
 18 37  1  0
 19 38  1  0
 20 39  1  0
 25 40  1  0
M  CHG  1   1  -1
M  END
>  <UniqueID>  (33) 
31

>  <SMILES>  (33) 
[NH-]S(=O)(=O)c1ccc2c(NCCOc3ccccc3)cc(=O)oc2c1

>  <Energy>  (33) 
48.41579793325134

>  <Genealogy>  (33) 
[NH-]S(=O)(=O)c1ccc2c(NCCOc3ccccc3)cc(=O)oc2c1 (protonated)
[NH-]S(=O)(=O)c1ccc2c(NCCOc3ccccc3)cc(=O)oc2c1 (3D coordinates assigned)
[NH-]S(=O)(=O)c1ccc2c(NCCOc3ccccc3)cc(=O)oc2c1 (optimized conformer: 48.41579793325134 kcal/mol)

>  <smiles>  (33) 
NS(=O)(=O)c1ccc2c(NCCOc3ccccc3)cc(=O)oc2c1

>  <score_type>  (33) 
oracle

>  <origin>  (33) 
adg

>  <m_score__min__energy>  (33) 
-10.890000000000001

>  <m_primary>  (33) 
energy

$$$$
33:0
     RDKit          3D

 38 40  0  0  0  0  0  0  0  0999 V2000
   55.7303   29.1885   43.3616 H   0  0  0  0  0  0  0  0  0  0  0  0
   56.7150   29.3430   43.8270 C   0  0  0  0  0  0  0  0  0  0  0  0
   57.3950   28.2450   44.1960 C   0  0  0  0  0  0  0  0  0  0  0  0
   57.1638   27.3074   43.6693 H   0  0  0  0  0  0  0  0  0  0  0  0
   58.4270   28.1930   45.2500 C   0  0  0  0  0  0  0  0  0  0  0  0
   58.1380   27.5610   46.4690 C   0  0  0  0  0  0  0  0  0  0  0  0
   57.1531   27.0971   46.6260 H   0  0  0  0  0  0  0  0  0  0  0  0
   59.0980   27.5190   47.4850 C   0  0  0  0  0  0  0  0  0  0  0  0
   58.8729   27.0085   48.4330 H   0  0  0  0  0  0  0  0  0  0  0  0
   60.3430   28.1250   47.2970 C   0  0  0  0  0  0  0  0  0  0  0  0
   61.1005   28.0826   48.0935 H   0  0  0  0  0  0  0  0  0  0  0  0
   60.6270   28.7850   46.0980 C   0  0  0  0  0  0  0  0  0  0  0  0
   61.6047   29.2682   45.9543 H   0  0  0  0  0  0  0  0  0  0  0  0
   59.6680   28.8310   45.0810 C   0  0  0  0  0  0  0  0  0  0  0  0
   59.8856   29.3681   44.1460 H   0  0  0  0  0  0  0  0  0  0  0  0
   57.1710   30.7440   43.9900 C   0  0  0  0  0  0  0  0  0  0  0  0
   57.2240   31.3310   45.2150 N   0  0  0  0  0  0  0  0  0  0  0  0
   57.6590   32.5810   45.4000 N   0  0  0  0  0  0  0  0  0  0  0  0
   57.6680   33.1040   46.7690 C   0  0  0  0  0  0  0  0  0  0  0  0
   57.2585   34.1249   46.7719 H   0  0  0  0  0  0  0  0  0  0  0  0
   57.0526   32.4541   47.4085 H   0  0  0  0  0  0  0  0  0  0  0  0
   59.0750   33.1300   47.2990 C   0  0  0  0  0  0  0  0  0  0  0  0
   59.9800   32.1140   46.9480 C   0  0  0  0  0  0  0  0  0  0  0  0
   59.6485   31.2800   46.3119 H   0  0  0  0  0  0  0  0  0  0  0  0
   61.3010   32.1600   47.4050 C   0  0  0  0  0  0  0  0  0  0  0  0
   62.0039   31.3581   47.1349 H   0  0  0  0  0  0  0  0  0  0  0  0
   61.7290   33.2230   48.2040 C   0  0  0  0  0  0  0  0  0  0  0  0
   62.7673   33.2561   48.5656 H   0  0  0  0  0  0  0  0  0  0  0  0
   60.8370   34.2450   48.5440 C   0  0  0  0  0  0  0  0  0  0  0  0
   61.1759   35.0836   49.1700 H   0  0  0  0  0  0  0  0  0  0  0  0
   59.5160   34.2030   48.0900 C   0  0  0  0  0  0  0  0  0  0  0  0
   58.8197   35.0129   48.3531 H   0  0  0  0  0  0  0  0  0  0  0  0
   58.1180   33.3140   44.3390 C   0  0  0  0  0  0  0  0  0  0  0  0
   58.5610   34.4850   44.4990 O   0  0  0  0  0  0  0  0  0  0  0  0
   58.0980   32.7590   43.0580 C   0  0  0  0  0  0  0  0  0  0  0  0
   58.4562   33.3404   42.1957 H   0  0  0  0  0  0  0  0  0  0  0  0
   57.6210   31.4640   42.8820 C   0  0  0  0  0  0  0  0  0  0  0  0
   57.5987   31.0119   41.8795 H   0  0  0  0  0  0  0  0  0  0  0  0
  1  2  1  0
  2  3  2  0
  3  4  1  0
  3  5  1  0
  5  6  2  0
  6  7  1  0
  6  8  1  0
  8  9  1  0
  8 10  2  0
 10 11  1  0
 10 12  1  0
 12 13  1  0
 12 14  2  0
 14 15  1  0
  2 16  1  0
 16 17  2  0
 17 18  1  0
 18 19  1  0
 19 20  1  0
 19 21  1  0
 19 22  1  0
 22 23  2  0
 23 24  1  0
 23 25  1  0
 25 26  1  0
 25 27  2  0
 27 28  1  0
 27 29  1  0
 29 30  1  0
 29 31  2  0
 31 32  1  0
 18 33  1  0
 33 34  2  0
 33 35  1  0
 35 36  1  0
 35 37  2  0
 37 38  1  0
 14  5  1  0
 37 16  1  0
 31 22  1  0
M  END
>  <UniqueID>  (34) 
32

>  <SMILES>  (34) 
O=c1ccc(/C=C\c2ccccc2)nn1Cc1ccccc1

>  <Energy>  (34) 
47.7230640191455

>  <Genealogy>  (34) 
O=c1ccc(/C=C\c2ccccc2)nn1Cc1ccccc1 (cis-trans isomerization)
O=c1ccc(/C=C\c2ccccc2)nn1Cc1ccccc1 (3D coordinates assigned)
O=c1ccc(/C=C\c2ccccc2)nn1Cc1ccccc1 (optimized conformer: 47.7230640191455 kcal/mol)

>  <smiles>  (34) 
O=c1ccc(C=Cc2ccccc2)nn1Cc1ccccc1

>  <score_type>  (34) 
oracle

>  <origin>  (34) 
adg

>  <m_score__min__energy>  (34) 
-7.7599999999999998

>  <m_primary>  (34) 
energy

$$$$
34:0
     RDKit          3D

 31 32  0  0  0  0  0  0  0  0999 V2000
   59.5570   35.1220   47.0350 C   0  0  0  0  0  0  0  0  0  0  0  0
   58.9860   33.9710   46.2600 C   0  0  0  0  0  0  0  0  0  0  0  0
   58.6800   32.7650   46.9100 C   0  0  0  0  0  0  0  0  0  0  0  0
   58.1140   31.7050   46.1960 C   0  0  0  0  0  0  0  0  0  0  0  0
   57.8320   31.8410   44.8280 C   0  0  0  0  0  0  0  0  0  0  0  0
   57.2530   30.6850   44.0550 C   0  0  0  0  0  0  0  0  0  0  0  0
   57.4870   29.3910   44.7950 C   0  0  0  0  0  0  0  0  0  0  0  0
   58.8010   28.9780   45.0590 C   0  0  0  0  0  0  0  0  0  0  0  0
   59.0330   27.7670   45.7200 C   0  0  0  0  0  0  0  0  0  0  0  0
   60.4340   27.2970   45.9740 C   0  0  0  0  0  0  0  0  0  0  0  0
   57.9440   26.9650   46.0750 C   0  0  0  0  0  0  0  0  0  0  0  0
   56.6460   27.3960   45.7900 C   0  0  0  0  0  0  0  0  0  0  0  0
   55.6660   26.6740   46.1160 O   0  0  0  0  0  0  0  0  0  0  0  0
   56.4370   28.5900   45.1610 N   0  0  0  0  0  0  0  0  0  0  0  0
   55.1440   28.9830   44.8900 O   0  0  0  0  0  0  0  0  0  0  0  0
   58.1280   33.0520   44.1820 C   0  0  0  0  0  0  0  0  0  0  0  0
   58.6930   34.1120   44.8960 C   0  0  0  0  0  0  0  0  0  0  0  0
   59.4585   34.9234   48.1124 H   0  0  0  0  0  0  0  0  0  0  0  0
   60.6201   35.2441   46.7804 H   0  0  0  0  0  0  0  0  0  0  0  0
   59.0110   36.0423   46.7804 H   0  0  0  0  0  0  0  0  0  0  0  0
   58.8863   32.6538   47.9847 H   0  0  0  0  0  0  0  0  0  0  0  0
   57.8883   30.7587   46.7094 H   0  0  0  0  0  0  0  0  0  0  0  0
   56.1714   30.8394   43.9270 H   0  0  0  0  0  0  0  0  0  0  0  0
   57.7445   30.6294   43.0725 H   0  0  0  0  0  0  0  0  0  0  0  0
   59.6485   29.6057   44.7466 H   0  0  0  0  0  0  0  0  0  0  0  0
   60.6100   27.2379   47.0582 H   0  0  0  0  0  0  0  0  0  0  0  0
   60.5742   26.3026   45.5251 H   0  0  0  0  0  0  0  0  0  0  0  0
   61.1455   28.0056   45.5251 H   0  0  0  0  0  0  0  0  0  0  0  0
   58.1085   25.9997   46.5761 H   0  0  0  0  0  0  0  0  0  0  0  0
   57.9142   33.1668   43.1091 H   0  0  0  0  0  0  0  0  0  0  0  0
   58.9091   35.0620   44.3854 H   0  0  0  0  0  0  0  0  0  0  0  0
  1  2  1  0
  2  3  2  0
  3  4  1  0
  4  5  2  0
  5  6  1  0
  6  7  1  0
  7  8  2  0
  8  9  1  0
  9 10  1  0
  9 11  2  0
 11 12  1  0
 12 13  2  0
 12 14  1  0
 14 15  1  0
  5 16  1  0
 16 17  2  0
 17  2  1  0
 14  7  1  0
  1 18  1  0
  1 19  1  0
  1 20  1  0
  3 21  1  0
  4 22  1  0
  6 23  1  0
  6 24  1  0
  8 25  1  0
 10 26  1  0
 10 27  1  0
 10 28  1  0
 11 29  1  0
 16 30  1  0
 17 31  1  0
M  CHG  1  15  -1
M  END
>  <UniqueID>  (35) 
33

>  <SMILES>  (35) 
Cc1ccc(Cc2cc(C)cc(=O)n2[O-])cc1

>  <Energy>  (35) 
30.197470894962525

>  <Genealogy>  (35) 
Cc1ccc(Cc2cc(C)cc(=O)n2[O-])cc1 (protonated)
Cc1ccc(Cc2cc(C)cc(=O)n2[O-])cc1 (3D coordinates assigned)
Cc1ccc(Cc2cc(C)cc(=O)n2[O-])cc1 (optimized conformer: 30.197470894962525 kcal/mol)

>  <smiles>  (35) 
Cc1ccc(Cc2cc(C)cc(=O)n2O)cc1

>  <score_type>  (35) 
oracle

>  <origin>  (35) 
adg

>  <m_score__min__energy>  (35) 
-11.210000000000001

>  <m_primary>  (35) 
energy

$$$$
35:0
     RDKit          3D

 38 39  0  0  0  0  0  0  0  0999 V2000
   57.9520   32.1580   44.0860 C   0  0  0  0  0  0  0  0  0  0  0  0
   57.3820   31.5370   45.2340 O   0  0  0  0  0  0  0  0  0  0  0  0
   57.7540   30.2750   45.7220 C   0  0  0  0  0  0  0  0  0  0  0  0
   58.9700   30.0650   46.4010 C   0  0  0  0  0  0  0  0  0  0  0  0
   59.3070   28.7930   46.8690 C   0  0  0  0  0  0  0  0  0  0  0  0
   58.4430   27.7110   46.6630 C   0  0  0  0  0  0  0  0  0  0  0  0
   58.8010   26.3400   47.1740 C   0  0  0  0  0  0  0  0  0  0  0  0
   57.6950   25.4450   47.0450 O   0  0  0  0  0  0  0  0  0  0  0  0
   57.5460   24.4660   46.0460 C   0  0  0  0  0  0  0  0  0  0  0  0
   58.6470   23.7460   45.5460 C   0  0  0  0  0  0  0  0  0  0  0  0
   58.4690   22.7820   44.5560 C   0  0  0  0  0  0  0  0  0  0  0  0
   57.1850   22.5350   44.0650 C   0  0  0  0  0  0  0  0  0  0  0  0
   56.9680   21.5010   43.0050 C   0  0  0  0  0  0  0  0  0  0  0  0
   56.1290   23.2330   44.5580 N   0  0  0  0  0  0  0  0  0  0  0  0
   56.2630   24.1850   45.5240 C   0  0  0  0  0  0  0  0  0  0  0  0
   55.0830   24.8740   45.9760 N   0  0  0  0  0  0  0  0  0  0  0  0
   54.0720   24.2560   46.3670 O   0  0  0  0  0  0  0  0  0  0  0  0
   55.0700   26.2490   45.9990 O   0  0  0  0  0  0  0  0  0  0  0  0
   57.2240   27.9190   46.0020 C   0  0  0  0  0  0  0  0  0  0  0  0
   56.8760   29.1970   45.5230 C   0  0  0  0  0  0  0  0  0  0  0  0
   55.6700   29.4360   44.8440 O   0  0  0  0  0  0  0  0  0  0  0  0
   55.5700   29.7160   43.4520 C   0  0  0  0  0  0  0  0  0  0  0  0
   58.6640   32.9337   44.4043 H   0  0  0  0  0  0  0  0  0  0  0  0
   58.4778   31.4026   43.4835 H   0  0  0  0  0  0  0  0  0  0  0  0
   57.1544   32.6173   43.4835 H   0  0  0  0  0  0  0  0  0  0  0  0
   59.6582   30.9076   46.5636 H   0  0  0  0  0  0  0  0  0  0  0  0
   60.2568   28.6405   47.4025 H   0  0  0  0  0  0  0  0  0  0  0  0
   59.6503   25.9495   46.5941 H   0  0  0  0  0  0  0  0  0  0  0  0
   59.0677   26.4193   48.2382 H   0  0  0  0  0  0  0  0  0  0  0  0
   59.6547   23.9456   45.9394 H   0  0  0  0  0  0  0  0  0  0  0  0
   59.3308   22.2212   44.1651 H   0  0  0  0  0  0  0  0  0  0  0  0
   56.7640   20.5288   43.4774 H   0  0  0  0  0  0  0  0  0  0  0  0
   56.1113   21.7916   42.3792 H   0  0  0  0  0  0  0  0  0  0  0  0
   57.8693   21.4226   42.3792 H   0  0  0  0  0  0  0  0  0  0  0  0
   56.5327   27.0759   45.8561 H   0  0  0  0  0  0  0  0  0  0  0  0
   55.2031   30.7433   43.3101 H   0  0  0  0  0  0  0  0  0  0  0  0
   56.5606   29.6126   42.9851 H   0  0  0  0  0  0  0  0  0  0  0  0
   54.8690   29.0085   42.9851 H   0  0  0  0  0  0  0  0  0  0  0  0
  1  2  1  0
  2  3  1  0
  3  4  2  0
  4  5  1  0
  5  6  2  0
  6  7  1  0
  7  8  1  0
  8  9  1  0
  9 10  2  0
 10 11  1  0
 11 12  2  0
 12 13  1  0
 12 14  1  0
 14 15  2  0
 15 16  1  0
 16 17  2  0
 16 18  1  0
  6 19  1  0
 19 20  2  0
 20 21  1  0
 21 22  1  0
 20  3  1  0
 15  9  1  0
  1 23  1  0
  1 24  1  0
  1 25  1  0
  4 26  1  0
  5 27  1  0
  7 28  1  0
  7 29  1  0
 10 30  1  0
 11 31  1  0
 13 32  1  0
 13 33  1  0
 13 34  1  0
 19 35  1  0
 22 36  1  0
 22 37  1  0
 22 38  1  0
M  CHG  2  16   1  18  -1
M  END
>  <UniqueID>  (36) 
34

>  <SMILES>  (36) 
COc1ccc(COc2ccc(C)nc2[N+](=O)[O-])cc1OC

>  <Energy>  (36) 
37.90389152128076

>  <Genealogy>  (36) 
COc1ccc(COc2ccc(C)nc2[N+](=O)[O-])cc1OC (3D coordinates assigned)
COc1ccc(COc2ccc(C)nc2[N+](=O)[O-])cc1OC (optimized conformer: 37.90389152128076 kcal/mol)

>  <smiles>  (36) 
COc1ccc(COc2ccc(C)nc2[N+](=O)[O-])cc1OC

>  <score_type>  (36) 
oracle

>  <origin>  (36) 
adg

>  <m_score__min__energy>  (36) 
-7.5999999999999996

>  <m_primary>  (36) 
energy

$$$$
36:0
     RDKit          3D

 42 45  0  0  0  0  0  0  0  0999 V2000
   59.5890   35.1610   46.7330 O   0  0  0  0  0  0  0  0  0  0  0  0
   59.4560   33.9170   46.8940 C   0  0  0  0  0  0  0  0  0  0  0  0
   58.7620   33.1290   45.8610 C   0  0  0  0  0  0  0  0  0  0  0  0
   58.0980   31.9240   46.0900 C   0  0  0  0  0  0  0  0  0  0  0  0
   57.6440   31.5280   44.8520 C   0  0  0  0  0  0  0  0  0  0  0  0
   56.9210   30.4000   44.4690 C   0  0  0  0  0  0  0  0  0  0  0  0
   56.6080   30.2530   43.1050 C   0  0  0  0  0  0  0  0  0  0  0  0
   57.0250   31.2240   42.1670 C   0  0  0  0  0  0  0  0  0  0  0  0
   57.7570   32.3520   42.5850 C   0  0  0  0  0  0  0  0  0  0  0  0
   58.0460   32.4720   43.9440 C   0  0  0  0  0  0  0  0  0  0  0  0
   58.7360   33.4550   44.5470 N   0  0  0  0  0  0  0  0  0  0  0  0
   59.9900   33.2940   48.0740 N   0  0  0  0  0  0  0  0  0  0  0  0
   60.8720   32.1220   47.9380 C   0  0  0  0  0  0  0  0  0  0  0  0
   61.5910   31.8110   49.2550 C   0  0  0  0  0  0  0  0  0  0  0  0
   62.1070   33.0550   49.8400 N   0  0  0  0  0  0  0  0  0  0  0  0
   63.5020   33.1790   50.1770 C   0  0  0  0  0  0  0  0  0  0  0  0
   64.4800   32.5430   49.3940 C   0  0  0  0  0  0  0  0  0  0  0  0
   65.8260   32.6720   49.7380 C   0  0  0  0  0  0  0  0  0  0  0  0
   66.1900   33.4250   50.8550 C   0  0  0  0  0  0  0  0  0  0  0  0
   65.1940   34.0380   51.6160 C   0  0  0  0  0  0  0  0  0  0  0  0
   63.8850   33.9050   51.2690 N   0  0  0  0  0  0  0  0  0  0  0  0
   61.2120   34.2120   50.0030 C   0  0  0  0  0  0  0  0  0  0  0  0
   59.8350   33.9480   49.3810 C   0  0  0  0  0  0  0  0  0  0  0  0
   57.9659   31.4037   47.0501 H   0  0  0  0  0  0  0  0  0  0  0  0
   56.6054   29.6493   45.2085 H   0  0  0  0  0  0  0  0  0  0  0  0
   56.0352   29.3769   42.7669 H   0  0  0  0  0  0  0  0  0  0  0  0
   56.7761   31.0979   41.1030 H   0  0  0  0  0  0  0  0  0  0  0  0
   58.0897   33.1130   41.8637 H   0  0  0  0  0  0  0  0  0  0  0  0
   59.1920   34.2720   44.0840 H   0  0  0  0  0  0  0  0  0  0  0  0
   60.2677   31.2507   47.6451 H   0  0  0  0  0  0  0  0  0  0  0  0
   61.6300   32.3446   47.1726 H   0  0  0  0  0  0  0  0  0  0  0  0
   60.8846   31.3422   49.9559 H   0  0  0  0  0  0  0  0  0  0  0  0
   62.4278   31.1239   49.0610 H   0  0  0  0  0  0  0  0  0  0  0  0
   64.1868   31.9480   48.5165 H   0  0  0  0  0  0  0  0  0  0  0  0
   66.5994   32.1807   49.1293 H   0  0  0  0  0  0  0  0  0  0  0  0
   67.2489   33.5340   51.1321 H   0  0  0  0  0  0  0  0  0  0  0  0
   65.4683   34.6315   52.5006 H   0  0  0  0  0  0  0  0  0  0  0  0
   63.1630   34.3550   51.8760 H   0  0  0  0  0  0  0  0  0  0  0  0
   61.0861   34.4184   51.0761 H   0  0  0  0  0  0  0  0  0  0  0  0
   61.6638   35.0735   49.4895 H   0  0  0  0  0  0  0  0  0  0  0  0
   59.2532   33.2950   50.0482 H   0  0  0  0  0  0  0  0  0  0  0  0
   59.3109   34.9055   49.2454 H   0  0  0  0  0  0  0  0  0  0  0  0
  1  2  2  0
  2  3  1  0
  3  4  2  0
  4  5  1  0
  5  6  2  0
  6  7  1  0
  7  8  2  0
  8  9  1  0
  9 10  2  0
 10 11  1  0
  2 12  1  0
 12 13  1  0
 13 14  1  0
 14 15  1  0
 15 16  1  0
 16 17  2  0
 17 18  1  0
 18 19  2  0
 19 20  1  0
 20 21  2  0
 15 22  1  0
 22 23  1  0
 11  3  1  0
 23 12  1  0
 10  5  1  0
 21 16  1  0
  4 24  1  0
  6 25  1  0
  7 26  1  0
  8 27  1  0
  9 28  1  0
 11 29  1  0
 13 30  1  0
 13 31  1  0
 14 32  1  0
 14 33  1  0
 17 34  1  0
 18 35  1  0
 19 36  1  0
 20 37  1  0
 21 38  1  0
 22 39  1  0
 22 40  1  0
 23 41  1  0
 23 42  1  0
M  CHG  1  21   1
M  END
>  <UniqueID>  (37) 
35

>  <SMILES>  (37) 
O=C(c1cc2ccccc2[nH]1)N1CCN(c2cccc[nH+]2)CC1

>  <Energy>  (37) 
86.70225565525318

>  <Genealogy>  (37) 
O=C(c1cc2ccccc2[nH]1)N1CCN(c2cccc[nH+]2)CC1 (protonated)
O=C(c1cc2ccccc2[nH]1)N1CCN(c2cccc[nH+]2)CC1 (3D coordinates assigned)
O=C(c1cc2ccccc2[nH]1)N1CCN(c2cccc[nH+]2)CC1 (nonaromatic ring conformer: 86.70225565525318 kcal/mol)

>  <smiles>  (37) 
O=C(c1cc2ccccc2[nH]1)N1CCN(c2ccccn2)CC1

>  <score_type>  (37) 
oracle

>  <origin>  (37) 
adg

>  <m_score__min__energy>  (37) 
-5.8799999999999999

>  <m_primary>  (37) 
energy

$$$$
37:0
     RDKit          3D

 31 33  0  0  0  0  0  0  0  0999 V2000
   57.1560   34.2700   45.4070 C   0  0  0  0  0  0  0  0  0  0  0  0
   58.1650   33.2240   45.7900 C   0  0  0  0  0  0  0  0  0  0  0  0
   58.2100   31.9270   45.2540 C   0  0  0  0  0  0  0  0  0  0  0  0
   57.3080   31.3810   44.2280 C   0  0  0  0  0  0  0  0  0  0  0  0
   57.6200   31.4930   43.0150 O   0  0  0  0  0  0  0  0  0  0  0  0
   56.0670   30.7550   44.5760 N   0  0  0  0  0  0  0  0  0  0  0  0
   55.8060   29.3190   44.5130 C   0  0  0  0  0  0  0  0  0  0  0  0
   57.0470   28.5380   44.8210 C   0  0  0  0  0  0  0  0  0  0  0  0
   57.8400   27.8660   43.8990 C   0  0  0  0  0  0  0  0  0  0  0  0
   58.9200   27.1980   44.4860 C   0  0  0  0  0  0  0  0  0  0  0  0
   58.9850   27.3460   45.8670 C   0  0  0  0  0  0  0  0  0  0  0  0
   57.6960   28.3090   46.3550 S   0  0  0  0  0  0  0  0  0  0  0  0
   59.4570   31.0460   45.9870 S   0  0  0  0  0  0  0  0  0  0  0  0
   59.9450   32.3060   46.9800 C   0  0  0  0  0  0  0  0  0  0  0  0
   60.9530   32.2870   47.8890 N   0  0  0  0  0  0  0  0  0  0  0  0
   61.2120   33.4050   48.6270 C   0  0  0  0  0  0  0  0  0  0  0  0
   60.4410   34.5700   48.4500 C   0  0  0  0  0  0  0  0  0  0  0  0
   59.4000   34.5830   47.5090 C   0  0  0  0  0  0  0  0  0  0  0  0
   59.1580   33.4240   46.7660 C   0  0  0  0  0  0  0  0  0  0  0  0
   56.7264   34.7154   46.3164 H   0  0  0  0  0  0  0  0  0  0  0  0
   57.6480   35.0536   44.8121 H   0  0  0  0  0  0  0  0  0  0  0  0
   56.3552   33.8065   44.8121 H   0  0  0  0  0  0  0  0  0  0  0  0
   55.0270   29.0617   45.2457 H   0  0  0  0  0  0  0  0  0  0  0  0
   55.4737   29.0656   43.4955 H   0  0  0  0  0  0  0  0  0  0  0  0
   57.6391   27.8598   42.8175 H   0  0  0  0  0  0  0  0  0  0  0  0
   59.6495   26.6107   43.9090 H   0  0  0  0  0  0  0  0  0  0  0  0
   59.7485   26.9083   46.5269 H   0  0  0  0  0  0  0  0  0  0  0  0
   61.5240   31.4240   48.0250 H   0  0  0  0  0  0  0  0  0  0  0  0
   62.0280   33.3962   49.3647 H   0  0  0  0  0  0  0  0  0  0  0  0
   60.6543   35.4681   49.0482 H   0  0  0  0  0  0  0  0  0  0  0  0
   58.7883   35.4849   47.3595 H   0  0  0  0  0  0  0  0  0  0  0  0
  1  2  1  0
  2  3  2  0
  3  4  1  0
  4  5  2  0
  4  6  1  0
  6  7  1  0
  7  8  1  0
  8  9  2  0
  9 10  1  0
 10 11  2  0
 11 12  1  0
  3 13  1  0
 13 14  1  0
 14 15  2  0
 15 16  1  0
 16 17  2  0
 17 18  1  0
 18 19  2  0
 19  2  1  0
 12  8  1  0
 19 14  1  0
  1 20  1  0
  1 21  1  0
  1 22  1  0
  7 23  1  0
  7 24  1  0
  9 25  1  0
 10 26  1  0
 11 27  1  0
 15 28  1  0
 16 29  1  0
 17 30  1  0
 18 31  1  0
M  CHG  2   6  -1  15   1
M  END
>  <UniqueID>  (38) 
36

>  <SMILES>  (38) 
Cc1c(C(=O)[N-]Cc2cccs2)sc2[nH+]cccc12

>  <Energy>  (38) 
91.63885761532696

>  <Genealogy>  (38) 
Cc1c(C(=O)[N-]Cc2cccs2)sc2[nH+]cccc12 (protonated)
Cc1c(C(=O)[N-]Cc2cccs2)sc2[nH+]cccc12 (3D coordinates assigned)
Cc1c(C(=O)[N-]Cc2cccs2)sc2[nH+]cccc12 (optimized conformer: 91.63885761532696 kcal/mol)

>  <smiles>  (38) 
Cc1c(C(=O)NCc2cccs2)sc2ncccc12

>  <score_type>  (38) 
oracle

>  <origin>  (38) 
adg

>  <m_score__min__energy>  (38) 
-6.8200000000000003

>  <m_primary>  (38) 
energy

$$$$
38:0
     RDKit          3D

 44 46  0  0  0  0  0  0  0  0999 V2000
   63.6970   33.8560   48.0280 C   0  0  0  0  0  0  0  0  0  0  0  0
   62.2190   33.7220   47.8080 C   0  0  0  0  0  0  0  0  0  0  0  0
   61.3320   33.8170   48.8940 C   0  0  0  0  0  0  0  0  0  0  0  0
   59.9520   33.7330   48.6870 C   0  0  0  0  0  0  0  0  0  0  0  0
   59.4460   33.5630   47.3930 C   0  0  0  0  0  0  0  0  0  0  0  0
   57.6750   33.4730   47.1250 S   0  0  0  0  0  0  0  0  0  0  0  0
   57.7700   34.1410   45.4330 C   0  0  0  0  0  0  0  0  0  0  0  0
   57.6530   33.0190   44.4580 C   0  0  0  0  0  0  0  0  0  0  0  0
   58.3140   33.0520   43.3830 O   0  0  0  0  0  0  0  0  0  0  0  0
   56.8500   31.9180   44.7700 O   0  0  0  0  0  0  0  0  0  0  0  0
   56.8950   30.7020   44.0310 C   0  0  0  0  0  0  0  0  0  0  0  0
   56.3820   29.5790   44.8720 C   0  0  0  0  0  0  0  0  0  0  0  0
   55.1460   29.3270   44.8810 O   0  0  0  0  0  0  0  0  0  0  0  0
   57.3100   28.7350   45.5670 N   0  0  0  0  0  0  0  0  0  0  0  0
   58.4610   29.1520   46.3160 C   0  0  0  0  0  0  0  0  0  0  0  0
   59.5590   29.6780   45.6180 C   0  0  0  0  0  0  0  0  0  0  0  0
   60.6950   30.1170   46.3070 C   0  0  0  0  0  0  0  0  0  0  0  0
   60.7320   30.0470   47.7020 C   0  0  0  0  0  0  0  0  0  0  0  0
   59.6440   29.5180   48.4090 C   0  0  0  0  0  0  0  0  0  0  0  0
   58.5020   29.0920   47.7240 C   0  0  0  0  0  0  0  0  0  0  0  0
   59.7180   29.4280   49.8040 O   0  0  0  0  0  0  0  0  0  0  0  0
   60.9640   29.5910   50.4870 C   0  0  0  0  0  0  0  0  0  0  0  0
   61.7890   30.7030   49.8280 C   0  0  0  0  0  0  0  0  0  0  0  0
   61.8460   30.5060   48.4130 O   0  0  0  0  0  0  0  0  0  0  0  0
   60.3240   33.4860   46.3050 C   0  0  0  0  0  0  0  0  0  0  0  0
   61.7050   33.5690   46.5110 C   0  0  0  0  0  0  0  0  0  0  0  0
   63.9068   33.8750   49.1076 H   0  0  0  0  0  0  0  0  0  0  0  0
   64.2150   33.0011   47.5688 H   0  0  0  0  0  0  0  0  0  0  0  0
   64.0529   34.7901   47.5688 H   0  0  0  0  0  0  0  0  0  0  0  0
   61.7254   33.9581   49.9115 H   0  0  0  0  0  0  0  0  0  0  0  0
   59.2631   33.8006   49.5419 H   0  0  0  0  0  0  0  0  0  0  0  0
   56.9492   34.8555   45.2725 H   0  0  0  0  0  0  0  0  0  0  0  0
   58.7316   34.6561   45.2915 H   0  0  0  0  0  0  0  0  0  0  0  0
   56.2705   30.7986   43.1306 H   0  0  0  0  0  0  0  0  0  0  0  0
   57.9349   30.4921   43.7403 H   0  0  0  0  0  0  0  0  0  0  0  0
   59.5263   29.7457   44.5206 H   0  0  0  0  0  0  0  0  0  0  0  0
   61.5567   30.5162   45.7519 H   0  0  0  0  0  0  0  0  0  0  0  0
   57.6355   28.7100   48.2837 H   0  0  0  0  0  0  0  0  0  0  0  0
   60.7706   29.8559   51.5370 H   0  0  0  0  0  0  0  0  0  0  0  0
   61.5275   28.6477   50.4347 H   0  0  0  0  0  0  0  0  0  0  0  0
   61.3219   31.6760   50.0405 H   0  0  0  0  0  0  0  0  0  0  0  0
   62.8110   30.6791   50.2342 H   0  0  0  0  0  0  0  0  0  0  0  0
   59.9272   33.3601   45.2868 H   0  0  0  0  0  0  0  0  0  0  0  0
   62.3911   33.5141   45.6529 H   0  0  0  0  0  0  0  0  0  0  0  0
  1  2  1  0
  2  3  2  0
  3  4  1  0
  4  5  2  0
  5  6  1  0
  6  7  1  0
  7  8  1  0
  8  9  2  0
  8 10  1  0
 10 11  1  0
 11 12  1  0
 12 13  2  0
 12 14  1  0
 14 15  1  0
 15 16  2  0
 16 17  1  0
 17 18  2  0
 18 19  1  0
 19 20  2  0
 19 21  1  0
 21 22  1  0
 22 23  1  0
 23 24  1  0
  5 25  1  0
 25 26  2  0
 26  2  1  0
 20 15  1  0
 24 18  1  0
  1 27  1  0
  1 28  1  0
  1 29  1  0
  3 30  1  0
  4 31  1  0
  7 32  1  0
  7 33  1  0
 11 34  1  0
 11 35  1  0
 16 36  1  0
 17 37  1  0
 20 38  1  0
 22 39  1  0
 22 40  1  0
 23 41  1  0
 23 42  1  0
 25 43  1  0
 26 44  1  0
M  CHG  1  14  -1
M  END
>  <UniqueID>  (39) 
37

>  <SMILES>  (39) 
Cc1ccc(SCC(=O)OCC(=O)[N-]c2ccc3c(c2)OCCO3)cc1

>  <Energy>  (39) 
40.57660032935273

>  <Genealogy>  (39) 
Cc1ccc(SCC(=O)OCC(=O)[N-]c2ccc3c(c2)OCCO3)cc1 (protonated)
Cc1ccc(SCC(=O)OCC(=O)[N-]c2ccc3c(c2)OCCO3)cc1 (3D coordinates assigned)
Cc1ccc(SCC(=O)OCC(=O)[N-]c2ccc3c(c2)OCCO3)cc1 (nonaromatic ring conformer: 40.57660032935273 kcal/mol)

>  <smiles>  (39) 
Cc1ccc(SCC(=O)OCC(=O)Nc2ccc3c(c2)OCCO3)cc1

>  <score_type>  (39) 
oracle

>  <origin>  (39) 
adg

>  <m_score__min__energy>  (39) 
-9.8100000000000005

>  <m_primary>  (39) 
energy

$$$$
39:0
     RDKit          3D

 53 57  0  0  0  0  0  0  0  0999 V2000
   57.2700   24.5710   45.8140 C   0  0  0  0  0  0  0  0  0  0  0  0
   57.6800   24.9840   44.5440 C   0  0  0  0  0  0  0  0  0  0  0  0
   57.7870   26.3460   44.2490 C   0  0  0  0  0  0  0  0  0  0  0  0
   57.4840   27.3130   45.2270 C   0  0  0  0  0  0  0  0  0  0  0  0
   57.5930   28.7600   44.9190 C   0  0  0  0  0  0  0  0  0  0  0  0
   56.4830   29.4740   44.4330 C   0  0  0  0  0  0  0  0  0  0  0  0
   56.5800   30.8430   44.1710 C   0  0  0  0  0  0  0  0  0  0  0  0
   57.7820   31.5310   44.4040 C   0  0  0  0  0  0  0  0  0  0  0  0
   57.8740   33.0270   44.1750 C   0  0  0  0  0  0  0  0  0  0  0  0
   58.1250   33.8070   45.4100 N   0  0  0  0  0  0  0  0  0  0  0  0
   59.3900   34.5780   45.3760 C   0  0  0  0  0  0  0  0  0  0  0  0
   59.8070   35.0530   46.7710 C   0  0  0  0  0  0  0  0  0  0  0  0
   60.0280   33.8600   47.7320 C   0  0  0  0  0  0  0  0  0  0  0  0
   61.4910   33.4800   47.8020 C   0  0  0  0  0  0  0  0  0  0  0  0
   62.3210   33.1090   46.7410 C   0  0  0  0  0  0  0  0  0  0  0  0
   63.5850   32.9050   47.1740 N   0  0  0  0  0  0  0  0  0  0  0  0
   63.5690   33.1550   48.4940 C   0  0  0  0  0  0  0  0  0  0  0  0
   64.6440   33.0970   49.3770 C   0  0  0  0  0  0  0  0  0  0  0  0
   64.3880   33.4240   50.7210 C   0  0  0  0  0  0  0  0  0  0  0  0
   63.1270   33.7850   51.1190 N   0  0  0  0  0  0  0  0  0  0  0  0
   62.0790   33.8410   50.2450 C   0  0  0  0  0  0  0  0  0  0  0  0
   62.3170   33.5140   48.9110 C   0  0  0  0  0  0  0  0  0  0  0  0
   59.1520   32.6360   47.3720 C   0  0  0  0  0  0  0  0  0  0  0  0
   57.8590   33.0700   46.6700 C   0  0  0  0  0  0  0  0  0  0  0  0
   58.9030   30.8090   44.8440 C   0  0  0  0  0  0  0  0  0  0  0  0
   58.8070   29.4410   45.1100 C   0  0  0  0  0  0  0  0  0  0  0  0
   57.0710   26.8840   46.5030 C   0  0  0  0  0  0  0  0  0  0  0  0
   56.9660   25.5190   46.7920 C   0  0  0  0  0  0  0  0  0  0  0  0
   57.1868   23.4984   46.0432 H   0  0  0  0  0  0  0  0  0  0  0  0
   57.9192   24.2355   43.7743 H   0  0  0  0  0  0  0  0  0  0  0  0
   58.1098   26.6646   43.2469 H   0  0  0  0  0  0  0  0  0  0  0  0
   55.5314   28.9507   44.2579 H   0  0  0  0  0  0  0  0  0  0  0  0
   55.7077   31.3864   43.7790 H   0  0  0  0  0  0  0  0  0  0  0  0
   58.6959   33.2200   43.4699 H   0  0  0  0  0  0  0  0  0  0  0  0
   56.8986   33.3517   43.7837 H   0  0  0  0  0  0  0  0  0  0  0  0
   60.1853   33.9385   44.9656 H   0  0  0  0  0  0  0  0  0  0  0  0
   59.2311   35.4662   44.7468 H   0  0  0  0  0  0  0  0  0  0  0  0
   60.7432   35.6247   46.6892 H   0  0  0  0  0  0  0  0  0  0  0  0
   59.0004   35.6803   47.1782 H   0  0  0  0  0  0  0  0  0  0  0  0
   59.7090   34.1953   48.7299 H   0  0  0  0  0  0  0  0  0  0  0  0
   61.9913   32.9982   45.6974 H   0  0  0  0  0  0  0  0  0  0  0  0
   64.4070   32.6220   46.5950 H   0  0  0  0  0  0  0  0  0  0  0  0
   65.6499   32.8080   49.0383 H   0  0  0  0  0  0  0  0  0  0  0  0
   65.2047   33.3898   51.4570 H   0  0  0  0  0  0  0  0  0  0  0  0
   61.0751   34.1359   50.5843 H   0  0  0  0  0  0  0  0  0  0  0  0
   59.7192   31.9727   46.7024 H   0  0  0  0  0  0  0  0  0  0  0  0
   58.8859   32.1112   48.3014 H   0  0  0  0  0  0  0  0  0  0  0  0
   57.2644   32.1742   46.4376 H   0  0  0  0  0  0  0  0  0  0  0  0
   57.3172   33.7456   47.3482 H   0  0  0  0  0  0  0  0  0  0  0  0
   59.8649   31.3249   44.9804 H   0  0  0  0  0  0  0  0  0  0  0  0
   59.6891   28.8924   45.4720 H   0  0  0  0  0  0  0  0  0  0  0  0
   56.8294   27.6267   47.2776 H   0  0  0  0  0  0  0  0  0  0  0  0
   56.6433   25.1926   47.7917 H   0  0  0  0  0  0  0  0  0  0  0  0
  1  2  2  0
  2  3  1  0
  3  4  2  0
  4  5  1  0
  5  6  2  0
  6  7  1  0
  7  8  2  0
  8  9  1  0
  9 10  1  0
 10 11  1  0
 11 12  1  0
 12 13  1  0
 13 14  1  0
 14 15  2  0
 15 16  1  0
 16 17  1  0
 17 18  2  0
 18 19  1  0
 19 20  2  0
 20 21  1  0
 21 22  2  0
 13 23  1  0
 23 24  1  0
  8 25  1  0
 25 26  2  0
  4 27  1  0
 27 28  2  0
 28  1  1  0
 26  5  1  0
 24 10  1  0
 22 14  1  0
 22 17  1  0
  1 29  1  0
  2 30  1  0
  3 31  1  0
  6 32  1  0
  7 33  1  0
  9 34  1  0
  9 35  1  0
 11 36  1  0
 11 37  1  0
 12 38  1  0
 12 39  1  0
 13 40  1  0
 15 41  1  0
 16 42  1  0
 18 43  1  0
 19 44  1  0
 21 45  1  0
 23 46  1  0
 23 47  1  0
 24 48  1  0
 24 49  1  0
 25 50  1  0
 26 51  1  0
 27 52  1  0
 28 53  1  0
M  END
>  <UniqueID>  (40) 
38

>  <SMILES>  (40) 
c1ccc(-c2ccc(CN3CCC(c4c[nH]c5ccncc45)CC3)cc2)cc1

>  <Energy>  (40) 
108.11993264436259

>  <Genealogy>  (40) 
c1ccc(-c2ccc(CN3CCC(c4c[nH]c5ccncc45)CC3)cc2)cc1 (3D coordinates assigned)
c1ccc(-c2ccc(CN3CCC(c4c[nH]c5ccncc45)CC3)cc2)cc1 (nonaromatic ring conformer: 108.11993264436259 kcal/mol)

>  <smiles>  (40) 
c1ccc(-c2ccc(CN3CCC(c4c[nH]c5ccncc45)CC3)cc2)cc1

>  <score_type>  (40) 
oracle

>  <origin>  (40) 
adg

>  <m_score__min__energy>  (40) 
-10.029999999999999

>  <m_primary>  (40) 
energy

$$$$
40:0
     RDKit          3D

 59 61  0  0  0  0  0  0  0  0999 V2000
   59.6590   27.4950   45.6280 C   0  0  0  0  0  0  0  0  0  0  0  0
   59.7440   28.7020   46.5130 C   0  0  0  0  0  0  0  0  0  0  0  0
   60.6310   29.7400   46.1950 C   0  0  0  0  0  0  0  0  0  0  0  0
   60.6880   30.8890   46.9890 C   0  0  0  0  0  0  0  0  0  0  0  0
   59.8730   31.0080   48.1270 C   0  0  0  0  0  0  0  0  0  0  0  0
   59.9320   32.4780   49.1170 S   0  0  0  0  0  0  0  0  0  0  0  0
   60.9940   32.2880   50.1660 O   0  0  0  0  0  0  0  0  0  0  0  0
   58.6160   32.6550   49.8240 O   0  0  0  0  0  0  0  0  0  0  0  0
   60.2850   33.9360   48.2070 N   0  0  0  0  0  0  0  0  0  0  0  0
   59.0980   34.5240   47.5430 C   0  0  0  0  0  0  0  0  0  0  0  0
   58.6470   33.7970   46.2930 C   0  0  0  0  0  0  0  0  0  0  0  0
   57.7710   32.7030   46.3760 C   0  0  0  0  0  0  0  0  0  0  0  0
   57.3590   32.0330   45.2210 C   0  0  0  0  0  0  0  0  0  0  0  0
   57.8310   32.4310   43.9560 C   0  0  0  0  0  0  0  0  0  0  0  0
   57.3960   31.7490   42.7580 N   0  0  0  0  0  0  0  0  0  0  0  0
   56.7040   30.4610   42.8560 C   0  0  0  0  0  0  0  0  0  0  0  0
   57.6880   32.3130   41.4360 C   0  0  0  0  0  0  0  0  0  0  0  0
   58.7520   33.4920   43.8830 C   0  0  0  0  0  0  0  0  0  0  0  0
   59.1670   34.1540   45.0410 C   0  0  0  0  0  0  0  0  0  0  0  0
   61.4920   33.7920   47.3690 C   0  0  0  0  0  0  0  0  0  0  0  0
   62.7780   34.1600   48.1350 C   0  0  2  0  0  0  0  0  0  0  0  0
   63.8750   33.0840   47.8880 C   0  0  0  0  0  0  0  0  0  0  0  0
   63.9010   32.0470   49.0140 C   0  0  0  0  0  0  0  0  0  0  0  0
   64.1480   32.7130   50.3780 C   0  0  0  0  0  0  0  0  0  0  0  0
   63.6430   34.1630   50.4250 C   0  0  0  0  0  0  0  0  0  0  0  0
   62.4580   34.3190   49.5720 N   0  0  0  0  0  0  0  0  0  0  0  0
   58.9550   29.9870   48.4190 C   0  0  0  0  0  0  0  0  0  0  0  0
   58.8950   28.8400   47.6230 C   0  0  0  0  0  0  0  0  0  0  0  0
   59.5952   26.5890   46.2486 H   0  0  0  0  0  0  0  0  0  0  0  0
   58.7638   27.5682   44.9930 H   0  0  0  0  0  0  0  0  0  0  0  0
   60.5556   27.4421   44.9930 H   0  0  0  0  0  0  0  0  0  0  0  0
   61.2858   29.6498   45.3157 H   0  0  0  0  0  0  0  0  0  0  0  0
   61.3753   31.7050   46.7211 H   0  0  0  0  0  0  0  0  0  0  0  0
   58.2654   34.5184   48.2618 H   0  0  0  0  0  0  0  0  0  0  0  0
   59.3891   35.5362   47.2257 H   0  0  0  0  0  0  0  0  0  0  0  0
   57.4058   32.3704   47.3588 H   0  0  0  0  0  0  0  0  0  0  0  0
   56.6600   31.1875   45.3010 H   0  0  0  0  0  0  0  0  0  0  0  0
   56.5637   30.1998   43.9153 H   0  0  0  0  0  0  0  0  0  0  0  0
   55.7233   30.5333   42.3631 H   0  0  0  0  0  0  0  0  0  0  0  0
   57.3056   29.6831   42.3631 H   0  0  0  0  0  0  0  0  0  0  0  0
   58.1908   33.2842   41.5546 H   0  0  0  0  0  0  0  0  0  0  0  0
   58.3437   31.6260   40.8809 H   0  0  0  0  0  0  0  0  0  0  0  0
   56.7485   32.4519   40.8809 H   0  0  0  0  0  0  0  0  0  0  0  0
   59.1488   33.8031   42.9054 H   0  0  0  0  0  0  0  0  0  0  0  0
   59.9088   34.9631   44.9698 H   0  0  0  0  0  0  0  0  0  0  0  0
   61.5668   32.7477   47.0316 H   0  0  0  0  0  0  0  0  0  0  0  0
   61.3966   34.4813   46.5170 H   0  0  0  0  0  0  0  0  0  0  0  0
   63.1797   35.1164   47.7690 H   0  0  0  0  0  0  0  0  0  0  0  0
   63.6683   32.5737   46.9357 H   0  0  0  0  0  0  0  0  0  0  0  0
   64.8530   33.5864   47.8562 H   0  0  0  0  0  0  0  0  0  0  0  0
   62.9347   31.5221   49.0408 H   0  0  0  0  0  0  0  0  0  0  0  0
   64.7209   31.3404   48.8179 H   0  0  0  0  0  0  0  0  0  0  0  0
   63.6266   32.1326   51.1535 H   0  0  0  0  0  0  0  0  0  0  0  0
   65.2345   32.7319   50.5487 H   0  0  0  0  0  0  0  0  0  0  0  0
   63.3806   34.4222   51.4613 H   0  0  0  0  0  0  0  0  0  0  0  0
   64.4373   34.8301   50.0587 H   0  0  0  0  0  0  0  0  0  0  0  0
   62.0880   35.2860   49.7210 H   0  0  0  0  0  0  0  0  0  0  0  0
   58.2784   30.0905   49.2801 H   0  0  0  0  0  0  0  0  0  0  0  0
   58.1792   28.0413   47.8671 H   0  0  0  0  0  0  0  0  0  0  0  0
  1  2  1  0
  2  3  2  0
  3  4  1  0
  4  5  2  0
  5  6  1  0
  6  7  2  0
  6  8  2  0
  6  9  1  0
  9 10  1  0
 10 11  1  0
 11 12  2  0
 12 13  1  0
 13 14  2  0
 14 15  1  0
 15 16  1  0
 15 17  1  0
 14 18  1  0
 18 19  2  0
  9 20  1  0
 20 21  1  0
 21 22  1  0
 22 23  1  0
 23 24  1  0
 24 25  1  0
 25 26  1  0
  5 27  1  0
 27 28  2  0
 28  2  1  0
 19 11  1  0
 26 21  1  0
  1 29  1  0
  1 30  1  0
  1 31  1  0
  3 32  1  0
  4 33  1  0
 10 34  1  0
 10 35  1  0
 12 36  1  0
 13 37  1  0
 16 38  1  0
 16 39  1  0
 16 40  1  0
 17 41  1  0
 17 42  1  0
 17 43  1  0
 18 44  1  0
 19 45  1  0
 20 46  1  0
 20 47  1  0
 21 48  1  6
 22 49  1  0
 22 50  1  0
 23 51  1  0
 23 52  1  0
 24 53  1  0
 24 54  1  0
 25 55  1  0
 25 56  1  0
 26 57  1  0
 27 58  1  0
 28 59  1  0
M  END
>  <UniqueID>  (41) 
39

>  <SMILES>  (41) 
Cc1ccc(S(=O)(=O)N(Cc2ccc(N(C)C)cc2)C[C@@H]2CCCCN2)cc1

>  <Energy>  (41) 
65.42600214895724

>  <Genealogy>  (41) 
Cc1ccc(S(=O)(=O)N(Cc2ccc(N(C)C)cc2)C[C@@H]2CCCCN2)cc1 (chirality)
Cc1ccc(S(=O)(=O)N(Cc2ccc(N(C)C)cc2)C[C@@H]2CCCCN2)cc1 (3D coordinates assigned)
Cc1ccc(S(=O)(=O)N(Cc2ccc(N(C)C)cc2)C[C@@H]2CCCCN2)cc1 (nonaromatic ring conformer: 65.42600214895724 kcal/mol)

>  <smiles>  (41) 
Cc1ccc(S(=O)(=O)N(Cc2ccc(N(C)C)cc2)CC2CCCCN2)cc1

>  <score_type>  (41) 
oracle

>  <origin>  (41) 
adg

>  <m_score__min__energy>  (41) 
-9

>  <m_primary>  (41) 
energy

$$$$
41:0
     RDKit          3D

 50 52  0  0  0  0  0  0  0  0999 V2000
   66.4380   31.3810   50.8560 C   0  0  0  0  0  0  0  0  0  0  0  0
   66.2580   32.8130   51.1370 N   0  0  0  0  0  0  0  0  0  0  0  0
   64.9050   33.3040   51.2250 C   0  0  0  0  0  0  0  0  0  0  0  0
   64.4700   33.6970   52.3400 O   0  0  0  0  0  0  0  0  0  0  0  0
   64.0280   33.3960   50.0270 C   0  0  0  0  0  0  0  0  0  0  0  0
   64.5220   33.0920   48.7460 C   0  0  0  0  0  0  0  0  0  0  0  0
   63.6780   33.1650   47.6390 C   0  0  0  0  0  0  0  0  0  0  0  0
   62.3410   33.5400   47.8030 C   0  0  0  0  0  0  0  0  0  0  0  0
   61.4700   33.6140   46.7070 C   0  0  0  0  0  0  0  0  0  0  0  0
   60.1250   33.9820   46.8930 C   0  0  0  0  0  0  0  0  0  0  0  0
   59.2270   34.0730   45.8200 O   0  0  0  0  0  0  0  0  0  0  0  0
   58.5410   32.9960   45.2420 C   0  0  0  0  0  0  0  0  0  0  0  0
   58.0480   33.0490   43.9280 C   0  0  0  0  0  0  0  0  0  0  0  0
   57.3870   31.9410   43.3970 C   0  0  0  0  0  0  0  0  0  0  0  0
   57.2080   30.7850   44.1730 C   0  0  0  0  0  0  0  0  0  0  0  0
   56.5270   29.5670   43.6040 C   0  0  0  0  0  0  0  0  0  0  0  0
   56.3220   29.7200   42.2450 F   0  0  0  0  0  0  0  0  0  0  0  0
   55.3050   29.3940   44.2280 F   0  0  0  0  0  0  0  0  0  0  0  0
   57.2990   28.4340   43.8020 F   0  0  0  0  0  0  0  0  0  0  0  0
   57.7570   30.7590   45.4650 C   0  0  0  0  0  0  0  0  0  0  0  0
   58.3980   31.8510   45.9600 N   0  0  0  0  0  0  0  0  0  0  0  0
   59.6740   34.3110   48.1770 C   0  0  0  0  0  0  0  0  0  0  0  0
   60.5350   34.2360   49.2740 C   0  0  0  0  0  0  0  0  0  0  0  0
   61.8710   33.8470   49.1000 C   0  0  0  0  0  0  0  0  0  0  0  0
   62.7180   33.7660   50.1690 N   0  0  0  0  0  0  0  0  0  0  0  0
   67.4120   33.7150   51.4170 C   0  0  0  0  0  0  0  0  0  0  0  0
   68.2850   33.1490   52.5620 C   0  0  0  0  0  0  0  0  0  0  0  0
   68.2720   33.8430   50.1460 C   0  0  0  0  0  0  0  0  0  0  0  0
   66.9460   35.1300   51.8430 C   0  0  0  0  0  0  0  0  0  0  0  0
   66.5076   30.8273   51.8039 H   0  0  0  0  0  0  0  0  0  0  0  0
   65.5794   31.0102   50.2769 H   0  0  0  0  0  0  0  0  0  0  0  0
   67.3617   31.2342   50.2769 H   0  0  0  0  0  0  0  0  0  0  0  0
   65.5738   32.7968   48.6176 H   0  0  0  0  0  0  0  0  0  0  0  0
   64.0637   32.9276   46.6366 H   0  0  0  0  0  0  0  0  0  0  0  0
   61.8399   33.3833   45.6971 H   0  0  0  0  0  0  0  0  0  0  0  0
   58.1820   33.9572   43.3221 H   0  0  0  0  0  0  0  0  0  0  0  0
   57.0046   31.9734   42.3661 H   0  0  0  0  0  0  0  0  0  0  0  0
   57.6681   29.8510   46.0795 H   0  0  0  0  0  0  0  0  0  0  0  0
   58.6319   34.6315   48.3231 H   0  0  0  0  0  0  0  0  0  0  0  0
   60.1634   34.4833   50.2794 H   0  0  0  0  0  0  0  0  0  0  0  0
   62.3450   33.9900   51.1210 H   0  0  0  0  0  0  0  0  0  0  0  0
   67.8479   33.4324   53.5308 H   0  0  0  0  0  0  0  0  0  0  0  0
   68.3253   32.0525   52.4846 H   0  0  0  0  0  0  0  0  0  0  0  0
   69.3025   33.5597   52.4846 H   0  0  0  0  0  0  0  0  0  0  0  0
   69.3234   33.9995   50.4289 H   0  0  0  0  0  0  0  0  0  0  0  0
   68.1857   32.9221   49.5506 H   0  0  0  0  0  0  0  0  0  0  0  0
   67.9212   34.6988   49.5506 H   0  0  0  0  0  0  0  0  0  0  0  0
   66.9249   35.1940   52.9409 H   0  0  0  0  0  0  0  0  0  0  0  0
   67.6442   35.8812   51.4452 H   0  0  0  0  0  0  0  0  0  0  0  0
   65.9381   35.3193   51.4452 H   0  0  0  0  0  0  0  0  0  0  0  0
  1  2  1  0
  2  3  1  0
  3  4  2  0
  3  5  1  0
  5  6  2  0
  6  7  1  0
  7  8  2  0
  8  9  1  0
  9 10  2  0
 10 11  1  0
 11 12  1  0
 12 13  2  0
 13 14  1  0
 14 15  2  0
 15 16  1  0
 16 17  1  0
 16 18  1  0
 16 19  1  0
 15 20  1  0
 20 21  2  0
 10 22  1  0
 22 23  2  0
 23 24  1  0
 24 25  2  0
  2 26  1  0
 26 27  1  0
 26 28  1  0
 26 29  1  0
 25  5  1  0
 24  8  1  0
 21 12  1  0
  1 30  1  0
  1 31  1  0
  1 32  1  0
  6 33  1  0
  7 34  1  0
  9 35  1  0
 13 36  1  0
 14 37  1  0
 20 38  1  0
 22 39  1  0
 23 40  1  0
 25 41  1  0
 27 42  1  0
 27 43  1  0
 27 44  1  0
 28 45  1  0
 28 46  1  0
 28 47  1  0
 29 48  1  0
 29 49  1  0
 29 50  1  0
M  CHG  1  25   1
M  END
>  <UniqueID>  (42) 
40

>  <SMILES>  (42) 
CN(C(=O)c1ccc2cc(Oc3ccc(C(F)(F)F)cn3)ccc2[nH+]1)C(C)(C)C

>  <Energy>  (42) 
68.57575923041352

>  <Genealogy>  (42) 
CN(C(=O)c1ccc2cc(Oc3ccc(C(F)(F)F)cn3)ccc2[nH+]1)C(C)(C)C (protonated)
CN(C(=O)c1ccc2cc(Oc3ccc(C(F)(F)F)cn3)ccc2[nH+]1)C(C)(C)C (3D coordinates assigned)
CN(C(=O)c1ccc2cc(Oc3ccc(C(F)(F)F)cn3)ccc2[nH+]1)C(C)(C)C (optimized conformer: 68.57575923041352 kcal/mol)

>  <smiles>  (42) 
CN(C(=O)c1ccc2cc(Oc3ccc(C(F)(F)F)cn3)ccc2n1)C(C)(C)C

>  <score_type>  (42) 
oracle

>  <origin>  (42) 
adg

>  <m_score__min__energy>  (42) 
-5.8899999999999997

>  <m_primary>  (42) 
energy

$$$$
42:0
     RDKit          3D

 50 54  0  0  0  0  0  0  0  0999 V2000
   57.6010   29.6010   43.2920 O   0  0  0  0  0  0  0  0  0  0  0  0
   56.7800   29.3940   44.5320 S   0  0  0  0  0  0  0  0  0  0  0  0
   55.3260   29.3250   44.1570 O   0  0  0  0  0  0  0  0  0  0  0  0
   57.0270   30.7200   45.6230 N   0  0  0  0  0  0  0  0  0  0  0  0
   58.3450   31.0630   46.0580 C   0  0  0  0  0  0  0  0  0  0  0  0
   59.1070   30.0870   46.7060 C   0  0  0  0  0  0  0  0  0  0  0  0
   60.2990   30.4270   47.3400 C   0  0  0  0  0  0  0  0  0  0  0  0
   60.7540   31.7490   47.3380 C   0  0  0  0  0  0  0  0  0  0  0  0
   61.9320   32.0720   48.0900 N   0  0  0  0  0  0  0  0  0  0  0  0
   61.9980   31.7620   49.5200 C   0  0  0  0  0  0  0  0  0  0  0  0
   62.6360   32.9220   50.3180 C   0  0  0  0  0  0  0  0  0  0  0  0
   63.4790   33.8200   49.5010 N   0  0  0  0  0  0  0  0  0  0  0  0
   64.1410   33.1190   48.3930 C   0  0  0  0  0  0  0  0  0  0  0  0
   63.0940   32.6270   47.3900 C   0  0  0  0  0  0  0  0  0  0  0  0
   60.0300   32.7420   46.6410 C   0  0  0  0  0  0  0  0  0  0  0  0
   60.4760   34.0780   46.5980 C   0  0  0  0  0  0  0  0  0  0  0  0
   59.7420   35.0470   45.9120 C   0  0  0  0  0  0  0  0  0  0  0  0
   58.5640   34.7000   45.2540 C   0  0  0  0  0  0  0  0  0  0  0  0
   58.1050   33.3810   45.2810 C   0  0  0  0  0  0  0  0  0  0  0  0
   58.8200   32.3920   45.9820 C   0  0  0  0  0  0  0  0  0  0  0  0
   57.2720   27.8870   45.3090 C   0  0  0  0  0  0  0  0  0  0  0  0
   58.6030   27.4160   45.1910 C   0  0  0  0  0  0  0  0  0  0  0  0
   58.9580   26.1490   45.6890 C   0  0  0  0  0  0  0  0  0  0  0  0
   57.9600   25.3850   46.2880 C   0  0  0  0  0  0  0  0  0  0  0  0
   56.6870   25.8360   46.4120 C   0  0  0  0  0  0  0  0  0  0  0  0
   56.2990   27.0880   45.9460 C   0  0  0  0  0  0  0  0  0  0  0  0
   55.9140   24.8690   47.0260 O   0  0  0  0  0  0  0  0  0  0  0  0
   56.7530   23.7400   47.3020 C   0  0  0  0  0  0  0  0  0  0  0  0
   58.0530   24.1130   46.8190 O   0  0  0  0  0  0  0  0  0  0  0  0
   58.7624   29.0424   46.7152 H   0  0  0  0  0  0  0  0  0  0  0  0
   60.8880   29.6486   47.8470 H   0  0  0  0  0  0  0  0  0  0  0  0
   60.9792   31.5864   49.8959 H   0  0  0  0  0  0  0  0  0  0  0  0
   62.6218   30.8657   49.6522 H   0  0  0  0  0  0  0  0  0  0  0  0
   61.8282   33.5188   50.7667 H   0  0  0  0  0  0  0  0  0  0  0  0
   63.2940   32.4659   51.0723 H   0  0  0  0  0  0  0  0  0  0  0  0
   62.8900   34.5970   49.1170 H   0  0  0  0  0  0  0  0  0  0  0  0
   64.2110   34.2490   50.1140 H   0  0  0  0  0  0  0  0  0  0  0  0
   64.8349   33.8073   47.8883 H   0  0  0  0  0  0  0  0  0  0  0  0
   64.6968   32.2566   48.7897 H   0  0  0  0  0  0  0  0  0  0  0  0
   62.7696   33.4703   46.7626 H   0  0  0  0  0  0  0  0  0  0  0  0
   63.5422   31.8398   46.7659 H   0  0  0  0  0  0  0  0  0  0  0  0
   61.4089   34.3592   47.1085 H   0  0  0  0  0  0  0  0  0  0  0  0
   60.0950   36.0886   45.8908 H   0  0  0  0  0  0  0  0  0  0  0  0
   57.9932   35.4677   44.7111 H   0  0  0  0  0  0  0  0  0  0  0  0
   57.1789   33.1136   44.7510 H   0  0  0  0  0  0  0  0  0  0  0  0
   59.3641   28.0453   44.7066 H   0  0  0  0  0  0  0  0  0  0  0  0
   59.9892   25.7746   45.6079 H   0  0  0  0  0  0  0  0  0  0  0  0
   55.2657   27.4441   46.0703 H   0  0  0  0  0  0  0  0  0  0  0  0
   56.7858   23.5383   48.3829 H   0  0  0  0  0  0  0  0  0  0  0  0
   56.3819   22.8232   46.8206 H   0  0  0  0  0  0  0  0  0  0  0  0
  1  2  2  0
  2  3  2  0
  2  4  1  0
  4  5  1  0
  5  6  2  0
  6  7  1  0
  7  8  2  0
  8  9  1  0
  9 10  1  0
 10 11  1  0
 11 12  1  0
 12 13  1  0
 13 14  1  0
  8 15  1  0
 15 16  2  0
 16 17  1  0
 17 18  2  0
 18 19  1  0
 19 20  2  0
  2 21  1  0
 21 22  2  0
 22 23  1  0
 23 24  2  0
 24 25  1  0
 25 26  2  0
 25 27  1  0
 27 28  1  0
 28 29  1  0
 20  5  1  0
 26 21  1  0
 14  9  1  0
 20 15  1  0
 29 24  1  0
  6 30  1  0
  7 31  1  0
 10 32  1  0
 10 33  1  0
 11 34  1  0
 11 35  1  0
 12 36  1  0
 12 37  1  0
 13 38  1  0
 13 39  1  0
 14 40  1  0
 14 41  1  0
 16 42  1  0
 17 43  1  0
 18 44  1  0
 19 45  1  0
 22 46  1  0
 23 47  1  0
 26 48  1  0
 28 49  1  0
 28 50  1  0
M  CHG  2   4  -1  12   1
M  END
>  <UniqueID>  (43) 
41

>  <SMILES>  (43) 
O=S(=O)([N-]c1ccc(N2CC[NH2+]CC2)c2ccccc12)c1ccc2c(c1)OCO2

>  <Energy>  (43) 
103.9136283875104

>  <Genealogy>  (43) 
O=S(=O)([N-]c1ccc(N2CC[NH2+]CC2)c2ccccc12)c1ccc2c(c1)OCO2 (protonated)
O=S(=O)([N-]c1ccc(N2CC[NH2+]CC2)c2ccccc12)c1ccc2c(c1)OCO2 (3D coordinates assigned)
O=S(=O)([N-]c1ccc(N2CC[NH2+]CC2)c2ccccc12)c1ccc2c(c1)OCO2 (nonaromatic ring conformer: 103.9136283875104 kcal/mol)

>  <smiles>  (43) 
O=S(=O)(Nc1ccc(N2CCNCC2)c2ccccc12)c1ccc2c(c1)OCO2

>  <score_type>  (43) 
oracle

>  <origin>  (43) 
adg

>  <m_score__min__energy>  (43) 
-9.25

>  <m_primary>  (43) 
energy

$$$$
43:0
     RDKit          3D

 49 52  0  0  1  0  0  0  0  0999 V2000
   63.9800   33.1200   48.4140 C   0  0  0  0  0  0  0  0  0  0  0  0
   62.6450   34.1220   49.1350 S   0  0  0  0  0  0  0  0  0  0  0  0
   61.2240   33.9290   48.0710 C   0  0  0  0  0  0  0  0  0  0  0  0
   59.9800   33.8350   48.6630 C   0  0  0  0  0  0  0  0  0  0  0  0
   58.8740   33.6850   47.8500 C   0  0  0  0  0  0  0  0  0  0  0  0
   58.9520   33.6260   46.4730 C   0  0  0  0  0  0  0  0  0  0  0  0
   57.7150   33.4620   45.6240 C   0  0  0  0  0  0  0  0  0  0  0  0
   58.1480   32.6200   44.5260 N   0  0  0  0  0  0  0  0  0  0  0  0
   57.6890   31.4320   44.4510 C   0  0  0  0  0  0  0  0  0  0  0  0
   56.7080   31.2080   43.5450 N   0  0  0  0  0  0  0  0  0  0  0  0
   56.1720   29.9780   43.4060 C   0  0  0  0  0  0  0  0  0  0  0  0
   56.6200   28.9760   44.1750 N   0  0  0  0  0  0  0  0  0  0  0  0
   57.5880   29.1230   45.0940 C   0  0  0  0  0  0  0  0  0  0  0  0
   58.1320   30.3830   45.2320 C   0  0  0  0  0  0  0  0  0  0  0  0
   59.0760   30.3280   46.1910 N   0  0  0  0  0  0  0  0  0  0  0  0
   59.1070   29.0510   46.6340 C   0  0  0  0  0  0  0  0  0  0  0  0
   58.1990   28.3070   45.9670 N   0  0  0  0  0  0  0  0  0  0  0  0
   57.8780   26.9060   46.0970 C   0  0  1  0  0  0  0  0  0  0  0  0
   56.5250   26.6790   46.2530 O   0  0  0  0  0  0  0  0  0  0  0  0
   56.4720   25.2790   46.1710 C   0  0  1  0  0  0  0  0  0  0  0  0
   55.0370   24.8210   45.9530 C   0  0  0  0  0  0  0  0  0  0  0  0
   54.2010   25.9480   45.9650 O   0  0  0  0  0  0  0  0  0  0  0  0
   57.3000   24.9180   44.9750 C   0  0  2  0  0  0  0  0  0  0  0  0
   57.9730   23.7060   45.1350 O   0  0  0  0  0  0  0  0  0  0  0  0
   58.2460   26.0960   44.8730 C   0  0  1  0  0  0  0  0  0  0  0  0
   58.0970   26.8150   43.6930 O   0  0  0  0  0  0  0  0  0  0  0  0
   60.2060   33.7230   45.8890 C   0  0  0  0  0  0  0  0  0  0  0  0
   61.3200   33.8720   46.6960 C   0  0  0  0  0  0  0  0  0  0  0  0
   64.5781   32.6711   49.2207 H   0  0  0  0  0  0  0  0  0  0  0  0
   63.5456   32.3230   47.7926 H   0  0  0  0  0  0  0  0  0  0  0  0
   64.6239   33.7597   47.7926 H   0  0  0  0  0  0  0  0  0  0  0  0
   59.8726   33.8786   49.7569 H   0  0  0  0  0  0  0  0  0  0  0  0
   57.8834   33.6089   48.3222 H   0  0  0  0  0  0  0  0  0  0  0  0
   56.9109   32.9754   46.1956 H   0  0  0  0  0  0  0  0  0  0  0  0
   57.3073   34.4247   45.2821 H   0  0  0  0  0  0  0  0  0  0  0  0
   56.3380   31.9560   42.9340 H   0  0  0  0  0  0  0  0  0  0  0  0
   55.3753   29.7992   42.6689 H   0  0  0  0  0  0  0  0  0  0  0  0
   59.7745   28.6734   47.4226 H   0  0  0  0  0  0  0  0  0  0  0  0
   58.4566   26.6010   46.9814 H   0  0  0  0  0  0  0  0  0  0  0  0
   56.8399   24.8034   47.0921 H   0  0  0  0  0  0  0  0  0  0  0  0
   54.9547   24.3088   44.9830 H   0  0  0  0  0  0  0  0  0  0  0  0
   54.7397   24.1238   46.7502 H   0  0  0  0  0  0  0  0  0  0  0  0
   54.3900   26.5470   46.7410 H   0  0  0  0  0  0  0  0  0  0  0  0
   56.7032   24.7562   44.0653 H   0  0  0  0  0  0  0  0  0  0  0  0
   58.6690   23.6860   44.4280 H   0  0  0  0  0  0  0  0  0  0  0  0
   59.3044   25.7978   44.8435 H   0  0  0  0  0  0  0  0  0  0  0  0
   57.1600   27.0310   43.4920 H   0  0  0  0  0  0  0  0  0  0  0  0
   60.3140   33.6819   44.7951 H   0  0  0  0  0  0  0  0  0  0  0  0
   62.3122   33.9473   46.2270 H   0  0  0  0  0  0  0  0  0  0  0  0
  1  2  1  0
  2  3  1  0
  3  4  2  0
  4  5  1  0
  5  6  2  0
  6  7  1  0
  7  8  1  0
  8  9  2  0
  9 10  1  0
 10 11  1  0
 11 12  2  0
 12 13  1  0
 13 14  2  0
 14 15  1  0
 15 16  2  0
 16 17  1  0
 17 18  1  0
 18 19  1  0
 19 20  1  0
 20 21  1  0
 21 22  1  0
 20 23  1  0
 23 24  1  0
 23 25  1  0
 25 26  1  0
  6 27  1  0
 27 28  2  0
 28  3  1  0
 14  9  1  0
 25 18  1  0
 17 13  1  0
  1 29  1  0
  1 30  1  0
  1 31  1  0
  4 32  1  0
  5 33  1  0
  7 34  1  0
  7 35  1  0
 10 36  1  0
 11 37  1  0
 16 38  1  0
 18 39  1  1
 20 40  1  1
 21 41  1  0
 21 42  1  0
 22 43  1  0
 23 44  1  6
 24 45  1  0
 25 46  1  1
 26 47  1  0
 27 48  1  0
 28 49  1  0
M  END
>  <smiles>  (44) 
CSc1ccc(CN=c2[nH]cnc3c2ncn3C2OC(CO)C(O)C2O)cc1

>  <score_type>  (44) 
oracle

>  <origin>  (44) 
adg

>  <m_score__min__energy>  (44) 
-8.8499999999999996

>  <m_primary>  (44) 
energy

$$$$
44:0
     RDKit          3D

 47 50  0  0  1  0  0  0  0  0999 V2000
   59.2840   33.0740   50.5640 C   0  0  0  0  0  0  0  0  0  0  0  0
   59.6250   34.1750   49.7410 O   0  0  0  0  0  0  0  0  0  0  0  0
   60.5400   34.0580   48.7060 C   0  0  0  0  0  0  0  0  0  0  0  0
   61.8930   33.8880   48.9100 C   0  0  0  0  0  0  0  0  0  0  0  0
   62.7880   33.7730   47.8460 C   0  0  0  0  0  0  0  0  0  0  0  0
   62.3450   33.8240   46.5370 C   0  0  0  0  0  0  0  0  0  0  0  0
   60.9900   33.9940   46.3380 C   0  0  0  0  0  0  0  0  0  0  0  0
   60.0950   34.1090   47.4080 C   0  0  0  0  0  0  0  0  0  0  0  0
   58.7290   34.2800   47.0470 N   0  0  0  0  0  0  0  0  0  0  0  0
   58.2510   33.4780   46.1560 C   0  0  0  0  0  0  0  0  0  0  0  0
   57.8440   32.1880   46.3110 N   0  0  0  0  0  0  0  0  0  0  0  0
   57.4100   31.7240   45.1040 C   0  0  0  0  0  0  0  0  0  0  0  0
   56.9090   30.4070   44.9560 N   0  0  0  0  0  0  0  0  0  0  0  0
   57.5610   29.3840   44.5850 C   0  0  0  0  0  0  0  0  0  0  0  0
   57.2330   28.5920   43.5330 N   0  0  0  0  0  0  0  0  0  0  0  0
   58.1490   27.6120   43.4450 C   0  0  0  0  0  0  0  0  0  0  0  0
   59.0350   27.8420   44.4750 C   0  0  0  0  0  0  0  0  0  0  0  0
   58.6680   28.9340   45.1740 N   0  0  0  0  0  0  0  0  0  0  0  0
   59.4010   29.4070   46.2910 C   0  0  0  0  0  0  0  0  0  0  0  0
   60.3980   30.3510   46.2230 C   0  0  0  0  0  0  0  0  0  0  0  0
   61.0830   30.8030   47.3380 C   0  0  0  0  0  0  0  0  0  0  0  0
   60.7300   30.2650   48.5580 C   0  0  0  0  0  0  0  0  0  0  0  0
   59.7360   29.3200   48.6460 C   0  0  0  0  0  0  0  0  0  0  0  0
   59.0400   28.8570   47.5300 C   0  0  0  0  0  0  0  0  0  0  0  0
   58.0380   27.9020   47.6380 O   0  0  0  0  0  0  0  0  0  0  0  0
   58.3260   26.5390   47.4160 C   0  0  0  0  0  0  0  0  0  0  0  0
   57.5520   32.7200   44.2200 N   0  0  0  0  0  0  0  0  0  0  0  0
   58.0580   33.7800   44.8460 N   0  0  0  0  0  0  0  0  0  0  0  0
   59.3740   33.3646   51.6211 H   0  0  0  0  0  0  0  0  0  0  0  0
   58.2486   32.7668   50.3551 H   0  0  0  0  0  0  0  0  0  0  0  0
   59.9645   32.2354   50.3551 H   0  0  0  0  0  0  0  0  0  0  0  0
   62.2772   33.8418   49.9397 H   0  0  0  0  0  0  0  0  0  0  0  0
   63.8605   33.6400   48.0511 H   0  0  0  0  0  0  0  0  0  0  0  0
   63.0423   33.7330   45.6912 H   0  0  0  0  0  0  0  0  0  0  0  0
   60.6024   34.0404   45.3096 H   0  0  0  0  0  0  0  0  0  0  0  0
   56.4320   28.6700   42.8740 H   0  0  0  0  0  0  0  0  0  0  0  0
   58.1839   26.7978   42.7062 H   0  0  0  0  0  0  0  0  0  0  0  0
   59.9167   27.2222   44.6953 H   0  0  0  0  0  0  0  0  0  0  0  0
   60.6632   30.7656   45.2392 H   0  0  0  0  0  0  0  0  0  0  0  0
   61.8764   31.5603   47.2544 H   0  0  0  0  0  0  0  0  0  0  0  0
   61.2492   30.5956   49.4696 H   0  0  0  0  0  0  0  0  0  0  0  0
   59.4795   28.9131   49.6353 H   0  0  0  0  0  0  0  0  0  0  0  0
   58.4346   26.0250   48.3825 H   0  0  0  0  0  0  0  0  0  0  0  0
   57.5052   26.0789   46.8462 H   0  0  0  0  0  0  0  0  0  0  0  0
   59.2627   26.4502   46.8462 H   0  0  0  0  0  0  0  0  0  0  0  0
   57.2880   32.6130   43.2130 H   0  0  0  0  0  0  0  0  0  0  0  0
   58.2640   34.6950   44.3670 H   0  0  0  0  0  0  0  0  0  0  0  0
  1  2  1  0
  2  3  1  0
  3  4  2  0
  4  5  1  0
  5  6  2  0
  6  7  1  0
  7  8  2  0
  8  9  1  0
  9 10  2  0
 10 11  1  0
 11 12  2  0
 12 13  1  0
 13 14  2  0
 14 15  1  0
 15 16  1  0
 16 17  2  0
 17 18  1  0
 18 19  1  0
 19 20  2  0
 20 21  1  0
 21 22  2  0
 22 23  1  0
 23 24  2  0
 24 25  1  0
 25 26  1  0
 12 27  1  0
 27 28  1  0
  8  3  1  0
 28 10  1  0
 18 14  1  0
 24 19  1  0
  1 29  1  0
  1 30  1  0
  1 31  1  0
  4 32  1  0
  5 33  1  0
  6 34  1  0
  7 35  1  0
 15 36  1  0
 16 37  1  0
 17 38  1  0
 20 39  1  0
 21 40  1  0
 22 41  1  0
 23 42  1  0
 26 43  1  0
 26 44  1  0
 26 45  1  0
 27 46  1  0
 28 47  1  0
M  END
>  <smiles>  (45) 
COc1ccccc1N=c1nc(N=c2[nH]ccn2-c2ccccc2OC)[nH][nH]1

>  <score_type>  (45) 
oracle

>  <origin>  (45) 
adg

>  <m_score__min__energy>  (45) 
-7.6200000000000001

>  <m_primary>  (45) 
energy

$$$$
45:0
     RDKit          3D

 49 51  0  0  0  0  0  0  0  0999 V2000
   57.3130   19.6520   46.0210 C   0  0  0  0  0  0  0  0  0  0  0  0
   57.8240   20.7520   46.7660 O   0  0  0  0  0  0  0  0  0  0  0  0
   57.3460   22.0690   46.6700 C   0  0  0  0  0  0  0  0  0  0  0  0
   56.1120   22.4580   47.2240 C   0  0  0  0  0  0  0  0  0  0  0  0
   55.6620   23.7720   47.0960 C   0  0  0  0  0  0  0  0  0  0  0  0
   56.4360   24.7280   46.4200 C   0  0  0  0  0  0  0  0  0  0  0  0
   55.9170   26.1010   46.2070 C   0  0  0  0  0  0  0  0  0  0  0  0
   54.8000   26.2770   45.6470 O   0  0  0  0  0  0  0  0  0  0  0  0
   56.6600   27.2330   46.6750 N   0  0  0  0  0  0  0  0  0  0  0  0
   57.8060   27.7710   46.0020 C   0  0  0  0  0  0  0  0  0  0  0  0
   59.0560   27.1970   46.2640 C   0  0  0  0  0  0  0  0  0  0  0  0
   60.1940   27.6370   45.5880 C   0  0  0  0  0  0  0  0  0  0  0  0
   60.0960   28.6610   44.6470 C   0  0  0  0  0  0  0  0  0  0  0  0
   58.8630   29.2690   44.3980 C   0  0  0  0  0  0  0  0  0  0  0  0
   57.7080   28.8540   45.0860 C   0  0  0  0  0  0  0  0  0  0  0  0
   56.4420   29.5940   44.8710 C   0  0  0  0  0  0  0  0  0  0  0  0
   55.3440   28.9730   44.8710 O   0  0  0  0  0  0  0  0  0  0  0  0
   56.4740   30.9980   44.5840 N   0  0  0  0  0  0  0  0  0  0  0  0
   57.4890   31.9360   44.9740 C   0  0  0  0  0  0  0  0  0  0  0  0
   58.0170   32.8830   44.0790 C   0  0  0  0  0  0  0  0  0  0  0  0
   58.9340   33.8360   44.5270 C   0  0  0  0  0  0  0  0  0  0  0  0
   59.3080   33.8760   45.8720 C   0  0  0  0  0  0  0  0  0  0  0  0
   58.7550   32.9680   46.7890 C   0  0  0  0  0  0  0  0  0  0  0  0
   59.1680   33.0030   48.2390 C   0  0  0  0  0  0  0  0  0  0  0  0
   60.3370   32.2880   48.4290 F   0  0  0  0  0  0  0  0  0  0  0  0
   58.1660   32.4440   49.0100 F   0  0  0  0  0  0  0  0  0  0  0  0
   59.3850   34.3050   48.6550 F   0  0  0  0  0  0  0  0  0  0  0  0
   57.8660   31.9830   46.3220 C   0  0  0  0  0  0  0  0  0  0  0  0
   57.6770   24.3440   45.8820 C   0  0  0  0  0  0  0  0  0  0  0  0
   58.1310   23.0160   45.9960 C   0  0  0  0  0  0  0  0  0  0  0  0
   59.3520   22.5950   45.4450 O   0  0  0  0  0  0  0  0  0  0  0  0
   59.4800   21.8620   44.2320 C   0  0  0  0  0  0  0  0  0  0  0  0
   56.9527   18.8764   46.7128 H   0  0  0  0  0  0  0  0  0  0  0  0
   56.4812   19.9932   45.3872 H   0  0  0  0  0  0  0  0  0  0  0  0
   58.1103   19.2364   45.3872 H   0  0  0  0  0  0  0  0  0  0  0  0
   55.4981   21.7205   47.7618 H   0  0  0  0  0  0  0  0  0  0  0  0
   54.6928   24.0613   47.5283 H   0  0  0  0  0  0  0  0  0  0  0  0
   59.1413   26.3923   47.0092 H   0  0  0  0  0  0  0  0  0  0  0  0
   61.1702   27.1754   45.7977 H   0  0  0  0  0  0  0  0  0  0  0  0
   60.9912   28.9909   44.0995 H   0  0  0  0  0  0  0  0  0  0  0  0
   58.7946   30.0794   43.6574 H   0  0  0  0  0  0  0  0  0  0  0  0
   57.7071   32.8732   43.0236 H   0  0  0  0  0  0  0  0  0  0  0  0
   59.3637   34.5584   43.8174 H   0  0  0  0  0  0  0  0  0  0  0  0
   60.0395   34.6227   46.2146 H   0  0  0  0  0  0  0  0  0  0  0  0
   57.4615   31.2398   47.0249 H   0  0  0  0  0  0  0  0  0  0  0  0
   58.3002   25.0894   45.3663 H   0  0  0  0  0  0  0  0  0  0  0  0
   59.6650   20.8023   44.4617 H   0  0  0  0  0  0  0  0  0  0  0  0
   58.5522   21.9541   43.6483 H   0  0  0  0  0  0  0  0  0  0  0  0
   60.3217   22.2630   43.6483 H   0  0  0  0  0  0  0  0  0  0  0  0
  1  2  1  0
  2  3  1  0
  3  4  2  0
  4  5  1  0
  5  6  2  0
  6  7  1  0
  7  8  2  0
  7  9  1  0
  9 10  1  0
 10 11  2  0
 11 12  1  0
 12 13  2  0
 13 14  1  0
 14 15  2  0
 15 16  1  0
 16 17  2  0
 16 18  1  0
 18 19  1  0
 19 20  2  0
 20 21  1  0
 21 22  2  0
 22 23  1  0
 23 24  1  0
 24 25  1  0
 24 26  1  0
 24 27  1  0
 23 28  2  0
  6 29  1  0
 29 30  2  0
 30 31  1  0
 31 32  1  0
 30  3  1  0
 15 10  1  0
 28 19  1  0
  1 33  1  0
  1 34  1  0
  1 35  1  0
  4 36  1  0
  5 37  1  0
 11 38  1  0
 12 39  1  0
 13 40  1  0
 14 41  1  0
 20 42  1  0
 21 43  1  0
 22 44  1  0
 28 45  1  0
 29 46  1  0
 32 47  1  0
 32 48  1  0
 32 49  1  0
M  CHG  2   9  -1  18  -1
M  END
>  <UniqueID>  (46) 
42

>  <SMILES>  (46) 
COc1ccc(C(=O)[N-]c2ccccc2C(=O)[N-]c2cccc(C(F)(F)F)c2)cc1OC

>  <Energy>  (46) 
59.817988505561935

>  <Genealogy>  (46) 
COc1ccc(C(=O)[N-]c2ccccc2C(=O)[N-]c2cccc(C(F)(F)F)c2)cc1OC (protonated)
COc1ccc(C(=O)[N-]c2ccccc2C(=O)[N-]c2cccc(C(F)(F)F)c2)cc1OC (3D coordinates assigned)
COc1ccc(C(=O)[N-]c2ccccc2C(=O)[N-]c2cccc(C(F)(F)F)c2)cc1OC (optimized conformer: 59.817988505561935 kcal/mol)

>  <smiles>  (46) 
COc1ccc(C(=O)Nc2ccccc2C(=O)Nc2cccc(C(F)(F)F)c2)cc1OC

>  <score_type>  (46) 
oracle

>  <origin>  (46) 
adg

>  <m_score__min__energy>  (46) 
-11.68

>  <m_primary>  (46) 
energy

$$$$
46:0
     RDKit          3D

 44 46  0  0  0  0  0  0  0  0999 V2000
   59.7611   35.5256   47.0752 H   0  0  0  0  0  0  0  0  0  0  0  0
   59.1690   34.7220   46.6130 C   0  0  0  0  0  0  0  0  0  0  0  0
   59.0200   34.6730   45.2240 C   0  0  0  0  0  0  0  0  0  0  0  0
   59.5030   35.4334   44.5927 H   0  0  0  0  0  0  0  0  0  0  0  0
   58.2580   33.6590   44.6360 C   0  0  0  0  0  0  0  0  0  0  0  0
   58.1568   33.6137   43.5416 H   0  0  0  0  0  0  0  0  0  0  0  0
   57.6200   32.6960   45.4400 C   0  0  0  0  0  0  0  0  0  0  0  0
   56.8640   31.6180   44.8700 N   0  0  0  0  0  0  0  0  0  0  0  0
   57.2730   30.3970   44.6850 C   0  0  0  0  0  0  0  0  0  0  0  0
   58.5200   30.1190   44.2520 N   0  0  0  0  0  0  0  0  0  0  0  0
   58.7760   28.8140   44.1930 N   0  0  0  0  0  0  0  0  0  0  0  0
   57.7340   28.0480   44.5850 C   0  0  0  0  0  0  0  0  0  0  0  0
   57.8030   26.2580   44.6650 S   0  0  0  0  0  0  0  0  0  0  0  0
   59.2940   26.1780   45.7230 C   0  0  0  0  0  0  0  0  0  0  0  0
   60.1664   26.5001   45.1355 H   0  0  0  0  0  0  0  0  0  0  0  0
   59.4152   25.1410   46.0694 H   0  0  0  0  0  0  0  0  0  0  0  0
   59.1640   27.0630   46.9270 C   0  0  0  0  0  0  0  0  0  0  0  0
   59.0490   26.5390   48.0670 O   0  0  0  0  0  0  0  0  0  0  0  0
   59.2630   28.4890   46.7770 N   0  0  0  0  0  0  0  0  0  0  0  0
   59.4450   28.8610   45.8170 H   0  0  0  0  0  0  0  0  0  0  0  0
   59.3940   29.4080   47.8730 C   0  0  0  0  0  0  0  0  0  0  0  0
   60.3930   30.3910   47.8920 C   0  0  0  0  0  0  0  0  0  0  0  0
   61.0928   30.4768   47.0476 H   0  0  0  0  0  0  0  0  0  0  0  0
   60.5040   31.2620   48.9780 C   0  0  0  0  0  0  0  0  0  0  0  0
   61.2857   32.0359   48.9794 H   0  0  0  0  0  0  0  0  0  0  0  0
   59.6230   31.1570   50.0710 C   0  0  0  0  0  0  0  0  0  0  0  0
   59.7000   32.0190   51.1770 O   0  0  0  0  0  0  0  0  0  0  0  0
   59.6280   33.4390   51.0980 C   0  0  0  0  0  0  0  0  0  0  0  0
   59.6065   33.8621   52.1132 H   0  0  0  0  0  0  0  0  0  0  0  0
   60.5079   33.8214   50.5599 H   0  0  0  0  0  0  0  0  0  0  0  0
   58.7139   33.7304   50.5599 H   0  0  0  0  0  0  0  0  0  0  0  0
   58.6350   30.1610   50.0700 C   0  0  0  0  0  0  0  0  0  0  0  0
   57.7700   30.0740   51.1730 O   0  0  0  0  0  0  0  0  0  0  0  0
   56.9640   31.1460   51.6520 C   0  0  0  0  0  0  0  0  0  0  0  0
   56.9661   31.1432   52.7520 H   0  0  0  0  0  0  0  0  0  0  0  0
   57.3696   32.1011   51.2870 H   0  0  0  0  0  0  0  0  0  0  0  0
   55.9338   31.0217   51.2870 H   0  0  0  0  0  0  0  0  0  0  0  0
   58.5340   29.2830   48.9730 C   0  0  0  0  0  0  0  0  0  0  0  0
   57.7715   28.4902   48.9796 H   0  0  0  0  0  0  0  0  0  0  0  0
   56.4100   28.9840   45.0380 S   0  0  0  0  0  0  0  0  0  0  0  0
   57.8030   32.7330   46.8290 C   0  0  0  0  0  0  0  0  0  0  0  0
   57.3449   31.9589   47.4621 H   0  0  0  0  0  0  0  0  0  0  0  0
   58.5650   33.7490   47.4140 C   0  0  0  0  0  0  0  0  0  0  0  0
   58.6893   33.7825   48.5064 H   0  0  0  0  0  0  0  0  0  0  0  0
  1  2  1  0
  2  3  2  0
  3  4  1  0
  3  5  1  0
  5  6  1  0
  5  7  2  0
  7  8  1  0
  8  9  2  0
  9 10  1  0
 10 11  1  0
 11 12  2  0
 12 13  1  0
 13 14  1  0
 14 15  1  0
 14 16  1  0
 14 17  1  0
 17 18  2  0
 17 19  1  0
 19 20  1  0
 19 21  1  0
 21 22  2  0
 22 23  1  0
 22 24  1  0
 24 25  1  0
 24 26  2  0
 26 27  1  0
 27 28  1  0
 28 29  1  0
 28 30  1  0
 28 31  1  0
 26 32  1  0
 32 33  1  0
 33 34  1  0
 34 35  1  0
 34 36  1  0
 34 37  1  0
 32 38  2  0
 38 39  1  0
 12 40  1  0
  7 41  1  0
 41 42  1  0
 41 43  2  0
 43 44  1  0
 43  2  1  0
 40  9  1  0
 38 21  1  0
M  CHG  1  10  -1
M  END
>  <UniqueID>  (47) 
43

>  <SMILES>  (47) 
COc1ccc(NC(=O)CSc2n[n-]/c(=N/c3ccccc3)s2)cc1OC

>  <Energy>  (47) 
83.69771689285038

>  <Genealogy>  (47) 
COc1ccc(NC(=O)CSc2n[n-]c(=Nc3ccccc3)s2)cc1OC (protonated)
COc1ccc(NC(=O)CSc2n[n-]/c(=N/c3ccccc3)s2)cc1OC (cis-trans isomerization)
COc1ccc(NC(=O)CSc2n[n-]/c(=N/c3ccccc3)s2)cc1OC (3D coordinates assigned)
COc1ccc(NC(=O)CSc2n[n-]/c(=N/c3ccccc3)s2)cc1OC (optimized conformer: 83.69771689285038 kcal/mol)

>  <smiles>  (47) 
COc1ccc(NC(=O)CSc2n[nH]c(=Nc3ccccc3)s2)cc1OC

>  <score_type>  (47) 
oracle

>  <origin>  (47) 
adg

>  <m_score__min__energy>  (47) 
-8.5800000000000001

>  <m_primary>  (47) 
energy

$$$$
47:0
     RDKit          3D

 51 52  0  0  0  0  0  0  0  0999 V2000
   62.1830   30.7070   50.0950 C   0  0  0  0  0  0  0  0  0  0  0  0
   63.5830   31.0780   50.5680 C   0  0  0  0  0  0  0  0  0  0  0  0
   64.0090   32.7410   50.0760 S   0  0  0  0  0  0  0  0  0  0  0  0
   65.2700   32.7140   49.2590 O   0  0  0  0  0  0  0  0  0  0  0  0
   64.2470   33.5800   51.3000 O   0  0  0  0  0  0  0  0  0  0  0  0
   62.7070   33.4310   49.1100 C   0  0  0  0  0  0  0  0  0  0  0  0
   62.8010   33.4730   47.7120 C   0  0  0  0  0  0  0  0  0  0  0  0
   61.7750   34.0460   46.9540 C   0  0  0  0  0  0  0  0  0  0  0  0
   60.6420   34.5830   47.5880 C   0  0  0  0  0  0  0  0  0  0  0  0
   59.5610   35.2460   46.7800 C   0  0  0  0  0  0  0  0  0  0  0  0
   58.6660   34.2080   46.1750 C   0  0  0  0  0  0  0  0  0  0  0  0
   57.4250   34.2590   46.3920 O   0  0  0  0  0  0  0  0  0  0  0  0
   59.2110   33.2120   45.2970 N   0  0  0  0  0  0  0  0  0  0  0  0
   58.3950   32.2170   44.6630 C   0  0  0  0  0  0  0  0  0  0  0  0
   58.1910   32.3030   43.2810 C   0  0  0  0  0  0  0  0  0  0  0  0
   57.3890   31.3740   42.6210 C   0  0  0  0  0  0  0  0  0  0  0  0
   56.7720   30.3380   43.3350 C   0  0  0  0  0  0  0  0  0  0  0  0
   55.8700   29.3710   42.6180 C   0  0  0  0  0  0  0  0  0  0  0  0
   56.9650   30.2390   44.7280 C   0  0  0  0  0  0  0  0  0  0  0  0
   56.3000   29.2000   45.4540 N   0  0  0  0  0  0  0  0  0  0  0  0
   57.0410   27.6560   45.7130 S   0  0  0  0  0  0  0  0  0  0  0  0
   57.9440   27.1770   44.2580 C   0  0  0  0  0  0  0  0  0  0  0  0
   55.9770   26.6370   46.0080 O   0  0  0  0  0  0  0  0  0  0  0  0
   57.9890   27.7290   46.8780 O   0  0  0  0  0  0  0  0  0  0  0  0
   57.8240   31.1470   45.3920 C   0  0  0  0  0  0  0  0  0  0  0  0
   58.1420   30.9520   46.8540 C   0  0  0  0  0  0  0  0  0  0  0  0
   60.5590   34.5530   48.9910 C   0  0  0  0  0  0  0  0  0  0  0  0
   61.5840   33.9750   49.7460 C   0  0  0  0  0  0  0  0  0  0  0  0
   61.5349   30.5352   50.9670 H   0  0  0  0  0  0  0  0  0  0  0  0
   61.7716   31.5271   49.4882 H   0  0  0  0  0  0  0  0  0  0  0  0
   62.2318   29.7908   49.4882 H   0  0  0  0  0  0  0  0  0  0  0  0
   63.6221   31.0069   51.6650 H   0  0  0  0  0  0  0  0  0  0  0  0
   64.3020   30.3832   50.1094 H   0  0  0  0  0  0  0  0  0  0  0  0
   63.6851   33.0537   47.2094 H   0  0  0  0  0  0  0  0  0  0  0  0
   61.8553   34.0764   45.8574 H   0  0  0  0  0  0  0  0  0  0  0  0
   58.9680   35.9025   47.4337 H   0  0  0  0  0  0  0  0  0  0  0  0
   60.0221   35.8389   45.9764 H   0  0  0  0  0  0  0  0  0  0  0  0
   60.1860   33.3440   44.9450 H   0  0  0  0  0  0  0  0  0  0  0  0
   58.6688   33.1125   42.7098 H   0  0  0  0  0  0  0  0  0  0  0  0
   57.2395   31.4543   41.5342 H   0  0  0  0  0  0  0  0  0  0  0  0
   55.3130   28.7738   43.3549 H   0  0  0  0  0  0  0  0  0  0  0  0
   55.1619   29.9287   41.9874 H   0  0  0  0  0  0  0  0  0  0  0  0
   56.4755   28.7034   41.9874 H   0  0  0  0  0  0  0  0  0  0  0  0
   58.8799   26.6806   44.5541 H   0  0  0  0  0  0  0  0  0  0  0  0
   57.3345   26.4836   43.6599 H   0  0  0  0  0  0  0  0  0  0  0  0
   58.1762   28.0705   43.6599 H   0  0  0  0  0  0  0  0  0  0  0  0
   57.3626   31.4299   47.4657 H   0  0  0  0  0  0  0  0  0  0  0  0
   58.1781   29.8763   47.0811 H   0  0  0  0  0  0  0  0  0  0  0  0
   59.1171   31.4076   47.0811 H   0  0  0  0  0  0  0  0  0  0  0  0
   59.6837   34.9862   49.4971 H   0  0  0  0  0  0  0  0  0  0  0  0
   61.5082   33.9474   50.8430 H   0  0  0  0  0  0  0  0  0  0  0  0
  1  2  1  0
  2  3  1  0
  3  4  2  0
  3  5  2  0
  3  6  1  0
  6  7  2  0
  7  8  1  0
  8  9  2  0
  9 10  1  0
 10 11  1  0
 11 12  2  0
 11 13  1  0
 13 14  1  0
 14 15  2  0
 15 16  1  0
 16 17  2  0
 17 18  1  0
 17 19  1  0
 19 20  1  0
 20 21  1  0
 21 22  1  0
 21 23  2  0
 21 24  2  0
 19 25  2  0
 25 26  1  0
  9 27  1  0
 27 28  2  0
 28  6  1  0
 25 14  1  0
  1 29  1  0
  1 30  1  0
  1 31  1  0
  2 32  1  0
  2 33  1  0
  7 34  1  0
  8 35  1  0
 10 36  1  0
 10 37  1  0
 13 38  1  0
 15 39  1  0
 16 40  1  0
 18 41  1  0
 18 42  1  0
 18 43  1  0
 22 44  1  0
 22 45  1  0
 22 46  1  0
 26 47  1  0
 26 48  1  0
 26 49  1  0
 27 50  1  0
 28 51  1  0
M  CHG  1  20  -1
M  END
>  <UniqueID>  (48) 
44

>  <SMILES>  (48) 
CCS(=O)(=O)c1ccc(CC(=O)Nc2ccc(C)c([N-]S(C)(=O)=O)c2C)cc1

>  <Energy>  (48) 
54.04647018824988

>  <Genealogy>  (48) 
CCS(=O)(=O)c1ccc(CC(=O)Nc2ccc(C)c([N-]S(C)(=O)=O)c2C)cc1 (protonated)
CCS(=O)(=O)c1ccc(CC(=O)Nc2ccc(C)c([N-]S(C)(=O)=O)c2C)cc1 (3D coordinates assigned)
CCS(=O)(=O)c1ccc(CC(=O)Nc2ccc(C)c([N-]S(C)(=O)=O)c2C)cc1 (optimized conformer: 54.04647018824988 kcal/mol)

>  <smiles>  (48) 
CCS(=O)(=O)c1ccc(CC(=O)Nc2ccc(C)c(NS(C)(=O)=O)c2C)cc1

>  <score_type>  (48) 
oracle

>  <origin>  (48) 
adg

>  <m_score__min__energy>  (48) 
-10.44

>  <m_primary>  (48) 
energy

$$$$
48:0
     RDKit          3D

 54 57  0  0  0  0  0  0  0  0999 V2000
   58.7520   29.4190   44.1250 C   0  0  0  0  0  0  0  0  0  0  0  0
   57.4890   30.2970   44.2150 C   0  0  0  0  0  0  0  0  0  0  0  0
   57.5210   31.3410   43.0760 C   0  0  0  0  0  0  0  0  0  0  0  0
   57.4670   31.0310   45.5720 C   0  0  0  0  0  0  0  0  0  0  0  0
   56.2570   29.4190   44.1230 C   0  0  0  0  0  0  0  0  0  0  0  0
   55.5630   29.3900   43.0690 O   0  0  0  0  0  0  0  0  0  0  0  0
   55.8970   28.5980   45.2430 N   0  0  0  0  0  0  0  0  0  0  0  0
   56.7140   27.5960   45.8620 C   0  0  0  0  0  0  0  0  0  0  0  0
   56.3740   26.2330   45.8270 C   0  0  0  0  0  0  0  0  0  0  0  0
   57.1620   25.2960   46.4960 C   0  0  0  0  0  0  0  0  0  0  0  0
   58.2850   25.7090   47.2150 C   0  0  0  0  0  0  0  0  0  0  0  0
   58.6320   27.0680   47.2730 C   0  0  0  0  0  0  0  0  0  0  0  0
   59.7990   27.4940   48.0070 N   0  0  0  0  0  0  0  0  0  0  0  0
   59.7240   28.9090   48.2680 C   0  0  0  0  0  0  0  0  0  0  0  0
   60.1410   29.8360   47.2790 C   0  0  0  0  0  0  0  0  0  0  0  0
   60.0880   31.2160   47.5190 C   0  0  0  0  0  0  0  0  0  0  0  0
   59.5990   31.6550   48.7510 C   0  0  0  0  0  0  0  0  0  0  0  0
   59.1940   30.7590   49.7290 C   0  0  0  0  0  0  0  0  0  0  0  0
   59.2520   29.3820   49.5130 C   0  0  0  0  0  0  0  0  0  0  0  0
   58.7870   31.3240   50.8230 N   0  0  0  0  0  0  0  0  0  0  0  0
   58.9340   32.7120   50.5430 C   0  0  0  0  0  0  0  0  0  0  0  0
   58.6510   33.6280   51.3610 O   0  0  0  0  0  0  0  0  0  0  0  0
   59.4500   32.8960   49.1960 C   0  0  0  0  0  0  0  0  0  0  0  0
   59.8540   34.1770   48.5280 C   0  0  0  0  0  0  0  0  0  0  0  0
   59.2510   34.2680   47.1610 C   0  0  0  0  0  0  0  0  0  0  0  0
   59.9310   34.5840   45.9990 C   0  0  0  0  0  0  0  0  0  0  0  0
   58.9930   34.5540   44.9870 C   0  0  0  0  0  0  0  0  0  0  0  0
   57.7850   34.2250   45.5750 C   0  0  0  0  0  0  0  0  0  0  0  0
   57.9480   34.0510   46.8970 N   0  0  0  0  0  0  0  0  0  0  0  0
   57.8350   28.0050   46.5930 C   0  0  0  0  0  0  0  0  0  0  0  0
   59.1023   29.1755   45.1389 H   0  0  0  0  0  0  0  0  0  0  0  0
   58.5150   28.4899   43.5859 H   0  0  0  0  0  0  0  0  0  0  0  0
   59.5403   29.9648   43.5859 H   0  0  0  0  0  0  0  0  0  0  0  0
   57.5520   32.3527   43.5067 H   0  0  0  0  0  0  0  0  0  0  0  0
   58.4146   31.1792   42.4553 H   0  0  0  0  0  0  0  0  0  0  0  0
   56.6192   31.2342   42.4553 H   0  0  0  0  0  0  0  0  0  0  0  0
   57.4891   30.2937   46.3881 H   0  0  0  0  0  0  0  0  0  0  0  0
   58.3459   31.6882   45.6477 H   0  0  0  0  0  0  0  0  0  0  0  0
   56.5504   31.6344   45.6477 H   0  0  0  0  0  0  0  0  0  0  0  0
   55.4840   25.9039   45.2706 H   0  0  0  0  0  0  0  0  0  0  0  0
   56.8977   24.2290   46.4568 H   0  0  0  0  0  0  0  0  0  0  0  0
   58.9021   24.9647   47.7396 H   0  0  0  0  0  0  0  0  0  0  0  0
   60.6570   27.2580   47.4540 H   0  0  0  0  0  0  0  0  0  0  0  0
   59.8700   26.9850   48.9200 H   0  0  0  0  0  0  0  0  0  0  0  0
   60.5109   29.4672   46.3109 H   0  0  0  0  0  0  0  0  0  0  0  0
   60.4230   31.9346   46.7565 H   0  0  0  0  0  0  0  0  0  0  0  0
   58.9363   28.6779   50.2969 H   0  0  0  0  0  0  0  0  0  0  0  0
   59.5066   35.0266   49.1342 H   0  0  0  0  0  0  0  0  0  0  0  0
   60.9499   34.2000   48.4358 H   0  0  0  0  0  0  0  0  0  0  0  0
   61.0025   34.8129   45.9011 H   0  0  0  0  0  0  0  0  0  0  0  0
   59.1714   34.7531   43.9200 H   0  0  0  0  0  0  0  0  0  0  0  0
   56.8304   34.1210   45.0385 H   0  0  0  0  0  0  0  0  0  0  0  0
   57.2020   33.8100   47.5840 H   0  0  0  0  0  0  0  0  0  0  0  0
   58.0956   29.0728   46.6360 H   0  0  0  0  0  0  0  0  0  0  0  0
  1  2  1  0
  2  3  1  0
  2  4  1  0
  2  5  1  0
  5  6  2  0
  5  7  1  0
  7  8  1  0
  8  9  2  0
  9 10  1  0
 10 11  2  0
 11 12  1  0
 12 13  1  0
 13 14  1  0
 14 15  1  0
 15 16  2  0
 16 17  1  0
 17 18  1  0
 18 19  1  0
 18 20  2  0
 20 21  1  0
 21 22  2  0
 21 23  1  0
 23 24  1  0
 24 25  1  0
 25 26  2  0
 26 27  1  0
 27 28  2  0
 28 29  1  0
 12 30  2  0
 30  8  1  0
 19 14  2  0
 29 25  1  0
 23 17  2  0
  1 31  1  0
  1 32  1  0
  1 33  1  0
  3 34  1  0
  3 35  1  0
  3 36  1  0
  4 37  1  0
  4 38  1  0
  4 39  1  0
  9 40  1  0
 10 41  1  0
 11 42  1  0
 13 43  1  0
 13 44  1  0
 15 45  1  0
 16 46  1  0
 19 47  1  0
 24 48  1  0
 24 49  1  0
 26 50  1  0
 27 51  1  0
 28 52  1  0
 29 53  1  0
 30 54  1  0
M  CHG  2   7  -1  13   1
M  END
>  <UniqueID>  (49) 
45

>  <SMILES>  (49) 
CC(C)(C)C(=O)[N-]c1cccc([NH2+]c2ccc3c(c2)=NC(=O)C=3Cc2ccc[nH]2)c1

>  <Energy>  (49) 
114.68793113181012

>  <Genealogy>  (49) 
CC(C)(C)C(=O)[N-]c1cccc([NH2+]c2ccc3c(c2)=NC(=O)C=3Cc2ccc[nH]2)c1 (protonated)
CC(C)(C)C(=O)[N-]c1cccc([NH2+]c2ccc3c(c2)=NC(=O)C=3Cc2ccc[nH]2)c1 (3D coordinates assigned)
CC(C)(C)C(=O)[N-]c1cccc([NH2+]c2ccc3c(c2)=NC(=O)C=3Cc2ccc[nH]2)c1 (nonaromatic ring conformer: 114.68793113181012 kcal/mol)

>  <smiles>  (49) 
CC(C)(C)C(=O)Nc1cccc(Nc2ccc3c(c2)=NC(=O)C=3Cc2ccc[nH]2)c1

>  <score_type>  (49) 
oracle

>  <origin>  (49) 
adg

>  <m_score__min__energy>  (49) 
-9.6799999999999997

>  <m_primary>  (49) 
energy

$$$$
49:0
     RDKit          3D

 31 33  0  0  0  0  0  0  0  0999 V2000
   59.2260   28.4840   45.7550 C   0  0  0  0  0  0  0  0  0  0  0  0
   58.7860   27.8080   44.4610 C   0  0  0  0  0  0  0  0  0  0  0  0
   57.3660   27.8390   44.3350 O   0  0  0  0  0  0  0  0  0  0  0  0
   56.6000   28.9940   44.5220 C   0  0  0  0  0  0  0  0  0  0  0  0
   55.5430   28.9620   45.2110 O   0  0  0  0  0  0  0  0  0  0  0  0
   57.0320   30.2510   43.9010 C   0  0  0  0  0  0  0  0  0  0  0  0
   56.9740   30.5060   42.5660 N   0  0  0  0  0  0  0  0  0  0  0  0
   57.4490   31.7320   42.3570 N   0  0  0  0  0  0  0  0  0  0  0  0
   57.6120   32.3410   41.0440 C   0  0  0  0  0  0  0  0  0  0  0  0
   57.8240   32.2490   43.5390 C   0  0  0  0  0  0  0  0  0  0  0  0
   58.3890   33.4560   43.7840 N   0  0  0  0  0  0  0  0  0  0  0  0
   58.7010   33.7620   45.0810 C   0  0  0  0  0  0  0  0  0  0  0  0
   59.2830   34.9930   45.3970 C   0  0  0  0  0  0  0  0  0  0  0  0
   59.5990   35.2960   46.7260 C   0  0  0  0  0  0  0  0  0  0  0  0
   59.3370   34.3730   47.7450 C   0  0  0  0  0  0  0  0  0  0  0  0
   58.7560   33.1360   47.4470 C   0  0  0  0  0  0  0  0  0  0  0  0
   58.4320   32.8160   46.1240 C   0  0  0  0  0  0  0  0  0  0  0  0
   57.8660   31.6070   45.8230 N   0  0  0  0  0  0  0  0  0  0  0  0
   57.5730   31.3560   44.5250 C   0  0  0  0  0  0  0  0  0  0  0  0
   58.8517   27.9089   46.6148 H   0  0  0  0  0  0  0  0  0  0  0  0
   60.3246   28.5254   45.7919 H   0  0  0  0  0  0  0  0  0  0  0  0
   58.8191   29.5053   45.7919 H   0  0  0  0  0  0  0  0  0  0  0  0
   59.2361   28.3351   43.6068 H   0  0  0  0  0  0  0  0  0  0  0  0
   59.1171   26.7592   44.4790 H   0  0  0  0  0  0  0  0  0  0  0  0
   57.8948   33.3974   41.1624 H   0  0  0  0  0  0  0  0  0  0  0  0
   58.3998   31.8105   40.4890 H   0  0  0  0  0  0  0  0  0  0  0  0
   56.6646   32.2750   40.4890 H   0  0  0  0  0  0  0  0  0  0  0  0
   59.4925   35.7231   44.6013 H   0  0  0  0  0  0  0  0  0  0  0  0
   60.0563   36.2659   46.9715 H   0  0  0  0  0  0  0  0  0  0  0  0
   59.5895   34.6218   48.7863 H   0  0  0  0  0  0  0  0  0  0  0  0
   58.5538   32.4149   48.2527 H   0  0  0  0  0  0  0  0  0  0  0  0
  1  2  1  0
  2  3  1  0
  3  4  1  0
  4  5  2  0
  4  6  1  0
  6  7  2  0
  7  8  1  0
  8  9  1  0
  8 10  1  0
 10 11  2  0
 11 12  1  0
 12 13  2  0
 13 14  1  0
 14 15  2  0
 15 16  1  0
 16 17  2  0
 17 18  1  0
 18 19  2  0
 19  6  1  0
 19 10  1  0
 17 12  1  0
  1 20  1  0
  1 21  1  0
  1 22  1  0
  2 23  1  0
  2 24  1  0
  9 25  1  0
  9 26  1  0
  9 27  1  0
 13 28  1  0
 14 29  1  0
 15 30  1  0
 16 31  1  0
M  END
>  <UniqueID>  (50) 
46

>  <SMILES>  (50) 
CCOC(=O)c1nn(C)c2nc3ccccc3nc12

>  <Energy>  (50) 
74.32646534245907

>  <Genealogy>  (50) 
CCOC(=O)c1nn(C)c2nc3ccccc3nc12 (3D coordinates assigned)
CCOC(=O)c1nn(C)c2nc3ccccc3nc12 (optimized conformer: 74.32646534245907 kcal/mol)

>  <smiles>  (50) 
CCOC(=O)c1nn(C)c2nc3ccccc3nc12

>  <score_type>  (50) 
oracle

>  <origin>  (50) 
adg

>  <m_score__min__energy>  (50) 
-7.3700000000000001

>  <m_primary>  (50) 
energy

$$$$
50:0
     RDKit          3D

 34 36  0  0  0  0  0  0  0  0999 V2000
   55.4160   29.7260   44.9530 O   0  0  0  0  0  0  0  0  0  0  0  0
   56.2910   28.8310   45.1030 C   0  0  0  0  0  0  0  0  0  0  0  0
   55.8860   27.5590   45.6210 N   0  0  0  0  0  0  0  0  0  0  0  0
   56.7020   26.7160   46.4860 C   0  0  0  0  0  0  0  0  0  0  0  0
   56.9530   25.3970   45.8040 C   0  0  0  0  0  0  0  0  0  0  0  0
   55.8690   24.6620   45.2940 C   0  0  0  0  0  0  0  0  0  0  0  0
   56.0780   23.4250   44.6770 C   0  0  0  0  0  0  0  0  0  0  0  0
   57.3690   22.9050   44.5750 C   0  0  0  0  0  0  0  0  0  0  0  0
   58.4540   23.6170   45.0910 C   0  0  0  0  0  0  0  0  0  0  0  0
   58.2550   24.8570   45.7100 C   0  0  0  0  0  0  0  0  0  0  0  0
   59.6570   25.7020   46.3620 Cl  0  0  0  0  0  0  0  0  0  0  0  0
   57.7360   29.1460   44.7950 C   0  0  2  0  0  0  0  0  0  0  0  0
   58.5700   29.1810   46.0920 C   0  0  0  0  0  0  0  0  0  0  0  0
   58.3050   30.3750   46.8310 O   0  0  0  0  0  0  0  0  0  0  0  0
   58.1320   31.6010   46.1830 C   0  0  0  0  0  0  0  0  0  0  0  0
   58.1650   32.8010   46.9000 C   0  0  0  0  0  0  0  0  0  0  0  0
   58.0160   34.0190   46.2260 C   0  0  0  0  0  0  0  0  0  0  0  0
   57.8300   34.0340   44.8390 C   0  0  0  0  0  0  0  0  0  0  0  0
   57.7820   32.8320   44.1230 C   0  0  0  0  0  0  0  0  0  0  0  0
   57.9180   31.6150   44.7980 C   0  0  0  0  0  0  0  0  0  0  0  0
   57.8350   30.4000   44.1080 O   0  0  0  0  0  0  0  0  0  0  0  0
   57.6619   27.2148   46.6856 H   0  0  0  0  0  0  0  0  0  0  0  0
   56.1752   26.5447   47.4363 H   0  0  0  0  0  0  0  0  0  0  0  0
   54.8484   25.0631   45.3810 H   0  0  0  0  0  0  0  0  0  0  0  0
   55.2246   22.8615   44.2718 H   0  0  0  0  0  0  0  0  0  0  0  0
   57.5323   21.9326   44.0873 H   0  0  0  0  0  0  0  0  0  0  0  0
   59.4694   23.2018   45.0108 H   0  0  0  0  0  0  0  0  0  0  0  0
   58.1348   28.3535   44.1447 H   0  0  0  0  0  0  0  0  0  0  0  0
   58.3122   28.3088   46.7107 H   0  0  0  0  0  0  0  0  0  0  0  0
   59.6373   29.1589   45.8268 H   0  0  0  0  0  0  0  0  0  0  0  0
   58.3076   32.7881   47.9906 H   0  0  0  0  0  0  0  0  0  0  0  0
   58.0451   34.9648   46.7869 H   0  0  0  0  0  0  0  0  0  0  0  0
   57.7213   34.9924   44.3102 H   0  0  0  0  0  0  0  0  0  0  0  0
   57.6377   32.8449   43.0326 H   0  0  0  0  0  0  0  0  0  0  0  0
  1  2  2  0
  2  3  1  0
  3  4  1  0
  4  5  1  0
  5  6  2  0
  6  7  1  0
  7  8  2  0
  8  9  1  0
  9 10  2  0
 10 11  1  0
  2 12  1  0
 12 13  1  0
 13 14  1  0
 14 15  1  0
 15 16  2  0
 16 17  1  0
 17 18  2  0
 18 19  1  0
 19 20  2  0
 20 21  1  0
 10  5  1  0
 21 12  1  0
 20 15  1  0
  4 22  1  0
  4 23  1  0
  6 24  1  0
  7 25  1  0
  8 26  1  0
  9 27  1  0
 12 28  1  6
 13 29  1  0
 13 30  1  0
 16 31  1  0
 17 32  1  0
 18 33  1  0
 19 34  1  0
M  CHG  1   3  -1
M  END
>  <UniqueID>  (51) 
47

>  <SMILES>  (51) 
O=C([N-]Cc1ccccc1Cl)[C@@H]1COc2ccccc2O1

>  <Energy>  (51) 
36.34086376020318

>  <Genealogy>  (51) 
O=C([N-]Cc1ccccc1Cl)C1COc2ccccc2O1 (protonated)
O=C([N-]Cc1ccccc1Cl)[C@@H]1COc2ccccc2O1 (chirality)
O=C([N-]Cc1ccccc1Cl)[C@@H]1COc2ccccc2O1 (3D coordinates assigned)
O=C([N-]Cc1ccccc1Cl)[C@@H]1COc2ccccc2O1 (nonaromatic ring conformer: 36.34086376020318 kcal/mol)

>  <smiles>  (51) 
O=C(NCc1ccccc1Cl)C1COc2ccccc2O1

>  <score_type>  (51) 
oracle

>  <origin>  (51) 
adg

>  <m_score__min__energy>  (51) 
-8.8900000000000006

>  <m_primary>  (51) 
energy

$$$$
51:0
     RDKit          3D

 30 32  0  0  0  0  0  0  0  0999 V2000
   60.2020   34.6331   48.5801 H   0  0  0  0  0  0  0  0  0  0  0  0
   60.1640   33.7240   47.9620 C   0  0  0  0  0  0  0  0  0  0  0  0
   61.3460   33.0940   47.5750 C   0  0  0  0  0  0  0  0  0  0  0  0
   63.0370   33.7980   48.1110 Br  0  0  0  0  0  0  0  0  0  0  0  0
   61.2780   31.9420   46.7900 C   0  0  0  0  0  0  0  0  0  0  0  0
   62.2037   31.4368   46.4771 H   0  0  0  0  0  0  0  0  0  0  0  0
   60.0700   31.4410   46.4100 N   0  0  0  0  0  0  0  0  0  0  0  0
   60.0530   30.5760   45.8240 H   0  0  0  0  0  0  0  0  0  0  0  0
   58.8960   32.0340   46.7750 C   0  0  0  0  0  0  0  0  0  0  0  0
   57.7750   31.4940   46.3810 N   0  0  0  0  0  0  0  0  0  0  0  0
   57.5810   30.2870   45.1460 S   0  0  0  0  0  0  0  0  0  0  0  0
   58.6710   30.4520   44.1250 O   0  0  0  0  0  0  0  0  0  0  0  0
   56.2500   30.4790   44.4740 O   0  0  0  0  0  0  0  0  0  0  0  0
   57.6980   28.6750   45.8440 C   0  0  0  0  0  0  0  0  0  0  0  0
   58.8450   28.2950   46.5590 C   0  0  0  0  0  0  0  0  0  0  0  0
   59.6699   29.0107   46.6907 H   0  0  0  0  0  0  0  0  0  0  0  0
   58.9440   27.0100   47.1050 C   0  0  0  0  0  0  0  0  0  0  0  0
   59.8458   26.7161   47.6622 H   0  0  0  0  0  0  0  0  0  0  0  0
   57.8950   26.1010   46.9410 C   0  0  0  0  0  0  0  0  0  0  0  0
   57.9750   24.8480   47.4620 N   0  0  0  0  0  0  0  0  0  0  0  0
   56.9590   23.9580   47.3080 C   0  0  0  0  0  0  0  0  0  0  0  0
   57.0540   22.8030   47.7990 O   0  0  0  0  0  0  0  0  0  0  0  0
   55.8120   24.3330   46.6010 C   0  0  0  0  0  0  0  0  0  0  0  0
   54.9848   23.6199   46.4696 H   0  0  0  0  0  0  0  0  0  0  0  0
   55.7260   25.5850   46.0770 N   0  0  0  0  0  0  0  0  0  0  0  0
   56.7380   26.4800   46.2280 C   0  0  0  0  0  0  0  0  0  0  0  0
   56.6430   27.7650   45.6850 C   0  0  0  0  0  0  0  0  0  0  0  0
   55.7396   28.0624   45.1324 H   0  0  0  0  0  0  0  0  0  0  0  0
   58.9330   33.2010   47.5650 C   0  0  0  0  0  0  0  0  0  0  0  0
   57.9979   33.6958   47.8663 H   0  0  0  0  0  0  0  0  0  0  0  0
  1  2  1  0
  2  3  1  0
  3  4  1  0
  3  5  2  0
  5  6  1  0
  5  7  1  0
  7  8  1  0
  7  9  1  0
  9 10  2  0
 10 11  1  0
 11 12  2  0
 11 13  2  0
 11 14  1  0
 14 15  2  0
 15 16  1  0
 15 17  1  0
 17 18  1  0
 17 19  2  0
 19 20  1  0
 20 21  1  0
 21 22  2  0
 21 23  1  0
 23 24  1  0
 23 25  2  0
 25 26  1  0
 26 27  2  0
 27 28  1  0
  9 29  1  0
 29 30  1  0
 29  2  2  0
 27 14  1  0
 26 19  1  0
M  CHG  1  20  -1
M  END
>  <UniqueID>  (52) 
48

>  <SMILES>  (52) 
O=c1cnc2cc(S(=O)(=O)/N=c3\ccc(Br)c[nH]3)ccc2[n-]1

>  <Energy>  (52) 
42.5019159167201

>  <Genealogy>  (52) 
O=c1cnc2cc(S(=O)(=O)N=c3ccc(Br)c[nH]3)ccc2[n-]1 (protonated)
O=c1cnc2cc(S(=O)(=O)/N=c3\ccc(Br)c[nH]3)ccc2[n-]1 (cis-trans isomerization)
O=c1cnc2cc(S(=O)(=O)/N=c3\ccc(Br)c[nH]3)ccc2[n-]1 (3D coordinates assigned)
O=c1cnc2cc(S(=O)(=O)/N=c3\ccc(Br)c[nH]3)ccc2[n-]1 (optimized conformer: 42.5019159167201 kcal/mol)

>  <smiles>  (52) 
O=c1cnc2cc(S(=O)(=O)N=c3ccc(Br)c[nH]3)ccc2[nH]1

>  <score_type>  (52) 
oracle

>  <origin>  (52) 
adg

>  <m_score__min__energy>  (52) 
-9.0099999999999998

>  <m_primary>  (52) 
energy

$$$$
52:0
     RDKit          3D

 57 60  0  0  0  0  0  0  0  0999 V2000
   62.0830   29.7660   52.0540 C   0  0  0  0  0  0  0  0  0  0  0  0
   63.3480   30.4240   51.5810 C   0  0  0  0  0  0  0  0  0  0  0  0
   64.5810   30.0520   52.1330 C   0  0  0  0  0  0  0  0  0  0  0  0
   65.7520   30.6320   51.6490 C   0  0  0  0  0  0  0  0  0  0  0  0
   65.6900   31.5700   50.6200 C   0  0  0  0  0  0  0  0  0  0  0  0
   64.4440   31.9250   50.0840 C   0  0  0  0  0  0  0  0  0  0  0  0
   64.3610   32.8900   48.9390 C   0  0  0  0  0  0  0  0  0  0  0  0
   63.0630   32.8080   48.3600 O   0  0  0  0  0  0  0  0  0  0  0  0
   61.9670   33.5220   48.8530 C   0  0  0  0  0  0  0  0  0  0  0  0
   61.8350   33.7030   50.0960 O   0  0  0  0  0  0  0  0  0  0  0  0
   60.9700   34.0190   47.9440 N   0  0  0  0  0  0  0  0  0  0  0  0
   61.2790   34.2120   46.5230 C   0  0  0  0  0  0  0  0  0  0  0  0
   60.2420   33.5120   45.6290 C   0  0  0  0  0  0  0  0  0  0  0  0
   58.8060   33.4500   46.2460 C   0  0  0  0  0  0  0  0  0  0  0  0
   58.6250   34.5520   47.3160 C   0  0  0  0  0  0  0  0  0  0  0  0
   59.6440   34.3970   48.4530 C   0  0  0  0  0  0  0  0  0  0  0  0
   57.7310   33.6450   45.1450 C   0  0  0  0  0  0  0  0  0  0  0  0
   57.6830   32.4530   44.2370 C   0  0  0  0  0  0  0  0  0  0  0  0
   57.3980   32.6050   43.0180 O   0  0  0  0  0  0  0  0  0  0  0  0
   57.9020   31.1080   44.8020 C   0  0  0  0  0  0  0  0  0  0  0  0
   57.6940   29.9500   44.0380 C   0  0  0  0  0  0  0  0  0  0  0  0
   57.8960   28.6920   44.6070 C   0  0  0  0  0  0  0  0  0  0  0  0
   58.2860   28.5810   45.9420 C   0  0  0  0  0  0  0  0  0  0  0  0
   58.4720   29.7260   46.7270 C   0  0  0  0  0  0  0  0  0  0  0  0
   58.9040   29.5530   48.0820 N   0  0  0  0  0  0  0  0  0  0  0  0
   60.4590   30.0150   48.6960 S   0  0  0  0  0  0  0  0  0  0  0  0
   61.4690   30.5580   47.3390 C   0  0  0  0  0  0  0  0  0  0  0  0
   60.3330   31.1210   49.7050 O   0  0  0  0  0  0  0  0  0  0  0  0
   61.1010   28.8260   49.3530 O   0  0  0  0  0  0  0  0  0  0  0  0
   58.3230   31.0010   46.1420 C   0  0  0  0  0  0  0  0  0  0  0  0
   58.6230   32.1660   46.8680 O   0  0  0  0  0  0  0  0  0  0  0  0
   63.3100   31.3320   50.5610 N   0  0  0  0  0  0  0  0  0  0  0  0
   62.0639   29.7561   53.1538 H   0  0  0  0  0  0  0  0  0  0  0  0
   61.2149   30.3269   51.6773 H   0  0  0  0  0  0  0  0  0  0  0  0
   62.0439   28.7333   51.6773 H   0  0  0  0  0  0  0  0  0  0  0  0
   64.6243   29.3080   52.9420 H   0  0  0  0  0  0  0  0  0  0  0  0
   66.7245   30.3498   52.0787 H   0  0  0  0  0  0  0  0  0  0  0  0
   66.6114   32.0282   50.2314 H   0  0  0  0  0  0  0  0  0  0  0  0
   64.5385   33.9123   49.3041 H   0  0  0  0  0  0  0  0  0  0  0  0
   65.1219   32.6400   48.1850 H   0  0  0  0  0  0  0  0  0  0  0  0
   61.2779   35.2888   46.2985 H   0  0  0  0  0  0  0  0  0  0  0  0
   62.2674   33.7745   46.3186 H   0  0  0  0  0  0  0  0  0  0  0  0
   60.1849   34.0562   44.6747 H   0  0  0  0  0  0  0  0  0  0  0  0
   60.5796   32.4724   45.5053 H   0  0  0  0  0  0  0  0  0  0  0  0
   58.7617   35.5360   46.8438 H   0  0  0  0  0  0  0  0  0  0  0  0
   57.6143   34.4615   47.7405 H   0  0  0  0  0  0  0  0  0  0  0  0
   59.7273   35.3532   48.9904 H   0  0  0  0  0  0  0  0  0  0  0  0
   59.2926   33.5987   49.1232 H   0  0  0  0  0  0  0  0  0  0  0  0
   56.7475   33.7777   45.6195 H   0  0  0  0  0  0  0  0  0  0  0  0
   57.9897   34.5335   44.5503 H   0  0  0  0  0  0  0  0  0  0  0  0
   57.3715   30.0337   42.9897 H   0  0  0  0  0  0  0  0  0  0  0  0
   57.7474   27.7857   44.0016 H   0  0  0  0  0  0  0  0  0  0  0  0
   58.4488   27.5859   46.3817 H   0  0  0  0  0  0  0  0  0  0  0  0
   62.3751   31.0452   47.7283 H   0  0  0  0  0  0  0  0  0  0  0  0
   61.7539   29.6915   46.7242 H   0  0  0  0  0  0  0  0  0  0  0  0
   60.9033   31.2736   46.7242 H   0  0  0  0  0  0  0  0  0  0  0  0
   62.3890   31.5780   50.1320 H   0  0  0  0  0  0  0  0  0  0  0  0
  1  2  1  0
  2  3  2  0
  3  4  1  0
  4  5  2  0
  5  6  1  0
  6  7  1  0
  7  8  1  0
  8  9  1  0
  9 10  2  0
  9 11  1  0
 11 12  1  0
 12 13  1  0
 13 14  1  0
 14 15  1  0
 15 16  1  0
 14 17  1  0
 17 18  1  0
 18 19  2  0
 18 20  1  0
 20 21  2  0
 21 22  1  0
 22 23  2  0
 23 24  1  0
 24 25  1  0
 25 26  1  0
 26 27  1  0
 26 28  2  0
 26 29  2  0
 24 30  2  0
 30 31  1  0
  6 32  2  0
 32  2  1  0
 16 11  1  0
 30 20  1  0
 31 14  1  0
  1 33  1  0
  1 34  1  0
  1 35  1  0
  3 36  1  0
  4 37  1  0
  5 38  1  0
  7 39  1  0
  7 40  1  0
 12 41  1  0
 12 42  1  0
 13 43  1  0
 13 44  1  0
 15 45  1  0
 15 46  1  0
 16 47  1  0
 16 48  1  0
 17 49  1  0
 17 50  1  0
 21 51  1  0
 22 52  1  0
 23 53  1  0
 27 54  1  0
 27 55  1  0
 27 56  1  0
 32 57  1  0
M  CHG  2  25  -1  32   1
M  END
>  <UniqueID>  (53) 
49

>  <SMILES>  (53) 
Cc1cccc(COC(=O)N2CCC3(CC2)CC(=O)c2cccc([N-]S(C)(=O)=O)c2O3)[nH+]1

>  <Energy>  (53) 
63.97433609074384

>  <Genealogy>  (53) 
Cc1cccc(COC(=O)N2CCC3(CC2)CC(=O)c2cccc([N-]S(C)(=O)=O)c2O3)[nH+]1 (protonated)
Cc1cccc(COC(=O)N2CCC3(CC2)CC(=O)c2cccc([N-]S(C)(=O)=O)c2O3)[nH+]1 (3D coordinates assigned)
Cc1cccc(COC(=O)N2CCC3(CC2)CC(=O)c2cccc([N-]S(C)(=O)=O)c2O3)[nH+]1 (nonaromatic ring conformer: 63.97433609074384 kcal/mol)

>  <smiles>  (53) 
Cc1cccc(COC(=O)N2CCC3(CC2)CC(=O)c2cccc(NS(C)(=O)=O)c2O3)n1

>  <score_type>  (53) 
oracle

>  <origin>  (53) 
adg

>  <m_score__min__energy>  (53) 
-9.1199999999999992

>  <m_primary>  (53) 
energy

$$$$
53:0
     RDKit          3D

 41 43  0  0  0  0  0  0  0  0999 V2000
   56.0450   26.2070   46.5530 O   0  0  0  0  0  0  0  0  0  0  0  0
   56.6760   27.2240   46.1570 C   0  0  0  0  0  0  0  0  0  0  0  0
   56.1080   28.0580   45.2520 N   0  0  0  0  0  0  0  0  0  0  0  0
   56.7720   29.1490   44.7880 C   0  0  0  0  0  0  0  0  0  0  0  0
   56.1700   29.9800   43.8310 C   0  0  0  0  0  0  0  0  0  0  0  0
   56.8490   31.0880   43.3300 C   0  0  0  0  0  0  0  0  0  0  0  0
   58.1380   31.3750   43.7750 C   0  0  0  0  0  0  0  0  0  0  0  0
   58.7530   30.5610   44.7310 C   0  0  0  0  0  0  0  0  0  0  0  0
   58.0780   29.4370   45.2690 C   0  0  0  0  0  0  0  0  0  0  0  0
   58.6420   28.6130   46.2270 N   0  0  0  0  0  0  0  0  0  0  0  0
   59.9840   28.8790   46.7930 C   0  0  0  0  0  0  0  0  0  0  0  0
   59.9450   30.1040   47.7190 C   0  0  0  0  0  0  0  0  0  0  0  0
   61.3450   30.5330   48.1600 C   0  0  0  0  0  0  0  0  0  0  0  0
   61.9590   31.3730   47.1320 N   0  0  0  0  0  0  0  0  0  0  0  0
   61.5910   33.0420   47.4370 S   0  0  0  0  0  0  0  0  0  0  0  0
   62.6450   33.9040   46.8020 O   0  0  0  0  0  0  0  0  0  0  0  0
   61.5930   33.3010   48.9190 O   0  0  0  0  0  0  0  0  0  0  0  0
   60.0220   33.4570   46.7510 C   0  0  0  0  0  0  0  0  0  0  0  0
   58.8360   33.0650   47.3920 C   0  0  0  0  0  0  0  0  0  0  0  0
   57.5960   33.3820   46.8300 C   0  0  0  0  0  0  0  0  0  0  0  0
   57.5330   34.0890   45.6250 C   0  0  0  0  0  0  0  0  0  0  0  0
   58.7110   34.4760   44.9790 C   0  0  0  0  0  0  0  0  0  0  0  0
   59.9530   34.1590   45.5390 C   0  0  0  0  0  0  0  0  0  0  0  0
   57.9590   27.4950   46.6460 C   0  0  0  0  0  0  0  0  0  0  0  0
   58.4750   26.6950   47.4760 O   0  0  0  0  0  0  0  0  0  0  0  0
   55.1470   27.8410   44.8990 H   0  0  0  0  0  0  0  0  0  0  0  0
   55.1543   29.7547   43.4738 H   0  0  0  0  0  0  0  0  0  0  0  0
   56.3678   31.7365   42.5831 H   0  0  0  0  0  0  0  0  0  0  0  0
   58.6745   32.2466   43.3720 H   0  0  0  0  0  0  0  0  0  0  0  0
   59.7729   30.7958   45.0696 H   0  0  0  0  0  0  0  0  0  0  0  0
   60.3148   28.0013   47.3677 H   0  0  0  0  0  0  0  0  0  0  0  0
   60.6843   29.0788   45.9685 H   0  0  0  0  0  0  0  0  0  0  0  0
   59.4698   30.9391   47.1835 H   0  0  0  0  0  0  0  0  0  0  0  0
   59.3736   29.8320   48.6187 H   0  0  0  0  0  0  0  0  0  0  0  0
   61.2727   31.1012   49.0991 H   0  0  0  0  0  0  0  0  0  0  0  0
   61.9655   29.6375   48.3119 H   0  0  0  0  0  0  0  0  0  0  0  0
   58.8827   32.5070   48.3388 H   0  0  0  0  0  0  0  0  0  0  0  0
   56.6688   33.0751   47.3361 H   0  0  0  0  0  0  0  0  0  0  0  0
   56.5566   34.3406   45.1854 H   0  0  0  0  0  0  0  0  0  0  0  0
   58.6611   35.0300   44.0300 H   0  0  0  0  0  0  0  0  0  0  0  0
   60.8785   34.4613   45.0271 H   0  0  0  0  0  0  0  0  0  0  0  0
  1  2  2  0
  2  3  1  0
  3  4  1  0
  4  5  2  0
  5  6  1  0
  6  7  2  0
  7  8  1  0
  8  9  2  0
  9 10  1  0
 10 11  1  0
 11 12  1  0
 12 13  1  0
 13 14  1  0
 14 15  1  0
 15 16  2  0
 15 17  2  0
 15 18  1  0
 18 19  2  0
 19 20  1  0
 20 21  2  0
 21 22  1  0
 22 23  2  0
 10 24  1  0
 24 25  2  0
 24  2  1  0
  9  4  1  0
 23 18  1  0
  3 26  1  0
  5 27  1  0
  6 28  1  0
  7 29  1  0
  8 30  1  0
 11 31  1  0
 11 32  1  0
 12 33  1  0
 12 34  1  0
 13 35  1  0
 13 36  1  0
 19 37  1  0
 20 38  1  0
 21 39  1  0
 22 40  1  0
 23 41  1  0
M  CHG  1  14  -1
M  END
>  <UniqueID>  (54) 
50

>  <SMILES>  (54) 
O=c1[nH]c2ccccc2n(CCC[N-]S(=O)(=O)c2ccccc2)c1=O

>  <Energy>  (54) 
49.3627000027587

>  <Genealogy>  (54) 
O=c1[nH]c2ccccc2n(CCC[N-]S(=O)(=O)c2ccccc2)c1=O (protonated)
O=c1[nH]c2ccccc2n(CCC[N-]S(=O)(=O)c2ccccc2)c1=O (3D coordinates assigned)
O=c1[nH]c2ccccc2n(CCC[N-]S(=O)(=O)c2ccccc2)c1=O (optimized conformer: 49.3627000027587 kcal/mol)

>  <smiles>  (54) 
O=c1[nH]c2ccccc2n(CCCNS(=O)(=O)c2ccccc2)c1=O

>  <score_type>  (54) 
oracle

>  <origin>  (54) 
adg

>  <m_score__min__energy>  (54) 
-9.2899999999999991

>  <m_primary>  (54) 
energy

$$$$
54:0
     RDKit          3D

 53 56  0  0  0  0  0  0  0  0999 V2000
   55.6290   29.7030   45.9790 H   0  0  0  0  0  0  0  0  0  0  0  0
   55.5100   29.0700   45.2210 O   0  0  0  0  0  0  0  0  0  0  0  0
   56.7700   28.5030   44.9680 C   0  0  0  0  0  0  0  0  0  0  0  0
   56.6475   27.4303   44.7575 H   0  0  0  0  0  0  0  0  0  0  0  0
   57.4071   28.6481   45.8529 H   0  0  0  0  0  0  0  0  0  0  0  0
   57.4350   29.1770   43.7680 C   0  0  0  0  0  0  0  0  0  0  0  0
   56.6688   29.4011   43.0112 H   0  0  0  0  0  0  0  0  0  0  0  0
   58.1934   28.4936   43.3584 H   0  0  0  0  0  0  0  0  0  0  0  0
   58.0950   30.4220   44.1640 N   0  0  0  0  0  0  0  0  0  0  0  0
   59.1190   30.5030   43.9970 H   0  0  0  0  0  0  0  0  0  0  0  0
   57.3850   31.5160   44.7650 C   0  0  0  0  0  0  0  0  0  0  0  0
   56.1270   31.4820   44.8390 O   0  0  0  0  0  0  0  0  0  0  0  0
   58.1220   32.6810   45.2990 C   0  0  0  0  0  0  0  0  0  0  0  0
   58.3110   33.7790   44.5110 N   0  0  0  0  0  0  0  0  0  0  0  0
   58.9860   34.8750   44.9480 C   0  0  0  0  0  0  0  0  0  0  0  0
   59.1050   35.7469   44.2881 H   0  0  0  0  0  0  0  0  0  0  0  0
   59.5280   34.8940   46.2340 C   0  0  0  0  0  0  0  0  0  0  0  0
   60.0695   35.7818   46.5925 H   0  0  0  0  0  0  0  0  0  0  0  0
   59.3790   33.7770   47.0660 C   0  0  0  0  0  0  0  0  0  0  0  0
   59.9450   33.8170   48.3510 O   0  0  0  0  0  0  0  0  0  0  0  0
   59.3870   33.2510   49.5100 C   0  0  0  0  0  0  0  0  0  0  0  0
   59.6270   33.8940   50.7480 C   0  0  0  0  0  0  0  0  0  0  0  0
   60.1981   34.8339   50.7683 H   0  0  0  0  0  0  0  0  0  0  0  0
   59.1460   33.3490   51.9540 C   0  0  0  0  0  0  0  0  0  0  0  0
   59.3342   33.8448   52.9177 H   0  0  0  0  0  0  0  0  0  0  0  0
   58.4240   32.1610   51.8840 C   0  0  0  0  0  0  0  0  0  0  0  0
   58.1870   31.5290   50.6940 C   0  0  0  0  0  0  0  0  0  0  0  0
   57.5130   30.3810   50.8930 N   0  0  0  0  0  0  0  0  0  0  0  0
   57.3700   30.3490   52.2450 C   0  0  0  0  0  0  0  0  0  0  0  0
   56.7780   29.3790   52.8780 N   0  0  0  0  0  0  0  0  0  0  0  0
   55.3560   29.2110   52.9700 C   0  0  0  0  0  0  0  0  0  0  0  0
   54.5350   30.2120   52.4340 C   0  0  0  0  0  0  0  0  0  0  0  0
   54.9894   31.0978   51.9662 H   0  0  0  0  0  0  0  0  0  0  0  0
   53.1430   30.0940   52.4890 C   0  0  0  0  0  0  0  0  0  0  0  0
   52.5076   30.8819   52.0584 H   0  0  0  0  0  0  0  0  0  0  0  0
   52.5580   28.9770   53.0900 C   0  0  0  0  0  0  0  0  0  0  0  0
   50.6550   28.8110   53.1500 Br  0  0  0  0  0  0  0  0  0  0  0  0
   53.3650   27.9860   53.6580 C   0  0  0  0  0  0  0  0  0  0  0  0
   52.8993   27.1085   54.1303 H   0  0  0  0  0  0  0  0  0  0  0  0
   54.7670   28.1010   53.6310 C   0  0  0  0  0  0  0  0  0  0  0  0
   55.5880   27.0320   54.3010 C   0  0  0  0  0  0  0  0  0  0  0  0
   55.5068   27.1377   55.3929 H   0  0  0  0  0  0  0  0  0  0  0  0
   55.2163   26.0415   53.9999 H   0  0  0  0  0  0  0  0  0  0  0  0
   56.6409   27.1356   53.9999 H   0  0  0  0  0  0  0  0  0  0  0  0
   57.9010   31.4270   52.8780 N   0  0  0  0  0  0  0  0  0  0  0  0
   58.0210   31.6610   54.3150 C   0  0  0  0  0  0  0  0  0  0  0  0
   57.5856   30.8120   54.8624 H   0  0  0  0  0  0  0  0  0  0  0  0
   59.0831   31.7638   54.5823 H   0  0  0  0  0  0  0  0  0  0  0  0
   57.4847   32.5834   54.5823 H   0  0  0  0  0  0  0  0  0  0  0  0
   58.6590   32.0350   49.4850 C   0  0  0  0  0  0  0  0  0  0  0  0
   58.4722   31.5064   48.5386 H   0  0  0  0  0  0  0  0  0  0  0  0
   58.6430   32.6720   46.6070 C   0  0  0  0  0  0  0  0  0  0  0  0
   58.4750   31.8063   47.2645 H   0  0  0  0  0  0  0  0  0  0  0  0
  1  2  1  0
  2  3  1  0
  3  4  1  0
  3  5  1  0
  3  6  1  0
  6  7  1  0
  6  8  1  0
  6  9  1  0
  9 10  1  0
  9 11  1  0
 11 12  2  0
 11 13  1  0
 13 14  2  0
 14 15  1  0
 15 16  1  0
 15 17  2  0
 17 18  1  0
 17 19  1  0
 19 20  1  0
 20 21  1  0
 21 22  2  0
 22 23  1  0
 22 24  1  0
 24 25  1  0
 24 26  2  0
 26 27  1  0
 27 28  1  0
 28 29  1  0
 29 30  2  0
 30 31  1  0
 31 32  2  0
 32 33  1  0
 32 34  1  0
 34 35  1  0
 34 36  2  0
 36 37  1  0
 36 38  1  0
 38 39  1  0
 38 40  2  0
 40 41  1  0
 41 42  1  0
 41 43  1  0
 41 44  1  0
 29 45  1  0
 45 46  1  0
 46 47  1  0
 46 48  1  0
 46 49  1  0
 27 50  2  0
 50 51  1  0
 19 52  2  0
 52 53  1  0
 52 13  1  0
 50 21  1  0
 45 26  1  0
 40 31  1  0
M  CHG  1  28  -1
M  END
>  <UniqueID>  (55) 
51

>  <SMILES>  (55) 
Cc1cc(Br)ccc1/N=c1\[n-]c2cc(Oc3ccnc(C(=O)NCCO)c3)ccc2n1C

>  <Energy>  (55) 
106.34523507896088

>  <Genealogy>  (55) 
Cc1cc(Br)ccc1N=c1[n-]c2cc(Oc3ccnc(C(=O)NCCO)c3)ccc2n1C (protonated)
Cc1cc(Br)ccc1/N=c1\[n-]c2cc(Oc3ccnc(C(=O)NCCO)c3)ccc2n1C (cis-trans isomerization)
Cc1cc(Br)ccc1/N=c1\[n-]c2cc(Oc3ccnc(C(=O)NCCO)c3)ccc2n1C (3D coordinates assigned)
Cc1cc(Br)ccc1/N=c1\[n-]c2cc(Oc3ccnc(C(=O)NCCO)c3)ccc2n1C (optimized conformer: 106.34523507896088 kcal/mol)

>  <smiles>  (55) 
Cc1cc(Br)ccc1N=c1[nH]c2cc(Oc3ccnc(C(=O)NCCO)c3)ccc2n1C

>  <score_type>  (55) 
oracle

>  <origin>  (55) 
adg

>  <m_score__min__energy>  (55) 
-10.17

>  <m_primary>  (55) 
energy

$$$$
55:0
     RDKit          3D

 49 52  0  0  0  0  0  0  0  0999 V2000
   58.4400   28.9460   48.0020 O   0  0  0  0  0  0  0  0  0  0  0  0
   58.9790   28.1150   47.2260 C   0  0  0  0  0  0  0  0  0  0  0  0
   60.4060   28.3490   46.8230 C   0  0  0  0  0  0  0  0  0  0  0  0
   60.4660   29.6250   45.5230 S   0  0  0  0  0  0  0  0  0  0  0  0
   59.2050   28.8390   44.5160 C   0  0  0  0  0  0  0  0  0  0  0  0
   59.4310   27.6020   44.0040 N   0  0  0  0  0  0  0  0  0  0  0  0
   58.0680   27.3730   43.1070 S   0  0  0  0  0  0  0  0  0  0  0  0
   57.1770   28.7430   43.3080 N   0  0  0  0  0  0  0  0  0  0  0  0
   57.9650   29.4580   44.1520 C   0  0  0  0  0  0  0  0  0  0  0  0
   57.5240   30.7930   44.6040 C   0  0  0  0  0  0  0  0  0  0  0  0
   56.2900   31.0090   44.7300 O   0  0  0  0  0  0  0  0  0  0  0  0
   58.4390   31.8570   44.9060 N   0  0  0  0  0  0  0  0  0  0  0  0
   58.7970   32.3520   46.2030 C   0  0  0  0  0  0  0  0  0  0  0  0
   57.8900   32.3560   47.2770 C   0  0  0  0  0  0  0  0  0  0  0  0
   58.3060   32.7670   48.5480 C   0  0  0  0  0  0  0  0  0  0  0  0
   59.6260   33.1980   48.7610 C   0  0  0  0  0  0  0  0  0  0  0  0
   60.0860   33.5560   50.1260 C   0  0  0  0  0  0  0  0  0  0  0  0
   61.1620   34.1960   50.2740 O   0  0  0  0  0  0  0  0  0  0  0  0
   59.3660   33.1480   51.3010 N   0  0  0  0  0  0  0  0  0  0  0  0
   58.6610   32.0610   51.4600 C   0  0  0  0  0  0  0  0  0  0  0  0
   59.3050   30.8240   51.3390 C   0  0  0  0  0  0  0  0  0  0  0  0
   58.5750   29.6420   51.4870 C   0  0  0  0  0  0  0  0  0  0  0  0
   57.2450   29.6920   51.7600 N   0  0  0  0  0  0  0  0  0  0  0  0
   56.5920   30.8750   51.9040 C   0  0  0  0  0  0  0  0  0  0  0  0
   54.8770   30.8780   52.2650 Cl  0  0  0  0  0  0  0  0  0  0  0  0
   57.2850   32.0810   51.7720 C   0  0  0  0  0  0  0  0  0  0  0  0
   60.5030   33.2700   47.6630 C   0  0  0  0  0  0  0  0  0  0  0  0
   60.0890   32.8490   46.3980 C   0  0  0  0  0  0  0  0  0  0  0  0
   58.1830   26.9660   46.7090 C   0  0  0  0  0  0  0  0  0  0  0  0
   58.8000   25.7140   46.5160 C   0  0  0  0  0  0  0  0  0  0  0  0
   58.0620   24.6210   46.0510 C   0  0  0  0  0  0  0  0  0  0  0  0
   56.7030   24.7600   45.7690 C   0  0  0  0  0  0  0  0  0  0  0  0
   56.0730   25.9920   45.9520 C   0  0  0  0  0  0  0  0  0  0  0  0
   54.7150   26.1160   45.6710 O   0  0  0  0  0  0  0  0  0  0  0  0
   56.8080   27.0910   46.4180 C   0  0  0  0  0  0  0  0  0  0  0  0
   60.9833   28.6872   47.6962 H   0  0  0  0  0  0  0  0  0  0  0  0
   60.8379   27.4129   46.4394 H   0  0  0  0  0  0  0  0  0  0  0  0
   56.8500   32.0350   47.1176 H   0  0  0  0  0  0  0  0  0  0  0  0
   57.5943   32.7526   49.3866 H   0  0  0  0  0  0  0  0  0  0  0  0
   60.3837   30.7827   51.1278 H   0  0  0  0  0  0  0  0  0  0  0  0
   59.0779   28.6693   51.3823 H   0  0  0  0  0  0  0  0  0  0  0  0
   56.7619   33.0388   51.9102 H   0  0  0  0  0  0  0  0  0  0  0  0
   61.5218   33.6607   47.8024 H   0  0  0  0  0  0  0  0  0  0  0  0
   60.7848   32.9088   45.5481 H   0  0  0  0  0  0  0  0  0  0  0  0
   59.8718   25.5953   46.7331 H   0  0  0  0  0  0  0  0  0  0  0  0
   58.5549   23.6482   45.9071 H   0  0  0  0  0  0  0  0  0  0  0  0
   56.1271   23.8977   45.4020 H   0  0  0  0  0  0  0  0  0  0  0  0
   54.0320   26.2680   46.4030 H   0  0  0  0  0  0  0  0  0  0  0  0
   56.3078   28.0606   46.5582 H   0  0  0  0  0  0  0  0  0  0  0  0
  1  2  2  0
  2  3  1  0
  3  4  1  0
  4  5  1  0
  5  6  2  0
  6  7  1  0
  7  8  1  0
  8  9  2  0
  9 10  1  0
 10 11  2  0
 10 12  1  0
 12 13  1  0
 13 14  2  0
 14 15  1  0
 15 16  2  0
 16 17  1  0
 17 18  2  0
 17 19  1  0
 19 20  2  3
 20 21  1  0
 21 22  2  0
 22 23  1  0
 23 24  1  0
 24 25  1  0
 24 26  2  0
 16 27  1  0
 27 28  2  0
  2 29  1  0
 29 30  2  0
 30 31  1  0
 31 32  2  0
 32 33  1  0
 33 34  1  0
 33 35  2  0
  9  5  1  0
 28 13  1  0
 35 29  1  0
 26 20  1  0
  3 36  1  0
  3 37  1  0
 14 38  1  0
 15 39  1  0
 21 40  1  0
 22 41  1  0
 26 42  1  0
 27 43  1  0
 28 44  1  0
 30 45  1  0
 31 46  1  0
 32 47  1  0
 34 48  1  0
 35 49  1  0
M  CHG  2  12  -1  23  -1
M  END
>  <UniqueID>  (56) 
52

>  <SMILES>  (56) 
O=C(CSc1nsnc1C(=O)[N-]c1ccc(C(=O)N=c2cc[n-]c(Cl)c2)cc1)c1cccc(O)c1

>  <Energy>  (56) 
102.59210788895142

>  <Genealogy>  (56) 
O=C(CSc1nsnc1C(=O)[N-]c1ccc(C(=O)N=c2cc[n-]c(Cl)c2)cc1)c1cccc(O)c1 (protonated)
O=C(CSc1nsnc1C(=O)[N-]c1ccc(C(=O)N=c2cc[n-]c(Cl)c2)cc1)c1cccc(O)c1 (3D coordinates assigned)
O=C(CSc1nsnc1C(=O)[N-]c1ccc(C(=O)N=c2cc[n-]c(Cl)c2)cc1)c1cccc(O)c1 (optimized conformer: 102.59210788895142 kcal/mol)

>  <smiles>  (56) 
O=C(CSc1nsnc1C(=O)Nc1ccc(C(=O)N=c2cc[nH]c(Cl)c2)cc1)c1cccc(O)c1

>  <score_type>  (56) 
oracle

>  <origin>  (56) 
adg

>  <m_score__min__energy>  (56) 
-13.57

>  <m_primary>  (56) 
energy

$$$$
56:0
     RDKit          3D

 43 44  0  0  0  0  0  0  0  0999 V2000
   59.7030   31.1460   48.8490 N   0  0  0  0  0  0  0  0  0  0  0  0
   60.0630   31.8720   47.6280 C   0  0  2  0  0  0  0  0  0  0  0  0
   59.8460   31.0090   46.4170 C   0  0  0  0  0  0  0  0  0  0  0  0
   60.7240   30.1650   46.0900 O   0  0  0  0  0  0  0  0  0  0  0  0
   58.6520   31.1100   45.6910 O   0  0  0  0  0  0  0  0  0  0  0  0
   58.3970   30.3820   44.4910 C   0  0  0  0  0  0  0  0  0  0  0  0
   56.9750   30.6390   43.9810 C   0  0  0  0  0  0  0  0  0  0  0  0
   56.1670   29.3410   43.8800 C   0  0  0  0  0  0  0  0  0  0  0  0
   55.8870   28.8120   45.2120 N   0  0  0  0  0  0  0  0  0  0  0  0
   56.2720   27.5010   45.6410 C   0  0  0  0  0  0  0  0  0  0  0  0
   55.4170   26.5730   45.6580 O   0  0  0  0  0  0  0  0  0  0  0  0
   57.6650   27.2340   46.0680 C   0  0  0  0  0  0  0  0  0  0  0  0
   58.3880   26.1570   45.5220 C   0  0  0  0  0  0  0  0  0  0  0  0
   59.7020   25.9080   45.9270 C   0  0  0  0  0  0  0  0  0  0  0  0
   60.3100   26.7270   46.8800 C   0  0  0  0  0  0  0  0  0  0  0  0
   59.6070   27.8010   47.4320 C   0  0  0  0  0  0  0  0  0  0  0  0
   60.2260   28.6100   48.3840 O   0  0  0  0  0  0  0  0  0  0  0  0
   58.2880   28.0540   47.0290 C   0  0  0  0  0  0  0  0  0  0  0  0
   61.4930   32.3750   47.6870 C   0  0  0  0  0  0  0  0  0  0  0  0
   62.3880   31.9070   48.6700 C   0  0  0  0  0  0  0  0  0  0  0  0
   63.7000   32.3870   48.7190 C   0  0  0  0  0  0  0  0  0  0  0  0
   64.1330   33.3400   47.7940 C   0  0  0  0  0  0  0  0  0  0  0  0
   63.2540   33.8150   46.8180 C   0  0  0  0  0  0  0  0  0  0  0  0
   61.9410   33.3380   46.7650 C   0  0  0  0  0  0  0  0  0  0  0  0
   60.5510   30.6420   49.1970 H   0  0  0  0  0  0  0  0  0  0  0  0
   58.9800   30.4200   48.6340 H   0  0  0  0  0  0  0  0  0  0  0  0
   59.4055   32.7503   47.5492 H   0  0  0  0  0  0  0  0  0  0  0  0
   59.1170   30.6956   43.7208 H   0  0  0  0  0  0  0  0  0  0  0  0
   58.5025   29.3082   44.7049 H   0  0  0  0  0  0  0  0  0  0  0  0
   56.4653   31.3233   44.6752 H   0  0  0  0  0  0  0  0  0  0  0  0
   57.0452   31.0789   42.9752 H   0  0  0  0  0  0  0  0  0  0  0  0
   55.2173   29.5443   43.3635 H   0  0  0  0  0  0  0  0  0  0  0  0
   56.7518   28.5990   43.3165 H   0  0  0  0  0  0  0  0  0  0  0  0
   57.9154   25.5067   44.7712 H   0  0  0  0  0  0  0  0  0  0  0  0
   60.2589   25.0642   45.4936 H   0  0  0  0  0  0  0  0  0  0  0  0
   61.3441   26.5266   47.1969 H   0  0  0  0  0  0  0  0  0  0  0  0
   60.7140   29.4580   48.1200 H   0  0  0  0  0  0  0  0  0  0  0  0
   57.7359   28.8989   47.4664 H   0  0  0  0  0  0  0  0  0  0  0  0
   62.0520   31.1592   49.4034 H   0  0  0  0  0  0  0  0  0  0  0  0
   64.3928   32.0135   49.4875 H   0  0  0  0  0  0  0  0  0  0  0  0
   65.1659   33.7162   47.8342 H   0  0  0  0  0  0  0  0  0  0  0  0
   63.5954   34.5656   46.0899 H   0  0  0  0  0  0  0  0  0  0  0  0
   61.2528   33.7189   45.9961 H   0  0  0  0  0  0  0  0  0  0  0  0
  1  2  1  0
  2  3  1  0
  3  4  2  0
  3  5  1  0
  5  6  1  0
  6  7  1  0
  7  8  1  0
  8  9  1  0
  9 10  1  0
 10 11  2  0
 10 12  1  0
 12 13  2  0
 13 14  1  0
 14 15  2  0
 15 16  1  0
 16 17  1  0
 16 18  2  0
  2 19  1  0
 19 20  2  0
 20 21  1  0
 21 22  2  0
 22 23  1  0
 23 24  2  0
 18 12  1  0
 24 19  1  0
  1 25  1  0
  1 26  1  0
  2 27  1  6
  6 28  1  0
  6 29  1  0
  7 30  1  0
  7 31  1  0
  8 32  1  0
  8 33  1  0
 13 34  1  0
 14 35  1  0
 15 36  1  0
 17 37  1  0
 18 38  1  0
 20 39  1  0
 21 40  1  0
 22 41  1  0
 23 42  1  0
 24 43  1  0
M  CHG  1   9  -1
M  END
>  <UniqueID>  (57) 
53

>  <SMILES>  (57) 
N[C@H](C(=O)OCCC[N-]C(=O)c1cccc(O)c1)c1ccccc1

>  <Energy>  (57) 
36.16707623522865

>  <Genealogy>  (57) 
NC(C(=O)OCCC[N-]C(=O)c1cccc(O)c1)c1ccccc1 (protonated)
N[C@H](C(=O)OCCC[N-]C(=O)c1cccc(O)c1)c1ccccc1 (chirality)
N[C@H](C(=O)OCCC[N-]C(=O)c1cccc(O)c1)c1ccccc1 (3D coordinates assigned)
N[C@H](C(=O)OCCC[N-]C(=O)c1cccc(O)c1)c1ccccc1 (optimized conformer: 36.16707623522865 kcal/mol)

>  <smiles>  (57) 
NC(C(=O)OCCCNC(=O)c1cccc(O)c1)c1ccccc1

>  <score_type>  (57) 
oracle

>  <origin>  (57) 
adg

>  <m_score__min__energy>  (57) 
-10.17

>  <m_primary>  (57) 
energy

$$$$
57:0
     RDKit          3D

 46 48  0  0  1  0  0  0  0  0999 V2000
   58.3250   34.4590   46.7010 C   0  0  0  0  0  0  0  0  0  0  0  0
   59.1640   34.0230   45.5090 C   0  0  0  0  0  0  0  0  0  0  0  0
   58.4400   33.0140   44.6860 C   0  0  0  0  0  0  0  0  0  0  0  0
   58.3680   33.1050   43.3480 N   0  0  0  0  0  0  0  0  0  0  0  0
   57.7110   32.1800   42.5850 C   0  0  0  0  0  0  0  0  0  0  0  0
   57.6700   32.3440   41.1130 C   0  0  0  0  0  0  0  0  0  0  0  0
   57.1020   31.1240   43.1900 C   0  0  0  0  0  0  0  0  0  0  0  0
   57.1850   31.0420   44.5840 C   0  0  0  0  0  0  0  0  0  0  0  0
   56.6400   30.0680   45.2170 N   0  0  0  0  0  0  0  0  0  0  0  0
   57.3660   28.9720   45.7560 C   0  0  0  0  0  0  0  0  0  0  0  0
   58.5790   29.1160   46.3710 C   0  0  0  0  0  0  0  0  0  0  0  0
   59.3030   28.0720   46.9060 C   0  0  0  0  0  0  0  0  0  0  0  0
   60.5200   28.2730   47.5130 O   0  0  0  0  0  0  0  0  0  0  0  0
   60.7080   29.0320   48.6920 C   0  0  0  0  0  0  0  0  0  0  0  0
   60.8440   30.4820   48.4640 C   0  0  0  0  0  0  0  0  0  0  0  0
   61.8560   30.9790   47.6350 C   0  0  0  0  0  0  0  0  0  0  0  0
   61.9730   32.3450   47.4370 C   0  0  0  0  0  0  0  0  0  0  0  0
   61.1020   33.1930   48.0560 C   0  0  0  0  0  0  0  0  0  0  0  0
   60.0970   32.7050   48.8790 C   0  0  0  0  0  0  0  0  0  0  0  0
   59.9630   31.3260   49.0900 C   0  0  0  0  0  0  0  0  0  0  0  0
   58.8970   30.7850   49.9600 C   0  0  0  0  0  0  0  0  0  0  0  0
   58.0170   31.7670   50.3710 F   0  0  0  0  0  0  0  0  0  0  0  0
   58.1620   29.8910   49.2040 F   0  0  0  0  0  0  0  0  0  0  0  0
   59.3960   30.0690   51.0270 F   0  0  0  0  0  0  0  0  0  0  0  0
   58.7470   26.8330   46.7990 N   0  0  0  0  0  0  0  0  0  0  0  0
   57.5420   26.6710   46.1910 C   0  0  0  0  0  0  0  0  0  0  0  0
   56.8650   27.7170   45.6800 N   0  0  0  0  0  0  0  0  0  0  0  0
   57.8360   31.9620   45.3150 N   0  0  0  0  0  0  0  0  0  0  0  0
   58.8438   34.1894   47.6328 H   0  0  0  0  0  0  0  0  0  0  0  0
   58.1765   35.5484   46.6660 H   0  0  0  0  0  0  0  0  0  0  0  0
   57.3482   33.9544   46.6660 H   0  0  0  0  0  0  0  0  0  0  0  0
   59.3876   34.9016   44.8860 H   0  0  0  0  0  0  0  0  0  0  0  0
   60.0934   33.5684   45.8826 H   0  0  0  0  0  0  0  0  0  0  0  0
   57.4100   33.3841   40.8671 H   0  0  0  0  0  0  0  0  0  0  0  0
   58.6561   32.1026   40.6896 H   0  0  0  0  0  0  0  0  0  0  0  0
   56.9135   31.6670   40.6896 H   0  0  0  0  0  0  0  0  0  0  0  0
   56.5646   30.3633   42.6047 H   0  0  0  0  0  0  0  0  0  0  0  0
   59.0035   30.1282   46.4433 H   0  0  0  0  0  0  0  0  0  0  0  0
   59.8424   28.8663   49.3502 H   0  0  0  0  0  0  0  0  0  0  0  0
   61.6547   28.6928   49.1378 H   0  0  0  0  0  0  0  0  0  0  0  0
   62.5557   30.2877   47.1426 H   0  0  0  0  0  0  0  0  0  0  0  0
   62.7637   32.7436   46.7844 H   0  0  0  0  0  0  0  0  0  0  0  0
   61.1976   34.2778   47.9007 H   0  0  0  0  0  0  0  0  0  0  0  0
   59.4023   33.4037   49.3680 H   0  0  0  0  0  0  0  0  0  0  0  0
   57.1100   25.6623   46.1147 H   0  0  0  0  0  0  0  0  0  0  0  0
   57.8770   31.8670   46.3560 H   0  0  0  0  0  0  0  0  0  0  0  0
  1  2  1  0
  2  3  1  0
  3  4  2  0
  4  5  1  0
  5  6  1  0
  5  7  2  0
  7  8  1  0
  8  9  2  0
  9 10  1  0
 10 11  2  0
 11 12  1  0
 12 13  1  0
 13 14  1  0
 14 15  1  0
 15 16  2  0
 16 17  1  0
 17 18  2  0
 18 19  1  0
 19 20  2  0
 20 21  1  0
 21 22  1  0
 21 23  1  0
 21 24  1  0
 12 25  2  0
 25 26  1  0
 26 27  2  0
  8 28  1  0
 28  3  1  0
 27 10  1  0
 20 15  1  0
  1 29  1  0
  1 30  1  0
  1 31  1  0
  2 32  1  0
  2 33  1  0
  6 34  1  0
  6 35  1  0
  6 36  1  0
  7 37  1  0
 11 38  1  0
 14 39  1  0
 14 40  1  0
 16 41  1  0
 17 42  1  0
 18 43  1  0
 19 44  1  0
 26 45  1  0
 28 46  1  0
M  END
>  <smiles>  (58) 
CCc1nc(C)cc(=Nc2cc(OCc3ccccc3C(F)(F)F)ncn2)[nH]1

>  <score_type>  (58) 
oracle

>  <origin>  (58) 
adg

>  <m_score__min__energy>  (58) 
-7.7300000000000004

>  <m_primary>  (58) 
energy

$$$$
58:0
     RDKit          3D

 38 40  0  0  0  0  0  0  0  0999 V2000
   57.2920   24.7470   43.4420 C   0  0  0  0  0  0  0  0  0  0  0  0
   57.7770   25.7800   44.1370 C   0  0  0  0  0  0  0  0  0  0  0  0
   58.0900   27.0940   43.4800 C   0  0  0  0  0  0  0  0  0  0  0  0
   57.8680   28.2000   44.4170 N   0  0  0  0  0  0  0  0  0  0  0  0
   58.7150   28.3590   45.5680 C   0  0  0  0  0  0  0  0  0  0  0  0
   59.9040   29.0990   45.4780 C   0  0  0  0  0  0  0  0  0  0  0  0
   60.7310   29.2420   46.5970 C   0  0  0  0  0  0  0  0  0  0  0  0
   60.3760   28.6500   47.8110 C   0  0  0  0  0  0  0  0  0  0  0  0
   59.1930   27.9120   47.9090 C   0  0  0  0  0  0  0  0  0  0  0  0
   58.3640   27.7650   46.7930 C   0  0  0  0  0  0  0  0  0  0  0  0
   56.7160   29.4370   44.0100 S   0  0  0  0  0  0  0  0  0  0  0  0
   55.4930   29.2740   44.8690 O   0  0  0  0  0  0  0  0  0  0  0  0
   56.3180   29.3220   42.5640 O   0  0  0  0  0  0  0  0  0  0  0  0
   57.4420   31.0220   44.2570 C   0  0  0  0  0  0  0  0  0  0  0  0
   57.7770   31.8140   43.1340 C   0  0  0  0  0  0  0  0  0  0  0  0
   58.3670   33.0780   43.3020 C   0  0  0  0  0  0  0  0  0  0  0  0
   58.6100   33.5280   44.5970 C   0  0  0  0  0  0  0  0  0  0  0  0
   58.2780   32.7550   45.6950 C   0  0  0  0  0  0  0  0  0  0  0  0
   57.6940   31.4980   45.5600 C   0  0  0  0  0  0  0  0  0  0  0  0
   58.6520   33.5010   46.8860 C   0  0  0  0  0  0  0  0  0  0  0  0
   58.5090   33.1460   48.0840 O   0  0  0  0  0  0  0  0  0  0  0  0
   59.2190   34.7500   46.3960 C   0  0  0  0  0  0  0  0  0  0  0  0
   59.6670   35.6840   47.1100 O   0  0  0  0  0  0  0  0  0  0  0  0
   59.1970   34.7750   44.9700 N   0  0  0  0  0  0  0  0  0  0  0  0
   57.0722   23.7967   43.9505 H   0  0  0  0  0  0  0  0  0  0  0  0
   57.1125   24.8469   42.3614 H   0  0  0  0  0  0  0  0  0  0  0  0
   57.9514   25.6653   45.2170 H   0  0  0  0  0  0  0  0  0  0  0  0
   59.1420   27.0970   43.1586 H   0  0  0  0  0  0  0  0  0  0  0  0
   57.4287   27.2247   42.6108 H   0  0  0  0  0  0  0  0  0  0  0  0
   60.1866   29.5682   44.5241 H   0  0  0  0  0  0  0  0  0  0  0  0
   61.6627   29.8218   46.5206 H   0  0  0  0  0  0  0  0  0  0  0  0
   61.0273   28.7645   48.6900 H   0  0  0  0  0  0  0  0  0  0  0  0
   58.9139   27.4462   48.8656 H   0  0  0  0  0  0  0  0  0  0  0  0
   57.4342   27.1828   46.8735 H   0  0  0  0  0  0  0  0  0  0  0  0
   57.5739   31.4372   42.1207 H   0  0  0  0  0  0  0  0  0  0  0  0
   58.6305   33.6970   42.4317 H   0  0  0  0  0  0  0  0  0  0  0  0
   57.4371   30.8947   46.4432 H   0  0  0  0  0  0  0  0  0  0  0  0
   59.5310   35.5370   44.3400 H   0  0  0  0  0  0  0  0  0  0  0  0
  1  2  2  0
  2  3  1  0
  3  4  1  0
  4  5  1  0
  5  6  2  0
  6  7  1  0
  7  8  2  0
  8  9  1  0
  9 10  2  0
  4 11  1  0
 11 12  2  0
 11 13  2  0
 11 14  1  0
 14 15  2  0
 15 16  1  0
 16 17  2  0
 17 18  1  0
 18 19  2  0
 18 20  1  0
 20 21  2  0
 20 22  1  0
 22 23  2  0
 22 24  1  0
 10  5  1  0
 19 14  1  0
 24 17  1  0
  1 25  1  0
  1 26  1  0
  2 27  1  0
  3 28  1  0
  3 29  1  0
  6 30  1  0
  7 31  1  0
  8 32  1  0
  9 33  1  0
 10 34  1  0
 15 35  1  0
 16 36  1  0
 19 37  1  0
 24 38  1  0
M  END
>  <UniqueID>  (59) 
54

>  <SMILES>  (59) 
C=CCN(c1ccccc1)S(=O)(=O)c1ccc2c(c1)C(=O)C(=O)N2

>  <Energy>  (59) 
74.2137861829955

>  <Genealogy>  (59) 
C=CCN(c1ccccc1)S(=O)(=O)c1ccc2c(c1)C(=O)C(=O)N2 (3D coordinates assigned)
C=CCN(c1ccccc1)S(=O)(=O)c1ccc2c(c1)C(=O)C(=O)N2 (nonaromatic ring conformer: 74.2137861829955 kcal/mol)

>  <smiles>  (59) 
C=CCN(c1ccccc1)S(=O)(=O)c1ccc2c(c1)C(=O)C(=O)N2

>  <score_type>  (59) 
oracle

>  <origin>  (59) 
adg

>  <m_score__min__energy>  (59) 
-8.4199999999999999

>  <m_primary>  (59) 
energy

$$$$
59:0
     RDKit          3D

 41 42  0  0  0  0  0  0  0  0999 V2000
   55.5070   30.4500   52.7090 C   0  0  0  0  0  0  0  0  0  0  0  0
   56.6460   29.9950   51.9870 O   0  0  0  0  0  0  0  0  0  0  0  0
   57.6260   30.8370   51.4410 C   0  0  0  0  0  0  0  0  0  0  0  0
   58.4930   30.3110   50.4750 C   0  0  0  0  0  0  0  0  0  0  0  0
   59.4820   31.1120   49.8980 C   0  0  0  0  0  0  0  0  0  0  0  0
   59.6060   32.4610   50.2660 C   0  0  0  0  0  0  0  0  0  0  0  0
   60.6130   33.3000   49.6780 N   0  0  0  0  0  0  0  0  0  0  0  0
   60.9350   33.3070   48.2760 C   0  0  0  0  0  0  0  0  0  0  0  0
   62.4310   33.8420   47.8370 S   0  0  0  0  0  0  0  0  0  0  0  0
   59.8900   33.1280   47.2800 N   0  0  0  0  0  0  0  0  0  0  0  0
   60.3320   33.5600   45.9290 C   0  0  0  0  0  0  0  0  0  0  0  0
   59.1790   34.0680   45.0350 C   0  0  0  0  0  0  0  0  0  0  0  0
   57.8770   33.4390   45.3290 N   0  0  0  0  0  0  0  0  0  0  0  0
   57.6380   31.9090   44.5100 S   0  0  0  0  0  0  0  0  0  0  0  0
   57.7710   32.0230   42.7340 C   0  0  0  0  0  0  0  0  0  0  0  0
   56.2830   31.3580   44.8530 O   0  0  0  0  0  0  0  0  0  0  0  0
   58.6800   30.9390   44.9930 O   0  0  0  0  0  0  0  0  0  0  0  0
   57.4950   33.4060   46.7570 C   0  0  0  0  0  0  0  0  0  0  0  0
   58.6460   33.7980   47.6990 C   0  0  0  0  0  0  0  0  0  0  0  0
   58.7590   32.9840   51.2520 C   0  0  0  0  0  0  0  0  0  0  0  0
   57.7700   32.1820   51.8310 C   0  0  0  0  0  0  0  0  0  0  0  0
   55.7021   30.3721   53.7887 H   0  0  0  0  0  0  0  0  0  0  0  0
   55.3025   31.4989   52.4481 H   0  0  0  0  0  0  0  0  0  0  0  0
   54.6361   29.8307   52.4481 H   0  0  0  0  0  0  0  0  0  0  0  0
   58.3947   29.2593   50.1681 H   0  0  0  0  0  0  0  0  0  0  0  0
   60.1669   30.6833   49.1516 H   0  0  0  0  0  0  0  0  0  0  0  0
   61.1220   33.9650   50.3050 H   0  0  0  0  0  0  0  0  0  0  0  0
   59.6700   32.1090   47.2270 H   0  0  0  0  0  0  0  0  0  0  0  0
   61.0652   34.3717   46.0458 H   0  0  0  0  0  0  0  0  0  0  0  0
   60.7612   32.6775   45.4321 H   0  0  0  0  0  0  0  0  0  0  0  0
   59.0803   35.1539   45.1798 H   0  0  0  0  0  0  0  0  0  0  0  0
   59.4362   33.8035   43.9987 H   0  0  0  0  0  0  0  0  0  0  0  0
   58.5819   32.7181   42.4709 H   0  0  0  0  0  0  0  0  0  0  0  0
   57.9910   31.0287   42.3182 H   0  0  0  0  0  0  0  0  0  0  0  0
   56.8220   32.3925   42.3182 H   0  0  0  0  0  0  0  0  0  0  0  0
   56.6613   34.1065   46.9126 H   0  0  0  0  0  0  0  0  0  0  0  0
   57.2131   32.3702   46.9971 H   0  0  0  0  0  0  0  0  0  0  0  0
   58.7898   34.8880   47.6646 H   0  0  0  0  0  0  0  0  0  0  0  0
   58.3958   33.4871   48.7241 H   0  0  0  0  0  0  0  0  0  0  0  0
   58.8723   34.0302   51.5723 H   0  0  0  0  0  0  0  0  0  0  0  0
   57.1011   32.6045   52.5952 H   0  0  0  0  0  0  0  0  0  0  0  0
  1  2  1  0
  2  3  1  0
  3  4  2  0
  4  5  1  0
  5  6  2  0
  6  7  1  0
  7  8  1  0
  8  9  2  0
  8 10  1  0
 10 11  1  0
 11 12  1  0
 12 13  1  0
 13 14  1  0
 14 15  1  0
 14 16  2  0
 14 17  2  0
 13 18  1  0
 18 19  1  0
  6 20  1  0
 20 21  2  0
 21  3  1  0
 19 10  1  0
  1 22  1  0
  1 23  1  0
  1 24  1  0
  4 25  1  0
  5 26  1  0
  7 27  1  0
 10 28  1  0
 11 29  1  0
 11 30  1  0
 12 31  1  0
 12 32  1  0
 15 33  1  0
 15 34  1  0
 15 35  1  0
 18 36  1  0
 18 37  1  0
 19 38  1  0
 19 39  1  0
 20 40  1  0
 21 41  1  0
M  CHG  1  10   1
M  END
>  <UniqueID>  (60) 
55

>  <SMILES>  (60) 
COc1ccc(NC(=S)[NH+]2CCN(S(C)(=O)=O)CC2)cc1

>  <Energy>  (60) 
54.57759138327416

>  <Genealogy>  (60) 
COc1ccc(NC(=S)[NH+]2CCN(S(C)(=O)=O)CC2)cc1 (protonated)
COc1ccc(NC(=S)[NH+]2CCN(S(C)(=O)=O)CC2)cc1 (3D coordinates assigned)
COc1ccc(NC(=S)[NH+]2CCN(S(C)(=O)=O)CC2)cc1 (nonaromatic ring conformer: 54.57759138327416 kcal/mol)

>  <smiles>  (60) 
COc1ccc(NC(=S)N2CCN(S(C)(=O)=O)CC2)cc1

>  <score_type>  (60) 
oracle

>  <origin>  (60) 
adg

>  <m_score__min__energy>  (60) 
-5.5899999999999999

>  <m_primary>  (60) 
energy

$$$$
60:0
     RDKit          3D

 48 50  0  0  1  0  0  0  0  0999 V2000
   56.6710   31.6030   45.0750 O   0  0  0  0  0  0  0  0  0  0  0  0
   58.1710   31.5260   45.3040 S   0  0  0  0  0  0  0  0  0  0  0  0
   58.7960   30.9540   44.0770 O   0  0  0  0  0  0  0  0  0  0  0  0
   58.5150   30.4830   46.7140 C   0  0  0  0  0  0  0  0  0  0  0  0
   60.0060   30.4740   46.9360 C   0  0  0  0  0  0  0  0  0  0  0  0
   60.7270   29.4710   46.0380 C   0  0  0  0  0  0  0  0  0  0  0  0
   59.8060   28.4260   45.8290 N   0  0  0  0  0  0  0  0  0  0  0  0
   59.4690   28.0490   44.5120 C   0  0  0  0  0  0  0  0  0  0  0  0
   58.1460   27.4050   44.3670 C   0  0  2  0  0  0  0  0  0  0  0  0
   57.0990   28.4610   44.3060 C   0  0  0  0  0  0  0  0  0  0  0  0
   57.0530   29.3310   43.2020 O   0  0  0  0  0  0  0  0  0  0  0  0
   56.2130   28.6440   45.2090 N   0  0  0  0  0  0  0  0  0  0  0  0
   55.1700   29.5000   44.9630 O   0  0  0  0  0  0  0  0  0  0  0  0
   57.7710   26.4500   45.4130 C   0  0  0  0  0  0  0  0  0  0  0  0
   56.5670   25.7850   45.2890 C   0  0  0  0  0  0  0  0  0  0  0  0
   56.1730   24.8770   46.2490 C   0  0  0  0  0  0  0  0  0  0  0  0
   56.9330   24.5820   47.3640 C   0  0  0  0  0  0  0  0  0  0  0  0
   58.1360   25.2460   47.4890 C   0  0  0  0  0  0  0  0  0  0  0  0
   58.5300   26.1560   46.5260 C   0  0  0  0  0  0  0  0  0  0  0  0
   60.0850   26.9860   46.7300 S   0  0  0  0  0  0  0  0  0  0  0  0
   61.1350   26.1180   46.1110 O   0  0  0  0  0  0  0  0  0  0  0  0
   60.3730   27.3410   48.1340 O   0  0  0  0  0  0  0  0  0  0  0  0
   58.7360   33.1350   45.6700 C   0  0  0  0  0  0  0  0  0  0  0  0
   58.8780   34.0960   44.6950 C   0  0  0  0  0  0  0  0  0  0  0  0
   59.3250   35.3370   45.0500 C   0  0  0  0  0  0  0  0  0  0  0  0
   59.6350   35.6390   46.3620 C   0  0  0  0  0  0  0  0  0  0  0  0
   59.4920   34.6860   47.3230 C   0  0  0  0  0  0  0  0  0  0  0  0
   59.0470   33.4380   46.9980 C   0  0  0  0  0  0  0  0  0  0  0  0
   58.0076   30.8811   47.6051 H   0  0  0  0  0  0  0  0  0  0  0  0
   58.1504   29.4615   46.5309 H   0  0  0  0  0  0  0  0  0  0  0  0
   60.3994   31.4799   46.7276 H   0  0  0  0  0  0  0  0  0  0  0  0
   60.1858   30.1765   47.9796 H   0  0  0  0  0  0  0  0  0  0  0  0
   61.0015   29.9391   45.0812 H   0  0  0  0  0  0  0  0  0  0  0  0
   61.6594   29.1089   46.4957 H   0  0  0  0  0  0  0  0  0  0  0  0
   59.4795   28.9526   43.8848 H   0  0  0  0  0  0  0  0  0  0  0  0
   60.2124   27.2978   44.2069 H   0  0  0  0  0  0  0  0  0  0  0  0
   58.2235   26.8136   43.4427 H   0  0  0  0  0  0  0  0  0  0  0  0
   56.8660   30.3160   43.3480 H   0  0  0  0  0  0  0  0  0  0  0  0
   55.1850   30.2280   44.2870 H   0  0  0  0  0  0  0  0  0  0  0  0
   55.9199   25.9804   44.4212 H   0  0  0  0  0  0  0  0  0  0  0  0
   55.2086   24.3637   46.1209 H   0  0  0  0  0  0  0  0  0  0  0  0
   56.5956   23.8532   48.1157 H   0  0  0  0  0  0  0  0  0  0  0  0
   58.7830   25.0508   48.3569 H   0  0  0  0  0  0  0  0  0  0  0  0
   58.6354   33.8683   43.6465 H   0  0  0  0  0  0  0  0  0  0  0  0
   59.4403   36.1106   44.2765 H   0  0  0  0  0  0  0  0  0  0  0  0
   59.9952   36.6437   46.6283 H   0  0  0  0  0  0  0  0  0  0  0  0
   59.7369   34.9236   48.3688 H   0  0  0  0  0  0  0  0  0  0  0  0
   58.9333   32.6722   47.7795 H   0  0  0  0  0  0  0  0  0  0  0  0
  1  2  2  0
  2  3  2  0
  2  4  1  0
  4  5  1  0
  5  6  1  0
  6  7  1  0
  7  8  1  0
  8  9  1  0
  9 10  1  0
 10 11  1  0
 10 12  2  0
 12 13  1  0
  9 14  1  0
 14 15  2  0
 15 16  1  0
 16 17  2  0
 17 18  1  0
 18 19  2  0
 19 20  1  0
 20 21  2  0
 20 22  2  0
  2 23  1  0
 23 24  2  0
 24 25  1  0
 25 26  2  0
 26 27  1  0
 27 28  2  0
 20  7  1  0
 28 23  1  0
 19 14  1  0
  4 29  1  0
  4 30  1  0
  5 31  1  0
  5 32  1  0
  6 33  1  0
  6 34  1  0
  8 35  1  0
  8 36  1  0
  9 37  1  6
 11 38  1  0
 13 39  1  0
 15 40  1  0
 16 41  1  0
 17 42  1  0
 18 43  1  0
 24 44  1  0
 25 45  1  0
 26 46  1  0
 27 47  1  0
 28 48  1  0
M  END
>  <smiles>  (61) 
O=S(=O)(CCCN1CC(C(O)=NO)c2ccccc2S1(=O)=O)c1ccccc1

>  <score_type>  (61) 
oracle

>  <origin>  (61) 
adg

>  <m_score__min__energy>  (61) 
-10.800000000000001

>  <m_primary>  (61) 
energy

$$$$
61:0
     RDKit          3D

 37 39  0  0  0  0  0  0  0  0999 V2000
   56.0030   26.3370   46.5140 O   0  0  0  0  0  0  0  0  0  0  0  0
   56.5560   27.0350   45.6190 C   0  0  0  0  0  0  0  0  0  0  0  0
   56.3040   28.4420   45.5410 N   0  0  0  0  0  0  0  0  0  0  0  0
   56.5160   29.3550   44.0880 S   0  0  0  0  0  0  0  0  0  0  0  0
   57.3130   28.5640   43.0920 O   0  0  0  0  0  0  0  0  0  0  0  0
   55.1680   29.6470   43.4920 O   0  0  0  0  0  0  0  0  0  0  0  0
   57.3410   30.8620   44.4740 C   0  0  0  0  0  0  0  0  0  0  0  0
   57.5150   31.8500   43.4960 C   0  0  0  0  0  0  0  0  0  0  0  0
   58.1340   33.0610   43.8150 C   0  0  0  0  0  0  0  0  0  0  0  0
   58.5760   33.3040   45.1230 C   0  0  0  0  0  0  0  0  0  0  0  0
   59.1790   34.5260   45.4610 C   0  0  0  0  0  0  0  0  0  0  0  0
   59.6050   34.7600   46.7740 C   0  0  0  0  0  0  0  0  0  0  0  0
   59.4380   33.7770   47.7530 C   0  0  0  0  0  0  0  0  0  0  0  0
   58.8410   32.5550   47.4280 C   0  0  0  0  0  0  0  0  0  0  0  0
   58.4020   32.3090   46.1160 C   0  0  0  0  0  0  0  0  0  0  0  0
   57.7900   31.0930   45.7810 C   0  0  0  0  0  0  0  0  0  0  0  0
   57.4070   26.4110   44.6450 N   0  0  0  0  0  0  0  0  0  0  0  0
   57.9440   25.1340   45.1480 C   0  0  0  0  0  0  0  0  0  0  0  0
   57.4070   23.9530   44.3880 C   0  0  0  0  0  0  0  0  0  0  0  0
   57.7640   22.6320   44.5830 C   0  0  0  0  0  0  0  0  0  0  0  0
   57.0450   21.9170   43.6500 C   0  0  0  0  0  0  0  0  0  0  0  0
   56.2930   22.8400   42.9530 C   0  0  0  0  0  0  0  0  0  0  0  0
   56.5320   24.0450   43.4140 O   0  0  0  0  0  0  0  0  0  0  0  0
   57.1617   31.6709   42.4698 H   0  0  0  0  0  0  0  0  0  0  0  0
   58.2750   33.8262   43.0375 H   0  0  0  0  0  0  0  0  0  0  0  0
   59.3170   35.3011   44.6927 H   0  0  0  0  0  0  0  0  0  0  0  0
   60.0726   35.7206   47.0357 H   0  0  0  0  0  0  0  0  0  0  0  0
   59.7772   33.9650   48.7824 H   0  0  0  0  0  0  0  0  0  0  0  0
   58.7146   31.7837   48.2020 H   0  0  0  0  0  0  0  0  0  0  0  0
   57.6616   30.3157   46.5487 H   0  0  0  0  0  0  0  0  0  0  0  0
   58.2070   27.0550   44.4340 H   0  0  0  0  0  0  0  0  0  0  0  0
   56.8740   26.2500   43.7570 H   0  0  0  0  0  0  0  0  0  0  0  0
   59.0397   25.1483   45.0523 H   0  0  0  0  0  0  0  0  0  0  0  0
   57.6351   25.0283   46.1984 H   0  0  0  0  0  0  0  0  0  0  0  0
   58.4720   22.2355   45.3256 H   0  0  0  0  0  0  0  0  0  0  0  0
   57.0663   20.8285   43.4925 H   0  0  0  0  0  0  0  0  0  0  0  0
   55.5980   22.6017   42.1344 H   0  0  0  0  0  0  0  0  0  0  0  0
  1  2  2  0
  2  3  1  0
  3  4  1  0
  4  5  2  0
  4  6  2  0
  4  7  1  0
  7  8  2  0
  8  9  1  0
  9 10  2  0
 10 11  1  0
 11 12  2  0
 12 13  1  0
 13 14  2  0
 14 15  1  0
 15 16  2  0
  2 17  1  0
 17 18  1  0
 18 19  1  0
 19 20  2  0
 20 21  1  0
 21 22  2  0
 22 23  1  0
 16  7  1  0
 23 19  1  0
 15 10  1  0
  8 24  1  0
  9 25  1  0
 11 26  1  0
 12 27  1  0
 13 28  1  0
 14 29  1  0
 16 30  1  0
 17 31  1  0
 17 32  1  0
 18 33  1  0
 18 34  1  0
 20 35  1  0
 21 36  1  0
 22 37  1  0
M  CHG  2   3  -1  17   1
M  END
>  <UniqueID>  (62) 
56

>  <SMILES>  (62) 
O=C([N-]S(=O)(=O)c1ccc2ccccc2c1)[NH2+]Cc1ccco1

>  <Energy>  (62) 
66.70264739375536

>  <Genealogy>  (62) 
O=C([N-]S(=O)(=O)c1ccc2ccccc2c1)[NH2+]Cc1ccco1 (protonated)
O=C([N-]S(=O)(=O)c1ccc2ccccc2c1)[NH2+]Cc1ccco1 (3D coordinates assigned)
O=C([N-]S(=O)(=O)c1ccc2ccccc2c1)[NH2+]Cc1ccco1 (optimized conformer: 66.70264739375536 kcal/mol)

>  <smiles>  (62) 
O=C(NCc1ccco1)NS(=O)(=O)c1ccc2ccccc2c1

>  <score_type>  (62) 
oracle

>  <origin>  (62) 
adg

>  <m_score__min__energy>  (62) 
-8.2699999999999996

>  <m_primary>  (62) 
energy

$$$$
62:0
     RDKit          3D

 25 26  0  0  0  0  0  0  0  0999 V2000
   56.7090   22.3470   48.7150 H   0  0  0  0  0  0  0  0  0  0  0  0
   57.0070   22.7000   47.7770 N   0  0  0  0  0  0  0  0  0  0  0  0
   56.3010   23.5660   47.1270 C   0  0  0  0  0  0  0  0  0  0  0  0
   55.1640   23.1750   46.4990 N   0  0  0  0  0  0  0  0  0  0  0  0
   54.4180   24.0810   45.8170 C   0  0  0  0  0  0  0  0  0  0  0  0
   53.2200   23.6710   45.1620 N   0  0  0  0  0  0  0  0  0  0  0  0
   52.8360   24.2260   44.3660 H   0  0  0  0  0  0  0  0  0  0  0  0
   52.7150   22.8110   45.4730 H   0  0  0  0  0  0  0  0  0  0  0  0
   54.8120   25.3790   45.7620 N   0  0  0  0  0  0  0  0  0  0  0  0
   55.9540   25.7760   46.3790 C   0  0  0  0  0  0  0  0  0  0  0  0
   56.2990   27.0290   46.3320 N   0  0  0  0  0  0  0  0  0  0  0  0
   57.5620   27.5600   45.8880 C   0  0  0  0  0  0  0  0  0  0  0  0
   58.7480   26.8240   46.0820 C   0  0  0  0  0  0  0  0  0  0  0  0
   58.7094   25.8578   46.6064 H   0  0  0  0  0  0  0  0  0  0  0  0
   59.9700   27.3080   45.6160 C   0  0  0  0  0  0  0  0  0  0  0  0
   60.8911   26.7317   45.7878 H   0  0  0  0  0  0  0  0  0  0  0  0
   60.0250   28.5210   44.9330 C   0  0  0  0  0  0  0  0  0  0  0  0
   60.9909   28.9049   44.5728 H   0  0  0  0  0  0  0  0  0  0  0  0
   58.8570   29.2500   44.7050 C   0  0  0  0  0  0  0  0  0  0  0  0
   58.9097   30.2025   44.1573 H   0  0  0  0  0  0  0  0  0  0  0  0
   57.6120   28.7820   45.1670 C   0  0  0  0  0  0  0  0  0  0  0  0
   56.3970   29.5970   44.8950 C   0  0  0  0  0  0  0  0  0  0  0  0
   56.4750   30.8370   44.6880 O   0  0  0  0  0  0  0  0  0  0  0  0
   55.1440   28.9950   44.8560 O   0  0  0  0  0  0  0  0  0  0  0  0
   56.6930   24.8650   47.0700 N   0  0  0  0  0  0  0  0  0  0  0  0
  1  2  1  0
  2  3  2  0
  3  4  1  0
  4  5  1  0
  5  6  1  0
  6  7  1  0
  6  8  1  0
  5  9  2  0
  9 10  1  0
 10 11  2  3
 11 12  1  0
 12 13  2  0
 13 14  1  0
 13 15  1  0
 15 16  1  0
 15 17  2  0
 17 18  1  0
 17 19  1  0
 19 20  1  0
 19 21  2  0
 21 22  1  0
 22 23  2  0
 22 24  1  0
 10 25  1  0
 25  3  1  0
 21 12  1  0
M  CHG  3   4  -1  24  -1  25  -1
M  END
>  <UniqueID>  (63) 
57

>  <SMILES>  (63) 
[H]/N=c1/[n-]c(N)nc(=Nc2ccccc2C(=O)[O-])[n-]1

>  <Energy>  (63) 
34.09833418496348

>  <Genealogy>  (63) 
N=c1[n-]c(N)nc(=Nc2ccccc2C(=O)[O-])[n-]1 (protonated)
[H]/N=c1/[n-]c(N)nc(=Nc2ccccc2C(=O)[O-])[n-]1 (cis-trans isomerization)
[H]/N=c1/[n-]c(N)nc(=Nc2ccccc2C(=O)[O-])[n-]1 (3D coordinates assigned)
[H]/N=c1/[n-]c(N)nc(=Nc2ccccc2C(=O)[O-])[n-]1 (optimized conformer: 34.09833418496348 kcal/mol)

>  <smiles>  (63) 
N=c1[nH]c(N)nc(=Nc2ccccc2C(=O)O)[nH]1

>  <score_type>  (63) 
oracle

>  <origin>  (63) 
adg

>  <m_score__min__energy>  (63) 
-11.98

>  <m_primary>  (63) 
energy

$$$$
63:0
     RDKit          3D

 43 45  0  0  0  0  0  0  0  0999 V2000
   59.9803   26.9210   45.3138 H   0  0  0  0  0  0  0  0  0  0  0  0
   58.8960   26.8790   45.4940 C   0  0  0  0  0  0  0  0  0  0  0  0
   58.1240   27.9700   45.2460 N   0  0  0  0  0  0  0  0  0  0  0  0
   56.7780   27.9810   45.4530 C   0  0  0  0  0  0  0  0  0  0  0  0
   56.1360   29.0880   45.1950 N   0  0  0  0  0  0  0  0  0  0  0  0
   56.5410   30.1990   44.3800 C   0  0  0  0  0  0  0  0  0  0  0  0
   56.1050   30.3020   43.1990 O   0  0  0  0  0  0  0  0  0  0  0  0
   57.3700   31.2830   44.9590 C   0  0  0  0  0  0  0  0  0  0  0  0
   58.2690   31.0110   46.0050 C   0  0  0  0  0  0  0  0  0  0  0  0
   58.3623   29.9853   46.3913 H   0  0  0  0  0  0  0  0  0  0  0  0
   59.0450   32.0330   46.5580 C   0  0  0  0  0  0  0  0  0  0  0  0
   59.7488   31.8070   47.3726 H   0  0  0  0  0  0  0  0  0  0  0  0
   58.9300   33.3440   46.0790 C   0  0  0  0  0  0  0  0  0  0  0  0
   59.8980   34.6320   46.7870 S   0  0  0  0  0  0  0  0  0  0  0  0
   59.8030   35.8810   45.9530 O   0  0  0  0  0  0  0  0  0  0  0  0
   59.3820   34.9270   48.1670 O   0  0  0  0  0  0  0  0  0  0  0  0
   61.5630   34.1490   46.8940 N   0  0  0  0  0  0  0  0  0  0  0  0
   62.1090   34.1800   46.0030 H   0  0  0  0  0  0  0  0  0  0  0  0
   62.1960   33.6820   48.1030 C   0  0  0  0  0  0  0  0  0  0  0  0
   62.3840   34.5390   49.2080 C   0  0  0  0  0  0  0  0  0  0  0  0
   62.0327   35.5801   49.1566 H   0  0  0  0  0  0  0  0  0  0  0  0
   63.0120   34.0770   50.3660 C   0  0  0  0  0  0  0  0  0  0  0  0
   63.1558   34.7550   51.2202 H   0  0  0  0  0  0  0  0  0  0  0  0
   63.4570   32.7590   50.4420 C   0  0  0  0  0  0  0  0  0  0  0  0
   63.9483   32.3979   51.3575 H   0  0  0  0  0  0  0  0  0  0  0  0
   63.2810   31.8950   49.3590 C   0  0  0  0  0  0  0  0  0  0  0  0
   63.6352   30.8557   49.4255 H   0  0  0  0  0  0  0  0  0  0  0  0
   62.6520   32.3470   48.1810 C   0  0  0  0  0  0  0  0  0  0  0  0
   62.4670   31.4960   47.0760 O   0  0  0  0  0  0  0  0  0  0  0  0
   61.5260   30.4270   47.0280 C   0  0  0  0  0  0  0  0  0  0  0  0
   61.2608   30.1257   48.0522 H   0  0  0  0  0  0  0  0  0  0  0  0
   60.6212   30.7585   46.4974 H   0  0  0  0  0  0  0  0  0  0  0  0
   61.9696   29.5716   46.4974 H   0  0  0  0  0  0  0  0  0  0  0  0
   58.0360   33.6250   45.0380 C   0  0  0  0  0  0  0  0  0  0  0  0
   57.9441   34.6529   44.6572 H   0  0  0  0  0  0  0  0  0  0  0  0
   57.2600   32.6040   44.4810 C   0  0  0  0  0  0  0  0  0  0  0  0
   56.5593   32.8333   43.6646 H   0  0  0  0  0  0  0  0  0  0  0  0
   56.1490   26.7860   45.8960 C   0  0  0  0  0  0  0  0  0  0  0  0
   54.7700   26.6670   46.0160 O   0  0  0  0  0  0  0  0  0  0  0  0
   56.9370   25.6640   46.1730 C   0  0  0  0  0  0  0  0  0  0  0  0
   56.4664   24.7431   46.5479 H   0  0  0  0  0  0  0  0  0  0  0  0
   58.3160   25.7080   45.9760 C   0  0  0  0  0  0  0  0  0  0  0  0
   58.9386   24.8289   46.1984 H   0  0  0  0  0  0  0  0  0  0  0  0
  1  2  1  0
  2  3  1  0
  3  4  1  0
  4  5  2  0
  5  6  1  0
  6  7  2  0
  6  8  1  0
  8  9  2  0
  9 10  1  0
  9 11  1  0
 11 12  1  0
 11 13  2  0
 13 14  1  0
 14 15  2  0
 14 16  2  0
 14 17  1  0
 17 18  1  0
 17 19  1  0
 19 20  2  0
 20 21  1  0
 20 22  1  0
 22 23  1  0
 22 24  2  0
 24 25  1  0
 24 26  1  0
 26 27  1  0
 26 28  2  0
 28 29  1  0
 29 30  1  0
 30 31  1  0
 30 32  1  0
 30 33  1  0
 13 34  1  0
 34 35  1  0
 34 36  2  0
 36 37  1  0
  4 38  1  0
 38 39  1  0
 38 40  2  0
 40 41  1  0
 40 42  1  0
 42 43  1  0
 42  2  2  0
 36  8  1  0
 28 19  1  0
M  CHG  2   3  -1  39  -1
M  END
>  <UniqueID>  (64) 
58

>  <SMILES>  (64) 
COc1ccccc1NS(=O)(=O)c1ccc(C(=O)/N=c2/[n-]cccc2[O-])cc1

>  <Energy>  (64) 
62.51072832324623

>  <Genealogy>  (64) 
COc1ccccc1NS(=O)(=O)c1ccc(C(=O)N=c2[n-]cccc2[O-])cc1 (protonated)
COc1ccccc1NS(=O)(=O)c1ccc(C(=O)/N=c2/[n-]cccc2[O-])cc1 (cis-trans isomerization)
COc1ccccc1NS(=O)(=O)c1ccc(C(=O)/N=c2/[n-]cccc2[O-])cc1 (3D coordinates assigned)
COc1ccccc1NS(=O)(=O)c1ccc(C(=O)/N=c2/[n-]cccc2[O-])cc1 (optimized conformer: 62.51072832324623 kcal/mol)

>  <smiles>  (64) 
COc1ccccc1NS(=O)(=O)c1ccc(C(=O)N=c2[nH]cccc2O)cc1

>  <score_type>  (64) 
oracle

>  <origin>  (64) 
adg

>  <m_score__min__energy>  (64) 
-13.890000000000001

>  <m_primary>  (64) 
energy

$$$$
64:0
     RDKit          3D

 45 48  0  0  1  0  0  0  0  0999 V2000
   59.9230   35.6780   45.6210 O   0  0  0  0  0  0  0  0  0  0  0  0
   59.2640   34.7200   46.0310 C   0  0  0  0  0  0  0  0  0  0  0  0
   57.8660   34.5820   45.4740 C   0  0  0  0  0  0  0  0  0  0  0  0
   57.3270   33.3610   46.0370 N   0  0  0  0  0  0  0  0  0  0  0  0
   57.6150   32.2500   45.4550 C   0  0  0  0  0  0  0  0  0  0  0  0
   57.1900   32.0750   44.1770 N   0  0  0  0  0  0  0  0  0  0  0  0
   57.4660   30.9300   43.5250 C   0  0  0  0  0  0  0  0  0  0  0  0
   57.0160   30.8150   42.2560 F   0  0  0  0  0  0  0  0  0  0  0  0
   58.1590   29.9160   44.0760 N   0  0  0  0  0  0  0  0  0  0  0  0
   58.5930   30.0680   45.3470 C   0  0  0  0  0  0  0  0  0  0  0  0
   58.3280   31.2300   46.0500 C   0  0  0  0  0  0  0  0  0  0  0  0
   58.8650   31.1070   47.2580 N   0  0  0  0  0  0  0  0  0  0  0  0
   59.4580   29.8910   47.3190 C   0  0  0  0  0  0  0  0  0  0  0  0
   59.3060   29.2340   46.1600 N   0  0  0  0  0  0  0  0  0  0  0  0
   59.7770   27.9260   45.8070 C   0  0  0  0  0  0  0  0  0  0  0  0
   58.7530   26.8660   45.9150 C   0  0  0  0  0  0  0  0  0  0  0  0
   57.4080   27.2280   45.8950 C   0  0  0  0  0  0  0  0  0  0  0  0
   56.4070   26.2810   45.9930 C   0  0  0  0  0  0  0  0  0  0  0  0
   55.1190   26.7020   45.9670 F   0  0  0  0  0  0  0  0  0  0  0  0
   56.7710   24.9570   46.1120 C   0  0  0  0  0  0  0  0  0  0  0  0
   58.1070   24.6090   46.1310 C   0  0  0  0  0  0  0  0  0  0  0  0
   58.3830   23.2780   46.2520 F   0  0  0  0  0  0  0  0  0  0  0  0
   59.1190   25.5410   46.0350 C   0  0  0  0  0  0  0  0  0  0  0  0
   60.4060   25.1670   46.0560 F   0  0  0  0  0  0  0  0  0  0  0  0
   59.7950   33.8060   46.9700 N   0  0  0  0  0  0  0  0  0  0  0  0
   61.0610   33.8310   47.5490 C   0  0  0  0  0  0  0  0  0  0  0  0
   62.1570   33.4730   46.7550 C   0  0  0  0  0  0  0  0  0  0  0  0
   63.4440   33.4680   47.2450 C   0  0  0  0  0  0  0  0  0  0  0  0
   63.7290   33.8160   48.5450 C   0  0  0  0  0  0  0  0  0  0  0  0
   62.6650   34.1710   49.3440 C   0  0  0  0  0  0  0  0  0  0  0  0
   61.3620   34.1760   48.8440 C   0  0  0  0  0  0  0  0  0  0  0  0
   57.2501   35.4436   45.7711 H   0  0  0  0  0  0  0  0  0  0  0  0
   57.8734   34.5481   44.3745 H   0  0  0  0  0  0  0  0  0  0  0  0
   56.6480   32.8510   43.7250 H   0  0  0  0  0  0  0  0  0  0  0  0
   59.9904   29.4970   48.1973 H   0  0  0  0  0  0  0  0  0  0  0  0
   60.1341   27.9565   44.7670 H   0  0  0  0  0  0  0  0  0  0  0  0
   60.5729   27.6719   46.5225 H   0  0  0  0  0  0  0  0  0  0  0  0
   57.1374   28.2899   45.7992 H   0  0  0  0  0  0  0  0  0  0  0  0
   55.9980   24.1785   46.1917 H   0  0  0  0  0  0  0  0  0  0  0  0
   59.1320   33.0190   47.2480 H   0  0  0  0  0  0  0  0  0  0  0  0
   61.9848   33.1867   45.7070 H   0  0  0  0  0  0  0  0  0  0  0  0
   64.2683   33.1772   46.5772 H   0  0  0  0  0  0  0  0  0  0  0  0
   64.7598   33.8110   48.9288 H   0  0  0  0  0  0  0  0  0  0  0  0
   62.8447   34.4547   50.3915 H   0  0  0  0  0  0  0  0  0  0  0  0
   60.5413   34.4686   49.5155 H   0  0  0  0  0  0  0  0  0  0  0  0
  1  2  2  0
  2  3  1  0
  3  4  1  0
  4  5  2  0
  5  6  1  0
  6  7  1  0
  7  8  1  0
  7  9  2  0
  9 10  1  0
 10 11  2  0
 11 12  1  0
 12 13  2  0
 13 14  1  0
 14 15  1  0
 15 16  1  0
 16 17  2  0
 17 18  1  0
 18 19  1  0
 18 20  2  0
 20 21  1  0
 21 22  1  0
 21 23  2  0
 23 24  1  0
  2 25  1  0
 25 26  1  0
 26 27  2  0
 27 28  1  0
 28 29  2  0
 29 30  1  0
 30 31  2  0
 11  5  1  0
 23 16  1  0
 31 26  1  0
 14 10  1  0
  3 32  1  0
  3 33  1  0
  6 34  1  0
 13 35  1  0
 15 36  1  0
 15 37  1  0
 17 38  1  0
 20 39  1  0
 25 40  1  0
 27 41  1  0
 28 42  1  0
 29 43  1  0
 30 44  1  0
 31 45  1  0
M  END
>  <smiles>  (65) 
O=C(CN=c1[nH]c(F)nc2c1ncn2Cc1cc(F)cc(F)c1F)Nc1ccccc1

>  <score_type>  (65) 
oracle

>  <origin>  (65) 
adg

>  <m_score__min__energy>  (65) 
-7.75

>  <m_primary>  (65) 
energy

$$$$
65:0
     RDKit          3D

 53 56  0  0  0  0  0  0  0  0999 V2000
   55.9910   25.3440   46.1590 O   0  0  0  0  0  0  0  0  0  0  0  0
   57.0790   25.7970   45.7080 C   0  0  0  0  0  0  0  0  0  0  0  0
   57.9160   24.9830   44.8720 N   0  0  0  0  0  0  0  0  0  0  0  0
   57.5100   23.7270   44.3000 C   0  0  0  0  0  0  0  0  0  0  0  0
   56.5910   23.7190   43.2380 C   0  0  0  0  0  0  0  0  0  0  0  0
   56.1650   22.5110   42.6750 C   0  0  0  0  0  0  0  0  0  0  0  0
   56.6450   21.2990   43.1790 C   0  0  0  0  0  0  0  0  0  0  0  0
   57.5470   21.2930   44.2480 C   0  0  0  0  0  0  0  0  0  0  0  0
   57.9710   22.4980   44.8140 C   0  0  0  0  0  0  0  0  0  0  0  0
   57.5020   27.2050   46.0530 C   0  0  1  0  0  0  0  0  0  0  0  0
   58.1140   27.2340   47.4760 C   0  0  0  0  0  0  0  0  0  0  0  0
   59.5930   26.8360   47.4550 C   0  0  0  0  0  0  0  0  0  0  0  0
   60.4220   27.6990   46.4780 C   0  0  0  0  0  0  0  0  0  0  0  0
   59.5490   28.5300   45.5240 C   0  0  0  0  0  0  0  0  0  0  0  0
   58.4350   27.7100   45.0060 N   0  0  0  0  0  0  0  0  0  0  0  0
   57.7420   28.3350   43.8550 C   0  0  0  0  0  0  0  0  0  0  0  0
   57.3880   29.7820   44.0870 C   0  0  0  0  0  0  0  0  0  0  0  0
   58.1810   30.8800   43.8270 C   0  0  0  0  0  0  0  0  0  0  0  0
   57.4390   31.9540   44.1420 N   0  0  0  0  0  0  0  0  0  0  0  0
   57.8580   33.3510   44.0830 C   0  0  0  0  0  0  0  0  0  0  0  0
   58.4870   33.7510   45.3890 C   0  0  0  0  0  0  0  0  0  0  0  0
   58.2520   33.0000   46.5540 C   0  0  0  0  0  0  0  0  0  0  0  0
   58.8170   33.3940   47.7730 C   0  0  0  0  0  0  0  0  0  0  0  0
   59.6090   34.5460   47.8390 C   0  0  0  0  0  0  0  0  0  0  0  0
   60.1530   34.9290   49.0200 F   0  0  0  0  0  0  0  0  0  0  0  0
   59.8330   35.3050   46.6850 C   0  0  0  0  0  0  0  0  0  0  0  0
   59.2740   34.9130   45.4650 C   0  0  0  0  0  0  0  0  0  0  0  0
   56.2640   31.5390   44.5910 N   0  0  0  0  0  0  0  0  0  0  0  0
   56.2030   30.2150   44.5640 N   0  0  0  0  0  0  0  0  0  0  0  0
   58.8990   25.2990   44.7030 H   0  0  0  0  0  0  0  0  0  0  0  0
   56.2028   24.6705   42.8455 H   0  0  0  0  0  0  0  0  0  0  0  0
   55.4530   22.5152   41.8365 H   0  0  0  0  0  0  0  0  0  0  0  0
   56.3132   20.3491   42.7346 H   0  0  0  0  0  0  0  0  0  0  0  0
   57.9232   20.3381   44.6437 H   0  0  0  0  0  0  0  0  0  0  0  0
   58.6680   22.4876   45.6649 H   0  0  0  0  0  0  0  0  0  0  0  0
   56.6330   27.8793   46.0676 H   0  0  0  0  0  0  0  0  0  0  0  0
   58.0226   28.2512   47.8845 H   0  0  0  0  0  0  0  0  0  0  0  0
   57.5695   26.5122   48.1025 H   0  0  0  0  0  0  0  0  0  0  0  0
   60.0051   26.9548   48.4680 H   0  0  0  0  0  0  0  0  0  0  0  0
   59.6542   25.7918   47.1145 H   0  0  0  0  0  0  0  0  0  0  0  0
   61.0523   28.3845   47.0636 H   0  0  0  0  0  0  0  0  0  0  0  0
   61.0236   27.0142   45.8622 H   0  0  0  0  0  0  0  0  0  0  0  0
   59.1411   29.3958   46.0662 H   0  0  0  0  0  0  0  0  0  0  0  0
   60.1656   28.8717   44.6796 H   0  0  0  0  0  0  0  0  0  0  0  0
   58.3999   28.2730   42.9756 H   0  0  0  0  0  0  0  0  0  0  0  0
   56.7991   27.7884   43.7061 H   0  0  0  0  0  0  0  0  0  0  0  0
   59.2109   30.8767   43.4406 H   0  0  0  0  0  0  0  0  0  0  0  0
   58.5894   33.4787   43.2714 H   0  0  0  0  0  0  0  0  0  0  0  0
   56.9795   33.9855   43.8942 H   0  0  0  0  0  0  0  0  0  0  0  0
   57.6219   32.0995   46.5077 H   0  0  0  0  0  0  0  0  0  0  0  0
   58.6382   32.7975   48.6797 H   0  0  0  0  0  0  0  0  0  0  0  0
   60.4511   36.2134   46.7379 H   0  0  0  0  0  0  0  0  0  0  0  0
   59.4506   35.5158   44.5620 H   0  0  0  0  0  0  0  0  0  0  0  0
  1  2  2  0
  2  3  1  0
  3  4  1  0
  4  5  2  0
  5  6  1  0
  6  7  2  0
  7  8  1  0
  8  9  2  0
  2 10  1  0
 10 11  1  0
 11 12  1  0
 12 13  1  0
 13 14  1  0
 14 15  1  0
 15 16  1  0
 16 17  1  0
 17 18  2  0
 18 19  1  0
 19 20  1  0
 20 21  1  0
 21 22  2  0
 22 23  1  0
 23 24  2  0
 24 25  1  0
 24 26  1  0
 26 27  2  0
 19 28  1  0
 28 29  2  0
  9  4  1  0
 15 10  1  0
 29 17  1  0
 27 21  1  0
  3 30  1  0
  5 31  1  0
  6 32  1  0
  7 33  1  0
  8 34  1  0
  9 35  1  0
 10 36  1  1
 11 37  1  0
 11 38  1  0
 12 39  1  0
 12 40  1  0
 13 41  1  0
 13 42  1  0
 14 43  1  0
 14 44  1  0
 16 45  1  0
 16 46  1  0
 18 47  1  0
 20 48  1  0
 20 49  1  0
 22 50  1  0
 23 51  1  0
 26 52  1  0
 27 53  1  0
M  END
>  <UniqueID>  (66) 
59

>  <SMILES>  (66) 
O=C(Nc1ccccc1)[C@H]1CCCCN1Cc1cn(Cc2ccc(F)cc2)nn1

>  <Energy>  (66) 
100.46412725490757

>  <Genealogy>  (66) 
O=C(Nc1ccccc1)[C@H]1CCCCN1Cc1cn(Cc2ccc(F)cc2)nn1 (chirality)
O=C(Nc1ccccc1)[C@H]1CCCCN1Cc1cn(Cc2ccc(F)cc2)nn1 (3D coordinates assigned)
O=C(Nc1ccccc1)[C@H]1CCCCN1Cc1cn(Cc2ccc(F)cc2)nn1 (nonaromatic ring conformer: 100.46412725490757 kcal/mol)

>  <smiles>  (66) 
O=C(Nc1ccccc1)C1CCCCN1Cc1cn(Cc2ccc(F)cc2)nn1

>  <score_type>  (66) 
oracle

>  <origin>  (66) 
adg

>  <m_score__min__energy>  (66) 
-10.17

>  <m_primary>  (66) 
energy

$$$$
66:0
     RDKit          3D

 42 43  0  0  0  0  0  0  0  0999 V2000
   61.8460   30.8480   48.5740 C   0  0  0  0  0  0  0  0  0  0  0  0
   60.7180   30.2920   47.7560 C   0  0  0  0  0  0  0  0  0  0  0  0
   59.5230   29.9000   48.3770 C   0  0  0  0  0  0  0  0  0  0  0  0
   58.4830   29.3500   47.6210 C   0  0  0  0  0  0  0  0  0  0  0  0
   58.6330   29.1730   46.2390 C   0  0  0  0  0  0  0  0  0  0  0  0
   57.3200   28.5080   45.2720 S   0  0  0  0  0  0  0  0  0  0  0  0
   57.8840   27.9790   43.9830 O   0  0  0  0  0  0  0  0  0  0  0  0
   56.6540   27.3860   46.0210 O   0  0  0  0  0  0  0  0  0  0  0  0
   56.1540   29.7410   44.9040 N   0  0  0  0  0  0  0  0  0  0  0  0
   55.8200   29.7240   43.4800 C   0  0  0  0  0  0  0  0  0  0  0  0
   56.6390   30.7810   42.7430 C   0  0  0  0  0  0  0  0  0  0  0  0
   58.0400   31.3630   43.7720 S   0  0  0  0  0  0  0  0  0  0  0  0
   57.1150   32.6020   44.7540 C   0  0  0  0  0  0  0  0  0  0  0  0
   58.0360   33.3590   45.6740 C   0  0  0  0  0  0  0  0  0  0  0  0
   58.7660   34.4550   45.1890 C   0  0  0  0  0  0  0  0  0  0  0  0
   59.6540   35.1360   46.0250 C   0  0  0  0  0  0  0  0  0  0  0  0
   59.8220   34.7290   47.3510 C   0  0  0  0  0  0  0  0  0  0  0  0
   59.1020   33.6350   47.8500 C   0  0  0  0  0  0  0  0  0  0  0  0
   59.2770   33.2190   49.2810 C   0  0  0  0  0  0  0  0  0  0  0  0
   58.2010   32.9580   47.0110 C   0  0  0  0  0  0  0  0  0  0  0  0
   59.8320   29.5480   45.6200 C   0  0  0  0  0  0  0  0  0  0  0  0
   60.8730   30.0980   46.3750 C   0  0  0  0  0  0  0  0  0  0  0  0
   61.6145   30.7339   49.6433 H   0  0  0  0  0  0  0  0  0  0  0  0
   62.7724   30.3033   48.3392 H   0  0  0  0  0  0  0  0  0  0  0  0
   61.9782   31.9145   48.3392 H   0  0  0  0  0  0  0  0  0  0  0  0
   59.4034   30.0257   49.4632 H   0  0  0  0  0  0  0  0  0  0  0  0
   57.5442   29.0554   48.1127 H   0  0  0  0  0  0  0  0  0  0  0  0
   56.0463   28.7312   43.0638 H   0  0  0  0  0  0  0  0  0  0  0  0
   54.7492   29.9431   43.3559 H   0  0  0  0  0  0  0  0  0  0  0  0
   57.0326   30.3465   41.8123 H   0  0  0  0  0  0  0  0  0  0  0  0
   55.9865   31.6387   42.5225 H   0  0  0  0  0  0  0  0  0  0  0  0
   56.6271   33.3118   44.0697 H   0  0  0  0  0  0  0  0  0  0  0  0
   56.3651   32.0767   45.3637 H   0  0  0  0  0  0  0  0  0  0  0  0
   58.6383   34.7793   44.1457 H   0  0  0  0  0  0  0  0  0  0  0  0
   60.2224   35.9948   45.6385 H   0  0  0  0  0  0  0  0  0  0  0  0
   60.5218   35.2691   48.0056 H   0  0  0  0  0  0  0  0  0  0  0  0
   58.9362   34.0290   49.9426 H   0  0  0  0  0  0  0  0  0  0  0  0
   58.6837   32.3132   49.4747 H   0  0  0  0  0  0  0  0  0  0  0  0
   60.3394   33.0098   49.4747 H   0  0  0  0  0  0  0  0  0  0  0  0
   57.6213   32.1092   47.4028 H   0  0  0  0  0  0  0  0  0  0  0  0
   59.9555   29.4094   44.5358 H   0  0  0  0  0  0  0  0  0  0  0  0
   61.8165   30.3794   45.8845 H   0  0  0  0  0  0  0  0  0  0  0  0
  1  2  1  0
  2  3  2  0
  3  4  1  0
  4  5  2  0
  5  6  1  0
  6  7  2  0
  6  8  2  0
  6  9  1  0
  9 10  1  0
 10 11  1  0
 11 12  1  0
 12 13  1  0
 13 14  1  0
 14 15  2  0
 15 16  1  0
 16 17  2  0
 17 18  1  0
 18 19  1  0
 18 20  2  0
  5 21  1  0
 21 22  2  0
 22  2  1  0
 20 14  1  0
  1 23  1  0
  1 24  1  0
  1 25  1  0
  3 26  1  0
  4 27  1  0
 10 28  1  0
 10 29  1  0
 11 30  1  0
 11 31  1  0
 13 32  1  0
 13 33  1  0
 15 34  1  0
 16 35  1  0
 17 36  1  0
 19 37  1  0
 19 38  1  0
 19 39  1  0
 20 40  1  0
 21 41  1  0
 22 42  1  0
M  CHG  1   9  -1
M  END
>  <UniqueID>  (67) 
60

>  <SMILES>  (67) 
Cc1ccc(S(=O)(=O)[N-]CCSCc2cccc(C)c2)cc1

>  <Energy>  (67) 
30.843238038118464

>  <Genealogy>  (67) 
Cc1ccc(S(=O)(=O)[N-]CCSCc2cccc(C)c2)cc1 (protonated)
Cc1ccc(S(=O)(=O)[N-]CCSCc2cccc(C)c2)cc1 (3D coordinates assigned)
Cc1ccc(S(=O)(=O)[N-]CCSCc2cccc(C)c2)cc1 (optimized conformer: 30.843238038118464 kcal/mol)

>  <smiles>  (67) 
Cc1ccc(S(=O)(=O)NCCSCc2cccc(C)c2)cc1

>  <score_type>  (67) 
oracle

>  <origin>  (67) 
adg

>  <m_score__min__energy>  (67) 
-9.8300000000000001

>  <m_primary>  (67) 
energy

$$$$
67:0
     RDKit          3D

 54 56  0  0  1  0  0  0  0  0999 V2000
   58.0000   32.1060   42.4580 C   0  0  0  0  0  0  0  0  0  0  0  0
   57.0200   31.2450   42.6740 C   0  0  0  0  0  0  0  0  0  0  0  0
   57.0840   30.3840   43.8730 C   0  0  0  0  0  0  0  0  0  0  0  0
   56.0760   30.3970   44.6090 O   0  0  0  0  0  0  0  0  0  0  0  0
   58.2380   29.6050   44.1350 N   0  0  0  0  0  0  0  0  0  0  0  0
   58.4260   28.7510   45.2310 C   0  0  0  0  0  0  0  0  0  0  0  0
   57.8990   27.4920   45.3710 C   0  0  0  0  0  0  0  0  0  0  0  0
   58.1320   26.6960   46.4990 C   0  0  0  0  0  0  0  0  0  0  0  0
   58.9130   27.1550   47.5240 C   0  0  0  0  0  0  0  0  0  0  0  0
   59.4470   28.4250   47.3850 C   0  0  0  0  0  0  0  0  0  0  0  0
   60.2670   28.9590   48.4150 N   0  0  0  0  0  0  0  0  0  0  0  0
   59.8980   29.9300   49.1830 C   0  0  0  0  0  0  0  0  0  0  0  0
   58.9470   29.7300   50.1170 N   0  0  0  0  0  0  0  0  0  0  0  0
   58.6030   30.7660   50.8820 C   0  0  0  0  0  0  0  0  0  0  0  0
   59.1900   32.0290   50.7460 C   0  0  0  0  0  0  0  0  0  0  0  0
   58.7050   33.3570   51.7770 Cl  0  0  0  0  0  0  0  0  0  0  0  0
   60.1600   32.2060   49.7820 C   0  0  0  0  0  0  0  0  0  0  0  0
   60.7520   33.3610   49.5970 N   0  0  0  0  0  0  0  0  0  0  0  0
   61.6520   33.4360   48.5300 C   0  0  0  0  0  0  0  0  0  0  0  0
   62.9620   33.0040   48.7730 C   0  0  0  0  0  0  0  0  0  0  0  0
   63.4530   32.3950   50.5210 Br  0  0  0  0  0  0  0  0  0  0  0  0
   63.9160   33.0070   47.7780 C   0  0  0  0  0  0  0  0  0  0  0  0
   63.5190   33.4530   46.5350 C   0  0  0  0  0  0  0  0  0  0  0  0
   62.2290   33.8780   46.2990 C   0  0  0  0  0  0  0  0  0  0  0  0
   61.2520   33.8810   47.3030 C   0  0  0  0  0  0  0  0  0  0  0  0
   59.6850   34.4770   46.8860 S   0  0  0  0  0  0  0  0  0  0  0  0
   58.9070   34.8330   48.1230 O   0  0  0  0  0  0  0  0  0  0  0  0
   59.8760   35.7590   46.0880 O   0  0  0  0  0  0  0  0  0  0  0  0
   58.7990   33.3280   45.9160 C   0  0  0  0  0  0  0  0  0  0  0  0
   57.6990   33.9830   45.0940 C   0  0  0  0  0  0  0  0  0  0  0  0
   58.1380   32.1990   46.6650 C   0  0  0  0  0  0  0  0  0  0  0  0
   60.4980   31.1380   49.0100 N   0  0  0  0  0  0  0  0  0  0  0  0
   59.2160   29.2060   46.2740 C   0  0  0  0  0  0  0  0  0  0  0  0
   57.9744   32.7576   41.5721 H   0  0  0  0  0  0  0  0  0  0  0  0
   58.8409   32.1707   43.1642 H   0  0  0  0  0  0  0  0  0  0  0  0
   56.1739   31.1712   41.9749 H   0  0  0  0  0  0  0  0  0  0  0  0
   59.0100   29.6960   43.4240 H   0  0  0  0  0  0  0  0  0  0  0  0
   57.2676   27.0916   44.5641 H   0  0  0  0  0  0  0  0  0  0  0  0
   57.6835   25.6935   46.5615 H   0  0  0  0  0  0  0  0  0  0  0  0
   59.1078   26.5435   48.4174 H   0  0  0  0  0  0  0  0  0  0  0  0
   58.5110   28.7800   50.2150 H   0  0  0  0  0  0  0  0  0  0  0  0
   57.8281   30.6226   51.6495 H   0  0  0  0  0  0  0  0  0  0  0  0
   64.9458   32.6694   47.9667 H   0  0  0  0  0  0  0  0  0  0  0  0
   64.2490   33.4701   45.7123 H   0  0  0  0  0  0  0  0  0  0  0  0
   61.9584   34.2256   45.2910 H   0  0  0  0  0  0  0  0  0  0  0  0
   59.6003   32.9114   45.2881 H   0  0  0  0  0  0  0  0  0  0  0  0
   56.9525   34.4275   45.7686 H   0  0  0  0  0  0  0  0  0  0  0  0
   58.1341   34.7692   44.4595 H   0  0  0  0  0  0  0  0  0  0  0  0
   57.2151   33.2258   44.4595 H   0  0  0  0  0  0  0  0  0  0  0  0
   58.2376   32.3691   47.7472 H   0  0  0  0  0  0  0  0  0  0  0  0
   57.0720   32.1558   46.3972 H   0  0  0  0  0  0  0  0  0  0  0  0
   58.6221   31.2483   46.3972 H   0  0  0  0  0  0  0  0  0  0  0  0
   61.2290   31.2480   48.2760 H   0  0  0  0  0  0  0  0  0  0  0  0
   59.6664   30.2078   46.2141 H   0  0  0  0  0  0  0  0  0  0  0  0
  1  2  2  0
  2  3  1  0
  3  4  2  0
  3  5  1  0
  5  6  1  0
  6  7  2  0
  7  8  1  0
  8  9  2  0
  9 10  1  0
 10 11  1  0
 11 12  2  0
 12 13  1  0
 13 14  1  0
 14 15  2  0
 15 16  1  0
 15 17  1  0
 17 18  2  0
 18 19  1  0
 19 20  2  0
 20 21  1  0
 20 22  1  0
 22 23  2  0
 23 24  1  0
 24 25  2  0
 25 26  1  0
 26 27  2  0
 26 28  2  0
 26 29  1  0
 29 30  1  0
 29 31  1  0
 17 32  1  0
 10 33  2  0
 33  6  1  0
 32 12  1  0
 25 19  1  0
  1 34  1  0
  1 35  1  0
  2 36  1  0
  5 37  1  0
  7 38  1  0
  8 39  1  0
  9 40  1  0
 13 41  1  0
 14 42  1  0
 22 43  1  0
 23 44  1  0
 24 45  1  0
 29 46  1  0
 30 47  1  0
 30 48  1  0
 30 49  1  0
 31 50  1  0
 31 51  1  0
 31 52  1  0
 32 53  1  0
 33 54  1  0
M  END
>  <smiles>  (68) 
C=CC(=O)Nc1cccc(N=c2[nH]cc(Cl)c(=Nc3c(Br)cccc3S(=O)(=O)C(C)C)[nH]2)c1

>  <score_type>  (68) 
oracle

>  <origin>  (68) 
adg

>  <m_score__min__energy>  (68) 
-10.41

>  <m_primary>  (68) 
energy

$$$$
68:0
     RDKit          3D

 55 58  0  0  0  0  0  0  0  0999 V2000
   55.5210   28.7640   44.9030 N   0  0  0  0  0  0  0  0  0  0  0  0
   56.6360   29.2450   43.6730 S   0  0  0  0  0  0  0  0  0  0  0  0
   57.7100   28.2030   43.5460 O   0  0  0  0  0  0  0  0  0  0  0  0
   55.8970   29.3690   42.3710 O   0  0  0  0  0  0  0  0  0  0  0  0
   57.3750   30.7910   44.0760 C   0  0  0  0  0  0  0  0  0  0  0  0
   57.4930   31.1710   45.4210 C   0  0  0  0  0  0  0  0  0  0  0  0
   58.0620   32.4030   45.7570 C   0  0  0  0  0  0  0  0  0  0  0  0
   58.5040   33.2700   44.7520 C   0  0  0  0  0  0  0  0  0  0  0  0
   59.1930   34.8670   45.1950 S   0  0  0  0  0  0  0  0  0  0  0  0
   59.6810   34.2920   46.8210 C   0  0  0  0  0  0  0  0  0  0  0  0
   59.3200   35.0170   47.9630 C   0  0  0  0  0  0  0  0  0  0  0  0
   59.7340   34.5850   49.2260 C   0  0  0  0  0  0  0  0  0  0  0  0
   60.5110   33.4270   49.3500 C   0  0  0  0  0  0  0  0  0  0  0  0
   60.8840   32.6960   48.2110 C   0  0  0  0  0  0  0  0  0  0  0  0
   61.6690   31.5000   48.3610 N   0  0  0  0  0  0  0  0  0  0  0  0
   61.2000   30.1810   48.0310 C   0  0  0  0  0  0  0  0  0  0  0  0
   60.9730   29.8450   46.6880 C   0  0  0  0  0  0  0  0  0  0  0  0
   60.4790   28.5820   46.3460 C   0  0  0  0  0  0  0  0  0  0  0  0
   60.1900   27.6400   47.3500 C   0  0  0  0  0  0  0  0  0  0  0  0
   59.6520   26.3490   47.0370 N   0  0  0  0  0  0  0  0  0  0  0  0
   59.2560   26.0440   45.8690 N   0  0  0  0  0  0  0  0  0  0  0  0
   58.3550   24.9560   45.6330 C   0  0  0  0  0  0  0  0  0  0  0  0
   58.8820   23.6850   45.3690 C   0  0  0  0  0  0  0  0  0  0  0  0
   58.0230   22.6050   45.1130 C   0  0  0  0  0  0  0  0  0  0  0  0
   56.6390   22.7900   45.1200 C   0  0  0  0  0  0  0  0  0  0  0  0
   56.0990   24.0550   45.3870 C   0  0  0  0  0  0  0  0  0  0  0  0
   54.3570   24.2920   45.3730 S   0  0  0  0  0  0  0  0  0  0  0  0
   54.0040   25.9570   45.6620 N   0  0  0  0  0  0  0  0  0  0  0  0
   53.7160   23.4540   46.4430 O   0  0  0  0  0  0  0  0  0  0  0  0
   53.7930   23.8840   44.0370 O   0  0  0  0  0  0  0  0  0  0  0  0
   56.9570   25.1380   45.6390 C   0  0  0  0  0  0  0  0  0  0  0  0
   60.4020   27.9800   48.6910 C   0  0  0  0  0  0  0  0  0  0  0  0
   60.8950   29.2420   49.0330 C   0  0  0  0  0  0  0  0  0  0  0  0
   60.4430   33.1250   46.9460 C   0  0  0  0  0  0  0  0  0  0  0  0
   58.3870   32.8960   43.4090 C   0  0  0  0  0  0  0  0  0  0  0  0
   57.8310   31.6570   43.0720 C   0  0  0  0  0  0  0  0  0  0  0  0
   54.6670   29.3550   44.7790 H   0  0  0  0  0  0  0  0  0  0  0  0
   57.1366   30.4973   46.2142 H   0  0  0  0  0  0  0  0  0  0  0  0
   58.1624   32.6912   46.8138 H   0  0  0  0  0  0  0  0  0  0  0  0
   58.7101   35.9273   47.8661 H   0  0  0  0  0  0  0  0  0  0  0  0
   59.4493   35.1549   50.1228 H   0  0  0  0  0  0  0  0  0  0  0  0
   60.8312   33.0878   50.3462 H   0  0  0  0  0  0  0  0  0  0  0  0
   62.6460   31.5970   48.7200 H   0  0  0  0  0  0  0  0  0  0  0  0
   61.1851   30.5804   45.8980 H   0  0  0  0  0  0  0  0  0  0  0  0
   60.3160   28.3246   45.2890 H   0  0  0  0  0  0  0  0  0  0  0  0
   59.9715   23.5332   45.3623 H   0  0  0  0  0  0  0  0  0  0  0  0
   58.4416   21.6090   44.9061 H   0  0  0  0  0  0  0  0  0  0  0  0
   55.9709   21.9404   44.9154 H   0  0  0  0  0  0  0  0  0  0  0  0
   54.7680   26.5130   45.2160 H   0  0  0  0  0  0  0  0  0  0  0  0
   56.5359   26.1337   45.8422 H   0  0  0  0  0  0  0  0  0  0  0  0
   60.1789   27.2484   49.4816 H   0  0  0  0  0  0  0  0  0  0  0  0
   61.0453   29.5025   50.0911 H   0  0  0  0  0  0  0  0  0  0  0  0
   60.6985   32.5400   46.0502 H   0  0  0  0  0  0  0  0  0  0  0  0
   58.7325   33.5768   42.6170 H   0  0  0  0  0  0  0  0  0  0  0  0
   57.7514   31.3613   42.0155 H   0  0  0  0  0  0  0  0  0  0  0  0
  1  2  1  0
  2  3  2  0
  2  4  2  0
  2  5  1  0
  5  6  2  0
  6  7  1  0
  7  8  2  0
  8  9  1  0
  9 10  1  0
 10 11  2  0
 11 12  1  0
 12 13  2  0
 13 14  1  0
 14 15  1  0
 15 16  1  0
 16 17  2  0
 17 18  1  0
 18 19  2  0
 19 20  1  0
 20 21  2  3
 21 22  1  0
 22 23  2  0
 23 24  1  0
 24 25  2  0
 25 26  1  0
 26 27  1  0
 27 28  1  0
 27 29  2  0
 27 30  2  0
 26 31  2  0
 19 32  1  0
 32 33  2  0
 14 34  2  0
  8 35  1  0
 35 36  2  0
 36  5  1  0
 34 10  1  0
 33 16  1  0
 31 22  1  0
  1 37  1  0
  6 38  1  0
  7 39  1  0
 11 40  1  0
 12 41  1  0
 13 42  1  0
 15 43  1  0
 17 44  1  0
 18 45  1  0
 23 46  1  0
 24 47  1  0
 25 48  1  0
 28 49  1  0
 31 50  1  0
 32 51  1  0
 33 52  1  0
 34 53  1  0
 35 54  1  0
 36 55  1  0
M  CHG  2   1  -1  28  -1
M  END
>  <UniqueID>  (69) 
61

>  <SMILES>  (69) 
[NH-]S(=O)(=O)c1ccc(Sc2cccc(Nc3ccc(N=Nc4cccc(S([NH-])(=O)=O)c4)cc3)c2)cc1

>  <Energy>  (69) 
59.57583626756672

>  <Genealogy>  (69) 
[NH-]S(=O)(=O)c1ccc(Sc2cccc(Nc3ccc(N=Nc4cccc(S([NH-])(=O)=O)c4)cc3)c2)cc1 (protonated)
[NH-]S(=O)(=O)c1ccc(Sc2cccc(Nc3ccc(N=Nc4cccc(S([NH-])(=O)=O)c4)cc3)c2)cc1 (3D coordinates assigned)
[NH-]S(=O)(=O)c1ccc(Sc2cccc(Nc3ccc(N=Nc4cccc(S([NH-])(=O)=O)c4)cc3)c2)cc1 (optimized conformer: 59.57583626756672 kcal/mol)

>  <smiles>  (69) 
NS(=O)(=O)c1ccc(Sc2cccc(Nc3ccc(N=Nc4cccc(S(N)(=O)=O)c4)cc3)c2)cc1

>  <score_type>  (69) 
oracle

>  <origin>  (69) 
adg

>  <m_score__min__energy>  (69) 
-16.129999999999999

>  <m_primary>  (69) 
energy

$$$$
69:0
     RDKit          3D

 53 56  0  0  1  0  0  0  0  0999 V2000
   59.2670   27.5530   44.5430 C   0  0  0  0  0  0  0  0  0  0  0  0
   58.0970   26.7610   45.0090 C   0  0  0  0  0  0  0  0  0  0  0  0
   58.0910   25.3880   44.8790 C   0  0  0  0  0  0  0  0  0  0  0  0
   57.0040   24.6130   45.3080 C   0  0  0  0  0  0  0  0  0  0  0  0
   57.0440   23.2060   45.1540 N   0  0  0  0  0  0  0  0  0  0  0  0
   58.0900   22.4770   44.4790 C   0  0  0  0  0  0  0  0  0  0  0  0
   57.4140   21.7850   43.2950 C   0  0  0  0  0  0  0  0  0  0  0  0
   56.2930   20.9930   43.7360 N   0  0  0  0  0  0  0  0  0  0  0  0
   56.1080   20.9970   45.1740 C   0  0  0  0  0  0  0  0  0  0  0  0
   55.9520   22.4030   45.7130 C   0  0  0  0  0  0  0  0  0  0  0  0
   55.9610   25.3070   45.8590 C   0  0  0  0  0  0  0  0  0  0  0  0
   59.6620   34.0240   45.1860 C   0  0  0  0  0  0  0  0  0  0  0  0
   58.4220   33.4230   45.1660 C   0  0  0  0  0  0  0  0  0  0  0  0
   57.9690   32.8850   43.9500 N   0  0  0  0  0  0  0  0  0  0  0  0
   57.5350   31.7300   43.7590 C   0  0  0  0  0  0  0  0  0  0  0  0
   56.6150   29.2040   43.4780 N   0  0  0  0  0  0  0  0  0  0  0  0
   56.6500   30.0250   42.4130 C   0  0  0  0  0  0  0  0  0  0  0  0
   57.1210   31.3380   42.5240 C   0  0  0  0  0  0  0  0  0  0  0  0
   57.1170   32.1180   41.3470 C   0  0  0  0  0  0  0  0  0  0  0  0
   57.1320   32.7650   40.3890 N   0  0  0  0  0  0  0  0  0  0  0  0
   57.0320   29.6200   44.6910 C   0  0  0  0  0  0  0  0  0  0  0  0
   57.0050   28.8490   45.7180 N   0  0  0  0  0  0  0  0  0  0  0  0
   57.0330   27.4350   45.5680 C   0  0  0  0  0  0  0  0  0  0  0  0
   57.6130   33.2890   46.2750 C   0  0  0  0  0  0  0  0  0  0  0  0
   60.1120   34.5190   46.4020 C   0  0  0  0  0  0  0  0  0  0  0  0
   59.3170   34.3930   47.5170 C   0  0  0  0  0  0  0  0  0  0  0  0
   59.8010   34.9000   48.7150 O   0  0  0  0  0  0  0  0  0  0  0  0
   58.0780   33.7920   47.4930 C   0  0  0  0  0  0  0  0  0  0  0  0
   55.9530   26.6920   45.9970 C   0  0  0  0  0  0  0  0  0  0  0  0
   57.4850   30.8730   44.8180 N   0  0  0  0  0  0  0  0  0  0  0  0
   59.8244   27.9303   45.4131 H   0  0  0  0  0  0  0  0  0  0  0  0
   59.9243   26.9134   43.9357 H   0  0  0  0  0  0  0  0  0  0  0  0
   58.9174   28.4009   43.9357 H   0  0  0  0  0  0  0  0  0  0  0  0
   58.9607   24.8883   44.4275 H   0  0  0  0  0  0  0  0  0  0  0  0
   58.8712   23.1661   44.1256 H   0  0  0  0  0  0  0  0  0  0  0  0
   58.5773   21.7528   45.1484 H   0  0  0  0  0  0  0  0  0  0  0  0
   57.0598   22.5477   42.5859 H   0  0  0  0  0  0  0  0  0  0  0  0
   58.1453   21.1214   42.8104 H   0  0  0  0  0  0  0  0  0  0  0  0
   56.4520   20.0050   43.4460 H   0  0  0  0  0  0  0  0  0  0  0  0
   55.2050   20.4187   45.4191 H   0  0  0  0  0  0  0  0  0  0  0  0
   56.9998   20.5488   45.6364 H   0  0  0  0  0  0  0  0  0  0  0  0
   54.9818   22.8194   45.4041 H   0  0  0  0  0  0  0  0  0  0  0  0
   55.9889   22.4057   46.8124 H   0  0  0  0  0  0  0  0  0  0  0  0
   55.0851   24.7419   46.2104 H   0  0  0  0  0  0  0  0  0  0  0  0
   60.2712   34.1081   44.2740 H   0  0  0  0  0  0  0  0  0  0  0  0
   56.2690   28.2210   43.4220 H   0  0  0  0  0  0  0  0  0  0  0  0
   56.3018   29.6573   41.4365 H   0  0  0  0  0  0  0  0  0  0  0  0
   56.6302   32.8003   46.2028 H   0  0  0  0  0  0  0  0  0  0  0  0
   61.0951   35.0074   46.4732 H   0  0  0  0  0  0  0  0  0  0  0  0
   59.3650   35.6400   49.2350 H   0  0  0  0  0  0  0  0  0  0  0  0
   57.4715   33.7102   48.4070 H   0  0  0  0  0  0  0  0  0  0  0  0
   55.0848   27.1944   46.4485 H   0  0  0  0  0  0  0  0  0  0  0  0
   57.8120   31.2030   45.7660 H   0  0  0  0  0  0  0  0  0  0  0  0
  1  2  1  0
  2  3  2  0
  3  4  1  0
  4  5  1  0
  5  6  1  0
  6  7  1  0
  7  8  1  0
  8  9  1  0
  9 10  1  0
  4 11  2  0
 11 12  1  0
 12 13  2  0
 13 14  1  0
 14 15  2  0
 15 16  1  0
 16 17  1  0
 17 18  2  0
 18 19  1  0
 19 20  3  0
 18 21  1  0
 21 22  2  0
 22 23  1  0
 23 24  2  0
 24 25  1  0
 25 26  2  0
 26 27  1  0
 26 28  1  0
 28 29  2  0
 21 30  1  0
 13  2  1  0
 30 15  1  0
 10  5  1  0
 29 23  1  0
  1 31  1  0
  1 32  1  0
  1 33  1  0
  3 34  1  0
  6 35  1  0
  6 36  1  0
  7 37  1  0
  7 38  1  0
  8 39  1  0
  9 40  1  0
  9 41  1  0
 10 42  1  0
 10 43  1  0
 11 44  1  0
 12 45  1  0
 16 46  1  0
 17 47  1  0
 24 48  1  0
 25 49  1  0
 27 50  1  0
 28 51  1  0
 29 52  1  0
 30 53  1  0
M  END
>  <smiles>  (70) 
Cc1cc(N2CCNCC2)ccc1N=c1[nH]cc(C#N)c(=Nc2ccc(O)cc2)[nH]1

>  <score_type>  (70) 
oracle

>  <origin>  (70) 
adg

>  <m_score__min__energy>  (70) 
-8.7899999999999991

>  <m_primary>  (70) 
energy

$$$$
70:0
     RDKit          3D

 64 68  0  0  0  0  0  0  0  0999 V2000
   55.5440   29.6690   43.8930 C   0  0  0  0  0  0  0  0  0  0  0  0
   55.5370   28.6770   44.9150 O   0  0  0  0  0  0  0  0  0  0  0  0
   56.6870   28.1590   45.5350 C   0  0  0  0  0  0  0  0  0  0  0  0
   56.8810   26.7680   45.6740 C   0  0  0  0  0  0  0  0  0  0  0  0
   58.0720   26.2690   46.2080 C   0  0  0  0  0  0  0  0  0  0  0  0
   59.0780   27.1440   46.6150 C   0  0  0  0  0  0  0  0  0  0  0  0
   58.8930   28.5240   46.5020 C   0  0  0  0  0  0  0  0  0  0  0  0
   57.6950   29.0430   45.9950 C   0  0  0  0  0  0  0  0  0  0  0  0
   57.5830   30.4680   45.8600 N   0  0  0  0  0  0  0  0  0  0  0  0
   58.4650   31.3200   45.1220 C   0  0  0  0  0  0  0  0  0  0  0  0
   58.4830   31.2720   43.8600 O   0  0  0  0  0  0  0  0  0  0  0  0
   59.4020   32.2310   45.8810 C   0  0  1  0  0  0  0  0  0  0  0  0
   58.5750   33.4260   46.3730 C   0  0  0  0  0  0  0  0  0  0  0  0
   58.2940   34.5740   45.4520 C   0  0  0  0  0  0  0  0  0  0  0  0
   58.0390   33.4310   47.5620 N   0  0  0  0  0  0  0  0  0  0  0  0
   58.3370   32.3800   48.4760 C   0  0  0  0  0  0  0  0  0  0  0  0
   57.7690   32.2010   49.6760 N   0  0  0  0  0  0  0  0  0  0  0  0
   58.4570   31.1400   50.1610 C   0  0  0  0  0  0  0  0  0  0  0  0
   58.1630   30.4080   51.7690 S   0  0  0  0  0  0  0  0  0  0  0  0
   58.6770   31.8890   52.7120 C   0  0  0  0  0  0  0  0  0  0  0  0
   60.0270   32.3860   52.2720 C   0  0  0  0  0  0  0  0  0  0  0  0
   61.1970   31.9180   52.8980 C   0  0  0  0  0  0  0  0  0  0  0  0
   62.4480   32.3820   52.4870 C   0  0  0  0  0  0  0  0  0  0  0  0
   62.5420   33.3360   51.4700 C   0  0  0  0  0  0  0  0  0  0  0  0
   61.3840   33.8150   50.8490 C   0  0  0  0  0  0  0  0  0  0  0  0
   60.1300   33.3410   51.2460 C   0  0  0  0  0  0  0  0  0  0  0  0
   59.4050   30.6960   49.3000 N   0  0  0  0  0  0  0  0  0  0  0  0
   59.2990   31.4860   48.2440 N   0  0  0  0  0  0  0  0  0  0  0  0
   60.1430   31.4880   47.0540 C   0  0  2  0  0  0  0  0  0  0  0  0
   61.5090   32.0770   47.3900 C   0  0  0  0  0  0  0  0  0  0  0  0
   61.9440   33.2920   46.8180 C   0  0  0  0  0  0  0  0  0  0  0  0
   63.2050   33.8080   47.1140 C   0  0  0  0  0  0  0  0  0  0  0  0
   64.0450   33.1410   48.0000 C   0  0  0  0  0  0  0  0  0  0  0  0
   63.6170   31.9680   48.6180 C   0  0  0  0  0  0  0  0  0  0  0  0
   62.3430   31.4340   48.3380 C   0  0  0  0  0  0  0  0  0  0  0  0
   61.8750   30.2810   48.9930 O   0  0  0  0  0  0  0  0  0  0  0  0
   62.1620   29.9490   50.3480 C   0  0  0  0  0  0  0  0  0  0  0  0
   55.5511   30.6685   44.3522 H   0  0  0  0  0  0  0  0  0  0  0  0
   56.4413   29.5460   43.2687 H   0  0  0  0  0  0  0  0  0  0  0  0
   54.6451   29.5586   43.2687 H   0  0  0  0  0  0  0  0  0  0  0  0
   56.0893   26.0719   45.3598 H   0  0  0  0  0  0  0  0  0  0  0  0
   58.2161   25.1830   46.3075 H   0  0  0  0  0  0  0  0  0  0  0  0
   60.0183   26.7474   47.0255 H   0  0  0  0  0  0  0  0  0  0  0  0
   59.6952   29.2090   46.8139 H   0  0  0  0  0  0  0  0  0  0  0  0
   60.2094   32.5783   45.2196 H   0  0  0  0  0  0  0  0  0  0  0  0
   58.0737   35.4741   46.0447 H   0  0  0  0  0  0  0  0  0  0  0  0
   59.1734   34.7589   44.8176 H   0  0  0  0  0  0  0  0  0  0  0  0
   57.4286   34.3318   44.8176 H   0  0  0  0  0  0  0  0  0  0  0  0
   57.0120   32.7560   50.1360 H   0  0  0  0  0  0  0  0  0  0  0  0
   57.9352   32.6862   52.5564 H   0  0  0  0  0  0  0  0  0  0  0  0
   58.7418   31.6140   53.7751 H   0  0  0  0  0  0  0  0  0  0  0  0
   61.1258   31.1839   53.7141 H   0  0  0  0  0  0  0  0  0  0  0  0
   63.3609   31.9962   52.9643 H   0  0  0  0  0  0  0  0  0  0  0  0
   63.5279   33.7106   51.1576 H   0  0  0  0  0  0  0  0  0  0  0  0
   61.4599   34.5650   50.0479 H   0  0  0  0  0  0  0  0  0  0  0  0
   59.2209   33.7168   50.7537 H   0  0  0  0  0  0  0  0  0  0  0  0
   60.3271   30.4610   46.7056 H   0  0  0  0  0  0  0  0  0  0  0  0
   61.2806   33.8379   46.1310 H   0  0  0  0  0  0  0  0  0  0  0  0
   63.5370   34.7461   46.6452 H   0  0  0  0  0  0  0  0  0  0  0  0
   65.0478   33.5400   48.2127 H   0  0  0  0  0  0  0  0  0  0  0  0
   64.2790   31.4542   49.3306 H   0  0  0  0  0  0  0  0  0  0  0  0
   61.5906   30.6099   51.0164 H   0  0  0  0  0  0  0  0  0  0  0  0
   61.8790   28.9030   50.5371 H   0  0  0  0  0  0  0  0  0  0  0  0
   63.2380   30.0777   50.5371 H   0  0  0  0  0  0  0  0  0  0  0  0
  1  2  1  0
  2  3  1  0
  3  4  2  0
  4  5  1  0
  5  6  2  0
  6  7  1  0
  7  8  2  0
  8  9  1  0
  9 10  1  0
 10 11  2  0
 10 12  1  0
 12 13  1  0
 13 14  1  0
 13 15  2  0
 15 16  1  0
 16 17  2  0
 17 18  1  0
 18 19  1  0
 19 20  1  0
 20 21  1  0
 21 22  2  0
 22 23  1  0
 23 24  2  0
 24 25  1  0
 25 26  2  0
 18 27  2  0
 27 28  1  0
 28 29  1  0
 29 30  1  0
 30 31  2  0
 31 32  1  0
 32 33  2  0
 33 34  1  0
 34 35  2  0
 35 36  1  0
 36 37  1  0
  8  3  1  0
 29 12  1  0
 35 30  1  0
 28 16  1  0
 26 21  1  0
  1 38  1  0
  1 39  1  0
  1 40  1  0
  4 41  1  0
  5 42  1  0
  6 43  1  0
  7 44  1  0
 12 45  1  6
 14 46  1  0
 14 47  1  0
 14 48  1  0
 17 49  1  0
 20 50  1  0
 20 51  1  0
 22 52  1  0
 23 53  1  0
 24 54  1  0
 25 55  1  0
 26 56  1  0
 29 57  1  6
 31 58  1  0
 32 59  1  0
 33 60  1  0
 34 61  1  0
 37 62  1  0
 37 63  1  0
 37 64  1  0
M  CHG  2   9  -1  17   1
M  END
>  <UniqueID>  (71) 
62

>  <SMILES>  (71) 
COc1ccccc1[N-]C(=O)[C@H]1C(C)=Nc2[nH+]c(SCc3ccccc3)nn2[C@@H]1c1ccccc1OC

>  <Energy>  (71) 
106.64698693512496

>  <Genealogy>  (71) 
COc1ccccc1[N-]C(=O)C1C(C)=Nc2[nH+]c(SCc3ccccc3)nn2C1c1ccccc1OC (protonated)
COc1ccccc1[N-]C(=O)[C@H]1C(C)=Nc2[nH+]c(SCc3ccccc3)nn2[C@@H]1c1ccccc1OC (chirality)
COc1ccccc1[N-]C(=O)[C@H]1C(C)=Nc2[nH+]c(SCc3ccccc3)nn2[C@@H]1c1ccccc1OC (3D coordinates assigned)
COc1ccccc1[N-]C(=O)[C@H]1C(C)=Nc2[nH+]c(SCc3ccccc3)nn2[C@@H]1c1ccccc1OC (nonaromatic ring conformer: 106.64698693512496 kcal/mol)

>  <smiles>  (71) 
COc1ccccc1NC(=O)C1C(C)=Nc2nc(SCc3ccccc3)nn2C1c1ccccc1OC

>  <score_type>  (71) 
oracle

>  <origin>  (71) 
adg

>  <m_score__min__energy>  (71) 
-10.34

>  <m_primary>  (71) 
energy

$$$$
71:0
     RDKit          3D

 74 77  0  0  0  0  0  0  0  0999 V2000
   64.1410   33.3090   48.4100 C   0  0  0  0  0  0  0  0  0  0  0  0
   62.8430   32.9440   47.8190 N   0  0  0  0  0  0  0  0  0  0  0  0
   62.5470   33.8070   46.6510 C   0  0  0  0  0  0  0  0  0  0  0  0
   61.0430   33.8410   46.3560 C   0  0  0  0  0  0  0  0  0  0  0  0
   60.2810   34.4420   47.4820 N   0  0  0  0  0  0  0  0  0  0  0  0
   58.8690   34.0020   47.4720 C   0  0  0  0  0  0  0  0  0  0  0  0
   58.7670   32.5380   47.1230 C   0  0  0  0  0  0  0  0  0  0  0  0
   58.9990   31.5630   48.1040 C   0  0  0  0  0  0  0  0  0  0  0  0
   58.9080   30.2060   47.7880 C   0  0  0  0  0  0  0  0  0  0  0  0
   58.5550   29.7970   46.4900 C   0  0  0  0  0  0  0  0  0  0  0  0
   58.4800   28.3550   46.1570 C   0  0  0  0  0  0  0  0  0  0  0  0
   59.0340   27.9330   45.1050 O   0  0  0  0  0  0  0  0  0  0  0  0
   57.8430   27.4270   47.0480 N   0  0  0  0  0  0  0  0  0  0  0  0
   57.3820   26.1270   46.6410 C   0  0  0  0  0  0  0  0  0  0  0  0
   56.6780   25.9490   45.4400 C   0  0  0  0  0  0  0  0  0  0  0  0
   56.2310   24.6800   45.0680 C   0  0  0  0  0  0  0  0  0  0  0  0
   56.4670   23.5730   45.8930 C   0  0  0  0  0  0  0  0  0  0  0  0
   56.0040   22.2770   45.4880 N   0  0  0  0  0  0  0  0  0  0  0  0
   54.9980   21.5680   46.2740 C   0  0  0  0  0  0  0  0  0  0  0  0
   56.4560   21.6620   43.9280 S   0  0  0  0  0  0  0  0  0  0  0  0
   58.2290   21.6370   43.7900 C   0  0  0  0  0  0  0  0  0  0  0  0
   55.9150   20.2710   43.7500 O   0  0  0  0  0  0  0  0  0  0  0  0
   55.8960   22.5430   42.8460 O   0  0  0  0  0  0  0  0  0  0  0  0
   57.1420   23.7410   47.1170 C   0  0  0  0  0  0  0  0  0  0  0  0
   57.3280   22.6200   47.9440 O   0  0  0  0  0  0  0  0  0  0  0  0
   56.6520   22.3760   49.1790 C   0  0  0  0  0  0  0  0  0  0  0  0
   57.6330   21.9920   50.2540 C   0  0  0  0  0  0  0  0  0  0  0  0
   58.1460   22.9560   51.1360 C   0  0  0  0  0  0  0  0  0  0  0  0
   59.0280   22.5850   52.1540 C   0  0  0  0  0  0  0  0  0  0  0  0
   59.4350   21.2450   52.2920 C   0  0  0  0  0  0  0  0  0  0  0  0
   60.3350   20.8300   53.4270 C   0  0  0  0  0  0  0  0  0  0  0  0
   60.2430   21.7310   54.4740 F   0  0  0  0  0  0  0  0  0  0  0  0
   61.6420   20.7930   52.9790 F   0  0  0  0  0  0  0  0  0  0  0  0
   59.9850   19.5760   53.9020 F   0  0  0  0  0  0  0  0  0  0  0  0
   58.9140   20.2800   51.4110 C   0  0  0  0  0  0  0  0  0  0  0  0
   58.0330   20.6540   50.3920 C   0  0  0  0  0  0  0  0  0  0  0  0
   57.6010   25.0240   47.4790 C   0  0  0  0  0  0  0  0  0  0  0  0
   58.3070   30.7760   45.5120 C   0  0  0  0  0  0  0  0  0  0  0  0
   58.4140   32.1360   45.8260 C   0  0  0  0  0  0  0  0  0  0  0  0
   60.9160   34.2150   48.8060 C   0  0  0  0  0  0  0  0  0  0  0  0
   61.7660   32.9330   48.8380 C   0  0  0  0  0  0  0  0  0  0  0  0
   64.0635   33.2872   49.5070 H   0  0  0  0  0  0  0  0  0  0  0  0
   64.9078   32.5916   48.0823 H   0  0  0  0  0  0  0  0  0  0  0  0
   64.4216   34.3209   48.0823 H   0  0  0  0  0  0  0  0  0  0  0  0
   62.8947   34.8290   46.8623 H   0  0  0  0  0  0  0  0  0  0  0  0
   63.0658   33.3956   45.7726 H   0  0  0  0  0  0  0  0  0  0  0  0
   60.8701   34.4379   45.4484 H   0  0  0  0  0  0  0  0  0  0  0  0
   60.6949   32.8069   46.2165 H   0  0  0  0  0  0  0  0  0  0  0  0
   58.4329   34.1665   48.4683 H   0  0  0  0  0  0  0  0  0  0  0  0
   58.3235   34.5840   46.7146 H   0  0  0  0  0  0  0  0  0  0  0  0
   59.2543   31.8693   49.1292 H   0  0  0  0  0  0  0  0  0  0  0  0
   59.1142   29.4509   48.5608 H   0  0  0  0  0  0  0  0  0  0  0  0
   57.8010   27.6700   48.0620 H   0  0  0  0  0  0  0  0  0  0  0  0
   56.4777   26.8129   44.7892 H   0  0  0  0  0  0  0  0  0  0  0  0
   55.6893   24.5484   44.1197 H   0  0  0  0  0  0  0  0  0  0  0  0
   55.2017   21.7116   47.3454 H   0  0  0  0  0  0  0  0  0  0  0  0
   53.9999   21.9633   46.0343 H   0  0  0  0  0  0  0  0  0  0  0  0
   55.0347   20.4951   46.0343 H   0  0  0  0  0  0  0  0  0  0  0  0
   58.6750   21.6307   44.7955 H   0  0  0  0  0  0  0  0  0  0  0  0
   58.5416   20.7344   43.2446 H   0  0  0  0  0  0  0  0  0  0  0  0
   58.5670   22.5305   43.2446 H   0  0  0  0  0  0  0  0  0  0  0  0
   56.1188   23.2880   49.4854 H   0  0  0  0  0  0  0  0  0  0  0  0
   55.9410   21.5488   49.0363 H   0  0  0  0  0  0  0  0  0  0  0  0
   57.8517   24.0101   51.0250 H   0  0  0  0  0  0  0  0  0  0  0  0
   59.4069   23.3456   52.8525 H   0  0  0  0  0  0  0  0  0  0  0  0
   59.2016   19.2244   51.5246 H   0  0  0  0  0  0  0  0  0  0  0  0
   57.6509   19.8946   49.6939 H   0  0  0  0  0  0  0  0  0  0  0  0
   58.1371   25.1614   48.4297 H   0  0  0  0  0  0  0  0  0  0  0  0
   58.0269   30.4712   44.4929 H   0  0  0  0  0  0  0  0  0  0  0  0
   58.2204   32.8933   45.0520 H   0  0  0  0  0  0  0  0  0  0  0  0
   61.5630   35.0735   49.0391 H   0  0  0  0  0  0  0  0  0  0  0  0
   60.1119   34.1023   49.5481 H   0  0  0  0  0  0  0  0  0  0  0  0
   62.2229   32.8367   49.8340 H   0  0  0  0  0  0  0  0  0  0  0  0
   61.1022   32.0845   48.6156 H   0  0  0  0  0  0  0  0  0  0  0  0
  1  2  1  0
  2  3  1  0
  3  4  1  0
  4  5  1  0
  5  6  1  0
  6  7  1  0
  7  8  2  0
  8  9  1  0
  9 10  2  0
 10 11  1  0
 11 12  2  0
 11 13  1  0
 13 14  1  0
 14 15  2  0
 15 16  1  0
 16 17  2  0
 17 18  1  0
 18 19  1  0
 18 20  1  0
 20 21  1  0
 20 22  2  0
 20 23  2  0
 17 24  1  0
 24 25  1  0
 25 26  1  0
 26 27  1  0
 27 28  2  0
 28 29  1  0
 29 30  2  0
 30 31  1  0
 31 32  1  0
 31 33  1  0
 31 34  1  0
 30 35  1  0
 35 36  2  0
 24 37  2  0
 10 38  1  0
 38 39  2  0
  5 40  1  0
 40 41  1  0
 41  2  1  0
 39  7  1  0
 37 14  1  0
 36 27  1  0
  1 42  1  0
  1 43  1  0
  1 44  1  0
  3 45  1  0
  3 46  1  0
  4 47  1  0
  4 48  1  0
  6 49  1  0
  6 50  1  0
  8 51  1  0
  9 52  1  0
 13 53  1  0
 15 54  1  0
 16 55  1  0
 19 56  1  0
 19 57  1  0
 19 58  1  0
 21 59  1  0
 21 60  1  0
 21 61  1  0
 26 62  1  0
 26 63  1  0
 28 64  1  0
 29 65  1  0
 35 66  1  0
 36 67  1  0
 37 68  1  0
 38 69  1  0
 39 70  1  0
 40 71  1  0
 40 72  1  0
 41 73  1  0
 41 74  1  0
M  END
>  <UniqueID>  (72) 
63

>  <SMILES>  (72) 
CN1CCN(Cc2ccc(C(=O)Nc3ccc(N(C)S(C)(=O)=O)c(OCc4ccc(C(F)(F)F)cc4)c3)cc2)CC1

>  <Energy>  (72) 
95.24123798059676

>  <Genealogy>  (72) 
CN1CCN(Cc2ccc(C(=O)Nc3ccc(N(C)S(C)(=O)=O)c(OCc4ccc(C(F)(F)F)cc4)c3)cc2)CC1 (3D coordinates assigned)
CN1CCN(Cc2ccc(C(=O)Nc3ccc(N(C)S(C)(=O)=O)c(OCc4ccc(C(F)(F)F)cc4)c3)cc2)CC1 (nonaromatic ring conformer: 95.24123798059676 kcal/mol)

>  <smiles>  (72) 
CN1CCN(Cc2ccc(C(=O)Nc3ccc(N(C)S(C)(=O)=O)c(OCc4ccc(C(F)(F)F)cc4)c3)cc2)CC1

>  <score_type>  (72) 
oracle

>  <origin>  (72) 
adg

>  <m_score__min__energy>  (72) 
-9.3300000000000001

>  <m_primary>  (72) 
energy

$$$$
72:0
     RDKit          3D

 63 66  0  0  0  0  0  0  0  0999 V2000
   55.1600   29.3410   44.8660 O   0  0  0  0  0  0  0  0  0  0  0  0
   56.2520   29.8810   44.5480 C   0  0  0  0  0  0  0  0  0  0  0  0
   57.3790   29.0140   44.0450 C   0  0  0  0  0  0  0  0  0  0  0  0
   58.0660   28.3220   45.1580 N   0  0  0  0  0  0  0  0  0  0  0  0
   57.7750   28.9720   46.4540 C   0  0  0  0  0  0  0  0  0  0  0  0
   58.6150   28.3420   47.5720 C   0  0  0  0  0  0  0  0  0  0  0  0
   60.0780   28.3920   47.3030 N   0  0  0  0  0  0  0  0  0  0  0  0
   60.8020   29.2000   48.3060 C   0  0  0  0  0  0  0  0  0  0  0  0
   59.8310   29.9610   49.1690 C   0  0  0  0  0  0  0  0  0  0  0  0
   59.4180   31.2500   48.7910 C   0  0  0  0  0  0  0  0  0  0  0  0
   58.5190   31.9650   49.5900 C   0  0  0  0  0  0  0  0  0  0  0  0
   58.0300   31.4000   50.7710 C   0  0  0  0  0  0  0  0  0  0  0  0
   58.4380   30.1200   51.1550 C   0  0  0  0  0  0  0  0  0  0  0  0
   59.3360   29.4010   50.3590 C   0  0  0  0  0  0  0  0  0  0  0  0
   60.4130   28.8510   45.9390 C   0  0  0  0  0  0  0  0  0  0  0  0
   59.5210   28.1620   44.8930 C   0  0  0  0  0  0  0  0  0  0  0  0
   56.3270   31.3120   44.5100 N   0  0  0  0  0  0  0  0  0  0  0  0
   57.3200   32.1210   45.1500 C   0  0  0  0  0  0  0  0  0  0  0  0
   56.9590   33.3730   45.6590 C   0  0  0  0  0  0  0  0  0  0  0  0
   57.9070   34.1730   46.3040 C   0  0  0  0  0  0  0  0  0  0  0  0
   59.2250   33.7180   46.4740 C   0  0  0  0  0  0  0  0  0  0  0  0
   60.2550   34.5920   47.1580 C   0  0  0  0  0  0  0  0  0  0  0  0
   61.4370   33.8530   47.6580 N   0  0  0  0  0  0  0  0  0  0  0  0
   62.5700   33.8540   46.7070 C   0  0  0  0  0  0  0  0  0  0  0  0
   63.8190   33.1570   47.2920 C   0  0  0  0  0  0  0  0  0  0  0  0
   63.4850   32.3410   48.5450 C   0  0  0  0  0  0  0  0  0  0  0  0
   62.8130   33.2190   49.6150 C   0  0  0  0  0  0  0  0  0  0  0  0
   61.8620   34.2680   49.0090 C   0  0  0  0  0  0  0  0  0  0  0  0
   59.5780   32.4490   45.9830 C   0  0  0  0  0  0  0  0  0  0  0  0
   58.6290   31.6510   45.3410 C   0  0  0  0  0  0  0  0  0  0  0  0
   56.9709   28.2621   43.3536 H   0  0  0  0  0  0  0  0  0  0  0  0
   58.1098   29.6582   43.5342 H   0  0  0  0  0  0  0  0  0  0  0  0
   58.0126   30.0437   46.3828 H   0  0  0  0  0  0  0  0  0  0  0  0
   56.7093   28.8345   46.6894 H   0  0  0  0  0  0  0  0  0  0  0  0
   58.4127   28.8824   48.5085 H   0  0  0  0  0  0  0  0  0  0  0  0
   58.3301   27.2816   47.6380 H   0  0  0  0  0  0  0  0  0  0  0  0
   61.4055   28.5341   48.9403 H   0  0  0  0  0  0  0  0  0  0  0  0
   61.4522   29.9172   47.7836 H   0  0  0  0  0  0  0  0  0  0  0  0
   59.8030   31.6986   47.8633 H   0  0  0  0  0  0  0  0  0  0  0  0
   58.1969   32.9726   49.2883 H   0  0  0  0  0  0  0  0  0  0  0  0
   57.3236   31.9632   51.3985 H   0  0  0  0  0  0  0  0  0  0  0  0
   58.0524   29.6768   52.0850 H   0  0  0  0  0  0  0  0  0  0  0  0
   59.6556   28.3941   50.6656 H   0  0  0  0  0  0  0  0  0  0  0  0
   60.2640   29.9392   45.8786 H   0  0  0  0  0  0  0  0  0  0  0  0
   61.4620   28.5943   45.7298 H   0  0  0  0  0  0  0  0  0  0  0  0
   59.7449   28.5930   43.9060 H   0  0  0  0  0  0  0  0  0  0  0  0
   59.7420   27.0853   44.9372 H   0  0  0  0  0  0  0  0  0  0  0  0
   55.9241   33.7299   45.5512 H   0  0  0  0  0  0  0  0  0  0  0  0
   57.6188   35.1654   46.6809 H   0  0  0  0  0  0  0  0  0  0  0  0
   60.5996   35.3486   46.4377 H   0  0  0  0  0  0  0  0  0  0  0  0
   59.7627   35.0355   48.0360 H   0  0  0  0  0  0  0  0  0  0  0  0
   62.2652   33.3262   45.7913 H   0  0  0  0  0  0  0  0  0  0  0  0
   62.8338   34.9006   46.4947 H   0  0  0  0  0  0  0  0  0  0  0  0
   64.2394   32.4834   46.5308 H   0  0  0  0  0  0  0  0  0  0  0  0
   64.5420   33.9360   47.5757 H   0  0  0  0  0  0  0  0  0  0  0  0
   62.8020   31.5238   48.2700 H   0  0  0  0  0  0  0  0  0  0  0  0
   64.4211   31.9393   48.9601 H   0  0  0  0  0  0  0  0  0  0  0  0
   62.2371   32.5707   50.2918 H   0  0  0  0  0  0  0  0  0  0  0  0
   63.6080   33.7596   50.1496 H   0  0  0  0  0  0  0  0  0  0  0  0
   60.9761   34.3699   49.6530 H   0  0  0  0  0  0  0  0  0  0  0  0
   62.3890   35.2310   48.9387 H   0  0  0  0  0  0  0  0  0  0  0  0
   60.6079   32.0825   46.1053 H   0  0  0  0  0  0  0  0  0  0  0  0
   58.9084   30.6491   44.9831 H   0  0  0  0  0  0  0  0  0  0  0  0
  1  2  2  0
  2  3  1  0
  3  4  1  0
  4  5  1  0
  5  6  1  0
  6  7  1  0
  7  8  1  0
  8  9  1  0
  9 10  2  0
 10 11  1  0
 11 12  2  0
 12 13  1  0
 13 14  2  0
  7 15  1  0
 15 16  1  0
  2 17  1  0
 17 18  1  0
 18 19  2  0
 19 20  1  0
 20 21  2  0
 21 22  1  0
 22 23  1  0
 23 24  1  0
 24 25  1  0
 25 26  1  0
 26 27  1  0
 27 28  1  0
 21 29  1  0
 29 30  2  0
 16  4  1  0
 30 18  1  0
 14  9  1  0
 28 23  1  0
  3 31  1  0
  3 32  1  0
  5 33  1  0
  5 34  1  0
  6 35  1  0
  6 36  1  0
  8 37  1  0
  8 38  1  0
 10 39  1  0
 11 40  1  0
 12 41  1  0
 13 42  1  0
 14 43  1  0
 15 44  1  0
 15 45  1  0
 16 46  1  0
 16 47  1  0
 19 48  1  0
 20 49  1  0
 22 50  1  0
 22 51  1  0
 24 52  1  0
 24 53  1  0
 25 54  1  0
 25 55  1  0
 26 56  1  0
 26 57  1  0
 27 58  1  0
 27 59  1  0
 28 60  1  0
 28 61  1  0
 29 62  1  0
 30 63  1  0
M  CHG  1  17  -1
M  END
>  <UniqueID>  (73) 
64

>  <SMILES>  (73) 
O=C(CN1CCN(Cc2ccccc2)CC1)[N-]c1ccc(CN2CCCCC2)cc1

>  <Energy>  (73) 
90.5887234210196

>  <Genealogy>  (73) 
O=C(CN1CCN(Cc2ccccc2)CC1)[N-]c1ccc(CN2CCCCC2)cc1 (protonated)
O=C(CN1CCN(Cc2ccccc2)CC1)[N-]c1ccc(CN2CCCCC2)cc1 (3D coordinates assigned)
O=C(CN1CCN(Cc2ccccc2)CC1)[N-]c1ccc(CN2CCCCC2)cc1 (nonaromatic ring conformer: 90.5887234210196 kcal/mol)

>  <smiles>  (73) 
O=C(CN1CCN(Cc2ccccc2)CC1)Nc1ccc(CN2CCCCC2)cc1

>  <score_type>  (73) 
oracle

>  <origin>  (73) 
adg

>  <m_score__min__energy>  (73) 
-10.82

>  <m_primary>  (73) 
energy

$$$$
73:0
     RDKit          3D

 42 44  0  0  0  0  0  0  0  0999 V2000
   56.5849   27.5735   45.6345 H   0  0  0  0  0  0  0  0  0  0  0  0
   57.2080   28.4800   45.6290 C   0  0  0  0  0  0  0  0  0  0  0  0
   56.6780   29.6650   45.2290 N   0  0  0  0  0  0  0  0  0  0  0  0
   57.4140   30.8130   45.2060 C   0  0  0  0  0  0  0  0  0  0  0  0
   56.8830   31.9390   44.8300 N   0  0  0  0  0  0  0  0  0  0  0  0
   56.6460   33.0860   45.7060 C   0  0  0  0  0  0  0  0  0  0  0  0
   56.1041   32.7502   46.6024 H   0  0  0  0  0  0  0  0  0  0  0  0
   56.0516   33.8328   45.1591 H   0  0  0  0  0  0  0  0  0  0  0  0
   57.9520   33.7150   46.1230 C   0  0  0  0  0  0  0  0  0  0  0  0
   58.6170   34.5900   45.2480 C   0  0  0  0  0  0  0  0  0  0  0  0
   58.1903   34.7992   44.2559 H   0  0  0  0  0  0  0  0  0  0  0  0
   59.8160   35.1960   45.6290 C   0  0  0  0  0  0  0  0  0  0  0  0
   60.3296   35.8806   44.9379 H   0  0  0  0  0  0  0  0  0  0  0  0
   60.3630   34.9340   46.8850 C   0  0  0  0  0  0  0  0  0  0  0  0
   61.3086   35.4109   47.1824 H   0  0  0  0  0  0  0  0  0  0  0  0
   59.7120   34.0670   47.7660 C   0  0  0  0  0  0  0  0  0  0  0  0
   60.1479   33.8654   48.7556 H   0  0  0  0  0  0  0  0  0  0  0  0
   58.5010   33.4490   47.3960 C   0  0  0  0  0  0  0  0  0  0  0  0
   57.8190   32.5780   48.2600 O   0  0  0  0  0  0  0  0  0  0  0  0
   58.3530   32.0640   49.4760 C   0  0  0  0  0  0  0  0  0  0  0  0
   57.8525   32.5458   50.3289 H   0  0  0  0  0  0  0  0  0  0  0  0
   58.1867   30.9775   49.5192 H   0  0  0  0  0  0  0  0  0  0  0  0
   59.4324   32.2717   49.5192 H   0  0  0  0  0  0  0  0  0  0  0  0
   58.7560   30.7820   45.6000 C   0  0  0  0  0  0  0  0  0  0  0  0
   59.3574   31.7029   45.5833 H   0  0  0  0  0  0  0  0  0  0  0  0
   59.3330   29.5710   46.0170 C   0  0  0  0  0  0  0  0  0  0  0  0
   60.7050   29.5300   46.4670 N   0  0  0  0  0  0  0  0  0  0  0  0
   61.0710   28.5490   46.4440 H   0  0  0  0  0  0  0  0  0  0  0  0
   61.2960   30.0950   45.8140 H   0  0  0  0  0  0  0  0  0  0  0  0
   60.8400   30.0840   47.8240 C   0  0  0  0  0  0  0  0  0  0  0  0
   59.8573   30.4454   48.1613 H   0  0  0  0  0  0  0  0  0  0  0  0
   61.2142   29.2880   48.4846 H   0  0  0  0  0  0  0  0  0  0  0  0
   61.8170   31.2230   47.8620 C   0  0  0  0  0  0  0  0  0  0  0  0
   62.4220   31.7070   46.8020 O   0  0  0  0  0  0  0  0  0  0  0  0
   63.1770   32.7140   47.1780 C   0  0  0  0  0  0  0  0  0  0  0  0
   63.8068   33.3174   46.5078 H   0  0  0  0  0  0  0  0  0  0  0  0
   63.0610   32.9010   48.5410 C   0  0  0  0  0  0  0  0  0  0  0  0
   63.5687   33.6639   49.1495 H   0  0  0  0  0  0  0  0  0  0  0  0
   62.1800   31.9380   48.9850 C   0  0  0  0  0  0  0  0  0  0  0  0
   61.8382   31.7740   50.0176 H   0  0  0  0  0  0  0  0  0  0  0  0
   58.5420   28.4110   46.0330 C   0  0  0  0  0  0  0  0  0  0  0  0
   58.9714   27.4532   46.3621 H   0  0  0  0  0  0  0  0  0  0  0  0
  1  2  1  0
  2  3  1  0
  3  4  1  0
  4  5  2  0
  5  6  1  0
  6  7  1  0
  6  8  1  0
  6  9  1  0
  9 10  2  0
 10 11  1  0
 10 12  1  0
 12 13  1  0
 12 14  2  0
 14 15  1  0
 14 16  1  0
 16 17  1  0
 16 18  2  0
 18 19  1  0
 19 20  1  0
 20 21  1  0
 20 22  1  0
 20 23  1  0
  4 24  1  0
 24 25  1  0
 24 26  2  0
 26 27  1  0
 27 28  1  0
 27 29  1  0
 27 30  1  0
 30 31  1  0
 30 32  1  0
 30 33  1  0
 33 34  1  0
 34 35  1  0
 35 36  1  0
 35 37  2  0
 37 38  1  0
 37 39  1  0
 39 40  1  0
 26 41  1  0
 41 42  1  0
 41  2  2  0
 18  9  1  0
 39 33  2  0
M  CHG  2   3  -1  27   1
M  END
>  <UniqueID>  (74) 
65

>  <SMILES>  (74) 
COc1ccccc1C/N=c1/cc([NH2+]Cc2ccco2)cc[n-]1

>  <Energy>  (74) 
69.38287321266013

>  <Genealogy>  (74) 
COc1ccccc1CN=c1cc([NH2+]Cc2ccco2)cc[n-]1 (protonated)
COc1ccccc1C/N=c1/cc([NH2+]Cc2ccco2)cc[n-]1 (cis-trans isomerization)
COc1ccccc1C/N=c1/cc([NH2+]Cc2ccco2)cc[n-]1 (3D coordinates assigned)
COc1ccccc1C/N=c1/cc([NH2+]Cc2ccco2)cc[n-]1 (optimized conformer: 69.38287321266013 kcal/mol)

>  <smiles>  (74) 
COc1ccccc1CN=c1cc(NCc2ccco2)cc[nH]1

>  <score_type>  (74) 
oracle

>  <origin>  (74) 
adg

>  <m_score__min__energy>  (74) 
-6.8099999999999996

>  <m_primary>  (74) 
energy

$$$$
74:0
     RDKit          3D

 58 62  0  0  0  0  0  0  0  0999 V2000
   61.0940   29.1190   49.2410 C   0  0  0  0  0  0  0  0  0  0  0  0
   60.9610   30.2100   48.3380 O   0  0  0  0  0  0  0  0  0  0  0  0
   61.8990   31.2410   48.1930 C   0  0  0  0  0  0  0  0  0  0  0  0
   61.8460   32.1570   47.1210 C   0  0  0  0  0  0  0  0  0  0  0  0
   62.8170   33.1570   47.0030 C   0  0  0  0  0  0  0  0  0  0  0  0
   63.8420   33.2580   47.9450 C   0  0  0  0  0  0  0  0  0  0  0  0
   63.8500   32.4070   49.0630 C   0  0  0  0  0  0  0  0  0  0  0  0
   65.0620   32.6420   50.3750 S   0  0  0  0  0  0  0  0  0  0  0  0
   63.7930   32.5930   51.6570 C   0  0  0  0  0  0  0  0  0  0  0  0
   63.8740   31.6930   52.7280 C   0  0  0  0  0  0  0  0  0  0  0  0
   65.2690   30.6510   52.9650 Cl  0  0  0  0  0  0  0  0  0  0  0  0
   62.8150   31.6240   53.6350 C   0  0  0  0  0  0  0  0  0  0  0  0
   61.7010   32.3760   53.4320 N   0  0  0  0  0  0  0  0  0  0  0  0
   61.5940   33.2140   52.3890 N   0  0  0  0  0  0  0  0  0  0  0  0
   60.3010   33.8670   52.1110 C   0  0  0  0  0  0  0  0  0  0  0  0
   59.6790   33.3060   50.8450 C   0  0  0  0  0  0  0  0  0  0  0  0
   59.7450   34.0680   49.7210 N   0  0  0  0  0  0  0  0  0  0  0  0
   59.2950   33.6220   48.5240 C   0  0  0  0  0  0  0  0  0  0  0  0
   59.3850   34.4420   47.3880 C   0  0  0  0  0  0  0  0  0  0  0  0
   58.9290   33.9800   46.1380 C   0  0  0  0  0  0  0  0  0  0  0  0
   58.9880   34.8830   44.9250 C   0  0  0  0  0  0  0  0  0  0  0  0
   57.7120   35.1850   44.4860 F   0  0  0  0  0  0  0  0  0  0  0  0
   59.6770   34.2380   43.9060 F   0  0  0  0  0  0  0  0  0  0  0  0
   59.6350   36.0750   45.2270 F   0  0  0  0  0  0  0  0  0  0  0  0
   58.3360   32.7030   46.0550 C   0  0  0  0  0  0  0  0  0  0  0  0
   58.2460   31.8860   47.1880 C   0  0  0  0  0  0  0  0  0  0  0  0
   58.7340   32.3380   48.4280 C   0  0  0  0  0  0  0  0  0  0  0  0
   58.6700   31.5510   49.5890 C   0  0  0  0  0  0  0  0  0  0  0  0
   58.1600   30.3980   49.5360 O   0  0  0  0  0  0  0  0  0  0  0  0
   59.1500   32.0350   50.7790 N   0  0  0  0  0  0  0  0  0  0  0  0
   59.1060   31.1890   51.9450 C   0  0  0  0  0  0  0  0  0  0  0  0
   58.1290   31.3960   52.9320 C   0  0  0  0  0  0  0  0  0  0  0  0
   58.0800   30.5690   54.0560 C   0  0  0  0  0  0  0  0  0  0  0  0
   59.0100   29.5400   54.2050 C   0  0  0  0  0  0  0  0  0  0  0  0
   59.9970   29.3410   53.2350 C   0  0  0  0  0  0  0  0  0  0  0  0
   61.1670   28.0520   53.4260 Cl  0  0  0  0  0  0  0  0  0  0  0  0
   60.0490   30.1690   52.1100 C   0  0  0  0  0  0  0  0  0  0  0  0
   62.6560   33.4050   51.5440 C   0  0  0  0  0  0  0  0  0  0  0  0
   62.6050   34.2890   50.6460 O   0  0  0  0  0  0  0  0  0  0  0  0
   62.8990   31.3870   49.1620 C   0  0  0  0  0  0  0  0  0  0  0  0
   61.0486   29.4913   50.2751 H   0  0  0  0  0  0  0  0  0  0  0  0
   60.2766   28.4023   49.0731 H   0  0  0  0  0  0  0  0  0  0  0  0
   62.0597   28.6197   49.0731 H   0  0  0  0  0  0  0  0  0  0  0  0
   61.0394   32.0846   46.3765 H   0  0  0  0  0  0  0  0  0  0  0  0
   62.7726   33.8670   46.1640 H   0  0  0  0  0  0  0  0  0  0  0  0
   64.6414   34.0019   47.8125 H   0  0  0  0  0  0  0  0  0  0  0  0
   62.8819   30.9629   54.5116 H   0  0  0  0  0  0  0  0  0  0  0  0
   60.9030   32.2510   54.0980 H   0  0  0  0  0  0  0  0  0  0  0  0
   59.6191   33.6928   52.9564 H   0  0  0  0  0  0  0  0  0  0  0  0
   60.4709   34.9452   51.9743 H   0  0  0  0  0  0  0  0  0  0  0  0
   59.8141   35.4511   47.4746 H   0  0  0  0  0  0  0  0  0  0  0  0
   57.9411   32.3463   45.0923 H   0  0  0  0  0  0  0  0  0  0  0  0
   57.7922   30.8871   47.1088 H   0  0  0  0  0  0  0  0  0  0  0  0
   57.4001   32.2121   52.8194 H   0  0  0  0  0  0  0  0  0  0  0  0
   57.3085   30.7288   54.8236 H   0  0  0  0  0  0  0  0  0  0  0  0
   58.9667   28.8841   55.0870 H   0  0  0  0  0  0  0  0  0  0  0  0
   60.8328   30.0183   51.3531 H   0  0  0  0  0  0  0  0  0  0  0  0
   62.9369   30.6901   50.0122 H   0  0  0  0  0  0  0  0  0  0  0  0
  1  2  1  0
  2  3  1  0
  3  4  2  0
  4  5  1  0
  5  6  2  0
  6  7  1  0
  7  8  1  0
  8  9  1  0
  9 10  2  0
 10 11  1  0
 10 12  1  0
 12 13  2  0
 13 14  1  0
 14 15  1  0
 15 16  1  0
 16 17  2  0
 17 18  1  0
 18 19  2  0
 19 20  1  0
 20 21  1  0
 21 22  1  0
 21 23  1  0
 21 24  1  0
 20 25  2  0
 25 26  1  0
 26 27  2  0
 27 28  1  0
 28 29  2  0
 28 30  1  0
 30 31  1  0
 31 32  2  0
 32 33  1  0
 33 34  2  0
 34 35  1  0
 35 36  1  0
 35 37  2  0
 14 38  1  0
 38 39  2  0
  7 40  2  0
 40  3  1  0
 38  9  1  0
 30 16  1  0
 37 31  1  0
 27 18  1  0
  1 41  1  0
  1 42  1  0
  1 43  1  0
  4 44  1  0
  5 45  1  0
  6 46  1  0
 12 47  1  0
 13 48  1  0
 15 49  1  0
 15 50  1  0
 19 51  1  0
 25 52  1  0
 26 53  1  0
 32 54  1  0
 33 55  1  0
 34 56  1  0
 37 57  1  0
 40 58  1  0
M  CHG  1  13   1
M  END
>  <UniqueID>  (75) 
66

>  <SMILES>  (75) 
COc1cccc(Sc2c(Cl)c[nH+]n(Cc3nc4cc(C(F)(F)F)ccc4c(=O)n3-c3cccc(Cl)c3)c2=O)c1

>  <Energy>  (75) 
72.69337426993098

>  <Genealogy>  (75) 
COc1cccc(Sc2c(Cl)c[nH+]n(Cc3nc4cc(C(F)(F)F)ccc4c(=O)n3-c3cccc(Cl)c3)c2=O)c1 (protonated)
COc1cccc(Sc2c(Cl)c[nH+]n(Cc3nc4cc(C(F)(F)F)ccc4c(=O)n3-c3cccc(Cl)c3)c2=O)c1 (3D coordinates assigned)
COc1cccc(Sc2c(Cl)c[nH+]n(Cc3nc4cc(C(F)(F)F)ccc4c(=O)n3-c3cccc(Cl)c3)c2=O)c1 (optimized conformer: 72.69337426993098 kcal/mol)

>  <smiles>  (75) 
COc1cccc(Sc2c(Cl)cnn(Cc3nc4cc(C(F)(F)F)ccc4c(=O)n3-c3cccc(Cl)c3)c2=O)c1

>  <score_type>  (75) 
oracle

>  <origin>  (75) 
adg

>  <m_score__min__energy>  (75) 
-7.7999999999999998

>  <m_primary>  (75) 
energy

$$$$
75:0
     RDKit          3D

 38 40  0  0  0  0  0  0  0  0999 V2000
   57.0600   32.3430   40.9880 C   0  0  0  0  0  0  0  0  0  0  0  0
   58.2790   32.6720   41.8480 C   0  0  0  0  0  0  0  0  0  0  0  0
   58.0480   32.2800   43.2550 N   0  0  0  0  0  0  0  0  0  0  0  0
   57.7790   33.4490   44.1320 C   0  0  0  0  0  0  0  0  0  0  0  0
   58.5550   33.4310   45.4350 C   0  0  0  0  0  0  0  0  0  0  0  0
   58.5690   34.5580   46.2720 C   0  0  0  0  0  0  0  0  0  0  0  0
   59.2830   34.5170   47.4700 C   0  0  0  0  0  0  0  0  0  0  0  0
   59.9830   33.3630   47.8220 C   0  0  0  0  0  0  0  0  0  0  0  0
   59.9630   32.2640   46.9620 C   0  0  0  0  0  0  0  0  0  0  0  0
   59.2620   32.3190   45.7960 N   0  0  0  0  0  0  0  0  0  0  0  0
   57.0270   31.2160   43.3740 C   0  0  0  0  0  0  0  0  0  0  0  0
   57.5440   30.0710   44.1890 C   0  0  0  0  0  0  0  0  0  0  0  0
   58.8630   29.8570   44.4170 N   0  0  0  0  0  0  0  0  0  0  0  0
   59.0480   28.7570   45.1900 C   0  0  0  0  0  0  0  0  0  0  0  0
   60.2950   28.2770   45.5930 C   0  0  0  0  0  0  0  0  0  0  0  0
   60.3480   27.1250   46.3970 C   0  0  0  0  0  0  0  0  0  0  0  0
   59.1620   26.4720   46.7870 C   0  0  0  0  0  0  0  0  0  0  0  0
   57.9120   26.9650   46.3770 C   0  0  0  0  0  0  0  0  0  0  0  0
   57.8880   28.1070   45.5800 C   0  0  0  0  0  0  0  0  0  0  0  0
   56.5620   28.9170   44.9470 S   0  0  0  0  0  0  0  0  0  0  0  0
   56.2038   32.1119   41.6387 H   0  0  0  0  0  0  0  0  0  0  0  0
   56.8152   33.2072   40.3530 H   0  0  0  0  0  0  0  0  0  0  0  0
   57.2833   31.4730   40.3530 H   0  0  0  0  0  0  0  0  0  0  0  0
   59.1522   32.1269   41.4601 H   0  0  0  0  0  0  0  0  0  0  0  0
   58.4572   33.7567   41.8081 H   0  0  0  0  0  0  0  0  0  0  0  0
   58.0465   34.3634   43.5821 H   0  0  0  0  0  0  0  0  0  0  0  0
   56.7117   33.4117   44.3954 H   0  0  0  0  0  0  0  0  0  0  0  0
   58.0206   35.4674   45.9852 H   0  0  0  0  0  0  0  0  0  0  0  0
   59.2939   35.3928   48.1355 H   0  0  0  0  0  0  0  0  0  0  0  0
   60.5445   33.3196   48.7669 H   0  0  0  0  0  0  0  0  0  0  0  0
   60.5154   31.3504   47.2270 H   0  0  0  0  0  0  0  0  0  0  0  0
   59.2760   31.4830   45.1710 H   0  0  0  0  0  0  0  0  0  0  0  0
   56.1309   31.6290   43.8602 H   0  0  0  0  0  0  0  0  0  0  0  0
   56.7815   30.8489   42.3665 H   0  0  0  0  0  0  0  0  0  0  0  0
   61.2187   28.7902   45.2874 H   0  0  0  0  0  0  0  0  0  0  0  0
   61.3216   26.7309   46.7237 H   0  0  0  0  0  0  0  0  0  0  0  0
   59.2151   25.5712   47.4160 H   0  0  0  0  0  0  0  0  0  0  0  0
   56.9797   26.4639   46.6766 H   0  0  0  0  0  0  0  0  0  0  0  0
  1  2  1  0
  2  3  1  0
  3  4  1  0
  4  5  1  0
  5  6  2  0
  6  7  1  0
  7  8  2  0
  8  9  1  0
  9 10  2  0
  3 11  1  0
 11 12  1  0
 12 13  2  0
 13 14  1  0
 14 15  2  0
 15 16  1  0
 16 17  2  0
 17 18  1  0
 18 19  2  0
 19 20  1  0
 10  5  1  0
 20 12  1  0
 19 14  1  0
  1 21  1  0
  1 22  1  0
  1 23  1  0
  2 24  1  0
  2 25  1  0
  4 26  1  0
  4 27  1  0
  6 28  1  0
  7 29  1  0
  8 30  1  0
  9 31  1  0
 10 32  1  0
 11 33  1  0
 11 34  1  0
 15 35  1  0
 16 36  1  0
 17 37  1  0
 18 38  1  0
M  CHG  1  10   1
M  END
>  <UniqueID>  (76) 
67

>  <SMILES>  (76) 
CCN(Cc1cccc[nH+]1)Cc1nc2ccccc2s1

>  <Energy>  (76) 
75.55062437344301

>  <Genealogy>  (76) 
CCN(Cc1cccc[nH+]1)Cc1nc2ccccc2s1 (protonated)
CCN(Cc1cccc[nH+]1)Cc1nc2ccccc2s1 (3D coordinates assigned)
CCN(Cc1cccc[nH+]1)Cc1nc2ccccc2s1 (optimized conformer: 75.55062437344301 kcal/mol)

>  <smiles>  (76) 
CCN(Cc1ccccn1)Cc1nc2ccccc2s1

>  <score_type>  (76) 
oracle

>  <origin>  (76) 
adg

>  <m_score__min__energy>  (76) 
-5

>  <m_primary>  (76) 
energy

$$$$
76:0
     RDKit          3D

 38 40  0  0  0  0  0  0  0  0999 V2000
   63.3520   32.6220   47.3870 C   0  0  0  0  0  0  0  0  0  0  0  0
   62.4370   31.5940   47.7530 O   0  0  0  0  0  0  0  0  0  0  0  0
   61.1970   31.3790   47.1350 C   0  0  0  0  0  0  0  0  0  0  0  0
   60.4430   32.4940   46.7570 C   0  0  0  0  0  0  0  0  0  0  0  0
   59.1880   32.3500   46.1310 C   0  0  0  0  0  0  0  0  0  0  0  0
   58.4310   33.4720   45.7530 O   0  0  0  0  0  0  0  0  0  0  0  0
   58.9610   34.6430   45.1400 C   0  0  0  0  0  0  0  0  0  0  0  0
   58.6880   31.0490   45.8840 C   0  0  0  0  0  0  0  0  0  0  0  0
   57.4430   30.8020   45.2640 C   0  0  0  0  0  0  0  0  0  0  0  0
   56.6980   31.7470   44.8910 O   0  0  0  0  0  0  0  0  0  0  0  0
   57.0310   29.5250   45.0590 N   0  0  0  0  0  0  0  0  0  0  0  0
   57.7850   28.4580   45.4370 C   0  0  0  0  0  0  0  0  0  0  0  0
   57.3020   27.0760   45.1980 C   0  0  0  0  0  0  0  0  0  0  0  0
   57.8450   26.2940   44.1590 C   0  0  0  0  0  0  0  0  0  0  0  0
   57.3900   24.9930   43.9360 C   0  0  0  0  0  0  0  0  0  0  0  0
   56.3870   24.4460   44.7470 C   0  0  0  0  0  0  0  0  0  0  0  0
   55.8030   22.8110   44.4560 S   0  0  0  0  0  0  0  0  0  0  0  0
   54.1650   22.6800   44.9930 N   0  0  0  0  0  0  0  0  0  0  0  0
   56.6570   21.8240   45.2020 O   0  0  0  0  0  0  0  0  0  0  0  0
   55.8740   22.4970   42.9880 O   0  0  0  0  0  0  0  0  0  0  0  0
   55.8360   25.2170   45.7760 C   0  0  0  0  0  0  0  0  0  0  0  0
   56.2900   26.5200   46.0030 C   0  0  0  0  0  0  0  0  0  0  0  0
   58.9860   28.6710   46.0350 N   0  0  0  0  0  0  0  0  0  0  0  0
   59.4530   29.9250   46.2670 C   0  0  0  0  0  0  0  0  0  0  0  0
   60.6950   30.0910   46.8860 C   0  0  0  0  0  0  0  0  0  0  0  0
   63.7648   33.0858   48.2950 H   0  0  0  0  0  0  0  0  0  0  0  0
   64.1699   32.1900   46.7916 H   0  0  0  0  0  0  0  0  0  0  0  0
   62.8281   33.3843   46.7916 H   0  0  0  0  0  0  0  0  0  0  0  0
   60.8364   33.5026   46.9517 H   0  0  0  0  0  0  0  0  0  0  0  0
   59.2815   35.3512   45.9183 H   0  0  0  0  0  0  0  0  0  0  0  0
   59.8237   34.3708   44.5141 H   0  0  0  0  0  0  0  0  0  0  0  0
   58.1872   35.1115   44.5141 H   0  0  0  0  0  0  0  0  0  0  0  0
   58.6347   26.7125   43.5177 H   0  0  0  0  0  0  0  0  0  0  0  0
   57.8210   24.3947   43.1198 H   0  0  0  0  0  0  0  0  0  0  0  0
   53.5600   23.0010   44.2040 H   0  0  0  0  0  0  0  0  0  0  0  0
   55.0415   24.7961   46.4098 H   0  0  0  0  0  0  0  0  0  0  0  0
   55.8525   27.1156   46.8177 H   0  0  0  0  0  0  0  0  0  0  0  0
   61.2824   29.2085   47.1797 H   0  0  0  0  0  0  0  0  0  0  0  0
  1  2  1  0
  2  3  1  0
  3  4  2  0
  4  5  1  0
  5  6  1  0
  6  7  1  0
  5  8  2  0
  8  9  1  0
  9 10  2  0
  9 11  1  0
 11 12  2  0
 12 13  1  0
 13 14  2  0
 14 15  1  0
 15 16  2  0
 16 17  1  0
 17 18  1  0
 17 19  2  0
 17 20  2  0
 16 21  1  0
 21 22  2  0
 12 23  1  0
 23 24  1  0
 24 25  2  0
 25  3  1  0
 24  8  1  0
 22 13  1  0
  1 26  1  0
  1 27  1  0
  1 28  1  0
  4 29  1  0
  7 30  1  0
  7 31  1  0
  7 32  1  0
 14 33  1  0
 15 34  1  0
 18 35  1  0
 21 36  1  0
 22 37  1  0
 25 38  1  0
M  CHG  2  18  -1  23  -1
M  END
>  <UniqueID>  (77) 
68

>  <SMILES>  (77) 
COc1cc(OC)c2c(=O)nc(-c3ccc(S([NH-])(=O)=O)cc3)[n-]c2c1

>  <Energy>  (77) 
47.05417789961172

>  <Genealogy>  (77) 
COc1cc(OC)c2c(=O)nc(-c3ccc(S([NH-])(=O)=O)cc3)[n-]c2c1 (protonated)
COc1cc(OC)c2c(=O)nc(-c3ccc(S([NH-])(=O)=O)cc3)[n-]c2c1 (3D coordinates assigned)
COc1cc(OC)c2c(=O)nc(-c3ccc(S([NH-])(=O)=O)cc3)[n-]c2c1 (optimized conformer: 47.05417789961172 kcal/mol)

>  <smiles>  (77) 
COc1cc(OC)c2c(=O)nc(-c3ccc(S(N)(=O)=O)cc3)[nH]c2c1

>  <score_type>  (77) 
oracle

>  <origin>  (77) 
adg

>  <m_score__min__energy>  (77) 
-9.5999999999999996

>  <m_primary>  (77) 
energy

$$$$
77:0
     RDKit          3D

 47 49  0  0  1  0  0  0  0  0999 V2000
   60.8640   28.8700   44.6550 O   0  0  0  0  0  0  0  0  0  0  0  0
   60.3840   29.0170   45.8150 C   0  0  0  0  0  0  0  0  0  0  0  0
   60.6740   30.1560   46.4550 N   0  0  0  0  0  0  0  0  0  0  0  0
   60.2140   30.4220   47.7010 C   0  0  0  0  0  0  0  0  0  0  0  0
   60.5210   31.5270   48.2700 N   0  0  0  0  0  0  0  0  0  0  0  0
   61.7820   32.1690   48.1000 C   0  0  0  0  0  0  0  0  0  0  0  0
   62.8580   31.9240   48.9210 C   0  0  0  0  0  0  0  0  0  0  0  0
   64.0240   32.6140   48.6450 C   0  0  0  0  0  0  0  0  0  0  0  0
   64.1300   33.5110   47.6010 C   0  0  0  0  0  0  0  0  0  0  0  0
   63.0440   33.7550   46.7750 C   0  0  0  0  0  0  0  0  0  0  0  0
   61.8800   33.0670   47.0490 C   0  0  0  0  0  0  0  0  0  0  0  0
   59.4250   29.4470   48.2780 C   0  0  0  0  0  0  0  0  0  0  0  0
   59.1430   28.2810   47.5920 C   0  0  0  0  0  0  0  0  0  0  0  0
   59.6120   28.0470   46.3590 N   0  0  0  0  0  0  0  0  0  0  0  0
   59.3770   26.8730   45.5810 C   0  0  0  0  0  0  0  0  0  0  0  0
   58.3320   27.1670   44.5400 C   0  0  0  0  0  0  0  0  0  0  0  0
   57.6470   28.4680   44.8830 C   0  0  0  0  0  0  0  0  0  0  0  0
   57.9950   29.4280   43.8510 N   0  0  0  0  0  0  0  0  0  0  0  0
   56.9640   30.8110   43.8560 S   0  0  0  0  0  0  0  0  0  0  0  0
   55.6640   30.4900   44.4950 O   0  0  0  0  0  0  0  0  0  0  0  0
   56.6650   31.1050   42.4000 O   0  0  0  0  0  0  0  0  0  0  0  0
   57.8020   32.1510   44.6040 C   0  0  0  0  0  0  0  0  0  0  0  0
   57.7800   32.1910   45.9980 C   0  0  0  0  0  0  0  0  0  0  0  0
   58.4330   33.2370   46.6540 C   0  0  0  0  0  0  0  0  0  0  0  0
   59.0890   34.2170   45.9180 C   0  0  0  0  0  0  0  0  0  0  0  0
   59.0760   34.1240   44.5420 C   0  0  0  0  0  0  0  0  0  0  0  0
   58.4480   33.1130   43.8530 C   0  0  0  0  0  0  0  0  0  0  0  0
   61.2780   30.8980   46.0100 H   0  0  0  0  0  0  0  0  0  0  0  0
   62.7939   31.2127   49.7577 H   0  0  0  0  0  0  0  0  0  0  0  0
   64.9030   32.4411   49.2833 H   0  0  0  0  0  0  0  0  0  0  0  0
   65.0810   34.0347   47.4238 H   0  0  0  0  0  0  0  0  0  0  0  0
   63.1074   34.4658   45.9379 H   0  0  0  0  0  0  0  0  0  0  0  0
   60.9998   33.2370   46.4116 H   0  0  0  0  0  0  0  0  0  0  0  0
   59.0188   29.5991   49.2889 H   0  0  0  0  0  0  0  0  0  0  0  0
   58.5124   27.5196   48.0744 H   0  0  0  0  0  0  0  0  0  0  0  0
   60.3110   26.5662   45.0875 H   0  0  0  0  0  0  0  0  0  0  0  0
   59.0267   26.0614   46.2356 H   0  0  0  0  0  0  0  0  0  0  0  0
   58.8090   27.2508   43.5524 H   0  0  0  0  0  0  0  0  0  0  0  0
   57.5924   26.3531   44.5165 H   0  0  0  0  0  0  0  0  0  0  0  0
   56.5569   28.3232   44.9095 H   0  0  0  0  0  0  0  0  0  0  0  0
   57.9689   28.8272   45.8716 H   0  0  0  0  0  0  0  0  0  0  0  0
   58.9890   29.6660   43.9210 H   0  0  0  0  0  0  0  0  0  0  0  0
   57.2569   31.4115   46.5714 H   0  0  0  0  0  0  0  0  0  0  0  0
   58.4282   33.2853   47.7529 H   0  0  0  0  0  0  0  0  0  0  0  0
   59.6063   35.0471   46.4212 H   0  0  0  0  0  0  0  0  0  0  0  0
   59.5967   34.9015   43.9637 H   0  0  0  0  0  0  0  0  0  0  0  0
   58.4598   33.0725   42.7538 H   0  0  0  0  0  0  0  0  0  0  0  0
  1  2  2  0
  2  3  1  0
  3  4  1  0
  4  5  2  0
  5  6  1  0
  6  7  2  0
  7  8  1  0
  8  9  2  0
  9 10  1  0
 10 11  2  0
  4 12  1  0
 12 13  2  0
 13 14  1  0
 14 15  1  0
 15 16  1  0
 16 17  1  0
 17 18  1  0
 18 19  1  0
 19 20  2  0
 19 21  2  0
 19 22  1  0
 22 23  2  0
 23 24  1  0
 24 25  2  0
 25 26  1  0
 26 27  2  0
 14  2  1  0
 27 22  1  0
 11  6  1  0
  3 28  1  0
  7 29  1  0
  8 30  1  0
  9 31  1  0
 10 32  1  0
 11 33  1  0
 12 34  1  0
 13 35  1  0
 15 36  1  0
 15 37  1  0
 16 38  1  0
 16 39  1  0
 17 40  1  0
 17 41  1  0
 18 42  1  0
 23 43  1  0
 24 44  1  0
 25 45  1  0
 26 46  1  0
 27 47  1  0
M  END
>  <smiles>  (78) 
O=c1[nH]c(=Nc2ccccc2)ccn1CCCNS(=O)(=O)c1ccccc1

>  <score_type>  (78) 
oracle

>  <origin>  (78) 
adg

>  <m_score__min__energy>  (78) 
-8.9700000000000006

>  <m_primary>  (78) 
energy

$$$$
78:0
     RDKit          3D

 28 29  0  0  0  0  0  0  0  0999 V2000
   56.1700   29.8130   44.8830 O   0  0  0  0  0  0  0  0  0  0  0  0
   57.3850   30.0650   44.6570 C   0  0  0  0  0  0  0  0  0  0  0  0
   58.2260   29.0550   44.0780 N   0  0  0  0  0  0  0  0  0  0  0  0
   57.8930   27.6570   44.0840 C   0  0  0  0  0  0  0  0  0  0  0  0
   58.0720   26.9030   42.9120 C   0  0  0  0  0  0  0  0  0  0  0  0
   57.7680   25.5390   42.8950 C   0  0  0  0  0  0  0  0  0  0  0  0
   57.2990   24.9110   44.0510 C   0  0  0  0  0  0  0  0  0  0  0  0
   57.1420   25.6460   45.2300 C   0  0  0  0  0  0  0  0  0  0  0  0
   57.4420   27.0120   45.2540 C   0  0  0  0  0  0  0  0  0  0  0  0
   57.3400   27.6880   46.4250 F   0  0  0  0  0  0  0  0  0  0  0  0
   57.9170   31.4190   44.9540 C   0  0  0  0  0  0  0  0  0  0  0  0
   58.9000   31.6100   45.9390 C   0  0  0  0  0  0  0  0  0  0  0  0
   59.3900   32.8890   46.2160 C   0  0  0  0  0  0  0  0  0  0  0  0
   58.9040   34.0080   45.5170 C   0  0  0  0  0  0  0  0  0  0  0  0
   59.4070   35.3260   45.7990 N   0  0  0  0  0  0  0  0  0  0  0  0
   59.6390   36.1320   44.8730 O   0  0  0  0  0  0  0  0  0  0  0  0
   59.6420   35.7240   47.0960 O   0  0  0  0  0  0  0  0  0  0  0  0
   57.9140   33.8190   44.5390 C   0  0  0  0  0  0  0  0  0  0  0  0
   57.4230   32.5390   44.2620 C   0  0  0  0  0  0  0  0  0  0  0  0
   59.0260   29.3620   43.4820 H   0  0  0  0  0  0  0  0  0  0  0  0
   58.4538   27.3893   42.0022 H   0  0  0  0  0  0  0  0  0  0  0  0
   57.8983   24.9590   41.9695 H   0  0  0  0  0  0  0  0  0  0  0  0
   57.0533   23.8389   44.0339 H   0  0  0  0  0  0  0  0  0  0  0  0
   56.7812   25.1481   46.1421 H   0  0  0  0  0  0  0  0  0  0  0  0
   59.2875   30.7451   46.4973 H   0  0  0  0  0  0  0  0  0  0  0  0
   60.1627   33.0215   46.9876 H   0  0  0  0  0  0  0  0  0  0  0  0
   57.5214   34.6851   43.9861 H   0  0  0  0  0  0  0  0  0  0  0  0
   56.6440   32.4074   43.4966 H   0  0  0  0  0  0  0  0  0  0  0  0
  1  2  2  0
  2  3  1  0
  3  4  1  0
  4  5  2  0
  5  6  1  0
  6  7  2  0
  7  8  1  0
  8  9  2  0
  9 10  1  0
  2 11  1  0
 11 12  2  0
 12 13  1  0
 13 14  2  0
 14 15  1  0
 15 16  2  0
 15 17  1  0
 14 18  1  0
 18 19  2  0
  9  4  1  0
 19 11  1  0
  3 20  1  0
  5 21  1  0
  6 22  1  0
  7 23  1  0
  8 24  1  0
 12 25  1  0
 13 26  1  0
 18 27  1  0
 19 28  1  0
M  CHG  2  15   1  17  -1
M  END
>  <UniqueID>  (79) 
69

>  <SMILES>  (79) 
O=C(Nc1ccccc1F)c1ccc([N+](=O)[O-])cc1

>  <Energy>  (79) 
36.84333566783022

>  <Genealogy>  (79) 
O=C(Nc1ccccc1F)c1ccc([N+](=O)[O-])cc1 (3D coordinates assigned)
O=C(Nc1ccccc1F)c1ccc([N+](=O)[O-])cc1 (optimized conformer: 36.84333566783022 kcal/mol)

>  <smiles>  (79) 
O=C(Nc1ccccc1F)c1ccc([N+](=O)[O-])cc1

>  <score_type>  (79) 
oracle

>  <origin>  (79) 
adg

>  <m_score__min__energy>  (79) 
-6.8300000000000001

>  <m_primary>  (79) 
energy

$$$$
79:0
     RDKit          3D

 41 43  0  0  0  0  0  0  0  0999 V2000
   57.5110   28.3910   44.1010 C   0  0  0  0  0  0  0  0  0  0  0  0
   56.3840   29.7700   44.1150 S   0  0  0  0  0  0  0  0  0  0  0  0
   55.9880   30.1000   42.7030 O   0  0  0  0  0  0  0  0  0  0  0  0
   55.1590   29.3730   44.8900 O   0  0  0  0  0  0  0  0  0  0  0  0
   57.1340   31.1530   44.8740 N   0  0  0  0  0  0  0  0  0  0  0  0
   58.3220   30.7300   45.6370 C   0  0  0  0  0  0  0  0  0  0  0  0
   58.9390   31.9290   46.3850 C   0  0  0  0  0  0  0  0  0  0  0  0
   58.3880   33.2090   45.8950 N   0  0  0  0  0  0  0  0  0  0  0  0
   58.9920   34.4010   46.5330 C   0  0  0  0  0  0  0  0  0  0  0  0
   59.8800   34.0880   47.7340 C   0  0  0  0  0  0  0  0  0  0  0  0
   59.2670   34.0230   48.9980 C   0  0  0  0  0  0  0  0  0  0  0  0
   60.0070   33.7540   50.1460 C   0  0  0  0  0  0  0  0  0  0  0  0
   61.3790   33.5340   50.0610 C   0  0  0  0  0  0  0  0  0  0  0  0
   62.0250   33.5690   48.8190 C   0  0  0  0  0  0  0  0  0  0  0  0
   63.3690   33.3370   48.7500 N   0  0  0  0  0  0  0  0  0  0  0  0
   64.0360   33.3510   47.5660 C   0  0  0  0  0  0  0  0  0  0  0  0
   63.3520   33.6030   46.3800 C   0  0  0  0  0  0  0  0  0  0  0  0
   61.9810   33.8440   46.4130 C   0  0  0  0  0  0  0  0  0  0  0  0
   61.2820   33.8400   47.6370 C   0  0  0  0  0  0  0  0  0  0  0  0
   58.3970   33.2610   44.4220 C   0  0  0  0  0  0  0  0  0  0  0  0
   57.5070   32.1420   43.8440 C   0  0  0  0  0  0  0  0  0  0  0  0
   57.7482   28.1008   45.1352 H   0  0  0  0  0  0  0  0  0  0  0  0
   57.0450   27.5419   43.5796 H   0  0  0  0  0  0  0  0  0  0  0  0
   58.4359   28.6786   43.5796 H   0  0  0  0  0  0  0  0  0  0  0  0
   58.0287   29.9605   46.3663 H   0  0  0  0  0  0  0  0  0  0  0  0
   59.0682   30.3250   44.9376 H   0  0  0  0  0  0  0  0  0  0  0  0
   58.7203   31.8324   47.4587 H   0  0  0  0  0  0  0  0  0  0  0  0
   60.0245   31.9277   46.2071 H   0  0  0  0  0  0  0  0  0  0  0  0
   59.6015   34.9229   45.7806 H   0  0  0  0  0  0  0  0  0  0  0  0
   58.1591   35.0138   46.9081 H   0  0  0  0  0  0  0  0  0  0  0  0
   58.1826   34.1878   49.0811 H   0  0  0  0  0  0  0  0  0  0  0  0
   59.5056   33.7151   51.1243 H   0  0  0  0  0  0  0  0  0  0  0  0
   61.9585   33.3317   50.9738 H   0  0  0  0  0  0  0  0  0  0  0  0
   63.9140   33.1400   49.6200 H   0  0  0  0  0  0  0  0  0  0  0  0
   65.1196   33.1627   47.5447 H   0  0  0  0  0  0  0  0  0  0  0  0
   63.8919   33.6117   45.4216 H   0  0  0  0  0  0  0  0  0  0  0  0
   61.4389   34.0392   45.4760 H   0  0  0  0  0  0  0  0  0  0  0  0
   58.0141   34.2375   44.0906 H   0  0  0  0  0  0  0  0  0  0  0  0
   59.4277   33.1206   44.0642 H   0  0  0  0  0  0  0  0  0  0  0  0
   56.5909   32.5916   43.4335 H   0  0  0  0  0  0  0  0  0  0  0  0
   58.0769   31.6217   43.0601 H   0  0  0  0  0  0  0  0  0  0  0  0
  1  2  1  0
  2  3  2  0
  2  4  2  0
  2  5  1  0
  5  6  1  0
  6  7  1  0
  7  8  1  0
  8  9  1  0
  9 10  1  0
 10 11  2  0
 11 12  1  0
 12 13  2  0
 13 14  1  0
 14 15  2  0
 15 16  1  0
 16 17  2  0
 17 18  1  0
 18 19  2  0
  8 20  1  0
 20 21  1  0
 21  5  1  0
 19 10  1  0
 19 14  1  0
  1 22  1  0
  1 23  1  0
  1 24  1  0
  6 25  1  0
  6 26  1  0
  7 27  1  0
  7 28  1  0
  9 29  1  0
  9 30  1  0
 11 31  1  0
 12 32  1  0
 13 33  1  0
 15 34  1  0
 16 35  1  0
 17 36  1  0
 18 37  1  0
 20 38  1  0
 20 39  1  0
 21 40  1  0
 21 41  1  0
M  CHG  1  15   1
M  END
>  <UniqueID>  (80) 
70

>  <SMILES>  (80) 
CS(=O)(=O)N1CCN(Cc2cccc3[nH+]cccc23)CC1

>  <Energy>  (80) 
53.677510222776526

>  <Genealogy>  (80) 
CS(=O)(=O)N1CCN(Cc2cccc3[nH+]cccc23)CC1 (protonated)
CS(=O)(=O)N1CCN(Cc2cccc3[nH+]cccc23)CC1 (3D coordinates assigned)
CS(=O)(=O)N1CCN(Cc2cccc3[nH+]cccc23)CC1 (nonaromatic ring conformer: 53.677510222776526 kcal/mol)

>  <smiles>  (80) 
CS(=O)(=O)N1CCN(Cc2cccc3ncccc23)CC1

>  <score_type>  (80) 
oracle

>  <origin>  (80) 
adg

>  <m_score__min__energy>  (80) 
-7.5499999999999998

>  <m_primary>  (80) 
energy

$$$$
80:0
     RDKit          3D

 49 51  0  0  0  0  0  0  0  0999 V2000
   60.9490   28.9600   44.8980 C   0  0  0  0  0  0  0  0  0  0  0  0
   60.3890   29.8030   45.9000 O   0  0  0  0  0  0  0  0  0  0  0  0
   60.4790   29.5670   47.2810 C   0  0  0  0  0  0  0  0  0  0  0  0
   61.0860   30.4920   48.1560 C   0  0  0  0  0  0  0  0  0  0  0  0
   61.1560   30.2320   49.5250 C   0  0  0  0  0  0  0  0  0  0  0  0
   60.6190   29.0530   50.0410 C   0  0  0  0  0  0  0  0  0  0  0  0
   60.0260   28.1220   49.1880 C   0  0  0  0  0  0  0  0  0  0  0  0
   59.9580   28.3630   47.8040 C   0  0  0  0  0  0  0  0  0  0  0  0
   59.3220   27.3330   46.8990 C   0  0  0  0  0  0  0  0  0  0  0  0
   57.8760   27.2280   47.1180 N   0  0  0  0  0  0  0  0  0  0  0  0
   56.9910   27.2650   45.6180 S   0  0  0  0  0  0  0  0  0  0  0  0
   57.4740   26.1790   44.6980 O   0  0  0  0  0  0  0  0  0  0  0  0
   55.5320   27.0430   45.9000 O   0  0  0  0  0  0  0  0  0  0  0  0
   57.1900   28.8480   44.8720 C   0  0  0  0  0  0  0  0  0  0  0  0
   56.8900   29.0080   43.5150 C   0  0  0  0  0  0  0  0  0  0  0  0
   56.9670   30.2680   42.9240 C   0  0  0  0  0  0  0  0  0  0  0  0
   57.3350   31.3790   43.6860 C   0  0  0  0  0  0  0  0  0  0  0  0
   57.6340   31.2410   45.0540 C   0  0  0  0  0  0  0  0  0  0  0  0
   57.9860   32.4430   45.8520 C   0  0  0  0  0  0  0  0  0  0  0  0
   57.0780   33.2670   46.1520 O   0  0  0  0  0  0  0  0  0  0  0  0
   59.3280   32.6690   46.3200 N   0  0  0  0  0  0  0  0  0  0  0  0
   59.6430   33.6780   47.3300 C   0  0  0  0  0  0  0  0  0  0  0  0
   61.1110   33.6440   47.6340 C   0  0  0  0  0  0  0  0  0  0  0  0
   61.6030   34.1550   48.8440 C   0  0  0  0  0  0  0  0  0  0  0  0
   62.9670   34.0540   49.1240 C   0  0  0  0  0  0  0  0  0  0  0  0
   63.8220   33.4420   48.2060 C   0  0  0  0  0  0  0  0  0  0  0  0
   63.2960   32.9390   47.0150 C   0  0  0  0  0  0  0  0  0  0  0  0
   61.9650   33.0440   46.7600 N   0  0  0  0  0  0  0  0  0  0  0  0
   57.5800   29.9590   45.6350 C   0  0  0  0  0  0  0  0  0  0  0  0
   61.4969   28.1352   45.3770 H   0  0  0  0  0  0  0  0  0  0  0  0
   60.1432   28.5499   44.2715 H   0  0  0  0  0  0  0  0  0  0  0  0
   61.6394   29.5438   44.2715 H   0  0  0  0  0  0  0  0  0  0  0  0
   61.5076   31.4259   47.7558 H   0  0  0  0  0  0  0  0  0  0  0  0
   61.6354   30.9580   50.1982 H   0  0  0  0  0  0  0  0  0  0  0  0
   60.6631   28.8568   51.1225 H   0  0  0  0  0  0  0  0  0  0  0  0
   59.6083   27.1920   49.6011 H   0  0  0  0  0  0  0  0  0  0  0  0
   59.5029   27.6196   45.8525 H   0  0  0  0  0  0  0  0  0  0  0  0
   59.7722   26.3557   47.1272 H   0  0  0  0  0  0  0  0  0  0  0  0
   56.5925   28.1370   42.9127 H   0  0  0  0  0  0  0  0  0  0  0  0
   56.7374   30.3876   41.8549 H   0  0  0  0  0  0  0  0  0  0  0  0
   57.3916   32.3704   43.2127 H   0  0  0  0  0  0  0  0  0  0  0  0
   60.0760   31.9730   46.1150 H   0  0  0  0  0  0  0  0  0  0  0  0
   59.3708   34.6738   46.9501 H   0  0  0  0  0  0  0  0  0  0  0  0
   59.0748   33.4661   48.2478 H   0  0  0  0  0  0  0  0  0  0  0  0
   60.9214   34.6303   49.5647 H   0  0  0  0  0  0  0  0  0  0  0  0
   63.3672   34.4560   50.0664 H   0  0  0  0  0  0  0  0  0  0  0  0
   64.8979   33.3571   48.4187 H   0  0  0  0  0  0  0  0  0  0  0  0
   63.9594   32.4570   46.2818 H   0  0  0  0  0  0  0  0  0  0  0  0
   57.8455   29.8279   46.6944 H   0  0  0  0  0  0  0  0  0  0  0  0
  1  2  1  0
  2  3  1  0
  3  4  2  0
  4  5  1  0
  5  6  2  0
  6  7  1  0
  7  8  2  0
  8  9  1  0
  9 10  1  0
 10 11  1  0
 11 12  2  0
 11 13  2  0
 11 14  1  0
 14 15  2  0
 15 16  1  0
 16 17  2  0
 17 18  1  0
 18 19  1  0
 19 20  2  0
 19 21  1  0
 21 22  1  0
 22 23  1  0
 23 24  2  0
 24 25  1  0
 25 26  2  0
 26 27  1  0
 27 28  2  0
 18 29  2  0
  8  3  1  0
 29 14  1  0
 28 23  1  0
  1 30  1  0
  1 31  1  0
  1 32  1  0
  4 33  1  0
  5 34  1  0
  6 35  1  0
  7 36  1  0
  9 37  1  0
  9 38  1  0
 15 39  1  0
 16 40  1  0
 17 41  1  0
 21 42  1  0
 22 43  1  0
 22 44  1  0
 24 45  1  0
 25 46  1  0
 26 47  1  0
 27 48  1  0
 29 49  1  0
M  CHG  1  10  -1
M  END
>  <UniqueID>  (81) 
71

>  <SMILES>  (81) 
COc1ccccc1C[N-]S(=O)(=O)c1cccc(C(=O)NCc2ccccn2)c1

>  <Energy>  (81) 
44.83017643226721

>  <Genealogy>  (81) 
COc1ccccc1C[N-]S(=O)(=O)c1cccc(C(=O)NCc2ccccn2)c1 (protonated)
COc1ccccc1C[N-]S(=O)(=O)c1cccc(C(=O)NCc2ccccn2)c1 (3D coordinates assigned)
COc1ccccc1C[N-]S(=O)(=O)c1cccc(C(=O)NCc2ccccn2)c1 (optimized conformer: 44.83017643226721 kcal/mol)

>  <smiles>  (81) 
COc1ccccc1CNS(=O)(=O)c1cccc(C(=O)NCc2ccccn2)c1

>  <score_type>  (81) 
oracle

>  <origin>  (81) 
adg

>  <m_score__min__energy>  (81) 
-10.1

>  <m_primary>  (81) 
energy

$$$$
81:0
     RDKit          3D

 36 35  0  0  0  0  0  0  0  0999 V2000
   57.1467   35.1614   45.0242 H   0  0  0  0  0  0  0  0  0  0  0  0
   57.6770   34.2260   45.2560 C   0  0  0  0  0  0  0  0  0  0  0  0
   57.0210   33.0650   45.1920 C   0  0  0  0  0  0  0  0  0  0  0  0
   55.9774   33.0127   45.5357 H   0  0  0  0  0  0  0  0  0  0  0  0
   57.6740   31.8530   44.6680 C   0  0  0  0  0  0  0  0  0  0  0  0
   58.2467   31.2079   45.3505 H   0  0  0  0  0  0  0  0  0  0  0  0
   60.8820   34.2260   47.3010 C   0  0  0  0  0  0  0  0  0  0  0  0
   61.1937   34.5199   48.3141 H   0  0  0  0  0  0  0  0  0  0  0  0
   61.7920   33.7590   46.4420 C   0  0  0  0  0  0  0  0  0  0  0  0
   61.4543   33.3062   45.4981 H   0  0  0  0  0  0  0  0  0  0  0  0
   63.2720   33.8360   46.7320 C   0  0  0  0  0  0  0  0  0  0  0  0
   63.8116   33.9011   45.7757 H   0  0  0  0  0  0  0  0  0  0  0  0
   63.4333   34.7230   47.3622 H   0  0  0  0  0  0  0  0  0  0  0  0
   63.7870   32.6670   47.4830 N   0  0  0  0  0  0  0  0  0  0  0  0
   64.6600   32.3490   46.9970 H   0  0  0  0  0  0  0  0  0  0  0  0
   64.1610   33.0150   48.8660 C   0  0  0  0  0  0  0  0  0  0  0  0
   63.5418   32.4388   49.5693 H   0  0  0  0  0  0  0  0  0  0  0  0
   65.2219   32.7754   49.0303 H   0  0  0  0  0  0  0  0  0  0  0  0
   63.9983   34.0904   49.0303 H   0  0  0  0  0  0  0  0  0  0  0  0
   62.8420   31.5360   47.4670 C   0  0  0  0  0  0  0  0  0  0  0  0
   62.5997   31.2460   48.5000 H   0  0  0  0  0  0  0  0  0  0  0  0
   61.9213   31.8348   46.9445 H   0  0  0  0  0  0  0  0  0  0  0  0
   63.2997   30.6831   46.9445 H   0  0  0  0  0  0  0  0  0  0  0  0
   59.0990   34.2730   45.6320 C   0  0  0  0  0  0  0  0  0  0  0  0
   59.8684   34.2417   44.8465 H   0  0  0  0  0  0  0  0  0  0  0  0
   59.4690   34.3530   46.9120 C   0  0  0  0  0  0  0  0  0  0  0  0
   58.7061   34.5163   47.6874 H   0  0  0  0  0  0  0  0  0  0  0  0
   57.5810   31.5260   43.3770 C   0  0  0  0  0  0  0  0  0  0  0  0
   58.1985   32.0623   42.6414 H   0  0  0  0  0  0  0  0  0  0  0  0
   56.6530   30.4430   42.9050 C   0  0  0  0  0  0  0  0  0  0  0  0
   57.2427   29.6559   42.4124 H   0  0  0  0  0  0  0  0  0  0  0  0
   55.9313   30.8867   42.2034 H   0  0  0  0  0  0  0  0  0  0  0  0
   55.8780   29.8290   44.0670 C   0  0  0  0  0  0  0  0  0  0  0  0
   56.3109   30.1719   45.0183 H   0  0  0  0  0  0  0  0  0  0  0  0
   54.8245   30.1402   44.0102 H   0  0  0  0  0  0  0  0  0  0  0  0
   55.9399   28.7322   44.0102 H   0  0  0  0  0  0  0  0  0  0  0  0
  1  2  1  0
  2  3  1  0
  3  4  1  0
  3  5  2  0
  5  6  1  0
  5  7  1  0
  7  8  1  0
  7  9  2  0
  9 10  1  0
  9 11  1  0
 11 12  1  0
 11 13  1  0
 11 14  1  0
 14 15  1  0
 14 16  1  0
 16 17  1  0
 16 18  1  0
 16 19  1  0
 14 20  1  0
 20 21  1  0
 20 22  1  0
 20 23  1  0
  2 24  2  0
 24 25  1  0
 24 26  1  0
 26 27  1  0
 26 28  2  0
 28 29  1  0
 28 30  1  0
 30 31  1  0
 30 32  1  0
 30 33  1  0
 33 34  1  0
 33 35  1  0
 33 36  1  0
M  CHG  1  14   1
M  END
>  <UniqueID>  (82) 
72

>  <SMILES>  (82) 
CC/C=C/C=CC=C/C=C/C[NH+](C)C

>  <Energy>  (82) 
19.63935611963223

>  <Genealogy>  (82) 
CCC=CC=CC=CC=CC[NH+](C)C (protonated)
CC/C=C/C=CC=C/C=C/C[NH+](C)C (cis-trans isomerization)
CC/C=C/C=CC=C/C=C/C[NH+](C)C (3D coordinates assigned)
CC/C=C/C=CC=C/C=C/C[NH+](C)C (optimized conformer: 19.63935611963223 kcal/mol)

>  <smiles>  (82) 
CCC=CC=CC=CC=CC[N+](C)C

>  <score_type>  (82) 
oracle

>  <origin>  (82) 
adg

>  <m_score__min__energy>  (82) 
-4.1500000000000004

>  <m_primary>  (82) 
energy

$$$$
82:0
     RDKit          3D

 48 49  0  0  0  0  0  0  0  0999 V2000
   56.5542   34.6393   46.0297 H   0  0  0  0  0  0  0  0  0  0  0  0
   57.0320   34.1520   45.1670 C   0  0  0  0  0  0  0  0  0  0  0  0
   57.3312   34.7500   44.2936 H   0  0  0  0  0  0  0  0  0  0  0  0
   57.2490   32.8330   45.1800 C   0  0  0  0  0  0  0  0  0  0  0  0
   56.9435   32.2503   46.0616 H   0  0  0  0  0  0  0  0  0  0  0  0
   57.8990   32.1220   44.0240 C   0  0  0  0  0  0  0  0  0  0  0  0
   58.0966   32.8512   43.2245 H   0  0  0  0  0  0  0  0  0  0  0  0
   58.8321   31.6664   44.3871 H   0  0  0  0  0  0  0  0  0  0  0  0
   57.0140   31.0050   43.4660 C   0  0  0  0  0  0  0  0  0  0  0  0
   56.3142   31.4287   42.7307 H   0  0  0  0  0  0  0  0  0  0  0  0
   57.6510   30.2483   42.9848 H   0  0  0  0  0  0  0  0  0  0  0  0
   56.2570   30.3750   44.5460 N   0  0  0  0  0  0  0  0  0  0  0  0
   56.6630   29.3330   45.2080 C   0  0  0  0  0  0  0  0  0  0  0  0
   55.8840   28.2280   45.2520 N   0  0  0  0  0  0  0  0  0  0  0  0
   56.2720   27.1260   45.9440 C   0  0  0  0  0  0  0  0  0  0  0  0
   55.4670   26.0980   45.9560 N   0  0  0  0  0  0  0  0  0  0  0  0
   55.6680   24.6600   45.6960 C   0  0  0  0  0  0  0  0  0  0  0  0
   54.2820   24.0840   45.3470 C   0  0  0  0  0  0  0  0  0  0  0  0
   53.7353   23.8568   46.2741 H   0  0  0  0  0  0  0  0  0  0  0  0
   53.7160   24.8214   44.7589 H   0  0  0  0  0  0  0  0  0  0  0  0
   54.4053   23.1626   44.7589 H   0  0  0  0  0  0  0  0  0  0  0  0
   56.5930   24.4330   44.4790 C   0  0  0  0  0  0  0  0  0  0  0  0
   57.6056   24.1845   44.8294 H   0  0  0  0  0  0  0  0  0  0  0  0
   56.2018   23.6042   43.8707 H   0  0  0  0  0  0  0  0  0  0  0  0
   56.6299   25.3487   43.8707 H   0  0  0  0  0  0  0  0  0  0  0  0
   56.1840   23.9250   46.9520 C   0  0  0  0  0  0  0  0  0  0  0  0
   55.8218   24.4409   47.8535 H   0  0  0  0  0  0  0  0  0  0  0  0
   55.8138   22.8892   46.9487 H   0  0  0  0  0  0  0  0  0  0  0  0
   57.2840   23.9213   46.9487 H   0  0  0  0  0  0  0  0  0  0  0  0
   57.4730   27.1390   46.6000 N   0  0  0  0  0  0  0  0  0  0  0  0
   57.7950   26.3130   47.1320 H   0  0  0  0  0  0  0  0  0  0  0  0
   58.2690   28.2530   46.5530 C   0  0  0  0  0  0  0  0  0  0  0  0
   59.4220   28.3020   47.1570 N   0  0  0  0  0  0  0  0  0  0  0  0
   60.4590   29.3100   46.9550 C   0  0  0  0  0  0  0  0  0  0  0  0
   61.3663   29.0193   47.5049 H   0  0  0  0  0  0  0  0  0  0  0  0
   60.6926   29.3893   45.8830 H   0  0  0  0  0  0  0  0  0  0  0  0
   59.9670   30.6360   47.4630 C   0  0  0  0  0  0  0  0  0  0  0  0
   60.2680   31.8160   46.7630 C   0  0  0  0  0  0  0  0  0  0  0  0
   60.8437   31.7646   45.8271 H   0  0  0  0  0  0  0  0  0  0  0  0
   59.8400   33.0570   47.2490 C   0  0  0  0  0  0  0  0  0  0  0  0
   60.2140   34.5230   46.3630 Cl  0  0  0  0  0  0  0  0  0  0  0  0
   59.1170   33.1260   48.4440 C   0  0  0  0  0  0  0  0  0  0  0  0
   58.7778   34.1004   48.8254 H   0  0  0  0  0  0  0  0  0  0  0  0
   58.8250   31.9590   49.1540 C   0  0  0  0  0  0  0  0  0  0  0  0
   58.2589   32.0174   50.0954 H   0  0  0  0  0  0  0  0  0  0  0  0
   59.2500   30.7160   48.6720 C   0  0  0  0  0  0  0  0  0  0  0  0
   58.9690   29.5950   49.3830 F   0  0  0  0  0  0  0  0  0  0  0  0
   57.8540   29.3400   45.8580 N   0  0  0  0  0  0  0  0  0  0  0  0
  1  2  1  0
  2  3  1  0
  2  4  2  0
  4  5  1  0
  4  6  1  0
  6  7  1  0
  6  8  1  0
  6  9  1  0
  9 10  1  0
  9 11  1  0
  9 12  1  0
 12 13  2  3
 13 14  1  0
 14 15  1  0
 15 16  2  3
 16 17  1  0
 17 18  1  0
 18 19  1  0
 18 20  1  0
 18 21  1  0
 17 22  1  0
 22 23  1  0
 22 24  1  0
 22 25  1  0
 17 26  1  0
 26 27  1  0
 26 28  1  0
 26 29  1  0
 15 30  1  0
 30 31  1  0
 30 32  1  0
 32 33  2  0
 33 34  1  0
 34 35  1  0
 34 36  1  0
 34 37  1  0
 37 38  2  0
 38 39  1  0
 38 40  1  0
 40 41  1  0
 40 42  2  0
 42 43  1  0
 42 44  1  0
 44 45  1  0
 44 46  2  0
 46 47  1  0
 32 48  1  0
 48 13  1  0
 46 37  1  0
M  CHG  2  14  -1  48  -1
M  END
>  <UniqueID>  (83) 
73

>  <SMILES>  (83) 
C=CCCN=c1[n-]c(=NC(C)(C)C)[nH]/c(=N\Cc2cc(Cl)ccc2F)[n-]1

>  <Energy>  (83) 
45.31647292821905

>  <Genealogy>  (83) 
C=CCCN=c1[n-]c(=NCc2cc(Cl)ccc2F)[nH]c(=NC(C)(C)C)[n-]1 (protonated)
C=CCCN=c1[n-]c(=NC(C)(C)C)[nH]/c(=N\Cc2cc(Cl)ccc2F)[n-]1 (cis-trans isomerization)
C=CCCN=c1[n-]c(=NC(C)(C)C)[nH]/c(=N\Cc2cc(Cl)ccc2F)[n-]1 (3D coordinates assigned)
C=CCCN=c1[n-]c(=NC(C)(C)C)[nH]/c(=N\Cc2cc(Cl)ccc2F)[n-]1 (optimized conformer: 45.31647292821905 kcal/mol)

>  <smiles>  (83) 
C=CCCN=c1[nH]c(=NCc2cc(Cl)ccc2F)[nH]c(=NC(C)(C)C)[nH]1

>  <score_type>  (83) 
oracle

>  <origin>  (83) 
adg

>  <m_score__min__energy>  (83) 
-10.98

>  <m_primary>  (83) 
energy

$$$$
83:0
     RDKit          3D

 42 44  0  0  0  0  0  0  0  0999 V2000
   60.2660   29.4860   50.0860 C   0  0  0  0  0  0  0  0  0  0  0  0
   60.1140   29.0800   48.6520 C   0  0  0  0  0  0  0  0  0  0  0  0
   60.1160   27.8030   48.2320 N   0  0  0  0  0  0  0  0  0  0  0  0
   59.9600   27.8000   46.9190 N   0  0  0  0  0  0  0  0  0  0  0  0
   59.8830   29.0920   46.5470 C   0  0  0  0  0  0  0  0  0  0  0  0
   59.6140   29.5990   44.8420 S   0  0  0  0  0  0  0  0  0  0  0  0
   57.9520   28.8560   44.6840 C   0  0  0  0  0  0  0  0  0  0  0  0
   56.9430   29.8680   44.2470 C   0  0  0  0  0  0  0  0  0  0  0  0
   56.3440   29.7200   43.1480 O   0  0  0  0  0  0  0  0  0  0  0  0
   56.6600   30.9880   45.0950 N   0  0  0  0  0  0  0  0  0  0  0  0
   57.4210   32.2010   45.1940 C   0  0  0  0  0  0  0  0  0  0  0  0
   58.1460   32.6330   44.0760 C   0  0  0  0  0  0  0  0  0  0  0  0
   58.8680   33.8290   44.1190 C   0  0  0  0  0  0  0  0  0  0  0  0
   58.8610   34.6110   45.2770 C   0  0  0  0  0  0  0  0  0  0  0  0
   59.5600   35.7710   45.3160 F   0  0  0  0  0  0  0  0  0  0  0  0
   58.1210   34.2010   46.3900 C   0  0  0  0  0  0  0  0  0  0  0  0
   57.3970   33.0040   46.3510 C   0  0  0  0  0  0  0  0  0  0  0  0
   59.9920   29.9270   47.6060 N   0  0  0  0  0  0  0  0  0  0  0  0
   59.8890   31.3900   47.6220 C   0  0  0  0  0  0  0  0  0  0  0  0
   61.2400   32.0420   47.4660 C   0  0  0  0  0  0  0  0  0  0  0  0
   62.3940   31.4390   47.9990 C   0  0  0  0  0  0  0  0  0  0  0  0
   63.6460   32.0380   47.8280 C   0  0  0  0  0  0  0  0  0  0  0  0
   63.7590   33.2370   47.1190 C   0  0  0  0  0  0  0  0  0  0  0  0
   62.6200   33.8360   46.5720 C   0  0  0  0  0  0  0  0  0  0  0  0
   61.3660   33.2390   46.7410 C   0  0  0  0  0  0  0  0  0  0  0  0
   59.9551   28.6557   50.7371 H   0  0  0  0  0  0  0  0  0  0  0  0
   61.3184   29.7353   50.2869 H   0  0  0  0  0  0  0  0  0  0  0  0
   59.6361   30.3651   50.2869 H   0  0  0  0  0  0  0  0  0  0  0  0
   60.2140   26.9460   48.8200 H   0  0  0  0  0  0  0  0  0  0  0  0
   57.9912   28.0455   43.9413 H   0  0  0  0  0  0  0  0  0  0  0  0
   57.6505   28.4684   45.6683 H   0  0  0  0  0  0  0  0  0  0  0  0
   58.1471   32.0269   43.1580 H   0  0  0  0  0  0  0  0  0  0  0  0
   59.4428   34.1552   43.2397 H   0  0  0  0  0  0  0  0  0  0  0  0
   58.1078   34.8208   47.2987 H   0  0  0  0  0  0  0  0  0  0  0  0
   56.8082   32.6897   47.2254 H   0  0  0  0  0  0  0  0  0  0  0  0
   59.2395   31.7115   46.7945 H   0  0  0  0  0  0  0  0  0  0  0  0
   59.4688   31.6954   48.5916 H   0  0  0  0  0  0  0  0  0  0  0  0
   62.3111   30.4921   48.5527 H   0  0  0  0  0  0  0  0  0  0  0  0
   64.5436   31.5645   48.2524 H   0  0  0  0  0  0  0  0  0  0  0  0
   64.7441   33.7096   46.9912 H   0  0  0  0  0  0  0  0  0  0  0  0
   62.7099   34.7766   46.0088 H   0  0  0  0  0  0  0  0  0  0  0  0
   60.4732   33.7096   46.3036 H   0  0  0  0  0  0  0  0  0  0  0  0
  1  2  1  0
  2  3  2  0
  3  4  1  0
  4  5  2  0
  5  6  1  0
  6  7  1  0
  7  8  1  0
  8  9  2  0
  8 10  1  0
 10 11  1  0
 11 12  2  0
 12 13  1  0
 13 14  2  0
 14 15  1  0
 14 16  1  0
 16 17  2  0
  5 18  1  0
 18 19  1  0
 19 20  1  0
 20 21  2  0
 21 22  1  0
 22 23  2  0
 23 24  1  0
 24 25  2  0
 18  2  1  0
 25 20  1  0
 17 11  1  0
  1 26  1  0
  1 27  1  0
  1 28  1  0
  3 29  1  0
  7 30  1  0
  7 31  1  0
 12 32  1  0
 13 33  1  0
 16 34  1  0
 17 35  1  0
 19 36  1  0
 19 37  1  0
 21 38  1  0
 22 39  1  0
 23 40  1  0
 24 41  1  0
 25 42  1  0
M  CHG  2   3   1  10  -1
M  END
>  <UniqueID>  (84) 
74

>  <SMILES>  (84) 
Cc1[nH+]nc(SCC(=O)[N-]c2ccc(F)cc2)n1Cc1ccccc1

>  <Energy>  (84) 
74.95756446769732

>  <Genealogy>  (84) 
Cc1[nH+]nc(SCC(=O)[N-]c2ccc(F)cc2)n1Cc1ccccc1 (protonated)
Cc1[nH+]nc(SCC(=O)[N-]c2ccc(F)cc2)n1Cc1ccccc1 (3D coordinates assigned)
Cc1[nH+]nc(SCC(=O)[N-]c2ccc(F)cc2)n1Cc1ccccc1 (optimized conformer: 74.95756446769732 kcal/mol)

>  <smiles>  (84) 
Cc1nnc(SCC(=O)Nc2ccc(F)cc2)n1Cc1ccccc1

>  <score_type>  (84) 
oracle

>  <origin>  (84) 
adg

>  <m_score__min__energy>  (84) 
-8.0500000000000007

>  <m_primary>  (84) 
energy

$$$$
84:0
     RDKit          3D

 62 67  0  0  1  0  0  0  0  0999 V2000
   58.8490   23.7250   45.6070 C   0  0  0  0  0  0  0  0  0  0  0  0
   59.4340   24.9750   45.9020 O   0  0  0  0  0  0  0  0  0  0  0  0
   58.7200   26.1300   45.6290 C   0  0  0  0  0  0  0  0  0  0  0  0
   59.2070   27.1610   44.8520 C   0  0  0  0  0  0  0  0  0  0  0  0
   58.4690   28.3060   44.5950 C   0  0  0  0  0  0  0  0  0  0  0  0
   57.1890   28.4630   45.1200 C   0  0  0  0  0  0  0  0  0  0  0  0
   56.4780   29.6260   44.8410 O   0  0  0  0  0  0  0  0  0  0  0  0
   57.2160   30.8140   44.8470 C   0  0  0  0  0  0  0  0  0  0  0  0
   57.8500   31.2340   45.9930 C   0  0  0  0  0  0  0  0  0  0  0  0
   58.5580   32.4130   45.9270 C   0  0  0  0  0  0  0  0  0  0  0  0
   58.6720   33.1910   44.8060 C   0  0  0  0  0  0  0  0  0  0  0  0
   59.3520   34.3590   44.6750 O   0  0  0  0  0  0  0  0  0  0  0  0
   59.6460   35.3390   45.5880 C   0  0  0  0  0  0  0  0  0  0  0  0
   59.9650   34.8350   46.9520 C   0  0  0  0  0  0  0  0  0  0  0  0
   59.2690   34.9110   48.0900 N   0  0  0  0  0  0  0  0  0  0  0  0
   59.9110   34.3500   49.0980 N   0  0  0  0  0  0  0  0  0  0  0  0
   61.0670   33.8930   48.5940 C   0  0  0  0  0  0  0  0  0  0  0  0
   61.1630   34.1650   47.2510 C   0  0  0  0  0  0  0  0  0  0  0  0
   62.2650   33.8260   46.3660 C   0  0  0  0  0  0  0  0  0  0  0  0
   63.3760   33.1590   47.0630 C   0  0  0  0  0  0  0  0  0  0  0  0
   63.4610   33.2420   48.5310 C   0  0  0  0  0  0  0  0  0  0  0  0
   62.1820   33.1710   49.2790 C   0  0  2  0  0  0  0  0  0  0  0  0
   61.7940   31.8030   49.7100 C   0  0  0  0  0  0  0  0  0  0  0  0
   61.8280   31.2550   50.9910 C   0  0  0  0  0  0  0  0  0  0  0  0
   61.3800   29.9780   50.8950 N   0  0  0  0  0  0  0  0  0  0  0  0
   61.0630   29.6840   49.6250 C   0  0  0  0  0  0  0  0  0  0  0  0
   60.5720   28.5700   48.9730 C   0  0  0  0  0  0  0  0  0  0  0  0
   60.3260   28.5390   47.6110 C   0  0  0  0  0  0  0  0  0  0  0  0
   60.5930   29.6870   46.9070 C   0  0  0  0  0  0  0  0  0  0  0  0
   61.0830   30.8320   47.4960 C   0  0  0  0  0  0  0  0  0  0  0  0
   61.3100   30.8060   48.8550 C   0  0  0  0  0  0  0  0  0  0  0  0
   58.0060   32.7160   43.6660 C   0  0  0  0  0  0  0  0  0  0  0  0
   57.2840   31.5430   43.6780 C   0  0  0  0  0  0  0  0  0  0  0  0
   56.7060   27.4430   45.8890 C   0  0  0  0  0  0  0  0  0  0  0  0
   57.4340   26.2960   46.1510 C   0  0  0  0  0  0  0  0  0  0  0  0
   58.6051   23.2039   46.5445 H   0  0  0  0  0  0  0  0  0  0  0  0
   57.9295   23.8791   45.0233 H   0  0  0  0  0  0  0  0  0  0  0  0
   59.5564   23.1177   45.0233 H   0  0  0  0  0  0  0  0  0  0  0  0
   60.2154   27.0713   44.4218 H   0  0  0  0  0  0  0  0  0  0  0  0
   58.9001   29.1006   43.9683 H   0  0  0  0  0  0  0  0  0  0  0  0
   57.7937   30.6516   46.9245 H   0  0  0  0  0  0  0  0  0  0  0  0
   59.0684   32.7542   46.8397 H   0  0  0  0  0  0  0  0  0  0  0  0
   60.5145   35.9038   45.2184 H   0  0  0  0  0  0  0  0  0  0  0  0
   58.7416   35.9574   45.6861 H   0  0  0  0  0  0  0  0  0  0  0  0
   59.5370   34.3020   50.0810 H   0  0  0  0  0  0  0  0  0  0  0  0
   61.8899   33.1539   45.5802 H   0  0  0  0  0  0  0  0  0  0  0  0
   62.6545   34.7666   45.9493 H   0  0  0  0  0  0  0  0  0  0  0  0
   63.3215   32.0911   46.8048 H   0  0  0  0  0  0  0  0  0  0  0  0
   64.2652   33.7080   46.7197 H   0  0  0  0  0  0  0  0  0  0  0  0
   64.0947   32.4114   48.8754 H   0  0  0  0  0  0  0  0  0  0  0  0
   63.8622   34.2446   48.7404 H   0  0  0  0  0  0  0  0  0  0  0  0
   62.3836   33.7132   50.2146 H   0  0  0  0  0  0  0  0  0  0  0  0
   62.1570   31.7634   51.9093 H   0  0  0  0  0  0  0  0  0  0  0  0
   61.2750   29.2740   51.6760 H   0  0  0  0  0  0  0  0  0  0  0  0
   60.3668   27.6649   49.5635 H   0  0  0  0  0  0  0  0  0  0  0  0
   59.9352   27.6375   47.1164 H   0  0  0  0  0  0  0  0  0  0  0  0
   60.4072   29.6929   45.8228 H   0  0  0  0  0  0  0  0  0  0  0  0
   61.2860   31.7355   46.9022 H   0  0  0  0  0  0  0  0  0  0  0  0
   58.0622   33.2981   42.7343 H   0  0  0  0  0  0  0  0  0  0  0  0
   56.7702   31.1934   42.7704 H   0  0  0  0  0  0  0  0  0  0  0  0
   55.6973   27.5372   46.3175 H   0  0  0  0  0  0  0  0  0  0  0  0
   56.9956   25.5053   46.7775 H   0  0  0  0  0  0  0  0  0  0  0  0
  1  2  1  0
  2  3  1  0
  3  4  2  0
  4  5  1  0
  5  6  2  0
  6  7  1  0
  7  8  1  0
  8  9  2  0
  9 10  1  0
 10 11  2  0
 11 12  1  0
 12 13  1  0
 13 14  1  0
 14 15  2  0
 15 16  1  0
 16 17  1  0
 17 18  2  0
 18 19  1  0
 19 20  1  0
 20 21  1  0
 21 22  1  0
 22 23  1  0
 23 24  2  0
 24 25  1  0
 25 26  1  0
 26 27  2  0
 27 28  1  0
 28 29  2  0
 29 30  1  0
 30 31  2  0
 11 32  1  0
 32 33  2  0
  6 34  1  0
 34 35  2  0
 35  3  1  0
 33  8  1  0
 18 14  1  0
 31 23  1  0
 22 17  1  0
 31 26  1  0
  1 36  1  0
  1 37  1  0
  1 38  1  0
  4 39  1  0
  5 40  1  0
  9 41  1  0
 10 42  1  0
 13 43  1  0
 13 44  1  0
 16 45  1  0
 19 46  1  0
 19 47  1  0
 20 48  1  0
 20 49  1  0
 21 50  1  0
 21 51  1  0
 22 52  1  1
 24 53  1  0
 25 54  1  0
 27 55  1  0
 28 56  1  0
 29 57  1  0
 30 58  1  0
 32 59  1  0
 33 60  1  0
 34 61  1  0
 35 62  1  0
M  END
>  <smiles>  (85) 
COc1ccc(Oc2ccc(OCc3n[nH]c4c3CCCC4c3c[nH]c4ccccc34)cc2)cc1

>  <score_type>  (85) 
oracle

>  <origin>  (85) 
adg

>  <m_score__min__energy>  (85) 
-11.1

>  <m_primary>  (85) 
energy

$$$$
85:0
     RDKit          3D

 25 26  0  0  0  0  0  0  0  0999 V2000
   55.0210   24.4740   45.5530 C   0  0  0  0  0  0  0  0  0  0  0  0
   55.2260   25.7060   46.2380 O   0  0  0  0  0  0  0  0  0  0  0  0
   56.2520   26.6350   45.9910 C   0  0  0  0  0  0  0  0  0  0  0  0
   55.8800   27.8380   45.5670 O   0  0  0  0  0  0  0  0  0  0  0  0
   56.7310   28.8100   45.2620 C   0  0  0  0  0  0  0  0  0  0  0  0
   56.2770   29.9190   44.8750 O   0  0  0  0  0  0  0  0  0  0  0  0
   58.1150   28.5940   45.3560 C   0  0  0  0  0  0  0  0  0  0  0  0
   59.0460   29.5910   45.0080 C   0  0  0  0  0  0  0  0  0  0  0  0
   60.4160   29.3330   45.0910 C   0  0  0  0  0  0  0  0  0  0  0  0
   60.8680   28.0820   45.5120 C   0  0  0  0  0  0  0  0  0  0  0  0
   59.9560   27.0850   45.8650 C   0  0  0  0  0  0  0  0  0  0  0  0
   58.5700   27.3340   45.8080 C   0  0  0  0  0  0  0  0  0  0  0  0
   57.6280   26.3520   46.1710 C   0  0  0  0  0  0  0  0  0  0  0  0
   58.0480   25.1330   46.7100 O   0  0  0  0  0  0  0  0  0  0  0  0
   58.4350   24.0440   45.8770 C   0  0  0  0  0  0  0  0  0  0  0  0
   54.8864   23.6649   46.2860 H   0  0  0  0  0  0  0  0  0  0  0  0
   54.1232   24.5503   44.9220 H   0  0  0  0  0  0  0  0  0  0  0  0
   55.8951   24.2554   44.9220 H   0  0  0  0  0  0  0  0  0  0  0  0
   58.6932   30.5764   44.6696 H   0  0  0  0  0  0  0  0  0  0  0  0
   61.1397   30.1172   44.8241 H   0  0  0  0  0  0  0  0  0  0  0  0
   61.9479   27.8800   45.5661 H   0  0  0  0  0  0  0  0  0  0  0  0
   60.3216   26.0996   46.1894 H   0  0  0  0  0  0  0  0  0  0  0  0
   58.7377   23.1923   46.5039 H   0  0  0  0  0  0  0  0  0  0  0  0
   57.5868   23.7487   45.2419 H   0  0  0  0  0  0  0  0  0  0  0  0
   59.2794   24.3502   45.2419 H   0  0  0  0  0  0  0  0  0  0  0  0
  1  2  1  0
  2  3  1  0
  3  4  1  0
  4  5  1  0
  5  6  2  0
  5  7  1  0
  7  8  2  0
  8  9  1  0
  9 10  2  0
 10 11  1  0
 11 12  2  0
 12 13  1  0
 13 14  1  0
 14 15  1  0
 13  3  2  0
 12  7  1  0
  1 16  1  0
  1 17  1  0
  1 18  1  0
  8 19  1  0
  9 20  1  0
 10 21  1  0
 11 22  1  0
 15 23  1  0
 15 24  1  0
 15 25  1  0
M  END
>  <UniqueID>  (86) 
75

>  <SMILES>  (86) 
COc1oc(=O)c2ccccc2c1OC

>  <Energy>  (86) 
40.94759654108827

>  <Genealogy>  (86) 
COc1oc(=O)c2ccccc2c1OC (3D coordinates assigned)
COc1oc(=O)c2ccccc2c1OC (optimized conformer: 40.94759654108827 kcal/mol)

>  <smiles>  (86) 
COc1oc(=O)c2ccccc2c1OC

>  <score_type>  (86) 
oracle

>  <origin>  (86) 
adg

>  <m_score__min__energy>  (86) 
-5.4199999999999999

>  <m_primary>  (86) 
energy

$$$$
86:0
     RDKit          3D

 57 59  0  0  0  0  0  0  0  0999 V2000
   63.3670   33.8330   46.5520 C   0  0  0  0  0  0  0  0  0  0  0  0
   63.3460   33.1540   47.9180 C   0  0  0  0  0  0  0  0  0  0  0  0
   62.1450   32.2550   48.0480 C   0  0  0  0  0  0  0  0  0  0  0  0
   61.2580   32.4100   49.1250 C   0  0  0  0  0  0  0  0  0  0  0  0
   60.1610   31.5540   49.2640 C   0  0  0  0  0  0  0  0  0  0  0  0
   59.9420   30.5250   48.3360 C   0  0  0  0  0  0  0  0  0  0  0  0
   58.7860   29.5800   48.5180 C   0  0  0  0  0  0  0  0  0  0  0  0
   59.2670   28.2540   48.8890 N   0  0  0  0  0  0  0  0  0  0  0  0
   59.9080   27.3540   47.9780 C   0  0  0  0  0  0  0  0  0  0  0  0
   61.1390   27.4670   47.7250 O   0  0  0  0  0  0  0  0  0  0  0  0
   59.1080   26.2860   47.3100 C   0  0  0  0  0  0  0  0  0  0  0  0
   57.7250   26.5730   47.4740 O   0  0  0  0  0  0  0  0  0  0  0  0
   56.8130   26.5970   46.4150 C   0  0  0  0  0  0  0  0  0  0  0  0
   55.5760   26.6830   46.6530 O   0  0  0  0  0  0  0  0  0  0  0  0
   57.2970   26.5240   45.0120 C   0  0  0  0  0  0  0  0  0  0  0  0
   57.2720   25.2900   44.3320 C   0  0  0  0  0  0  0  0  0  0  0  0
   57.6950   25.1990   43.0040 C   0  0  0  0  0  0  0  0  0  0  0  0
   58.1440   26.3360   42.3320 C   0  0  0  0  0  0  0  0  0  0  0  0
   58.1670   27.5700   42.9860 C   0  0  0  0  0  0  0  0  0  0  0  0
   57.7430   27.6780   44.3200 C   0  0  0  0  0  0  0  0  0  0  0  0
   57.7740   28.9520   44.9710 N   0  0  0  0  0  0  0  0  0  0  0  0
   56.9290   30.3430   44.3760 S   0  0  0  0  0  0  0  0  0  0  0  0
   56.9460   30.3080   42.8730 O   0  0  0  0  0  0  0  0  0  0  0  0
   55.5020   30.3420   44.8470 O   0  0  0  0  0  0  0  0  0  0  0  0
   57.7380   31.7880   44.9720 C   0  0  0  0  0  0  0  0  0  0  0  0
   58.2420   32.7290   44.0610 C   0  0  0  0  0  0  0  0  0  0  0  0
   58.8620   33.8960   44.5200 C   0  0  0  0  0  0  0  0  0  0  0  0
   58.9850   34.1340   45.8960 C   0  0  0  0  0  0  0  0  0  0  0  0
   59.6800   35.3700   46.3870 C   0  0  0  0  0  0  0  0  0  0  0  0
   58.5150   33.1730   46.8070 C   0  0  0  0  0  0  0  0  0  0  0  0
   57.8860   32.0110   46.3480 C   0  0  0  0  0  0  0  0  0  0  0  0
   60.8360   30.3620   47.2650 C   0  0  0  0  0  0  0  0  0  0  0  0
   61.9320   31.2190   47.1250 C   0  0  0  0  0  0  0  0  0  0  0  0
   63.4008   34.9243   46.6855 H   0  0  0  0  0  0  0  0  0  0  0  0
   64.2554   33.5044   45.9928 H   0  0  0  0  0  0  0  0  0  0  0  0
   62.4600   33.5599   45.9928 H   0  0  0  0  0  0  0  0  0  0  0  0
   64.2604   32.5542   48.0370 H   0  0  0  0  0  0  0  0  0  0  0  0
   63.2933   33.9289   48.6969 H   0  0  0  0  0  0  0  0  0  0  0  0
   61.4266   33.2083   49.8628 H   0  0  0  0  0  0  0  0  0  0  0  0
   59.4658   31.6883   50.1058 H   0  0  0  0  0  0  0  0  0  0  0  0
   58.1272   29.9618   49.3119 H   0  0  0  0  0  0  0  0  0  0  0  0
   58.2324   29.5066   47.5703 H   0  0  0  0  0  0  0  0  0  0  0  0
   59.3541   26.2566   46.2383 H   0  0  0  0  0  0  0  0  0  0  0  0
   59.3412   25.3100   47.7606 H   0  0  0  0  0  0  0  0  0  0  0  0
   56.9156   24.3889   44.8526 H   0  0  0  0  0  0  0  0  0  0  0  0
   57.6740   24.2284   42.4868 H   0  0  0  0  0  0  0  0  0  0  0  0
   58.4799   26.2608   41.2872 H   0  0  0  0  0  0  0  0  0  0  0  0
   58.5201   28.4643   42.4516 H   0  0  0  0  0  0  0  0  0  0  0  0
   58.1490   32.5479   42.9800 H   0  0  0  0  0  0  0  0  0  0  0  0
   59.2540   34.6288   43.7993 H   0  0  0  0  0  0  0  0  0  0  0  0
   59.6835   35.3762   47.4870 H   0  0  0  0  0  0  0  0  0  0  0  0
   60.7159   35.3797   46.0170 H   0  0  0  0  0  0  0  0  0  0  0  0
   59.1501   36.2601   46.0170 H   0  0  0  0  0  0  0  0  0  0  0  0
   58.6424   33.3354   47.8875 H   0  0  0  0  0  0  0  0  0  0  0  0
   57.5068   31.2709   47.0681 H   0  0  0  0  0  0  0  0  0  0  0  0
   60.6733   29.5569   46.5334 H   0  0  0  0  0  0  0  0  0  0  0  0
   62.6311   31.0806   46.2871 H   0  0  0  0  0  0  0  0  0  0  0  0
  1  2  1  0
  2  3  1  0
  3  4  2  0
  4  5  1  0
  5  6  2  0
  6  7  1  0
  7  8  1  0
  8  9  1  0
  9 10  2  0
  9 11  1  0
 11 12  1  0
 12 13  1  0
 13 14  2  0
 13 15  1  0
 15 16  2  0
 16 17  1  0
 17 18  2  0
 18 19  1  0
 19 20  2  0
 20 21  1  0
 21 22  1  0
 22 23  2  0
 22 24  2  0
 22 25  1  0
 25 26  2  0
 26 27  1  0
 27 28  2  0
 28 29  1  0
 28 30  1  0
 30 31  2  0
  6 32  1  0
 32 33  2  0
 33  3  1  0
 20 15  1  0
 31 25  1  0
  1 34  1  0
  1 35  1  0
  1 36  1  0
  2 37  1  0
  2 38  1  0
  4 39  1  0
  5 40  1  0
  7 41  1  0
  7 42  1  0
 11 43  1  0
 11 44  1  0
 16 45  1  0
 17 46  1  0
 18 47  1  0
 19 48  1  0
 26 49  1  0
 27 50  1  0
 29 51  1  0
 29 52  1  0
 29 53  1  0
 30 54  1  0
 31 55  1  0
 32 56  1  0
 33 57  1  0
M  CHG  2   8  -1  21  -1
M  END
>  <UniqueID>  (87) 
76

>  <SMILES>  (87) 
CCc1ccc(C[N-]C(=O)COC(=O)c2ccccc2[N-]S(=O)(=O)c2ccc(C)cc2)cc1

>  <Energy>  (87) 
55.5113941974252

>  <Genealogy>  (87) 
CCc1ccc(C[N-]C(=O)COC(=O)c2ccccc2[N-]S(=O)(=O)c2ccc(C)cc2)cc1 (protonated)
CCc1ccc(C[N-]C(=O)COC(=O)c2ccccc2[N-]S(=O)(=O)c2ccc(C)cc2)cc1 (3D coordinates assigned)
CCc1ccc(C[N-]C(=O)COC(=O)c2ccccc2[N-]S(=O)(=O)c2ccc(C)cc2)cc1 (optimized conformer: 55.5113941974252 kcal/mol)

>  <smiles>  (87) 
CCc1ccc(CNC(=O)COC(=O)c2ccccc2NS(=O)(=O)c2ccc(C)cc2)cc1

>  <score_type>  (87) 
oracle

>  <origin>  (87) 
adg

>  <m_score__min__energy>  (87) 
-12.130000000000001

>  <m_primary>  (87) 
energy

$$$$
87:0
     RDKit          3D

 32 33  0  0  0  0  0  0  0  0999 V2000
   54.4390   26.0070   46.3750 H   0  0  0  0  0  0  0  0  0  0  0  0
   55.1270   26.6440   45.9950 O   0  0  0  0  0  0  0  0  0  0  0  0
   56.4120   26.6470   46.4880 N   0  0  0  0  0  0  0  0  0  0  0  0
   57.4230   27.1100   45.8160 C   0  0  0  0  0  0  0  0  0  0  0  0
   58.2692   26.4366   45.6149 H   0  0  0  0  0  0  0  0  0  0  0  0
   57.4930   28.4970   45.3080 C   0  0  0  0  0  0  0  0  0  0  0  0
   58.5140   29.3390   45.7700 C   0  0  0  0  0  0  0  0  0  0  0  0
   59.2436   28.9625   46.5021 H   0  0  0  0  0  0  0  0  0  0  0  0
   58.6110   30.6550   45.3060 C   0  0  0  0  0  0  0  0  0  0  0  0
   59.4195   31.3052   45.6714 H   0  0  0  0  0  0  0  0  0  0  0  0
   57.6830   31.1510   44.3770 C   0  0  0  0  0  0  0  0  0  0  0  0
   57.8300   32.5280   43.8430 C   0  0  0  0  0  0  0  0  0  0  0  0
   58.0060   32.6890   42.6070 O   0  0  0  0  0  0  0  0  0  0  0  0
   57.8220   33.7290   44.7090 C   0  0  0  0  0  0  0  0  0  0  0  0
   56.8465   34.0770   45.0794 H   0  0  0  0  0  0  0  0  0  0  0  0
   58.9070   34.4290   45.0800 C   0  0  0  0  0  0  0  0  0  0  0  0
   59.2642   35.2119   44.3948 H   0  0  0  0  0  0  0  0  0  0  0  0
   59.6580   34.2290   46.3370 C   0  0  0  0  0  0  0  0  0  0  0  0
   61.0160   33.8570   46.3300 C   0  0  0  0  0  0  0  0  0  0  0  0
   61.5344   33.6925   45.3739 H   0  0  0  0  0  0  0  0  0  0  0  0
   61.7080   33.6960   47.5350 C   0  0  0  0  0  0  0  0  0  0  0  0
   62.7733   33.4220   47.5246 H   0  0  0  0  0  0  0  0  0  0  0  0
   61.0470   33.8830   48.7520 C   0  0  0  0  0  0  0  0  0  0  0  0
   61.5947   33.7656   49.6987 H   0  0  0  0  0  0  0  0  0  0  0  0
   59.6910   34.2190   48.7670 C   0  0  0  0  0  0  0  0  0  0  0  0
   59.1699   34.3572   49.7258 H   0  0  0  0  0  0  0  0  0  0  0  0
   58.9950   34.3800   47.5640 C   0  0  0  0  0  0  0  0  0  0  0  0
   57.9230   34.6261   47.5804 H   0  0  0  0  0  0  0  0  0  0  0  0
   56.6230   30.3260   43.9650 C   0  0  0  0  0  0  0  0  0  0  0  0
   55.8615   30.7190   43.2753 H   0  0  0  0  0  0  0  0  0  0  0  0
   56.5290   29.0100   44.4250 C   0  0  0  0  0  0  0  0  0  0  0  0
   55.6958   28.3727   44.0939 H   0  0  0  0  0  0  0  0  0  0  0  0
  1  2  1  0
  2  3  1  0
  3  4  2  0
  4  5  1  0
  4  6  1  0
  6  7  2  0
  7  8  1  0
  7  9  1  0
  9 10  1  0
  9 11  2  0
 11 12  1  0
 12 13  2  0
 12 14  1  0
 14 15  1  0
 14 16  2  3
 16 17  1  0
 16 18  1  0
 18 19  2  0
 19 20  1  0
 19 21  1  0
 21 22  1  0
 21 23  2  0
 23 24  1  0
 23 25  1  0
 25 26  1  0
 25 27  2  0
 27 28  1  0
 11 29  1  0
 29 30  1  0
 29 31  2  0
 31 32  1  0
 31  6  1  0
 27 18  1  0
M  END
>  <UniqueID>  (88) 
77

>  <SMILES>  (88) 
O=C(C=Cc1ccccc1)c1ccc(/C=N\O)cc1

>  <Energy>  (88) 
46.27291865901301

>  <Genealogy>  (88) 
O=C(C=Cc1ccccc1)c1ccc(/C=N\O)cc1 (cis-trans isomerization)
O=C(C=Cc1ccccc1)c1ccc(/C=N\O)cc1 (3D coordinates assigned)
O=C(C=Cc1ccccc1)c1ccc(/C=N\O)cc1 (optimized conformer: 46.27291865901301 kcal/mol)

>  <smiles>  (88) 
O=C(C=Cc1ccccc1)c1ccc(C=NO)cc1

>  <score_type>  (88) 
oracle

>  <origin>  (88) 
adg

>  <m_score__min__energy>  (88) 
-8.7100000000000009

>  <m_primary>  (88) 
energy

$$$$
88:0
     RDKit          3D

 53 55  0  0  0  0  0  0  0  0999 V2000
   60.8360   26.2030   46.3800 C   0  0  0  0  0  0  0  0  0  0  0  0
   59.4640   26.3590   45.8890 N   0  0  0  0  0  0  0  0  0  0  0  0
   59.0230   27.6700   45.5050 C   0  0  0  0  0  0  0  0  0  0  0  0
   59.9650   28.6090   44.5470 S   0  0  0  0  0  0  0  0  0  0  0  0
   57.3990   28.2550   46.0040 S   0  0  0  0  0  0  0  0  0  0  0  0
   57.9810   29.9470   46.2780 C   0  0  0  0  0  0  0  0  0  0  0  0
   57.6780   31.0030   45.3680 C   0  0  0  0  0  0  0  0  0  0  0  0
   56.7370   30.8670   44.2720 N   0  0  0  0  0  0  0  0  0  0  0  0
   57.0240   31.2130   43.1080 O   0  0  0  0  0  0  0  0  0  0  0  0
   55.4850   30.3290   44.4980 O   0  0  0  0  0  0  0  0  0  0  0  0
   58.2960   32.2540   45.5600 C   0  0  0  0  0  0  0  0  0  0  0  0
   59.1790   32.4740   46.6180 C   0  0  0  0  0  0  0  0  0  0  0  0
   59.9000   34.0610   46.8470 S   0  0  0  0  0  0  0  0  0  0  0  0
   59.0590   34.8780   47.7880 O   0  0  0  0  0  0  0  0  0  0  0  0
   59.9740   34.7910   45.5340 O   0  0  0  0  0  0  0  0  0  0  0  0
   61.5180   33.8520   47.5090 C   0  0  0  0  0  0  0  0  0  0  0  0
   61.7520   34.0580   48.8770 C   0  0  0  0  0  0  0  0  0  0  0  0
   63.0310   33.8630   49.4070 C   0  0  0  0  0  0  0  0  0  0  0  0
   64.0790   33.4580   48.5740 C   0  0  0  0  0  0  0  0  0  0  0  0
   63.8470   33.2460   47.2120 C   0  0  0  0  0  0  0  0  0  0  0  0
   62.5690   33.4370   46.6790 C   0  0  0  0  0  0  0  0  0  0  0  0
   59.4170   31.4580   47.5420 C   0  0  0  0  0  0  0  0  0  0  0  0
   58.8100   30.2060   47.3970 C   0  0  0  0  0  0  0  0  0  0  0  0
   59.0220   29.2150   48.4160 N   0  0  0  0  0  0  0  0  0  0  0  0
   58.4930   29.3550   49.5380 O   0  0  0  0  0  0  0  0  0  0  0  0
   60.0020   28.2630   48.2550 O   0  0  0  0  0  0  0  0  0  0  0  0
   58.5950   25.1990   45.6070 C   0  0  0  0  0  0  0  0  0  0  0  0
   57.7440   25.4300   44.3370 C   0  0  0  0  0  0  0  0  0  0  0  0
   56.5680   24.4510   44.2820 C   0  0  0  0  0  0  0  0  0  0  0  0
   55.6090   24.6250   45.4760 C   0  0  0  0  0  0  0  0  0  0  0  0
   56.2800   25.2040   46.7360 C   0  0  0  0  0  0  0  0  0  0  0  0
   57.7560   24.7980   46.8520 C   0  0  0  0  0  0  0  0  0  0  0  0
   60.8340   26.2032   47.4800 H   0  0  0  0  0  0  0  0  0  0  0  0
   61.2504   25.2519   46.0143 H   0  0  0  0  0  0  0  0  0  0  0  0
   61.4533   27.0367   46.0143 H   0  0  0  0  0  0  0  0  0  0  0  0
   58.0780   33.0750   44.8612 H   0  0  0  0  0  0  0  0  0  0  0  0
   60.9278   34.3735   49.5336 H   0  0  0  0  0  0  0  0  0  0  0  0
   63.2131   34.0281   50.4792 H   0  0  0  0  0  0  0  0  0  0  0  0
   65.0857   33.3063   48.9907 H   0  0  0  0  0  0  0  0  0  0  0  0
   64.6723   32.9280   46.5579 H   0  0  0  0  0  0  0  0  0  0  0  0
   62.3878   33.2617   45.6083 H   0  0  0  0  0  0  0  0  0  0  0  0
   60.0886   31.6424   48.3934 H   0  0  0  0  0  0  0  0  0  0  0  0
   59.2370   24.3329   45.3885 H   0  0  0  0  0  0  0  0  0  0  0  0
   57.3558   26.4592   44.3459 H   0  0  0  0  0  0  0  0  0  0  0  0
   58.3790   25.2666   43.4538 H   0  0  0  0  0  0  0  0  0  0  0  0
   56.0084   24.6215   43.3505 H   0  0  0  0  0  0  0  0  0  0  0  0
   56.9762   23.4304   44.3228 H   0  0  0  0  0  0  0  0  0  0  0  0
   54.7978   25.3033   45.1728 H   0  0  0  0  0  0  0  0  0  0  0  0
   55.2436   23.6219   45.7410 H   0  0  0  0  0  0  0  0  0  0  0  0
   56.2175   26.3015   46.6968 H   0  0  0  0  0  0  0  0  0  0  0  0
   55.7515   24.8013   47.6126 H   0  0  0  0  0  0  0  0  0  0  0  0
   58.1861   25.2887   47.7376 H   0  0  0  0  0  0  0  0  0  0  0  0
   57.7905   23.7015   46.9332 H   0  0  0  0  0  0  0  0  0  0  0  0
  1  2  1  0
  2  3  1  0
  3  4  2  0
  3  5  1  0
  5  6  1  0
  6  7  2  0
  7  8  1  0
  8  9  2  0
  8 10  1  0
  7 11  1  0
 11 12  2  0
 12 13  1  0
 13 14  2  0
 13 15  2  0
 13 16  1  0
 16 17  2  0
 17 18  1  0
 18 19  2  0
 19 20  1  0
 20 21  2  0
 12 22  1  0
 22 23  2  0
 23 24  1  0
 24 25  2  0
 24 26  1  0
  2 27  1  0
 27 28  1  0
 28 29  1  0
 29 30  1  0
 30 31  1  0
 31 32  1  0
 23  6  1  0
 32 27  1  0
 21 16  1  0
  1 33  1  0
  1 34  1  0
  1 35  1  0
 11 36  1  0
 17 37  1  0
 18 38  1  0
 19 39  1  0
 20 40  1  0
 21 41  1  0
 22 42  1  0
 27 43  1  0
 28 44  1  0
 28 45  1  0
 29 46  1  0
 29 47  1  0
 30 48  1  0
 30 49  1  0
 31 50  1  0
 31 51  1  0
 32 52  1  0
 32 53  1  0
M  CHG  4   8   1  10  -1  24   1  26  -1
M  END
>  <UniqueID>  (89) 
78

>  <SMILES>  (89) 
CN(C(=S)Sc1c([N+](=O)[O-])cc(S(=O)(=O)c2ccccc2)cc1[N+](=O)[O-])C1CCCCC1

>  <Energy>  (89) 
69.29839087549269

>  <Genealogy>  (89) 
CN(C(=S)Sc1c([N+](=O)[O-])cc(S(=O)(=O)c2ccccc2)cc1[N+](=O)[O-])C1CCCCC1 (3D coordinates assigned)
CN(C(=S)Sc1c([N+](=O)[O-])cc(S(=O)(=O)c2ccccc2)cc1[N+](=O)[O-])C1CCCCC1 (nonaromatic ring conformer: 69.29839087549269 kcal/mol)

>  <smiles>  (89) 
CN(C(=S)Sc1c([N+](=O)[O-])cc(S(=O)(=O)c2ccccc2)cc1[N+](=O)[O-])C1CCCCC1

>  <score_type>  (89) 
oracle

>  <origin>  (89) 
adg

>  <m_score__min__energy>  (89) 
-10.52

>  <m_primary>  (89) 
energy

$$$$
89:0
     RDKit          3D

 40 43  0  0  0  0  0  0  0  0999 V2000
   59.6370   35.3280   46.5940 C   0  0  0  0  0  0  0  0  0  0  0  0
   58.7880   34.2020   46.1020 C   0  0  0  0  0  0  0  0  0  0  0  0
   57.5930   34.3650   45.5660 O   0  0  0  0  0  0  0  0  0  0  0  0
   57.0440   33.2220   45.2460 N   0  0  0  0  0  0  0  0  0  0  0  0
   57.9390   32.2790   45.5880 C   0  0  0  0  0  0  0  0  0  0  0  0
   57.8030   30.9000   45.5040 C   0  0  0  0  0  0  0  0  0  0  0  0
   56.7410   30.3910   45.0530 O   0  0  0  0  0  0  0  0  0  0  0  0
   58.8410   30.1200   45.9610 N   0  0  0  0  0  0  0  0  0  0  0  0
   58.7830   28.6820   45.9150 C   0  0  0  0  0  0  0  0  0  0  0  0
   58.4240   28.0330   44.7230 C   0  0  0  0  0  0  0  0  0  0  0  0
   58.3410   26.6380   44.6720 C   0  0  0  0  0  0  0  0  0  0  0  0
   58.6020   25.8740   45.8160 C   0  0  0  0  0  0  0  0  0  0  0  0
   58.5060   24.1180   45.7450 S   0  0  0  0  0  0  0  0  0  0  0  0
   57.7670   23.5110   47.1860 N   0  0  0  0  0  0  0  0  0  0  0  0
   57.6870   23.7100   44.5540 O   0  0  0  0  0  0  0  0  0  0  0  0
   59.8840   23.5320   45.6270 O   0  0  0  0  0  0  0  0  0  0  0  0
   58.9500   26.5170   47.0120 C   0  0  0  0  0  0  0  0  0  0  0  0
   59.0330   27.9110   47.0640 C   0  0  0  0  0  0  0  0  0  0  0  0
   59.9410   30.6890   46.4860 N   0  0  0  0  0  0  0  0  0  0  0  0
   60.1050   32.0430   46.5770 C   0  0  0  0  0  0  0  0  0  0  0  0
   61.3540   32.5830   47.1360 C   0  0  0  0  0  0  0  0  0  0  0  0
   61.7980   32.1570   48.3970 C   0  0  0  0  0  0  0  0  0  0  0  0
   62.9980   32.6460   48.9210 C   0  0  0  0  0  0  0  0  0  0  0  0
   63.7700   33.5480   48.1820 C   0  0  0  0  0  0  0  0  0  0  0  0
   63.3450   33.9560   46.9130 C   0  0  0  0  0  0  0  0  0  0  0  0
   62.1450   33.4690   46.3870 C   0  0  0  0  0  0  0  0  0  0  0  0
   59.0580   32.8440   46.1170 C   0  0  0  0  0  0  0  0  0  0  0  0
   59.6398   35.3316   47.6940 H   0  0  0  0  0  0  0  0  0  0  0  0
   60.6654   35.2001   46.2252 H   0  0  0  0  0  0  0  0  0  0  0  0
   59.2311   36.2815   46.2252 H   0  0  0  0  0  0  0  0  0  0  0  0
   58.2064   28.6262   43.8226 H   0  0  0  0  0  0  0  0  0  0  0  0
   58.0697   26.1391   43.7299 H   0  0  0  0  0  0  0  0  0  0  0  0
   57.7730   22.4690   47.1160 H   0  0  0  0  0  0  0  0  0  0  0  0
   59.1586   25.9219   47.9133 H   0  0  0  0  0  0  0  0  0  0  0  0
   59.2955   28.4081   48.0095 H   0  0  0  0  0  0  0  0  0  0  0  0
   61.2003   31.4365   48.9746 H   0  0  0  0  0  0  0  0  0  0  0  0
   63.3356   32.3209   49.9161 H   0  0  0  0  0  0  0  0  0  0  0  0
   64.7111   33.9366   48.5983 H   0  0  0  0  0  0  0  0  0  0  0  0
   63.9555   34.6604   46.3289 H   0  0  0  0  0  0  0  0  0  0  0  0
   61.8194   33.7807   45.3836 H   0  0  0  0  0  0  0  0  0  0  0  0
  1  2  1  0
  2  3  1  0
  3  4  1  0
  4  5  2  0
  5  6  1  0
  6  7  2  0
  6  8  1  0
  8  9  1  0
  9 10  2  0
 10 11  1  0
 11 12  2  0
 12 13  1  0
 13 14  1  0
 13 15  2  0
 13 16  2  0
 12 17  1  0
 17 18  2  0
  8 19  1  0
 19 20  2  0
 20 21  1  0
 21 22  2  0
 22 23  1  0
 23 24  2  0
 24 25  1  0
 25 26  2  0
 20 27  1  0
 27  2  2  0
 27  5  1  0
 18  9  1  0
 26 21  1  0
  1 28  1  0
  1 29  1  0
  1 30  1  0
 10 31  1  0
 11 32  1  0
 14 33  1  0
 17 34  1  0
 18 35  1  0
 22 36  1  0
 23 37  1  0
 24 38  1  0
 25 39  1  0
 26 40  1  0
M  CHG  1  14  -1
M  END
>  <UniqueID>  (90) 
79

>  <SMILES>  (90) 
Cc1onc2c(=O)n(-c3ccc(S([NH-])(=O)=O)cc3)nc(-c3ccccc3)c12

>  <Energy>  (90) 
98.62186391418372

>  <Genealogy>  (90) 
Cc1onc2c(=O)n(-c3ccc(S([NH-])(=O)=O)cc3)nc(-c3ccccc3)c12 (protonated)
Cc1onc2c(=O)n(-c3ccc(S([NH-])(=O)=O)cc3)nc(-c3ccccc3)c12 (3D coordinates assigned)
Cc1onc2c(=O)n(-c3ccc(S([NH-])(=O)=O)cc3)nc(-c3ccccc3)c12 (optimized conformer: 98.62186391418372 kcal/mol)

>  <smiles>  (90) 
Cc1onc2c(=O)n(-c3ccc(S(N)(=O)=O)cc3)nc(-c3ccccc3)c12

>  <score_type>  (90) 
oracle

>  <origin>  (90) 
adg

>  <m_score__min__energy>  (90) 
-10.710000000000001

>  <m_primary>  (90) 
energy

$$$$
90:0
     RDKit          3D

 43 45  0  0  0  0  0  0  0  0999 V2000
   56.9600   25.0930   45.4080 C   0  0  0  0  0  0  0  0  0  0  0  0
   56.2810   26.3610   45.8310 C   0  0  0  0  0  0  0  0  0  0  0  0
   55.0360   26.3420   46.0270 O   0  0  0  0  0  0  0  0  0  0  0  0
   56.9910   27.5930   46.0410 N   0  0  0  0  0  0  0  0  0  0  0  0
   56.8880   28.6960   45.3580 C   0  0  0  0  0  0  0  0  0  0  0  0
   55.7380   29.3830   45.1720 N   0  0  0  0  0  0  0  0  0  0  0  0
   55.9100   30.5060   44.4770 N   0  0  0  0  0  0  0  0  0  0  0  0
   57.1950   30.7140   44.1170 C   0  0  0  0  0  0  0  0  0  0  0  0
   57.7420   32.1400   43.1800 S   0  0  0  0  0  0  0  0  0  0  0  0
   57.3930   33.3430   44.5110 C   0  0  0  0  0  0  0  0  0  0  0  0
   58.6740   33.8100   45.1450 C   0  0  0  0  0  0  0  0  0  0  0  0
   59.5620   34.3190   44.4090 O   0  0  0  0  0  0  0  0  0  0  0  0
   58.9480   33.6220   46.5890 C   0  0  0  0  0  0  0  0  0  0  0  0
   59.3390   34.7240   47.3710 C   0  0  0  0  0  0  0  0  0  0  0  0
   59.6580   34.5550   48.7210 C   0  0  0  0  0  0  0  0  0  0  0  0
   59.5740   33.2910   49.3090 C   0  0  0  0  0  0  0  0  0  0  0  0
   60.0340   33.0690   51.0310 S   0  0  0  0  0  0  0  0  0  0  0  0
   61.7110   33.7710   50.8370 C   0  0  0  0  0  0  0  0  0  0  0  0
   62.3340   33.3070   49.5490 C   0  0  0  0  0  0  0  0  0  0  0  0
   62.3710   31.9380   49.2360 C   0  0  0  0  0  0  0  0  0  0  0  0
   62.9310   31.5070   48.0300 C   0  0  0  0  0  0  0  0  0  0  0  0
   63.4470   32.4380   47.1240 C   0  0  0  0  0  0  0  0  0  0  0  0
   63.4000   33.8030   47.4220 C   0  0  0  0  0  0  0  0  0  0  0  0
   62.8480   34.2360   48.6310 C   0  0  0  0  0  0  0  0  0  0  0  0
   59.1330   32.1990   48.5530 C   0  0  0  0  0  0  0  0  0  0  0  0
   58.8290   32.3600   47.1990 C   0  0  0  0  0  0  0  0  0  0  0  0
   58.2020   29.4730   44.6510 S   0  0  0  0  0  0  0  0  0  0  0  0
   57.2642   24.5249   46.2995 H   0  0  0  0  0  0  0  0  0  0  0  0
   56.2652   24.4879   44.8071 H   0  0  0  0  0  0  0  0  0  0  0  0
   57.8488   25.3359   44.8071 H   0  0  0  0  0  0  0  0  0  0  0  0
   56.8619   34.2081   44.0874 H   0  0  0  0  0  0  0  0  0  0  0  0
   56.7722   32.8565   45.2778 H   0  0  0  0  0  0  0  0  0  0  0  0
   59.3940   35.7245   46.9172 H   0  0  0  0  0  0  0  0  0  0  0  0
   59.9760   35.4197   49.3220 H   0  0  0  0  0  0  0  0  0  0  0  0
   61.6448   34.8690   50.8315 H   0  0  0  0  0  0  0  0  0  0  0  0
   62.3365   33.4315   51.6757 H   0  0  0  0  0  0  0  0  0  0  0  0
   61.9579   31.2028   49.9423 H   0  0  0  0  0  0  0  0  0  0  0  0
   62.9657   30.4333   47.7935 H   0  0  0  0  0  0  0  0  0  0  0  0
   63.8899   32.0966   46.1768 H   0  0  0  0  0  0  0  0  0  0  0  0
   63.7975   34.5364   46.7050 H   0  0  0  0  0  0  0  0  0  0  0  0
   62.8163   35.3105   48.8642 H   0  0  0  0  0  0  0  0  0  0  0  0
   59.0255   31.2117   49.0260 H   0  0  0  0  0  0  0  0  0  0  0  0
   58.4948   31.4954   46.6067 H   0  0  0  0  0  0  0  0  0  0  0  0
  1  2  1  0
  2  3  2  0
  2  4  1  0
  4  5  2  3
  5  6  1  0
  6  7  1  0
  7  8  2  0
  8  9  1  0
  9 10  1  0
 10 11  1  0
 11 12  2  0
 11 13  1  0
 13 14  2  0
 14 15  1  0
 15 16  2  0
 16 17  1  0
 17 18  1  0
 18 19  1  0
 19 20  2  0
 20 21  1  0
 21 22  2  0
 22 23  1  0
 23 24  2  0
 16 25  1  0
 25 26  2  0
  8 27  1  0
 27  5  1  0
 26 13  1  0
 24 19  1  0
  1 28  1  0
  1 29  1  0
  1 30  1  0
 10 31  1  0
 10 32  1  0
 14 33  1  0
 15 34  1  0
 18 35  1  0
 18 36  1  0
 20 37  1  0
 21 38  1  0
 22 39  1  0
 23 40  1  0
 24 41  1  0
 25 42  1  0
 26 43  1  0
M  CHG  1   6  -1
M  END
>  <UniqueID>  (91) 
80

>  <SMILES>  (91) 
CC(=O)N=c1[n-]nc(SCC(=O)c2ccc(SCc3ccccc3)cc2)s1

>  <Energy>  (91) 
71.20677717593321

>  <Genealogy>  (91) 
CC(=O)N=c1[n-]nc(SCC(=O)c2ccc(SCc3ccccc3)cc2)s1 (protonated)
CC(=O)N=c1[n-]nc(SCC(=O)c2ccc(SCc3ccccc3)cc2)s1 (3D coordinates assigned)
CC(=O)N=c1[n-]nc(SCC(=O)c2ccc(SCc3ccccc3)cc2)s1 (optimized conformer: 71.20677717593321 kcal/mol)

>  <smiles>  (91) 
CC(=O)N=c1[nH]nc(SCC(=O)c2ccc(SCc3ccccc3)cc2)s1

>  <score_type>  (91) 
oracle

>  <origin>  (91) 
adg

>  <m_score__min__energy>  (91) 
-12.18

>  <m_primary>  (91) 
energy

$$$$
91:0
     RDKit          3D

 41 43  0  0  0  0  0  0  0  0999 V2000
   56.8163   29.7062   44.9293 H   0  0  0  0  0  0  0  0  0  0  0  0
   56.9400   28.7300   45.4210 C   0  0  0  0  0  0  0  0  0  0  0  0
   55.9130   27.8410   45.4250 N   0  0  0  0  0  0  0  0  0  0  0  0
   56.0100   26.6100   46.0000 C   0  0  0  0  0  0  0  0  0  0  0  0
   54.9650   25.8310   45.9620 N   0  0  0  0  0  0  0  0  0  0  0  0
   54.9000   24.3940   45.9830 C   0  0  0  0  0  0  0  0  0  0  0  0
   54.0590   23.8040   46.7130 O   0  0  0  0  0  0  0  0  0  0  0  0
   55.8880   23.6010   45.2150 C   0  0  0  0  0  0  0  0  0  0  0  0
   55.7060   23.3710   43.8370 C   0  0  0  0  0  0  0  0  0  0  0  0
   54.8224   23.7822   43.3269 H   0  0  0  0  0  0  0  0  0  0  0  0
   56.6400   22.6240   43.1130 C   0  0  0  0  0  0  0  0  0  0  0  0
   56.4879   22.4482   42.0378 H   0  0  0  0  0  0  0  0  0  0  0  0
   57.7650   22.1010   43.7520 C   0  0  0  0  0  0  0  0  0  0  0  0
   58.4991   21.5143   43.1802 H   0  0  0  0  0  0  0  0  0  0  0  0
   57.9590   22.3220   45.1160 C   0  0  0  0  0  0  0  0  0  0  0  0
   58.8461   21.9086   45.6182 H   0  0  0  0  0  0  0  0  0  0  0  0
   57.0280   23.0680   45.8460 C   0  0  0  0  0  0  0  0  0  0  0  0
   57.1877   23.2395   46.9208 H   0  0  0  0  0  0  0  0  0  0  0  0
   57.2190   26.2510   46.6320 C   0  0  0  0  0  0  0  0  0  0  0  0
   57.3189   25.2693   47.1180 H   0  0  0  0  0  0  0  0  0  0  0  0
   58.2880   27.1490   46.6370 C   0  0  0  0  0  0  0  0  0  0  0  0
   59.2388   26.8657   47.1120 H   0  0  0  0  0  0  0  0  0  0  0  0
   58.1550   28.4110   46.0390 C   0  0  0  0  0  0  0  0  0  0  0  0
   59.2400   29.3530   46.0050 N   0  0  0  0  0  0  0  0  0  0  0  0
   60.1520   29.0330   45.6060 H   0  0  0  0  0  0  0  0  0  0  0  0
   59.1040   30.7430   46.3460 C   0  0  0  0  0  0  0  0  0  0  0  0
   57.9700   31.2930   46.2820 O   0  0  0  0  0  0  0  0  0  0  0  0
   60.2870   31.5540   46.7210 C   0  0  0  0  0  0  0  0  0  0  0  0
   60.2570   32.9590   46.6400 C   0  0  0  0  0  0  0  0  0  0  0  0
   59.3424   33.4663   46.2993 H   0  0  0  0  0  0  0  0  0  0  0  0
   61.3800   33.7150   46.9890 C   0  0  0  0  0  0  0  0  0  0  0  0
   61.3452   34.8120   46.9155 H   0  0  0  0  0  0  0  0  0  0  0  0
   62.5500   33.0830   47.4320 C   0  0  0  0  0  0  0  0  0  0  0  0
   63.7660   33.8930   47.7690 C   0  0  0  0  0  0  0  0  0  0  0  0
   63.8694   33.9619   48.8620 H   0  0  0  0  0  0  0  0  0  0  0  0
   64.6583   33.4082   47.3461 H   0  0  0  0  0  0  0  0  0  0  0  0
   63.6624   34.9032   47.3461 H   0  0  0  0  0  0  0  0  0  0  0  0
   62.5950   31.6820   47.4880 C   0  0  0  0  0  0  0  0  0  0  0  0
   63.5182   31.1770   47.8085 H   0  0  0  0  0  0  0  0  0  0  0  0
   61.4740   30.9240   47.1390 C   0  0  0  0  0  0  0  0  0  0  0  0
   61.5198   29.8262   47.1914 H   0  0  0  0  0  0  0  0  0  0  0  0
  1  2  1  0
  2  3  1  0
  3  4  1  0
  4  5  2  0
  5  6  1  0
  6  7  2  0
  6  8  1  0
  8  9  2  0
  9 10  1  0
  9 11  1  0
 11 12  1  0
 11 13  2  0
 13 14  1  0
 13 15  1  0
 15 16  1  0
 15 17  2  0
 17 18  1  0
  4 19  1  0
 19 20  1  0
 19 21  2  0
 21 22  1  0
 21 23  1  0
 23 24  1  0
 24 25  1  0
 24 26  1  0
 26 27  2  0
 26 28  1  0
 28 29  2  0
 29 30  1  0
 29 31  1  0
 31 32  1  0
 31 33  2  0
 33 34  1  0
 34 35  1  0
 34 36  1  0
 34 37  1  0
 33 38  1  0
 38 39  1  0
 38 40  2  0
 40 41  1  0
 23  2  2  0
 40 28  1  0
 17  8  1  0
M  CHG  1   3  -1
M  END
>  <UniqueID>  (92) 
81

>  <SMILES>  (92) 
Cc1ccc(C(=O)Nc2cc/c(=N\C(=O)c3ccccc3)[n-]c2)cc1

>  <Energy>  (92) 
57.84924369359571

>  <Genealogy>  (92) 
Cc1ccc(C(=O)Nc2ccc(=NC(=O)c3ccccc3)[n-]c2)cc1 (protonated)
Cc1ccc(C(=O)Nc2cc/c(=N\C(=O)c3ccccc3)[n-]c2)cc1 (cis-trans isomerization)
Cc1ccc(C(=O)Nc2cc/c(=N\C(=O)c3ccccc3)[n-]c2)cc1 (3D coordinates assigned)
Cc1ccc(C(=O)Nc2cc/c(=N\C(=O)c3ccccc3)[n-]c2)cc1 (optimized conformer: 57.84924369359571 kcal/mol)

>  <smiles>  (92) 
Cc1ccc(C(=O)Nc2ccc(=NC(=O)c3ccccc3)[nH]c2)cc1

>  <score_type>  (92) 
oracle

>  <origin>  (92) 
adg

>  <m_score__min__energy>  (92) 
-10.119999999999999

>  <m_primary>  (92) 
energy

$$$$
92:0
     RDKit          3D

 29 30  0  0  0  0  0  0  0  0999 V2000
   60.1420   25.9140   46.1750 C   0  0  0  0  0  0  0  0  0  0  0  0
   58.8300   26.5860   45.9440 C   0  0  0  0  0  0  0  0  0  0  0  0
   58.6470   27.7760   45.2700 C   0  0  0  0  0  0  0  0  0  0  0  0
   57.2830   28.0100   45.2770 C   0  0  0  0  0  0  0  0  0  0  0  0
   56.5930   29.1740   44.6710 C   0  0  0  0  0  0  0  0  0  0  0  0
   55.3910   29.4170   44.9560 O   0  0  0  0  0  0  0  0  0  0  0  0
   57.3130   30.1050   43.7380 C   0  0  0  0  0  0  0  0  0  0  0  0
   57.8870   31.2230   44.4840 N   0  0  0  0  0  0  0  0  0  0  0  0
   58.3760   31.1890   45.7390 C   0  0  0  0  0  0  0  0  0  0  0  0
   58.8110   32.4580   46.0680 C   0  0  0  0  0  0  0  0  0  0  0  0
   58.6010   33.2620   45.0080 N   0  0  0  0  0  0  0  0  0  0  0  0
   58.8290   34.7000   44.9450 C   0  0  0  0  0  0  0  0  0  0  0  0
   58.0240   32.4950   44.0630 C   0  0  0  0  0  0  0  0  0  0  0  0
   56.7320   26.9310   45.9620 C   0  0  0  0  0  0  0  0  0  0  0  0
   55.3850   26.7070   46.2430 O   0  0  0  0  0  0  0  0  0  0  0  0
   57.6760   26.1030   46.3410 O   0  0  0  0  0  0  0  0  0  0  0  0
   60.3215   25.8221   47.2564 H   0  0  0  0  0  0  0  0  0  0  0  0
   60.1264   24.9129   45.7195 H   0  0  0  0  0  0  0  0  0  0  0  0
   60.9453   26.5116   45.7195 H   0  0  0  0  0  0  0  0  0  0  0  0
   59.4257   28.4090   44.8194 H   0  0  0  0  0  0  0  0  0  0  0  0
   58.1187   29.5568   43.2278 H   0  0  0  0  0  0  0  0  0  0  0  0
   56.5983   30.4960   42.9989 H   0  0  0  0  0  0  0  0  0  0  0  0
   58.4210   30.3032   46.3896 H   0  0  0  0  0  0  0  0  0  0  0  0
   59.2525   32.7597   47.0293 H   0  0  0  0  0  0  0  0  0  0  0  0
   58.8934   35.1061   45.9653 H   0  0  0  0  0  0  0  0  0  0  0  0
   59.7699   34.8990   44.4111 H   0  0  0  0  0  0  0  0  0  0  0  0
   57.9958   35.1803   44.4111 H   0  0  0  0  0  0  0  0  0  0  0  0
   57.7059   32.8602   43.0754 H   0  0  0  0  0  0  0  0  0  0  0  0
   54.7210   27.4560   46.3760 H   0  0  0  0  0  0  0  0  0  0  0  0
  1  2  1  0
  2  3  2  0
  3  4  1  0
  4  5  1  0
  5  6  2  0
  5  7  1  0
  7  8  1  0
  8  9  1  0
  9 10  2  0
 10 11  1  0
 11 12  1  0
 11 13  1  0
  4 14  2  0
 14 15  1  0
 14 16  1  0
 16  2  1  0
 13  8  2  0
  1 17  1  0
  1 18  1  0
  1 19  1  0
  3 20  1  0
  7 21  1  0
  7 22  1  0
  9 23  1  0
 10 24  1  0
 12 25  1  0
 12 26  1  0
 12 27  1  0
 13 28  1  0
 15 29  1  0
M  CHG  1   8   1
M  END
>  <UniqueID>  (93) 
82

>  <SMILES>  (93) 
Cc1cc(C(=O)C[n+]2ccn(C)c2)c(O)o1

>  <Energy>  (93) 
83.39805448292991

>  <Genealogy>  (93) 
Cc1cc(C(=O)C[n+]2ccn(C)c2)c(O)o1 (3D coordinates assigned)
Cc1cc(C(=O)C[n+]2ccn(C)c2)c(O)o1 (optimized conformer: 83.39805448292991 kcal/mol)

>  <smiles>  (93) 
Cc1cc(C(=O)C[n+]2ccn(C)c2)c(O)o1

>  <score_type>  (93) 
oracle

>  <origin>  (93) 
adg

>  <m_score__min__energy>  (93) 
-5.4900000000000002

>  <m_primary>  (93) 
energy

$$$$
93:0
     RDKit          3D

 48 50  0  0  0  0  0  0  0  0999 V2000
   58.1340   33.7210   52.4030 C   0  0  0  0  0  0  0  0  0  0  0  0
   57.7420   32.7120   51.4750 O   0  0  0  0  0  0  0  0  0  0  0  0
   58.6020   31.7280   50.9600 C   0  0  0  0  0  0  0  0  0  0  0  0
   59.8650   32.0440   50.4270 C   0  0  0  0  0  0  0  0  0  0  0  0
   60.6910   31.0430   49.9130 C   0  0  0  0  0  0  0  0  0  0  0  0
   60.2580   29.7060   49.9080 C   0  0  0  0  0  0  0  0  0  0  0  0
   61.0730   28.6480   49.3820 N   0  0  0  0  0  0  0  0  0  0  0  0
   60.6220   27.5600   48.5590 C   0  0  0  0  0  0  0  0  0  0  0  0
   60.9960   26.3840   48.8100 O   0  0  0  0  0  0  0  0  0  0  0  0
   59.7630   27.8260   47.3820 C   0  0  0  0  0  0  0  0  0  0  0  0
   58.3830   27.5610   47.4300 C   0  0  0  0  0  0  0  0  0  0  0  0
   57.5730   27.8050   46.3170 C   0  0  0  0  0  0  0  0  0  0  0  0
   58.1260   28.3180   45.1330 C   0  0  0  0  0  0  0  0  0  0  0  0
   57.3150   28.5820   43.9770 N   0  0  0  0  0  0  0  0  0  0  0  0
   56.5050   30.0940   43.7140 S   0  0  0  0  0  0  0  0  0  0  0  0
   56.2680   30.2910   42.2410 O   0  0  0  0  0  0  0  0  0  0  0  0
   55.1730   30.0640   44.4100 O   0  0  0  0  0  0  0  0  0  0  0  0
   57.4590   31.4060   44.4050 C   0  0  0  0  0  0  0  0  0  0  0  0
   57.7680   31.3670   45.7750 C   0  0  0  0  0  0  0  0  0  0  0  0
   58.5310   32.3810   46.3570 C   0  0  0  0  0  0  0  0  0  0  0  0
   58.8140   32.3420   47.6840 F   0  0  0  0  0  0  0  0  0  0  0  0
   59.0030   33.4390   45.5700 C   0  0  0  0  0  0  0  0  0  0  0  0
   58.7050   33.4830   44.2020 C   0  0  0  0  0  0  0  0  0  0  0  0
   57.9290   32.4750   43.6160 C   0  0  0  0  0  0  0  0  0  0  0  0
   57.6470   32.5520   42.2900 F   0  0  0  0  0  0  0  0  0  0  0  0
   59.4990   28.6020   45.0890 C   0  0  0  0  0  0  0  0  0  0  0  0
   60.3120   28.3510   46.1990 C   0  0  0  0  0  0  0  0  0  0  0  0
   59.0150   29.3840   50.4660 C   0  0  0  0  0  0  0  0  0  0  0  0
   58.1780   30.3900   50.9870 C   0  0  0  0  0  0  0  0  0  0  0  0
   56.9190   30.1020   51.5370 O   0  0  0  0  0  0  0  0  0  0  0  0
   56.6000   30.2000   52.9240 C   0  0  0  0  0  0  0  0  0  0  0  0
   57.9904   33.3513   53.4290 H   0  0  0  0  0  0  0  0  0  0  0  0
   59.1942   33.9698   52.2480 H   0  0  0  0  0  0  0  0  0  0  0  0
   57.5198   34.6203   52.2480 H   0  0  0  0  0  0  0  0  0  0  0  0
   60.2049   33.0901   50.4152 H   0  0  0  0  0  0  0  0  0  0  0  0
   61.6820   31.3010   49.5114 H   0  0  0  0  0  0  0  0  0  0  0  0
   57.9369   27.1582   48.3513 H   0  0  0  0  0  0  0  0  0  0  0  0
   56.4948   27.5935   46.3693 H   0  0  0  0  0  0  0  0  0  0  0  0
   57.0430   27.7860   43.3560 H   0  0  0  0  0  0  0  0  0  0  0  0
   57.4064   30.5320   46.3931 H   0  0  0  0  0  0  0  0  0  0  0  0
   59.6082   34.2361   46.0265 H   0  0  0  0  0  0  0  0  0  0  0  0
   59.0819   34.3124   43.5856 H   0  0  0  0  0  0  0  0  0  0  0  0
   59.9397   29.0254   44.1744 H   0  0  0  0  0  0  0  0  0  0  0  0
   61.3895   28.5661   46.1460 H   0  0  0  0  0  0  0  0  0  0  0  0
   58.6885   28.3341   50.4979 H   0  0  0  0  0  0  0  0  0  0  0  0
   57.4819   29.9291   53.5231 H   0  0  0  0  0  0  0  0  0  0  0  0
   56.2998   31.2318   53.1592 H   0  0  0  0  0  0  0  0  0  0  0  0
   55.7723   29.5147   53.1592 H   0  0  0  0  0  0  0  0  0  0  0  0
  1  2  1  0
  2  3  1  0
  3  4  2  0
  4  5  1  0
  5  6  2  0
  6  7  1  0
  7  8  1  0
  8  9  2  0
  8 10  1  0
 10 11  2  0
 11 12  1  0
 12 13  2  0
 13 14  1  0
 14 15  1  0
 15 16  2  0
 15 17  2  0
 15 18  1  0
 18 19  2  0
 19 20  1  0
 20 21  1  0
 20 22  2  0
 22 23  1  0
 23 24  2  0
 24 25  1  0
 13 26  1  0
 26 27  2  0
  6 28  1  0
 28 29  2  0
 29 30  1  0
 30 31  1  0
 29  3  1  0
 27 10  1  0
 24 18  1  0
  1 32  1  0
  1 33  1  0
  1 34  1  0
  4 35  1  0
  5 36  1  0
 11 37  1  0
 12 38  1  0
 14 39  1  0
 19 40  1  0
 22 41  1  0
 23 42  1  0
 26 43  1  0
 27 44  1  0
 28 45  1  0
 31 46  1  0
 31 47  1  0
 31 48  1  0
M  CHG  1   7  -1
M  END
>  <UniqueID>  (94) 
83

>  <SMILES>  (94) 
COc1ccc([N-]C(=O)c2ccc(NS(=O)(=O)c3cc(F)ccc3F)cc2)cc1OC

>  <Energy>  (94) 
58.6343647899525

>  <Genealogy>  (94) 
COc1ccc([N-]C(=O)c2ccc(NS(=O)(=O)c3cc(F)ccc3F)cc2)cc1OC (protonated)
COc1ccc([N-]C(=O)c2ccc(NS(=O)(=O)c3cc(F)ccc3F)cc2)cc1OC (3D coordinates assigned)
COc1ccc([N-]C(=O)c2ccc(NS(=O)(=O)c3cc(F)ccc3F)cc2)cc1OC (optimized conformer: 58.6343647899525 kcal/mol)

>  <smiles>  (94) 
COc1ccc(NC(=O)c2ccc(NS(=O)(=O)c3cc(F)ccc3F)cc2)cc1OC

>  <score_type>  (94) 
oracle

>  <origin>  (94) 
adg

>  <m_score__min__energy>  (94) 
-10.18

>  <m_primary>  (94) 
energy

$$$$
94:0
     RDKit          3D

 34 36  0  0  0  0  0  0  0  0999 V2000
   58.2121   26.4744   47.2453 H   0  0  0  0  0  0  0  0  0  0  0  0
   58.4550   27.2150   46.4690 C   0  0  0  0  0  0  0  0  0  0  0  0
   57.4420   28.0090   45.9200 C   0  0  0  0  0  0  0  0  0  0  0  0
   56.4044   27.8931   46.2664 H   0  0  0  0  0  0  0  0  0  0  0  0
   57.7480   28.9520   44.9290 C   0  0  0  0  0  0  0  0  0  0  0  0
   56.4780   29.9500   44.2270 S   0  0  0  0  0  0  0  0  0  0  0  0
   55.1450   29.3460   44.5690 O   0  0  0  0  0  0  0  0  0  0  0  0
   56.6150   30.0130   42.7310 O   0  0  0  0  0  0  0  0  0  0  0  0
   56.5500   31.5610   44.8750 N   0  0  0  0  0  0  0  0  0  0  0  0
   57.6220   32.2060   45.2430 C   0  0  0  0  0  0  0  0  0  0  0  0
   57.9450   33.4800   44.7400 C   0  0  0  0  0  0  0  0  0  0  0  0
   57.2813   33.9712   44.0132 H   0  0  0  0  0  0  0  0  0  0  0  0
   59.0780   34.1000   45.1550 N   0  0  0  0  0  0  0  0  0  0  0  0
   59.9160   33.5200   46.0500 C   0  0  0  0  0  0  0  0  0  0  0  0
   61.0750   34.1880   46.4530 C   0  0  0  0  0  0  0  0  0  0  0  0
   61.3063   35.1828   46.0446 H   0  0  0  0  0  0  0  0  0  0  0  0
   61.9390   33.5940   47.3730 C   0  0  0  0  0  0  0  0  0  0  0  0
   62.8510   34.1220   47.6885 H   0  0  0  0  0  0  0  0  0  0  0  0
   61.6500   32.3310   47.8950 C   0  0  0  0  0  0  0  0  0  0  0  0
   62.3377   31.8718   48.6204 H   0  0  0  0  0  0  0  0  0  0  0  0
   60.4890   31.6400   47.5030 C   0  0  0  0  0  0  0  0  0  0  0  0
   60.2150   30.2800   48.0880 C   0  0  0  0  0  0  0  0  0  0  0  0
   60.2279   30.3438   49.1861 H   0  0  0  0  0  0  0  0  0  0  0  0
   59.2280   29.9287   47.7527 H   0  0  0  0  0  0  0  0  0  0  0  0
   60.9889   29.5739   47.7527 H   0  0  0  0  0  0  0  0  0  0  0  0
   59.6090   32.2420   46.5670 C   0  0  0  0  0  0  0  0  0  0  0  0
   58.4640   31.6220   46.1440 N   0  0  0  0  0  0  0  0  0  0  0  0
   58.2080   30.6760   46.5070 H   0  0  0  0  0  0  0  0  0  0  0  0
   59.0740   29.1000   44.4980 C   0  0  0  0  0  0  0  0  0  0  0  0
   59.3204   29.8436   43.7258 H   0  0  0  0  0  0  0  0  0  0  0  0
   60.0840   28.3040   45.0480 C   0  0  0  0  0  0  0  0  0  0  0  0
   61.1228   28.4200   44.7052 H   0  0  0  0  0  0  0  0  0  0  0  0
   59.7750   27.3610   46.0330 C   0  0  0  0  0  0  0  0  0  0  0  0
   60.7550   26.5910   46.5650 F   0  0  0  0  0  0  0  0  0  0  0  0
  1  2  1  0
  2  3  2  0
  3  4  1  0
  3  5  1  0
  5  6  1  0
  6  7  2  0
  6  8  2  0
  6  9  1  0
  9 10  2  0
 10 11  1  0
 11 12  1  0
 11 13  2  0
 13 14  1  0
 14 15  2  0
 15 16  1  0
 15 17  1  0
 17 18  1  0
 17 19  2  0
 19 20  1  0
 19 21  1  0
 21 22  1  0
 22 23  1  0
 22 24  1  0
 22 25  1  0
 21 26  2  0
 26 27  1  0
 27 28  1  0
  5 29  2  0
 29 30  1  0
 29 31  1  0
 31 32  1  0
 31 33  2  0
 33 34  1  0
 33  2  1  0
 27 10  1  0
 26 14  1  0
M  END
>  <UniqueID>  (95) 
84

>  <SMILES>  (95) 
Cc1cccc2nc/c(=N\S(=O)(=O)c3ccc(F)cc3)[nH]c12

>  <Energy>  (95) 
47.4595149971141

>  <Genealogy>  (95) 
Cc1cccc2nc/c(=N\S(=O)(=O)c3ccc(F)cc3)[nH]c12 (cis-trans isomerization)
Cc1cccc2nc/c(=N\S(=O)(=O)c3ccc(F)cc3)[nH]c12 (3D coordinates assigned)
Cc1cccc2nc/c(=N\S(=O)(=O)c3ccc(F)cc3)[nH]c12 (optimized conformer: 47.4595149971141 kcal/mol)

>  <smiles>  (95) 
Cc1cccc2ncc(=NS(=O)(=O)c3ccc(F)cc3)[nH]c12

>  <score_type>  (95) 
oracle

>  <origin>  (95) 
adg

>  <m_score__min__energy>  (95) 
-7.8200000000000003

>  <m_primary>  (95) 
energy

$$$$
95:0
     RDKit          3D

 62 65  0  0  0  0  0  0  0  0999 V2000
   62.1710   34.1800   47.3750 H   0  0  0  0  0  0  0  0  0  0  0  0
   62.6280   33.2860   47.3610 O   0  0  0  0  0  0  0  0  0  0  0  0
   62.0210   32.0820   47.7140 C   0  0  0  0  0  0  0  0  0  0  0  0
   61.2460   31.4310   46.7380 C   0  0  0  0  0  0  0  0  0  0  0  0
   61.1337   31.8891   45.7443 H   0  0  0  0  0  0  0  0  0  0  0  0
   60.6120   30.2060   47.0080 C   0  0  0  0  0  0  0  0  0  0  0  0
   60.0046   29.7218   46.2292 H   0  0  0  0  0  0  0  0  0  0  0  0
   60.7490   29.5960   48.2660 C   0  0  0  0  0  0  0  0  0  0  0  0
   60.1160   28.2930   48.5300 C   0  0  0  0  0  0  0  0  0  0  0  0
   60.2890   27.7380   49.6460 O   0  0  0  0  0  0  0  0  0  0  0  0
   59.2780   27.6570   47.5570 N   0  0  0  0  0  0  0  0  0  0  0  0
   59.6980   27.3640   46.1910 C   0  0  0  0  0  0  0  0  0  0  0  0
   60.5792   27.9742   45.9439 H   0  0  0  0  0  0  0  0  0  0  0  0
   59.9456   26.2949   46.1150 H   0  0  0  0  0  0  0  0  0  0  0  0
   58.5710   27.6840   45.2070 C   0  0  0  0  0  0  0  0  0  0  0  0
   58.9620   27.6122   44.1814 H   0  0  0  0  0  0  0  0  0  0  0  0
   57.7577   26.9615   45.3700 H   0  0  0  0  0  0  0  0  0  0  0  0
   58.0080   29.0980   45.4280 C   0  0  0  0  0  0  0  0  0  0  0  0
   57.8198   29.2383   46.5027 H   0  0  0  0  0  0  0  0  0  0  0  0
   58.7509   29.8153   45.0492 H   0  0  0  0  0  0  0  0  0  0  0  0
   56.6930   29.3390   44.6610 C   0  0  0  0  0  0  0  0  0  0  0  0
   56.6787   28.6752   43.7839 H   0  0  0  0  0  0  0  0  0  0  0  0
   55.8739   29.1324   45.3656 H   0  0  0  0  0  0  0  0  0  0  0  0
   56.5020   30.7890   44.1730 C   0  0  0  0  0  0  0  0  0  0  0  0
   56.3173   30.7705   43.0888 H   0  0  0  0  0  0  0  0  0  0  0  0
   55.6538   31.2108   44.7321 H   0  0  0  0  0  0  0  0  0  0  0  0
   57.7180   31.6900   44.4450 C   0  0  0  0  0  0  0  0  0  0  0  0
   58.6372   31.1279   44.2232 H   0  0  0  0  0  0  0  0  0  0  0  0
   57.6413   32.5798   43.8028 H   0  0  0  0  0  0  0  0  0  0  0  0
   57.7530   32.1300   45.8430 N   0  0  0  0  0  0  0  0  0  0  0  0
   58.5290   33.0370   46.3780 C   0  0  0  0  0  0  0  0  0  0  0  0
   59.1700   34.0220   45.5990 C   0  0  0  0  0  0  0  0  0  0  0  0
   59.0243   34.0416   44.5089 H   0  0  0  0  0  0  0  0  0  0  0  0
   59.9900   34.9730   46.2110 C   0  0  0  0  0  0  0  0  0  0  0  0
   60.4822   35.7444   45.6005 H   0  0  0  0  0  0  0  0  0  0  0  0
   60.1830   34.9510   47.5530 N   0  0  0  0  0  0  0  0  0  0  0  0
   59.5940   34.0180   48.3450 C   0  0  0  0  0  0  0  0  0  0  0  0
   59.8340   34.0320   49.7240 C   0  0  0  0  0  0  0  0  0  0  0  0
   60.4890   34.8013   50.1589 H   0  0  0  0  0  0  0  0  0  0  0  0
   59.2430   33.0700   50.5510 C   0  0  0  0  0  0  0  0  0  0  0  0
   59.5580   33.0800   52.2780 Cl  0  0  0  0  0  0  0  0  0  0  0  0
   58.4010   32.0970   50.0030 C   0  0  0  0  0  0  0  0  0  0  0  0
   57.9334   31.3460   50.6567 H   0  0  0  0  0  0  0  0  0  0  0  0
   58.1510   32.0750   48.6260 C   0  0  0  0  0  0  0  0  0  0  0  0
   57.4862   31.3074   48.2031 H   0  0  0  0  0  0  0  0  0  0  0  0
   58.7470   33.0320   47.7770 C   0  0  0  0  0  0  0  0  0  0  0  0
   61.5000   30.2660   49.2400 C   0  0  0  0  0  0  0  0  0  0  0  0
   62.1300   31.4730   48.9890 C   0  0  0  0  0  0  0  0  0  0  0  0
   62.7580   31.8240   50.1910 C   0  0  0  0  0  0  0  0  0  0  0  0
   63.6400   32.9910   50.5480 C   0  0  0  0  0  0  0  0  0  0  0  0
   64.4150   33.1027   49.7754 H   0  0  0  0  0  0  0  0  0  0  0  0
   64.0924   32.7935   51.5310 H   0  0  0  0  0  0  0  0  0  0  0  0
   62.8380   34.2940   50.6410 C   0  0  0  0  0  0  0  0  0  0  0  0
   63.3518   34.9835   51.3270 H   0  0  0  0  0  0  0  0  0  0  0  0
   61.8301   34.0570   51.0124 H   0  0  0  0  0  0  0  0  0  0  0  0
   62.7110   34.9310   49.3310 N   0  0  0  0  0  0  0  0  0  0  0  0
   61.8250   34.5840   48.8960 H   0  0  0  0  0  0  0  0  0  0  0  0
   63.4880   34.5840   48.7230 H   0  0  0  0  0  0  0  0  0  0  0  0
   62.4690   30.8010   51.0850 C   0  0  0  0  0  0  0  0  0  0  0  0
   62.8231   30.7632   52.1257 H   0  0  0  0  0  0  0  0  0  0  0  0
   61.6980   29.8630   50.5070 N   0  0  0  0  0  0  0  0  0  0  0  0
   61.3290   29.0000   50.9660 H   0  0  0  0  0  0  0  0  0  0  0  0
  1  2  1  0
  2  3  1  0
  3  4  2  0
  4  5  1  0
  4  6  1  0
  6  7  1  0
  6  8  2  0
  8  9  1  0
  9 10  2  0
  9 11  1  0
 11 12  1  0
 12 13  1  0
 12 14  1  0
 12 15  1  0
 15 16  1  0
 15 17  1  0
 15 18  1  0
 18 19  1  0
 18 20  1  0
 18 21  1  0
 21 22  1  0
 21 23  1  0
 21 24  1  0
 24 25  1  0
 24 26  1  0
 24 27  1  0
 27 28  1  0
 27 29  1  0
 27 30  1  0
 30 31  2  0
 31 32  1  0
 32 33  1  0
 32 34  2  0
 34 35  1  0
 34 36  1  0
 36 37  1  0
 37 38  2  0
 38 39  1  0
 38 40  1  0
 40 41  1  0
 40 42  2  0
 42 43  1  0
 42 44  1  0
 44 45  1  0
 44 46  2  0
  8 47  1  0
 47 48  2  0
 48 49  1  0
 49 50  1  0
 50 51  1  0
 50 52  1  0
 50 53  1  0
 53 54  1  0
 53 55  1  0
 53 56  1  0
 56 57  1  0
 56 58  1  0
 49 59  2  0
 59 60  1  0
 59 61  1  0
 61 62  1  0
 48  3  1  0
 46 31  1  0
 61 47  1  0
 46 37  1  0
M  CHG  2  11  -1  36  -1
M  END
>  <UniqueID>  (96) 
85

>  <SMILES>  (96) 
NCCc1c[nH]c2c(C(=O)[N-]CCCCCC/N=c3\cc[n-]c4cc(Cl)ccc34)ccc(O)c12

>  <Energy>  (96) 
104.36793935603825

>  <Genealogy>  (96) 
NCCc1c[nH]c2c(C(=O)[N-]CCCCCCN=c3cc[n-]c4cc(Cl)ccc34)ccc(O)c12 (protonated)
NCCc1c[nH]c2c(C(=O)[N-]CCCCCC/N=c3\cc[n-]c4cc(Cl)ccc34)ccc(O)c12 (cis-trans isomerization)
NCCc1c[nH]c2c(C(=O)[N-]CCCCCC/N=c3\cc[n-]c4cc(Cl)ccc34)ccc(O)c12 (3D coordinates assigned)
NCCc1c[nH]c2c(C(=O)[N-]CCCCCC/N=c3\cc[n-]c4cc(Cl)ccc34)ccc(O)c12 (optimized conformer: 104.36793935603825 kcal/mol)

>  <smiles>  (96) 
NCCc1c[nH]c2c(C(=O)NCCCCCCN=c3cc[nH]c4cc(Cl)ccc34)ccc(O)c12

>  <score_type>  (96) 
oracle

>  <origin>  (96) 
adg

>  <m_score__min__energy>  (96) 
-10.58

>  <m_primary>  (96) 
energy

$$$$
96:0
     RDKit          3D

 31 33  0  0  0  0  0  0  0  0999 V2000
   56.2720   30.2260   42.0150 O   0  0  0  0  0  0  0  0  0  0  0  0
   56.7900   30.2380   43.1640 C   0  0  0  0  0  0  0  0  0  0  0  0
   57.2480   31.4410   43.7030 C   0  0  0  0  0  0  0  0  0  0  0  0
   57.8220   31.4370   44.9840 C   0  0  0  0  0  0  0  0  0  0  0  0
   58.3430   32.6720   45.6520 C   0  0  0  0  0  0  0  0  0  0  0  0
   58.7710   33.8080   44.9270 C   0  0  0  0  0  0  0  0  0  0  0  0
   59.2510   34.9410   45.5910 C   0  0  0  0  0  0  0  0  0  0  0  0
   59.3140   34.9660   46.9840 C   0  0  0  0  0  0  0  0  0  0  0  0
   58.8970   33.8560   47.7180 C   0  0  0  0  0  0  0  0  0  0  0  0
   58.4150   32.7200   47.0620 C   0  0  0  0  0  0  0  0  0  0  0  0
   57.9070   30.2490   45.6430 N   0  0  0  0  0  0  0  0  0  0  0  0
   57.4610   29.0750   45.1190 C   0  0  0  0  0  0  0  0  0  0  0  0
   57.6030   27.8240   45.9320 C   0  0  0  0  0  0  0  0  0  0  0  0
   58.7610   27.6380   46.7210 C   0  0  0  0  0  0  0  0  0  0  0  0
   58.9280   26.4850   47.4920 C   0  0  0  0  0  0  0  0  0  0  0  0
   57.9470   25.4950   47.4940 C   0  0  0  0  0  0  0  0  0  0  0  0
   56.7960   25.6560   46.7230 C   0  0  0  0  0  0  0  0  0  0  0  0
   56.6200   26.8080   45.9480 C   0  0  0  0  0  0  0  0  0  0  0  0
   56.9010   29.0810   43.8720 N   0  0  0  0  0  0  0  0  0  0  0  0
   57.1606   32.3777   43.1330 H   0  0  0  0  0  0  0  0  0  0  0  0
   58.7258   33.8003   43.8280 H   0  0  0  0  0  0  0  0  0  0  0  0
   59.5804   35.8165   45.0122 H   0  0  0  0  0  0  0  0  0  0  0  0
   59.6918   35.8594   47.5027 H   0  0  0  0  0  0  0  0  0  0  0  0
   58.9476   33.8746   48.8167 H   0  0  0  0  0  0  0  0  0  0  0  0
   58.0872   31.8513   47.6517 H   0  0  0  0  0  0  0  0  0  0  0  0
   59.5421   28.4125   46.7280 H   0  0  0  0  0  0  0  0  0  0  0  0
   59.8364   26.3581   48.0992 H   0  0  0  0  0  0  0  0  0  0  0  0
   58.0803   24.5884   48.1025 H   0  0  0  0  0  0  0  0  0  0  0  0
   56.0227   24.8737   46.7240 H   0  0  0  0  0  0  0  0  0  0  0  0
   55.7073   26.9242   45.3450 H   0  0  0  0  0  0  0  0  0  0  0  0
   56.5450   28.2120   43.4240 H   0  0  0  0  0  0  0  0  0  0  0  0
  1  2  2  0
  2  3  1  0
  3  4  2  0
  4  5  1  0
  5  6  2  0
  6  7  1  0
  7  8  2  0
  8  9  1  0
  9 10  2  0
  4 11  1  0
 11 12  2  0
 12 13  1  0
 13 14  2  0
 14 15  1  0
 15 16  2  0
 16 17  1  0
 17 18  2  0
 12 19  1  0
 19  2  1  0
 10  5  1  0
 18 13  1  0
  3 20  1  0
  6 21  1  0
  7 22  1  0
  8 23  1  0
  9 24  1  0
 10 25  1  0
 14 26  1  0
 15 27  1  0
 16 28  1  0
 17 29  1  0
 18 30  1  0
 19 31  1  0
M  END
>  <UniqueID>  (97) 
86

>  <SMILES>  (97) 
O=c1cc(-c2ccccc2)nc(-c2ccccc2)[nH]1

>  <Energy>  (97) 
43.9268329846431

>  <Genealogy>  (97) 
O=c1cc(-c2ccccc2)nc(-c2ccccc2)[nH]1 (3D coordinates assigned)
O=c1cc(-c2ccccc2)nc(-c2ccccc2)[nH]1 (optimized conformer: 43.9268329846431 kcal/mol)

>  <smiles>  (97) 
O=c1cc(-c2ccccc2)nc(-c2ccccc2)[nH]1

>  <score_type>  (97) 
oracle

>  <origin>  (97) 
adg

>  <m_score__min__energy>  (97) 
-7.3399999999999999

>  <m_primary>  (97) 
energy

$$$$
