0:0
     RDKit          3D

 60 65  0  0  1  0  0  0  0  0999 V2000
   62.9880   33.8160   46.3850 Cl  0  0  0  0  0  0  0  0  0  0  0  0
   61.6960   33.8360   47.5530 C   0  0  0  0  0  0  0  0  0  0  0  0
   61.9940   33.7510   48.8790 C   0  0  0  0  0  0  0  0  0  0  0  0
   60.9350   33.7720   49.7820 C   0  0  0  0  0  0  0  0  0  0  0  0
   59.6260   33.8750   49.3450 C   0  0  0  0  0  0  0  0  0  0  0  0
   59.3470   33.9600   47.9970 C   0  0  0  0  0  0  0  0  0  0  0  0
   60.4020   33.9410   47.0890 C   0  0  0  0  0  0  0  0  0  0  0  0
   60.0600   34.0350   45.6460 C   0  0  0  0  0  0  0  0  0  0  0  0
   58.6370   33.7020   45.4810 N   0  0  0  0  0  0  0  0  0  0  0  0
   58.2710   32.6750   44.7940 C   0  0  0  0  0  0  0  0  0  0  0  0
   58.3960   31.4150   45.3600 C   0  0  0  0  0  0  0  0  0  0  0  0
   58.0160   30.2910   44.6610 C   0  0  0  0  0  0  0  0  0  0  0  0
   58.1260   28.9450   45.2060 C   0  0  0  0  0  0  0  0  0  0  0  0
   58.6270   28.7600   46.4400 N   0  0  0  0  0  0  0  0  0  0  0  0
   58.7580   27.5530   47.0060 C   0  0  0  0  0  0  0  0  0  0  0  0
   59.2350   27.3550   48.1870 N   0  0  0  0  0  0  0  0  0  0  0  0
   59.8780   28.4350   48.8660 C   0  0  1  0  0  0  0  0  0  0  0  0
   60.8720   29.2080   48.0710 C   0  0  0  0  0  0  0  0  0  0  0  0
   60.4370   30.6350   48.1780 C   0  0  0  0  0  0  0  0  0  0  0  0
   59.1440   30.6990   48.7750 N   0  0  0  0  0  0  0  0  0  0  0  0
   58.7950   29.4140   49.2810 C   0  0  0  0  0  0  0  0  0  0  0  0
   58.3660   26.4070   46.3120 C   0  0  0  0  0  0  0  0  0  0  0  0
   58.4890   25.1910   46.8610 N   0  0  0  0  0  0  0  0  0  0  0  0
   58.0950   24.1270   46.1420 C   0  0  0  0  0  0  0  0  0  0  0  0
   57.5740   24.2550   44.8710 C   0  0  0  0  0  0  0  0  0  0  0  0
   57.1400   23.1270   44.0740 C   0  0  0  0  0  0  0  0  0  0  0  0
   56.2350   23.0930   43.0280 C   0  0  0  0  0  0  0  0  0  0  0  0
   56.1780   21.8060   42.6200 N   0  0  0  0  0  0  0  0  0  0  0  0
   57.0020   21.0590   43.3640 N   0  0  0  0  0  0  0  0  0  0  0  0
   57.6190   21.8350   44.2800 C   0  0  0  0  0  0  0  0  0  0  0  0
   57.4470   25.5140   44.3030 C   0  0  0  0  0  0  0  0  0  0  0  0
   57.8570   26.6090   45.0530 C   0  0  0  0  0  0  0  0  0  0  0  0
   57.7470   27.8460   44.5330 N   0  0  0  0  0  0  0  0  0  0  0  0
   57.5150   30.4800   43.3910 C   0  0  0  0  0  0  0  0  0  0  0  0
   57.4040   31.7570   42.8540 C   0  0  0  0  0  0  0  0  0  0  0  0
   57.7800   32.8510   43.5490 N   0  0  0  0  0  0  0  0  0  0  0  0
   63.0351   33.6686   49.2244 H   0  0  0  0  0  0  0  0  0  0  0  0
   61.1419   33.7057   50.8603 H   0  0  0  0  0  0  0  0  0  0  0  0
   58.8043   33.8891   50.0761 H   0  0  0  0  0  0  0  0  0  0  0  0
   58.3080   34.0415   47.6452 H   0  0  0  0  0  0  0  0  0  0  0  0
   60.2458   35.0579   45.2865 H   0  0  0  0  0  0  0  0  0  0  0  0
   60.6803   33.3364   45.0654 H   0  0  0  0  0  0  0  0  0  0  0  0
   58.8026   31.3125   46.3770 H   0  0  0  0  0  0  0  0  0  0  0  0
   60.4368   27.9754   49.6946 H   0  0  0  0  0  0  0  0  0  0  0  0
   61.8820   29.0805   48.4877 H   0  0  0  0  0  0  0  0  0  0  0  0
   60.9147   28.8690   47.0254 H   0  0  0  0  0  0  0  0  0  0  0  0
   61.1547   31.1906   48.7995 H   0  0  0  0  0  0  0  0  0  0  0  0
   60.3970   31.0803   47.1730 H   0  0  0  0  0  0  0  0  0  0  0  0
   58.4190   31.1670   48.1870 H   0  0  0  0  0  0  0  0  0  0  0  0
   58.7263   29.4512   50.3782 H   0  0  0  0  0  0  0  0  0  0  0  0
   57.8207   29.0977   48.8800 H   0  0  0  0  0  0  0  0  0  0  0  0
   58.1907   23.1226   46.5802 H   0  0  0  0  0  0  0  0  0  0  0  0
   55.6744   23.9431   42.6120 H   0  0  0  0  0  0  0  0  0  0  0  0
   57.0870   20.0340   43.1910 H   0  0  0  0  0  0  0  0  0  0  0  0
   58.3510   21.5129   45.0353 H   0  0  0  0  0  0  0  0  0  0  0  0
   57.0348   25.6413   43.2911 H   0  0  0  0  0  0  0  0  0  0  0  0
   57.3550   27.9190   43.5800 H   0  0  0  0  0  0  0  0  0  0  0  0
   57.1995   29.6104   42.7958 H   0  0  0  0  0  0  0  0  0  0  0  0
   57.0000   31.8790   41.8382 H   0  0  0  0  0  0  0  0  0  0  0  0
   57.6770   33.7850   43.1050 H   0  0  0  0  0  0  0  0  0  0  0  0
  1  2  1  0
  2  3  2  0
  3  4  1  0
  4  5  2  0
  5  6  1  0
  6  7  2  0
  7  8  1  0
  8  9  1  0
  9 10  2  0
 10 11  1  0
 11 12  2  0
 12 13  1  0
 13 14  2  0
 14 15  1  0
 15 16  2  0
 16 17  1  0
 17 18  1  0
 18 19  1  0
 19 20  1  0
 20 21  1  0
 15 22  1  0
 22 23  2  0
 23 24  1  0
 24 25  2  0
 25 26  1  0
 26 27  1  0
 27 28  2  0
 28 29  1  0
 29 30  1  0
 25 31  1  0
 31 32  2  0
 32 33  1  0
 12 34  1  0
 34 35  2  0
 35 36  1  0
  7  2  1  0
 36 10  1  0
 33 13  1  0
 21 17  1  0
 32 22  1  0
 30 26  2  0
  3 37  1  0
  4 38  1  0
  5 39  1  0
  6 40  1  0
  8 41  1  0
  8 42  1  0
 11 43  1  0
 17 44  1  1
 18 45  1  0
 18 46  1  0
 19 47  1  0
 19 48  1  0
 20 49  1  0
 21 50  1  0
 21 51  1  0
 24 52  1  0
 27 53  1  0
 29 54  1  0
 30 55  1  0
 31 56  1  0
 33 57  1  0
 34 58  1  0
 35 59  1  0
 36 60  1  0
M  END
>  <smiles>  (1) 
Clc1ccccc1CN=c1cc(-c2nc(=NC3CCNC3)c3ncc(-c4cn[nH]c4)cc3[nH]2)cc[nH]1

>  <score_type>  (1) 
oracle

>  <origin>  (1) 
adg

>  <m_score__min__energy>  (1) 
-10.77

>  <m_primary>  (1) 
energy

$$$$
1:0
     RDKit          3D

 67 69  0  0  0  0  0  0  0  0999 V2000
   55.8960   21.8400   44.9010 C   0  0  0  0  0  0  0  0  0  0  0  0
   56.0890   22.0170   43.4510 N   0  0  0  0  0  0  0  0  0  0  0  0
   57.1300   21.0780   42.9880 C   0  0  0  0  0  0  0  0  0  0  0  0
   56.4700   23.4190   43.1740 C   0  0  0  0  0  0  0  0  0  0  0  0
   57.5490   23.9190   44.1450 C   0  0  0  0  0  0  0  0  0  0  0  0
   57.3490   25.3330   44.4590 N   0  0  0  0  0  0  0  0  0  0  0  0
   57.5100   25.8340   45.7940 C   0  0  0  0  0  0  0  0  0  0  0  0
   57.8950   25.0720   46.7190 O   0  0  0  0  0  0  0  0  0  0  0  0
   57.1830   27.2630   46.0960 C   0  0  0  0  0  0  0  0  0  0  0  0
   56.9980   27.9790   44.8460 N   0  0  0  0  0  0  0  0  0  0  0  0
   56.3160   29.2300   44.7390 C   0  0  0  0  0  0  0  0  0  0  0  0
   55.1460   29.3480   45.1970 O   0  0  0  0  0  0  0  0  0  0  0  0
   57.0070   30.3910   44.1360 C   0  0  0  0  0  0  0  0  0  0  0  0
   57.0190   30.5820   42.7420 C   0  0  0  0  0  0  0  0  0  0  0  0
   57.5890   31.7330   42.1910 C   0  0  0  0  0  0  0  0  0  0  0  0
   58.1210   32.7200   43.0240 C   0  0  0  0  0  0  0  0  0  0  0  0
   58.1000   32.5550   44.4190 C   0  0  0  0  0  0  0  0  0  0  0  0
   58.7080   33.8350   45.4790 S   0  0  0  0  0  0  0  0  0  0  0  0
   59.4630   34.8180   44.6300 O   0  0  0  0  0  0  0  0  0  0  0  0
   57.5370   34.5590   46.0810 O   0  0  0  0  0  0  0  0  0  0  0  0
   59.7230   33.2720   46.8020 N   0  0  0  0  0  0  0  0  0  0  0  0
   60.4180   34.3350   47.5520 C   0  0  0  0  0  0  0  0  0  0  0  0
   61.7360   33.8600   48.0990 C   0  0  0  0  0  0  0  0  0  0  0  0
   61.8230   33.3750   49.4140 C   0  0  0  0  0  0  0  0  0  0  0  0
   63.0380   32.8960   49.9090 C   0  0  0  0  0  0  0  0  0  0  0  0
   64.1710   32.8840   49.0930 C   0  0  0  0  0  0  0  0  0  0  0  0
   64.0920   33.3580   47.7820 C   0  0  0  0  0  0  0  0  0  0  0  0
   62.8800   33.8440   47.2840 C   0  0  0  0  0  0  0  0  0  0  0  0
   60.5800   32.1130   46.4610 C   0  0  0  0  0  0  0  0  0  0  0  0
   60.1600   30.8030   47.1010 C   0  0  0  0  0  0  0  0  0  0  0  0
   59.4190   30.7820   48.2980 C   0  0  0  0  0  0  0  0  0  0  0  0
   59.0570   29.5660   48.8880 C   0  0  0  0  0  0  0  0  0  0  0  0
   59.3930   28.3600   48.2680 C   0  0  0  0  0  0  0  0  0  0  0  0
   60.0790   28.3680   47.0530 C   0  0  0  0  0  0  0  0  0  0  0  0
   60.4480   29.5810   46.4640 C   0  0  0  0  0  0  0  0  0  0  0  0
   57.6000   31.3640   44.9620 C   0  0  0  0  0  0  0  0  0  0  0  0
   56.6001   22.4858   45.4461 H   0  0  0  0  0  0  0  0  0  0  0  0
   54.8648   22.1130   45.1697 H   0  0  0  0  0  0  0  0  0  0  0  0
   56.0789   20.7891   45.1697 H   0  0  0  0  0  0  0  0  0  0  0  0
   57.6300   20.6270   43.8578 H   0  0  0  0  0  0  0  0  0  0  0  0
   56.6662   20.2868   42.3806 H   0  0  0  0  0  0  0  0  0  0  0  0
   57.8694   21.6206   42.3806 H   0  0  0  0  0  0  0  0  0  0  0  0
   56.8568   23.4865   42.1465 H   0  0  0  0  0  0  0  0  0  0  0  0
   55.5766   24.0478   43.3022 H   0  0  0  0  0  0  0  0  0  0  0  0
   57.4980   23.3324   45.0741 H   0  0  0  0  0  0  0  0  0  0  0  0
   58.5340   23.7988   43.6703 H   0  0  0  0  0  0  0  0  0  0  0  0
   57.0150   25.9910   43.7140 H   0  0  0  0  0  0  0  0  0  0  0  0
   56.2584   27.3124   46.6899 H   0  0  0  0  0  0  0  0  0  0  0  0
   58.0039   27.7196   46.6684 H   0  0  0  0  0  0  0  0  0  0  0  0
   56.5772   29.8209   42.0820 H   0  0  0  0  0  0  0  0  0  0  0  0
   57.6187   31.8619   41.0990 H   0  0  0  0  0  0  0  0  0  0  0  0
   58.5579   33.6296   42.5862 H   0  0  0  0  0  0  0  0  0  0  0  0
   60.5974   35.1867   46.8794 H   0  0  0  0  0  0  0  0  0  0  0  0
   59.7812   34.6289   48.3994 H   0  0  0  0  0  0  0  0  0  0  0  0
   60.9305   33.3723   50.0569 H   0  0  0  0  0  0  0  0  0  0  0  0
   63.1025   32.5276   50.9435 H   0  0  0  0  0  0  0  0  0  0  0  0
   65.1257   32.5012   49.4829 H   0  0  0  0  0  0  0  0  0  0  0  0
   64.9852   33.3489   47.1401 H   0  0  0  0  0  0  0  0  0  0  0  0
   62.8217   34.2153   46.2502 H   0  0  0  0  0  0  0  0  0  0  0  0
   60.5608   31.9823   45.3690 H   0  0  0  0  0  0  0  0  0  0  0  0
   61.5822   32.3423   46.8522 H   0  0  0  0  0  0  0  0  0  0  0  0
   59.1224   31.7288   48.7730 H   0  0  0  0  0  0  0  0  0  0  0  0
   58.5074   29.5596   49.8408 H   0  0  0  0  0  0  0  0  0  0  0  0
   59.1168   27.4044   48.7376 H   0  0  0  0  0  0  0  0  0  0  0  0
   60.3299   27.4184   46.5578 H   0  0  0  0  0  0  0  0  0  0  0  0
   60.9678   29.5806   45.4946 H   0  0  0  0  0  0  0  0  0  0  0  0
   57.6717   31.1876   46.0454 H   0  0  0  0  0  0  0  0  0  0  0  0
  1  2  1  0
  2  3  1  0
  2  4  1  0
  4  5  1  0
  5  6  1  0
  6  7  1  0
  7  8  2  0
  7  9  1  0
  9 10  1  0
 10 11  1  0
 11 12  2  0
 11 13  1  0
 13 14  2  0
 14 15  1  0
 15 16  2  0
 16 17  1  0
 17 18  1  0
 18 19  2  0
 18 20  2  0
 18 21  1  0
 21 22  1  0
 22 23  1  0
 23 24  2  0
 24 25  1  0
 25 26  2  0
 26 27  1  0
 27 28  2  0
 21 29  1  0
 29 30  1  0
 30 31  2  0
 31 32  1  0
 32 33  2  0
 33 34  1  0
 34 35  2  0
 17 36  2  0
 36 13  1  0
 28 23  1  0
 35 30  1  0
  1 37  1  0
  1 38  1  0
  1 39  1  0
  3 40  1  0
  3 41  1  0
  3 42  1  0
  4 43  1  0
  4 44  1  0
  5 45  1  0
  5 46  1  0
  6 47  1  0
  9 48  1  0
  9 49  1  0
 14 50  1  0
 15 51  1  0
 16 52  1  0
 22 53  1  0
 22 54  1  0
 24 55  1  0
 25 56  1  0
 26 57  1  0
 27 58  1  0
 28 59  1  0
 29 60  1  0
 29 61  1  0
 31 62  1  0
 32 63  1  0
 33 64  1  0
 34 65  1  0
 35 66  1  0
 36 67  1  0
M  CHG  1  10  -1
M  END
>  <UniqueID>  (2) 
1

>  <SMILES>  (2) 
CN(C)CCNC(=O)C[N-]C(=O)c1cccc(S(=O)(=O)N(Cc2ccccc2)Cc2ccccc2)c1

>  <Energy>  (2) 
61.567721085146154

>  <Genealogy>  (2) 
CN(C)CCNC(=O)C[N-]C(=O)c1cccc(S(=O)(=O)N(Cc2ccccc2)Cc2ccccc2)c1 (protonated)
CN(C)CCNC(=O)C[N-]C(=O)c1cccc(S(=O)(=O)N(Cc2ccccc2)Cc2ccccc2)c1 (3D coordinates assigned)
CN(C)CCNC(=O)C[N-]C(=O)c1cccc(S(=O)(=O)N(Cc2ccccc2)Cc2ccccc2)c1 (optimized conformer: 61.567721085146154 kcal/mol)

>  <smiles>  (2) 
CN(C)CCNC(=O)CNC(=O)c1cccc(S(=O)(=O)N(Cc2ccccc2)Cc2ccccc2)c1

>  <score_type>  (2) 
oracle

>  <origin>  (2) 
adg

>  <m_score__min__energy>  (2) 
-12.94

>  <m_primary>  (2) 
energy

$$$$
2:0
     RDKit          3D

 33 34  0  0  0  0  0  0  0  0999 V2000
   58.7900   34.9630   45.0260 C   0  0  0  0  0  0  0  0  0  0  0  0
   59.2230   33.6390   45.5760 C   0  0  0  0  0  0  0  0  0  0  0  0
   58.4660   32.4710   45.7060 C   0  0  0  0  0  0  0  0  0  0  0  0
   57.0530   32.2680   45.2570 C   0  0  0  0  0  0  0  0  0  0  0  0
   56.9360   30.9890   44.4930 C   0  0  0  0  0  0  0  0  0  0  0  0
   57.2340   30.9590   43.2680 O   0  0  0  0  0  0  0  0  0  0  0  0
   56.5350   29.7960   45.1680 N   0  0  0  0  0  0  0  0  0  0  0  0
   57.1260   28.4930   44.8970 C   0  0  0  0  0  0  0  0  0  0  0  0
   57.4000   27.7560   46.2070 C   0  0  0  0  0  0  0  0  0  0  0  0
   56.4740   26.5920   46.3800 C   0  0  0  0  0  0  0  0  0  0  0  0
   56.8880   25.5250   46.9060 O   0  0  0  0  0  0  0  0  0  0  0  0
   55.1420   26.7010   46.0020 O   0  0  0  0  0  0  0  0  0  0  0  0
   59.1640   31.5410   46.3340 O   0  0  0  0  0  0  0  0  0  0  0  0
   60.3350   32.0530   46.6280 C   0  0  0  0  0  0  0  0  0  0  0  0
   61.3860   31.4340   47.2990 C   0  0  0  0  0  0  0  0  0  0  0  0
   62.5580   32.1790   47.5310 C   0  0  0  0  0  0  0  0  0  0  0  0
   63.6210   31.5770   48.2020 O   0  0  0  0  0  0  0  0  0  0  0  0
   62.6430   33.5250   47.0860 C   0  0  0  0  0  0  0  0  0  0  0  0
   63.7960   34.2680   47.3140 O   0  0  0  0  0  0  0  0  0  0  0  0
   61.5620   34.1210   46.4080 C   0  0  0  0  0  0  0  0  0  0  0  0
   60.4240   33.3480   46.1910 C   0  0  0  0  0  0  0  0  0  0  0  0
   58.5656   35.6491   45.8560 H   0  0  0  0  0  0  0  0  0  0  0  0
   59.5968   35.3853   44.4090 H   0  0  0  0  0  0  0  0  0  0  0  0
   57.8895   34.8270   44.4090 H   0  0  0  0  0  0  0  0  0  0  0  0
   56.3938   32.2280   46.1367 H   0  0  0  0  0  0  0  0  0  0  0  0
   56.7582   33.1045   44.6063 H   0  0  0  0  0  0  0  0  0  0  0  0
   56.4317   27.8993   44.2843 H   0  0  0  0  0  0  0  0  0  0  0  0
   58.0749   28.6339   44.3588 H   0  0  0  0  0  0  0  0  0  0  0  0
   58.4376   27.3909   46.2026 H   0  0  0  0  0  0  0  0  0  0  0  0
   57.2375   28.4559   47.0399 H   0  0  0  0  0  0  0  0  0  0  0  0
   61.3031   30.3911   47.6388 H   0  0  0  0  0  0  0  0  0  0  0  0
   64.5650   31.9400   48.1490 H   0  0  0  0  0  0  0  0  0  0  0  0
   61.6148   35.1635   46.0610 H   0  0  0  0  0  0  0  0  0  0  0  0
  1  2  1  0
  2  3  2  0
  3  4  1  0
  4  5  1  0
  5  6  2  0
  5  7  1  0
  7  8  1  0
  8  9  1  0
  9 10  1  0
 10 11  2  0
 10 12  1  0
  3 13  1  0
 13 14  1  0
 14 15  2  0
 15 16  1  0
 16 17  1  0
 16 18  2  0
 18 19  1  0
 18 20  1  0
 20 21  2  0
 21  2  1  0
 21 14  1  0
  1 22  1  0
  1 23  1  0
  1 24  1  0
  4 25  1  0
  4 26  1  0
  8 27  1  0
  8 28  1  0
  9 29  1  0
  9 30  1  0
 15 31  1  0
 17 32  1  0
 20 33  1  0
M  CHG  3   7  -1  12  -1  19  -1
M  END
>  <UniqueID>  (3) 
2

>  <SMILES>  (3) 
Cc1c(CC(=O)[N-]CCC(=O)[O-])oc2cc(O)c([O-])cc12

>  <Energy>  (3) 
58.03619237752769

>  <Genealogy>  (3) 
Cc1c(CC(=O)[N-]CCC(=O)[O-])oc2cc(O)c([O-])cc12 (protonated)
Cc1c(CC(=O)[N-]CCC(=O)[O-])oc2cc(O)c([O-])cc12 (3D coordinates assigned)
Cc1c(CC(=O)[N-]CCC(=O)[O-])oc2cc(O)c([O-])cc12 (optimized conformer: 58.03619237752769 kcal/mol)

>  <smiles>  (3) 
Cc1c(CC(=O)NCCC(=O)O)oc2cc(O)c(O)cc12

>  <score_type>  (3) 
oracle

>  <origin>  (3) 
adg

>  <m_score__min__energy>  (3) 
-13.17

>  <m_primary>  (3) 
energy

$$$$
3:0
     RDKit          3D

 71 75  0  0  0  0  0  0  0  0999 V2000
   55.5070   26.8020   46.0010 N   0  0  0  0  0  0  0  0  0  0  0  0
   56.7280   26.2560   46.4920 C   0  0  0  0  0  0  0  0  0  0  0  0
   56.7050   25.1290   47.0630 O   0  0  0  0  0  0  0  0  0  0  0  0
   57.9980   27.0150   46.3940 C   0  0  0  0  0  0  0  0  0  0  0  0
   58.9270   26.9230   47.4480 C   0  0  0  0  0  0  0  0  0  0  0  0
   60.0920   27.6920   47.4430 C   0  0  0  0  0  0  0  0  0  0  0  0
   60.3520   28.5570   46.3840 C   0  0  0  0  0  0  0  0  0  0  0  0
   59.4750   28.6230   45.3030 C   0  0  0  0  0  0  0  0  0  0  0  0
   58.3030   27.8540   45.2910 C   0  0  0  0  0  0  0  0  0  0  0  0
   57.4370   27.9380   44.1570 N   0  0  0  0  0  0  0  0  0  0  0  0
   56.3610   29.2810   43.9490 S   0  0  0  0  0  0  0  0  0  0  0  0
   55.9340   29.3720   42.5160 O   0  0  0  0  0  0  0  0  0  0  0  0
   55.1490   29.0720   44.8080 O   0  0  0  0  0  0  0  0  0  0  0  0
   57.1800   30.7540   44.4350 C   0  0  0  0  0  0  0  0  0  0  0  0
   57.4900   31.7200   43.4710 C   0  0  0  0  0  0  0  0  0  0  0  0
   58.3300   32.7840   43.7950 C   0  0  0  0  0  0  0  0  0  0  0  0
   58.8550   32.9090   45.0910 C   0  0  0  0  0  0  0  0  0  0  0  0
   59.8600   33.9030   45.3510 N   0  0  0  0  0  0  0  0  0  0  0  0
   59.4210   35.2800   45.5860 C   0  0  0  0  0  0  0  0  0  0  0  0
   59.3060   35.5220   47.1050 C   0  0  0  0  0  0  0  0  0  0  0  0
   59.9690   34.5340   47.8890 O   0  0  0  0  0  0  0  0  0  0  0  0
   61.2470   34.2350   47.3570 C   0  0  0  0  0  0  0  0  0  0  0  0
   61.1120   33.5080   46.0050 C   0  0  0  0  0  0  0  0  0  0  0  0
   58.4430   32.0020   46.0930 C   0  0  0  0  0  0  0  0  0  0  0  0
   58.7570   32.1950   47.4800 N   0  0  0  0  0  0  0  0  0  0  0  0
   59.4720   31.2880   48.3120 C   0  0  0  0  0  0  0  0  0  0  0  0
   58.9010   30.2420   48.7190 O   0  0  0  0  0  0  0  0  0  0  0  0
   60.9240   31.4570   48.4810 C   0  0  0  0  0  0  0  0  0  0  0  0
   61.7950   31.0180   47.4780 C   0  0  0  0  0  0  0  0  0  0  0  0
   63.1640   31.2790   47.5710 C   0  0  0  0  0  0  0  0  0  0  0  0
   63.6730   31.9720   48.6710 C   0  0  0  0  0  0  0  0  0  0  0  0
   62.8180   32.3850   49.7000 C   0  0  0  0  0  0  0  0  0  0  0  0
   63.4730   33.2310   51.1050 S   0  0  0  0  0  0  0  0  0  0  0  0
   63.4250   34.7150   50.8570 O   0  0  0  0  0  0  0  0  0  0  0  0
   62.6190   32.9380   52.3070 O   0  0  0  0  0  0  0  0  0  0  0  0
   65.1170   32.7530   51.4440 N   0  0  0  0  0  0  0  0  0  0  0  0
   66.0390   33.3520   50.4680 C   0  0  0  0  0  0  0  0  0  0  0  0
   67.4670   32.8580   50.7310 C   0  0  0  0  0  0  0  0  0  0  0  0
   67.5280   31.4440   50.6580 O   0  0  0  0  0  0  0  0  0  0  0  0
   66.6900   30.8830   51.6480 C   0  0  0  0  0  0  0  0  0  0  0  0
   65.2320   31.2870   51.4150 C   0  0  0  0  0  0  0  0  0  0  0  0
   61.4410   32.1350   49.5980 C   0  0  0  0  0  0  0  0  0  0  0  0
   57.6030   30.9330   45.7550 C   0  0  0  0  0  0  0  0  0  0  0  0
   55.5390   27.5120   45.2420 H   0  0  0  0  0  0  0  0  0  0  0  0
   58.7324   26.2369   48.2855 H   0  0  0  0  0  0  0  0  0  0  0  0
   60.8052   27.6143   48.2768 H   0  0  0  0  0  0  0  0  0  0  0  0
   61.2516   29.1898   46.4004 H   0  0  0  0  0  0  0  0  0  0  0  0
   59.7040   29.2830   44.4533 H   0  0  0  0  0  0  0  0  0  0  0  0
   57.0706   31.6395   42.4573 H   0  0  0  0  0  0  0  0  0  0  0  0
   58.5836   33.5317   43.0291 H   0  0  0  0  0  0  0  0  0  0  0  0
   60.1541   35.9785   45.1564 H   0  0  0  0  0  0  0  0  0  0  0  0
   58.4427   35.4429   45.1102 H   0  0  0  0  0  0  0  0  0  0  0  0
   59.7466   36.5031   47.3357 H   0  0  0  0  0  0  0  0  0  0  0  0
   58.2371   35.4746   47.3605 H   0  0  0  0  0  0  0  0  0  0  0  0
   61.8062   35.1709   47.2105 H   0  0  0  0  0  0  0  0  0  0  0  0
   61.7813   33.5803   48.0612 H   0  0  0  0  0  0  0  0  0  0  0  0
   61.9615   33.7763   45.3597 H   0  0  0  0  0  0  0  0  0  0  0  0
   61.1051   32.4214   46.1762 H   0  0  0  0  0  0  0  0  0  0  0  0
   61.4002   30.4652   46.6128 H   0  0  0  0  0  0  0  0  0  0  0  0
   63.8428   30.9377   46.7756 H   0  0  0  0  0  0  0  0  0  0  0  0
   64.7488   32.1941   48.7294 H   0  0  0  0  0  0  0  0  0  0  0  0
   65.7337   33.0622   49.4517 H   0  0  0  0  0  0  0  0  0  0  0  0
   66.0099   34.4473   50.5657 H   0  0  0  0  0  0  0  0  0  0  0  0
   68.1428   33.2882   49.9772 H   0  0  0  0  0  0  0  0  0  0  0  0
   67.7710   33.1740   51.7398 H   0  0  0  0  0  0  0  0  0  0  0  0
   66.7713   29.7866   51.6110 H   0  0  0  0  0  0  0  0  0  0  0  0
   67.0073   31.2561   52.6329 H   0  0  0  0  0  0  0  0  0  0  0  0
   64.9003   30.9128   50.4352 H   0  0  0  0  0  0  0  0  0  0  0  0
   64.6017   30.8548   52.2061 H   0  0  0  0  0  0  0  0  0  0  0  0
   60.7630   32.4714   50.3962 H   0  0  0  0  0  0  0  0  0  0  0  0
   57.2740   30.2295   46.5340 H   0  0  0  0  0  0  0  0  0  0  0  0
  1  2  1  0
  2  3  2  0
  2  4  1  0
  4  5  2  0
  5  6  1  0
  6  7  2  0
  7  8  1  0
  8  9  2  0
  9 10  1  0
 10 11  1  0
 11 12  2  0
 11 13  2  0
 11 14  1  0
 14 15  2  0
 15 16  1  0
 16 17  2  0
 17 18  1  0
 18 19  1  0
 19 20  1  0
 20 21  1  0
 21 22  1  0
 22 23  1  0
 17 24  1  0
 24 25  1  0
 25 26  1  0
 26 27  2  0
 26 28  1  0
 28 29  2  0
 29 30  1  0
 30 31  2  0
 31 32  1  0
 32 33  1  0
 33 34  2  0
 33 35  2  0
 33 36  1  0
 36 37  1  0
 37 38  1  0
 38 39  1  0
 39 40  1  0
 40 41  1  0
 32 42  2  0
 24 43  2  0
  9  4  1  0
 43 14  1  0
 23 18  1  0
 42 28  1  0
 41 36  1  0
  1 44  1  0
  5 45  1  0
  6 46  1  0
  7 47  1  0
  8 48  1  0
 15 49  1  0
 16 50  1  0
 19 51  1  0
 19 52  1  0
 20 53  1  0
 20 54  1  0
 22 55  1  0
 22 56  1  0
 23 57  1  0
 23 58  1  0
 29 59  1  0
 30 60  1  0
 31 61  1  0
 37 62  1  0
 37 63  1  0
 38 64  1  0
 38 65  1  0
 40 66  1  0
 40 67  1  0
 41 68  1  0
 41 69  1  0
 42 70  1  0
 43 71  1  0
M  CHG  3   1  -1  10  -1  25  -1
M  END
>  <UniqueID>  (4) 
3

>  <SMILES>  (4) 
[NH-]C(=O)c1ccccc1[N-]S(=O)(=O)c1ccc(N2CCOCC2)c([N-]C(=O)c2cccc(S(=O)(=O)N3CCOCC3)c2)c1

>  <Energy>  (4) 
123.15133877484301

>  <Genealogy>  (4) 
[NH-]C(=O)c1ccccc1[N-]S(=O)(=O)c1ccc(N2CCOCC2)c([N-]C(=O)c2cccc(S(=O)(=O)N3CCOCC3)c2)c1 (protonated)
[NH-]C(=O)c1ccccc1[N-]S(=O)(=O)c1ccc(N2CCOCC2)c([N-]C(=O)c2cccc(S(=O)(=O)N3CCOCC3)c2)c1 (3D coordinates assigned)
[NH-]C(=O)c1ccccc1[N-]S(=O)(=O)c1ccc(N2CCOCC2)c([N-]C(=O)c2cccc(S(=O)(=O)N3CCOCC3)c2)c1 (nonaromatic ring conformer: 123.15133877484301 kcal/mol)

>  <smiles>  (4) 
NC(=O)c1ccccc1NS(=O)(=O)c1ccc(N2CCOCC2)c(NC(=O)c2cccc(S(=O)(=O)N3CCOCC3)c2)c1

>  <score_type>  (4) 
oracle

>  <origin>  (4) 
adg

>  <m_score__min__energy>  (4) 
-16.949999999999999

>  <m_primary>  (4) 
energy

$$$$
4:0
     RDKit          3D

 48 51  0  0  0  0  0  0  0  0999 V2000
   59.8190   28.0950   47.3510 O   0  0  0  0  0  0  0  0  0  0  0  0
   58.7520   28.7250   47.1240 C   0  0  0  0  0  0  0  0  0  0  0  0
   58.6040   30.0410   47.6650 N   0  0  0  0  0  0  0  0  0  0  0  0
   59.4500   30.6300   49.0600 S   0  0  0  0  0  0  0  0  0  0  0  0
   58.5450   31.5400   49.8390 O   0  0  0  0  0  0  0  0  0  0  0  0
   59.8120   29.4540   49.9260 O   0  0  0  0  0  0  0  0  0  0  0  0
   60.9120   31.5240   48.5950 C   0  0  0  0  0  0  0  0  0  0  0  0
   62.1030   31.2540   49.2890 C   0  0  0  0  0  0  0  0  0  0  0  0
   63.3000   31.8690   48.9180 C   0  0  0  0  0  0  0  0  0  0  0  0
   63.3240   32.7620   47.8480 C   0  0  0  0  0  0  0  0  0  0  0  0
   62.1490   33.0540   47.1550 C   0  0  0  0  0  0  0  0  0  0  0  0
   60.9330   32.4510   47.5210 C   0  0  0  0  0  0  0  0  0  0  0  0
   59.7170   32.8140   46.7610 C   0  0  0  0  0  0  0  0  0  0  0  0
   58.8990   33.8630   47.2070 C   0  0  0  0  0  0  0  0  0  0  0  0
   57.7460   34.2060   46.4960 C   0  0  0  0  0  0  0  0  0  0  0  0
   57.3970   33.4990   45.3420 C   0  0  0  0  0  0  0  0  0  0  0  0
   58.2010   32.4410   44.8910 C   0  0  0  0  0  0  0  0  0  0  0  0
   57.8010   31.6490   43.6770 C   0  0  0  0  0  0  0  0  0  0  0  0
   56.7030   30.6980   44.0250 C   0  0  0  0  0  0  0  0  0  0  0  0
   55.7900   30.2410   43.1500 N   0  0  0  0  0  0  0  0  0  0  0  0
   55.0580   29.3880   43.8470 N   0  0  0  0  0  0  0  0  0  0  0  0
   55.5120   29.3180   45.0890 N   0  0  0  0  0  0  0  0  0  0  0  0
   56.5500   30.1250   45.2320 N   0  0  0  0  0  0  0  0  0  0  0  0
   59.3500   32.0890   45.6170 C   0  0  0  0  0  0  0  0  0  0  0  0
   57.6970   28.1060   46.3670 N   0  0  0  0  0  0  0  0  0  0  0  0
   57.6290   26.6850   46.2010 C   0  0  0  0  0  0  0  0  0  0  0  0
   58.7970   25.9270   46.3620 C   0  0  0  0  0  0  0  0  0  0  0  0
   58.7730   24.5430   46.1730 C   0  0  0  0  0  0  0  0  0  0  0  0
   57.5780   23.9050   45.8340 C   0  0  0  0  0  0  0  0  0  0  0  0
   56.4020   24.6490   45.6980 C   0  0  0  0  0  0  0  0  0  0  0  0
   56.4130   26.0350   45.8940 C   0  0  0  0  0  0  0  0  0  0  0  0
   55.2100   26.7340   45.8060 O   0  0  0  0  0  0  0  0  0  0  0  0
   62.0923   30.5501   50.1342 H   0  0  0  0  0  0  0  0  0  0  0  0
   64.2252   31.6487   49.4706 H   0  0  0  0  0  0  0  0  0  0  0  0
   64.2703   33.2369   47.5498 H   0  0  0  0  0  0  0  0  0  0  0  0
   62.1742   33.7628   46.3142 H   0  0  0  0  0  0  0  0  0  0  0  0
   59.1661   34.4170   48.1190 H   0  0  0  0  0  0  0  0  0  0  0  0
   57.1118   35.0341   46.8452 H   0  0  0  0  0  0  0  0  0  0  0  0
   56.4887   33.7729   44.7852 H   0  0  0  0  0  0  0  0  0  0  0  0
   57.4521   32.3366   42.8925 H   0  0  0  0  0  0  0  0  0  0  0  0
   58.6700   31.0797   43.3155 H   0  0  0  0  0  0  0  0  0  0  0  0
   59.9663   31.2397   45.2870 H   0  0  0  0  0  0  0  0  0  0  0  0
   56.8390   28.6500   46.1400 H   0  0  0  0  0  0  0  0  0  0  0  0
   59.7381   26.4248   46.6388 H   0  0  0  0  0  0  0  0  0  0  0  0
   59.6956   23.9558   46.2912 H   0  0  0  0  0  0  0  0  0  0  0  0
   57.5618   22.8168   45.6739 H   0  0  0  0  0  0  0  0  0  0  0  0
   55.4619   24.1418   45.4352 H   0  0  0  0  0  0  0  0  0  0  0  0
   55.1500   27.6680   45.4200 H   0  0  0  0  0  0  0  0  0  0  0  0
  1  2  2  0
  2  3  1  0
  3  4  1  0
  4  5  2  0
  4  6  2  0
  4  7  1  0
  7  8  2  0
  8  9  1  0
  9 10  2  0
 10 11  1  0
 11 12  2  0
 12 13  1  0
 13 14  2  0
 14 15  1  0
 15 16  2  0
 16 17  1  0
 17 18  1  0
 18 19  1  0
 19 20  1  0
 20 21  2  0
 21 22  1  0
 22 23  1  0
 17 24  2  0
  2 25  1  0
 25 26  1  0
 26 27  2  0
 27 28  1  0
 28 29  2  0
 29 30  1  0
 30 31  2  0
 31 32  1  0
 12  7  1  0
 24 13  1  0
 31 26  1  0
 23 19  2  0
  8 33  1  0
  9 34  1  0
 10 35  1  0
 11 36  1  0
 14 37  1  0
 15 38  1  0
 16 39  1  0
 18 40  1  0
 18 41  1  0
 24 42  1  0
 25 43  1  0
 27 44  1  0
 28 45  1  0
 29 46  1  0
 30 47  1  0
 32 48  1  0
M  CHG  2   3  -1  22  -1
M  END
>  <UniqueID>  (5) 
4

>  <SMILES>  (5) 
O=C([N-]S(=O)(=O)c1ccccc1-c1cccc(Cc2nn[n-]n2)c1)Nc1ccccc1O

>  <Energy>  (5) 
102.98113262836665

>  <Genealogy>  (5) 
O=C([N-]S(=O)(=O)c1ccccc1-c1cccc(Cc2nn[n-]n2)c1)Nc1ccccc1O (protonated)
O=C([N-]S(=O)(=O)c1ccccc1-c1cccc(Cc2nn[n-]n2)c1)Nc1ccccc1O (3D coordinates assigned)
O=C([N-]S(=O)(=O)c1ccccc1-c1cccc(Cc2nn[n-]n2)c1)Nc1ccccc1O (optimized conformer: 102.98113262836665 kcal/mol)

>  <smiles>  (5) 
O=C(Nc1ccccc1O)NS(=O)(=O)c1ccccc1-c1cccc(Cc2nn[nH]n2)c1

>  <score_type>  (5) 
oracle

>  <origin>  (5) 
adg

>  <m_score__min__energy>  (5) 
-14.32

>  <m_primary>  (5) 
energy

$$$$
5:0
     RDKit          3D

 60 63  0  0  0  0  0  0  0  0999 V2000
   55.9026   23.1772   43.5944 H   0  0  0  0  0  0  0  0  0  0  0  0
   56.1560   23.8070   44.4600 C   0  0  0  0  0  0  0  0  0  0  0  0
   57.0520   24.8700   44.3100 C   0  0  0  0  0  0  0  0  0  0  0  0
   57.4932   25.0711   43.3226 H   0  0  0  0  0  0  0  0  0  0  0  0
   57.3990   25.6890   45.4060 C   0  0  0  0  0  0  0  0  0  0  0  0
   58.4420   26.7940   45.1900 C   0  0  0  0  0  0  0  0  0  0  0  0
   59.6910   26.1940   45.2780 F   0  0  0  0  0  0  0  0  0  0  0  0
   58.3350   27.8340   46.3450 C   0  0  0  0  0  0  0  0  0  0  0  0
   59.0319   27.5431   47.1448 H   0  0  0  0  0  0  0  0  0  0  0  0
   57.2911   27.8356   46.6919 H   0  0  0  0  0  0  0  0  0  0  0  0
   58.6720   29.2570   45.8980 C   0  0  0  0  0  0  0  0  0  0  0  0
   59.7116   29.2933   45.5405 H   0  0  0  0  0  0  0  0  0  0  0  0
   58.5538   29.9473   46.7462 H   0  0  0  0  0  0  0  0  0  0  0  0
   57.7640   29.6530   44.8100 N   0  0  0  0  0  0  0  0  0  0  0  0
   57.0700   30.9140   44.8460 C   0  0  0  0  0  0  0  0  0  0  0  0
   55.9000   30.9930   44.3810 O   0  0  0  0  0  0  0  0  0  0  0  0
   57.6960   32.1260   45.4010 C   0  0  0  0  0  0  0  0  0  0  0  0
   58.1990   33.1250   44.6450 N   0  0  0  0  0  0  0  0  0  0  0  0
   58.6910   34.0370   45.4710 N   0  0  0  0  0  0  0  0  0  0  0  0
   59.2870   35.2940   45.0290 C   0  0  0  0  0  0  0  0  0  0  0  0
   59.5713   35.8935   45.9064 H   0  0  0  0  0  0  0  0  0  0  0  0
   60.1810   35.0831   44.4238 H   0  0  0  0  0  0  0  0  0  0  0  0
   58.5579   35.8527   44.4238 H   0  0  0  0  0  0  0  0  0  0  0  0
   58.4980   33.6400   46.7430 C   0  0  0  0  0  0  0  0  0  0  0  0
   58.8770   34.3330   47.7800 N   0  0  0  0  0  0  0  0  0  0  0  0
   59.9540   34.0080   48.6760 C   0  0  0  0  0  0  0  0  0  0  0  0
   59.7550   34.1130   49.9170 O   0  0  0  0  0  0  0  0  0  0  0  0
   61.2540   33.4800   48.1910 C   0  0  0  0  0  0  0  0  0  0  0  0
   61.8470   34.0190   47.0380 C   0  0  0  0  0  0  0  0  0  0  0  0
   61.3415   34.8259   46.4872 H   0  0  0  0  0  0  0  0  0  0  0  0
   63.0730   33.5350   46.5900 C   0  0  0  0  0  0  0  0  0  0  0  0
   63.5436   33.9617   45.6920 H   0  0  0  0  0  0  0  0  0  0  0  0
   63.6980   32.5060   47.2890 C   0  0  0  0  0  0  0  0  0  0  0  0
   64.6669   32.1182   46.9414 H   0  0  0  0  0  0  0  0  0  0  0  0
   63.1160   31.9770   48.4010 N   0  0  0  0  0  0  0  0  0  0  0  0
   63.6210   31.2090   48.8920 H   0  0  0  0  0  0  0  0  0  0  0  0
   61.9150   32.4350   48.8690 C   0  0  0  0  0  0  0  0  0  0  0  0
   61.3300   31.8920   50.0250 O   0  0  0  0  0  0  0  0  0  0  0  0
   60.8430   30.5580   50.1370 C   0  0  0  0  0  0  0  0  0  0  0  0
   61.6585   29.8507   49.9258 H   0  0  0  0  0  0  0  0  0  0  0  0
   60.4668   30.3887   51.1567 H   0  0  0  0  0  0  0  0  0  0  0  0
   59.7160   30.3460   49.1380 C   0  0  0  0  0  0  0  0  0  0  0  0
   59.2320   29.0560   49.2400 F   0  0  0  0  0  0  0  0  0  0  0  0
   58.6930   31.2400   49.3910 F   0  0  0  0  0  0  0  0  0  0  0  0
   60.1880   30.5510   47.8550 F   0  0  0  0  0  0  0  0  0  0  0  0
   57.8840   32.4000   46.7440 C   0  0  0  0  0  0  0  0  0  0  0  0
   57.6099   31.7783   47.6091 H   0  0  0  0  0  0  0  0  0  0  0  0
   57.4400   28.6890   43.7490 C   0  0  0  0  0  0  0  0  0  0  0  0
   57.5371   29.1857   42.7724 H   0  0  0  0  0  0  0  0  0  0  0  0
   56.4107   28.3344   43.9062 H   0  0  0  0  0  0  0  0  0  0  0  0
   58.3830   27.4720   43.7880 C   0  0  0  0  0  0  0  0  0  0  0  0
   59.3958   27.8041   43.5160 H   0  0  0  0  0  0  0  0  0  0  0  0
   57.9911   26.7284   43.0784 H   0  0  0  0  0  0  0  0  0  0  0  0
   56.8150   25.4010   46.6600 C   0  0  0  0  0  0  0  0  0  0  0  0
   57.0734   26.0171   47.5338 H   0  0  0  0  0  0  0  0  0  0  0  0
   55.9130   24.3430   46.8040 C   0  0  0  0  0  0  0  0  0  0  0  0
   55.4616   24.1393   47.7862 H   0  0  0  0  0  0  0  0  0  0  0  0
   55.5810   23.5420   45.7070 C   0  0  0  0  0  0  0  0  0  0  0  0
   54.6630   22.4410   45.8630 C   0  0  0  0  0  0  0  0  0  0  0  0
   53.9260   21.5570   45.9920 N   0  0  0  0  0  0  0  0  0  0  0  0
  1  2  1  0
  2  3  2  0
  3  4  1  0
  3  5  1  0
  5  6  1  0
  6  7  1  0
  6  8  1  0
  8  9  1  0
  8 10  1  0
  8 11  1  0
 11 12  1  0
 11 13  1  0
 11 14  1  0
 14 15  1  0
 15 16  2  0
 15 17  1  0
 17 18  1  0
 18 19  1  0
 19 20  1  0
 20 21  1  0
 20 22  1  0
 20 23  1  0
 19 24  1  0
 24 25  2  0
 25 26  1  0
 26 27  2  0
 26 28  1  0
 28 29  2  0
 29 30  1  0
 29 31  1  0
 31 32  1  0
 31 33  2  0
 33 34  1  0
 33 35  1  0
 35 36  1  0
 35 37  2  0
 37 38  1  0
 38 39  1  0
 39 40  1  0
 39 41  1  0
 39 42  1  0
 42 43  1  0
 42 44  1  0
 42 45  1  0
 24 46  1  0
 46 47  1  0
 14 48  1  0
 48 49  1  0
 48 50  1  0
 48 51  1  0
 51 52  1  0
 51 53  1  0
  5 54  2  0
 54 55  1  0
 54 56  1  0
 56 57  1  0
 56 58  2  0
 58 59  1  0
 59 60  3  0
 58  2  1  0
 51  6  1  0
 46 17  2  0
 37 28  1  0
M  CHG  2  18  -1  35   1
M  END
>  <UniqueID>  (6) 
5

>  <SMILES>  (6) 
Cn1[n-]c(C(=O)N2CCC(F)(c3ccc(C#N)cc3)CC2)c/c1=N\C(=O)c1ccc[nH+]c1OCC(F)(F)F

>  <Energy>  (6) 
107.65721804442116

>  <Genealogy>  (6) 
Cn1[n-]c(C(=O)N2CCC(F)(c3ccc(C#N)cc3)CC2)cc1=NC(=O)c1ccc[nH+]c1OCC(F)(F)F (protonated)
Cn1[n-]c(C(=O)N2CCC(F)(c3ccc(C#N)cc3)CC2)c/c1=N\C(=O)c1ccc[nH+]c1OCC(F)(F)F (cis-trans isomerization)
Cn1[n-]c(C(=O)N2CCC(F)(c3ccc(C#N)cc3)CC2)c/c1=N\C(=O)c1ccc[nH+]c1OCC(F)(F)F (3D coordinates assigned)
Cn1[n-]c(C(=O)N2CCC(F)(c3ccc(C#N)cc3)CC2)c/c1=N\C(=O)c1ccc[nH+]c1OCC(F)(F)F (nonaromatic ring conformer: 107.65721804442116 kcal/mol)

>  <smiles>  (6) 
Cn1[nH]c(C(=O)N2CCC(F)(c3ccc(C#N)cc3)CC2)cc1=NC(=O)c1cccnc1OCC(F)(F)F

>  <score_type>  (6) 
oracle

>  <origin>  (6) 
adg

>  <m_score__min__energy>  (6) 
-7.7300000000000004

>  <m_primary>  (6) 
energy

$$$$
6:0
     RDKit          3D

 43 44  0  0  0  0  0  0  0  0999 V2000
   61.8743   32.3927   46.3295 H   0  0  0  0  0  0  0  0  0  0  0  0
   61.3950   31.8430   47.1530 C   0  0  0  0  0  0  0  0  0  0  0  0
   61.7410   31.8670   48.5070 C   0  0  0  0  0  0  0  0  0  0  0  0
   62.8460   32.6390   49.1100 C   0  0  0  0  0  0  0  0  0  0  0  0
   62.5740   33.5420   49.9470 O   0  0  0  0  0  0  0  0  0  0  0  0
   64.2150   32.3830   48.7530 N   0  0  0  0  0  0  0  0  0  0  0  0
   64.4340   31.7380   47.9620 H   0  0  0  0  0  0  0  0  0  0  0  0
   65.3310   33.0690   49.3990 C   0  0  0  0  0  0  0  0  0  0  0  0
   64.9547   33.9652   49.9140 H   0  0  0  0  0  0  0  0  0  0  0  0
   66.0657   33.3511   48.6305 H   0  0  0  0  0  0  0  0  0  0  0  0
   66.0090   32.1560   50.4140 C   0  0  0  0  0  0  0  0  0  0  0  0
   65.7604   32.4908   51.4319 H   0  0  0  0  0  0  0  0  0  0  0  0
   65.6569   31.1237   50.2713 H   0  0  0  0  0  0  0  0  0  0  0  0
   67.0990   32.1946   50.2713 H   0  0  0  0  0  0  0  0  0  0  0  0
   60.9220   31.0590   49.2250 N   0  0  0  0  0  0  0  0  0  0  0  0
   60.9490   30.8790   50.2530 H   0  0  0  0  0  0  0  0  0  0  0  0
   60.0670   30.5300   48.3350 C   0  0  0  0  0  0  0  0  0  0  0  0
   59.0320   29.6330   48.5740 C   0  0  0  0  0  0  0  0  0  0  0  0
   58.8217   29.2678   49.5901 H   0  0  0  0  0  0  0  0  0  0  0  0
   58.2840   29.2190   47.5080 N   0  0  0  0  0  0  0  0  0  0  0  0
   58.5200   29.6550   46.2270 C   0  0  0  0  0  0  0  0  0  0  0  0
   57.7900   29.2520   45.2280 N   0  0  0  0  0  0  0  0  0  0  0  0
   56.4970   29.7430   44.8410 C   0  0  0  0  0  0  0  0  0  0  0  0
   55.5220   28.9460   44.8360 O   0  0  0  0  0  0  0  0  0  0  0  0
   56.3000   31.1150   44.4750 N   0  0  0  0  0  0  0  0  0  0  0  0
   57.3880   32.0660   44.2730 C   0  0  0  0  0  0  0  0  0  0  0  0
   58.3479   31.5455   44.4064 H   0  0  0  0  0  0  0  0  0  0  0  0
   57.3051   32.4765   43.2559 H   0  0  0  0  0  0  0  0  0  0  0  0
   57.3070   33.2300   45.2730 C   0  0  0  0  0  0  0  0  0  0  0  0
   56.9063   34.1155   44.7579 H   0  0  0  0  0  0  0  0  0  0  0  0
   56.6505   32.9258   46.1015 H   0  0  0  0  0  0  0  0  0  0  0  0
   58.6370   33.5620   45.8350 N   0  0  0  0  0  0  0  0  0  0  0  0
   59.2420   34.7140   45.1440 C   0  0  0  0  0  0  0  0  0  0  0  0
   59.6187   35.4313   45.8880 H   0  0  0  0  0  0  0  0  0  0  0  0
   60.0747   34.3678   44.5141 H   0  0  0  0  0  0  0  0  0  0  0  0
   58.4843   35.2030   44.5141 H   0  0  0  0  0  0  0  0  0  0  0  0
   58.5090   33.8680   47.2700 C   0  0  0  0  0  0  0  0  0  0  0  0
   58.8671   33.0120   47.8608 H   0  0  0  0  0  0  0  0  0  0  0  0
   59.1107   34.7569   47.5105 H   0  0  0  0  0  0  0  0  0  0  0  0
   57.4536   34.0637   47.5105 H   0  0  0  0  0  0  0  0  0  0  0  0
   59.5690   30.5670   45.9810 C   0  0  0  0  0  0  0  0  0  0  0  0
   59.7814   30.9352   44.9664 H   0  0  0  0  0  0  0  0  0  0  0  0
   60.3230   30.9810   47.0740 C   0  0  0  0  0  0  0  0  0  0  0  0
  1  2  1  0
  2  3  2  0
  3  4  1  0
  4  5  2  0
  4  6  1  0
  6  7  1  0
  6  8  1  0
  8  9  1  0
  8 10  1  0
  8 11  1  0
 11 12  1  0
 11 13  1  0
 11 14  1  0
  3 15  1  0
 15 16  1  0
 15 17  1  0
 17 18  2  0
 18 19  1  0
 18 20  1  0
 20 21  1  0
 21 22  2  0
 22 23  1  0
 23 24  2  0
 23 25  1  0
 25 26  1  0
 26 27  1  0
 26 28  1  0
 26 29  1  0
 29 30  1  0
 29 31  1  0
 29 32  1  0
 32 33  1  0
 33 34  1  0
 33 35  1  0
 33 36  1  0
 32 37  1  0
 37 38  1  0
 37 39  1  0
 37 40  1  0
 21 41  1  0
 41 42  1  0
 41 43  2  0
 43  2  1  0
 43 17  1  0
M  CHG  2  20  -1  25  -1
M  END
>  <UniqueID>  (7) 
6

>  <SMILES>  (7) 
CCNC(=O)c1cc2c/c(=N/C(=O)[N-]CCN(C)C)[n-]cc2[nH]1

>  <Energy>  (7) 
71.91163568955727

>  <Genealogy>  (7) 
CCNC(=O)c1cc2cc(=NC(=O)[N-]CCN(C)C)[n-]cc2[nH]1 (protonated)
CCNC(=O)c1cc2c/c(=N/C(=O)[N-]CCN(C)C)[n-]cc2[nH]1 (cis-trans isomerization)
CCNC(=O)c1cc2c/c(=N/C(=O)[N-]CCN(C)C)[n-]cc2[nH]1 (3D coordinates assigned)
CCNC(=O)c1cc2c/c(=N/C(=O)[N-]CCN(C)C)[n-]cc2[nH]1 (optimized conformer: 71.91163568955727 kcal/mol)

>  <smiles>  (7) 
CCNC(=O)c1cc2cc(=NC(=O)NCCN(C)C)[nH]cc2[nH]1

>  <score_type>  (7) 
oracle

>  <origin>  (7) 
adg

>  <m_score__min__energy>  (7) 
-9

>  <m_primary>  (7) 
energy

$$$$
7:0
     RDKit          3D

 55 58  0  0  0  0  0  0  0  0999 V2000
   58.9970   34.5680   44.8700 C   0  0  0  0  0  0  0  0  0  0  0  0
   58.3340   33.2460   44.6220 C   0  0  0  0  0  0  0  0  0  0  0  0
   58.1240   32.7970   43.3100 C   0  0  0  0  0  0  0  0  0  0  0  0
   57.5370   31.5500   43.0770 C   0  0  0  0  0  0  0  0  0  0  0  0
   57.1700   30.7260   44.1550 C   0  0  0  0  0  0  0  0  0  0  0  0
   56.5800   29.3640   43.8970 C   0  0  0  0  0  0  0  0  0  0  0  0
   56.1040   28.7860   45.1480 N   0  0  0  0  0  0  0  0  0  0  0  0
   56.5100   27.4970   45.6170 C   0  0  0  0  0  0  0  0  0  0  0  0
   55.6590   26.6790   46.0590 O   0  0  0  0  0  0  0  0  0  0  0  0
   57.9660   27.1690   45.6900 C   0  0  0  0  0  0  0  0  0  0  0  0
   58.7110   28.3710   46.2030 C   0  0  0  0  0  0  0  0  0  0  0  0
   59.7050   28.9730   45.4180 C   0  0  0  0  0  0  0  0  0  0  0  0
   60.4710   30.0230   45.9320 C   0  0  0  0  0  0  0  0  0  0  0  0
   60.2650   30.4760   47.2420 C   0  0  0  0  0  0  0  0  0  0  0  0
   61.0570   31.5550   47.7680 N   0  0  0  0  0  0  0  0  0  0  0  0
   62.3840   31.7530   47.6540 C   0  0  0  0  0  0  0  0  0  0  0  0
   63.2720   30.9380   46.9520 O   0  0  0  0  0  0  0  0  0  0  0  0
   62.7210   32.9100   48.3220 C   0  0  0  0  0  0  0  0  0  0  0  0
   64.0980   33.4680   48.4920 C   0  0  0  0  0  0  0  0  0  0  0  0
   64.8380   32.7000   49.5500 C   0  0  0  0  0  0  0  0  0  0  0  0
   66.2000   32.9490   49.7860 C   0  0  0  0  0  0  0  0  0  0  0  0
   66.8930   32.2140   50.7540 C   0  0  0  0  0  0  0  0  0  0  0  0
   66.2340   31.2230   51.4870 C   0  0  0  0  0  0  0  0  0  0  0  0
   64.8830   30.9600   51.2480 C   0  0  0  0  0  0  0  0  0  0  0  0
   64.1870   31.6910   50.2800 C   0  0  0  0  0  0  0  0  0  0  0  0
   61.6140   33.4500   48.8740 N   0  0  0  0  0  0  0  0  0  0  0  0
   60.6290   32.6030   48.5070 C   0  0  0  0  0  0  0  0  0  0  0  0
   59.4280   32.7660   48.8520 O   0  0  0  0  0  0  0  0  0  0  0  0
   59.2650   29.8800   48.0250 C   0  0  0  0  0  0  0  0  0  0  0  0
   58.5000   28.8270   47.5140 C   0  0  0  0  0  0  0  0  0  0  0  0
   57.3980   31.1690   45.4670 C   0  0  0  0  0  0  0  0  0  0  0  0
   57.9810   32.4190   45.6990 C   0  0  0  0  0  0  0  0  0  0  0  0
   59.0822   34.7379   45.9534 H   0  0  0  0  0  0  0  0  0  0  0  0
   60.0004   34.5653   44.4192 H   0  0  0  0  0  0  0  0  0  0  0  0
   58.3947   35.3705   44.4192 H   0  0  0  0  0  0  0  0  0  0  0  0
   58.4226   33.4290   42.4606 H   0  0  0  0  0  0  0  0  0  0  0  0
   57.3614   31.2119   42.0451 H   0  0  0  0  0  0  0  0  0  0  0  0
   55.7385   29.4578   43.1947 H   0  0  0  0  0  0  0  0  0  0  0  0
   57.3521   28.7099   43.4657 H   0  0  0  0  0  0  0  0  0  0  0  0
   58.1196   26.3203   46.3727 H   0  0  0  0  0  0  0  0  0  0  0  0
   58.3377   26.8986   44.6906 H   0  0  0  0  0  0  0  0  0  0  0  0
   59.8827   28.6170   44.3925 H   0  0  0  0  0  0  0  0  0  0  0  0
   61.2403   30.4967   45.3044 H   0  0  0  0  0  0  0  0  0  0  0  0
   64.2480   31.1790   46.8420 H   0  0  0  0  0  0  0  0  0  0  0  0
   64.6420   33.3914   47.5390 H   0  0  0  0  0  0  0  0  0  0  0  0
   64.0246   34.5224   48.7968 H   0  0  0  0  0  0  0  0  0  0  0  0
   66.7236   33.7245   49.2078 H   0  0  0  0  0  0  0  0  0  0  0  0
   67.9584   32.4164   50.9385 H   0  0  0  0  0  0  0  0  0  0  0  0
   66.7790   30.6503   52.2518 H   0  0  0  0  0  0  0  0  0  0  0  0
   64.3660   30.1769   51.8220 H   0  0  0  0  0  0  0  0  0  0  0  0
   63.1254   31.4752   50.0892 H   0  0  0  0  0  0  0  0  0  0  0  0
   59.0817   30.2432   49.0470 H   0  0  0  0  0  0  0  0  0  0  0  0
   57.7301   28.3542   48.1414 H   0  0  0  0  0  0  0  0  0  0  0  0
   57.1168   30.5300   46.3171 H   0  0  0  0  0  0  0  0  0  0  0  0
   58.1635   32.7552   46.7303 H   0  0  0  0  0  0  0  0  0  0  0  0
  1  2  1  0
  2  3  2  0
  3  4  1  0
  4  5  2  0
  5  6  1  0
  6  7  1  0
  7  8  1  0
  8  9  2  0
  8 10  1  0
 10 11  1  0
 11 12  2  0
 12 13  1  0
 13 14  2  0
 14 15  1  0
 15 16  1  0
 16 17  1  0
 16 18  2  0
 18 19  1  0
 19 20  1  0
 20 21  2  0
 21 22  1  0
 22 23  2  0
 23 24  1  0
 24 25  2  0
 18 26  1  0
 26 27  1  0
 27 28  2  0
 14 29  1  0
 29 30  2  0
  5 31  1  0
 31 32  2  0
 32  2  1  0
 30 11  1  0
 27 15  1  0
 25 20  1  0
  1 33  1  0
  1 34  1  0
  1 35  1  0
  3 36  1  0
  4 37  1  0
  6 38  1  0
  6 39  1  0
 10 40  1  0
 10 41  1  0
 12 42  1  0
 13 43  1  0
 17 44  1  0
 19 45  1  0
 19 46  1  0
 21 47  1  0
 22 48  1  0
 23 49  1  0
 24 50  1  0
 25 51  1  0
 29 52  1  0
 30 53  1  0
 31 54  1  0
 32 55  1  0
M  CHG  2   7  -1  26  -1
M  END
>  <UniqueID>  (8) 
7

>  <SMILES>  (8) 
Cc1ccc(C[N-]C(=O)Cc2ccc(-n3c(O)c(Cc4ccccc4)[n-]c3=O)cc2)cc1

>  <Energy>  (8) 
87.64969895893906

>  <Genealogy>  (8) 
Cc1ccc(C[N-]C(=O)Cc2ccc(-n3c(O)c(Cc4ccccc4)[n-]c3=O)cc2)cc1 (protonated)
Cc1ccc(C[N-]C(=O)Cc2ccc(-n3c(O)c(Cc4ccccc4)[n-]c3=O)cc2)cc1 (3D coordinates assigned)
Cc1ccc(C[N-]C(=O)Cc2ccc(-n3c(O)c(Cc4ccccc4)[n-]c3=O)cc2)cc1 (optimized conformer: 87.64969895893906 kcal/mol)

>  <smiles>  (8) 
Cc1ccc(CNC(=O)Cc2ccc(-n3c(O)c(Cc4ccccc4)[nH]c3=O)cc2)cc1

>  <score_type>  (8) 
oracle

>  <origin>  (8) 
adg

>  <m_score__min__energy>  (8) 
-12.66

>  <m_primary>  (8) 
energy

$$$$
8:0
     RDKit          3D

 56 56  0  0  0  0  0  0  0  0999 V2000
   54.7490   24.4530   47.2070 H   0  0  0  0  0  0  0  0  0  0  0  0
   55.7510   24.3280   47.2070 O   0  0  0  0  0  0  0  0  0  0  0  0
   56.6310   25.3180   46.7570 C   0  0  0  0  0  0  0  0  0  0  0  0
   58.0110   25.1220   46.8970 C   0  0  0  0  0  0  0  0  0  0  0  0
   58.3895   24.1965   47.3554 H   0  0  0  0  0  0  0  0  0  0  0  0
   58.9110   26.1010   46.4550 C   0  0  0  0  0  0  0  0  0  0  0  0
   59.9932   25.9361   46.5632 H   0  0  0  0  0  0  0  0  0  0  0  0
   58.4430   27.2890   45.8760 C   0  0  0  0  0  0  0  0  0  0  0  0
   59.4320   28.2990   45.4170 C   0  0  0  0  0  0  0  0  0  0  0  0
   60.1725   27.9683   44.6738 H   0  0  0  0  0  0  0  0  0  0  0  0
   59.5080   29.5800   45.8240 C   0  0  0  0  0  0  0  0  0  0  0  0
   58.8026   30.2920   45.3708 H   0  0  0  0  0  0  0  0  0  0  0  0
   60.4550   30.1160   46.8260 C   0  0  0  0  0  0  0  0  0  0  0  0
   61.4850   30.7220   46.4120 O   0  0  0  0  0  0  0  0  0  0  0  0
   60.3140   29.8680   48.2420 N   0  0  0  0  0  0  0  0  0  0  0  0
   60.6840   28.6240   48.8970 C   0  0  0  0  0  0  0  0  0  0  0  0
   61.5856   28.2183   48.4148 H   0  0  0  0  0  0  0  0  0  0  0  0
   59.8457   27.9178   48.8052 H   0  0  0  0  0  0  0  0  0  0  0  0
   60.9720   28.8500   50.3930 C   0  0  0  0  0  0  0  0  0  0  0  0
   61.4862   27.9604   50.7856 H   0  0  0  0  0  0  0  0  0  0  0  0
   60.0031   29.0262   50.8832 H   0  0  0  0  0  0  0  0  0  0  0  0
   61.8510   30.0850   50.6770 C   0  0  0  0  0  0  0  0  0  0  0  0
   62.7494   30.0386   50.0439 H   0  0  0  0  0  0  0  0  0  0  0  0
   62.1248   30.0786   51.7424 H   0  0  0  0  0  0  0  0  0  0  0  0
   61.1270   31.3340   50.3910 N   0  0  0  0  0  0  0  0  0  0  0  0
   61.2000   31.5360   49.3660 H   0  0  0  0  0  0  0  0  0  0  0  0
   59.7160   31.2810   50.7680 C   0  0  0  0  0  0  0  0  0  0  0  0
   59.6361   31.4182   51.8565 H   0  0  0  0  0  0  0  0  0  0  0  0
   59.3222   30.3030   50.4543 H   0  0  0  0  0  0  0  0  0  0  0  0
   58.8790   32.3690   50.0700 C   0  0  0  0  0  0  0  0  0  0  0  0
   57.8931   32.4314   50.5539 H   0  0  0  0  0  0  0  0  0  0  0  0
   58.7685   32.1020   49.0086 H   0  0  0  0  0  0  0  0  0  0  0  0
   59.5740   33.7370   50.1640 C   0  0  0  0  0  0  0  0  0  0  0  0
   60.0567   33.8218   51.1488 H   0  0  0  0  0  0  0  0  0  0  0  0
   58.8083   34.5143   50.0242 H   0  0  0  0  0  0  0  0  0  0  0  0
   60.6420   33.9250   49.0710 C   0  0  0  0  0  0  0  0  0  0  0  0
   61.6353   33.7794   49.5206 H   0  0  0  0  0  0  0  0  0  0  0  0
   60.5255   34.9399   48.6631 H   0  0  0  0  0  0  0  0  0  0  0  0
   60.4850   32.9720   47.9510 N   0  0  0  0  0  0  0  0  0  0  0  0
   60.8780   32.0300   48.1970 H   0  0  0  0  0  0  0  0  0  0  0  0
   61.1500   33.4370   46.7290 C   0  0  0  0  0  0  0  0  0  0  0  0
   60.6564   34.3523   46.3704 H   0  0  0  0  0  0  0  0  0  0  0  0
   61.0837   32.6540   45.9592 H   0  0  0  0  0  0  0  0  0  0  0  0
   62.6280   33.7360   47.0220 C   0  0  0  0  0  0  0  0  0  0  0  0
   62.6890   34.4349   47.8693 H   0  0  0  0  0  0  0  0  0  0  0  0
   63.0750   34.1731   46.1169 H   0  0  0  0  0  0  0  0  0  0  0  0
   63.4050   32.4650   47.3710 C   0  0  0  0  0  0  0  0  0  0  0  0
   64.4540   32.7248   47.5763 H   0  0  0  0  0  0  0  0  0  0  0  0
   63.3513   31.7662   46.5232 H   0  0  0  0  0  0  0  0  0  0  0  0
   62.8250   31.8300   48.5510 N   0  0  0  0  0  0  0  0  0  0  0  0
   62.0170   31.2400   48.2360 H   0  0  0  0  0  0  0  0  0  0  0  0
   62.4010   32.5860   49.1420 H   0  0  0  0  0  0  0  0  0  0  0  0
   57.0540   27.4750   45.7200 C   0  0  0  0  0  0  0  0  0  0  0  0
   56.6763   28.3937   45.2475 H   0  0  0  0  0  0  0  0  0  0  0  0
   56.1510   26.4990   46.1620 C   0  0  0  0  0  0  0  0  0  0  0  0
   54.7810   26.7070   46.0170 O   0  0  0  0  0  0  0  0  0  0  0  0
  1  2  1  0
  2  3  1  0
  3  4  2  0
  4  5  1  0
  4  6  1  0
  6  7  1  0
  6  8  2  0
  8  9  1  0
  9 10  1  0
  9 11  2  0
 11 12  1  0
 11 13  1  0
 13 14  2  0
 13 15  1  0
 15 16  1  0
 16 17  1  0
 16 18  1  0
 16 19  1  0
 19 20  1  0
 19 21  1  0
 19 22  1  0
 22 23  1  0
 22 24  1  0
 22 25  1  0
 25 26  1  0
 25 27  1  0
 27 28  1  0
 27 29  1  0
 27 30  1  0
 30 31  1  0
 30 32  1  0
 30 33  1  0
 33 34  1  0
 33 35  1  0
 33 36  1  0
 36 37  1  0
 36 38  1  0
 36 39  1  0
 39 40  1  0
 39 41  1  0
 41 42  1  0
 41 43  1  0
 41 44  1  0
 44 45  1  0
 44 46  1  0
 44 47  1  0
 47 48  1  0
 47 49  1  0
 47 50  1  0
 50 51  1  0
 50 52  1  0
  8 53  1  0
 53 54  1  0
 53 55  2  0
 55 56  1  0
 55  3  1  0
M  CHG  2  15  -1  56  -1
M  END
>  <UniqueID>  (9) 
8

>  <SMILES>  (9) 
NCCCNCCCCNCCC[N-]C(=O)/C=C\c1ccc(O)c([O-])c1

>  <Energy>  (9) 
55.87891412892411

>  <Genealogy>  (9) 
NCCCNCCCCNCCC[N-]C(=O)C=Cc1ccc(O)c([O-])c1 (protonated)
NCCCNCCCCNCCC[N-]C(=O)/C=C\c1ccc(O)c([O-])c1 (cis-trans isomerization)
NCCCNCCCCNCCC[N-]C(=O)/C=C\c1ccc(O)c([O-])c1 (3D coordinates assigned)
NCCCNCCCCNCCC[N-]C(=O)/C=C\c1ccc(O)c([O-])c1 (optimized conformer: 55.87891412892411 kcal/mol)

>  <smiles>  (9) 
NCCCNCCCCNCCCNC(=O)C=Cc1ccc(O)c(O)c1

>  <score_type>  (9) 
oracle

>  <origin>  (9) 
adg

>  <m_score__min__energy>  (9) 
-10.390000000000001

>  <m_primary>  (9) 
energy

$$$$
9:0
     RDKit          3D

 36 38  0  0  0  0  0  0  0  0999 V2000
   55.9110   29.8140   42.7830 O   0  0  0  0  0  0  0  0  0  0  0  0
   56.3470   29.9320   43.9620 C   0  0  0  0  0  0  0  0  0  0  0  0
   56.0040   28.9640   44.9690 N   0  0  0  0  0  0  0  0  0  0  0  0
   56.7640   28.0210   45.4480 C   0  0  0  0  0  0  0  0  0  0  0  0
   58.1240   28.1350   45.4410 N   0  0  0  0  0  0  0  0  0  0  0  0
   58.9330   27.1580   45.9310 C   0  0  0  0  0  0  0  0  0  0  0  0
   58.3780   25.9920   46.4610 C   0  0  0  0  0  0  0  0  0  0  0  0
   56.9910   25.8470   46.4820 C   0  0  0  0  0  0  0  0  0  0  0  0
   56.1750   26.8610   45.9760 C   0  0  0  0  0  0  0  0  0  0  0  0
   54.7930   26.7140   45.9980 O   0  0  0  0  0  0  0  0  0  0  0  0
   57.2150   31.0820   44.3120 C   0  0  0  0  0  0  0  0  0  0  0  0
   57.5740   32.0290   43.3360 C   0  0  0  0  0  0  0  0  0  0  0  0
   58.3810   33.1180   43.6710 C   0  0  0  0  0  0  0  0  0  0  0  0
   58.8320   33.2810   44.9810 C   0  0  0  0  0  0  0  0  0  0  0  0
   58.4830   32.3560   45.9760 C   0  0  0  0  0  0  0  0  0  0  0  0
   58.9520   32.5630   47.3200 N   0  0  0  0  0  0  0  0  0  0  0  0
   59.7550   34.0060   47.8550 S   0  0  0  0  0  0  0  0  0  0  0  0
   59.3330   35.1590   46.9870 O   0  0  0  0  0  0  0  0  0  0  0  0
   59.3690   34.2940   49.2780 O   0  0  0  0  0  0  0  0  0  0  0  0
   61.4940   33.7910   47.7730 C   0  0  0  0  0  0  0  0  0  0  0  0
   62.3230   33.5000   48.8450 C   0  0  0  0  0  0  0  0  0  0  0  0
   63.6610   33.3330   48.4700 C   0  0  0  0  0  0  0  0  0  0  0  0
   63.8810   33.4900   47.1060 C   0  0  0  0  0  0  0  0  0  0  0  0
   62.4100   33.8360   46.3650 S   0  0  0  0  0  0  0  0  0  0  0  0
   57.6840   31.2490   45.6280 C   0  0  0  0  0  0  0  0  0  0  0  0
   60.0253   27.2866   45.9097 H   0  0  0  0  0  0  0  0  0  0  0  0
   59.0268   25.1970   46.8573 H   0  0  0  0  0  0  0  0  0  0  0  0
   56.5398   24.9338   46.8972 H   0  0  0  0  0  0  0  0  0  0  0  0
   57.2168   31.9109   42.3023 H   0  0  0  0  0  0  0  0  0  0  0  0
   58.6621   33.8499   42.8994 H   0  0  0  0  0  0  0  0  0  0  0  0
   59.4668   34.1424   45.2359 H   0  0  0  0  0  0  0  0  0  0  0  0
   58.8870   31.7790   48.0060 H   0  0  0  0  0  0  0  0  0  0  0  0
   61.9667   33.4098   49.8818 H   0  0  0  0  0  0  0  0  0  0  0  0
   64.4625   33.0997   49.1863 H   0  0  0  0  0  0  0  0  0  0  0  0
   64.8524   33.4028   46.5972 H   0  0  0  0  0  0  0  0  0  0  0  0
   57.4233   30.5053   46.3954 H   0  0  0  0  0  0  0  0  0  0  0  0
  1  2  2  0
  2  3  1  0
  3  4  2  3
  4  5  1  0
  5  6  1  0
  6  7  2  0
  7  8  1  0
  8  9  2  0
  9 10  1  0
  2 11  1  0
 11 12  2  0
 12 13  1  0
 13 14  2  0
 14 15  1  0
 15 16  1  0
 16 17  1  0
 17 18  2  0
 17 19  2  0
 17 20  1  0
 20 21  2  0
 21 22  1  0
 22 23  2  0
 23 24  1  0
 15 25  2  0
  9  4  1  0
 25 11  1  0
 24 20  1  0
  6 26  1  0
  7 27  1  0
  8 28  1  0
 12 29  1  0
 13 30  1  0
 14 31  1  0
 16 32  1  0
 21 33  1  0
 22 34  1  0
 23 35  1  0
 25 36  1  0
M  CHG  2   5  -1  10  -1
M  END
>  <UniqueID>  (10) 
9

>  <SMILES>  (10) 
O=C(N=c1[n-]cccc1[O-])c1cccc(NS(=O)(=O)c2cccs2)c1

>  <Energy>  (10) 
71.04319165093554

>  <Genealogy>  (10) 
O=C(N=c1[n-]cccc1[O-])c1cccc(NS(=O)(=O)c2cccs2)c1 (protonated)
O=C(N=c1[n-]cccc1[O-])c1cccc(NS(=O)(=O)c2cccs2)c1 (3D coordinates assigned)
O=C(N=c1[n-]cccc1[O-])c1cccc(NS(=O)(=O)c2cccs2)c1 (optimized conformer: 71.04319165093554 kcal/mol)

>  <smiles>  (10) 
O=C(N=c1[nH]cccc1O)c1cccc(NS(=O)(=O)c2cccs2)c1

>  <score_type>  (10) 
oracle

>  <origin>  (10) 
adg

>  <m_score__min__energy>  (10) 
-14.279999999999999

>  <m_primary>  (10) 
energy

$$$$
10:0
     RDKit          3D

 43 45  0  0  0  0  0  0  0  0999 V2000
   60.7440   29.0830   46.8190 O   0  0  0  0  0  0  0  0  0  0  0  0
   59.5300   29.3600   46.6150 C   0  0  0  0  0  0  0  0  0  0  0  0
   58.5930   28.3260   46.2750 N   0  0  0  0  0  0  0  0  0  0  0  0
   58.9570   26.9470   46.0810 C   0  0  0  0  0  0  0  0  0  0  0  0
   60.1730   26.6200   46.0160 O   0  0  0  0  0  0  0  0  0  0  0  0
   57.9190   25.8990   45.9260 C   0  0  0  0  0  0  0  0  0  0  0  0
   58.2620   24.5810   45.5710 C   0  0  0  0  0  0  0  0  0  0  0  0
   57.2700   23.6070   45.4230 C   0  0  0  0  0  0  0  0  0  0  0  0
   55.9270   23.9360   45.6210 C   0  0  0  0  0  0  0  0  0  0  0  0
   55.5740   25.2440   45.9620 C   0  0  0  0  0  0  0  0  0  0  0  0
   56.5610   26.2230   46.1110 C   0  0  0  0  0  0  0  0  0  0  0  0
   59.0740   30.7150   46.7430 N   0  0  0  0  0  0  0  0  0  0  0  0
   59.9720   31.7970   47.0280 C   0  0  0  0  0  0  0  0  0  0  0  0
   61.0050   31.5830   47.9520 C   0  0  0  0  0  0  0  0  0  0  0  0
   61.9480   32.5810   48.2040 C   0  0  0  0  0  0  0  0  0  0  0  0
   61.8640   33.8040   47.5380 C   0  0  0  0  0  0  0  0  0  0  0  0
   60.8270   34.0420   46.6350 C   0  0  0  0  0  0  0  0  0  0  0  0
   59.8550   33.0540   46.3810 C   0  0  0  0  0  0  0  0  0  0  0  0
   58.7120   33.3770   45.4940 C   0  0  0  0  0  0  0  0  0  0  0  0
   58.8200   34.3050   44.6460 O   0  0  0  0  0  0  0  0  0  0  0  0
   57.5520   32.5310   45.4880 N   0  0  0  0  0  0  0  0  0  0  0  0
   57.2250   31.5620   44.6770 C   0  0  0  0  0  0  0  0  0  0  0  0
   56.6710   30.4450   45.2270 N   0  0  0  0  0  0  0  0  0  0  0  0
   56.3010   29.3660   44.4900 C   0  0  0  0  0  0  0  0  0  0  0  0
   56.4810   29.3710   43.1100 C   0  0  0  0  0  0  0  0  0  0  0  0
   57.0170   30.5020   42.4980 C   0  0  0  0  0  0  0  0  0  0  0  0
   57.3770   31.6190   43.2650 C   0  0  0  0  0  0  0  0  0  0  0  0
   57.8250   32.7660   42.6130 O   0  0  0  0  0  0  0  0  0  0  0  0
   57.6020   28.6130   46.1150 H   0  0  0  0  0  0  0  0  0  0  0  0
   59.3171   24.3156   45.4090 H   0  0  0  0  0  0  0  0  0  0  0  0
   57.5480   22.5784   45.1498 H   0  0  0  0  0  0  0  0  0  0  0  0
   55.1488   23.1667   45.5086 H   0  0  0  0  0  0  0  0  0  0  0  0
   54.5161   25.5045   46.1138 H   0  0  0  0  0  0  0  0  0  0  0  0
   56.2752   27.2521   46.3742 H   0  0  0  0  0  0  0  0  0  0  0  0
   58.0480   30.8890   46.8280 H   0  0  0  0  0  0  0  0  0  0  0  0
   61.0727   30.6216   48.4822 H   0  0  0  0  0  0  0  0  0  0  0  0
   62.7572   32.4031   48.9276 H   0  0  0  0  0  0  0  0  0  0  0  0
   62.6176   34.5832   47.7253 H   0  0  0  0  0  0  0  0  0  0  0  0
   60.7678   35.0103   46.1165 H   0  0  0  0  0  0  0  0  0  0  0  0
   55.8590   28.4880   44.9838 H   0  0  0  0  0  0  0  0  0  0  0  0
   56.2033   28.4922   42.5095 H   0  0  0  0  0  0  0  0  0  0  0  0
   57.1585   30.5187   41.4073 H   0  0  0  0  0  0  0  0  0  0  0  0
   58.1760   33.5680   43.1250 H   0  0  0  0  0  0  0  0  0  0  0  0
  1  2  2  0
  2  3  1  0
  3  4  1  0
  4  5  2  0
  4  6  1  0
  6  7  2  0
  7  8  1  0
  8  9  2  0
  9 10  1  0
 10 11  2  0
  2 12  1  0
 12 13  1  0
 13 14  2  0
 14 15  1  0
 15 16  2  0
 16 17  1  0
 17 18  2  0
 18 19  1  0
 19 20  2  0
 19 21  1  0
 21 22  2  3
 22 23  1  0
 23 24  1  0
 24 25  2  0
 25 26  1  0
 26 27  2  0
 27 28  1  0
 11  6  1  0
 18 13  1  0
 27 22  1  0
  3 29  1  0
  7 30  1  0
  8 31  1  0
  9 32  1  0
 10 33  1  0
 11 34  1  0
 12 35  1  0
 14 36  1  0
 15 37  1  0
 16 38  1  0
 17 39  1  0
 24 40  1  0
 25 41  1  0
 26 42  1  0
 28 43  1  0
M  CHG  1  23  -1
M  END
>  <UniqueID>  (11) 
10

>  <SMILES>  (11) 
O=C(NC(=O)c1ccccc1)Nc1ccccc1C(=O)N=c1[n-]cccc1O

>  <Energy>  (11) 
68.72864950420137

>  <Genealogy>  (11) 
O=C(NC(=O)c1ccccc1)Nc1ccccc1C(=O)N=c1[n-]cccc1O (protonated)
O=C(NC(=O)c1ccccc1)Nc1ccccc1C(=O)N=c1[n-]cccc1O (3D coordinates assigned)
O=C(NC(=O)c1ccccc1)Nc1ccccc1C(=O)N=c1[n-]cccc1O (optimized conformer: 68.72864950420137 kcal/mol)

>  <smiles>  (11) 
O=C(NC(=O)c1ccccc1)Nc1ccccc1C(=O)N=c1[nH]cccc1O

>  <score_type>  (11) 
oracle

>  <origin>  (11) 
adg

>  <m_score__min__energy>  (11) 
-10.699999999999999

>  <m_primary>  (11) 
energy

$$$$
11:0
     RDKit          3D

 49 52  0  0  0  0  0  0  0  0999 V2000
   58.1350   35.3360   51.7720 H   0  0  0  0  0  0  0  0  0  0  0  0
   58.4140   34.5290   52.3740 N   0  0  0  0  0  0  0  0  0  0  0  0
   58.1970   33.3060   52.0100 C   0  0  0  0  0  0  0  0  0  0  0  0
   57.0790   32.6590   52.4440 N   0  0  0  0  0  0  0  0  0  0  0  0
   56.8060   31.3790   52.0850 C   0  0  0  0  0  0  0  0  0  0  0  0
   55.8917   30.8892   52.4513 H   0  0  0  0  0  0  0  0  0  0  0  0
   57.6830   30.6830   51.2520 C   0  0  0  0  0  0  0  0  0  0  0  0
   57.4586   29.6487   50.9523 H   0  0  0  0  0  0  0  0  0  0  0  0
   58.8540   31.3120   50.7990 C   0  0  0  0  0  0  0  0  0  0  0  0
   59.7560   30.6560   49.9450 O   0  0  0  0  0  0  0  0  0  0  0  0
   59.4490   30.1450   48.6760 C   0  0  0  0  0  0  0  0  0  0  0  0
   59.4040   31.0260   47.5930 C   0  0  0  0  0  0  0  0  0  0  0  0
   59.6057   32.0958   47.7508 H   0  0  0  0  0  0  0  0  0  0  0  0
   59.1050   30.5590   46.3120 C   0  0  0  0  0  0  0  0  0  0  0  0
   59.0591   31.2652   45.4699 H   0  0  0  0  0  0  0  0  0  0  0  0
   58.8620   29.1910   46.0910 C   0  0  0  0  0  0  0  0  0  0  0  0
   58.5140   28.7000   44.8220 O   0  0  0  0  0  0  0  0  0  0  0  0
   57.6770   29.3630   43.8800 C   0  0  0  0  0  0  0  0  0  0  0  0
   58.2087   30.2285   43.4579 H   0  0  0  0  0  0  0  0  0  0  0  0
   57.4115   28.6731   43.0654 H   0  0  0  0  0  0  0  0  0  0  0  0
   56.4400   29.8250   44.5770 C   0  0  0  0  0  0  0  0  0  0  0  0
   55.5440   28.9930   44.8860 O   0  0  0  0  0  0  0  0  0  0  0  0
   56.2660   31.2160   44.8630 N   0  0  0  0  0  0  0  0  0  0  0  0
   57.2480   32.2260   44.4980 C   0  0  0  0  0  0  0  0  0  0  0  0
   57.6768   32.6670   45.4100 H   0  0  0  0  0  0  0  0  0  0  0  0
   58.0487   31.7611   43.9041 H   0  0  0  0  0  0  0  0  0  0  0  0
   56.7608   33.0133   43.9041 H   0  0  0  0  0  0  0  0  0  0  0  0
   58.9490   28.2860   47.1720 C   0  0  0  0  0  0  0  0  0  0  0  0
   58.7140   26.8370   46.9740 C   0  0  0  0  0  0  0  0  0  0  0  0
   58.5980   26.0780   47.9740 O   0  0  0  0  0  0  0  0  0  0  0  0
   58.6580   26.2830   45.6510 N   0  0  0  0  0  0  0  0  0  0  0  0
   59.3060   26.6770   44.9320 H   0  0  0  0  0  0  0  0  0  0  0  0
   57.7200   25.2710   45.2450 C   0  0  0  0  0  0  0  0  0  0  0  0
   56.3700   25.3690   45.6770 C   0  0  0  0  0  0  0  0  0  0  0  0
   56.0538   26.2348   46.2773 H   0  0  0  0  0  0  0  0  0  0  0  0
   55.4320   24.3730   45.3470 C   0  0  0  0  0  0  0  0  0  0  0  0
   54.3837   24.4489   45.6714 H   0  0  0  0  0  0  0  0  0  0  0  0
   55.8760   23.2900   44.5970 C   0  0  0  0  0  0  0  0  0  0  0  0
   55.1700   22.2230   44.1870 N   0  0  0  0  0  0  0  0  0  0  0  0
   56.0070   21.4320   43.5190 N   0  0  0  0  0  0  0  0  0  0  0  0
   57.2390   21.9940   43.5060 C   0  0  0  0  0  0  0  0  0  0  0  0
   58.1368   21.5715   43.0311 H   0  0  0  0  0  0  0  0  0  0  0  0
   57.1720   23.1830   44.1890 C   0  0  0  0  0  0  0  0  0  0  0  0
   58.1310   24.1440   44.4920 C   0  0  0  0  0  0  0  0  0  0  0  0
   59.1732   24.0324   44.1581 H   0  0  0  0  0  0  0  0  0  0  0  0
   59.2360   28.7740   48.4580 C   0  0  0  0  0  0  0  0  0  0  0  0
   59.2946   28.0737   49.3043 H   0  0  0  0  0  0  0  0  0  0  0  0
   59.1050   32.6410   51.1690 C   0  0  0  0  0  0  0  0  0  0  0  0
   60.5570   33.4550   50.5890 Cl  0  0  0  0  0  0  0  0  0  0  0  0
  1  2  1  0
  2  3  2  0
  3  4  1  0
  4  5  1  0
  5  6  1  0
  5  7  2  0
  7  8  1  0
  7  9  1  0
  9 10  1  0
 10 11  1  0
 11 12  2  0
 12 13  1  0
 12 14  1  0
 14 15  1  0
 14 16  2  0
 16 17  1  0
 17 18  1  0
 18 19  1  0
 18 20  1  0
 18 21  1  0
 21 22  2  0
 21 23  1  0
 23 24  1  0
 24 25  1  0
 24 26  1  0
 24 27  1  0
 16 28  1  0
 28 29  1  0
 29 30  2  0
 29 31  1  0
 31 32  1  0
 31 33  1  0
 33 34  2  0
 34 35  1  0
 34 36  1  0
 36 37  1  0
 36 38  2  0
 38 39  1  0
 39 40  1  0
 40 41  2  0
 41 42  1  0
 41 43  1  0
 43 44  2  0
 44 45  1  0
 28 46  2  0
 46 47  1  0
  9 48  2  0
 48 49  1  0
 48  3  1  0
 46 11  1  0
 44 33  1  0
 43 38  1  0
M  CHG  3   4  -1  23  -1  39  -1
M  END
>  <UniqueID>  (12) 
11

>  <SMILES>  (12) 
[H]/N=c1\[n-]ccc(Oc2ccc(OCC(=O)[N-]C)c(C(=O)Nc3ccc4[n-]ncc4c3)c2)c1Cl

>  <Energy>  (12) 
100.21177036600795

>  <Genealogy>  (12) 
C[N-]C(=O)COc1ccc(Oc2cc[n-]c(=N)c2Cl)cc1C(=O)Nc1ccc2[n-]ncc2c1 (protonated)
[H]/N=c1\[n-]ccc(Oc2ccc(OCC(=O)[N-]C)c(C(=O)Nc3ccc4[n-]ncc4c3)c2)c1Cl (cis-trans isomerization)
[H]/N=c1\[n-]ccc(Oc2ccc(OCC(=O)[N-]C)c(C(=O)Nc3ccc4[n-]ncc4c3)c2)c1Cl (3D coordinates assigned)
[H]/N=c1\[n-]ccc(Oc2ccc(OCC(=O)[N-]C)c(C(=O)Nc3ccc4[n-]ncc4c3)c2)c1Cl (optimized conformer: 100.21177036600795 kcal/mol)

>  <smiles>  (12) 
CNC(=O)COc1ccc(Oc2cc[nH]c(=N)c2Cl)cc1C(=O)Nc1ccc2[nH]ncc2c1

>  <score_type>  (12) 
oracle

>  <origin>  (12) 
adg

>  <m_score__min__energy>  (12) 
-12.380000000000001

>  <m_primary>  (12) 
energy

$$$$
12:0
     RDKit          3D

 59 61  0  0  0  0  0  0  0  0999 V2000
   63.7590   33.0080   46.8070 C   0  0  0  0  0  0  0  0  0  0  0  0
   63.3430   32.8180   48.2210 N   0  0  0  0  0  0  0  0  0  0  0  0
   62.2970   31.7600   48.2580 C   0  0  0  0  0  0  0  0  0  0  0  0
   64.4930   32.3480   49.0330 C   0  0  0  0  0  0  0  0  0  0  0  0
   62.7550   34.0740   48.7960 C   0  0  0  0  0  0  0  0  0  0  0  0
   61.6590   33.8670   49.8860 C   0  0  0  0  0  0  0  0  0  0  0  0
   60.2540   34.1950   49.3580 C   0  0  0  0  0  0  0  0  0  0  0  0
   60.2770   34.3660   47.9390 O   0  0  0  0  0  0  0  0  0  0  0  0
   59.3480   33.8080   47.0450 C   0  0  0  0  0  0  0  0  0  0  0  0
   58.5200   34.6090   46.2100 C   0  0  0  0  0  0  0  0  0  0  0  0
   57.6010   34.0150   45.3300 C   0  0  0  0  0  0  0  0  0  0  0  0
   57.5240   32.6270   45.2990 C   0  0  0  0  0  0  0  0  0  0  0  0
   56.6940   31.8920   44.5380 N   0  0  0  0  0  0  0  0  0  0  0  0
   56.9640   30.6070   44.8720 C   0  0  0  0  0  0  0  0  0  0  0  0
   56.2290   29.4830   44.2670 C   0  0  0  0  0  0  0  0  0  0  0  0
   55.2260   28.9800   44.8330 O   0  0  0  0  0  0  0  0  0  0  0  0
   56.6530   28.9610   43.0530 O   0  0  0  0  0  0  0  0  0  0  0  0
   57.9730   30.5350   45.8460 C   0  0  0  0  0  0  0  0  0  0  0  0
   58.4690   29.3180   46.5780 C   0  0  0  0  0  0  0  0  0  0  0  0
   59.1260   28.3390   45.6000 C   0  0  0  0  0  0  0  0  0  0  0  0
   58.5210   26.9700   45.7180 C   0  0  0  0  0  0  0  0  0  0  0  0
   59.0570   26.1270   46.4830 O   0  0  0  0  0  0  0  0  0  0  0  0
   57.3220   26.6420   44.9850 N   0  0  0  0  0  0  0  0  0  0  0  0
   56.8130   25.3020   44.8350 C   0  0  0  0  0  0  0  0  0  0  0  0
   57.3590   24.4680   43.8430 C   0  0  0  0  0  0  0  0  0  0  0  0
   56.8890   23.1620   43.6800 C   0  0  0  0  0  0  0  0  0  0  0  0
   55.8790   22.6720   44.5170 C   0  0  0  0  0  0  0  0  0  0  0  0
   55.3500   23.4810   45.5280 C   0  0  0  0  0  0  0  0  0  0  0  0
   55.8220   24.7870   45.6980 C   0  0  0  0  0  0  0  0  0  0  0  0
   58.3130   31.8470   46.1040 C   0  0  0  0  0  0  0  0  0  0  0  0
   59.2400   32.4060   46.9870 C   0  0  0  0  0  0  0  0  0  0  0  0
   64.7592   33.4648   46.7773 H   0  0  0  0  0  0  0  0  0  0  0  0
   63.7860   32.0329   46.2985 H   0  0  0  0  0  0  0  0  0  0  0  0
   63.0397   33.6669   46.2985 H   0  0  0  0  0  0  0  0  0  0  0  0
   62.0574   31.5177   49.3039 H   0  0  0  0  0  0  0  0  0  0  0  0
   61.3915   32.1216   47.7487 H   0  0  0  0  0  0  0  0  0  0  0  0
   62.6689   30.8587   47.7487 H   0  0  0  0  0  0  0  0  0  0  0  0
   64.2519   32.4465   50.1017 H   0  0  0  0  0  0  0  0  0  0  0  0
   64.6999   31.2932   48.7996 H   0  0  0  0  0  0  0  0  0  0  0  0
   65.3795   32.9559   48.7996 H   0  0  0  0  0  0  0  0  0  0  0  0
   63.5733   34.6561   49.2450 H   0  0  0  0  0  0  0  0  0  0  0  0
   62.2547   34.5829   47.9589 H   0  0  0  0  0  0  0  0  0  0  0  0
   61.6789   32.8175   50.2150 H   0  0  0  0  0  0  0  0  0  0  0  0
   61.8765   34.5495   50.7208 H   0  0  0  0  0  0  0  0  0  0  0  0
   59.5710   33.3710   49.6118 H   0  0  0  0  0  0  0  0  0  0  0  0
   59.9102   35.1310   49.8225 H   0  0  0  0  0  0  0  0  0  0  0  0
   58.6006   35.7051   46.2543 H   0  0  0  0  0  0  0  0  0  0  0  0
   56.9594   34.6310   44.6827 H   0  0  0  0  0  0  0  0  0  0  0  0
   59.2066   29.6251   47.3341 H   0  0  0  0  0  0  0  0  0  0  0  0
   57.6162   28.8204   47.0629 H   0  0  0  0  0  0  0  0  0  0  0  0
   58.9841   28.7073   44.5732 H   0  0  0  0  0  0  0  0  0  0  0  0
   60.1970   28.2698   45.8412 H   0  0  0  0  0  0  0  0  0  0  0  0
   56.7580   27.4270   44.6010 H   0  0  0  0  0  0  0  0  0  0  0  0
   58.1608   24.8458   43.1915 H   0  0  0  0  0  0  0  0  0  0  0  0
   57.3124   22.5191   42.8943 H   0  0  0  0  0  0  0  0  0  0  0  0
   55.5007   21.6484   44.3791 H   0  0  0  0  0  0  0  0  0  0  0  0
   54.5627   23.0903   46.1895 H   0  0  0  0  0  0  0  0  0  0  0  0
   55.4195   25.4145   46.5068 H   0  0  0  0  0  0  0  0  0  0  0  0
   59.8703   31.7658   47.6217 H   0  0  0  0  0  0  0  0  0  0  0  0
  1  2  1  0
  2  3  1  0
  2  4  1  0
  2  5  1  0
  5  6  1  0
  6  7  1  0
  7  8  1  0
  8  9  1  0
  9 10  2  0
 10 11  1  0
 11 12  2  0
 12 13  1  0
 13 14  1  0
 14 15  1  0
 15 16  2  0
 15 17  1  0
 14 18  2  0
 18 19  1  0
 19 20  1  0
 20 21  1  0
 21 22  2  0
 21 23  1  0
 23 24  1  0
 24 25  2  0
 25 26  1  0
 26 27  2  0
 27 28  1  0
 28 29  2  0
 18 30  1  0
 30 31  2  0
 31  9  1  0
 30 12  1  0
 29 24  1  0
  1 32  1  0
  1 33  1  0
  1 34  1  0
  3 35  1  0
  3 36  1  0
  3 37  1  0
  4 38  1  0
  4 39  1  0
  4 40  1  0
  5 41  1  0
  5 42  1  0
  6 43  1  0
  6 44  1  0
  7 45  1  0
  7 46  1  0
 10 47  1  0
 11 48  1  0
 19 49  1  0
 19 50  1  0
 20 51  1  0
 20 52  1  0
 23 53  1  0
 25 54  1  0
 26 55  1  0
 27 56  1  0
 28 57  1  0
 29 58  1  0
 31 59  1  0
M  CHG  3   2   1  13  -1  17  -1
M  END
>  <UniqueID>  (13) 
12

>  <SMILES>  (13) 
C[N+](C)(C)CCCOc1ccc2[n-]c(C(=O)[O-])c(CCC(=O)Nc3ccccc3)c2c1

>  <Energy>  (13) 
98.8681854746877

>  <Genealogy>  (13) 
C[N+](C)(C)CCCOc1ccc2[n-]c(C(=O)[O-])c(CCC(=O)Nc3ccccc3)c2c1 (protonated)
C[N+](C)(C)CCCOc1ccc2[n-]c(C(=O)[O-])c(CCC(=O)Nc3ccccc3)c2c1 (3D coordinates assigned)
C[N+](C)(C)CCCOc1ccc2[n-]c(C(=O)[O-])c(CCC(=O)Nc3ccccc3)c2c1 (optimized conformer: 98.8681854746877 kcal/mol)

>  <smiles>  (13) 
C[N+](C)(C)CCCOc1ccc2[nH]c(C(=O)O)c(CCC(=O)Nc3ccccc3)c2c1

>  <score_type>  (13) 
oracle

>  <origin>  (13) 
adg

>  <m_score__min__energy>  (13) 
-11.27

>  <m_primary>  (13) 
energy

$$$$
13:0
     RDKit          3D

 31 32  0  0  0  0  0  0  0  0999 V2000
   56.4900   24.6770   45.1230 O   0  0  0  0  0  0  0  0  0  0  0  0
   56.4530   25.6890   46.2340 S   0  0  0  0  0  0  0  0  0  0  0  0
   56.2790   24.9870   47.5520 O   0  0  0  0  0  0  0  0  0  0  0  0
   55.1470   26.7160   45.9890 O   0  0  0  0  0  0  0  0  0  0  0  0
   57.8760   26.6120   46.2530 O   0  0  0  0  0  0  0  0  0  0  0  0
   58.1810   27.0380   44.9420 C   0  0  2  0  0  0  0  0  0  0  0  0
   59.5210   27.8050   44.9390 C   0  0  0  0  0  0  0  0  0  0  0  0
   59.1810   29.1510   44.5020 N   0  0  0  0  0  0  0  0  0  0  0  0
   57.9160   29.2390   44.2750 C   0  0  0  0  0  0  0  0  0  0  0  0
   57.2640   30.4360   43.8280 N   0  0  0  0  0  0  0  0  0  0  0  0
   57.9890   31.6830   43.5880 C   0  0  0  0  0  0  0  0  0  0  0  0
   58.1470   32.4570   44.8690 C   0  0  0  0  0  0  0  0  0  0  0  0
   58.1360   31.7910   46.1060 C   0  0  0  0  0  0  0  0  0  0  0  0
   58.3200   32.5080   47.2930 C   0  0  0  0  0  0  0  0  0  0  0  0
   58.5250   33.8890   47.2530 C   0  0  0  0  0  0  0  0  0  0  0  0
   58.5520   34.5570   46.0250 C   0  0  0  0  0  0  0  0  0  0  0  0
   58.3690   33.8450   44.8360 C   0  0  0  0  0  0  0  0  0  0  0  0
   57.2150   28.0350   44.5060 N   0  0  0  0  0  0  0  0  0  0  0  0
   58.1932   26.1421   44.3038 H   0  0  0  0  0  0  0  0  0  0  0  0
   59.9580   27.8246   45.9483 H   0  0  0  0  0  0  0  0  0  0  0  0
   60.2670   27.3327   44.2830 H   0  0  0  0  0  0  0  0  0  0  0  0
   59.8720   29.9250   44.3920 H   0  0  0  0  0  0  0  0  0  0  0  0
   56.2310   30.3980   43.6720 H   0  0  0  0  0  0  0  0  0  0  0  0
   58.9840   31.4504   43.1808 H   0  0  0  0  0  0  0  0  0  0  0  0
   57.4189   32.2933   42.8721 H   0  0  0  0  0  0  0  0  0  0  0  0
   57.9822   30.7024   46.1412 H   0  0  0  0  0  0  0  0  0  0  0  0
   58.3032   31.9832   48.2596 H   0  0  0  0  0  0  0  0  0  0  0  0
   58.6653   34.4513   48.1880 H   0  0  0  0  0  0  0  0  0  0  0  0
   58.7174   35.6441   45.9945 H   0  0  0  0  0  0  0  0  0  0  0  0
   58.3988   34.3725   43.8712 H   0  0  0  0  0  0  0  0  0  0  0  0
   56.1920   27.8860   44.3630 H   0  0  0  0  0  0  0  0  0  0  0  0
  1  2  2  0
  2  3  2  0
  2  4  1  0
  2  5  1  0
  5  6  1  0
  6  7  1  0
  7  8  1  0
  8  9  2  0
  9 10  1  0
 10 11  1  0
 11 12  1  0
 12 13  2  0
 13 14  1  0
 14 15  2  0
 15 16  1  0
 16 17  2  0
  9 18  1  0
 18  6  1  0
 17 12  1  0
  6 19  1  6
  7 20  1  0
  7 21  1  0
  8 22  1  0
 10 23  1  0
 11 24  1  0
 11 25  1  0
 13 26  1  0
 14 27  1  0
 15 28  1  0
 16 29  1  0
 17 30  1  0
 18 31  1  0
M  CHG  2   4  -1   8   1
M  END
>  <UniqueID>  (14) 
13

>  <SMILES>  (14) 
O=S(=O)([O-])O[C@@H]1C[NH+]=C(NCc2ccccc2)N1

>  <Energy>  (14) 
41.70788081396709

>  <Genealogy>  (14) 
O=S(=O)([O-])OC1C[NH+]=C(NCc2ccccc2)N1 (protonated)
O=S(=O)([O-])O[C@@H]1C[NH+]=C(NCc2ccccc2)N1 (chirality)
O=S(=O)([O-])O[C@@H]1C[NH+]=C(NCc2ccccc2)N1 (3D coordinates assigned)
O=S(=O)([O-])O[C@@H]1C[NH+]=C(NCc2ccccc2)N1 (nonaromatic ring conformer: 41.70788081396709 kcal/mol)

>  <smiles>  (14) 
O=S(=O)(O)OC1CN=C(NCc2ccccc2)N1

>  <score_type>  (14) 
oracle

>  <origin>  (14) 
adg

>  <m_score__min__energy>  (14) 
-8.2699999999999996

>  <m_primary>  (14) 
energy

$$$$
14:0
     RDKit          3D

 45 47  0  0  0  0  0  0  0  0999 V2000
   57.1840   34.5830   44.8780 C   0  0  0  0  0  0  0  0  0  0  0  0
   58.3480   34.0450   45.6650 C   0  0  0  0  0  0  0  0  0  0  0  0
   59.0970   34.9170   46.4730 C   0  0  0  0  0  0  0  0  0  0  0  0
   60.1850   34.4440   47.2100 C   0  0  0  0  0  0  0  0  0  0  0  0
   60.5310   33.0900   47.1650 C   0  0  0  0  0  0  0  0  0  0  0  0
   61.9060   32.4910   48.0960 S   0  0  0  0  0  0  0  0  0  0  0  0
   62.3510   31.1720   47.5280 O   0  0  0  0  0  0  0  0  0  0  0  0
   61.4790   32.2640   49.5190 O   0  0  0  0  0  0  0  0  0  0  0  0
   63.2410   33.6190   48.0640 N   0  0  0  0  0  0  0  0  0  0  0  0
   63.6880   33.8210   46.6810 C   0  0  0  0  0  0  0  0  0  0  0  0
   64.3450   33.1070   48.8850 C   0  0  0  0  0  0  0  0  0  0  0  0
   59.7820   32.2100   46.3740 C   0  0  0  0  0  0  0  0  0  0  0  0
   58.6980   32.6760   45.6090 C   0  0  0  0  0  0  0  0  0  0  0  0
   57.9260   31.7550   44.8160 N   0  0  0  0  0  0  0  0  0  0  0  0
   57.4190   30.5100   45.3270 C   0  0  0  0  0  0  0  0  0  0  0  0
   57.8010   30.0820   46.4500 O   0  0  0  0  0  0  0  0  0  0  0  0
   56.4730   29.7070   44.5370 C   0  0  0  0  0  0  0  0  0  0  0  0
   56.2870   29.9720   43.3190 O   0  0  0  0  0  0  0  0  0  0  0  0
   55.8080   28.5950   45.1520 N   0  0  0  0  0  0  0  0  0  0  0  0
   56.4200   27.3860   45.6270 C   0  0  0  0  0  0  0  0  0  0  0  0
   57.8340   27.3150   45.6580 C   0  0  0  0  0  0  0  0  0  0  0  0
   58.4880   26.1620   46.1340 C   0  0  0  0  0  0  0  0  0  0  0  0
   57.6960   25.1090   46.5800 C   0  0  0  0  0  0  0  0  0  0  0  0
   58.1040   23.9330   47.0800 N   0  0  0  0  0  0  0  0  0  0  0  0
   56.9240   23.3220   47.3600 C   0  0  0  0  0  0  0  0  0  0  0  0
   56.8660   22.1670   47.8570 O   0  0  0  0  0  0  0  0  0  0  0  0
   55.8130   24.0450   47.0700 N   0  0  0  0  0  0  0  0  0  0  0  0
   56.3370   25.1760   46.5730 C   0  0  0  0  0  0  0  0  0  0  0  0
   55.6540   26.2980   46.1120 C   0  0  0  0  0  0  0  0  0  0  0  0
   56.4079   34.9417   45.5701 H   0  0  0  0  0  0  0  0  0  0  0  0
   57.5234   35.4156   44.2443 H   0  0  0  0  0  0  0  0  0  0  0  0
   56.7697   33.7850   44.2443 H   0  0  0  0  0  0  0  0  0  0  0  0
   58.8241   35.9813   46.5256 H   0  0  0  0  0  0  0  0  0  0  0  0
   60.7719   35.1393   47.8282 H   0  0  0  0  0  0  0  0  0  0  0  0
   64.6904   34.2740   46.6821 H   0  0  0  0  0  0  0  0  0  0  0  0
   63.7242   32.8518   46.1621 H   0  0  0  0  0  0  0  0  0  0  0  0
   62.9845   34.4887   46.1621 H   0  0  0  0  0  0  0  0  0  0  0  0
   64.0946   33.2231   49.9498 H   0  0  0  0  0  0  0  0  0  0  0  0
   64.5060   32.0423   48.6602 H   0  0  0  0  0  0  0  0  0  0  0  0
   65.2617   33.6719   48.6602 H   0  0  0  0  0  0  0  0  0  0  0  0
   60.0446   31.1421   46.3508 H   0  0  0  0  0  0  0  0  0  0  0  0
   57.7830   31.9710   43.8050 H   0  0  0  0  0  0  0  0  0  0  0  0
   58.4288   28.1708   45.3060 H   0  0  0  0  0  0  0  0  0  0  0  0
   59.5859   26.0965   46.1524 H   0  0  0  0  0  0  0  0  0  0  0  0
   54.5548   26.3382   46.1240 H   0  0  0  0  0  0  0  0  0  0  0  0
  1  2  1  0
  2  3  2  0
  3  4  1  0
  4  5  2  0
  5  6  1  0
  6  7  2  0
  6  8  2  0
  6  9  1  0
  9 10  1  0
  9 11  1  0
  5 12  1  0
 12 13  2  0
 13 14  1  0
 14 15  1  0
 15 16  2  0
 15 17  1  0
 17 18  2  0
 17 19  1  0
 19 20  1  0
 20 21  2  0
 21 22  1  0
 22 23  2  0
 23 24  1  0
 24 25  1  0
 25 26  2  0
 25 27  1  0
 27 28  1  0
 28 29  2  0
 13  2  1  0
 29 20  1  0
 28 23  1  0
  1 30  1  0
  1 31  1  0
  1 32  1  0
  3 33  1  0
  4 34  1  0
 10 35  1  0
 10 36  1  0
 10 37  1  0
 11 38  1  0
 11 39  1  0
 11 40  1  0
 12 41  1  0
 14 42  1  0
 21 43  1  0
 22 44  1  0
 29 45  1  0
M  CHG  3  19  -1  24  -1  27  -1
M  END
>  <UniqueID>  (15) 
14

>  <SMILES>  (15) 
Cc1ccc(S(=O)(=O)N(C)C)cc1NC(=O)C(=O)[N-]c1ccc2[n-]c(=O)[n-]c2c1

>  <Energy>  (15) 
86.18421023114944

>  <Genealogy>  (15) 
Cc1ccc(S(=O)(=O)N(C)C)cc1NC(=O)C(=O)[N-]c1ccc2[n-]c(=O)[n-]c2c1 (protonated)
Cc1ccc(S(=O)(=O)N(C)C)cc1NC(=O)C(=O)[N-]c1ccc2[n-]c(=O)[n-]c2c1 (3D coordinates assigned)
Cc1ccc(S(=O)(=O)N(C)C)cc1NC(=O)C(=O)[N-]c1ccc2[n-]c(=O)[n-]c2c1 (optimized conformer: 86.18421023114944 kcal/mol)

>  <smiles>  (15) 
Cc1ccc(S(=O)(=O)N(C)C)cc1NC(=O)C(=O)Nc1ccc2[nH]c(=O)[nH]c2c1

>  <score_type>  (15) 
oracle

>  <origin>  (15) 
adg

>  <m_score__min__energy>  (15) 
-13.380000000000001

>  <m_primary>  (15) 
energy

$$$$
15:0
     RDKit          3D

 45 47  0  0  0  0  0  0  0  0999 V2000
   55.5050   29.7500   43.5340 C   0  0  0  0  0  0  0  0  0  0  0  0
   55.5060   29.1870   44.8410 O   0  0  0  0  0  0  0  0  0  0  0  0
   56.5980   28.5210   45.4190 C   0  0  0  0  0  0  0  0  0  0  0  0
   57.8930   29.0770   45.4430 C   0  0  0  0  0  0  0  0  0  0  0  0
   58.9610   28.3870   46.0470 C   0  0  0  0  0  0  0  0  0  0  0  0
   60.3180   28.9770   46.0780 C   0  0  0  0  0  0  0  0  0  0  0  0
   61.1980   28.5630   45.2820 O   0  0  0  0  0  0  0  0  0  0  0  0
   60.6220   30.0260   47.0100 N   0  0  0  0  0  0  0  0  0  0  0  0
   60.8140   31.4440   46.6980 C   0  0  1  0  0  0  0  0  0  0  0  0
   59.4740   32.1090   46.4160 C   0  0  0  0  0  0  0  0  0  0  0  0
   58.8780   32.1080   45.1370 C   0  0  0  0  0  0  0  0  0  0  0  0
   57.6610   32.7650   44.9220 C   0  0  0  0  0  0  0  0  0  0  0  0
   57.0310   33.4380   45.9700 C   0  0  0  0  0  0  0  0  0  0  0  0
   57.6200   33.4640   47.2360 C   0  0  0  0  0  0  0  0  0  0  0  0
   58.8340   32.8070   47.4570 C   0  0  0  0  0  0  0  0  0  0  0  0
   61.6950   32.1410   47.7630 C   0  0  2  0  0  0  0  0  0  0  0  0
   63.0460   32.6270   47.1690 C   0  0  0  0  0  0  0  0  0  0  0  0
   64.1530   32.4330   48.1160 N   0  0  0  0  0  0  0  0  0  0  0  0
   63.7350   32.7770   49.4770 C   0  0  0  0  0  0  0  0  0  0  0  0
   62.5560   31.8820   49.9080 C   0  0  0  0  0  0  0  0  0  0  0  0
   61.9440   31.2240   48.8130 O   0  0  0  0  0  0  0  0  0  0  0  0
   58.7180   27.1300   46.6240 C   0  0  0  0  0  0  0  0  0  0  0  0
   57.4380   26.5720   46.5960 C   0  0  0  0  0  0  0  0  0  0  0  0
   56.3820   27.2630   45.9950 C   0  0  0  0  0  0  0  0  0  0  0  0
   55.1130   26.6970   45.9790 O   0  0  0  0  0  0  0  0  0  0  0  0
   55.5031   30.8475   43.6075 H   0  0  0  0  0  0  0  0  0  0  0  0
   56.4037   29.4204   42.9921 H   0  0  0  0  0  0  0  0  0  0  0  0
   54.6074   29.4172   42.9921 H   0  0  0  0  0  0  0  0  0  0  0  0
   58.0710   30.0610   44.9847 H   0  0  0  0  0  0  0  0  0  0  0  0
   61.3895   31.5495   45.7665 H   0  0  0  0  0  0  0  0  0  0  0  0
   59.3729   31.5877   44.3038 H   0  0  0  0  0  0  0  0  0  0  0  0
   57.1994   32.7509   43.9236 H   0  0  0  0  0  0  0  0  0  0  0  0
   56.0713   33.9475   45.7989 H   0  0  0  0  0  0  0  0  0  0  0  0
   57.1283   34.0019   48.0599 H   0  0  0  0  0  0  0  0  0  0  0  0
   59.2941   32.8359   48.4557 H   0  0  0  0  0  0  0  0  0  0  0  0
   61.1579   33.0264   48.1339 H   0  0  0  0  0  0  0  0  0  0  0  0
   63.2575   32.0590   46.2510 H   0  0  0  0  0  0  0  0  0  0  0  0
   62.9609   33.7024   46.9540 H   0  0  0  0  0  0  0  0  0  0  0  0
   64.9360   33.0710   47.8430 H   0  0  0  0  0  0  0  0  0  0  0  0
   64.5786   32.6255   50.1665 H   0  0  0  0  0  0  0  0  0  0  0  0
   63.4174   33.8299   49.5022 H   0  0  0  0  0  0  0  0  0  0  0  0
   62.9285   31.1231   50.6118 H   0  0  0  0  0  0  0  0  0  0  0  0
   61.7985   32.5295   50.3737 H   0  0  0  0  0  0  0  0  0  0  0  0
   59.5424   26.5805   47.1019 H   0  0  0  0  0  0  0  0  0  0  0  0
   57.2603   25.5853   47.0485 H   0  0  0  0  0  0  0  0  0  0  0  0
  1  2  1  0
  2  3  1  0
  3  4  2  0
  4  5  1  0
  5  6  1  0
  6  7  2  0
  6  8  1  0
  8  9  1  0
  9 10  1  0
 10 11  2  0
 11 12  1  0
 12 13  2  0
 13 14  1  0
 14 15  2  0
  9 16  1  0
 16 17  1  0
 17 18  1  0
 18 19  1  0
 19 20  1  0
 20 21  1  0
  5 22  2  0
 22 23  1  0
 23 24  2  0
 24 25  1  0
 24  3  1  0
 15 10  1  0
 21 16  1  0
  1 26  1  0
  1 27  1  0
  1 28  1  0
  4 29  1  0
  9 30  1  6
 11 31  1  0
 12 32  1  0
 13 33  1  0
 14 34  1  0
 15 35  1  0
 16 36  1  1
 17 37  1  0
 17 38  1  0
 18 39  1  0
 19 40  1  0
 19 41  1  0
 20 42  1  0
 20 43  1  0
 22 44  1  0
 23 45  1  0
M  CHG  2   8  -1  25  -1
M  END
>  <UniqueID>  (16) 
15

>  <SMILES>  (16) 
COc1cc(C(=O)[N-][C@@H](c2ccccc2)[C@@H]2CNCCO2)ccc1[O-]

>  <Energy>  (16) 
56.296829467865464

>  <Genealogy>  (16) 
COc1cc(C(=O)[N-]C(c2ccccc2)C2CNCCO2)ccc1[O-] (protonated)
COc1cc(C(=O)[N-][C@@H](c2ccccc2)[C@@H]2CNCCO2)ccc1[O-] (chirality)
COc1cc(C(=O)[N-][C@@H](c2ccccc2)[C@@H]2CNCCO2)ccc1[O-] (3D coordinates assigned)
COc1cc(C(=O)[N-][C@@H](c2ccccc2)[C@@H]2CNCCO2)ccc1[O-] (nonaromatic ring conformer: 56.296829467865464 kcal/mol)

>  <smiles>  (16) 
COc1cc(C(=O)NC(c2ccccc2)C2CNCCO2)ccc1O

>  <score_type>  (16) 
oracle

>  <origin>  (16) 
adg

>  <m_score__min__energy>  (16) 
-12.619999999999999

>  <m_primary>  (16) 
energy

$$$$
16:0
     RDKit          3D

 46 46  0  0  0  0  0  0  0  0999 V2000
   55.4030   22.9710   44.4880 C   0  0  0  0  0  0  0  0  0  0  0  0
   55.4670   23.6960   45.8020 C   0  0  0  0  0  0  0  0  0  0  0  0
   54.4250   24.0520   46.3290 O   0  0  0  0  0  0  0  0  0  0  0  0
   56.7800   23.9970   46.4860 C   0  0  1  0  0  0  0  0  0  0  0  0
   56.8140   25.3730   46.9760 N   0  0  0  0  0  0  0  0  0  0  0  0
   56.3790   26.5010   46.2050 C   0  0  0  0  0  0  0  0  0  0  0  0
   55.1460   26.6820   46.0070 O   0  0  0  0  0  0  0  0  0  0  0  0
   57.3950   27.3460   45.4740 C   0  0  2  0  0  0  0  0  0  0  0  0
   58.8740   26.9250   45.6670 C   0  0  0  0  0  0  0  0  0  0  0  0
   59.4630   27.0310   47.0850 C   0  0  0  0  0  0  0  0  0  0  0  0
   59.7690   28.7130   47.6120 S   0  0  0  0  0  0  0  0  0  0  0  0
   60.2750   29.6730   46.2040 C   0  0  0  0  0  0  0  0  0  0  0  0
   58.5190   29.3190   48.1810 O   0  0  0  0  0  0  0  0  0  0  0  0
   60.8610   28.7460   48.6440 O   0  0  0  0  0  0  0  0  0  0  0  0
   57.1980   28.7890   45.6610 N   0  0  0  0  0  0  0  0  0  0  0  0
   56.3350   29.6690   44.9250 C   0  0  0  0  0  0  0  0  0  0  0  0
   55.1020   29.4410   44.8490 O   0  0  0  0  0  0  0  0  0  0  0  0
   56.8600   30.8470   44.3050 N   0  0  0  0  0  0  0  0  0  0  0  0
   57.4780   31.9520   44.9810 C   0  0  0  0  0  0  0  0  0  0  0  0
   57.8500   33.0740   44.2320 C   0  0  0  0  0  0  0  0  0  0  0  0
   58.4710   34.1610   44.8510 C   0  0  0  0  0  0  0  0  0  0  0  0
   58.7420   34.1280   46.2200 C   0  0  0  0  0  0  0  0  0  0  0  0
   58.4050   32.9990   46.9860 C   0  0  0  0  0  0  0  0  0  0  0  0
   58.7070   32.9580   48.3940 N   0  0  0  0  0  0  0  0  0  0  0  0
   58.2610   32.0420   49.1160 O   0  0  0  0  0  0  0  0  0  0  0  0
   59.4920   33.9320   48.9690 O   0  0  0  0  0  0  0  0  0  0  0  0
   57.7790   31.9070   46.3540 C   0  0  0  0  0  0  0  0  0  0  0  0
   57.0130   23.0440   47.6220 C   0  0  0  0  0  0  0  0  0  0  0  0
   57.0030   23.4650   48.8080 O   0  0  0  0  0  0  0  0  0  0  0  0
   57.2900   21.7040   47.3740 O   0  0  0  0  0  0  0  0  0  0  0  0
   55.3076   21.8903   44.6698 H   0  0  0  0  0  0  0  0  0  0  0  0
   54.5326   23.3249   43.9160 H   0  0  0  0  0  0  0  0  0  0  0  0
   56.3219   23.1669   43.9160 H   0  0  0  0  0  0  0  0  0  0  0  0
   57.5819   23.8720   45.7435 H   0  0  0  0  0  0  0  0  0  0  0  0
   57.1833   27.1283   44.4168 H   0  0  0  0  0  0  0  0  0  0  0  0
   58.9617   25.8749   45.3513 H   0  0  0  0  0  0  0  0  0  0  0  0
   59.4511   27.6455   45.0689 H   0  0  0  0  0  0  0  0  0  0  0  0
   58.7563   26.5692   47.7901 H   0  0  0  0  0  0  0  0  0  0  0  0
   60.4354   26.5170   47.0687 H   0  0  0  0  0  0  0  0  0  0  0  0
   60.7624   30.5977   46.5467 H   0  0  0  0  0  0  0  0  0  0  0  0
   60.9824   29.0889   45.5970 H   0  0  0  0  0  0  0  0  0  0  0  0
   59.3933   29.9265   45.5970 H   0  0  0  0  0  0  0  0  0  0  0  0
   57.6523   33.0999   43.1502 H   0  0  0  0  0  0  0  0  0  0  0  0
   58.7473   35.0455   44.2583 H   0  0  0  0  0  0  0  0  0  0  0  0
   59.2227   34.9917   46.7026 H   0  0  0  0  0  0  0  0  0  0  0  0
   57.5234   31.0114   46.9393 H   0  0  0  0  0  0  0  0  0  0  0  0
  1  2  1  0
  2  3  2  0
  2  4  1  0
  4  5  1  0
  5  6  1  0
  6  7  2  0
  6  8  1  0
  8  9  1  0
  9 10  1  0
 10 11  1  0
 11 12  1  0
 11 13  2  0
 11 14  2  0
  8 15  1  0
 15 16  1  0
 16 17  2  0
 16 18  1  0
 18 19  1  0
 19 20  2  0
 20 21  1  0
 21 22  2  0
 22 23  1  0
 23 24  1  0
 24 25  2  0
 24 26  1  0
 23 27  2  0
  4 28  1  0
 28 29  2  0
 28 30  1  0
 27 19  1  0
  1 31  1  0
  1 32  1  0
  1 33  1  0
  4 34  1  6
  8 35  1  6
  9 36  1  0
  9 37  1  0
 10 38  1  0
 10 39  1  0
 12 40  1  0
 12 41  1  0
 12 42  1  0
 20 43  1  0
 21 44  1  0
 22 45  1  0
 27 46  1  0
M  CHG  6   5  -1  15  -1  18  -1  24   1  26  -1  30  -1
M  END
>  <UniqueID>  (17) 
16

>  <SMILES>  (17) 
CC(=O)[C@@H]([N-]C(=O)[C@H](CCS(C)(=O)=O)[N-]C(=O)[N-]c1cccc([N+](=O)[O-])c1)C(=O)[O-]

>  <Energy>  (17) 
40.39952776027924

>  <Genealogy>  (17) 
CC(=O)C([N-]C(=O)C(CCS(C)(=O)=O)[N-]C(=O)[N-]c1cccc([N+](=O)[O-])c1)C(=O)[O-] (protonated)
CC(=O)[C@@H]([N-]C(=O)[C@H](CCS(C)(=O)=O)[N-]C(=O)[N-]c1cccc([N+](=O)[O-])c1)C(=O)[O-] (chirality)
CC(=O)[C@@H]([N-]C(=O)[C@H](CCS(C)(=O)=O)[N-]C(=O)[N-]c1cccc([N+](=O)[O-])c1)C(=O)[O-] (3D coordinates assigned)
CC(=O)[C@@H]([N-]C(=O)[C@H](CCS(C)(=O)=O)[N-]C(=O)[N-]c1cccc([N+](=O)[O-])c1)C(=O)[O-] (optimized conformer: 40.39952776027924 kcal/mol)

>  <smiles>  (17) 
CC(=O)C(NC(=O)C(CCS(C)(=O)=O)NC(=O)Nc1cccc([N+](=O)[O-])c1)C(=O)O

>  <score_type>  (17) 
oracle

>  <origin>  (17) 
adg

>  <m_score__min__energy>  (17) 
-15.17

>  <m_primary>  (17) 
energy

$$$$
17:0
     RDKit          3D

 65 69  0  0  0  0  0  0  0  0999 V2000
   56.5520   29.6100   44.7180 C   0  0  0  0  0  0  0  0  0  0  0  0
   57.8090   29.1950   44.9450 C   0  0  0  0  0  0  0  0  0  0  0  0
   58.2750   27.8780   44.8740 C   0  0  0  0  0  0  0  0  0  0  0  0
   57.5590   26.7710   44.5920 C   0  0  0  0  0  0  0  0  0  0  0  0
   57.0630   25.8300   45.6160 C   0  0  0  0  0  0  0  0  0  0  0  0
   57.8300   24.8750   46.1720 N   0  0  0  0  0  0  0  0  0  0  0  0
   57.0100   24.2960   47.0750 C   0  0  0  0  0  0  0  0  0  0  0  0
   57.3730   23.3360   47.8050 O   0  0  0  0  0  0  0  0  0  0  0  0
   55.7760   24.8400   47.1470 N   0  0  0  0  0  0  0  0  0  0  0  0
   55.8280   25.8170   46.2270 C   0  0  0  0  0  0  0  0  0  0  0  0
   54.7890   26.7100   45.9930 O   0  0  0  0  0  0  0  0  0  0  0  0
   59.6170   27.9240   45.2380 C   0  0  0  0  0  0  0  0  0  0  0  0
   59.9160   29.2450   45.4960 C   0  0  0  0  0  0  0  0  0  0  0  0
   61.2470   29.7420   45.9740 C   0  0  0  0  0  0  0  0  0  0  0  0
   58.8230   30.0180   45.3200 N   0  0  0  0  0  0  0  0  0  0  0  0
   58.7320   31.4210   45.6200 C   0  0  0  0  0  0  0  0  0  0  0  0
   58.1910   32.3150   44.6880 C   0  0  0  0  0  0  0  0  0  0  0  0
   58.1090   33.6770   44.9910 C   0  0  0  0  0  0  0  0  0  0  0  0
   58.5530   34.1520   46.2280 C   0  0  0  0  0  0  0  0  0  0  0  0
   59.1210   33.2700   47.1680 C   0  0  0  0  0  0  0  0  0  0  0  0
   59.5650   33.7420   48.5050 C   0  0  0  0  0  0  0  0  0  0  0  0
   58.8450   33.5080   49.5070 O   0  0  0  0  0  0  0  0  0  0  0  0
   60.7430   34.5390   48.6910 N   0  0  0  0  0  0  0  0  0  0  0  0
   62.0810   34.0760   48.9070 C   0  0  0  0  0  0  0  0  0  0  0  0
   62.8260   33.4480   47.8960 C   0  0  0  0  0  0  0  0  0  0  0  0
   64.1130   32.9680   48.1660 C   0  0  0  0  0  0  0  0  0  0  0  0
   64.6720   33.1120   49.4470 C   0  0  0  0  0  0  0  0  0  0  0  0
   66.0490   32.5800   49.7520 C   0  0  0  0  0  0  0  0  0  0  0  0
   66.2630   32.3030   51.2500 C   0  0  0  0  0  0  0  0  0  0  0  0
   67.6790   32.5430   51.6310 N   0  0  0  0  0  0  0  0  0  0  0  0
   68.4070   33.3890   50.6550 C   0  0  0  0  0  0  0  0  0  0  0  0
   68.1420   34.8980   50.8700 C   0  0  0  0  0  0  0  0  0  0  0  0
   67.0640   35.1140   51.7600 O   0  0  0  0  0  0  0  0  0  0  0  0
   67.3890   34.6010   53.0390 C   0  0  0  0  0  0  0  0  0  0  0  0
   67.8140   33.1110   52.9890 C   0  0  0  0  0  0  0  0  0  0  0  0
   63.9260   33.7500   50.4490 C   0  0  0  0  0  0  0  0  0  0  0  0
   62.6370   34.2110   50.1850 C   0  0  0  0  0  0  0  0  0  0  0  0
   59.1970   31.9020   46.8550 C   0  0  0  0  0  0  0  0  0  0  0  0
   56.3013   30.6776   44.8041 H   0  0  0  0  0  0  0  0  0  0  0  0
   55.7732   28.8823   44.4460 H   0  0  0  0  0  0  0  0  0  0  0  0
   57.3310   26.5563   43.5375 H   0  0  0  0  0  0  0  0  0  0  0  0
   60.3072   27.0702   45.3068 H   0  0  0  0  0  0  0  0  0  0  0  0
   61.2628   29.7479   47.0739 H   0  0  0  0  0  0  0  0  0  0  0  0
   62.0417   29.0800   45.5994 H   0  0  0  0  0  0  0  0  0  0  0  0
   61.4133   30.7628   45.5994 H   0  0  0  0  0  0  0  0  0  0  0  0
   57.8303   31.9452   43.7168 H   0  0  0  0  0  0  0  0  0  0  0  0
   57.6931   34.3781   44.2525 H   0  0  0  0  0  0  0  0  0  0  0  0
   58.4584   35.2211   46.4691 H   0  0  0  0  0  0  0  0  0  0  0  0
   62.3974   33.3329   46.8895 H   0  0  0  0  0  0  0  0  0  0  0  0
   64.6904   32.4749   47.3701 H   0  0  0  0  0  0  0  0  0  0  0  0
   66.1941   31.6415   49.1969 H   0  0  0  0  0  0  0  0  0  0  0  0
   66.7754   33.3491   49.4504 H   0  0  0  0  0  0  0  0  0  0  0  0
   65.6132   32.9689   51.8369 H   0  0  0  0  0  0  0  0  0  0  0  0
   66.0151   31.2510   51.4543 H   0  0  0  0  0  0  0  0  0  0  0  0
   69.4857   33.2012   50.7601 H   0  0  0  0  0  0  0  0  0  0  0  0
   68.0483   33.1253   49.6491 H   0  0  0  0  0  0  0  0  0  0  0  0
   69.0475   35.3641   51.2857 H   0  0  0  0  0  0  0  0  0  0  0  0
   67.8821   35.3443   49.8988 H   0  0  0  0  0  0  0  0  0  0  0  0
   68.2187   35.1910   53.4556 H   0  0  0  0  0  0  0  0  0  0  0  0
   66.4885   34.6714   53.6667 H   0  0  0  0  0  0  0  0  0  0  0  0
   68.8645   33.0303   53.3051 H   0  0  0  0  0  0  0  0  0  0  0  0
   67.1522   32.5457   53.6616 H   0  0  0  0  0  0  0  0  0  0  0  0
   64.3610   33.8875   51.4499 H   0  0  0  0  0  0  0  0  0  0  0  0
   62.0520   34.6846   50.9872 H   0  0  0  0  0  0  0  0  0  0  0  0
   59.6255   31.2000   47.5855 H   0  0  0  0  0  0  0  0  0  0  0  0
  1  2  2  0
  2  3  1  0
  3  4  2  3
  4  5  1  0
  5  6  1  0
  6  7  1  0
  7  8  2  0
  7  9  1  0
  9 10  1  0
 10 11  1  0
  3 12  1  0
 12 13  2  0
 13 14  1  0
 13 15  1  0
 15 16  1  0
 16 17  2  0
 17 18  1  0
 18 19  2  0
 19 20  1  0
 20 21  1  0
 21 22  2  0
 21 23  1  0
 23 24  1  0
 24 25  2  0
 25 26  1  0
 26 27  2  0
 27 28  1  0
 28 29  1  0
 29 30  1  0
 30 31  1  0
 31 32  1  0
 32 33  1  0
 33 34  1  0
 34 35  1  0
 27 36  1  0
 36 37  2  0
 20 38  2  0
 15  2  1  0
 38 16  1  0
 10  5  2  0
 37 24  1  0
 35 30  1  0
  1 39  1  0
  1 40  1  0
  4 41  1  0
 12 42  1  0
 14 43  1  0
 14 44  1  0
 14 45  1  0
 17 46  1  0
 18 47  1  0
 19 48  1  0
 25 49  1  0
 26 50  1  0
 28 51  1  0
 28 52  1  0
 29 53  1  0
 29 54  1  0
 31 55  1  0
 31 56  1  0
 32 57  1  0
 32 58  1  0
 34 59  1  0
 34 60  1  0
 35 61  1  0
 35 62  1  0
 36 63  1  0
 37 64  1  0
 38 65  1  0
M  CHG  4   6  -1   9  -1  11  -1  23  -1
M  END
>  <UniqueID>  (18) 
17

>  <SMILES>  (18) 
C=c1c(=Cc2[n-]c(=O)[n-]c2[O-])cc(C)n1-c1cccc(C(=O)[N-]c2ccc(CCN3CCOCC3)cc2)c1

>  <Energy>  (18) 
160.4638877780137

>  <Genealogy>  (18) 
C=c1c(=Cc2[n-]c(=O)[n-]c2[O-])cc(C)n1-c1cccc(C(=O)[N-]c2ccc(CCN3CCOCC3)cc2)c1 (protonated)
C=c1c(=Cc2[n-]c(=O)[n-]c2[O-])cc(C)n1-c1cccc(C(=O)[N-]c2ccc(CCN3CCOCC3)cc2)c1 (3D coordinates assigned)
C=c1c(=Cc2[n-]c(=O)[n-]c2[O-])cc(C)n1-c1cccc(C(=O)[N-]c2ccc(CCN3CCOCC3)cc2)c1 (nonaromatic ring conformer: 160.4638877780137 kcal/mol)

>  <smiles>  (18) 
C=c1c(=Cc2[nH]c(=O)[nH]c2O)cc(C)n1-c1cccc(C(=O)Nc2ccc(CCN3CCOCC3)cc2)c1

>  <score_type>  (18) 
oracle

>  <origin>  (18) 
adg

>  <m_score__min__energy>  (18) 
-20.27

>  <m_primary>  (18) 
energy

$$$$
18:0
     RDKit          3D

 52 54  0  0  0  0  0  0  0  0999 V2000
   54.7680   28.4720   44.4920 H   0  0  0  0  0  0  0  0  0  0  0  0
   55.6180   28.8450   44.8980 O   0  0  0  0  0  0  0  0  0  0  0  0
   56.5400   28.0210   45.5440 C   0  0  0  0  0  0  0  0  0  0  0  0
   56.1360   26.7600   46.0070 C   0  0  0  0  0  0  0  0  0  0  0  0
   54.8280   26.3330   45.8140 O   0  0  0  0  0  0  0  0  0  0  0  0
   57.0430   25.9330   46.6740 C   0  0  0  0  0  0  0  0  0  0  0  0
   56.7194   24.9489   47.0440 H   0  0  0  0  0  0  0  0  0  0  0  0
   58.3610   26.3540   46.8720 C   0  0  0  0  0  0  0  0  0  0  0  0
   59.0648   25.7101   47.4198 H   0  0  0  0  0  0  0  0  0  0  0  0
   58.7910   27.5950   46.3750 C   0  0  0  0  0  0  0  0  0  0  0  0
   60.1680   28.0690   46.6180 C   0  0  0  0  0  0  0  0  0  0  0  0
   60.9880   27.4756   46.1874 H   0  0  0  0  0  0  0  0  0  0  0  0
   60.5040   29.1630   47.3200 C   0  0  0  0  0  0  0  0  0  0  0  0
   61.5595   29.4718   47.2941 H   0  0  0  0  0  0  0  0  0  0  0  0
   59.5750   29.9920   48.1280 C   0  0  0  0  0  0  0  0  0  0  0  0
   58.5950   29.4690   48.7210 O   0  0  0  0  0  0  0  0  0  0  0  0
   59.7590   31.4080   48.2420 N   0  0  0  0  0  0  0  0  0  0  0  0
   59.1990   32.4030   47.3750 C   0  0  0  0  0  0  0  0  0  0  0  0
   57.9270   32.2290   46.8070 C   0  0  0  0  0  0  0  0  0  0  0  0
   57.3267   31.3448   47.0675 H   0  0  0  0  0  0  0  0  0  0  0  0
   57.4210   33.1750   45.9120 C   0  0  0  0  0  0  0  0  0  0  0  0
   56.4188   33.0402   45.4792 H   0  0  0  0  0  0  0  0  0  0  0  0
   58.1850   34.2910   45.5660 C   0  0  0  0  0  0  0  0  0  0  0  0
   57.7839   35.0338   44.8607 H   0  0  0  0  0  0  0  0  0  0  0  0
   59.4580   34.4660   46.1140 C   0  0  0  0  0  0  0  0  0  0  0  0
   60.1860   35.5610   45.7800 F   0  0  0  0  0  0  0  0  0  0  0  0
   59.9730   33.5210   47.0160 C   0  0  0  0  0  0  0  0  0  0  0  0
   61.2670   33.7190   47.6010 N   0  0  0  0  0  0  0  0  0  0  0  0
   62.4640   33.4290   46.8010 C   0  0  0  0  0  0  0  0  0  0  0  0
   62.3909   33.9711   45.8467 H   0  0  0  0  0  0  0  0  0  0  0  0
   62.5072   32.3411   46.6443 H   0  0  0  0  0  0  0  0  0  0  0  0
   63.7600   33.8520   47.5110 C   0  0  0  0  0  0  0  0  0  0  0  0
   63.8691   34.9415   47.4057 H   0  0  0  0  0  0  0  0  0  0  0  0
   64.5754   33.2889   47.0335 H   0  0  0  0  0  0  0  0  0  0  0  0
   63.8110   33.5040   49.0230 C   0  0  0  0  0  0  0  0  0  0  0  0
   64.2555   34.4078   49.4653 H   0  0  0  0  0  0  0  0  0  0  0  0
   64.7200   32.3900   49.3460 N   0  0  0  0  0  0  0  0  0  0  0  0
   65.6050   32.5100   50.8490 S   0  0  0  0  0  0  0  0  0  0  0  0
   64.8050   33.3600   51.7940 O   0  0  0  0  0  0  0  0  0  0  0  0
   65.8370   31.1740   51.4940 O   0  0  0  0  0  0  0  0  0  0  0  0
   67.1700   33.3120   50.5800 C   0  0  0  0  0  0  0  0  0  0  0  0
   67.6321   33.5488   51.5497 H   0  0  0  0  0  0  0  0  0  0  0  0
   67.8324   32.6422   50.0120 H   0  0  0  0  0  0  0  0  0  0  0  0
   67.0132   34.2408   50.0120 H   0  0  0  0  0  0  0  0  0  0  0  0
   62.4390   33.3720   49.7230 C   0  0  0  0  0  0  0  0  0  0  0  0
   62.5253   33.7444   50.7545 H   0  0  0  0  0  0  0  0  0  0  0  0
   62.1454   32.3119   49.7163 H   0  0  0  0  0  0  0  0  0  0  0  0
   61.3660   34.1750   48.9920 C   0  0  0  0  0  0  0  0  0  0  0  0
   61.6332   35.2419   49.0086 H   0  0  0  0  0  0  0  0  0  0  0  0
   60.3976   34.0282   49.4927 H   0  0  0  0  0  0  0  0  0  0  0  0
   57.8680   28.4400   45.7380 C   0  0  0  0  0  0  0  0  0  0  0  0
   58.2630   29.6620   45.2950 F   0  0  0  0  0  0  0  0  0  0  0  0
  1  2  1  0
  2  3  1  0
  3  4  2  0
  4  5  1  0
  4  6  1  0
  6  7  1  0
  6  8  2  0
  8  9  1  0
  8 10  1  0
 10 11  1  0
 11 12  1  0
 11 13  2  0
 13 14  1  0
 13 15  1  0
 15 16  2  0
 15 17  1  0
 17 18  1  0
 18 19  2  0
 19 20  1  0
 19 21  1  0
 21 22  1  0
 21 23  2  0
 23 24  1  0
 23 25  1  0
 25 26  1  0
 25 27  2  0
 27 28  1  0
 28 29  1  0
 29 30  1  0
 29 31  1  0
 29 32  1  0
 32 33  1  0
 32 34  1  0
 32 35  1  0
 35 36  1  0
 35 37  1  0
 37 38  1  0
 38 39  2  0
 38 40  2  0
 38 41  1  0
 41 42  1  0
 41 43  1  0
 41 44  1  0
 35 45  1  0
 45 46  1  0
 45 47  1  0
 45 48  1  0
 48 49  1  0
 48 50  1  0
 10 51  2  0
 51 52  1  0
 51  3  1  0
 27 18  1  0
 48 28  1  0
M  CHG  3   5  -1  17  -1  37  -1
M  END
>  <UniqueID>  (19) 
18

>  <SMILES>  (19) 
CS(=O)(=O)[N-]C1CCN(c2c(F)cccc2[N-]C(=O)/C=C\c2ccc([O-])c(O)c2F)CC1

>  <Energy>  (19) 
77.0902168761933

>  <Genealogy>  (19) 
CS(=O)(=O)[N-]C1CCN(c2c(F)cccc2[N-]C(=O)C=Cc2ccc([O-])c(O)c2F)CC1 (protonated)
CS(=O)(=O)[N-]C1CCN(c2c(F)cccc2[N-]C(=O)/C=C\c2ccc([O-])c(O)c2F)CC1 (cis-trans isomerization)
CS(=O)(=O)[N-]C1CCN(c2c(F)cccc2[N-]C(=O)/C=C\c2ccc([O-])c(O)c2F)CC1 (3D coordinates assigned)
CS(=O)(=O)[N-]C1CCN(c2c(F)cccc2[N-]C(=O)/C=C\c2ccc([O-])c(O)c2F)CC1 (nonaromatic ring conformer: 77.0902168761933 kcal/mol)

>  <smiles>  (19) 
CS(=O)(=O)NC1CCN(c2c(F)cccc2NC(=O)C=Cc2ccc(O)c(O)c2F)CC1

>  <score_type>  (19) 
oracle

>  <origin>  (19) 
adg

>  <m_score__min__energy>  (19) 
-15.130000000000001

>  <m_primary>  (19) 
energy

$$$$
19:0
     RDKit          3D

 43 44  0  0  0  0  0  0  0  0999 V2000
   55.6340   30.1470   44.5510 O   0  0  0  0  0  0  0  0  0  0  0  0
   56.8620   30.3580   44.3610 C   0  0  0  0  0  0  0  0  0  0  0  0
   57.3490   31.7510   44.1130 C   0  0  0  0  0  0  0  0  0  0  0  0
   56.7200   32.7030   45.0230 N   0  0  0  0  0  0  0  0  0  0  0  0
   57.3960   33.8550   45.5320 C   0  0  0  0  0  0  0  0  0  0  0  0
   57.3540   34.9280   44.8740 O   0  0  0  0  0  0  0  0  0  0  0  0
   58.0460   33.8250   46.8540 C   0  0  0  0  0  0  0  0  0  0  0  0
   57.5740   33.0720   47.7450 O   0  0  0  0  0  0  0  0  0  0  0  0
   59.1800   34.6420   47.1720 N   0  0  0  0  0  0  0  0  0  0  0  0
   60.4050   34.7420   46.3860 C   0  0  0  0  0  0  0  0  0  0  0  0
   61.4640   33.8400   46.9590 C   0  0  0  0  0  0  0  0  0  0  0  0
   61.1720   32.9780   48.0300 C   0  0  0  0  0  0  0  0  0  0  0  0
   62.1720   32.1660   48.5730 C   0  0  0  0  0  0  0  0  0  0  0  0
   63.4690   32.2110   48.0540 C   0  0  0  0  0  0  0  0  0  0  0  0
   63.7670   33.0670   46.9890 C   0  0  0  0  0  0  0  0  0  0  0  0
   62.7690   33.8780   46.4430 C   0  0  0  0  0  0  0  0  0  0  0  0
   57.7970   29.2760   44.3730 N   0  0  0  0  0  0  0  0  0  0  0  0
   58.6830   28.9730   45.4900 C   0  0  0  0  0  0  0  0  0  0  0  0
   59.1690   27.5240   45.4120 C   0  0  0  0  0  0  0  0  0  0  0  0
   58.0990   26.5770   45.8840 C   0  0  0  0  0  0  0  0  0  0  0  0
   58.4510   25.3480   46.4610 C   0  0  0  0  0  0  0  0  0  0  0  0
   57.4610   24.4540   46.8770 C   0  0  0  0  0  0  0  0  0  0  0  0
   56.1120   24.7790   46.7170 C   0  0  0  0  0  0  0  0  0  0  0  0
   55.1320   23.8880   47.1330 O   0  0  0  0  0  0  0  0  0  0  0  0
   55.7500   26.0030   46.1370 C   0  0  0  0  0  0  0  0  0  0  0  0
   54.4100   26.3350   45.9840 O   0  0  0  0  0  0  0  0  0  0  0  0
   56.7410   26.8940   45.7150 C   0  0  0  0  0  0  0  0  0  0  0  0
   58.4387   31.7811   44.2602 H   0  0  0  0  0  0  0  0  0  0  0  0
   57.0874   32.0317   43.0821 H   0  0  0  0  0  0  0  0  0  0  0  0
   60.1962   34.4438   45.3480 H   0  0  0  0  0  0  0  0  0  0  0  0
   60.7652   35.7810   46.4126 H   0  0  0  0  0  0  0  0  0  0  0  0
   60.1529   32.9422   48.4424 H   0  0  0  0  0  0  0  0  0  0  0  0
   61.9379   31.4911   49.4095 H   0  0  0  0  0  0  0  0  0  0  0  0
   64.2555   31.5730   48.4833 H   0  0  0  0  0  0  0  0  0  0  0  0
   64.7879   33.1018   46.5809 H   0  0  0  0  0  0  0  0  0  0  0  0
   63.0069   34.5495   45.6048 H   0  0  0  0  0  0  0  0  0  0  0  0
   59.5509   29.6480   45.4568 H   0  0  0  0  0  0  0  0  0  0  0  0
   58.1296   29.1121   46.4304 H   0  0  0  0  0  0  0  0  0  0  0  0
   59.4277   27.2857   44.3698 H   0  0  0  0  0  0  0  0  0  0  0  0
   60.0509   27.4118   46.0598 H   0  0  0  0  0  0  0  0  0  0  0  0
   59.5121   25.0866   46.5867 H   0  0  0  0  0  0  0  0  0  0  0  0
   57.7444   23.4930   47.3311 H   0  0  0  0  0  0  0  0  0  0  0  0
   56.4559   27.8483   45.2481 H   0  0  0  0  0  0  0  0  0  0  0  0
  1  2  2  0
  2  3  1  0
  3  4  1  0
  4  5  1  0
  5  6  2  0
  5  7  1  0
  7  8  2  0
  7  9  1  0
  9 10  1  0
 10 11  1  0
 11 12  2  0
 12 13  1  0
 13 14  2  0
 14 15  1  0
 15 16  2  0
  2 17  1  0
 17 18  1  0
 18 19  1  0
 19 20  1  0
 20 21  2  0
 21 22  1  0
 22 23  2  0
 23 24  1  0
 23 25  1  0
 25 26  1  0
 25 27  2  0
 16 11  1  0
 27 20  1  0
  3 28  1  0
  3 29  1  0
 10 30  1  0
 10 31  1  0
 12 32  1  0
 13 33  1  0
 14 34  1  0
 15 35  1  0
 16 36  1  0
 18 37  1  0
 18 38  1  0
 19 39  1  0
 19 40  1  0
 21 41  1  0
 22 42  1  0
 27 43  1  0
M  CHG  5   4  -1   9  -1  17  -1  24  -1  26  -1
M  END
>  <UniqueID>  (20) 
19

>  <SMILES>  (20) 
O=C(C[N-]C(=O)C(=O)[N-]Cc1ccccc1)[N-]CCc1ccc([O-])c([O-])c1

>  <Energy>  (20) 
39.192271653609346

>  <Genealogy>  (20) 
O=C(C[N-]C(=O)C(=O)[N-]Cc1ccccc1)[N-]CCc1ccc([O-])c([O-])c1 (protonated)
O=C(C[N-]C(=O)C(=O)[N-]Cc1ccccc1)[N-]CCc1ccc([O-])c([O-])c1 (3D coordinates assigned)
O=C(C[N-]C(=O)C(=O)[N-]Cc1ccccc1)[N-]CCc1ccc([O-])c([O-])c1 (optimized conformer: 39.192271653609346 kcal/mol)

>  <smiles>  (20) 
O=C(CNC(=O)C(=O)NCc1ccccc1)NCCc1ccc(O)c(O)c1

>  <score_type>  (20) 
oracle

>  <origin>  (20) 
adg

>  <m_score__min__energy>  (20) 
-18.98

>  <m_primary>  (20) 
energy

$$$$
20:0
     RDKit          3D

 48 50  0  0  0  0  0  0  0  0999 V2000
   60.6900   29.3940   48.3580 C   0  0  0  0  0  0  0  0  0  0  0  0
   60.6060   29.2890   46.9400 O   0  0  0  0  0  0  0  0  0  0  0  0
   59.8400   28.3330   46.2520 C   0  0  0  0  0  0  0  0  0  0  0  0
   60.0110   26.9540   46.4720 C   0  0  0  0  0  0  0  0  0  0  0  0
   59.2110   26.0250   45.8060 C   0  0  0  0  0  0  0  0  0  0  0  0
   58.2160   26.4480   44.9130 C   0  0  0  0  0  0  0  0  0  0  0  0
   57.3950   25.4190   44.2260 C   0  0  0  0  0  0  0  0  0  0  0  0
   56.4220   24.7210   44.8290 C   0  0  0  0  0  0  0  0  0  0  0  0
   55.6460   25.2670   45.9560 C   0  0  0  0  0  0  0  0  0  0  0  0
   55.7610   24.7930   47.1170 O   0  0  0  0  0  0  0  0  0  0  0  0
   54.7700   26.3220   45.7320 O   0  0  0  0  0  0  0  0  0  0  0  0
   58.0590   27.8250   44.6710 C   0  0  0  0  0  0  0  0  0  0  0  0
   58.8640   28.7690   45.3330 C   0  0  0  0  0  0  0  0  0  0  0  0
   58.6800   30.2130   45.0490 C   0  0  0  0  0  0  0  0  0  0  0  0
   58.8820   31.1600   46.0540 C   0  0  0  0  0  0  0  0  0  0  0  0
   58.6920   32.5160   45.7900 C   0  0  0  0  0  0  0  0  0  0  0  0
   58.8670   33.3540   46.7770 N   0  0  0  0  0  0  0  0  0  0  0  0
   59.7340   34.4940   46.8540 C   0  0  0  0  0  0  0  0  0  0  0  0
   59.5480   35.4630   46.0720 O   0  0  0  0  0  0  0  0  0  0  0  0
   60.8050   34.5310   47.8070 N   0  0  0  0  0  0  0  0  0  0  0  0
   61.4270   33.5500   48.4080 C   0  0  0  0  0  0  0  0  0  0  0  0
   62.6350   33.1050   47.8380 C   0  0  0  0  0  0  0  0  0  0  0  0
   63.2940   33.8560   46.3870 Cl  0  0  0  0  0  0  0  0  0  0  0  0
   63.3170   32.0250   48.4020 C   0  0  0  0  0  0  0  0  0  0  0  0
   62.8360   31.4220   49.5160 N   0  0  0  0  0  0  0  0  0  0  0  0
   61.7010   31.8470   50.1240 C   0  0  0  0  0  0  0  0  0  0  0  0
   60.9760   32.9280   49.6080 C   0  0  0  0  0  0  0  0  0  0  0  0
   59.6720   33.5370   50.6270 Cl  0  0  0  0  0  0  0  0  0  0  0  0
   58.3640   32.8950   44.4660 C   0  0  0  0  0  0  0  0  0  0  0  0
   58.3220   34.1110   44.1340 O   0  0  0  0  0  0  0  0  0  0  0  0
   58.1400   31.9290   43.5190 N   0  0  0  0  0  0  0  0  0  0  0  0
   57.7750   32.3180   42.1510 C   0  0  0  0  0  0  0  0  0  0  0  0
   58.2980   30.6310   43.8100 N   0  0  0  0  0  0  0  0  0  0  0  0
   60.0666   28.6148   48.8209 H   0  0  0  0  0  0  0  0  0  0  0  0
   61.7354   29.2631   48.6741 H   0  0  0  0  0  0  0  0  0  0  0  0
   60.3328   30.3852   48.6741 H   0  0  0  0  0  0  0  0  0  0  0  0
   60.7819   26.6053   47.1750 H   0  0  0  0  0  0  0  0  0  0  0  0
   59.3623   24.9500   45.9832 H   0  0  0  0  0  0  0  0  0  0  0  0
   57.5963   25.2182   43.1634 H   0  0  0  0  0  0  0  0  0  0  0  0
   56.1954   23.7062   44.4701 H   0  0  0  0  0  0  0  0  0  0  0  0
   57.2972   28.1674   43.9552 H   0  0  0  0  0  0  0  0  0  0  0  0
   59.1923   30.8355   47.0582 H   0  0  0  0  0  0  0  0  0  0  0  0
   64.2475   31.6626   47.9406 H   0  0  0  0  0  0  0  0  0  0  0  0
   61.3462   31.3373   51.0319 H   0  0  0  0  0  0  0  0  0  0  0  0
   57.0227   33.1198   42.1862 H   0  0  0  0  0  0  0  0  0  0  0  0
   58.6694   32.6774   41.6210 H   0  0  0  0  0  0  0  0  0  0  0  0
   57.3595   31.4483   41.6210 H   0  0  0  0  0  0  0  0  0  0  0  0
   58.1180   29.9110   43.0740 H   0  0  0  0  0  0  0  0  0  0  0  0
  1  2  1  0
  2  3  1  0
  3  4  2  0
  4  5  1  0
  5  6  2  0
  6  7  1  0
  7  8  2  3
  8  9  1  0
  9 10  2  0
  9 11  1  0
  6 12  1  0
 12 13  2  0
 13 14  1  0
 14 15  2  0
 15 16  1  0
 16 17  2  3
 17 18  1  0
 18 19  2  0
 18 20  1  0
 20 21  2  3
 21 22  1  0
 22 23  1  0
 22 24  2  0
 24 25  1  0
 25 26  1  0
 26 27  2  0
 27 28  1  0
 16 29  1  0
 29 30  2  0
 29 31  1  0
 31 32  1  0
 31 33  1  0
 13  3  1  0
 33 14  1  0
 27 21  1  0
  1 34  1  0
  1 35  1  0
  1 36  1  0
  4 37  1  0
  5 38  1  0
  7 39  1  0
  8 40  1  0
 12 41  1  0
 15 42  1  0
 24 43  1  0
 26 44  1  0
 32 45  1  0
 32 46  1  0
 32 47  1  0
 33 48  1  0
M  CHG  2  11  -1  25  -1
M  END
>  <UniqueID>  (21) 
20

>  <SMILES>  (21) 
COc1ccc(C=CC(=O)[O-])cc1-c1cc(=NC(=O)N=c2c(Cl)c[n-]cc2Cl)c(=O)n(C)[nH]1

>  <Energy>  (21) 
88.8848648425691

>  <Genealogy>  (21) 
COc1ccc(C=CC(=O)[O-])cc1-c1cc(=NC(=O)N=c2c(Cl)c[n-]cc2Cl)c(=O)n(C)[nH]1 (protonated)
COc1ccc(C=CC(=O)[O-])cc1-c1cc(=NC(=O)N=c2c(Cl)c[n-]cc2Cl)c(=O)n(C)[nH]1 (3D coordinates assigned)
COc1ccc(C=CC(=O)[O-])cc1-c1cc(=NC(=O)N=c2c(Cl)c[n-]cc2Cl)c(=O)n(C)[nH]1 (optimized conformer: 88.8848648425691 kcal/mol)

>  <smiles>  (21) 
COc1ccc(C=CC(=O)O)cc1-c1cc(=NC(=O)N=c2c(Cl)c[nH]cc2Cl)c(=O)n(C)[nH]1

>  <score_type>  (21) 
oracle

>  <origin>  (21) 
adg

>  <m_score__min__energy>  (21) 
-13.779999999999999

>  <m_primary>  (21) 
energy

$$$$
21:0
     RDKit          3D

 50 52  0  0  0  0  0  0  0  0999 V2000
   58.0300   29.5350   47.1220 O   0  0  0  0  0  0  0  0  0  0  0  0
   59.2210   29.9030   46.9290 C   0  0  0  0  0  0  0  0  0  0  0  0
   60.1490   28.9390   46.2390 C   0  0  0  0  0  0  0  0  0  0  0  0
   59.4570   28.3980   44.6360 S   0  0  0  0  0  0  0  0  0  0  0  0
   58.3630   27.1620   45.3390 C   0  0  0  0  0  0  0  0  0  0  0  0
   58.8790   25.9380   45.7860 C   0  0  0  0  0  0  0  0  0  0  0  0
   58.0220   24.9690   46.3140 C   0  0  0  0  0  0  0  0  0  0  0  0
   56.6490   25.2220   46.4050 C   0  0  0  0  0  0  0  0  0  0  0  0
   56.1320   26.4470   45.9710 C   0  0  0  0  0  0  0  0  0  0  0  0
   54.7700   26.6990   46.0620 O   0  0  0  0  0  0  0  0  0  0  0  0
   56.9900   27.4200   45.4420 C   0  0  0  0  0  0  0  0  0  0  0  0
   59.6210   31.2420   47.3110 N   0  0  0  0  0  0  0  0  0  0  0  0
   59.2790   32.3670   46.4270 C   0  0  0  0  0  0  0  0  0  0  0  0
   57.7830   32.3520   46.0910 C   0  0  0  0  0  0  0  0  0  0  0  0
   57.5650   32.0720   44.6230 C   0  0  0  0  0  0  0  0  0  0  0  0
   58.1970   32.8980   43.6760 C   0  0  0  0  0  0  0  0  0  0  0  0
   58.0350   32.6660   42.3080 C   0  0  0  0  0  0  0  0  0  0  0  0
   57.2500   31.6010   41.8690 C   0  0  0  0  0  0  0  0  0  0  0  0
   56.6300   30.7610   42.7960 C   0  0  0  0  0  0  0  0  0  0  0  0
   56.7850   30.9780   44.1700 C   0  0  0  0  0  0  0  0  0  0  0  0
   56.1580   30.0900   45.0480 O   0  0  0  0  0  0  0  0  0  0  0  0
   60.1980   31.5430   48.6320 C   0  0  0  0  0  0  0  0  0  0  0  0
   61.4620   32.3510   48.4930 C   0  0  0  0  0  0  0  0  0  0  0  0
   62.4390   31.9890   47.5490 C   0  0  0  0  0  0  0  0  0  0  0  0
   63.6150   32.7350   47.4300 C   0  0  0  0  0  0  0  0  0  0  0  0
   63.8250   33.8480   48.2490 C   0  0  0  0  0  0  0  0  0  0  0  0
   62.8580   34.2170   49.1870 C   0  0  0  0  0  0  0  0  0  0  0  0
   61.6790   33.4750   49.3080 C   0  0  0  0  0  0  0  0  0  0  0  0
   61.1164   29.4329   46.0650 H   0  0  0  0  0  0  0  0  0  0  0  0
   60.2777   28.0554   46.8815 H   0  0  0  0  0  0  0  0  0  0  0  0
   59.9591   25.7401   45.7211 H   0  0  0  0  0  0  0  0  0  0  0  0
   58.4272   24.0061   46.6585 H   0  0  0  0  0  0  0  0  0  0  0  0
   55.9755   24.4568   46.8183 H   0  0  0  0  0  0  0  0  0  0  0  0
   56.5855   28.3867   45.1075 H   0  0  0  0  0  0  0  0  0  0  0  0
   59.5269   33.3123   46.9320 H   0  0  0  0  0  0  0  0  0  0  0  0
   59.8537   32.2729   45.4938 H   0  0  0  0  0  0  0  0  0  0  0  0
   57.2880   31.5693   46.6847 H   0  0  0  0  0  0  0  0  0  0  0  0
   57.3588   33.3388   46.3281 H   0  0  0  0  0  0  0  0  0  0  0  0
   58.8249   33.7348   44.0159 H   0  0  0  0  0  0  0  0  0  0  0  0
   58.5272   33.3241   41.5768 H   0  0  0  0  0  0  0  0  0  0  0  0
   57.1189   31.4223   40.7916 H   0  0  0  0  0  0  0  0  0  0  0  0
   56.0139   29.9208   42.4432 H   0  0  0  0  0  0  0  0  0  0  0  0
   56.2930   30.1040   46.0480 H   0  0  0  0  0  0  0  0  0  0  0  0
   59.4674   32.1153   49.2226 H   0  0  0  0  0  0  0  0  0  0  0  0
   60.4394   30.5951   49.1352 H   0  0  0  0  0  0  0  0  0  0  0  0
   62.2772   31.1148   46.9012 H   0  0  0  0  0  0  0  0  0  0  0  0
   64.3764   32.4457   46.6907 H   0  0  0  0  0  0  0  0  0  0  0  0
   64.7516   34.4332   48.1549 H   0  0  0  0  0  0  0  0  0  0  0  0
   63.0242   35.0927   49.8316 H   0  0  0  0  0  0  0  0  0  0  0  0
   60.9180   33.7725   50.0444 H   0  0  0  0  0  0  0  0  0  0  0  0
  1  2  2  0
  2  3  1  0
  3  4  1  0
  4  5  1  0
  5  6  2  0
  6  7  1  0
  7  8  2  0
  8  9  1  0
  9 10  1  0
  9 11  2  0
  2 12  1  0
 12 13  1  0
 13 14  1  0
 14 15  1  0
 15 16  2  0
 16 17  1  0
 17 18  2  0
 18 19  1  0
 19 20  2  0
 20 21  1  0
 12 22  1  0
 22 23  1  0
 23 24  2  0
 24 25  1  0
 25 26  2  0
 26 27  1  0
 27 28  2  0
 11  5  1  0
 20 15  1  0
 28 23  1  0
  3 29  1  0
  3 30  1  0
  6 31  1  0
  7 32  1  0
  8 33  1  0
 11 34  1  0
 13 35  1  0
 13 36  1  0
 14 37  1  0
 14 38  1  0
 16 39  1  0
 17 40  1  0
 18 41  1  0
 19 42  1  0
 21 43  1  0
 22 44  1  0
 22 45  1  0
 24 46  1  0
 25 47  1  0
 26 48  1  0
 27 49  1  0
 28 50  1  0
M  CHG  1  10  -1
M  END
>  <UniqueID>  (22) 
21

>  <SMILES>  (22) 
O=C(CSc1cccc([O-])c1)N(CCc1ccccc1O)Cc1ccccc1

>  <Energy>  (22) 
44.88319446812186

>  <Genealogy>  (22) 
O=C(CSc1cccc([O-])c1)N(CCc1ccccc1O)Cc1ccccc1 (protonated)
O=C(CSc1cccc([O-])c1)N(CCc1ccccc1O)Cc1ccccc1 (3D coordinates assigned)
O=C(CSc1cccc([O-])c1)N(CCc1ccccc1O)Cc1ccccc1 (optimized conformer: 44.88319446812186 kcal/mol)

>  <smiles>  (22) 
O=C(CSc1cccc(O)c1)N(CCc1ccccc1O)Cc1ccccc1

>  <score_type>  (22) 
oracle

>  <origin>  (22) 
adg

>  <m_score__min__energy>  (22) 
-13.15

>  <m_primary>  (22) 
energy

$$$$
22:0
     RDKit          3D

 45 49  0  0  0  0  0  0  0  0999 V2000
   54.3850   29.3380   44.5880 H   0  0  0  0  0  0  0  0  0  0  0  0
   55.3860   29.4250   44.8740 N   0  0  0  0  0  0  0  0  0  0  0  0
   56.4180   29.5700   43.8980 C   0  0  0  0  0  0  0  0  0  0  0  0
   56.6850   28.5920   43.1490 O   0  0  0  0  0  0  0  0  0  0  0  0
   57.1560   30.8570   43.7690 C   0  0  0  0  0  0  0  0  0  0  0  0
   57.3270   31.4210   42.4880 C   0  0  0  0  0  0  0  0  0  0  0  0
   56.9133   30.9062   41.6083 H   0  0  0  0  0  0  0  0  0  0  0  0
   58.0150   32.6250   42.3220 C   0  0  0  0  0  0  0  0  0  0  0  0
   58.1494   33.0462   41.3148 H   0  0  0  0  0  0  0  0  0  0  0  0
   58.5310   33.2930   43.4290 C   0  0  0  0  0  0  0  0  0  0  0  0
   59.0657   34.2450   43.2960 H   0  0  0  0  0  0  0  0  0  0  0  0
   58.3710   32.7570   44.7060 C   0  0  0  0  0  0  0  0  0  0  0  0
   58.7666   33.2994   45.5774 H   0  0  0  0  0  0  0  0  0  0  0  0
   57.7080   31.5280   44.8920 C   0  0  0  0  0  0  0  0  0  0  0  0
   57.5010   31.0090   46.2180 N   0  0  0  0  0  0  0  0  0  0  0  0
   58.3390   30.3020   46.9170 C   0  0  0  0  0  0  0  0  0  0  0  0
   58.4580   28.9740   46.6570 N   0  0  0  0  0  0  0  0  0  0  0  0
   59.3620   28.2550   47.3610 C   0  0  0  0  0  0  0  0  0  0  0  0
   59.6240   26.9010   47.2820 C   0  0  0  0  0  0  0  0  0  0  0  0
   59.0930   25.9560   46.4920 C   0  0  0  0  0  0  0  0  0  0  0  0
   59.7013   25.5807   45.6559 H   0  0  0  0  0  0  0  0  0  0  0  0
   57.7460   25.3900   46.6750 C   0  0  0  0  0  0  0  0  0  0  0  0
   57.5240   24.1370   47.1050 N   0  0  0  0  0  0  0  0  0  0  0  0
   56.1790   24.0060   47.0580 C   0  0  0  0  0  0  0  0  0  0  0  0
   55.6538   23.0909   47.3690 H   0  0  0  0  0  0  0  0  0  0  0  0
   55.5390   25.1020   46.5940 N   0  0  0  0  0  0  0  0  0  0  0  0
   56.5370   25.9660   46.3510 C   0  0  0  0  0  0  0  0  0  0  0  0
   56.3390   27.2480   45.7530 N   0  0  0  0  0  0  0  0  0  0  0  0
   56.4950   28.1150   46.3130 H   0  0  0  0  0  0  0  0  0  0  0  0
   56.0180   27.3380   44.7640 H   0  0  0  0  0  0  0  0  0  0  0  0
   60.5750   26.6980   48.2720 C   0  0  0  0  0  0  0  0  0  0  0  0
   61.0293   25.7284   48.5241 H   0  0  0  0  0  0  0  0  0  0  0  0
   60.8590   27.8720   48.8800 N   0  0  0  0  0  0  0  0  0  0  0  0
   60.1190   28.8140   48.3180 N   0  0  0  0  0  0  0  0  0  0  0  0
   60.0280   30.1530   48.5950 C   0  0  0  0  0  0  0  0  0  0  0  0
   60.7330   30.8040   49.4910 N   0  0  0  0  0  0  0  0  0  0  0  0
   61.7980   31.8170   49.6290 C   0  0  0  0  0  0  0  0  0  0  0  0
   61.8795   31.6632   50.7152 H   0  0  0  0  0  0  0  0  0  0  0  0
   62.7930   31.9460   48.4980 C   0  0  0  0  0  0  0  0  0  0  0  0
   63.8512   32.1530   48.7154 H   0  0  0  0  0  0  0  0  0  0  0  0
   63.0930   31.3178   47.6463 H   0  0  0  0  0  0  0  0  0  0  0  0
   61.7310   33.0330   48.7320 C   0  0  0  0  0  0  0  0  0  0  0  0
   62.0273   34.0197   49.1174 H   0  0  0  0  0  0  0  0  0  0  0  0
   60.9521   33.5091   48.1183 H   0  0  0  0  0  0  0  0  0  0  0  0
   59.1300   30.8780   47.8720 N   0  0  0  0  0  0  0  0  0  0  0  0
  1  2  1  0
  2  3  1  0
  3  4  2  0
  3  5  1  0
  5  6  2  0
  6  7  1  0
  6  8  1  0
  8  9  1  0
  8 10  2  0
 10 11  1  0
 10 12  1  0
 12 13  1  0
 12 14  2  0
 14 15  1  0
 15 16  2  3
 16 17  1  0
 17 18  2  0
 18 19  1  0
 19 20  2  0
 20 21  1  0
 20 22  1  0
 22 23  1  0
 23 24  2  0
 24 25  1  0
 24 26  1  0
 26 27  1  0
 27 28  1  0
 28 29  1  0
 28 30  1  0
 19 31  1  0
 31 32  1  0
 31 33  2  0
 33 34  1  0
 34 35  1  0
 35 36  2  3
 36 37  1  0
 37 38  1  0
 37 39  1  0
 39 40  1  0
 39 41  1  0
 39 42  1  0
 42 43  1  0
 42 44  1  0
 35 45  1  0
 14  5  1  0
 45 16  1  0
 34 18  1  0
 42 37  1  0
 27 22  2  0
M  CHG  3   2  -1  26  -1  45  -1
M  END
>  <UniqueID>  (23) 
22

>  <SMILES>  (23) 
[NH-]C(=O)c1ccccc1N=c1nc2/c(=C\c3nc[n-]c3N)cnn2c(=NC2CC2)[n-]1

>  <Energy>  (23) 
422.8245678200456

>  <Genealogy>  (23) 
[NH-]C(=O)c1ccccc1N=c1nc2c(=Cc3nc[n-]c3N)cnn2c(=NC2CC2)[n-]1 (protonated)
[NH-]C(=O)c1ccccc1N=c1nc2/c(=C\c3nc[n-]c3N)cnn2c(=NC2CC2)[n-]1 (cis-trans isomerization)
[NH-]C(=O)c1ccccc1N=c1nc2/c(=C\c3nc[n-]c3N)cnn2c(=NC2CC2)[n-]1 (3D coordinates assigned)
[NH-]C(=O)c1ccccc1N=c1nc2/c(=C\c3nc[n-]c3N)cnn2c(=NC2CC2)[n-]1 (nonaromatic ring conformer: 422.8245678200456 kcal/mol)

>  <smiles>  (23) 
NC(=O)c1ccccc1N=c1nc2c(=Cc3nc[nH]c3N)cnn2c(=NC2CC2)[nH]1

>  <score_type>  (23) 
oracle

>  <origin>  (23) 
adg

>  <m_score__min__energy>  (23) 
-13.73

>  <m_primary>  (23) 
energy

$$$$
23:0
     RDKit          3D

 32 34  0  0  0  0  0  0  0  0999 V2000
   57.2210   28.4940   43.4970 O   0  0  0  0  0  0  0  0  0  0  0  0
   57.1260   28.6310   44.7440 C   0  0  0  0  0  0  0  0  0  0  0  0
   56.6730   29.8860   45.2680 N   0  0  0  0  0  0  0  0  0  0  0  0
   57.3960   31.1260   45.2430 C   0  0  0  0  0  0  0  0  0  0  0  0
   57.4820   31.9080   44.0790 C   0  0  0  0  0  0  0  0  0  0  0  0
   58.1810   33.1170   44.0940 C   0  0  0  0  0  0  0  0  0  0  0  0
   58.7830   33.5750   45.2750 C   0  0  0  0  0  0  0  0  0  0  0  0
   58.7020   32.7930   46.4450 C   0  0  0  0  0  0  0  0  0  0  0  0
   57.9870   31.5860   46.4240 C   0  0  0  0  0  0  0  0  0  0  0  0
   59.2960   33.2790   47.7410 C   0  0  0  0  0  0  0  0  0  0  0  0
   60.3130   34.4040   47.5160 C   0  0  0  0  0  0  0  0  0  0  0  0
   59.7780   35.4180   46.5970 N   0  0  0  0  0  0  0  0  0  0  0  0
   59.5890   34.8530   45.2540 C   0  0  0  0  0  0  0  0  0  0  0  0
   57.4650   27.4860   45.6160 C   0  0  0  0  0  0  0  0  0  0  0  0
   58.7700   27.2720   45.9360 N   0  0  0  0  0  0  0  0  0  0  0  0
   59.1430   26.2410   46.7360 C   0  0  0  0  0  0  0  0  0  0  0  0
   60.3570   26.0740   47.0210 O   0  0  0  0  0  0  0  0  0  0  0  0
   58.2080   25.3900   47.2310 N   0  0  0  0  0  0  0  0  0  0  0  0
   56.8930   25.5460   46.9270 C   0  0  0  0  0  0  0  0  0  0  0  0
   56.0460   24.7380   47.3910 O   0  0  0  0  0  0  0  0  0  0  0  0
   56.4880   26.5970   46.0980 C   0  0  0  0  0  0  0  0  0  0  0  0
   55.1480   26.7290   45.7440 O   0  0  0  0  0  0  0  0  0  0  0  0
   56.9970   31.5668   43.1525 H   0  0  0  0  0  0  0  0  0  0  0  0
   58.2599   33.7140   43.1734 H   0  0  0  0  0  0  0  0  0  0  0  0
   57.8902   30.9950   47.3467 H   0  0  0  0  0  0  0  0  0  0  0  0
   58.4868   33.6543   48.3847 H   0  0  0  0  0  0  0  0  0  0  0  0
   59.8194   32.4352   48.2143 H   0  0  0  0  0  0  0  0  0  0  0  0
   60.5444   34.8787   48.4809 H   0  0  0  0  0  0  0  0  0  0  0  0
   61.2224   33.9723   47.0725 H   0  0  0  0  0  0  0  0  0  0  0  0
   58.8540   35.7540   46.9570 H   0  0  0  0  0  0  0  0  0  0  0  0
   59.0638   35.5917   44.6307 H   0  0  0  0  0  0  0  0  0  0  0  0
   60.5830   34.6160   44.8469 H   0  0  0  0  0  0  0  0  0  0  0  0
  1  2  2  0
  2  3  1  0
  3  4  1  0
  4  5  2  0
  5  6  1  0
  6  7  2  0
  7  8  1  0
  8  9  2  0
  8 10  1  0
 10 11  1  0
 11 12  1  0
 12 13  1  0
  2 14  1  0
 14 15  1  0
 15 16  1  0
 16 17  2  0
 16 18  1  0
 18 19  1  0
 19 20  2  0
 19 21  1  0
 21 22  1  0
  9  4  1  0
 21 14  2  0
 13  7  1  0
  5 23  1  0
  6 24  1  0
  9 25  1  0
 10 26  1  0
 10 27  1  0
 11 28  1  0
 11 29  1  0
 12 30  1  0
 13 31  1  0
 13 32  1  0
M  CHG  4   3  -1  15  -1  18  -1  22  -1
M  END
>  <UniqueID>  (24) 
23

>  <SMILES>  (24) 
O=C([N-]c1ccc2c(c1)CCNC2)c1[n-]c(=O)[n-]c(=O)c1[O-]

>  <Energy>  (24) 
45.406544872703556

>  <Genealogy>  (24) 
O=C([N-]c1ccc2c(c1)CCNC2)c1[n-]c(=O)[n-]c(=O)c1[O-] (protonated)
O=C([N-]c1ccc2c(c1)CCNC2)c1[n-]c(=O)[n-]c(=O)c1[O-] (3D coordinates assigned)
O=C([N-]c1ccc2c(c1)CCNC2)c1[n-]c(=O)[n-]c(=O)c1[O-] (nonaromatic ring conformer: 45.406544872703556 kcal/mol)

>  <smiles>  (24) 
O=C(Nc1ccc2c(c1)CCNC2)c1[nH]c(=O)[nH]c(=O)c1O

>  <score_type>  (24) 
oracle

>  <origin>  (24) 
adg

>  <m_score__min__energy>  (24) 
-15.94

>  <m_primary>  (24) 
energy

$$$$
24:0
     RDKit          3D

 30 32  0  0  0  0  0  0  0  0999 V2000
   56.7847   21.9497   42.7169 H   0  0  0  0  0  0  0  0  0  0  0  0
   56.9010   21.8290   43.8040 C   0  0  0  0  0  0  0  0  0  0  0  0
   57.2910   22.8840   44.5670 N   0  0  0  0  0  0  0  0  0  0  0  0
   57.4560   22.7800   45.9170 C   0  0  0  0  0  0  0  0  0  0  0  0
   57.8200   23.8070   46.6320 N   0  0  0  0  0  0  0  0  0  0  0  0
   57.0960   25.0380   46.7950 C   0  0  0  0  0  0  0  0  0  0  0  0
   56.0660   25.0390   47.5210 O   0  0  0  0  0  0  0  0  0  0  0  0
   57.5350   26.3100   46.1710 C   0  0  0  0  0  0  0  0  0  0  0  0
   58.9050   26.5400   45.9880 C   0  0  0  0  0  0  0  0  0  0  0  0
   59.6323   25.7745   46.2962 H   0  0  0  0  0  0  0  0  0  0  0  0
   59.3540   27.7300   45.4190 C   0  0  0  0  0  0  0  0  0  0  0  0
   60.4329   27.9001   45.2886 H   0  0  0  0  0  0  0  0  0  0  0  0
   58.4410   28.7110   45.0120 C   0  0  0  0  0  0  0  0  0  0  0  0
   58.9070   29.9070   44.4470 C   0  0  0  0  0  0  0  0  0  0  0  0
   59.9880   30.0716   44.3277 H   0  0  0  0  0  0  0  0  0  0  0  0
   58.0060   30.8880   44.0360 C   0  0  0  0  0  0  0  0  0  0  0  0
   58.3779   31.8244   43.5947 H   0  0  0  0  0  0  0  0  0  0  0  0
   56.6350   30.6850   44.1830 C   0  0  0  0  0  0  0  0  0  0  0  0
   55.9305   31.4638   43.8556 H   0  0  0  0  0  0  0  0  0  0  0  0
   56.1470   29.5000   44.7430 C   0  0  0  0  0  0  0  0  0  0  0  0
   54.7700   29.3490   44.8720 O   0  0  0  0  0  0  0  0  0  0  0  0
   57.0460   28.4910   45.1680 C   0  0  0  0  0  0  0  0  0  0  0  0
   56.6010   27.2740   45.7390 C   0  0  0  0  0  0  0  0  0  0  0  0
   55.2400   27.0050   45.8620 O   0  0  0  0  0  0  0  0  0  0  0  0
   57.1990   21.5540   46.5480 C   0  0  0  0  0  0  0  0  0  0  0  0
   57.3440   21.4190   47.9260 O   0  0  0  0  0  0  0  0  0  0  0  0
   56.7960   20.4580   45.7810 C   0  0  0  0  0  0  0  0  0  0  0  0
   56.5957   19.4908   46.2651 H   0  0  0  0  0  0  0  0  0  0  0  0
   56.6480   20.5920   44.4000 C   0  0  0  0  0  0  0  0  0  0  0  0
   56.3356   19.7330   43.7880 H   0  0  0  0  0  0  0  0  0  0  0  0
  1  2  1  0
  2  3  1  0
  3  4  1  0
  4  5  2  0
  5  6  1  0
  6  7  2  0
  6  8  1  0
  8  9  2  0
  9 10  1  0
  9 11  1  0
 11 12  1  0
 11 13  2  0
 13 14  1  0
 14 15  1  0
 14 16  2  0
 16 17  1  0
 16 18  1  0
 18 19  1  0
 18 20  2  0
 20 21  1  0
 20 22  1  0
 22 23  2  0
 23 24  1  0
  4 25  1  0
 25 26  1  0
 25 27  2  0
 27 28  1  0
 27 29  1  0
 29 30  1  0
 29  2  2  0
 23  8  1  0
 22 13  1  0
M  CHG  4   3  -1  21  -1  24  -1  26  -1
M  END
>  <UniqueID>  (25) 
24

>  <SMILES>  (25) 
O=C(/N=c1\[n-]cccc1[O-])c1ccc2cccc([O-])c2c1[O-]

>  <Energy>  (25) 
49.65727010680082

>  <Genealogy>  (25) 
O=C(N=c1[n-]cccc1[O-])c1ccc2cccc([O-])c2c1[O-] (protonated)
O=C(/N=c1\[n-]cccc1[O-])c1ccc2cccc([O-])c2c1[O-] (cis-trans isomerization)
O=C(/N=c1\[n-]cccc1[O-])c1ccc2cccc([O-])c2c1[O-] (3D coordinates assigned)
O=C(/N=c1\[n-]cccc1[O-])c1ccc2cccc([O-])c2c1[O-] (optimized conformer: 49.65727010680082 kcal/mol)

>  <smiles>  (25) 
O=C(N=c1[nH]cccc1O)c1ccc2cccc(O)c2c1O

>  <score_type>  (25) 
oracle

>  <origin>  (25) 
adg

>  <m_score__min__energy>  (25) 
-18.050000000000001

>  <m_primary>  (25) 
energy

$$$$
25:0
     RDKit          3D

 36 37  0  0  0  0  0  0  0  0999 V2000
   59.3660   30.1010   47.0720 H   0  0  0  0  0  0  0  0  0  0  0  0
   58.6920   30.8170   47.3150 O   0  0  0  0  0  0  0  0  0  0  0  0
   58.3940   31.8930   46.4750 C   0  0  0  0  0  0  0  0  0  0  0  0
   58.4980   33.1950   46.9880 C   0  0  0  0  0  0  0  0  0  0  0  0
   58.8970   33.3580   48.3240 O   0  0  0  0  0  0  0  0  0  0  0  0
   60.2420   33.5520   48.7480 C   0  0  0  0  0  0  0  0  0  0  0  0
   60.2827   33.5579   49.8472 H   0  0  0  0  0  0  0  0  0  0  0  0
   60.8695   32.7351   48.3622 H   0  0  0  0  0  0  0  0  0  0  0  0
   60.6131   34.5130   48.3622 H   0  0  0  0  0  0  0  0  0  0  0  0
   58.2030   34.2930   46.1570 C   0  0  0  0  0  0  0  0  0  0  0  0
   58.2889   35.3164   46.5512 H   0  0  0  0  0  0  0  0  0  0  0  0
   57.8020   34.0890   44.8350 C   0  0  0  0  0  0  0  0  0  0  0  0
   57.5698   34.9516   44.1931 H   0  0  0  0  0  0  0  0  0  0  0  0
   57.6950   32.7950   44.3260 C   0  0  0  0  0  0  0  0  0  0  0  0
   57.3677   32.6404   43.2873 H   0  0  0  0  0  0  0  0  0  0  0  0
   58.0030   31.6900   45.1330 C   0  0  0  0  0  0  0  0  0  0  0  0
   57.8430   30.3310   44.5850 C   0  0  0  0  0  0  0  0  0  0  0  0
   56.8242   29.9975   44.3384 H   0  0  0  0  0  0  0  0  0  0  0  0
   58.8490   29.4710   44.3650 C   0  0  0  0  0  0  0  0  0  0  0  0
   58.9706   29.0939   43.3389 H   0  0  0  0  0  0  0  0  0  0  0  0
   59.8130   28.9830   45.3840 C   0  0  0  0  0  0  0  0  0  0  0  0
   61.0210   29.3360   45.3530 O   0  0  0  0  0  0  0  0  0  0  0  0
   59.4060   28.0430   46.3870 N   0  0  0  0  0  0  0  0  0  0  0  0
   58.4420   26.9940   46.2250 C   0  0  0  0  0  0  0  0  0  0  0  0
   58.8310   25.6670   45.9920 C   0  0  0  0  0  0  0  0  0  0  0  0
   59.8995   25.4075   45.9595 H   0  0  0  0  0  0  0  0  0  0  0  0
   57.8680   24.6730   45.8010 C   0  0  0  0  0  0  0  0  0  0  0  0
   58.1859   23.6337   45.6314 H   0  0  0  0  0  0  0  0  0  0  0  0
   56.4950   24.9860   45.8230 C   0  0  0  0  0  0  0  0  0  0  0  0
   55.4930   23.9090   45.6200 C   0  0  0  0  0  0  0  0  0  0  0  0
   54.7240   23.5710   46.5590 O   0  0  0  0  0  0  0  0  0  0  0  0
   55.3810   23.2530   44.4000 O   0  0  0  0  0  0  0  0  0  0  0  0
   56.1100   26.3300   46.0310 C   0  0  0  0  0  0  0  0  0  0  0  0
   54.7700   26.7020   46.0510 O   0  0  0  0  0  0  0  0  0  0  0  0
   57.0820   27.3190   46.2190 C   0  0  0  0  0  0  0  0  0  0  0  0
   56.7725   28.3646   46.3638 H   0  0  0  0  0  0  0  0  0  0  0  0
  1  2  1  0
  2  3  1  0
  3  4  2  0
  4  5  1  0
  5  6  1  0
  6  7  1  0
  6  8  1  0
  6  9  1  0
  4 10  1  0
 10 11  1  0
 10 12  2  0
 12 13  1  0
 12 14  1  0
 14 15  1  0
 14 16  2  0
 16 17  1  0
 17 18  1  0
 17 19  2  0
 19 20  1  0
 19 21  1  0
 21 22  2  0
 21 23  1  0
 23 24  1  0
 24 25  2  0
 25 26  1  0
 25 27  1  0
 27 28  1  0
 27 29  2  0
 29 30  1  0
 30 31  2  0
 30 32  1  0
 29 33  1  0
 33 34  1  0
 33 35  2  0
 35 36  1  0
 16  3  1  0
 35 24  1  0
M  CHG  3  23  -1  32  -1  34  -1
M  END
>  <UniqueID>  (26) 
25

>  <SMILES>  (26) 
COc1cccc(/C=C\C(=O)[N-]c2ccc(C(=O)[O-])c([O-])c2)c1O

>  <Energy>  (26) 
53.21514930943058

>  <Genealogy>  (26) 
COc1cccc(C=CC(=O)[N-]c2ccc(C(=O)[O-])c([O-])c2)c1O (protonated)
COc1cccc(/C=C\C(=O)[N-]c2ccc(C(=O)[O-])c([O-])c2)c1O (cis-trans isomerization)
COc1cccc(/C=C\C(=O)[N-]c2ccc(C(=O)[O-])c([O-])c2)c1O (3D coordinates assigned)
COc1cccc(/C=C\C(=O)[N-]c2ccc(C(=O)[O-])c([O-])c2)c1O (optimized conformer: 53.21514930943058 kcal/mol)

>  <smiles>  (26) 
COc1cccc(C=CC(=O)Nc2ccc(C(=O)O)c(O)c2)c1O

>  <score_type>  (26) 
oracle

>  <origin>  (26) 
adg

>  <m_score__min__energy>  (26) 
-14.08

>  <m_primary>  (26) 
energy

$$$$
26:0
     RDKit          3D

 63 67  0  0  0  0  0  0  0  0999 V2000
   51.7850   29.8920   53.9700 O   0  0  0  0  0  0  0  0  0  0  0  0
   52.6950   29.9260   53.0960 C   0  0  0  0  0  0  0  0  0  0  0  0
   53.0200   31.2180   52.4180 C   0  0  0  0  0  0  0  0  0  0  0  0
   52.2720   31.3240   51.1670 N   0  0  0  0  0  0  0  0  0  0  0  0
   51.3600   32.2510   50.8370 C   0  0  0  0  0  0  0  0  0  0  0  0
   51.0200   33.3430   51.6240 O   0  0  0  0  0  0  0  0  0  0  0  0
   50.8210   31.9410   49.6090 C   0  0  0  0  0  0  0  0  0  0  0  0
   51.3840   30.7990   49.1580 N   0  0  0  0  0  0  0  0  0  0  0  0
   52.2480   30.4540   50.1370 C   0  0  0  0  0  0  0  0  0  0  0  0
   52.9650   29.4190   50.0820 O   0  0  0  0  0  0  0  0  0  0  0  0
   53.3740   28.7280   52.7050 N   0  0  0  0  0  0  0  0  0  0  0  0
   54.7870   28.6720   52.3510 C   0  0  0  0  0  0  0  0  0  0  0  0
   55.6200   29.3400   53.4300 C   0  0  0  0  0  0  0  0  0  0  0  0
   55.2320   29.3220   54.8010 C   0  0  0  0  0  0  0  0  0  0  0  0
   54.1630   28.5640   55.2900 O   0  0  0  0  0  0  0  0  0  0  0  0
   55.9340   30.0970   55.7310 C   0  0  0  0  0  0  0  0  0  0  0  0
   56.9930   30.9080   55.3320 C   0  0  0  0  0  0  0  0  0  0  0  0
   57.3880   30.9290   53.9990 C   0  0  0  0  0  0  0  0  0  0  0  0
   56.7410   30.1290   53.0510 C   0  0  0  0  0  0  0  0  0  0  0  0
   57.2200   30.1680   51.7000 N   0  0  0  0  0  0  0  0  0  0  0  0
   57.9640   31.2580   51.1390 C   0  0  0  0  0  0  0  0  0  0  0  0
   57.6370   32.4370   51.4360 O   0  0  0  0  0  0  0  0  0  0  0  0
   59.0810   31.0310   50.1980 C   0  0  0  0  0  0  0  0  0  0  0  0
   58.9200   31.3460   48.8400 C   0  0  0  0  0  0  0  0  0  0  0  0
   59.9470   31.0850   47.9170 C   0  0  0  0  0  0  0  0  0  0  0  0
   59.7240   31.3250   46.4440 C   0  0  0  0  0  0  0  0  0  0  0  0
   58.4830   30.6320   45.9350 C   0  0  0  0  0  0  0  0  0  0  0  0
   57.5420   31.3880   45.3120 N   0  0  0  0  0  0  0  0  0  0  0  0
   56.4360   30.8590   44.7930 N   0  0  0  0  0  0  0  0  0  0  0  0
   56.1920   29.5280   44.8510 C   0  0  0  0  0  0  0  0  0  0  0  0
   55.1310   29.0750   44.3460 O   0  0  0  0  0  0  0  0  0  0  0  0
   57.1180   28.6740   45.4710 C   0  0  0  0  0  0  0  0  0  0  0  0
   58.2740   29.2370   46.0640 C   0  0  0  0  0  0  0  0  0  0  0  0
   59.3230   28.3540   46.7170 C   0  0  0  0  0  0  0  0  0  0  0  0
   58.8040   26.9580   47.0710 C   0  0  0  0  0  0  0  0  0  0  0  0
   58.0530   26.3570   45.8880 C   0  0  0  0  0  0  0  0  0  0  0  0
   56.8140   27.1930   45.5750 C   0  0  0  0  0  0  0  0  0  0  0  0
   61.1450   30.5100   48.3710 C   0  0  0  0  0  0  0  0  0  0  0  0
   61.3220   30.2290   49.7260 C   0  0  0  0  0  0  0  0  0  0  0  0
   60.2980   30.4890   50.6400 C   0  0  0  0  0  0  0  0  0  0  0  0
   60.5070   30.2380   51.9570 F   0  0  0  0  0  0  0  0  0  0  0  0
   52.7479   32.0550   53.0779 H   0  0  0  0  0  0  0  0  0  0  0  0
   54.0977   31.2521   52.2001 H   0  0  0  0  0  0  0  0  0  0  0  0
   50.0556   32.5282   49.0804 H   0  0  0  0  0  0  0  0  0  0  0  0
   55.0959   27.6210   52.2508 H   0  0  0  0  0  0  0  0  0  0  0  0
   54.9414   29.1990   51.3979 H   0  0  0  0  0  0  0  0  0  0  0  0
   53.2520   28.5090   54.8610 H   0  0  0  0  0  0  0  0  0  0  0  0
   55.6451   30.0650   56.7919 H   0  0  0  0  0  0  0  0  0  0  0  0
   57.5170   31.5319   56.0710 H   0  0  0  0  0  0  0  0  0  0  0  0
   58.2172   31.5809   53.6868 H   0  0  0  0  0  0  0  0  0  0  0  0
   57.9804   31.8018   48.4945 H   0  0  0  0  0  0  0  0  0  0  0  0
   59.6212   32.4067   46.2729 H   0  0  0  0  0  0  0  0  0  0  0  0
   60.5874   30.9141   45.9003 H   0  0  0  0  0  0  0  0  0  0  0  0
   60.1697   28.2462   46.0231 H   0  0  0  0  0  0  0  0  0  0  0  0
   59.6181   28.8404   47.6585 H   0  0  0  0  0  0  0  0  0  0  0  0
   59.6542   26.3093   47.3285 H   0  0  0  0  0  0  0  0  0  0  0  0
   58.1180   27.0378   47.9272 H   0  0  0  0  0  0  0  0  0  0  0  0
   58.7130   26.3407   45.0081 H   0  0  0  0  0  0  0  0  0  0  0  0
   57.7422   25.3326   46.1411 H   0  0  0  0  0  0  0  0  0  0  0  0
   56.3924   26.8524   44.6178 H   0  0  0  0  0  0  0  0  0  0  0  0
   56.1038   27.0573   46.4040 H   0  0  0  0  0  0  0  0  0  0  0  0
   61.9477   30.2801   47.6549 H   0  0  0  0  0  0  0  0  0  0  0  0
   62.2726   29.8006   50.0764 H   0  0  0  0  0  0  0  0  0  0  0  0
  1  2  2  0
  2  3  1  0
  3  4  1  0
  4  5  1  0
  5  6  1  0
  5  7  2  0
  7  8  1  0
  8  9  1  0
  9 10  2  0
  2 11  1  0
 11 12  1  0
 12 13  1  0
 13 14  2  0
 14 15  1  0
 14 16  1  0
 16 17  2  0
 17 18  1  0
 18 19  2  0
 19 20  1  0
 20 21  1  0
 21 22  2  0
 21 23  1  0
 23 24  2  0
 24 25  1  0
 25 26  1  0
 26 27  1  0
 27 28  2  0
 28 29  1  0
 29 30  1  0
 30 31  2  0
 30 32  1  0
 32 33  2  0
 33 34  1  0
 34 35  1  0
 35 36  1  0
 36 37  1  0
 25 38  2  0
 38 39  1  0
 39 40  2  0
 40 41  1  0
  9  4  1  0
 19 13  1  0
 40 23  1  0
 33 27  1  0
 37 32  1  0
  3 42  1  0
  3 43  1  0
  7 44  1  0
 12 45  1  0
 12 46  1  0
 15 47  1  0
 16 48  1  0
 17 49  1  0
 18 50  1  0
 24 51  1  0
 26 52  1  0
 26 53  1  0
 34 54  1  0
 34 55  1  0
 35 56  1  0
 35 57  1  0
 36 58  1  0
 36 59  1  0
 37 60  1  0
 37 61  1  0
 38 62  1  0
 39 63  1  0
M  CHG  5   6  -1   8  -1  11  -1  20  -1  29  -1
M  END
>  <UniqueID>  (27) 
26

>  <SMILES>  (27) 
O=C(Cn1c([O-])c[n-]c1=O)[N-]Cc1c(O)cccc1[N-]C(=O)c1cc(Cc2n[n-]c(=O)c3c2CCCC3)ccc1F

>  <Energy>  (27) 
116.14304883711073

>  <Genealogy>  (27) 
O=C(Cn1c([O-])c[n-]c1=O)[N-]Cc1c(O)cccc1[N-]C(=O)c1cc(Cc2n[n-]c(=O)c3c2CCCC3)ccc1F (protonated)
O=C(Cn1c([O-])c[n-]c1=O)[N-]Cc1c(O)cccc1[N-]C(=O)c1cc(Cc2n[n-]c(=O)c3c2CCCC3)ccc1F (3D coordinates assigned)
O=C(Cn1c([O-])c[n-]c1=O)[N-]Cc1c(O)cccc1[N-]C(=O)c1cc(Cc2n[n-]c(=O)c3c2CCCC3)ccc1F (nonaromatic ring conformer: 116.14304883711073 kcal/mol)

>  <smiles>  (27) 
O=C(Cn1c(O)c[nH]c1=O)NCc1c(O)cccc1NC(=O)c1cc(Cc2n[nH]c(=O)c3c2CCCC3)ccc1F

>  <score_type>  (27) 
oracle

>  <origin>  (27) 
adg

>  <m_score__min__energy>  (27) 
-20.829999999999998

>  <m_primary>  (27) 
energy

$$$$
27:0
     RDKit          3D

 41 42  0  0  0  0  0  0  0  0999 V2000
   61.0550   33.8920   46.3470 C   0  0  0  0  0  0  0  0  0  0  0  0
   59.7590   34.1150   45.8050 O   0  0  0  0  0  0  0  0  0  0  0  0
   58.5870   33.8390   46.5130 C   0  0  0  0  0  0  0  0  0  0  0  0
   58.4880   34.1300   47.7360 O   0  0  0  0  0  0  0  0  0  0  0  0
   57.4370   33.1980   45.8020 C   0  0  0  0  0  0  0  0  0  0  0  0
   57.7320   33.0980   44.3640 N   0  0  0  0  0  0  0  0  0  0  0  0
   58.4440   31.8570   44.0180 C   0  0  0  0  0  0  0  0  0  0  0  0
   57.6760   30.6410   44.4670 C   0  0  0  0  0  0  0  0  0  0  0  0
   58.3120   29.6430   45.2200 C   0  0  0  0  0  0  0  0  0  0  0  0
   57.6090   28.5000   45.6120 C   0  0  0  0  0  0  0  0  0  0  0  0
   56.2690   28.3320   45.2460 C   0  0  0  0  0  0  0  0  0  0  0  0
   55.5800   27.1430   45.6660 N   0  0  0  0  0  0  0  0  0  0  0  0
   56.1820   25.8920   46.0250 C   0  0  0  0  0  0  0  0  0  0  0  0
   56.7660   25.7970   47.1370 O   0  0  0  0  0  0  0  0  0  0  0  0
   56.1590   24.7180   45.1230 C   0  0  0  0  0  0  0  0  0  0  0  0
   57.3590   24.2970   44.5310 C   0  0  0  0  0  0  0  0  0  0  0  0
   57.3820   23.1710   43.7070 C   0  0  0  0  0  0  0  0  0  0  0  0
   56.1970   22.4770   43.4670 C   0  0  0  0  0  0  0  0  0  0  0  0
   56.2000   21.4530   42.7350 O   0  0  0  0  0  0  0  0  0  0  0  0
   55.0330   22.9100   44.0200 N   0  0  0  0  0  0  0  0  0  0  0  0
   54.9710   24.0090   44.8210 C   0  0  0  0  0  0  0  0  0  0  0  0
   53.6300   24.4270   45.3480 C   0  0  0  0  0  0  0  0  0  0  0  0
   55.6220   29.3450   44.5180 C   0  0  0  0  0  0  0  0  0  0  0  0
   56.3240   30.4870   44.1240 C   0  0  0  0  0  0  0  0  0  0  0  0
   60.9996   33.9015   47.4456 H   0  0  0  0  0  0  0  0  0  0  0  0
   61.4315   32.9159   46.0073 H   0  0  0  0  0  0  0  0  0  0  0  0
   61.7361   34.6861   46.0073 H   0  0  0  0  0  0  0  0  0  0  0  0
   57.2705   32.1907   46.2113 H   0  0  0  0  0  0  0  0  0  0  0  0
   56.5348   33.8107   45.9455 H   0  0  0  0  0  0  0  0  0  0  0  0
   58.3660   33.8930   44.1130 H   0  0  0  0  0  0  0  0  0  0  0  0
   58.5782   31.8133   42.9271 H   0  0  0  0  0  0  0  0  0  0  0  0
   59.4174   31.8612   44.5303 H   0  0  0  0  0  0  0  0  0  0  0  0
   59.3684   29.7602   45.5033 H   0  0  0  0  0  0  0  0  0  0  0  0
   58.1125   27.7277   46.2120 H   0  0  0  0  0  0  0  0  0  0  0  0
   58.2870   24.8575   44.7173 H   0  0  0  0  0  0  0  0  0  0  0  0
   58.3251   22.8346   43.2517 H   0  0  0  0  0  0  0  0  0  0  0  0
   53.6501   24.4207   46.4478 H   0  0  0  0  0  0  0  0  0  0  0  0
   53.3956   25.4408   44.9913 H   0  0  0  0  0  0  0  0  0  0  0  0
   52.8611   23.7259   44.9913 H   0  0  0  0  0  0  0  0  0  0  0  0
   54.5587   29.2385   44.2573 H   0  0  0  0  0  0  0  0  0  0  0  0
   55.8144   31.2691   43.5421 H   0  0  0  0  0  0  0  0  0  0  0  0
  1  2  1  0
  2  3  1  0
  3  4  2  0
  3  5  1  0
  5  6  1  0
  6  7  1  0
  7  8  1  0
  8  9  2  0
  9 10  1  0
 10 11  2  0
 11 12  1  0
 12 13  1  0
 13 14  2  0
 13 15  1  0
 15 16  1  0
 16 17  2  0
 17 18  1  0
 18 19  2  0
 18 20  1  0
 20 21  1  0
 21 22  1  0
 11 23  1  0
 23 24  2  0
 24  8  1  0
 21 15  2  0
  1 25  1  0
  1 26  1  0
  1 27  1  0
  5 28  1  0
  5 29  1  0
  6 30  1  0
  7 31  1  0
  7 32  1  0
  9 33  1  0
 10 34  1  0
 16 35  1  0
 17 36  1  0
 22 37  1  0
 22 38  1  0
 22 39  1  0
 23 40  1  0
 24 41  1  0
M  CHG  2  12  -1  20  -1
M  END
>  <UniqueID>  (28) 
27

>  <SMILES>  (28) 
COC(=O)CNCc1ccc([N-]C(=O)c2ccc(=O)[n-]c2C)cc1

>  <Energy>  (28) 
45.11201409380531

>  <Genealogy>  (28) 
COC(=O)CNCc1ccc([N-]C(=O)c2ccc(=O)[n-]c2C)cc1 (protonated)
COC(=O)CNCc1ccc([N-]C(=O)c2ccc(=O)[n-]c2C)cc1 (3D coordinates assigned)
COC(=O)CNCc1ccc([N-]C(=O)c2ccc(=O)[n-]c2C)cc1 (optimized conformer: 45.11201409380531 kcal/mol)

>  <smiles>  (28) 
COC(=O)CNCc1ccc(NC(=O)c2ccc(=O)[nH]c2C)cc1

>  <score_type>  (28) 
oracle

>  <origin>  (28) 
adg

>  <m_score__min__energy>  (28) 
-10.58

>  <m_primary>  (28) 
energy

$$$$
28:0
     RDKit          3D

 27 28  0  0  0  0  0  0  0  0999 V2000
   54.3640   25.9930   45.8780 N   0  0  0  0  0  0  0  0  0  0  0  0
   55.7760   25.9660   46.0720 C   0  0  0  0  0  0  0  0  0  0  0  0
   56.3290   24.8950   46.4370 O   0  0  0  0  0  0  0  0  0  0  0  0
   56.5650   27.1890   45.8300 C   0  0  0  0  0  0  0  0  0  0  0  0
   56.0220   28.2870   45.2650 N   0  0  0  0  0  0  0  0  0  0  0  0
   57.0090   29.2000   45.1730 C   0  0  0  0  0  0  0  0  0  0  0  0
   58.1960   28.6960   45.6740 C   0  0  0  0  0  0  0  0  0  0  0  0
   59.4720   29.4350   45.8010 C   0  0  0  0  0  0  0  0  0  0  0  0
   60.5580   28.8000   45.7220 O   0  0  0  0  0  0  0  0  0  0  0  0
   59.5080   30.8950   46.0600 C   0  0  0  0  0  0  0  0  0  0  0  0
   60.5940   31.4590   46.7490 C   0  0  0  0  0  0  0  0  0  0  0  0
   60.6520   32.8370   46.9910 C   0  0  0  0  0  0  0  0  0  0  0  0
   62.1610   33.5240   47.9530 Br  0  0  0  0  0  0  0  0  0  0  0  0
   59.6170   33.6740   46.5310 C   0  0  0  0  0  0  0  0  0  0  0  0
   59.6380   35.0510   46.7550 O   0  0  0  0  0  0  0  0  0  0  0  0
   58.5390   33.1150   45.8280 C   0  0  0  0  0  0  0  0  0  0  0  0
   57.1230   34.2260   45.1750 Br  0  0  0  0  0  0  0  0  0  0  0  0
   58.4880   31.7390   45.5900 C   0  0  0  0  0  0  0  0  0  0  0  0
   57.9100   27.4120   46.1030 C   0  0  0  0  0  0  0  0  0  0  0  0
   58.8450   26.4900   46.6770 N   0  0  0  0  0  0  0  0  0  0  0  0
   53.7680   26.6900   46.3780 H   0  0  0  0  0  0  0  0  0  0  0  0
   56.8872   30.2104   44.7556 H   0  0  0  0  0  0  0  0  0  0  0  0
   61.4089   30.8104   47.1029 H   0  0  0  0  0  0  0  0  0  0  0  0
   59.2520   35.4790   47.5860 H   0  0  0  0  0  0  0  0  0  0  0  0
   57.6423   31.3132   45.0301 H   0  0  0  0  0  0  0  0  0  0  0  0
   59.8510   26.7280   46.8020 H   0  0  0  0  0  0  0  0  0  0  0  0
   58.5360   25.5480   47.0000 H   0  0  0  0  0  0  0  0  0  0  0  0
  1  2  1  0
  2  3  2  0
  2  4  1  0
  4  5  1  0
  5  6  1  0
  6  7  2  0
  7  8  1  0
  8  9  2  0
  8 10  1  0
 10 11  2  0
 11 12  1  0
 12 13  1  0
 12 14  2  0
 14 15  1  0
 14 16  1  0
 16 17  1  0
 16 18  2  0
  7 19  1  0
 19 20  1  0
 19  4  2  0
 18 10  1  0
  1 21  1  0
  6 22  1  0
 11 23  1  0
 15 24  1  0
 18 25  1  0
 20 26  1  0
 20 27  1  0
M  CHG  2   1  -1   5  -1
M  END
>  <UniqueID>  (29) 
28

>  <SMILES>  (29) 
[NH-]C(=O)c1[n-]cc(C(=O)c2cc(Br)c(O)c(Br)c2)c1N

>  <Energy>  (29) 
60.62555785538697

>  <Genealogy>  (29) 
[NH-]C(=O)c1[n-]cc(C(=O)c2cc(Br)c(O)c(Br)c2)c1N (protonated)
[NH-]C(=O)c1[n-]cc(C(=O)c2cc(Br)c(O)c(Br)c2)c1N (3D coordinates assigned)
[NH-]C(=O)c1[n-]cc(C(=O)c2cc(Br)c(O)c(Br)c2)c1N (optimized conformer: 60.62555785538697 kcal/mol)

>  <smiles>  (29) 
NC(=O)c1[nH]cc(C(=O)c2cc(Br)c(O)c(Br)c2)c1N

>  <score_type>  (29) 
oracle

>  <origin>  (29) 
adg

>  <m_score__min__energy>  (29) 
-11.890000000000001

>  <m_primary>  (29) 
energy

$$$$
29:0
     RDKit          3D

 30 31  0  0  0  0  0  0  0  0999 V2000
   57.3650   24.0090   44.4310 C   0  0  0  0  0  0  0  0  0  0  0  0
   57.8660   24.2180   45.8230 C   0  0  0  0  0  0  0  0  0  0  0  0
   57.3830   25.2080   46.5850 C   0  0  0  0  0  0  0  0  0  0  0  0
   57.2210   26.6020   46.1040 C   0  0  0  0  0  0  0  0  0  0  0  0
   58.2980   27.5060   46.0780 C   0  0  0  0  0  0  0  0  0  0  0  0
   58.1210   28.8150   45.6010 C   0  0  0  0  0  0  0  0  0  0  0  0
   59.2080   29.7510   45.5230 N   0  0  0  0  0  0  0  0  0  0  0  0
   59.6050   30.9230   46.7390 S   0  0  0  0  0  0  0  0  0  0  0  0
   61.0600   30.7970   47.0920 O   0  0  0  0  0  0  0  0  0  0  0  0
   58.7760   30.6670   47.9640 O   0  0  0  0  0  0  0  0  0  0  0  0
   59.2610   32.5380   46.1470 C   0  0  0  0  0  0  0  0  0  0  0  0
   60.0100   33.6730   46.4160 C   0  0  0  0  0  0  0  0  0  0  0  0
   59.4620   34.8330   45.8570 C   0  0  0  0  0  0  0  0  0  0  0  0
   58.2840   34.6100   45.1550 C   0  0  0  0  0  0  0  0  0  0  0  0
   57.9220   32.9690   45.2290 S   0  0  0  0  0  0  0  0  0  0  0  0
   56.8420   29.2110   45.1910 C   0  0  0  0  0  0  0  0  0  0  0  0
   56.6440   30.3800   44.7650 O   0  0  0  0  0  0  0  0  0  0  0  0
   55.8060   28.3360   45.2470 N   0  0  0  0  0  0  0  0  0  0  0  0
   55.9570   27.0590   45.6880 C   0  0  0  0  0  0  0  0  0  0  0  0
   54.8540   26.2090   45.7140 O   0  0  0  0  0  0  0  0  0  0  0  0
   56.3503   23.5857   44.4662 H   0  0  0  0  0  0  0  0  0  0  0  0
   57.3421   24.9726   43.9010 H   0  0  0  0  0  0  0  0  0  0  0  0
   58.0337   23.3148   43.9010 H   0  0  0  0  0  0  0  0  0  0  0  0
   58.6413   23.5504   46.2271 H   0  0  0  0  0  0  0  0  0  0  0  0
   57.0917   24.9756   47.6200 H   0  0  0  0  0  0  0  0  0  0  0  0
   59.2879   27.1849   46.4345 H   0  0  0  0  0  0  0  0  0  0  0  0
   60.9378   33.6629   47.0069 H   0  0  0  0  0  0  0  0  0  0  0  0
   59.9205   35.8272   45.9633 H   0  0  0  0  0  0  0  0  0  0  0  0
   57.6886   35.3770   44.6381 H   0  0  0  0  0  0  0  0  0  0  0  0
   54.1140   26.3380   46.3930 H   0  0  0  0  0  0  0  0  0  0  0  0
  1  2  1  0
  2  3  2  3
  3  4  1  0
  4  5  1  0
  5  6  2  0
  6  7  1  0
  7  8  1  0
  8  9  2  0
  8 10  2  0
  8 11  1  0
 11 12  2  0
 12 13  1  0
 13 14  2  0
 14 15  1  0
  6 16  1  0
 16 17  2  0
 16 18  1  0
 18 19  1  0
 19 20  1  0
 19  4  2  0
 15 11  1  0
  1 21  1  0
  1 22  1  0
  1 23  1  0
  2 24  1  0
  3 25  1  0
  5 26  1  0
 12 27  1  0
 13 28  1  0
 14 29  1  0
 20 30  1  0
M  CHG  2   7  -1  18  -1
M  END
>  <UniqueID>  (30) 
29

>  <SMILES>  (30) 
CC=Cc1cc([N-]S(=O)(=O)c2cccs2)c(=O)[n-]c1O

>  <Energy>  (30) 
59.07611996558734

>  <Genealogy>  (30) 
CC=Cc1cc([N-]S(=O)(=O)c2cccs2)c(=O)[n-]c1O (protonated)
CC=Cc1cc([N-]S(=O)(=O)c2cccs2)c(=O)[n-]c1O (3D coordinates assigned)
CC=Cc1cc([N-]S(=O)(=O)c2cccs2)c(=O)[n-]c1O (optimized conformer: 59.07611996558734 kcal/mol)

>  <smiles>  (30) 
CC=Cc1cc(NS(=O)(=O)c2cccs2)c(=O)[nH]c1O

>  <score_type>  (30) 
oracle

>  <origin>  (30) 
adg

>  <m_score__min__energy>  (30) 
-10.91

>  <m_primary>  (30) 
energy

$$$$
30:0
     RDKit          3D

 42 44  0  0  0  0  0  0  0  0999 V2000
   58.1240   31.9630   50.8160 C   0  0  0  0  0  0  0  0  0  0  0  0
   58.6150   31.5480   49.5460 O   0  0  0  0  0  0  0  0  0  0  0  0
   59.7300   32.1060   48.8990 C   0  0  0  0  0  0  0  0  0  0  0  0
   59.7610   33.4620   48.5130 C   0  0  0  0  0  0  0  0  0  0  0  0
   60.8780   33.9860   47.8590 C   0  0  0  0  0  0  0  0  0  0  0  0
   61.9730   33.1680   47.5770 C   0  0  0  0  0  0  0  0  0  0  0  0
   63.3690   33.8290   46.7440 Cl  0  0  0  0  0  0  0  0  0  0  0  0
   61.9560   31.8240   47.9540 C   0  0  0  0  0  0  0  0  0  0  0  0
   60.8450   31.2860   48.6250 C   0  0  0  0  0  0  0  0  0  0  0  0
   60.8400   29.8250   48.9910 C   0  0  0  0  0  0  0  0  0  0  0  0
   60.2180   28.8420   47.6310 S   0  0  0  0  0  0  0  0  0  0  0  0
   60.7600   27.4440   47.7400 O   0  0  0  0  0  0  0  0  0  0  0  0
   58.7180   28.7910   47.6940 O   0  0  0  0  0  0  0  0  0  0  0  0
   60.7210   29.5160   46.1100 N   0  0  0  0  0  0  0  0  0  0  0  0
   59.9180   28.9580   45.0210 C   0  0  0  0  0  0  0  0  0  0  0  0
   58.6380   29.7280   44.8970 C   0  0  0  0  0  0  0  0  0  0  0  0
   57.4160   29.0650   44.7430 C   0  0  0  0  0  0  0  0  0  0  0  0
   56.2570   29.8280   44.5880 C   0  0  0  0  0  0  0  0  0  0  0  0
   55.1410   29.2650   44.4470 O   0  0  0  0  0  0  0  0  0  0  0  0
   56.3350   31.1840   44.5880 N   0  0  0  0  0  0  0  0  0  0  0  0
   57.5290   31.8170   44.7430 C   0  0  0  0  0  0  0  0  0  0  0  0
   57.5970   33.3110   44.6950 C   0  0  0  0  0  0  0  0  0  0  0  0
   58.9390   33.9000   45.1070 C   0  0  0  0  0  0  0  0  0  0  0  0
   57.7530   33.9830   46.0510 C   0  0  0  0  0  0  0  0  0  0  0  0
   58.6690   31.0880   44.8780 N   0  0  0  0  0  0  0  0  0  0  0  0
   58.7042   31.4726   51.6115 H   0  0  0  0  0  0  0  0  0  0  0  0
   58.2240   33.0545   50.9089 H   0  0  0  0  0  0  0  0  0  0  0  0
   57.0644   31.6826   50.9089 H   0  0  0  0  0  0  0  0  0  0  0  0
   58.8996   34.1112   48.7285 H   0  0  0  0  0  0  0  0  0  0  0  0
   60.8949   35.0460   47.5654 H   0  0  0  0  0  0  0  0  0  0  0  0
   62.8187   31.1815   47.7240 H   0  0  0  0  0  0  0  0  0  0  0  0
   61.8662   29.5074   49.2279 H   0  0  0  0  0  0  0  0  0  0  0  0
   60.1873   29.6786   49.8643 H   0  0  0  0  0  0  0  0  0  0  0  0
   60.5370   30.5450   46.1570 H   0  0  0  0  0  0  0  0  0  0  0  0
   60.4803   29.0277   44.0782 H   0  0  0  0  0  0  0  0  0  0  0  0
   59.6914   27.9034   45.2365 H   0  0  0  0  0  0  0  0  0  0  0  0
   57.3691   27.9660   44.7440 H   0  0  0  0  0  0  0  0  0  0  0  0
   56.9214   33.4333   43.8356 H   0  0  0  0  0  0  0  0  0  0  0  0
   59.7829   33.2345   45.3415 H   0  0  0  0  0  0  0  0  0  0  0  0
   59.6358   34.6292   44.6679 H   0  0  0  0  0  0  0  0  0  0  0  0
   57.7380   33.3778   46.9694 H   0  0  0  0  0  0  0  0  0  0  0  0
   57.2354   34.7975   46.5788 H   0  0  0  0  0  0  0  0  0  0  0  0
  1  2  1  0
  2  3  1  0
  3  4  2  0
  4  5  1  0
  5  6  2  0
  6  7  1  0
  6  8  1  0
  8  9  2  0
  9 10  1  0
 10 11  1  0
 11 12  2  0
 11 13  2  0
 11 14  1  0
 14 15  1  0
 15 16  1  0
 16 17  2  0
 17 18  1  0
 18 19  2  0
 18 20  1  0
 20 21  1  0
 21 22  1  0
 22 23  1  0
 23 24  1  0
 21 25  2  0
  9  3  1  0
 25 16  1  0
 24 22  1  0
  1 26  1  0
  1 27  1  0
  1 28  1  0
  4 29  1  0
  5 30  1  0
  8 31  1  0
 10 32  1  0
 10 33  1  0
 14 34  1  0
 15 35  1  0
 15 36  1  0
 17 37  1  0
 22 38  1  0
 23 39  1  0
 23 40  1  0
 24 41  1  0
 24 42  1  0
M  CHG  1  20  -1
M  END
>  <UniqueID>  (31) 
30

>  <SMILES>  (31) 
COc1ccc(Cl)cc1CS(=O)(=O)NCc1cc(=O)[n-]c(C2CC2)n1

>  <Energy>  (31) 
298.59013889754164

>  <Genealogy>  (31) 
COc1ccc(Cl)cc1CS(=O)(=O)NCc1cc(=O)[n-]c(C2CC2)n1 (protonated)
COc1ccc(Cl)cc1CS(=O)(=O)NCc1cc(=O)[n-]c(C2CC2)n1 (3D coordinates assigned)
COc1ccc(Cl)cc1CS(=O)(=O)NCc1cc(=O)[n-]c(C2CC2)n1 (nonaromatic ring conformer: 298.59013889754164 kcal/mol)

>  <smiles>  (31) 
COc1ccc(Cl)cc1CS(=O)(=O)NCc1cc(=O)[nH]c(C2CC2)n1

>  <score_type>  (31) 
oracle

>  <origin>  (31) 
adg

>  <m_score__min__energy>  (31) 
-9.1799999999999997

>  <m_primary>  (31) 
energy

$$$$
31:0
     RDKit          3D

 34 36  0  0  0  0  0  0  0  0999 V2000
   65.5780   33.0620   49.5740 C   0  0  0  0  0  0  0  0  0  0  0  0
   64.3180   33.0510   49.1440 C   0  0  0  0  0  0  0  0  0  0  0  0
   63.3410   33.9710   49.5120 C   0  0  0  0  0  0  0  0  0  0  0  0
   62.2120   33.5710   48.8280 C   0  0  0  0  0  0  0  0  0  0  0  0
   60.9380   34.1160   48.7980 C   0  0  0  0  0  0  0  0  0  0  0  0
   59.9700   33.4930   47.9910 C   0  0  0  0  0  0  0  0  0  0  0  0
   60.2720   32.3260   47.2120 C   0  0  0  0  0  0  0  0  0  0  0  0
   59.3210   31.7240   46.4220 C   0  0  0  0  0  0  0  0  0  0  0  0
   58.4700   32.4760   45.5750 C   0  0  0  0  0  0  0  0  0  0  0  0
   57.5030   31.8630   44.7730 C   0  0  0  0  0  0  0  0  0  0  0  0
   57.3300   30.4650   44.7700 C   0  0  0  0  0  0  0  0  0  0  0  0
   56.3870   29.8670   43.9870 C   0  0  0  0  0  0  0  0  0  0  0  0
   55.1140   29.4700   44.5190 N   0  0  0  0  0  0  0  0  0  0  0  0
   56.6240   29.6080   42.5940 N   0  0  0  0  0  0  0  0  0  0  0  0
   58.1740   29.7080   45.6100 C   0  0  0  0  0  0  0  0  0  0  0  0
   59.1400   30.3180   46.4120 C   0  0  0  0  0  0  0  0  0  0  0  0
   61.6050   31.8150   47.2910 C   0  0  0  0  0  0  0  0  0  0  0  0
   62.5350   32.4620   48.1010 C   0  0  0  0  0  0  0  0  0  0  0  0
   63.8260   32.1310   48.2820 N   0  0  0  0  0  0  0  0  0  0  0  0
   66.2837   32.2922   49.2287 H   0  0  0  0  0  0  0  0  0  0  0  0
   65.9133   33.8409   50.2746 H   0  0  0  0  0  0  0  0  0  0  0  0
   63.4457   34.8263   50.1957 H   0  0  0  0  0  0  0  0  0  0  0  0
   60.6913   35.0105   49.3888 H   0  0  0  0  0  0  0  0  0  0  0  0
   58.9533   33.9114   47.9556 H   0  0  0  0  0  0  0  0  0  0  0  0
   58.5729   33.5708   45.5477 H   0  0  0  0  0  0  0  0  0  0  0  0
   56.8633   32.4858   44.1304 H   0  0  0  0  0  0  0  0  0  0  0  0
   54.7790   28.4820   44.4970 H   0  0  0  0  0  0  0  0  0  0  0  0
   54.4110   30.1980   44.7760 H   0  0  0  0  0  0  0  0  0  0  0  0
   57.6040   29.5090   42.2480 H   0  0  0  0  0  0  0  0  0  0  0  0
   55.8630   29.3320   41.9370 H   0  0  0  0  0  0  0  0  0  0  0  0
   58.0684   28.6133   45.6333 H   0  0  0  0  0  0  0  0  0  0  0  0
   59.7775   29.6913   47.0530 H   0  0  0  0  0  0  0  0  0  0  0  0
   61.8928   30.9209   46.7185 H   0  0  0  0  0  0  0  0  0  0  0  0
   64.3370   31.3300   47.8450 H   0  0  0  0  0  0  0  0  0  0  0  0
  1  2  2  0
  2  3  1  0
  3  4  2  0
  4  5  1  0
  5  6  2  0
  6  7  1  0
  7  8  2  3
  8  9  1  0
  9 10  2  0
 10 11  1  0
 11 12  2  3
 12 13  1  0
 12 14  1  0
 11 15  1  0
 15 16  2  0
  7 17  1  0
 17 18  2  0
 18 19  1  0
 19  2  1  0
 18  4  1  0
 16  8  1  0
  1 20  1  0
  1 21  1  0
  3 22  1  0
  5 23  1  0
  6 24  1  0
  9 25  1  0
 10 26  1  0
 13 27  1  0
 13 28  1  0
 14 29  1  0
 14 30  1  0
 15 31  1  0
 16 32  1  0
 17 33  1  0
 19 34  1  0
M  END
>  <UniqueID>  (32) 
31

>  <SMILES>  (32) 
C=c1cc2ccc(=c3ccc(=C(N)N)cc3)cc2[nH]1

>  <Energy>  (32) 
94.03306682901254

>  <Genealogy>  (32) 
C=c1cc2ccc(=c3ccc(=C(N)N)cc3)cc2[nH]1 (3D coordinates assigned)
C=c1cc2ccc(=c3ccc(=C(N)N)cc3)cc2[nH]1 (optimized conformer: 94.03306682901254 kcal/mol)

>  <smiles>  (32) 
C=c1cc2ccc(=c3ccc(=C(N)N)cc3)cc2[nH]1

>  <score_type>  (32) 
oracle

>  <origin>  (32) 
adg

>  <m_score__min__energy>  (32) 
-8.2799999999999994

>  <m_primary>  (32) 
energy

$$$$
32:0
     RDKit          3D

 54 56  0  0  0  0  0  0  0  0999 V2000
   55.1180   24.4610   46.8730 O   0  0  0  0  0  0  0  0  0  0  0  0
   55.5040   25.2710   45.9900 C   0  0  0  0  0  0  0  0  0  0  0  0
   55.7180   24.7980   44.5840 C   0  0  0  0  0  0  0  0  0  0  0  0
   55.2130   23.3590   44.4110 C   0  0  0  0  0  0  0  0  0  0  0  0
   56.2610   22.4160   43.8660 C   0  0  0  0  0  0  0  0  0  0  0  0
   55.9470   21.6070   42.9480 O   0  0  0  0  0  0  0  0  0  0  0  0
   57.6250   22.4480   44.3530 N   0  0  0  0  0  0  0  0  0  0  0  0
   57.9690   23.2130   45.5640 C   0  0  0  0  0  0  0  0  0  0  0  0
   59.4770   23.4600   45.6600 C   0  0  0  0  0  0  0  0  0  0  0  0
   60.2000   22.2680   45.4390 O   0  0  0  0  0  0  0  0  0  0  0  0
   60.0190   21.8580   44.1020 C   0  0  0  0  0  0  0  0  0  0  0  0
   58.5690   21.4370   43.8540 C   0  0  0  0  0  0  0  0  0  0  0  0
   55.6930   26.6530   46.3110 N   0  0  0  0  0  0  0  0  0  0  0  0
   56.7380   27.4780   45.7780 C   0  0  0  0  0  0  0  0  0  0  0  0
   58.0650   27.1230   46.0350 C   0  0  0  0  0  0  0  0  0  0  0  0
   59.1260   27.8880   45.5250 C   0  0  0  0  0  0  0  0  0  0  0  0
   60.4940   27.4890   45.7520 N   0  0  0  0  0  0  0  0  0  0  0  0
   61.4370   28.1010   45.2070 O   0  0  0  0  0  0  0  0  0  0  0  0
   60.7870   26.4560   46.6130 O   0  0  0  0  0  0  0  0  0  0  0  0
   58.8360   29.0420   44.7790 C   0  0  0  0  0  0  0  0  0  0  0  0
   57.5070   29.4470   44.5500 C   0  0  0  0  0  0  0  0  0  0  0  0
   57.2420   30.6980   43.7920 C   0  0  0  0  0  0  0  0  0  0  0  0
   56.5030   30.6740   42.7690 O   0  0  0  0  0  0  0  0  0  0  0  0
   57.8150   31.9050   44.2000 O   0  0  0  0  0  0  0  0  0  0  0  0
   57.1160   32.8720   44.9740 C   0  0  0  0  0  0  0  0  0  0  0  0
   58.0620   33.4820   45.9670 C   0  0  0  0  0  0  0  0  0  0  0  0
   58.2190   32.9060   47.2410 C   0  0  0  0  0  0  0  0  0  0  0  0
   59.1320   33.4470   48.1520 C   0  0  0  0  0  0  0  0  0  0  0  0
   59.9020   34.5610   47.7950 C   0  0  0  0  0  0  0  0  0  0  0  0
   59.7630   35.1300   46.5230 C   0  0  0  0  0  0  0  0  0  0  0  0
   58.8520   34.5900   45.6080 C   0  0  0  0  0  0  0  0  0  0  0  0
   56.4540   28.6560   45.0610 C   0  0  0  0  0  0  0  0  0  0  0  0
   55.1290   29.0430   44.8810 O   0  0  0  0  0  0  0  0  0  0  0  0
   55.1711   25.4576   43.8943 H   0  0  0  0  0  0  0  0  0  0  0  0
   56.7954   24.8228   44.3635 H   0  0  0  0  0  0  0  0  0  0  0  0
   54.8836   22.9849   45.3916 H   0  0  0  0  0  0  0  0  0  0  0  0
   54.3917   23.3890   43.6798 H   0  0  0  0  0  0  0  0  0  0  0  0
   57.4489   24.1818   45.5349 H   0  0  0  0  0  0  0  0  0  0  0  0
   57.6576   22.6286   46.4424 H   0  0  0  0  0  0  0  0  0  0  0  0
   59.7687   24.2032   44.9033 H   0  0  0  0  0  0  0  0  0  0  0  0
   59.7082   23.8278   46.6706 H   0  0  0  0  0  0  0  0  0  0  0  0
   60.2718   22.6926   43.4315 H   0  0  0  0  0  0  0  0  0  0  0  0
   60.6746   20.9968   43.9056 H   0  0  0  0  0  0  0  0  0  0  0  0
   58.4143   21.3053   42.7729 H   0  0  0  0  0  0  0  0  0  0  0  0
   58.3847   20.4953   44.3918 H   0  0  0  0  0  0  0  0  0  0  0  0
   58.2809   26.2331   46.6445 H   0  0  0  0  0  0  0  0  0  0  0  0
   59.6618   29.6401   44.3662 H   0  0  0  0  0  0  0  0  0  0  0  0
   56.7194   33.6566   44.3128 H   0  0  0  0  0  0  0  0  0  0  0  0
   56.2815   32.3899   45.5043 H   0  0  0  0  0  0  0  0  0  0  0  0
   57.6211   32.0264   47.5218 H   0  0  0  0  0  0  0  0  0  0  0  0
   59.2453   32.9973   49.1494 H   0  0  0  0  0  0  0  0  0  0  0  0
   60.6161   34.9891   48.5139 H   0  0  0  0  0  0  0  0  0  0  0  0
   60.3709   36.0028   46.2425 H   0  0  0  0  0  0  0  0  0  0  0  0
   58.7532   35.0327   44.6059 H   0  0  0  0  0  0  0  0  0  0  0  0
  1  2  2  0
  2  3  1  0
  3  4  1  0
  4  5  1  0
  5  6  2  0
  5  7  1  0
  7  8  1  0
  8  9  1  0
  9 10  1  0
 10 11  1  0
 11 12  1  0
  2 13  1  0
 13 14  1  0
 14 15  2  0
 15 16  1  0
 16 17  1  0
 17 18  2  0
 17 19  1  0
 16 20  2  0
 20 21  1  0
 21 22  1  0
 22 23  2  0
 22 24  1  0
 24 25  1  0
 25 26  1  0
 26 27  2  0
 27 28  1  0
 28 29  2  0
 29 30  1  0
 30 31  2  0
 21 32  2  0
 32 33  1  0
 12  7  1  0
 32 14  1  0
 31 26  1  0
  3 34  1  0
  3 35  1  0
  4 36  1  0
  4 37  1  0
  8 38  1  0
  8 39  1  0
  9 40  1  0
  9 41  1  0
 11 42  1  0
 11 43  1  0
 12 44  1  0
 12 45  1  0
 15 46  1  0
 20 47  1  0
 25 48  1  0
 25 49  1  0
 27 50  1  0
 28 51  1  0
 29 52  1  0
 30 53  1  0
 31 54  1  0
M  CHG  4  13  -1  17   1  19  -1  33  -1
M  END
>  <UniqueID>  (33) 
32

>  <SMILES>  (33) 
O=C(CCC(=O)N1CCOCC1)[N-]c1cc([N+](=O)[O-])cc(C(=O)OCc2ccccc2)c1[O-]

>  <Energy>  (33) 
62.014924869214795

>  <Genealogy>  (33) 
O=C(CCC(=O)N1CCOCC1)[N-]c1cc([N+](=O)[O-])cc(C(=O)OCc2ccccc2)c1[O-] (protonated)
O=C(CCC(=O)N1CCOCC1)[N-]c1cc([N+](=O)[O-])cc(C(=O)OCc2ccccc2)c1[O-] (3D coordinates assigned)
O=C(CCC(=O)N1CCOCC1)[N-]c1cc([N+](=O)[O-])cc(C(=O)OCc2ccccc2)c1[O-] (nonaromatic ring conformer: 62.014924869214795 kcal/mol)

>  <smiles>  (33) 
O=C(CCC(=O)N1CCOCC1)Nc1cc([N+](=O)[O-])cc(C(=O)OCc2ccccc2)c1O

>  <score_type>  (33) 
oracle

>  <origin>  (33) 
adg

>  <m_score__min__energy>  (33) 
-15.49

>  <m_primary>  (33) 
energy

$$$$
33:0
     RDKit          3D

 67 70  0  0  0  0  0  0  0  0999 V2000
   57.6310   31.6020   43.3300 C   0  0  0  0  0  0  0  0  0  0  0  0
   57.0300   31.5740   44.6750 N   0  0  0  0  0  0  0  0  0  0  0  0
   56.9310   32.9170   45.2790 C   0  0  0  0  0  0  0  0  0  0  0  0
   58.2870   33.4230   45.7890 C   0  0  0  0  0  0  0  0  0  0  0  0
   58.8450   32.4660   46.7580 N   0  0  0  0  0  0  0  0  0  0  0  0
   60.3780   33.0610   47.3540 S   0  0  0  0  0  0  0  0  0  0  0  0
   60.1690   34.3750   48.0540 O   0  0  0  0  0  0  0  0  0  0  0  0
   61.3240   33.2580   46.2040 O   0  0  0  0  0  0  0  0  0  0  0  0
   61.0800   31.8950   48.4710 C   0  0  0  0  0  0  0  0  0  0  0  0
   60.5310   30.6730   48.8070 C   0  0  0  0  0  0  0  0  0  0  0  0
   61.3380   30.0440   49.6820 N   0  0  0  0  0  0  0  0  0  0  0  0
   61.0920   28.7440   50.2970 C   0  0  0  0  0  0  0  0  0  0  0  0
   60.5400   27.7920   49.2700 C   0  0  0  0  0  0  0  0  0  0  0  0
   61.1170   26.6850   49.0990 O   0  0  0  0  0  0  0  0  0  0  0  0
   59.2860   28.0230   48.6150 N   0  0  0  0  0  0  0  0  0  0  0  0
   58.8790   27.4970   47.3470 C   0  0  0  0  0  0  0  0  0  0  0  0
   59.6100   27.8390   46.2020 C   0  0  0  0  0  0  0  0  0  0  0  0
   59.2180   27.3610   44.9480 C   0  0  0  0  0  0  0  0  0  0  0  0
   58.0890   26.5470   44.8270 C   0  0  0  0  0  0  0  0  0  0  0  0
   57.3310   26.2240   45.9630 C   0  0  0  0  0  0  0  0  0  0  0  0
   55.8980   25.2100   45.8270 S   0  0  0  0  0  0  0  0  0  0  0  0
   54.4810   26.1950   45.9470 N   0  0  0  0  0  0  0  0  0  0  0  0
   55.8780   24.1940   46.9370 O   0  0  0  0  0  0  0  0  0  0  0  0
   55.9080   24.5010   44.5010 O   0  0  0  0  0  0  0  0  0  0  0  0
   57.7150   26.7200   47.2160 C   0  0  0  0  0  0  0  0  0  0  0  0
   62.3940   30.8460   49.9200 C   0  0  0  0  0  0  0  0  0  0  0  0
   62.2740   31.9980   49.1700 C   0  0  0  0  0  0  0  0  0  0  0  0
   63.4960   33.2550   49.0400 S   0  0  0  0  0  0  0  0  0  0  0  0
   64.8450   32.6800   49.3600 O   0  0  0  0  0  0  0  0  0  0  0  0
   63.5270   33.7740   47.6280 O   0  0  0  0  0  0  0  0  0  0  0  0
   63.1480   34.5640   50.1320 N   0  0  0  0  0  0  0  0  0  0  0  0
   63.0300   34.0890   51.5140 C   0  0  0  0  0  0  0  0  0  0  0  0
   61.6420   33.5670   51.7770 C   0  0  0  0  0  0  0  0  0  0  0  0
   61.3970   32.7570   52.8990 C   0  0  0  0  0  0  0  0  0  0  0  0
   60.1130   32.2530   53.1380 C   0  0  0  0  0  0  0  0  0  0  0  0
   59.0670   32.5630   52.2640 C   0  0  0  0  0  0  0  0  0  0  0  0
   59.3010   33.3850   51.1570 C   0  0  0  0  0  0  0  0  0  0  0  0
   60.5780   33.8990   50.9230 C   0  0  0  0  0  0  0  0  0  0  0  0
   59.0440   31.1580   46.1130 C   0  0  0  0  0  0  0  0  0  0  0  0
   57.7090   30.6160   45.5760 C   0  0  0  0  0  0  0  0  0  0  0  0
   58.7262   31.6530   43.4188 H   0  0  0  0  0  0  0  0  0  0  0  0
   57.3495   30.6898   42.7836 H   0  0  0  0  0  0  0  0  0  0  0  0
   57.2659   32.4841   42.7836 H   0  0  0  0  0  0  0  0  0  0  0  0
   56.5526   33.6193   44.5217 H   0  0  0  0  0  0  0  0  0  0  0  0
   56.2489   32.8515   46.1395 H   0  0  0  0  0  0  0  0  0  0  0  0
   58.9794   33.5293   44.9409 H   0  0  0  0  0  0  0  0  0  0  0  0
   58.1492   34.3976   46.2800 H   0  0  0  0  0  0  0  0  0  0  0  0
   59.5814   30.2753   48.4196 H   0  0  0  0  0  0  0  0  0  0  0  0
   62.0358   28.3440   50.6961 H   0  0  0  0  0  0  0  0  0  0  0  0
   60.3645   28.8598   51.1139 H   0  0  0  0  0  0  0  0  0  0  0  0
   60.4954   28.4858   46.2898 H   0  0  0  0  0  0  0  0  0  0  0  0
   59.8005   27.6267   44.0535 H   0  0  0  0  0  0  0  0  0  0  0  0
   57.7941   26.1591   43.8408 H   0  0  0  0  0  0  0  0  0  0  0  0
   54.7710   27.0920   46.3970 H   0  0  0  0  0  0  0  0  0  0  0  0
   57.1019   26.5000   48.1024 H   0  0  0  0  0  0  0  0  0  0  0  0
   63.2232   30.6179   50.6058 H   0  0  0  0  0  0  0  0  0  0  0  0
   63.7580   33.2818   51.6825 H   0  0  0  0  0  0  0  0  0  0  0  0
   63.2290   34.9285   52.1964 H   0  0  0  0  0  0  0  0  0  0  0  0
   62.2172   32.5181   53.5920 H   0  0  0  0  0  0  0  0  0  0  0  0
   59.9272   31.6132   54.0133 H   0  0  0  0  0  0  0  0  0  0  0  0
   58.0598   32.1604   52.4470 H   0  0  0  0  0  0  0  0  0  0  0  0
   58.4774   33.6271   50.4692 H   0  0  0  0  0  0  0  0  0  0  0  0
   60.7512   34.5667   50.0662 H   0  0  0  0  0  0  0  0  0  0  0  0
   59.7518   31.2695   45.2784 H   0  0  0  0  0  0  0  0  0  0  0  0
   59.4430   30.4513   46.8555 H   0  0  0  0  0  0  0  0  0  0  0  0
   57.9033   29.6865   45.0208 H   0  0  0  0  0  0  0  0  0  0  0  0
   57.0481   30.4415   46.4378 H   0  0  0  0  0  0  0  0  0  0  0  0
  1  2  1  0
  2  3  1  0
  3  4  1  0
  4  5  1  0
  5  6  1  0
  6  7  2  0
  6  8  2  0
  6  9  1  0
  9 10  2  0
 10 11  1  0
 11 12  1  0
 12 13  1  0
 13 14  2  0
 13 15  1  0
 15 16  1  0
 16 17  2  0
 17 18  1  0
 18 19  2  0
 19 20  1  0
 20 21  1  0
 21 22  1  0
 21 23  2  0
 21 24  2  0
 20 25  2  0
 11 26  1  0
 26 27  2  0
 27 28  1  0
 28 29  2  0
 28 30  2  0
 28 31  1  0
 31 32  1  0
 32 33  1  0
 33 34  2  0
 34 35  1  0
 35 36  2  0
 36 37  1  0
 37 38  2  0
  5 39  1  0
 39 40  1  0
 40  2  1  0
 27  9  1  0
 38 33  1  0
 25 16  1  0
  1 41  1  0
  1 42  1  0
  1 43  1  0
  3 44  1  0
  3 45  1  0
  4 46  1  0
  4 47  1  0
 10 48  1  0
 12 49  1  0
 12 50  1  0
 17 51  1  0
 18 52  1  0
 19 53  1  0
 22 54  1  0
 25 55  1  0
 26 56  1  0
 32 57  1  0
 32 58  1  0
 34 59  1  0
 35 60  1  0
 36 61  1  0
 37 62  1  0
 38 63  1  0
 39 64  1  0
 39 65  1  0
 40 66  1  0
 40 67  1  0
M  CHG  3  15  -1  22  -1  31  -1
M  END
>  <UniqueID>  (34) 
33

>  <SMILES>  (34) 
CN1CCN(S(=O)(=O)c2cn(CC(=O)[N-]c3cccc(S([NH-])(=O)=O)c3)cc2S(=O)(=O)[N-]Cc2ccccc2)CC1

>  <Energy>  (34) 
93.95290355520262

>  <Genealogy>  (34) 
CN1CCN(S(=O)(=O)c2cn(CC(=O)[N-]c3cccc(S([NH-])(=O)=O)c3)cc2S(=O)(=O)[N-]Cc2ccccc2)CC1 (protonated)
CN1CCN(S(=O)(=O)c2cn(CC(=O)[N-]c3cccc(S([NH-])(=O)=O)c3)cc2S(=O)(=O)[N-]Cc2ccccc2)CC1 (3D coordinates assigned)
CN1CCN(S(=O)(=O)c2cn(CC(=O)[N-]c3cccc(S([NH-])(=O)=O)c3)cc2S(=O)(=O)[N-]Cc2ccccc2)CC1 (nonaromatic ring conformer: 93.95290355520262 kcal/mol)

>  <smiles>  (34) 
CN1CCN(S(=O)(=O)c2cn(CC(=O)Nc3cccc(S(N)(=O)=O)c3)cc2S(=O)(=O)NCc2ccccc2)CC1

>  <score_type>  (34) 
oracle

>  <origin>  (34) 
adg

>  <m_score__min__energy>  (34) 
-15.74

>  <m_primary>  (34) 
energy

$$$$
34:0
     RDKit          3D

 45 47  0  0  0  0  0  0  0  0999 V2000
   58.0510   25.9440   45.1620 O   0  0  0  0  0  0  0  0  0  0  0  0
   57.9520   27.1950   45.0580 C   0  0  0  0  0  0  0  0  0  0  0  0
   57.7670   27.8140   43.7080 C   0  0  0  0  0  0  0  0  0  0  0  0
   57.9850   29.2570   43.7820 N   0  0  0  0  0  0  0  0  0  0  0  0
   57.0260   30.1470   44.3760 C   0  0  0  0  0  0  0  0  0  0  0  0
   55.9310   29.6950   44.8070 O   0  0  0  0  0  0  0  0  0  0  0  0
   57.2910   31.5910   44.4910 C   0  0  0  0  0  0  0  0  0  0  0  0
   58.1180   32.3550   43.6860 C   0  0  0  0  0  0  0  0  0  0  0  0
   58.0430   33.6370   44.1840 C   0  0  0  0  0  0  0  0  0  0  0  0
   57.1790   33.5820   45.2580 C   0  0  0  0  0  0  0  0  0  0  0  0
   56.7490   32.3520   45.4150 O   0  0  0  0  0  0  0  0  0  0  0  0
   57.9270   28.0310   46.2210 N   0  0  0  0  0  0  0  0  0  0  0  0
   58.9280   28.9850   46.6090 C   0  0  0  0  0  0  0  0  0  0  0  0
   60.1400   29.0070   45.9110 C   0  0  0  0  0  0  0  0  0  0  0  0
   61.1460   29.9100   46.2660 C   0  0  0  0  0  0  0  0  0  0  0  0
   60.9550   30.7960   47.3350 C   0  0  0  0  0  0  0  0  0  0  0  0
   62.2180   31.9510   47.7720 S   0  0  0  0  0  0  0  0  0  0  0  0
   63.4370   31.6960   46.9290 O   0  0  0  0  0  0  0  0  0  0  0  0
   62.5980   31.7470   49.2130 O   0  0  0  0  0  0  0  0  0  0  0  0
   61.6880   33.6020   47.5440 N   0  0  0  0  0  0  0  0  0  0  0  0
   60.9620   34.1120   48.7280 C   0  0  0  0  0  0  0  0  0  0  0  0
   59.4430   34.1820   48.4880 C   0  0  0  0  0  0  0  0  0  0  0  0
   59.0870   35.0060   47.3860 O   0  0  0  0  0  0  0  0  0  0  0  0
   60.0350   34.9860   46.3250 C   0  0  0  0  0  0  0  0  0  0  0  0
   60.9160   33.7270   46.2940 C   0  0  0  0  0  0  0  0  0  0  0  0
   59.7560   30.7520   48.0590 C   0  0  0  0  0  0  0  0  0  0  0  0
   58.7480   29.8510   47.7030 C   0  0  0  0  0  0  0  0  0  0  0  0
   58.4879   27.3730   43.0039 H   0  0  0  0  0  0  0  0  0  0  0  0
   56.7404   27.6227   43.3623 H   0  0  0  0  0  0  0  0  0  0  0  0
   58.8640   29.6370   43.3660 H   0  0  0  0  0  0  0  0  0  0  0  0
   58.7119   32.0100   42.8268 H   0  0  0  0  0  0  0  0  0  0  0  0
   58.5667   34.5258   43.8022 H   0  0  0  0  0  0  0  0  0  0  0  0
   56.8940   34.4383   45.8868 H   0  0  0  0  0  0  0  0  0  0  0  0
   60.3025   28.3087   45.0768 H   0  0  0  0  0  0  0  0  0  0  0  0
   62.0915   29.9254   45.7041 H   0  0  0  0  0  0  0  0  0  0  0  0
   61.1565   33.4428   49.5791 H   0  0  0  0  0  0  0  0  0  0  0  0
   61.3206   35.1315   48.9329 H   0  0  0  0  0  0  0  0  0  0  0  0
   59.0720   33.1641   48.2975 H   0  0  0  0  0  0  0  0  0  0  0  0
   58.9904   34.6256   49.3871 H   0  0  0  0  0  0  0  0  0  0  0  0
   59.4886   35.0487   45.3724 H   0  0  0  0  0  0  0  0  0  0  0  0
   60.7087   35.8406   46.4856 H   0  0  0  0  0  0  0  0  0  0  0  0
   60.2756   32.8407   46.1746 H   0  0  0  0  0  0  0  0  0  0  0  0
   61.6177   33.8063   45.4506 H   0  0  0  0  0  0  0  0  0  0  0  0
   59.6071   31.4302   48.9122 H   0  0  0  0  0  0  0  0  0  0  0  0
   57.8119   29.8191   48.2797 H   0  0  0  0  0  0  0  0  0  0  0  0
  1  2  2  0
  2  3  1  0
  3  4  1  0
  4  5  1  0
  5  6  2  0
  5  7  1  0
  7  8  2  0
  8  9  1  0
  9 10  2  0
 10 11  1  0
  2 12  1  0
 12 13  1  0
 13 14  2  0
 14 15  1  0
 15 16  2  0
 16 17  1  0
 17 18  2  0
 17 19  2  0
 17 20  1  0
 20 21  1  0
 21 22  1  0
 22 23  1  0
 23 24  1  0
 24 25  1  0
 16 26  1  0
 26 27  2  0
 11  7  1  0
 27 13  1  0
 25 20  1  0
  3 28  1  0
  3 29  1  0
  4 30  1  0
  8 31  1  0
  9 32  1  0
 10 33  1  0
 14 34  1  0
 15 35  1  0
 21 36  1  0
 21 37  1  0
 22 38  1  0
 22 39  1  0
 24 40  1  0
 24 41  1  0
 25 42  1  0
 25 43  1  0
 26 44  1  0
 27 45  1  0
M  CHG  1  12  -1
M  END
>  <UniqueID>  (35) 
34

>  <SMILES>  (35) 
O=C(CNC(=O)c1ccco1)[N-]c1ccc(S(=O)(=O)N2CCOCC2)cc1

>  <Energy>  (35) 
83.50551953572769

>  <Genealogy>  (35) 
O=C(CNC(=O)c1ccco1)[N-]c1ccc(S(=O)(=O)N2CCOCC2)cc1 (protonated)
O=C(CNC(=O)c1ccco1)[N-]c1ccc(S(=O)(=O)N2CCOCC2)cc1 (3D coordinates assigned)
O=C(CNC(=O)c1ccco1)[N-]c1ccc(S(=O)(=O)N2CCOCC2)cc1 (nonaromatic ring conformer: 83.50551953572769 kcal/mol)

>  <smiles>  (35) 
O=C(CNC(=O)c1ccco1)Nc1ccc(S(=O)(=O)N2CCOCC2)cc1

>  <score_type>  (35) 
oracle

>  <origin>  (35) 
adg

>  <m_score__min__energy>  (35) 
-9.4600000000000009

>  <m_primary>  (35) 
energy

$$$$
35:0
     RDKit          3D

 51 53  0  0  0  0  0  0  0  0999 V2000
   60.7590   30.1990   47.0910 H   0  0  0  0  0  0  0  0  0  0  0  0
   61.5130   30.7760   46.7380 O   0  0  0  0  0  0  0  0  0  0  0  0
   62.1390   31.7450   47.5240 C   0  0  0  0  0  0  0  0  0  0  0  0
   63.2760   32.3920   47.0240 C   0  0  0  0  0  0  0  0  0  0  0  0
   63.6601   32.1312   46.0268 H   0  0  0  0  0  0  0  0  0  0  0  0
   63.9240   33.3660   47.7850 C   0  0  0  0  0  0  0  0  0  0  0  0
   64.8158   33.8717   47.3864 H   0  0  0  0  0  0  0  0  0  0  0  0
   63.4410   33.6990   49.0520 C   0  0  0  0  0  0  0  0  0  0  0  0
   63.9540   34.4656   49.6512 H   0  0  0  0  0  0  0  0  0  0  0  0
   62.3070   33.0600   49.5600 C   0  0  0  0  0  0  0  0  0  0  0  0
   61.9293   33.3278   50.5578 H   0  0  0  0  0  0  0  0  0  0  0  0
   61.6440   32.0740   48.8010 C   0  0  0  0  0  0  0  0  0  0  0  0
   60.5060   31.4070   49.2790 O   0  0  0  0  0  0  0  0  0  0  0  0
   60.4430   30.0130   49.5670 C   0  0  0  0  0  0  0  0  0  0  0  0
   60.1909   29.8668   50.6277 H   0  0  0  0  0  0  0  0  0  0  0  0
   61.4174   29.5467   49.3594 H   0  0  0  0  0  0  0  0  0  0  0  0
   59.3920   29.3860   48.7120 C   0  0  0  0  0  0  0  0  0  0  0  0
   58.1800   29.6790   48.8950 O   0  0  0  0  0  0  0  0  0  0  0  0
   59.7810   28.4900   47.6640 N   0  0  0  0  0  0  0  0  0  0  0  0
   59.1440   28.3550   46.3860 C   0  0  0  0  0  0  0  0  0  0  0  0
   59.0970   27.1260   45.7040 C   0  0  0  0  0  0  0  0  0  0  0  0
   59.5476   26.2301   46.1560 H   0  0  0  0  0  0  0  0  0  0  0  0
   58.4790   27.0400   44.4530 C   0  0  0  0  0  0  0  0  0  0  0  0
   58.4421   26.0762   43.9241 H   0  0  0  0  0  0  0  0  0  0  0  0
   57.9080   28.1760   43.8730 C   0  0  0  0  0  0  0  0  0  0  0  0
   57.4128   28.1024   42.8935 H   0  0  0  0  0  0  0  0  0  0  0  0
   57.9650   29.4070   44.5360 C   0  0  0  0  0  0  0  0  0  0  0  0
   57.1930   30.8350   43.8520 S   0  0  0  0  0  0  0  0  0  0  0  0
   55.8540   31.0780   44.4930 O   0  0  0  0  0  0  0  0  0  0  0  0
   57.0000   30.6210   42.3780 O   0  0  0  0  0  0  0  0  0  0  0  0
   58.2060   32.2220   44.1010 N   0  0  0  0  0  0  0  0  0  0  0  0
   58.0730   33.0680   45.0810 C   0  0  0  0  0  0  0  0  0  0  0  0
   57.4910   32.6570   46.3340 N   0  0  0  0  0  0  0  0  0  0  0  0
   56.6440   32.0470   46.3100 H   0  0  0  0  0  0  0  0  0  0  0  0
   58.0740   32.9110   47.6570 C   0  0  0  0  0  0  0  0  0  0  0  0
   58.7436   32.0757   47.9097 H   0  0  0  0  0  0  0  0  0  0  0  0
   57.2400   33.0034   48.3682 H   0  0  0  0  0  0  0  0  0  0  0  0
   58.8770   34.2170   47.7260 C   0  0  0  0  0  0  0  0  0  0  0  0
   59.1843   34.3857   48.7686 H   0  0  0  0  0  0  0  0  0  0  0  0
   58.2280   35.0242   47.3556 H   0  0  0  0  0  0  0  0  0  0  0  0
   60.1350   34.1920   46.8410 C   0  0  0  0  0  0  0  0  0  0  0  0
   60.4645   33.1472   46.7416 H   0  0  0  0  0  0  0  0  0  0  0  0
   60.8793   34.8323   47.3370 H   0  0  0  0  0  0  0  0  0  0  0  0
   59.9330   34.7690   45.4280 C   0  0  0  0  0  0  0  0  0  0  0  0
   60.6842   34.3254   44.7581 H   0  0  0  0  0  0  0  0  0  0  0  0
   60.0403   35.8613   45.5015 H   0  0  0  0  0  0  0  0  0  0  0  0
   58.5390   34.4840   44.8550 C   0  0  0  0  0  0  0  0  0  0  0  0
   58.5625   34.6740   43.7718 H   0  0  0  0  0  0  0  0  0  0  0  0
   57.8327   35.1443   45.3796 H   0  0  0  0  0  0  0  0  0  0  0  0
   58.6010   29.4940   45.7830 C   0  0  0  0  0  0  0  0  0  0  0  0
   58.6734   30.4668   46.2913 H   0  0  0  0  0  0  0  0  0  0  0  0
  1  2  1  0
  2  3  1  0
  3  4  2  0
  4  5  1  0
  4  6  1  0
  6  7  1  0
  6  8  2  0
  8  9  1  0
  8 10  1  0
 10 11  1  0
 10 12  2  0
 12 13  1  0
 13 14  1  0
 14 15  1  0
 14 16  1  0
 14 17  1  0
 17 18  2  0
 17 19  1  0
 19 20  1  0
 20 21  2  0
 21 22  1  0
 21 23  1  0
 23 24  1  0
 23 25  2  0
 25 26  1  0
 25 27  1  0
 27 28  1  0
 28 29  2  0
 28 30  2  0
 28 31  1  0
 31 32  2  0
 32 33  1  0
 33 34  1  0
 33 35  1  0
 35 36  1  0
 35 37  1  0
 35 38  1  0
 38 39  1  0
 38 40  1  0
 38 41  1  0
 41 42  1  0
 41 43  1  0
 41 44  1  0
 44 45  1  0
 44 46  1  0
 44 47  1  0
 47 48  1  0
 47 49  1  0
 27 50  2  0
 50 51  1  0
 12  3  1  0
 50 20  1  0
 47 32  1  0
M  CHG  1  19  -1
M  END
>  <UniqueID>  (36) 
35

>  <SMILES>  (36) 
O=C(COc1ccccc1O)[N-]c1cccc(S(=O)(=O)/N=C2/CCCCCN2)c1

>  <Energy>  (36) 
59.673526588265304

>  <Genealogy>  (36) 
O=C(COc1ccccc1O)[N-]c1cccc(S(=O)(=O)N=C2CCCCCN2)c1 (protonated)
O=C(COc1ccccc1O)[N-]c1cccc(S(=O)(=O)/N=C2/CCCCCN2)c1 (cis-trans isomerization)
O=C(COc1ccccc1O)[N-]c1cccc(S(=O)(=O)/N=C2/CCCCCN2)c1 (3D coordinates assigned)
O=C(COc1ccccc1O)[N-]c1cccc(S(=O)(=O)/N=C2/CCCCCN2)c1 (nonaromatic ring conformer: 59.673526588265304 kcal/mol)

>  <smiles>  (36) 
O=C(COc1ccccc1O)Nc1cccc(S(=O)(=O)N=C2CCCCCN2)c1

>  <score_type>  (36) 
oracle

>  <origin>  (36) 
adg

>  <m_score__min__energy>  (36) 
-8.7300000000000004

>  <m_primary>  (36) 
energy

$$$$
36:0
     RDKit          3D

 42 43  0  0  0  0  0  0  0  0999 V2000
   58.4490   31.3460   51.1690 C   0  0  0  0  0  0  0  0  0  0  0  0
   58.2130   32.6980   50.8500 O   0  0  0  0  0  0  0  0  0  0  0  0
   59.0510   33.5190   51.6360 C   0  0  0  0  0  0  0  0  0  0  0  0
   60.4870   33.4520   51.1160 C   0  0  0  0  0  0  0  0  0  0  0  0
   60.5690   33.9350   49.7740 O   0  0  0  0  0  0  0  0  0  0  0  0
   60.0590   33.3000   48.6280 C   0  0  0  0  0  0  0  0  0  0  0  0
   59.0070   33.8440   47.8650 C   0  0  0  0  0  0  0  0  0  0  0  0
   58.5350   33.1760   46.7320 C   0  0  0  0  0  0  0  0  0  0  0  0
   57.5220   33.7110   46.0060 N   0  0  0  0  0  0  0  0  0  0  0  0
   57.0430   33.0880   44.9010 C   0  0  0  0  0  0  0  0  0  0  0  0
   57.5760   31.9010   44.4820 N   0  0  0  0  0  0  0  0  0  0  0  0
   57.0110   31.2430   43.2930 C   0  0  0  0  0  0  0  0  0  0  0  0
   56.5140   29.8740   43.6480 C   0  0  0  0  0  0  0  0  0  0  0  0
   57.3720   28.7390   43.5270 N   0  0  0  0  0  0  0  0  0  0  0  0
   55.3200   29.7170   44.0190 O   0  0  0  0  0  0  0  0  0  0  0  0
   58.5930   31.3170   45.1960 C   0  0  0  0  0  0  0  0  0  0  0  0
   59.0720   30.2090   44.8250 O   0  0  0  0  0  0  0  0  0  0  0  0
   59.1020   31.9520   46.3440 C   0  0  0  0  0  0  0  0  0  0  0  0
   60.1460   31.4010   47.1080 C   0  0  0  0  0  0  0  0  0  0  0  0
   60.6230   32.0690   48.2530 C   0  0  0  0  0  0  0  0  0  0  0  0
   61.6650   31.5550   49.0460 O   0  0  0  0  0  0  0  0  0  0  0  0
   63.0430   31.9200   48.9540 C   0  0  0  0  0  0  0  0  0  0  0  0
   63.4850   31.9940   47.4950 C   0  0  0  0  0  0  0  0  0  0  0  0
   63.3630   33.8170   46.8530 Br  0  0  0  0  0  0  0  0  0  0  0  0
   58.4700   31.2255   52.2622 H   0  0  0  0  0  0  0  0  0  0  0  0
   57.6458   30.7241   50.7469 H   0  0  0  0  0  0  0  0  0  0  0  0
   59.4154   31.0330   50.7469 H   0  0  0  0  0  0  0  0  0  0  0  0
   58.6937   34.5581   51.5857 H   0  0  0  0  0  0  0  0  0  0  0  0
   59.0277   33.1660   52.6776 H   0  0  0  0  0  0  0  0  0  0  0  0
   61.1318   34.0680   51.7600 H   0  0  0  0  0  0  0  0  0  0  0  0
   60.8165   32.4026   51.1313 H   0  0  0  0  0  0  0  0  0  0  0  0
   58.5541   34.8011   48.1632 H   0  0  0  0  0  0  0  0  0  0  0  0
   56.2164   33.5428   44.3355 H   0  0  0  0  0  0  0  0  0  0  0  0
   56.1749   31.8447   42.9072 H   0  0  0  0  0  0  0  0  0  0  0  0
   57.7938   31.1536   42.5254 H   0  0  0  0  0  0  0  0  0  0  0  0
   57.0190   27.7850   43.7590 H   0  0  0  0  0  0  0  0  0  0  0  0
   58.3590   28.8510   43.2070 H   0  0  0  0  0  0  0  0  0  0  0  0
   60.5935   30.4415   46.8095 H   0  0  0  0  0  0  0  0  0  0  0  0
   63.1885   32.9030   49.4257 H   0  0  0  0  0  0  0  0  0  0  0  0
   63.6461   31.1571   49.4681 H   0  0  0  0  0  0  0  0  0  0  0  0
   64.5260   31.6483   47.4124 H   0  0  0  0  0  0  0  0  0  0  0  0
   62.8283   31.3541   46.8874 H   0  0  0  0  0  0  0  0  0  0  0  0
  1  2  1  0
  2  3  1  0
  3  4  1  0
  4  5  1  0
  5  6  1  0
  6  7  2  0
  7  8  1  0
  8  9  1  0
  9 10  2  0
 10 11  1  0
 11 12  1  0
 12 13  1  0
 13 14  1  0
 13 15  2  0
 11 16  1  0
 16 17  2  0
 16 18  1  0
 18 19  1  0
 19 20  2  0
 20 21  1  0
 21 22  1  0
 22 23  1  0
 23 24  1  0
 20  6  1  0
 18  8  2  0
  1 25  1  0
  1 26  1  0
  1 27  1  0
  3 28  1  0
  3 29  1  0
  4 30  1  0
  4 31  1  0
  7 32  1  0
 10 33  1  0
 12 34  1  0
 12 35  1  0
 14 36  1  0
 14 37  1  0
 19 38  1  0
 22 39  1  0
 22 40  1  0
 23 41  1  0
 23 42  1  0
M  END
>  <UniqueID>  (37) 
36

>  <SMILES>  (37) 
COCCOc1cc2ncn(CC(N)=O)c(=O)c2cc1OCCBr

>  <Energy>  (37) 
43.244056662105855

>  <Genealogy>  (37) 
COCCOc1cc2ncn(CC(N)=O)c(=O)c2cc1OCCBr (3D coordinates assigned)
COCCOc1cc2ncn(CC(N)=O)c(=O)c2cc1OCCBr (optimized conformer: 43.244056662105855 kcal/mol)

>  <smiles>  (37) 
COCCOc1cc2ncn(CC(N)=O)c(=O)c2cc1OCCBr

>  <score_type>  (37) 
oracle

>  <origin>  (37) 
adg

>  <m_score__min__energy>  (37) 
-6.5499999999999998

>  <m_primary>  (37) 
energy

$$$$
37:0
     RDKit          3D

 58 61  0  0  0  0  0  0  0  0999 V2000
   52.5910   29.6640   54.6630 H   0  0  0  0  0  0  0  0  0  0  0  0
   52.3780   30.4070   54.0410 O   0  0  0  0  0  0  0  0  0  0  0  0
   53.1370   30.2250   52.8710 C   0  0  2  0  0  0  0  0  0  0  0  0
   53.3792   29.1555   52.7845 H   0  0  0  0  0  0  0  0  0  0  0  0
   54.4030   30.9640   52.9590 N   0  0  0  0  0  0  0  0  0  0  0  0
   55.5890   30.4730   52.7650 C   0  0  0  0  0  0  0  0  0  0  0  0
   56.2580   30.5330   51.5910 N   0  0  0  0  0  0  0  0  0  0  0  0
   57.4470   29.9360   51.6410 N   0  0  0  0  0  0  0  0  0  0  0  0
   57.7270   29.4050   52.8530 C   0  0  0  0  0  0  0  0  0  0  0  0
   58.9880   28.6580   53.1570 C   0  0  0  0  0  0  0  0  0  0  0  0
   59.5553   29.2121   53.9194 H   0  0  0  0  0  0  0  0  0  0  0  0
   59.5647   28.5662   52.2248 H   0  0  0  0  0  0  0  0  0  0  0  0
   58.7000   27.2460   53.6810 C   0  0  0  0  0  0  0  0  0  0  0  0
   57.6551   26.9920   53.4494 H   0  0  0  0  0  0  0  0  0  0  0  0
   58.8895   27.2510   54.7645 H   0  0  0  0  0  0  0  0  0  0  0  0
   59.7910   25.9720   52.9370 S   0  0  0  0  0  0  0  0  0  0  0  0
   61.0810   27.1170   52.3270 C   0  0  0  0  0  0  0  0  0  0  0  0
   61.9734   27.0363   52.9650 H   0  0  0  0  0  0  0  0  0  0  0  0
   60.6983   28.1478   52.3575 H   0  0  0  0  0  0  0  0  0  0  0  0
   61.4500   26.7550   50.8880 C   0  0  0  0  0  0  0  0  0  0  0  0
   61.2702   25.6807   50.7344 H   0  0  0  0  0  0  0  0  0  0  0  0
   62.5100   27.0060   50.7348 H   0  0  0  0  0  0  0  0  0  0  0  0
   60.6410   27.5290   49.8910 C   0  0  0  0  0  0  0  0  0  0  0  0
   59.9390   28.6420   50.2130 N   0  0  0  0  0  0  0  0  0  0  0  0
   59.2110   29.1230   49.2070 N   0  0  0  0  0  0  0  0  0  0  0  0
   59.3060   28.3830   48.0810 C   0  0  0  0  0  0  0  0  0  0  0  0
   58.6960   28.7140   46.9810 N   0  0  0  0  0  0  0  0  0  0  0  0
   57.7310   27.9150   46.2780 C   0  0  0  0  0  0  0  0  0  0  0  0
   56.8230   28.5000   45.6290 O   0  0  0  0  0  0  0  0  0  0  0  0
   57.7350   26.4340   46.3420 C   0  0  0  0  0  0  0  0  0  0  0  0
   56.7510   25.7580   47.0810 C   0  0  0  0  0  0  0  0  0  0  0  0
   55.9806   26.3322   47.6165 H   0  0  0  0  0  0  0  0  0  0  0  0
   56.7420   24.3610   47.1420 C   0  0  0  0  0  0  0  0  0  0  0  0
   55.9609   23.8426   47.7174 H   0  0  0  0  0  0  0  0  0  0  0  0
   57.7300   23.6150   46.4690 C   0  0  0  0  0  0  0  0  0  0  0  0
   57.7600   22.2120   46.4920 O   0  0  0  0  0  0  0  0  0  0  0  0
   57.7910   21.3880   45.3300 C   0  0  0  0  0  0  0  0  0  0  0  0
   57.8308   20.3308   45.6312 H   0  0  0  0  0  0  0  0  0  0  0  0
   56.8856   21.5648   44.7309 H   0  0  0  0  0  0  0  0  0  0  0  0
   58.6806   21.6323   44.7309 H   0  0  0  0  0  0  0  0  0  0  0  0
   58.7210   24.2910   45.7470 C   0  0  0  0  0  0  0  0  0  0  0  0
   59.5000   23.7182   45.2225 H   0  0  0  0  0  0  0  0  0  0  0  0
   58.7290   25.6880   45.6870 C   0  0  0  0  0  0  0  0  0  0  0  0
   59.5187   26.2062   45.1233 H   0  0  0  0  0  0  0  0  0  0  0  0
   60.3460   27.0670   48.2940 S   0  0  0  0  0  0  0  0  0  0  0  0
   56.4640   29.6530   53.9440 S   0  0  0  0  0  0  0  0  0  0  0  0
   52.3530   30.5810   51.6300 C   0  0  0  0  0  0  0  0  0  0  0  0
   51.8000   31.8190   51.3360 C   0  0  0  0  0  0  0  0  0  0  0  0
   51.7760   32.7082   51.9831 H   0  0  0  0  0  0  0  0  0  0  0  0
   51.2870   31.7000   50.0620 C   0  0  0  0  0  0  0  0  0  0  0  0
   50.6470   32.7170   49.3630 O   0  0  0  0  0  0  0  0  0  0  0  0
   51.5040   30.4670   49.5680 N   0  0  0  0  0  0  0  0  0  0  0  0
   51.1820   30.0000   48.2240 C   0  0  0  0  0  0  0  0  0  0  0  0
   50.5587   29.0960   48.2895 H   0  0  0  0  0  0  0  0  0  0  0  0
   50.6328   30.7858   47.6846 H   0  0  0  0  0  0  0  0  0  0  0  0
   52.1117   29.7661   47.6846 H   0  0  0  0  0  0  0  0  0  0  0  0
   52.1780   29.7810   50.5110 C   0  0  0  0  0  0  0  0  0  0  0  0
   52.5347   28.7455   50.4091 H   0  0  0  0  0  0  0  0  0  0  0  0
  1  2  1  0
  2  3  1  0
  3  4  1  6
  3  5  1  0
  5  6  2  3
  6  7  1  0
  7  8  1  0
  8  9  2  0
  9 10  1  0
 10 11  1  0
 10 12  1  0
 10 13  1  0
 13 14  1  0
 13 15  1  0
 13 16  1  0
 16 17  1  0
 17 18  1  0
 17 19  1  0
 17 20  1  0
 20 21  1  0
 20 22  1  0
 20 23  1  0
 23 24  2  0
 24 25  1  0
 25 26  1  0
 26 27  2  0
 27 28  1  0
 28 29  2  0
 28 30  1  0
 30 31  2  0
 31 32  1  0
 31 33  1  0
 33 34  1  0
 33 35  2  0
 35 36  1  0
 36 37  1  0
 37 38  1  0
 37 39  1  0
 37 40  1  0
 35 41  1  0
 41 42  1  0
 41 43  2  0
 43 44  1  0
 26 45  1  0
  9 46  1  0
  3 47  1  0
 47 48  1  0
 48 49  1  0
 48 50  2  0
 50 51  1  0
 50 52  1  0
 52 53  1  0
 53 54  1  0
 53 55  1  0
 53 56  1  0
 52 57  1  0
 57 58  1  0
 46  6  1  0
 57 47  2  0
 45 23  1  0
 43 30  1  0
M  CHG  3   7  -1  25  -1  51  -1
M  END
>  <UniqueID>  (38) 
37

>  <SMILES>  (38) 
COc1ccc(C(=O)/N=c2/[n-]nc(CCSCCc3n[n-]c(=N[C@@H](O)c4cc([O-])n(C)c4)s3)s2)cc1

>  <Energy>  (38) 
157.898640422598

>  <Genealogy>  (38) 
COc1ccc(C(=O)N=c2[n-]nc(CCSCCc3n[n-]c(=NC(O)c4cc([O-])n(C)c4)s3)s2)cc1 (protonated)
COc1ccc(C(=O)N=c2[n-]nc(CCSCCc3n[n-]c(=N[C@@H](O)c4cc([O-])n(C)c4)s3)s2)cc1 (chirality)
COc1ccc(C(=O)/N=c2/[n-]nc(CCSCCc3n[n-]c(=N[C@@H](O)c4cc([O-])n(C)c4)s3)s2)cc1 (cis-trans isomerization)
COc1ccc(C(=O)/N=c2/[n-]nc(CCSCCc3n[n-]c(=N[C@@H](O)c4cc([O-])n(C)c4)s3)s2)cc1 (3D coordinates assigned)
COc1ccc(C(=O)/N=c2/[n-]nc(CCSCCc3n[n-]c(=N[C@@H](O)c4cc([O-])n(C)c4)s3)s2)cc1 (optimized conformer: 157.898640422598 kcal/mol)

>  <smiles>  (38) 
COc1ccc(C(=O)N=c2[nH]nc(CCSCCc3n[nH]c(=NC(O)c4cc(O)n(C)c4)s3)s2)cc1

>  <score_type>  (38) 
oracle

>  <origin>  (38) 
adg

>  <m_score__min__energy>  (38) 
-16.510000000000002

>  <m_primary>  (38) 
energy

$$$$
38:0
     RDKit          3D

 48 51  0  0  0  0  0  0  0  0999 V2000
   59.7020   25.8590   46.3170 C   0  0  0  0  0  0  0  0  0  0  0  0
   60.5170   26.9100   46.4030 C   0  0  0  0  0  0  0  0  0  0  0  0
   60.0370   28.3000   46.3150 C   0  0  0  0  0  0  0  0  0  0  0  0
   58.8490   28.5580   45.7160 N   0  0  0  0  0  0  0  0  0  0  0  0
   58.3860   29.8310   45.6310 C   0  0  0  0  0  0  0  0  0  0  0  0
   57.1170   30.0830   45.0040 C   0  0  0  0  0  0  0  0  0  0  0  0
   56.0950   30.2860   44.5000 N   0  0  0  0  0  0  0  0  0  0  0  0
   59.1170   30.8560   46.1460 N   0  0  0  0  0  0  0  0  0  0  0  0
   60.3210   30.6060   46.7340 C   0  0  0  0  0  0  0  0  0  0  0  0
   61.1360   31.7020   47.3070 C   0  0  0  0  0  0  0  0  0  0  0  0
   62.1950   31.3790   48.1730 C   0  0  0  0  0  0  0  0  0  0  0  0
   62.9960   32.3840   48.7430 C   0  0  0  0  0  0  0  0  0  0  0  0
   64.1050   32.0370   49.6750 C   0  0  0  0  0  0  0  0  0  0  0  0
   65.2690   32.7080   49.6390 C   0  0  0  0  0  0  0  0  0  0  0  0
   66.4310   32.3020   50.5100 C   0  0  0  0  0  0  0  0  0  0  0  0
   66.0150   31.6210   51.6800 O   0  0  0  0  0  0  0  0  0  0  0  0
   65.2220   30.5070   51.3240 C   0  0  0  0  0  0  0  0  0  0  0  0
   63.8900   30.9820   50.7370 C   0  0  0  0  0  0  0  0  0  0  0  0
   62.7140   33.7250   48.4420 C   0  0  0  0  0  0  0  0  0  0  0  0
   61.6780   34.0560   47.5680 C   0  0  0  0  0  0  0  0  0  0  0  0
   60.8890   33.0500   46.9770 C   0  0  0  0  0  0  0  0  0  0  0  0
   59.8710   33.3510   46.0520 O   0  0  0  0  0  0  0  0  0  0  0  0
   59.3540   34.6500   45.7730 C   0  0  0  0  0  0  0  0  0  0  0  0
   58.0710   34.5430   44.9370 C   0  0  0  0  0  0  0  0  0  0  0  0
   57.8610   33.2030   44.2480 C   0  0  0  0  0  0  0  0  0  0  0  0
   57.0260   33.5730   45.4650 C   0  0  0  0  0  0  0  0  0  0  0  0
   60.7670   29.3260   46.8250 N   0  0  0  0  0  0  0  0  0  0  0  0
   60.1094   24.8398   46.3887 H   0  0  0  0  0  0  0  0  0  0  0  0
   58.6219   26.0108   46.1743 H   0  0  0  0  0  0  0  0  0  0  0  0
   61.5931   26.7321   46.5457 H   0  0  0  0  0  0  0  0  0  0  0  0
   58.7350   31.8280   46.1110 H   0  0  0  0  0  0  0  0  0  0  0  0
   62.4001   30.3242   48.4082 H   0  0  0  0  0  0  0  0  0  0  0  0
   65.3759   33.5685   48.9622 H   0  0  0  0  0  0  0  0  0  0  0  0
   67.0919   31.6397   49.9316 H   0  0  0  0  0  0  0  0  0  0  0  0
   66.9531   33.2184   50.8223 H   0  0  0  0  0  0  0  0  0  0  0  0
   65.7560   29.9034   50.5753 H   0  0  0  0  0  0  0  0  0  0  0  0
   65.0269   29.9000   52.2204 H   0  0  0  0  0  0  0  0  0  0  0  0
   63.3688   30.1231   50.2891 H   0  0  0  0  0  0  0  0  0  0  0  0
   63.2893   31.4210   51.5472 H   0  0  0  0  0  0  0  0  0  0  0  0
   63.3160   34.5238   48.8998 H   0  0  0  0  0  0  0  0  0  0  0  0
   61.4755   35.1125   47.3384 H   0  0  0  0  0  0  0  0  0  0  0  0
   59.1287   35.1623   46.7200 H   0  0  0  0  0  0  0  0  0  0  0  0
   60.1046   35.2203   45.2062 H   0  0  0  0  0  0  0  0  0  0  0  0
   58.0634   35.5957   44.6181 H   0  0  0  0  0  0  0  0  0  0  0  0
   57.3949   33.1634   43.2524 H   0  0  0  0  0  0  0  0  0  0  0  0
   58.5099   32.3569   43.9777 H   0  0  0  0  0  0  0  0  0  0  0  0
   55.9561   33.8006   45.3493 H   0  0  0  0  0  0  0  0  0  0  0  0
   56.8211   33.1049   46.4391 H   0  0  0  0  0  0  0  0  0  0  0  0
  1  2  2  0
  2  3  1  0
  3  4  2  0
  4  5  1  0
  5  6  1  0
  6  7  3  0
  5  8  2  0
  8  9  1  0
  9 10  1  0
 10 11  2  0
 11 12  1  0
 12 13  1  0
 13 14  2  0
 14 15  1  0
 15 16  1  0
 16 17  1  0
 17 18  1  0
 12 19  2  0
 19 20  1  0
 20 21  2  0
 21 22  1  0
 22 23  1  0
 23 24  1  0
 24 25  1  0
 25 26  1  0
  9 27  2  0
 27  3  1  0
 21 10  1  0
 26 24  1  0
 18 13  1  0
  1 28  1  0
  1 29  1  0
  2 30  1  0
  8 31  1  0
 11 32  1  0
 14 33  1  0
 15 34  1  0
 15 35  1  0
 17 36  1  0
 17 37  1  0
 18 38  1  0
 18 39  1  0
 19 40  1  0
 20 41  1  0
 23 42  1  0
 23 43  1  0
 24 44  1  0
 25 45  1  0
 25 46  1  0
 26 47  1  0
 26 48  1  0
M  CHG  1   8   1
M  END
>  <UniqueID>  (39) 
38

>  <SMILES>  (39) 
C=Cc1nc(C#N)[nH+]c(-c2cc(C3=CCOCC3)ccc2OCC2CC2)n1

>  <Energy>  (39) 
323.6560064788782

>  <Genealogy>  (39) 
C=Cc1nc(C#N)[nH+]c(-c2cc(C3=CCOCC3)ccc2OCC2CC2)n1 (protonated)
C=Cc1nc(C#N)[nH+]c(-c2cc(C3=CCOCC3)ccc2OCC2CC2)n1 (3D coordinates assigned)
C=Cc1nc(C#N)[nH+]c(-c2cc(C3=CCOCC3)ccc2OCC2CC2)n1 (nonaromatic ring conformer: 323.6560064788782 kcal/mol)

>  <smiles>  (39) 
C=Cc1nc(C#N)nc(-c2cc(C3=CCOCC3)ccc2OCC2CC2)n1

>  <score_type>  (39) 
oracle

>  <origin>  (39) 
adg

>  <m_score__min__energy>  (39) 
-7

>  <m_primary>  (39) 
energy

$$$$
39:0
     RDKit          3D

 36 38  0  0  0  0  0  0  0  0999 V2000
   59.6890   34.5740   48.0190 O   0  0  0  0  0  0  0  0  0  0  0  0
   59.6900   33.9880   46.9030 C   0  0  0  0  0  0  0  0  0  0  0  0
   58.5610   34.0960   46.0270 N   0  0  0  0  0  0  0  0  0  0  0  0
   58.1270   33.1190   45.0700 C   0  0  0  0  0  0  0  0  0  0  0  0
   58.5180   33.2660   43.7340 C   0  0  0  0  0  0  0  0  0  0  0  0
   58.1210   32.3340   42.7740 C   0  0  0  0  0  0  0  0  0  0  0  0
   57.3490   31.2310   43.1460 C   0  0  0  0  0  0  0  0  0  0  0  0
   56.9880   31.0370   44.4830 C   0  0  0  0  0  0  0  0  0  0  0  0
   56.2220   29.9100   44.8140 O   0  0  0  0  0  0  0  0  0  0  0  0
   56.7360   28.6810   45.2500 C   0  0  0  0  0  0  0  0  0  0  0  0
   58.1180   28.5130   45.3420 C   0  0  0  0  0  0  0  0  0  0  0  0
   58.6150   27.2900   45.7970 C   0  0  0  0  0  0  0  0  0  0  0  0
   59.8560   27.1030   45.8860 O   0  0  0  0  0  0  0  0  0  0  0  0
   57.7540   26.2990   46.1470 N   0  0  0  0  0  0  0  0  0  0  0  0
   56.4110   26.4800   46.0630 C   0  0  0  0  0  0  0  0  0  0  0  0
   55.6290   25.5520   46.3940 O   0  0  0  0  0  0  0  0  0  0  0  0
   55.9110   27.6640   45.6220 N   0  0  0  0  0  0  0  0  0  0  0  0
   57.3700   31.9930   45.4460 C   0  0  0  0  0  0  0  0  0  0  0  0
   60.8530   33.2780   46.4580 N   0  0  0  0  0  0  0  0  0  0  0  0
   61.9610   32.9460   47.3150 C   0  0  0  0  0  0  0  0  0  0  0  0
   63.1000   33.7720   47.3650 C   0  0  0  0  0  0  0  0  0  0  0  0
   64.1620   33.4620   48.2170 C   0  0  0  0  0  0  0  0  0  0  0  0
   64.0980   32.3340   49.0360 C   0  0  0  0  0  0  0  0  0  0  0  0
   65.1290   32.0360   49.8640 F   0  0  0  0  0  0  0  0  0  0  0  0
   62.9670   31.5150   49.0080 C   0  0  0  0  0  0  0  0  0  0  0  0
   61.8960   31.8160   48.1570 C   0  0  0  0  0  0  0  0  0  0  0  0
   60.5030   30.7430   48.1430 Cl  0  0  0  0  0  0  0  0  0  0  0  0
   59.1425   34.1220   43.4387 H   0  0  0  0  0  0  0  0  0  0  0  0
   58.4165   32.4683   41.7230 H   0  0  0  0  0  0  0  0  0  0  0  0
   57.0227   30.5100   42.3820 H   0  0  0  0  0  0  0  0  0  0  0  0
   58.8022   29.3275   45.0618 H   0  0  0  0  0  0  0  0  0  0  0  0
   57.0750   31.8585   46.4971 H   0  0  0  0  0  0  0  0  0  0  0  0
   60.9070   33.0280   45.4450 H   0  0  0  0  0  0  0  0  0  0  0  0
   63.1537   34.6676   46.7286 H   0  0  0  0  0  0  0  0  0  0  0  0
   65.0514   34.1087   48.2426 H   0  0  0  0  0  0  0  0  0  0  0  0
   62.9171   30.6288   49.6578 H   0  0  0  0  0  0  0  0  0  0  0  0
  1  2  2  0
  2  3  1  0
  3  4  1  0
  4  5  2  0
  5  6  1  0
  6  7  2  0
  7  8  1  0
  8  9  1  0
  9 10  1  0
 10 11  2  0
 11 12  1  0
 12 13  2  0
 12 14  1  0
 14 15  1  0
 15 16  2  0
 15 17  1  0
  8 18  2  0
  2 19  1  0
 19 20  1  0
 20 21  2  0
 21 22  1  0
 22 23  2  0
 23 24  1  0
 23 25  1  0
 25 26  2  0
 26 27  1  0
 18  4  1  0
 26 20  1  0
 17 10  1  0
  5 28  1  0
  6 29  1  0
  7 30  1  0
 11 31  1  0
 18 32  1  0
 19 33  1  0
 21 34  1  0
 22 35  1  0
 25 36  1  0
M  CHG  3   3  -1  14  -1  17  -1
M  END
>  <UniqueID>  (40) 
39

>  <SMILES>  (40) 
O=C([N-]c1cccc(Oc2cc(=O)[n-]c(=O)[n-]2)c1)Nc1ccc(F)cc1Cl

>  <Energy>  (40) 
52.662048523364035

>  <Genealogy>  (40) 
O=C([N-]c1cccc(Oc2cc(=O)[n-]c(=O)[n-]2)c1)Nc1ccc(F)cc1Cl (protonated)
O=C([N-]c1cccc(Oc2cc(=O)[n-]c(=O)[n-]2)c1)Nc1ccc(F)cc1Cl (3D coordinates assigned)
O=C([N-]c1cccc(Oc2cc(=O)[n-]c(=O)[n-]2)c1)Nc1ccc(F)cc1Cl (optimized conformer: 52.662048523364035 kcal/mol)

>  <smiles>  (40) 
O=C(Nc1cccc(Oc2cc(=O)[nH]c(=O)[nH]2)c1)Nc1ccc(F)cc1Cl

>  <score_type>  (40) 
oracle

>  <origin>  (40) 
adg

>  <m_score__min__energy>  (40) 
-14.02

>  <m_primary>  (40) 
energy

$$$$
40:0
     RDKit          3D

 49 52  0  0  1  0  0  0  0  0999 V2000
   55.4140   26.3690   46.3320 O   0  0  0  0  0  0  0  0  0  0  0  0
   56.4550   26.0410   45.7050 C   0  0  0  0  0  0  0  0  0  0  0  0
   57.6770   26.8230   45.8420 C   0  0  0  0  0  0  0  0  0  0  0  0
   58.1620   27.4210   44.6960 C   0  0  0  0  0  0  0  0  0  0  0  0
   59.3050   28.1910   44.6670 C   0  0  0  0  0  0  0  0  0  0  0  0
   59.9720   28.3470   45.8830 C   0  0  0  0  0  0  0  0  0  0  0  0
   59.4850   27.7450   47.0300 C   0  0  0  0  0  0  0  0  0  0  0  0
   60.2660   27.9790   48.2190 N   0  0  0  0  0  0  0  0  0  0  0  0
   60.2030   29.0910   48.8810 C   0  0  0  0  0  0  0  0  0  0  0  0
   61.0440   29.2480   49.9150 N   0  0  0  0  0  0  0  0  0  0  0  0
   61.0650   30.3950   50.6620 C   0  0  0  0  0  0  0  0  0  0  0  0
   60.1940   31.4130   50.3350 C   0  0  0  0  0  0  0  0  0  0  0  0
   59.3280   31.2490   49.2690 C   0  0  0  0  0  0  0  0  0  0  0  0
   58.5380   32.2080   48.9780 N   0  0  0  0  0  0  0  0  0  0  0  0
   58.6870   33.0790   47.8520 C   0  0  0  0  0  0  0  0  0  0  0  0
   59.7400   33.9670   47.7820 C   0  0  0  0  0  0  0  0  0  0  0  0
   59.9520   34.8310   46.7350 C   0  0  0  0  0  0  0  0  0  0  0  0
   59.0500   34.7980   45.6980 C   0  0  0  0  0  0  0  0  0  0  0  0
   59.2660   35.6540   44.6700 F   0  0  0  0  0  0  0  0  0  0  0  0
   57.9540   33.9250   45.6950 C   0  0  0  0  0  0  0  0  0  0  0  0
   57.0860   33.9250   44.6500 F   0  0  0  0  0  0  0  0  0  0  0  0
   57.8080   33.0820   46.7880 C   0  0  0  0  0  0  0  0  0  0  0  0
   59.3510   30.0860   48.5620 N   0  0  0  0  0  0  0  0  0  0  0  0
   58.3420   26.9780   47.0460 C   0  0  0  0  0  0  0  0  0  0  0  0
   56.3630   24.8840   44.8730 N   0  0  0  0  0  0  0  0  0  0  0  0
   55.0970   24.1970   44.8230 C   0  0  0  0  0  0  0  0  0  0  0  0
   55.0560   22.9810   43.9810 C   0  0  0  0  0  0  0  0  0  0  0  0
   56.2280   22.3740   43.6630 O   0  0  0  0  0  0  0  0  0  0  0  0
   57.3930   22.9030   44.1160 C   0  0  0  0  0  0  0  0  0  0  0  0
   57.4930   24.3990   44.1020 C   0  0  0  0  0  0  0  0  0  0  0  0
   57.6075   27.2754   43.7572 H   0  0  0  0  0  0  0  0  0  0  0  0
   59.6702   28.6556   43.7392 H   0  0  0  0  0  0  0  0  0  0  0  0
   60.8897   28.9517   45.9299 H   0  0  0  0  0  0  0  0  0  0  0  0
   61.7310   28.5260   50.2300 H   0  0  0  0  0  0  0  0  0  0  0  0
   61.7624   30.5025   51.5059 H   0  0  0  0  0  0  0  0  0  0  0  0
   60.1880   32.3467   50.9165 H   0  0  0  0  0  0  0  0  0  0  0  0
   60.4554   33.9846   48.6174 H   0  0  0  0  0  0  0  0  0  0  0  0
   60.8086   35.5211   46.7268 H   0  0  0  0  0  0  0  0  0  0  0  0
   56.9556   32.3869   46.8070 H   0  0  0  0  0  0  0  0  0  0  0  0
   58.7180   29.9340   47.7670 H   0  0  0  0  0  0  0  0  0  0  0  0
   57.9746   26.5106   47.9715 H   0  0  0  0  0  0  0  0  0  0  0  0
   54.8306   23.9055   45.8497 H   0  0  0  0  0  0  0  0  0  0  0  0
   54.3921   24.9038   44.3608 H   0  0  0  0  0  0  0  0  0  0  0  0
   54.4396   22.2398   44.5107 H   0  0  0  0  0  0  0  0  0  0  0  0
   54.6651   23.3347   43.0156 H   0  0  0  0  0  0  0  0  0  0  0  0
   57.5321   22.5675   45.1543 H   0  0  0  0  0  0  0  0  0  0  0  0
   58.1663   22.5508   43.4175 H   0  0  0  0  0  0  0  0  0  0  0  0
   58.4375   24.7230   44.5634 H   0  0  0  0  0  0  0  0  0  0  0  0
   57.4787   24.7936   43.0753 H   0  0  0  0  0  0  0  0  0  0  0  0
  1  2  2  0
  2  3  1  0
  3  4  2  0
  4  5  1  0
  5  6  2  0
  6  7  1  0
  7  8  1  0
  8  9  2  0
  9 10  1  0
 10 11  1  0
 11 12  2  0
 12 13  1  0
 13 14  2  0
 14 15  1  0
 15 16  2  0
 16 17  1  0
 17 18  2  0
 18 19  1  0
 18 20  1  0
 20 21  1  0
 20 22  2  0
 13 23  1  0
  7 24  2  0
  2 25  1  0
 25 26  1  0
 26 27  1  0
 27 28  1  0
 28 29  1  0
 29 30  1  0
 24  3  1  0
 30 25  1  0
 23  9  1  0
 22 15  1  0
  4 31  1  0
  5 32  1  0
  6 33  1  0
 10 34  1  0
 11 35  1  0
 12 36  1  0
 16 37  1  0
 17 38  1  0
 22 39  1  0
 23 40  1  0
 24 41  1  0
 26 42  1  0
 26 43  1  0
 27 44  1  0
 27 45  1  0
 29 46  1  0
 29 47  1  0
 30 48  1  0
 30 49  1  0
M  END
>  <smiles>  (41) 
O=C(c1cccc(N=c2[nH]ccc(=Nc3ccc(F)c(F)c3)[nH]2)c1)N1CCOCC1

>  <score_type>  (41) 
oracle

>  <origin>  (41) 
adg

>  <m_score__min__energy>  (41) 
-9.3200000000000003

>  <m_primary>  (41) 
energy

$$$$
41:0
     RDKit          3D

 21 22  0  0  0  0  0  0  0  0999 V2000
   56.7340   30.7170   44.5080 O   0  0  0  0  0  0  0  0  0  0  0  0
   56.6890   29.5320   44.9290 C   0  0  0  0  0  0  0  0  0  0  0  0
   55.5270   28.9080   45.2200 N   0  0  0  0  0  0  0  0  0  0  0  0
   55.9390   27.6940   45.6200 C   0  0  0  0  0  0  0  0  0  0  0  0
   55.0780   26.6780   46.0140 O   0  0  0  0  0  0  0  0  0  0  0  0
   57.3090   27.6160   45.5720 C   0  0  0  0  0  0  0  0  0  0  0  0
   58.1500   26.4150   45.8730 C   0  0  0  0  0  0  0  0  0  0  0  0
   57.5820   25.2020   45.1890 C   0  0  0  0  0  0  0  0  0  0  0  0
   57.3760   25.2040   43.8000 C   0  0  0  0  0  0  0  0  0  0  0  0
   56.8150   24.0890   43.1690 C   0  0  0  0  0  0  0  0  0  0  0  0
   56.4500   22.9680   43.9210 C   0  0  0  0  0  0  0  0  0  0  0  0
   55.8940   21.8610   43.2930 O   0  0  0  0  0  0  0  0  0  0  0  0
   56.6420   22.9630   45.3060 C   0  0  0  0  0  0  0  0  0  0  0  0
   57.2010   24.0770   45.9400 C   0  0  0  0  0  0  0  0  0  0  0  0
   57.7980   28.7850   45.1190 N   0  0  0  0  0  0  0  0  0  0  0  0
   59.1749   26.5891   45.5133 H   0  0  0  0  0  0  0  0  0  0  0  0
   58.1587   26.2446   46.9597 H   0  0  0  0  0  0  0  0  0  0  0  0
   57.6570   26.0860   43.2058 H   0  0  0  0  0  0  0  0  0  0  0  0
   56.6607   24.0939   42.0799 H   0  0  0  0  0  0  0  0  0  0  0  0
   56.3530   22.0818   45.8975 H   0  0  0  0  0  0  0  0  0  0  0  0
   57.3430   24.0727   47.0308 H   0  0  0  0  0  0  0  0  0  0  0  0
  1  2  2  0
  2  3  1  0
  3  4  1  0
  4  5  1  0
  4  6  2  0
  6  7  1  0
  7  8  1  0
  8  9  2  0
  9 10  1  0
 10 11  2  0
 11 12  1  0
 11 13  1  0
 13 14  2  0
  6 15  1  0
 15  2  1  0
 14  8  1  0
  7 16  1  0
  7 17  1  0
  9 18  1  0
 10 19  1  0
 13 20  1  0
 14 21  1  0
M  CHG  4   3  -1   5  -1  12  -1  15  -1
M  END
>  <UniqueID>  (42) 
40

>  <SMILES>  (42) 
O=c1[n-]c([O-])c(Cc2ccc([O-])cc2)[n-]1

>  <Energy>  (42) 
49.354715388494064

>  <Genealogy>  (42) 
O=c1[n-]c([O-])c(Cc2ccc([O-])cc2)[n-]1 (protonated)
O=c1[n-]c([O-])c(Cc2ccc([O-])cc2)[n-]1 (3D coordinates assigned)
O=c1[n-]c([O-])c(Cc2ccc([O-])cc2)[n-]1 (optimized conformer: 49.354715388494064 kcal/mol)

>  <smiles>  (42) 
O=c1[nH]c(O)c(Cc2ccc(O)cc2)[nH]1

>  <score_type>  (42) 
oracle

>  <origin>  (42) 
adg

>  <m_score__min__energy>  (42) 
-15.609999999999999

>  <m_primary>  (42) 
energy

$$$$
42:0
     RDKit          3D

 49 51  0  0  0  0  0  0  0  0999 V2000
   64.2440   31.6030   51.0720 C   0  0  0  0  0  0  0  0  0  0  0  0
   63.2750   31.5600   49.9820 N   0  0  0  0  0  0  0  0  0  0  0  0
   62.2700   30.6650   49.8400 C   0  0  0  0  0  0  0  0  0  0  0  0
   61.5340   30.9440   48.6890 C   0  0  0  0  0  0  0  0  0  0  0  0
   60.3790   30.1520   48.1370 C   0  0  0  0  0  0  0  0  0  0  0  0
   60.7280   29.4290   46.8300 C   0  0  0  0  0  0  0  0  0  0  0  0
   59.5410   28.8410   46.2060 N   0  0  0  0  0  0  0  0  0  0  0  0
   58.9040   27.6830   46.7630 C   0  0  0  0  0  0  0  0  0  0  0  0
   59.4340   27.0630   47.7240 O   0  0  0  0  0  0  0  0  0  0  0  0
   57.6160   27.1850   46.1830 C   0  0  0  0  0  0  0  0  0  0  0  0
   56.9540   28.2620   45.3240 C   0  0  0  0  0  0  0  0  0  0  0  0
   57.0590   29.5620   45.9910 N   0  0  0  0  0  0  0  0  0  0  0  0
   57.2840   30.8460   44.8390 S   0  0  0  0  0  0  0  0  0  0  0  0
   55.9530   31.2140   44.2450 O   0  0  0  0  0  0  0  0  0  0  0  0
   58.1820   30.3690   43.7310 O   0  0  0  0  0  0  0  0  0  0  0  0
   57.9800   32.2680   45.6130 C   0  0  0  0  0  0  0  0  0  0  0  0
   58.1580   32.3060   47.0030 C   0  0  0  0  0  0  0  0  0  0  0  0
   58.6850   33.4490   47.6120 C   0  0  0  0  0  0  0  0  0  0  0  0
   59.0260   34.5610   46.8370 C   0  0  0  0  0  0  0  0  0  0  0  0
   58.8440   34.5300   45.4520 C   0  0  0  0  0  0  0  0  0  0  0  0
   58.3250   33.3840   44.8390 C   0  0  0  0  0  0  0  0  0  0  0  0
   62.1520   32.0400   48.1080 C   0  0  0  0  0  0  0  0  0  0  0  0
   61.8790   32.7320   46.9270 C   0  0  0  0  0  0  0  0  0  0  0  0
   62.7000   33.8280   46.6000 C   0  0  0  0  0  0  0  0  0  0  0  0
   63.7690   34.1980   47.4440 C   0  0  0  0  0  0  0  0  0  0  0  0
   64.0280   33.4750   48.6220 C   0  0  0  0  0  0  0  0  0  0  0  0
   63.1960   32.3950   48.9260 C   0  0  0  0  0  0  0  0  0  0  0  0
   63.7135   31.5795   52.0353 H   0  0  0  0  0  0  0  0  0  0  0  0
   64.9143   30.7337   51.0012 H   0  0  0  0  0  0  0  0  0  0  0  0
   64.8347   32.5282   51.0012 H   0  0  0  0  0  0  0  0  0  0  0  0
   62.0633   29.8363   50.5331 H   0  0  0  0  0  0  0  0  0  0  0  0
   60.0771   29.4029   48.8838 H   0  0  0  0  0  0  0  0  0  0  0  0
   59.5654   30.8593   47.9184 H   0  0  0  0  0  0  0  0  0  0  0  0
   61.1779   30.1504   46.1321 H   0  0  0  0  0  0  0  0  0  0  0  0
   61.4322   28.6168   47.0634 H   0  0  0  0  0  0  0  0  0  0  0  0
   59.1160   29.2900   45.3620 H   0  0  0  0  0  0  0  0  0  0  0  0
   57.8190   26.3014   45.5600 H   0  0  0  0  0  0  0  0  0  0  0  0
   56.9359   26.9248   47.0075 H   0  0  0  0  0  0  0  0  0  0  0  0
   57.4576   28.3109   44.3473 H   0  0  0  0  0  0  0  0  0  0  0  0
   55.8925   28.0114   45.1813 H   0  0  0  0  0  0  0  0  0  0  0  0
   57.8826   31.4350   47.6157 H   0  0  0  0  0  0  0  0  0  0  0  0
   58.8313   33.4730   48.7020 H   0  0  0  0  0  0  0  0  0  0  0  0
   59.4377   35.4608   47.3175 H   0  0  0  0  0  0  0  0  0  0  0  0
   59.1088   35.4070   44.8431 H   0  0  0  0  0  0  0  0  0  0  0  0
   58.1877   33.3592   43.7479 H   0  0  0  0  0  0  0  0  0  0  0  0
   61.0482   32.4304   46.2721 H   0  0  0  0  0  0  0  0  0  0  0  0
   62.5070   34.3999   45.6804 H   0  0  0  0  0  0  0  0  0  0  0  0
   64.4032   35.0568   47.1788 H   0  0  0  0  0  0  0  0  0  0  0  0
   64.8613   33.7518   49.2846 H   0  0  0  0  0  0  0  0  0  0  0  0
  1  2  1  0
  2  3  1  0
  3  4  2  0
  4  5  1  0
  5  6  1  0
  6  7  1  0
  7  8  1  0
  8  9  2  0
  8 10  1  0
 10 11  1  0
 11 12  1  0
 12 13  1  0
 13 14  2  0
 13 15  2  0
 13 16  1  0
 16 17  2  0
 17 18  1  0
 18 19  2  0
 19 20  1  0
 20 21  2  0
  4 22  1  0
 22 23  2  0
 23 24  1  0
 24 25  2  0
 25 26  1  0
 26 27  2  0
 27  2  1  0
 21 16  1  0
 27 22  1  0
  1 28  1  0
  1 29  1  0
  1 30  1  0
  3 31  1  0
  5 32  1  0
  5 33  1  0
  6 34  1  0
  6 35  1  0
  7 36  1  0
 10 37  1  0
 10 38  1  0
 11 39  1  0
 11 40  1  0
 17 41  1  0
 18 42  1  0
 19 43  1  0
 20 44  1  0
 21 45  1  0
 23 46  1  0
 24 47  1  0
 25 48  1  0
 26 49  1  0
M  CHG  1  12  -1
M  END
>  <UniqueID>  (43) 
41

>  <SMILES>  (43) 
Cn1cc(CCNC(=O)CC[N-]S(=O)(=O)c2ccccc2)c2ccccc21

>  <Energy>  (43) 
71.19683290641166

>  <Genealogy>  (43) 
Cn1cc(CCNC(=O)CC[N-]S(=O)(=O)c2ccccc2)c2ccccc21 (protonated)
Cn1cc(CCNC(=O)CC[N-]S(=O)(=O)c2ccccc2)c2ccccc21 (3D coordinates assigned)
Cn1cc(CCNC(=O)CC[N-]S(=O)(=O)c2ccccc2)c2ccccc21 (optimized conformer: 71.19683290641166 kcal/mol)

>  <smiles>  (43) 
Cn1cc(CCNC(=O)CCNS(=O)(=O)c2ccccc2)c2ccccc21

>  <score_type>  (43) 
oracle

>  <origin>  (43) 
adg

>  <m_score__min__energy>  (43) 
-10.23

>  <m_primary>  (43) 
energy

$$$$
43:0
     RDKit          3D

 48 50  0  0  0  0  0  0  0  0999 V2000
   65.8230   32.7960   49.8630 C   0  0  0  0  0  0  0  0  0  0  0  0
   64.4350   33.1180   49.3920 C   0  0  0  0  0  0  0  0  0  0  0  0
   63.4920   33.6560   50.2810 C   0  0  0  0  0  0  0  0  0  0  0  0
   62.1880   33.9160   49.8510 C   0  0  0  0  0  0  0  0  0  0  0  0
   61.7990   33.6190   48.5370 C   0  0  0  0  0  0  0  0  0  0  0  0
   60.4620   33.9290   48.1080 N   0  0  0  0  0  0  0  0  0  0  0  0
   59.2780   33.3110   48.6400 C   0  0  0  0  0  0  0  0  0  0  0  0
   59.1540   33.0370   50.2540 S   0  0  0  0  0  0  0  0  0  0  0  0
   58.0940   33.2240   47.8360 N   0  0  0  0  0  0  0  0  0  0  0  0
   58.1070   33.0890   46.4040 C   0  0  0  0  0  0  0  0  0  0  0  0
   58.8520   33.9620   45.5910 C   0  0  0  0  0  0  0  0  0  0  0  0
   58.8760   33.7880   44.2060 C   0  0  0  0  0  0  0  0  0  0  0  0
   58.1720   32.7360   43.6170 C   0  0  0  0  0  0  0  0  0  0  0  0
   57.4390   31.8430   44.4150 C   0  0  0  0  0  0  0  0  0  0  0  0
   56.6960   30.6920   43.7910 C   0  0  0  0  0  0  0  0  0  0  0  0
   56.0810   29.8620   44.8210 N   0  0  0  0  0  0  0  0  0  0  0  0
   56.6430   28.6330   45.2890 C   0  0  0  0  0  0  0  0  0  0  0  0
   55.8900   27.6750   45.6140 O   0  0  0  0  0  0  0  0  0  0  0  0
   58.0670   28.4910   45.3280 N   0  0  0  0  0  0  0  0  0  0  0  0
   58.9620   29.0420   46.3060 C   0  0  0  0  0  0  0  0  0  0  0  0
   58.7580   28.8720   47.6900 C   0  0  0  0  0  0  0  0  0  0  0  0
   59.6410   29.4550   48.6070 C   0  0  0  0  0  0  0  0  0  0  0  0
   60.7200   30.2170   48.1550 C   0  0  0  0  0  0  0  0  0  0  0  0
   60.9160   30.4060   46.7850 C   0  0  0  0  0  0  0  0  0  0  0  0
   60.0350   29.8280   45.8650 C   0  0  0  0  0  0  0  0  0  0  0  0
   57.4140   32.0240   45.8080 C   0  0  0  0  0  0  0  0  0  0  0  0
   62.7470   33.0810   47.6470 C   0  0  0  0  0  0  0  0  0  0  0  0
   64.0520   32.8220   48.0750 C   0  0  0  0  0  0  0  0  0  0  0  0
   65.8451   32.7909   50.9628 H   0  0  0  0  0  0  0  0  0  0  0  0
   66.1177   31.8056   49.4857 H   0  0  0  0  0  0  0  0  0  0  0  0
   66.5236   33.5555   49.4857 H   0  0  0  0  0  0  0  0  0  0  0  0
   63.7802   33.8738   51.3200 H   0  0  0  0  0  0  0  0  0  0  0  0
   61.4610   34.3571   50.5488 H   0  0  0  0  0  0  0  0  0  0  0  0
   60.3390   34.6500   47.3620 H   0  0  0  0  0  0  0  0  0  0  0  0
   57.1670   33.2710   48.3180 H   0  0  0  0  0  0  0  0  0  0  0  0
   59.4187   34.7862   46.0488 H   0  0  0  0  0  0  0  0  0  0  0  0
   59.4517   34.4824   43.5764 H   0  0  0  0  0  0  0  0  0  0  0  0
   58.1916   32.6064   42.5248 H   0  0  0  0  0  0  0  0  0  0  0  0
   55.9120   31.0848   43.1268 H   0  0  0  0  0  0  0  0  0  0  0  0
   57.4068   30.0788   43.2177 H   0  0  0  0  0  0  0  0  0  0  0  0
   57.9036   28.2803   48.0505 H   0  0  0  0  0  0  0  0  0  0  0  0
   59.4842   29.3123   49.6864 H   0  0  0  0  0  0  0  0  0  0  0  0
   61.4157   30.6685   48.8777 H   0  0  0  0  0  0  0  0  0  0  0  0
   61.7638   31.0099   46.4293 H   0  0  0  0  0  0  0  0  0  0  0  0
   60.1856   29.9916   44.7877 H   0  0  0  0  0  0  0  0  0  0  0  0
   56.8455   31.3239   46.4379 H   0  0  0  0  0  0  0  0  0  0  0  0
   62.4591   32.8629   46.6080 H   0  0  0  0  0  0  0  0  0  0  0  0
   64.7812   32.3847   47.3771 H   0  0  0  0  0  0  0  0  0  0  0  0
  1  2  1  0
  2  3  2  0
  3  4  1  0
  4  5  2  0
  5  6  1  0
  6  7  1  0
  7  8  2  0
  7  9  1  0
  9 10  1  0
 10 11  2  0
 11 12  1  0
 12 13  2  0
 13 14  1  0
 14 15  1  0
 15 16  1  0
 16 17  1  0
 17 18  2  0
 17 19  1  0
 19 20  1  0
 20 21  2  0
 21 22  1  0
 22 23  2  0
 23 24  1  0
 24 25  2  0
 14 26  2  0
  5 27  1  0
 27 28  2  0
 28  2  1  0
 26 10  1  0
 25 20  1  0
  1 29  1  0
  1 30  1  0
  1 31  1  0
  3 32  1  0
  4 33  1  0
  6 34  1  0
  9 35  1  0
 11 36  1  0
 12 37  1  0
 13 38  1  0
 15 39  1  0
 15 40  1  0
 21 41  1  0
 22 42  1  0
 23 43  1  0
 24 44  1  0
 25 45  1  0
 26 46  1  0
 27 47  1  0
 28 48  1  0
M  CHG  2  16  -1  19  -1
M  END
>  <UniqueID>  (44) 
42

>  <SMILES>  (44) 
Cc1ccc(NC(=S)Nc2cccc(C[N-]C(=O)[N-]c3ccccc3)c2)cc1

>  <Energy>  (44) 
58.44446080296704

>  <Genealogy>  (44) 
Cc1ccc(NC(=S)Nc2cccc(C[N-]C(=O)[N-]c3ccccc3)c2)cc1 (protonated)
Cc1ccc(NC(=S)Nc2cccc(C[N-]C(=O)[N-]c3ccccc3)c2)cc1 (3D coordinates assigned)
Cc1ccc(NC(=S)Nc2cccc(C[N-]C(=O)[N-]c3ccccc3)c2)cc1 (optimized conformer: 58.44446080296704 kcal/mol)

>  <smiles>  (44) 
Cc1ccc(NC(=S)Nc2cccc(CNC(=O)Nc3ccccc3)c2)cc1

>  <score_type>  (44) 
oracle

>  <origin>  (44) 
adg

>  <m_score__min__energy>  (44) 
-11.68

>  <m_primary>  (44) 
energy

$$$$
44:0
     RDKit          3D

 45 47  0  0  0  0  0  0  0  0999 V2000
   58.8614   34.6004   43.8420 H   0  0  0  0  0  0  0  0  0  0  0  0
   58.7550   34.2770   44.8880 C   0  0  0  0  0  0  0  0  0  0  0  0
   59.8490   34.2030   45.6900 N   0  0  0  0  0  0  0  0  0  0  0  0
   59.7610   33.8090   46.9910 C   0  0  0  0  0  0  0  0  0  0  0  0
   61.0080   33.6710   47.8120 C   0  0  0  0  0  0  0  0  0  0  0  0
   61.5464   34.6302   47.8242 H   0  0  0  0  0  0  0  0  0  0  0  0
   61.6507   32.8939   47.3727 H   0  0  0  0  0  0  0  0  0  0  0  0
   60.6450   33.2830   49.2180 C   0  0  0  0  0  0  0  0  0  0  0  0
   60.3860   34.1850   50.0580 O   0  0  0  0  0  0  0  0  0  0  0  0
   60.4510   31.9130   49.5890 N   0  0  0  0  0  0  0  0  0  0  0  0
   59.3520   31.4150   50.3560 C   0  0  0  0  0  0  0  0  0  0  0  0
   58.4080   32.3250   50.8590 C   0  0  0  0  0  0  0  0  0  0  0  0
   58.5525   33.4041   50.7017 H   0  0  0  0  0  0  0  0  0  0  0  0
   57.2910   31.8720   51.5550 C   0  0  0  0  0  0  0  0  0  0  0  0
   56.5569   32.5863   51.9560 H   0  0  0  0  0  0  0  0  0  0  0  0
   57.1150   30.5030   51.7370 C   0  0  0  0  0  0  0  0  0  0  0  0
   56.2380   30.1299   52.2863 H   0  0  0  0  0  0  0  0  0  0  0  0
   58.0250   29.6280   51.2370 N   0  0  0  0  0  0  0  0  0  0  0  0
   59.1330   30.0230   50.5520 C   0  0  0  0  0  0  0  0  0  0  0  0
   59.9450   29.0830   50.1420 N   0  0  0  0  0  0  0  0  0  0  0  0
   60.5490   28.8480   48.8290 C   0  0  0  0  0  0  0  0  0  0  0  0
   60.9001   27.8067   48.7800 H   0  0  0  0  0  0  0  0  0  0  0  0
   61.3839   29.5535   48.7060 H   0  0  0  0  0  0  0  0  0  0  0  0
   59.5670   29.0850   47.7090 C   0  0  0  0  0  0  0  0  0  0  0  0
   59.5660   30.2970   46.9960 C   0  0  0  0  0  0  0  0  0  0  0  0
   60.2959   31.0804   47.2480 H   0  0  0  0  0  0  0  0  0  0  0  0
   58.6420   30.5120   45.9680 C   0  0  0  0  0  0  0  0  0  0  0  0
   58.6616   31.4549   45.4019 H   0  0  0  0  0  0  0  0  0  0  0  0
   57.6920   29.5310   45.6570 C   0  0  0  0  0  0  0  0  0  0  0  0
   56.5600   29.7720   44.3310 S   0  0  0  0  0  0  0  0  0  0  0  0
   55.1820   29.3450   44.7590 O   0  0  0  0  0  0  0  0  0  0  0  0
   56.5190   31.2240   43.9430 O   0  0  0  0  0  0  0  0  0  0  0  0
   57.0560   28.8280   42.9670 N   0  0  0  0  0  0  0  0  0  0  0  0
   58.0810   28.9900   42.8390 H   0  0  0  0  0  0  0  0  0  0  0  0
   56.9410   27.8220   43.2350 H   0  0  0  0  0  0  0  0  0  0  0  0
   57.6720   28.3330   46.3830 C   0  0  0  0  0  0  0  0  0  0  0  0
   56.9277   27.5595   46.1426 H   0  0  0  0  0  0  0  0  0  0  0  0
   58.5940   28.1160   47.4120 C   0  0  0  0  0  0  0  0  0  0  0  0
   58.5572   27.1819   47.9917 H   0  0  0  0  0  0  0  0  0  0  0  0
   58.5110   33.4530   47.5230 C   0  0  0  0  0  0  0  0  0  0  0  0
   58.4276   33.1186   48.5676 H   0  0  0  0  0  0  0  0  0  0  0  0
   57.3770   33.5270   46.7160 C   0  0  0  0  0  0  0  0  0  0  0  0
   56.3913   33.2582   47.1236 H   0  0  0  0  0  0  0  0  0  0  0  0
   57.4960   33.9430   45.3900 C   0  0  0  0  0  0  0  0  0  0  0  0
   56.6064   34.0073   44.7461 H   0  0  0  0  0  0  0  0  0  0  0  0
  1  2  1  0
  2  3  2  0
  3  4  1  0
  4  5  1  0
  5  6  1  0
  5  7  1  0
  5  8  1  0
  8  9  2  0
  8 10  1  0
 10 11  1  0
 11 12  2  0
 12 13  1  0
 12 14  1  0
 14 15  1  0
 14 16  2  0
 16 17  1  0
 16 18  1  0
 18 19  1  0
 19 20  2  0
 20 21  1  0
 21 22  1  0
 21 23  1  0
 21 24  1  0
 24 25  2  0
 25 26  1  0
 25 27  1  0
 27 28  1  0
 27 29  2  0
 29 30  1  0
 30 31  2  0
 30 32  2  0
 30 33  1  0
 33 34  1  0
 33 35  1  0
 29 36  1  0
 36 37  1  0
 36 38  2  0
 38 39  1  0
  4 40  2  0
 40 41  1  0
 40 42  1  0
 42 43  1  0
 42 44  2  0
 44 45  1  0
 44  2  1  0
 19 11  1  0
 38 24  1  0
M  CHG  2  10  -1  18  -1
M  END
>  <UniqueID>  (45) 
43

>  <SMILES>  (45) 
NS(=O)(=O)c1ccc(C/N=c2/[n-]cccc2[N-]C(=O)Cc2ccccn2)cc1

>  <Energy>  (45) 
55.78766434678908

>  <Genealogy>  (45) 
NS(=O)(=O)c1ccc(CN=c2[n-]cccc2[N-]C(=O)Cc2ccccn2)cc1 (protonated)
NS(=O)(=O)c1ccc(C/N=c2/[n-]cccc2[N-]C(=O)Cc2ccccn2)cc1 (cis-trans isomerization)
NS(=O)(=O)c1ccc(C/N=c2/[n-]cccc2[N-]C(=O)Cc2ccccn2)cc1 (3D coordinates assigned)
NS(=O)(=O)c1ccc(C/N=c2/[n-]cccc2[N-]C(=O)Cc2ccccn2)cc1 (optimized conformer: 55.78766434678908 kcal/mol)

>  <smiles>  (45) 
NS(=O)(=O)c1ccc(CN=c2[nH]cccc2NC(=O)Cc2ccccn2)cc1

>  <score_type>  (45) 
oracle

>  <origin>  (45) 
adg

>  <m_score__min__energy>  (45) 
-12.619999999999999

>  <m_primary>  (45) 
energy

$$$$
45:0
     RDKit          3D

 38 39  0  0  0  0  0  0  0  0999 V2000
   57.5770   34.2350   44.8640 C   0  0  0  0  0  0  0  0  0  0  0  0
   57.2270   33.6630   46.1190 O   0  0  0  0  0  0  0  0  0  0  0  0
   57.9620   32.6640   46.7770 C   0  0  0  0  0  0  0  0  0  0  0  0
   58.5890   32.9040   48.0160 C   0  0  0  0  0  0  0  0  0  0  0  0
   59.2590   31.8740   48.6820 C   0  0  0  0  0  0  0  0  0  0  0  0
   59.3030   30.5950   48.1280 C   0  0  0  0  0  0  0  0  0  0  0  0
   58.6930   30.3470   46.8970 C   0  0  0  0  0  0  0  0  0  0  0  0
   58.0490   31.3760   46.2010 C   0  0  0  0  0  0  0  0  0  0  0  0
   57.4190   31.0600   44.9520 N   0  0  0  0  0  0  0  0  0  0  0  0
   56.7330   29.8390   44.6510 C   0  0  0  0  0  0  0  0  0  0  0  0
   55.5370   29.6700   45.0100 O   0  0  0  0  0  0  0  0  0  0  0  0
   57.4460   28.7560   43.9050 C   0  0  0  0  0  0  0  0  0  0  0  0
   58.5360   28.1980   44.7230 N   0  0  0  0  0  0  0  0  0  0  0  0
   59.9180   28.6290   44.4930 C   0  0  0  0  0  0  0  0  0  0  0  0
   58.2980   27.1340   45.6720 C   0  0  0  0  0  0  0  0  0  0  0  0
   59.1330   26.9260   46.5930 O   0  0  0  0  0  0  0  0  0  0  0  0
   57.1070   26.2610   45.5860 C   0  0  0  0  0  0  0  0  0  0  0  0
   57.1820   24.9870   45.0050 C   0  0  0  0  0  0  0  0  0  0  0  0
   56.0450   24.1800   44.9400 C   0  0  0  0  0  0  0  0  0  0  0  0
   54.8330   24.6620   45.4420 C   0  0  0  0  0  0  0  0  0  0  0  0
   53.7990   23.9470   45.3950 O   0  0  0  0  0  0  0  0  0  0  0  0
   54.7690   25.9100   45.9770 N   0  0  0  0  0  0  0  0  0  0  0  0
   55.8630   26.7150   46.0520 C   0  0  0  0  0  0  0  0  0  0  0  0
   58.1446   35.1626   45.0294 H   0  0  0  0  0  0  0  0  0  0  0  0
   58.1946   33.5235   44.2962 H   0  0  0  0  0  0  0  0  0  0  0  0
   56.6624   34.4611   44.2962 H   0  0  0  0  0  0  0  0  0  0  0  0
   58.5508   33.9088   48.4620 H   0  0  0  0  0  0  0  0  0  0  0  0
   59.7525   32.0726   49.6448 H   0  0  0  0  0  0  0  0  0  0  0  0
   59.8181   29.7820   48.6607 H   0  0  0  0  0  0  0  0  0  0  0  0
   58.7189   29.3335   46.4703 H   0  0  0  0  0  0  0  0  0  0  0  0
   56.7324   27.9560   43.6584 H   0  0  0  0  0  0  0  0  0  0  0  0
   57.8733   29.1800   42.9843 H   0  0  0  0  0  0  0  0  0  0  0  0
   60.4190   28.7853   45.4597 H   0  0  0  0  0  0  0  0  0  0  0  0
   60.4534   27.8552   43.9233 H   0  0  0  0  0  0  0  0  0  0  0  0
   59.9186   29.5700   43.9233 H   0  0  0  0  0  0  0  0  0  0  0  0
   58.1379   24.6232   44.6000 H   0  0  0  0  0  0  0  0  0  0  0  0
   56.1023   23.1744   44.4979 H   0  0  0  0  0  0  0  0  0  0  0  0
   55.7726   27.7247   46.4790 H   0  0  0  0  0  0  0  0  0  0  0  0
  1  2  1  0
  2  3  1  0
  3  4  2  0
  4  5  1  0
  5  6  2  0
  6  7  1  0
  7  8  2  0
  8  9  1  0
  9 10  1  0
 10 11  2  0
 10 12  1  0
 12 13  1  0
 13 14  1  0
 13 15  1  0
 15 16  2  0
 15 17  1  0
 17 18  1  0
 18 19  2  0
 19 20  1  0
 20 21  2  0
 20 22  1  0
 22 23  1  0
  8  3  1  0
 23 17  2  0
  1 24  1  0
  1 25  1  0
  1 26  1  0
  4 27  1  0
  5 28  1  0
  6 29  1  0
  7 30  1  0
 12 31  1  0
 12 32  1  0
 14 33  1  0
 14 34  1  0
 14 35  1  0
 18 36  1  0
 19 37  1  0
 23 38  1  0
M  CHG  2   9  -1  22  -1
M  END
>  <UniqueID>  (46) 
44

>  <SMILES>  (46) 
COc1ccccc1[N-]C(=O)CN(C)C(=O)c1ccc(=O)[n-]c1

>  <Energy>  (46) 
44.1391185522338

>  <Genealogy>  (46) 
COc1ccccc1[N-]C(=O)CN(C)C(=O)c1ccc(=O)[n-]c1 (protonated)
COc1ccccc1[N-]C(=O)CN(C)C(=O)c1ccc(=O)[n-]c1 (3D coordinates assigned)
COc1ccccc1[N-]C(=O)CN(C)C(=O)c1ccc(=O)[n-]c1 (optimized conformer: 44.1391185522338 kcal/mol)

>  <smiles>  (46) 
COc1ccccc1NC(=O)CN(C)C(=O)c1ccc(=O)[nH]c1

>  <score_type>  (46) 
oracle

>  <origin>  (46) 
adg

>  <m_score__min__energy>  (46) 
-11.25

>  <m_primary>  (46) 
energy

$$$$
46:0
     RDKit          3D

 41 43  0  0  0  0  0  0  0  0999 V2000
   59.0820   28.1160   47.2580 H   0  0  0  0  0  0  0  0  0  0  0  0
   58.3960   27.9560   46.5320 O   0  0  0  0  0  0  0  0  0  0  0  0
   57.7070   28.9910   45.8960 C   0  0  0  0  0  0  0  0  0  0  0  0
   56.5560   28.6930   45.2420 N   0  0  0  0  0  0  0  0  0  0  0  0
   55.8470   29.6470   44.5900 C   0  0  0  0  0  0  0  0  0  0  0  0
   54.7890   29.3400   43.9840 O   0  0  0  0  0  0  0  0  0  0  0  0
   56.2740   30.9330   44.5970 N   0  0  0  0  0  0  0  0  0  0  0  0
   57.4130   31.3020   45.2430 C   0  0  0  0  0  0  0  0  0  0  0  0
   57.7760   32.6950   45.2680 N   0  0  0  0  0  0  0  0  0  0  0  0
   58.7060   33.2800   44.3110 C   0  0  0  0  0  0  0  0  0  0  0  0
   59.6059   32.6539   44.2201 H   0  0  0  0  0  0  0  0  0  0  0  0
   58.2600   33.3552   43.3083 H   0  0  0  0  0  0  0  0  0  0  0  0
   59.0680   34.6500   44.8660 C   0  0  0  0  0  0  0  0  0  0  0  0
   60.1492   34.8286   44.7700 H   0  0  0  0  0  0  0  0  0  0  0  0
   58.5564   35.4560   44.3195 H   0  0  0  0  0  0  0  0  0  0  0  0
   58.6630   34.6240   46.3350 C   0  0  0  0  0  0  0  0  0  0  0  0
   59.5366   34.4123   46.9691 H   0  0  0  0  0  0  0  0  0  0  0  0
   58.2538   35.5925   46.6583 H   0  0  0  0  0  0  0  0  0  0  0  0
   57.6330   33.5110   46.4640 C   0  0  0  0  0  0  0  0  0  0  0  0
   57.8303   32.9094   47.3635 H   0  0  0  0  0  0  0  0  0  0  0  0
   56.6136   33.9131   46.5591 H   0  0  0  0  0  0  0  0  0  0  0  0
   58.1850   30.3170   45.9000 C   0  0  0  0  0  0  0  0  0  0  0  0
   59.4710   30.6400   46.5550 C   0  0  0  0  0  0  0  0  0  0  0  0
   60.3274   30.8987   45.9149 H   0  0  0  0  0  0  0  0  0  0  0  0
   59.6550   30.6360   47.8870 C   0  0  0  0  0  0  0  0  0  0  0  0
   58.8760   31.5500   48.6850 C   0  0  0  0  0  0  0  0  0  0  0  0
   58.2510   32.2860   49.3220 N   0  0  0  0  0  0  0  0  0  0  0  0
   60.5410   29.6580   48.5690 C   0  0  0  0  0  0  0  0  0  0  0  0
   60.3080   28.4260   48.4470 O   0  0  0  0  0  0  0  0  0  0  0  0
   61.6590   30.0630   49.3680 N   0  0  0  0  0  0  0  0  0  0  0  0
   61.9220   31.4230   49.8190 C   0  0  0  0  0  0  0  0  0  0  0  0
   60.9979   31.8612   50.2239 H   0  0  0  0  0  0  0  0  0  0  0  0
   62.6926   31.4088   50.6039 H   0  0  0  0  0  0  0  0  0  0  0  0
   62.3980   32.2410   48.6650 C   0  0  0  0  0  0  0  0  0  0  0  0
   61.5680   33.5320   47.9810 S   0  0  0  0  0  0  0  0  0  0  0  0
   62.6690   33.8200   46.7420 C   0  0  0  0  0  0  0  0  0  0  0  0
   62.5894   34.6097   45.9804 H   0  0  0  0  0  0  0  0  0  0  0  0
   63.6960   32.8900   46.8450 C   0  0  0  0  0  0  0  0  0  0  0  0
   64.5491   32.8557   46.1514 H   0  0  0  0  0  0  0  0  0  0  0  0
   63.5420   32.0000   47.9160 C   0  0  0  0  0  0  0  0  0  0  0  0
   64.2547   31.1927   48.1406 H   0  0  0  0  0  0  0  0  0  0  0  0
  1  2  1  0
  2  3  1  0
  3  4  1  0
  4  5  1  0
  5  6  2  0
  5  7  1  0
  7  8  2  0
  8  9  1  0
  9 10  1  0
 10 11  1  0
 10 12  1  0
 10 13  1  0
 13 14  1  0
 13 15  1  0
 13 16  1  0
 16 17  1  0
 16 18  1  0
 16 19  1  0
 19 20  1  0
 19 21  1  0
  8 22  1  0
 22 23  1  0
 23 24  1  0
 23 25  2  0
 25 26  1  0
 26 27  3  0
 25 28  1  0
 28 29  2  0
 28 30  1  0
 30 31  1  0
 31 32  1  0
 31 33  1  0
 31 34  1  0
 34 35  1  0
 35 36  1  0
 36 37  1  0
 36 38  2  0
 38 39  1  0
 38 40  1  0
 40 41  1  0
 22  3  2  0
 40 34  2  0
 19  9  1  0
M  CHG  2   4  -1  30  -1
M  END
>  <UniqueID>  (47) 
45

>  <SMILES>  (47) 
N#C/C(=C/c1c(N2CCCC2)nc(=O)[n-]c1O)C(=O)[N-]Cc1cccs1

>  <Energy>  (47) 
79.44948483553503

>  <Genealogy>  (47) 
N#CC(=Cc1c(N2CCCC2)nc(=O)[n-]c1O)C(=O)[N-]Cc1cccs1 (protonated)
N#C/C(=C/c1c(N2CCCC2)nc(=O)[n-]c1O)C(=O)[N-]Cc1cccs1 (cis-trans isomerization)
N#C/C(=C/c1c(N2CCCC2)nc(=O)[n-]c1O)C(=O)[N-]Cc1cccs1 (3D coordinates assigned)
N#C/C(=C/c1c(N2CCCC2)nc(=O)[n-]c1O)C(=O)[N-]Cc1cccs1 (nonaromatic ring conformer: 79.44948483553503 kcal/mol)

>  <smiles>  (47) 
N#CC(=Cc1c(N2CCCC2)nc(=O)[nH]c1O)C(=O)NCc1cccs1

>  <score_type>  (47) 
oracle

>  <origin>  (47) 
adg

>  <m_score__min__energy>  (47) 
-11.77

>  <m_primary>  (47) 
energy

$$$$
47:0
     RDKit          3D

 60 63  0  0  0  0  0  0  0  0999 V2000
   62.9330   34.0170   46.3410 O   0  0  0  0  0  0  0  0  0  0  0  0
   62.1810   33.4440   47.1740 C   0  0  0  0  0  0  0  0  0  0  0  0
   61.3370   34.2230   48.1000 C   0  0  0  0  0  0  0  0  0  0  0  0
   60.0040   34.3640   48.0190 C   0  0  0  0  0  0  0  0  0  0  0  0
   59.1740   34.0010   46.8520 C   0  0  0  0  0  0  0  0  0  0  0  0
   59.2850   34.6850   45.6310 C   0  0  0  0  0  0  0  0  0  0  0  0
   58.4470   34.3500   44.5660 C   0  0  0  0  0  0  0  0  0  0  0  0
   57.4900   33.3480   44.7370 C   0  0  0  0  0  0  0  0  0  0  0  0
   57.3710   32.7130   45.9350 N   0  0  0  0  0  0  0  0  0  0  0  0
   58.1780   33.0240   46.9870 C   0  0  0  0  0  0  0  0  0  0  0  0
   62.1190   32.0130   47.2340 N   0  0  0  0  0  0  0  0  0  0  0  0
   60.9520   31.2060   47.4540 C   0  0  0  0  0  0  0  0  0  0  0  0
   60.1720   30.7410   46.3790 C   0  0  0  0  0  0  0  0  0  0  0  0
   59.0430   29.9440   46.6080 C   0  0  0  0  0  0  0  0  0  0  0  0
   58.0630   29.3780   45.2520 S   0  0  0  0  0  0  0  0  0  0  0  0
   56.6610   29.9020   45.4020 O   0  0  0  0  0  0  0  0  0  0  0  0
   58.6280   29.9260   43.9710 O   0  0  0  0  0  0  0  0  0  0  0  0
   58.0270   27.6320   45.1630 N   0  0  0  0  0  0  0  0  0  0  0  0
   59.3520   27.0420   45.4540 C   0  0  0  0  0  0  0  0  0  0  0  0
   59.4020   26.3900   46.8470 C   0  0  0  0  0  0  0  0  0  0  0  0
   58.4340   25.3630   47.0170 O   0  0  0  0  0  0  0  0  0  0  0  0
   57.2080   25.6100   46.3380 C   0  0  0  0  0  0  0  0  0  0  0  0
   56.9520   27.0940   46.0190 C   0  0  0  0  0  0  0  0  0  0  0  0
   58.6930   29.6030   47.9190 C   0  0  0  0  0  0  0  0  0  0  0  0
   59.4440   30.0810   48.9930 C   0  0  0  0  0  0  0  0  0  0  0  0
   60.5640   30.8990   48.7740 C   0  0  0  0  0  0  0  0  0  0  0  0
   61.3100   31.4000   49.9010 N   0  0  0  0  0  0  0  0  0  0  0  0
   60.6860   32.3690   50.8140 C   0  0  0  0  0  0  0  0  0  0  0  0
   61.4300   32.4080   52.1520 C   0  0  0  0  0  0  0  0  0  0  0  0
   62.9270   32.7210   51.9710 C   0  0  0  0  0  0  0  0  0  0  0  0
   63.5170   32.1940   50.6470 C   0  0  0  0  0  0  0  0  0  0  0  0
   62.7180   31.0150   50.0830 C   0  0  0  0  0  0  0  0  0  0  0  0
   61.8451   34.7340   48.9311 H   0  0  0  0  0  0  0  0  0  0  0  0
   59.4872   34.7847   48.8942 H   0  0  0  0  0  0  0  0  0  0  0  0
   60.0317   35.4842   45.5136 H   0  0  0  0  0  0  0  0  0  0  0  0
   58.5398   34.8705   43.6014 H   0  0  0  0  0  0  0  0  0  0  0  0
   56.8304   33.0710   43.9014 H   0  0  0  0  0  0  0  0  0  0  0  0
   56.6430   31.9730   46.0510 H   0  0  0  0  0  0  0  0  0  0  0  0
   58.0474   32.5055   47.9483 H   0  0  0  0  0  0  0  0  0  0  0  0
   60.4516   31.0060   45.3487 H   0  0  0  0  0  0  0  0  0  0  0  0
   59.5736   26.2764   44.6959 H   0  0  0  0  0  0  0  0  0  0  0  0
   60.0957   27.8522   45.4323 H   0  0  0  0  0  0  0  0  0  0  0  0
   60.4021   25.9564   46.9949 H   0  0  0  0  0  0  0  0  0  0  0  0
   59.1803   27.1751   47.5848 H   0  0  0  0  0  0  0  0  0  0  0  0
   57.2192   25.0504   45.3910 H   0  0  0  0  0  0  0  0  0  0  0  0
   56.4018   25.2879   47.0135 H   0  0  0  0  0  0  0  0  0  0  0  0
   55.9896   27.1908   45.4951 H   0  0  0  0  0  0  0  0  0  0  0  0
   56.9300   27.6615   46.9610 H   0  0  0  0  0  0  0  0  0  0  0  0
   57.8228   28.9559   48.1034 H   0  0  0  0  0  0  0  0  0  0  0  0
   59.1562   29.8147   50.0207 H   0  0  0  0  0  0  0  0  0  0  0  0
   60.7154   33.3683   50.3551 H   0  0  0  0  0  0  0  0  0  0  0  0
   59.6451   32.0636   50.9966 H   0  0  0  0  0  0  0  0  0  0  0  0
   60.9789   33.1851   52.7866 H   0  0  0  0  0  0  0  0  0  0  0  0
   61.3444   31.4149   52.6173 H   0  0  0  0  0  0  0  0  0  0  0  0
   63.0591   33.8127   51.9994 H   0  0  0  0  0  0  0  0  0  0  0  0
   63.4619   32.2111   52.7858 H   0  0  0  0  0  0  0  0  0  0  0  0
   63.5132   33.0094   49.9087 H   0  0  0  0  0  0  0  0  0  0  0  0
   64.5388   31.8413   50.8507 H   0  0  0  0  0  0  0  0  0  0  0  0
   63.1426   30.7187   49.1125 H   0  0  0  0  0  0  0  0  0  0  0  0
   62.7728   30.1725   50.7882 H   0  0  0  0  0  0  0  0  0  0  0  0
  1  2  2  0
  2  3  1  0
  3  4  2  3
  4  5  1  0
  5  6  2  0
  6  7  1  0
  7  8  2  0
  8  9  1  0
  9 10  2  0
  2 11  1  0
 11 12  1  0
 12 13  2  0
 13 14  1  0
 14 15  1  0
 15 16  2  0
 15 17  2  0
 15 18  1  0
 18 19  1  0
 19 20  1  0
 20 21  1  0
 21 22  1  0
 22 23  1  0
 14 24  2  0
 24 25  1  0
 25 26  2  0
 26 27  1  0
 27 28  1  0
 28 29  1  0
 29 30  1  0
 30 31  1  0
 31 32  1  0
 10  5  1  0
 26 12  1  0
 32 27  1  0
 23 18  1  0
  3 33  1  0
  4 34  1  0
  6 35  1  0
  7 36  1  0
  8 37  1  0
  9 38  1  0
 10 39  1  0
 13 40  1  0
 19 41  1  0
 19 42  1  0
 20 43  1  0
 20 44  1  0
 22 45  1  0
 22 46  1  0
 23 47  1  0
 23 48  1  0
 24 49  1  0
 25 50  1  0
 28 51  1  0
 28 52  1  0
 29 53  1  0
 29 54  1  0
 30 55  1  0
 30 56  1  0
 31 57  1  0
 31 58  1  0
 32 59  1  0
 32 60  1  0
M  CHG  2   9   1  11  -1
M  END
>  <UniqueID>  (48) 
46

>  <SMILES>  (48) 
O=C(C=Cc1ccc[nH+]c1)[N-]c1cc(S(=O)(=O)N2CCOCC2)ccc1N1CCCCC1

>  <Energy>  (48) 
89.99186972315182

>  <Genealogy>  (48) 
O=C(C=Cc1ccc[nH+]c1)[N-]c1cc(S(=O)(=O)N2CCOCC2)ccc1N1CCCCC1 (protonated)
O=C(C=Cc1ccc[nH+]c1)[N-]c1cc(S(=O)(=O)N2CCOCC2)ccc1N1CCCCC1 (3D coordinates assigned)
O=C(C=Cc1ccc[nH+]c1)[N-]c1cc(S(=O)(=O)N2CCOCC2)ccc1N1CCCCC1 (nonaromatic ring conformer: 89.99186972315182 kcal/mol)

>  <smiles>  (48) 
O=C(C=Cc1cccnc1)Nc1cc(S(=O)(=O)N2CCOCC2)ccc1N1CCCCC1

>  <score_type>  (48) 
oracle

>  <origin>  (48) 
adg

>  <m_score__min__energy>  (48) 
-10.81

>  <m_primary>  (48) 
energy

$$$$
48:0
     RDKit          3D

 53 55  0  0  0  0  0  0  0  0999 V2000
   54.8660   26.0430   45.9570 N   0  0  0  0  0  0  0  0  0  0  0  0
   56.1400   25.4930   46.2820 C   0  0  0  0  0  0  0  0  0  0  0  0
   56.3120   24.9130   47.3890 O   0  0  0  0  0  0  0  0  0  0  0  0
   57.2570   25.5580   45.2860 C   0  0  0  0  0  0  0  0  0  0  0  0
   58.0850   26.7410   45.5170 N   0  0  0  0  0  0  0  0  0  0  0  0
   57.5120   28.0480   45.6580 C   0  0  0  0  0  0  0  0  0  0  0  0
   56.2620   28.2000   45.5860 O   0  0  0  0  0  0  0  0  0  0  0  0
   58.3800   29.2190   45.9110 C   0  0  0  0  0  0  0  0  0  0  0  0
   57.9330   30.4770   45.4700 C   0  0  0  0  0  0  0  0  0  0  0  0
   58.7400   31.6080   45.6030 C   0  0  0  0  0  0  0  0  0  0  0  0
   60.0050   31.4990   46.1750 C   0  0  0  0  0  0  0  0  0  0  0  0
   60.4630   30.2620   46.6310 C   0  0  0  0  0  0  0  0  0  0  0  0
   59.6610   29.1080   46.5210 C   0  0  0  0  0  0  0  0  0  0  0  0
   60.1700   27.8400   47.1070 C   0  0  0  0  0  0  0  0  0  0  0  0
   60.5280   26.8930   46.3600 O   0  0  0  0  0  0  0  0  0  0  0  0
   60.2600   27.7080   48.5340 N   0  0  0  0  0  0  0  0  0  0  0  0
   59.9940   28.7140   49.5220 C   0  0  0  0  0  0  0  0  0  0  0  0
   58.8470   29.5060   49.3750 C   0  0  0  0  0  0  0  0  0  0  0  0
   58.5190   30.4660   50.3360 C   0  0  0  0  0  0  0  0  0  0  0  0
   59.3170   30.6250   51.4740 C   0  0  0  0  0  0  0  0  0  0  0  0
   58.9370   31.5870   52.4650 N   0  0  0  0  0  0  0  0  0  0  0  0
   59.3660   32.9560   52.5070 C   0  0  0  0  0  0  0  0  0  0  0  0
   60.0120   33.3580   53.5120 O   0  0  0  0  0  0  0  0  0  0  0  0
   59.1370   33.9080   51.3600 C   0  0  0  0  0  0  0  0  0  0  0  0
   60.1550   33.7050   50.2660 C   0  0  0  0  0  0  0  0  0  0  0  0
   61.3780   33.0720   50.5340 C   0  0  0  0  0  0  0  0  0  0  0  0
   62.3290   32.9100   49.5230 C   0  0  0  0  0  0  0  0  0  0  0  0
   62.0690   33.3680   48.2190 C   0  0  0  0  0  0  0  0  0  0  0  0
   63.0490   33.2010   47.1790 N   0  0  0  0  0  0  0  0  0  0  0  0
   63.3490   34.1510   46.4260 O   0  0  0  0  0  0  0  0  0  0  0  0
   63.6830   31.9920   47.0060 O   0  0  0  0  0  0  0  0  0  0  0  0
   60.8370   33.9910   47.9500 C   0  0  0  0  0  0  0  0  0  0  0  0
   59.8900   34.1580   48.9650 C   0  0  0  0  0  0  0  0  0  0  0  0
   60.4790   29.8540   51.6170 C   0  0  0  0  0  0  0  0  0  0  0  0
   60.8060   28.8890   50.6590 C   0  0  0  0  0  0  0  0  0  0  0  0
   54.7610   26.7210   45.1680 H   0  0  0  0  0  0  0  0  0  0  0  0
   57.8799   24.6565   45.3822 H   0  0  0  0  0  0  0  0  0  0  0  0
   56.8274   25.6179   44.2751 H   0  0  0  0  0  0  0  0  0  0  0  0
   59.1270   26.6430   45.5480 H   0  0  0  0  0  0  0  0  0  0  0  0
   56.9359   30.5709   45.0150 H   0  0  0  0  0  0  0  0  0  0  0  0
   58.3764   32.5864   45.2557 H   0  0  0  0  0  0  0  0  0  0  0  0
   60.6443   32.3893   46.2676 H   0  0  0  0  0  0  0  0  0  0  0  0
   61.4633   30.1866   47.0823 H   0  0  0  0  0  0  0  0  0  0  0  0
   58.1997   29.3708   48.4960 H   0  0  0  0  0  0  0  0  0  0  0  0
   57.6301   31.0990   50.1972 H   0  0  0  0  0  0  0  0  0  0  0  0
   58.1309   33.7380   50.9490 H   0  0  0  0  0  0  0  0  0  0  0  0
   59.2350   34.9363   51.7382 H   0  0  0  0  0  0  0  0  0  0  0  0
   61.5899   32.7005   51.5474 H   0  0  0  0  0  0  0  0  0  0  0  0
   63.2880   32.4207   49.7488 H   0  0  0  0  0  0  0  0  0  0  0  0
   60.6169   34.3495   46.9336 H   0  0  0  0  0  0  0  0  0  0  0  0
   58.9307   34.6479   48.7419 H   0  0  0  0  0  0  0  0  0  0  0  0
   61.1359   30.0085   52.4857 H   0  0  0  0  0  0  0  0  0  0  0  0
   61.7012   28.2642   50.7943 H   0  0  0  0  0  0  0  0  0  0  0  0
  1  2  1  0
  2  3  2  0
  2  4  1  0
  4  5  1  0
  5  6  1  0
  6  7  2  0
  6  8  1  0
  8  9  2  0
  9 10  1  0
 10 11  2  0
 11 12  1  0
 12 13  2  0
 13 14  1  0
 14 15  2  0
 14 16  1  0
 16 17  1  0
 17 18  2  0
 18 19  1  0
 19 20  2  0
 20 21  1  0
 21 22  1  0
 22 23  2  0
 22 24  1  0
 24 25  1  0
 25 26  2  0
 26 27  1  0
 27 28  2  0
 28 29  1  0
 29 30  2  0
 29 31  1  0
 28 32  1  0
 32 33  2  0
 20 34  1  0
 34 35  2  0
 13  8  1  0
 35 17  1  0
 33 25  1  0
  1 36  1  0
  4 37  1  0
  4 38  1  0
  5 39  1  0
  9 40  1  0
 10 41  1  0
 11 42  1  0
 12 43  1  0
 18 44  1  0
 19 45  1  0
 24 46  1  0
 24 47  1  0
 26 48  1  0
 27 49  1  0
 32 50  1  0
 33 51  1  0
 34 52  1  0
 35 53  1  0
M  CHG  5   1  -1  16  -1  21  -1  29   1  31  -1
M  END
>  <UniqueID>  (49) 
47

>  <SMILES>  (49) 
[NH-]C(=O)CNC(=O)c1ccccc1C(=O)[N-]c1ccc([N-]C(=O)Cc2ccc([N+](=O)[O-])cc2)cc1

>  <Energy>  (49) 
69.39290491101254

>  <Genealogy>  (49) 
[NH-]C(=O)CNC(=O)c1ccccc1C(=O)[N-]c1ccc([N-]C(=O)Cc2ccc([N+](=O)[O-])cc2)cc1 (protonated)
[NH-]C(=O)CNC(=O)c1ccccc1C(=O)[N-]c1ccc([N-]C(=O)Cc2ccc([N+](=O)[O-])cc2)cc1 (3D coordinates assigned)
[NH-]C(=O)CNC(=O)c1ccccc1C(=O)[N-]c1ccc([N-]C(=O)Cc2ccc([N+](=O)[O-])cc2)cc1 (optimized conformer: 69.39290491101254 kcal/mol)

>  <smiles>  (49) 
NC(=O)CNC(=O)c1ccccc1C(=O)Nc1ccc(NC(=O)Cc2ccc([N+](=O)[O-])cc2)cc1

>  <score_type>  (49) 
oracle

>  <origin>  (49) 
adg

>  <m_score__min__energy>  (49) 
-14.57

>  <m_primary>  (49) 
energy

$$$$
49:0
     RDKit          3D

 41 43  0  0  0  0  0  0  0  0999 V2000
   60.7230   30.2220   46.4560 C   0  0  0  0  0  0  0  0  0  0  0  0
   59.3400   30.0820   46.9130 N   0  0  0  0  0  0  0  0  0  0  0  0
   58.3540   31.1460   46.6950 C   0  0  0  0  0  0  0  0  0  0  0  0
   57.8310   31.0720   45.2880 C   0  0  0  0  0  0  0  0  0  0  0  0
   57.0850   29.9590   44.8680 C   0  0  0  0  0  0  0  0  0  0  0  0
   56.6730   29.8490   43.5360 C   0  0  0  0  0  0  0  0  0  0  0  0
   57.0110   30.8430   42.6150 C   0  0  0  0  0  0  0  0  0  0  0  0
   57.7630   31.9490   43.0230 C   0  0  0  0  0  0  0  0  0  0  0  0
   58.1760   32.0620   44.3540 C   0  0  0  0  0  0  0  0  0  0  0  0
   58.9550   28.9050   47.6380 C   0  0  0  0  0  0  0  0  0  0  0  0
   58.7560   28.9890   48.8800 O   0  0  0  0  0  0  0  0  0  0  0  0
   58.7550   27.6090   46.9450 C   0  0  0  0  0  0  0  0  0  0  0  0
   59.8570   26.7910   46.6410 C   0  0  0  0  0  0  0  0  0  0  0  0
   59.6750   25.5560   46.0140 C   0  0  0  0  0  0  0  0  0  0  0  0
   58.3890   25.1130   45.6920 C   0  0  0  0  0  0  0  0  0  0  0  0
   58.2200   23.9060   45.0900 N   0  0  0  0  0  0  0  0  0  0  0  0
   56.9910   23.4230   44.7610 C   0  0  0  0  0  0  0  0  0  0  0  0
   56.8770   22.1020   44.1060 C   0  0  0  0  0  0  0  0  0  0  0  0
   57.8550   21.0860   44.3330 N   0  0  0  0  0  0  0  0  0  0  0  0
   55.9090   21.8590   43.3340 O   0  0  0  0  0  0  0  0  0  0  0  0
   55.8510   24.1880   45.0510 C   0  0  0  0  0  0  0  0  0  0  0  0
   55.9880   25.4350   45.6700 C   0  0  0  0  0  0  0  0  0  0  0  0
   54.9550   26.1130   45.9290 O   0  0  0  0  0  0  0  0  0  0  0  0
   57.2690   25.9150   45.9970 C   0  0  0  0  0  0  0  0  0  0  0  0
   57.4610   27.1610   46.6200 C   0  0  0  0  0  0  0  0  0  0  0  0
   61.3918   30.2897   47.3267 H   0  0  0  0  0  0  0  0  0  0  0  0
   60.9989   29.3472   45.8489 H   0  0  0  0  0  0  0  0  0  0  0  0
   60.8180   31.1343   45.8489 H   0  0  0  0  0  0  0  0  0  0  0  0
   57.5203   31.0223   47.4019 H   0  0  0  0  0  0  0  0  0  0  0  0
   58.8320   32.1237   46.8548 H   0  0  0  0  0  0  0  0  0  0  0  0
   56.8237   29.1707   45.5893 H   0  0  0  0  0  0  0  0  0  0  0  0
   56.0823   28.9789   43.2135 H   0  0  0  0  0  0  0  0  0  0  0  0
   56.6854   30.7558   41.5679 H   0  0  0  0  0  0  0  0  0  0  0  0
   58.0298   32.7306   42.2964 H   0  0  0  0  0  0  0  0  0  0  0  0
   58.7734   32.9297   44.6706 H   0  0  0  0  0  0  0  0  0  0  0  0
   60.8722   27.1265   46.8993 H   0  0  0  0  0  0  0  0  0  0  0  0
   60.5468   24.9300   45.7729 H   0  0  0  0  0  0  0  0  0  0  0  0
   58.6720   21.2470   44.9630 H   0  0  0  0  0  0  0  0  0  0  0  0
   57.7630   20.1570   43.8670 H   0  0  0  0  0  0  0  0  0  0  0  0
   54.8517   23.8080   44.7921 H   0  0  0  0  0  0  0  0  0  0  0  0
   56.5912   27.7918   46.8557 H   0  0  0  0  0  0  0  0  0  0  0  0
  1  2  1  0
  2  3  1  0
  3  4  1  0
  4  5  2  0
  5  6  1  0
  6  7  2  0
  7  8  1  0
  8  9  2  0
  2 10  1  0
 10 11  2  0
 10 12  1  0
 12 13  2  0
 13 14  1  0
 14 15  2  0
 15 16  1  0
 16 17  1  0
 17 18  1  0
 18 19  1  0
 18 20  2  0
 17 21  2  0
 21 22  1  0
 22 23  2  0
 22 24  1  0
 24 25  2  0
  9  4  1  0
 25 12  1  0
 24 15  1  0
  1 26  1  0
  1 27  1  0
  1 28  1  0
  3 29  1  0
  3 30  1  0
  5 31  1  0
  6 32  1  0
  7 33  1  0
  8 34  1  0
  9 35  1  0
 13 36  1  0
 14 37  1  0
 19 38  1  0
 19 39  1  0
 21 40  1  0
 25 41  1  0
M  CHG  1  16  -1
M  END
>  <UniqueID>  (50) 
48

>  <SMILES>  (50) 
CN(Cc1ccccc1)C(=O)c1ccc2[n-]c(C(N)=O)cc(=O)c2c1

>  <Energy>  (50) 
48.63114437724681

>  <Genealogy>  (50) 
CN(Cc1ccccc1)C(=O)c1ccc2[n-]c(C(N)=O)cc(=O)c2c1 (protonated)
CN(Cc1ccccc1)C(=O)c1ccc2[n-]c(C(N)=O)cc(=O)c2c1 (3D coordinates assigned)
CN(Cc1ccccc1)C(=O)c1ccc2[n-]c(C(N)=O)cc(=O)c2c1 (optimized conformer: 48.63114437724681 kcal/mol)

>  <smiles>  (50) 
CN(Cc1ccccc1)C(=O)c1ccc2[nH]c(C(N)=O)cc(=O)c2c1

>  <score_type>  (50) 
oracle

>  <origin>  (50) 
adg

>  <m_score__min__energy>  (50) 
-10.369999999999999

>  <m_primary>  (50) 
energy

$$$$
50:0
     RDKit          3D

 49 52  0  0  0  0  0  0  0  0999 V2000
   57.8770   33.5970   44.1530 O   0  0  0  0  0  0  0  0  0  0  0  0
   57.5840   33.0610   45.2540 C   0  0  0  0  0  0  0  0  0  0  0  0
   57.9430   33.7760   46.5290 C   0  0  0  0  0  0  0  0  0  0  0  0
   59.4260   33.8110   46.7500 C   0  0  0  0  0  0  0  0  0  0  0  0
   60.4090   33.8170   45.7630 C   0  0  0  0  0  0  0  0  0  0  0  0
   61.6400   33.8530   46.3220 N   0  0  0  0  0  0  0  0  0  0  0  0
   61.4440   33.8610   47.6520 C   0  0  0  0  0  0  0  0  0  0  0  0
   62.4180   33.8920   48.6490 C   0  0  0  0  0  0  0  0  0  0  0  0
   61.9890   33.8890   49.9880 C   0  0  0  0  0  0  0  0  0  0  0  0
   60.6110   33.8510   50.2990 C   0  0  0  0  0  0  0  0  0  0  0  0
   59.6500   33.8200   49.2710 C   0  0  0  0  0  0  0  0  0  0  0  0
   60.1050   33.8310   47.9530 C   0  0  0  0  0  0  0  0  0  0  0  0
   56.8910   31.8060   45.2420 N   0  0  0  0  0  0  0  0  0  0  0  0
   56.6450   30.9730   44.0680 C   0  0  0  0  0  0  0  0  0  0  0  0
   56.2570   29.5730   44.4710 C   0  0  0  0  0  0  0  0  0  0  0  0
   55.1680   29.3680   45.0680 O   0  0  0  0  0  0  0  0  0  0  0  0
   57.1330   28.4630   44.2380 N   0  0  0  0  0  0  0  0  0  0  0  0
   57.5910   27.5420   45.2360 C   0  0  0  0  0  0  0  0  0  0  0  0
   56.7850   26.4640   45.6370 C   0  0  0  0  0  0  0  0  0  0  0  0
   57.2270   25.5850   46.6290 C   0  0  0  0  0  0  0  0  0  0  0  0
   58.4680   25.7850   47.2400 C   0  0  0  0  0  0  0  0  0  0  0  0
   59.2650   26.8690   46.8630 C   0  0  0  0  0  0  0  0  0  0  0  0
   58.8310   27.7520   45.8650 C   0  0  0  0  0  0  0  0  0  0  0  0
   59.8900   29.1230   45.3880 S   0  0  0  0  0  0  0  0  0  0  0  0
   60.0080   29.7420   47.0680 C   0  0  0  0  0  0  0  0  0  0  0  0
   61.2480   30.1320   47.5890 C   0  0  0  0  0  0  0  0  0  0  0  0
   61.3360   30.6300   48.8940 C   0  0  0  0  0  0  0  0  0  0  0  0
   60.1850   30.7340   49.6810 C   0  0  0  0  0  0  0  0  0  0  0  0
   58.9460   30.3360   49.1670 C   0  0  0  0  0  0  0  0  0  0  0  0
   58.8580   29.8360   47.8640 C   0  0  0  0  0  0  0  0  0  0  0  0
   57.5665   34.8082   46.4764 H   0  0  0  0  0  0  0  0  0  0  0  0
   57.4854   33.2302   47.3673 H   0  0  0  0  0  0  0  0  0  0  0  0
   60.2117   33.7955   44.6810 H   0  0  0  0  0  0  0  0  0  0  0  0
   62.5540   33.8690   45.8190 H   0  0  0  0  0  0  0  0  0  0  0  0
   63.4882   33.9180   48.3961 H   0  0  0  0  0  0  0  0  0  0  0  0
   62.7313   33.9164   50.7993 H   0  0  0  0  0  0  0  0  0  0  0  0
   60.2876   33.8456   51.3504 H   0  0  0  0  0  0  0  0  0  0  0  0
   58.5746   33.7881   49.5000 H   0  0  0  0  0  0  0  0  0  0  0  0
   55.8301   31.4161   43.4768 H   0  0  0  0  0  0  0  0  0  0  0  0
   57.5692   30.9233   43.4735 H   0  0  0  0  0  0  0  0  0  0  0  0
   55.8017   26.3111   45.1682 H   0  0  0  0  0  0  0  0  0  0  0  0
   56.5975   24.7345   46.9295 H   0  0  0  0  0  0  0  0  0  0  0  0
   58.8171   25.0894   48.0173 H   0  0  0  0  0  0  0  0  0  0  0  0
   60.2373   27.0300   47.3516 H   0  0  0  0  0  0  0  0  0  0  0  0
   62.1544   30.0468   46.9715 H   0  0  0  0  0  0  0  0  0  0  0  0
   62.3102   30.9394   49.3003 H   0  0  0  0  0  0  0  0  0  0  0  0
   60.2536   31.1291   50.7053 H   0  0  0  0  0  0  0  0  0  0  0  0
   58.0414   30.4164   49.7877 H   0  0  0  0  0  0  0  0  0  0  0  0
   57.8849   29.5160   47.4631 H   0  0  0  0  0  0  0  0  0  0  0  0
  1  2  2  0
  2  3  1  0
  3  4  1  0
  4  5  2  0
  5  6  1  0
  6  7  1  0
  7  8  2  0
  8  9  1  0
  9 10  2  0
 10 11  1  0
 11 12  2  0
  2 13  1  0
 13 14  1  0
 14 15  1  0
 15 16  2  0
 15 17  1  0
 17 18  1  0
 18 19  2  0
 19 20  1  0
 20 21  2  0
 21 22  1  0
 22 23  2  0
 23 24  1  0
 24 25  1  0
 25 26  2  0
 26 27  1  0
 27 28  2  0
 28 29  1  0
 29 30  2  0
 12  4  1  0
 23 18  1  0
 30 25  1  0
 12  7  1  0
  3 31  1  0
  3 32  1  0
  5 33  1  0
  6 34  1  0
  8 35  1  0
  9 36  1  0
 10 37  1  0
 11 38  1  0
 14 39  1  0
 14 40  1  0
 19 41  1  0
 20 42  1  0
 21 43  1  0
 22 44  1  0
 26 45  1  0
 27 46  1  0
 28 47  1  0
 29 48  1  0
 30 49  1  0
M  CHG  2  13  -1  17  -1
M  END
>  <UniqueID>  (51) 
49

>  <SMILES>  (51) 
O=C(Cc1c[nH]c2ccccc12)[N-]CC(=O)[N-]c1ccccc1Sc1ccccc1

>  <Energy>  (51) 
82.59248306647319

>  <Genealogy>  (51) 
O=C(Cc1c[nH]c2ccccc12)[N-]CC(=O)[N-]c1ccccc1Sc1ccccc1 (protonated)
O=C(Cc1c[nH]c2ccccc12)[N-]CC(=O)[N-]c1ccccc1Sc1ccccc1 (3D coordinates assigned)
O=C(Cc1c[nH]c2ccccc12)[N-]CC(=O)[N-]c1ccccc1Sc1ccccc1 (optimized conformer: 82.59248306647319 kcal/mol)

>  <smiles>  (51) 
O=C(Cc1c[nH]c2ccccc12)NCC(=O)Nc1ccccc1Sc1ccccc1

>  <score_type>  (51) 
oracle

>  <origin>  (51) 
adg

>  <m_score__min__energy>  (51) 
-13.109999999999999

>  <m_primary>  (51) 
energy

$$$$
51:0
     RDKit          3D

 51 54  0  0  0  0  0  0  0  0999 V2000
   54.7001   30.5760   43.6840 H   0  0  0  0  0  0  0  0  0  0  0  0
   55.6060   30.0930   44.0790 C   0  0  0  0  0  0  0  0  0  0  0  0
   55.5610   28.9880   44.8740 N   0  0  0  0  0  0  0  0  0  0  0  0
   56.7970   28.5830   45.2380 C   0  0  0  0  0  0  0  0  0  0  0  0
   56.9900   27.5130   45.9520 N   0  0  0  0  0  0  0  0  0  0  0  0
   58.0980   27.2900   46.8380 C   0  0  0  0  0  0  0  0  0  0  0  0
   58.3290   26.1160   47.2310 O   0  0  0  0  0  0  0  0  0  0  0  0
   58.9360   28.4040   47.3390 C   0  0  0  0  0  0  0  0  0  0  0  0
   60.1750   28.6840   46.7380 C   0  0  0  0  0  0  0  0  0  0  0  0
   60.5264   28.0684   45.8968 H   0  0  0  0  0  0  0  0  0  0  0  0
   60.9630   29.7400   47.2030 C   0  0  0  0  0  0  0  0  0  0  0  0
   61.9292   29.9555   46.7233 H   0  0  0  0  0  0  0  0  0  0  0  0
   60.5280   30.5230   48.2750 C   0  0  0  0  0  0  0  0  0  0  0  0
   61.1473   31.3588   48.6326 H   0  0  0  0  0  0  0  0  0  0  0  0
   59.3040   30.2440   48.8940 C   0  0  0  0  0  0  0  0  0  0  0  0
   58.8530   31.0380   50.0050 C   0  0  0  0  0  0  0  0  0  0  0  0
   58.4830   31.6740   50.8980 N   0  0  0  0  0  0  0  0  0  0  0  0
   58.5150   29.1830   48.4320 C   0  0  0  0  0  0  0  0  0  0  0  0
   57.5592   28.9573   48.9275 H   0  0  0  0  0  0  0  0  0  0  0  0
   58.0010   29.5660   44.5740 S   0  0  0  0  0  0  0  0  0  0  0  0
   56.8870   30.5640   43.8050 C   0  0  0  0  0  0  0  0  0  0  0  0
   57.2290   31.6840   42.9180 C   0  0  0  0  0  0  0  0  0  0  0  0
   57.3930   31.4860   41.6860 O   0  0  0  0  0  0  0  0  0  0  0  0
   57.4320   32.9910   43.4540 N   0  0  0  0  0  0  0  0  0  0  0  0
   58.1680   33.2680   44.6530 C   0  0  0  0  0  0  0  0  0  0  0  0
   57.8330   32.6740   45.8830 C   0  0  0  0  0  0  0  0  0  0  0  0
   57.0504   31.9021   45.9237 H   0  0  0  0  0  0  0  0  0  0  0  0
   58.4910   33.0610   47.0540 C   0  0  0  0  0  0  0  0  0  0  0  0
   58.2158   32.5997   48.0139 H   0  0  0  0  0  0  0  0  0  0  0  0
   59.5010   34.0350   47.0120 C   0  0  0  0  0  0  0  0  0  0  0  0
   60.1420   34.5420   48.2870 C   0  0  0  0  0  0  0  0  0  0  0  0
   60.0955   35.6410   48.2781 H   0  0  0  0  0  0  0  0  0  0  0  0
   59.5792   34.0863   49.1150 H   0  0  0  0  0  0  0  0  0  0  0  0
   61.5560   34.1440   48.4810 N   0  0  0  0  0  0  0  0  0  0  0  0
   61.8100   33.5430   49.8030 C   0  0  0  0  0  0  0  0  0  0  0  0
   61.5476   34.2683   50.5872 H   0  0  0  0  0  0  0  0  0  0  0  0
   61.1964   32.6359   49.9062 H   0  0  0  0  0  0  0  0  0  0  0  0
   63.2980   33.1590   49.9430 C   0  0  0  0  0  0  0  0  0  0  0  0
   63.6809   33.5460   50.8988 H   0  0  0  0  0  0  0  0  0  0  0  0
   63.3813   32.0627   49.9096 H   0  0  0  0  0  0  0  0  0  0  0  0
   64.0650   33.7020   48.8830 O   0  0  0  0  0  0  0  0  0  0  0  0
   63.6530   33.1290   47.6540 C   0  0  0  0  0  0  0  0  0  0  0  0
   64.2183   33.5988   46.8357 H   0  0  0  0  0  0  0  0  0  0  0  0
   63.8469   32.0472   47.7010 H   0  0  0  0  0  0  0  0  0  0  0  0
   62.1440   33.3330   47.3990 C   0  0  0  0  0  0  0  0  0  0  0  0
   62.0033   33.8500   46.4383 H   0  0  0  0  0  0  0  0  0  0  0  0
   61.6463   32.3525   47.3707 H   0  0  0  0  0  0  0  0  0  0  0  0
   59.8720   34.5840   45.7740 C   0  0  0  0  0  0  0  0  0  0  0  0
   60.6935   35.3138   45.7232 H   0  0  0  0  0  0  0  0  0  0  0  0
   59.2030   34.2080   44.6060 C   0  0  0  0  0  0  0  0  0  0  0  0
   59.4923   34.6543   43.6431 H   0  0  0  0  0  0  0  0  0  0  0  0
  1  2  1  0
  2  3  1  0
  3  4  1  0
  4  5  2  0
  5  6  1  0
  6  7  2  0
  6  8  1  0
  8  9  2  0
  9 10  1  0
  9 11  1  0
 11 12  1  0
 11 13  2  0
 13 14  1  0
 13 15  1  0
 15 16  1  0
 16 17  3  0
 15 18  2  0
 18 19  1  0
  4 20  1  0
 20 21  1  0
 21 22  1  0
 22 23  2  0
 22 24  1  0
 24 25  1  0
 25 26  2  0
 26 27  1  0
 26 28  1  0
 28 29  1  0
 28 30  2  0
 30 31  1  0
 31 32  1  0
 31 33  1  0
 31 34  1  0
 34 35  1  0
 35 36  1  0
 35 37  1  0
 35 38  1  0
 38 39  1  0
 38 40  1  0
 38 41  1  0
 41 42  1  0
 42 43  1  0
 42 44  1  0
 42 45  1  0
 45 46  1  0
 45 47  1  0
 30 48  1  0
 48 49  1  0
 48 50  2  0
 50 51  1  0
 21  2  2  0
 50 25  1  0
 18  8  1  0
 45 34  1  0
M  CHG  2   3  -1  24  -1
M  END
>  <UniqueID>  (52) 
50

>  <SMILES>  (52) 
N#Cc1cccc(C(=O)/N=c2/[n-]cc(C(=O)[N-]c3ccc(CN4CCOCC4)cc3)s2)c1

>  <Energy>  (52) 
111.55496552080271

>  <Genealogy>  (52) 
N#Cc1cccc(C(=O)N=c2[n-]cc(C(=O)[N-]c3ccc(CN4CCOCC4)cc3)s2)c1 (protonated)
N#Cc1cccc(C(=O)/N=c2/[n-]cc(C(=O)[N-]c3ccc(CN4CCOCC4)cc3)s2)c1 (cis-trans isomerization)
N#Cc1cccc(C(=O)/N=c2/[n-]cc(C(=O)[N-]c3ccc(CN4CCOCC4)cc3)s2)c1 (3D coordinates assigned)
N#Cc1cccc(C(=O)/N=c2/[n-]cc(C(=O)[N-]c3ccc(CN4CCOCC4)cc3)s2)c1 (nonaromatic ring conformer: 111.55496552080271 kcal/mol)

>  <smiles>  (52) 
N#Cc1cccc(C(=O)N=c2[nH]cc(C(=O)Nc3ccc(CN4CCOCC4)cc3)s2)c1

>  <score_type>  (52) 
oracle

>  <origin>  (52) 
adg

>  <m_score__min__energy>  (52) 
-12.140000000000001

>  <m_primary>  (52) 
energy

$$$$
52:0
     RDKit          3D

 47 50  0  0  0  0  0  0  0  0999 V2000
   54.6158   23.8837   43.0248 H   0  0  0  0  0  0  0  0  0  0  0  0
   55.5200   23.3520   43.3560 C   0  0  0  0  0  0  0  0  0  0  0  0
   55.9020   22.2040   42.7300 N   0  0  0  0  0  0  0  0  0  0  0  0
   57.0130   21.5170   43.1110 C   0  0  0  0  0  0  0  0  0  0  0  0
   57.2965   20.5936   42.5847 H   0  0  0  0  0  0  0  0  0  0  0  0
   57.7950   21.9860   44.1730 C   0  0  0  0  0  0  0  0  0  0  0  0
   58.6959   21.4368   44.4841 H   0  0  0  0  0  0  0  0  0  0  0  0
   57.4190   23.1620   44.8360 C   0  0  0  0  0  0  0  0  0  0  0  0
   58.4030   23.7960   46.2020 S   0  0  0  0  0  0  0  0  0  0  0  0
   57.2770   25.1870   46.5870 C   0  0  0  0  0  0  0  0  0  0  0  0
   57.3423   25.4168   47.6607 H   0  0  0  0  0  0  0  0  0  0  0  0
   56.2512   24.8939   46.3190 H   0  0  0  0  0  0  0  0  0  0  0  0
   57.6490   26.4110   45.7980 C   0  0  0  0  0  0  0  0  0  0  0  0
   58.9340   26.5260   45.2370 C   0  0  0  0  0  0  0  0  0  0  0  0
   59.6789   25.7348   45.4076 H   0  0  0  0  0  0  0  0  0  0  0  0
   59.2680   27.6410   44.4640 C   0  0  0  0  0  0  0  0  0  0  0  0
   60.2730   27.7234   44.0245 H   0  0  0  0  0  0  0  0  0  0  0  0
   58.3260   28.6530   44.2480 C   0  0  0  0  0  0  0  0  0  0  0  0
   58.5904   29.5227   43.6286 H   0  0  0  0  0  0  0  0  0  0  0  0
   57.0430   28.5650   44.8180 C   0  0  0  0  0  0  0  0  0  0  0  0
   56.0570   29.6470   44.5960 C   0  0  0  0  0  0  0  0  0  0  0  0
   54.8390   29.3510   44.4890 O   0  0  0  0  0  0  0  0  0  0  0  0
   56.4370   31.0300   44.5070 N   0  0  0  0  0  0  0  0  0  0  0  0
   57.3860   31.6070   45.1820 C   0  0  0  0  0  0  0  0  0  0  0  0
   57.8030   32.8750   44.9660 N   0  0  0  0  0  0  0  0  0  0  0  0
   58.7900   33.2200   45.8310 C   0  0  0  0  0  0  0  0  0  0  0  0
   59.1140   32.2500   46.7650 C   0  0  0  0  0  0  0  0  0  0  0  0
   58.1930   30.8770   46.4680 S   0  0  0  0  0  0  0  0  0  0  0  0
   60.2040   32.4080   47.7820 C   0  0  0  0  0  0  0  0  0  0  0  0
   59.8569   32.0000   48.7427 H   0  0  0  0  0  0  0  0  0  0  0  0
   61.0908   31.8666   47.4208 H   0  0  0  0  0  0  0  0  0  0  0  0
   60.5770   33.8320   47.9710 N   0  0  2  0  0  0  0  0  0  0  0  0
   61.5120   33.8480   48.4450 H   0  0  0  0  0  0  0  0  0  0  0  0
   59.6310   34.5270   48.8670 C   0  0  0  0  0  0  0  0  0  0  0  0
   59.9032   34.3270   49.9139 H   0  0  0  0  0  0  0  0  0  0  0  0
   59.6743   35.6097   48.6773 H   0  0  0  0  0  0  0  0  0  0  0  0
   58.6108   34.1620   48.6773 H   0  0  0  0  0  0  0  0  0  0  0  0
   60.7370   34.5430   46.6740 C   0  0  0  0  0  0  0  0  0  0  0  0
   61.0392   35.5807   46.8786 H   0  0  0  0  0  0  0  0  0  0  0  0
   61.4970   33.9995   46.0936 H   0  0  0  0  0  0  0  0  0  0  0  0
   59.4420   34.5650   45.8310 C   0  0  0  0  0  0  0  0  0  0  0  0
   58.7466   35.3036   46.2562 H   0  0  0  0  0  0  0  0  0  0  0  0
   59.6979   34.8345   44.7957 H   0  0  0  0  0  0  0  0  0  0  0  0
   56.7050   27.4320   45.5800 C   0  0  0  0  0  0  0  0  0  0  0  0
   55.6958   27.3433   46.0086 H   0  0  0  0  0  0  0  0  0  0  0  0
   56.2760   23.8550   44.4190 C   0  0  0  0  0  0  0  0  0  0  0  0
   55.9759   24.7857   44.9227 H   0  0  0  0  0  0  0  0  0  0  0  0
  1  2  1  0
  2  3  2  0
  3  4  1  0
  4  5  1  0
  4  6  2  0
  6  7  1  0
  6  8  1  0
  8  9  1  0
  9 10  1  0
 10 11  1  0
 10 12  1  0
 10 13  1  0
 13 14  2  0
 14 15  1  0
 14 16  1  0
 16 17  1  0
 16 18  2  0
 18 19  1  0
 18 20  1  0
 20 21  1  0
 21 22  2  0
 21 23  1  0
 23 24  2  0
 24 25  1  0
 25 26  1  0
 26 27  2  0
 27 28  1  0
 27 29  1  0
 29 30  1  0
 29 31  1  0
 29 32  1  0
 32 33  1  1
 32 34  1  0
 34 35  1  0
 34 36  1  0
 34 37  1  0
 32 38  1  0
 38 39  1  0
 38 40  1  0
 38 41  1  0
 41 42  1  0
 41 43  1  0
 20 44  2  0
 44 45  1  0
  8 46  2  0
 46 47  1  0
 46  2  1  0
 44 13  1  0
 28 24  1  0
 41 26  1  0
M  CHG  2  25  -1  32   1
M  END
>  <UniqueID>  (53) 
51

>  <SMILES>  (53) 
C[N@@H+]1CCc2[n-]/c(=N\C(=O)c3cccc(CSc4ccncc4)c3)sc2C1

>  <Energy>  (53) 
87.7962901244659

>  <Genealogy>  (53) 
C[NH+]1CCc2[n-]c(=NC(=O)c3cccc(CSc4ccncc4)c3)sc2C1 (protonated)
C[N@@H+]1CCc2[n-]c(=NC(=O)c3cccc(CSc4ccncc4)c3)sc2C1 (chirality)
C[N@@H+]1CCc2[n-]/c(=N\C(=O)c3cccc(CSc4ccncc4)c3)sc2C1 (cis-trans isomerization)
C[N@@H+]1CCc2[n-]/c(=N\C(=O)c3cccc(CSc4ccncc4)c3)sc2C1 (3D coordinates assigned)
C[N@@H+]1CCc2[n-]/c(=N\C(=O)c3cccc(CSc4ccncc4)c3)sc2C1 (nonaromatic ring conformer: 87.7962901244659 kcal/mol)

>  <smiles>  (53) 
CN1CCc2[nH]c(=NC(=O)c3cccc(CSc4ccncc4)c3)sc2C1

>  <score_type>  (53) 
oracle

>  <origin>  (53) 
adg

>  <m_score__min__energy>  (53) 
-9.7899999999999991

>  <m_primary>  (53) 
energy

$$$$
53:0
     RDKit          3D

 25 26  0  0  0  0  0  0  0  0999 V2000
   55.8900   28.7990   45.2330 O   0  0  0  0  0  0  0  0  0  0  0  0
   57.1020   28.5350   45.4520 C   0  0  0  0  0  0  0  0  0  0  0  0
   57.6490   27.2030   45.0080 C   0  0  0  0  0  0  0  0  0  0  0  0
   57.1700   26.0960   45.8970 C   0  0  0  0  0  0  0  0  0  0  0  0
   57.9690   25.1550   46.4300 N   0  0  0  0  0  0  0  0  0  0  0  0
   57.1210   24.4120   47.1740 C   0  0  0  0  0  0  0  0  0  0  0  0
   57.5020   23.4160   47.8420 O   0  0  0  0  0  0  0  0  0  0  0  0
   55.8350   24.8220   47.1480 N   0  0  0  0  0  0  0  0  0  0  0  0
   55.8840   25.8910   46.3360 C   0  0  0  0  0  0  0  0  0  0  0  0
   54.7780   26.6640   46.0060 O   0  0  0  0  0  0  0  0  0  0  0  0
   57.8960   29.4910   46.1690 N   0  0  0  0  0  0  0  0  0  0  0  0
   58.0190   30.8840   45.8570 C   0  0  0  0  0  0  0  0  0  0  0  0
   57.6160   31.3380   44.5960 C   0  0  0  0  0  0  0  0  0  0  0  0
   57.7250   32.6930   44.2680 C   0  0  0  0  0  0  0  0  0  0  0  0
   58.2590   33.6000   45.1890 C   0  0  0  0  0  0  0  0  0  0  0  0
   58.3600   34.9470   44.8500 O   0  0  0  0  0  0  0  0  0  0  0  0
   58.6930   33.1430   46.4410 C   0  0  0  0  0  0  0  0  0  0  0  0
   58.5830   31.7890   46.7710 C   0  0  0  0  0  0  0  0  0  0  0  0
   57.3178   27.0046   43.9780 H   0  0  0  0  0  0  0  0  0  0  0  0
   58.7470   27.2423   45.0620 H   0  0  0  0  0  0  0  0  0  0  0  0
   57.2122   30.6267   43.8605 H   0  0  0  0  0  0  0  0  0  0  0  0
   57.3895   33.0468   43.2820 H   0  0  0  0  0  0  0  0  0  0  0  0
   59.2270   35.4580   44.9670 H   0  0  0  0  0  0  0  0  0  0  0  0
   59.1211   33.8514   47.1655 H   0  0  0  0  0  0  0  0  0  0  0  0
   58.9389   31.4317   47.7486 H   0  0  0  0  0  0  0  0  0  0  0  0
  1  2  2  0
  2  3  1  0
  3  4  1  0
  4  5  1  0
  5  6  1  0
  6  7  2  0
  6  8  1  0
  8  9  1  0
  9 10  1  0
  2 11  1  0
 11 12  1  0
 12 13  2  0
 13 14  1  0
 14 15  2  0
 15 16  1  0
 15 17  1  0
 17 18  2  0
  9  4  2  0
 18 12  1  0
  3 19  1  0
  3 20  1  0
 13 21  1  0
 14 22  1  0
 16 23  1  0
 17 24  1  0
 18 25  1  0
M  CHG  4   5  -1   8  -1  10  -1  11  -1
M  END
>  <UniqueID>  (54) 
52

>  <SMILES>  (54) 
O=C(Cc1[n-]c(=O)[n-]c1[O-])[N-]c1ccc(O)cc1

>  <Energy>  (54) 
57.527268031033266

>  <Genealogy>  (54) 
O=C(Cc1[n-]c(=O)[n-]c1[O-])[N-]c1ccc(O)cc1 (protonated)
O=C(Cc1[n-]c(=O)[n-]c1[O-])[N-]c1ccc(O)cc1 (3D coordinates assigned)
O=C(Cc1[n-]c(=O)[n-]c1[O-])[N-]c1ccc(O)cc1 (optimized conformer: 57.527268031033266 kcal/mol)

>  <smiles>  (54) 
O=C(Cc1[nH]c(=O)[nH]c1O)Nc1ccc(O)cc1

>  <score_type>  (54) 
oracle

>  <origin>  (54) 
adg

>  <m_score__min__energy>  (54) 
-15.289999999999999

>  <m_primary>  (54) 
energy

$$$$
54:0
     RDKit          3D

 32 34  0  0  0  0  0  0  0  0999 V2000
   58.4910   28.3960   47.8230 O   0  0  0  0  0  0  0  0  0  0  0  0
   58.0850   28.1510   46.6570 C   0  0  0  0  0  0  0  0  0  0  0  0
   57.5890   29.2230   45.7650 C   0  0  0  0  0  0  0  0  0  0  0  0
   58.3870   30.3630   45.5750 C   0  0  0  0  0  0  0  0  0  0  0  0
   57.9560   31.4130   44.7440 C   0  0  0  0  0  0  0  0  0  0  0  0
   58.7380   32.5980   44.5420 N   0  0  0  0  0  0  0  0  0  0  0  0
   58.7350   33.9880   45.5800 S   0  0  0  0  0  0  0  0  0  0  0  0
   57.4090   34.0770   46.2790 O   0  0  0  0  0  0  0  0  0  0  0  0
   58.9360   35.2220   44.7450 O   0  0  0  0  0  0  0  0  0  0  0  0
   60.0070   33.8430   46.7890 C   0  0  0  0  0  0  0  0  0  0  0  0
   59.7520   34.1960   48.1360 C   0  0  0  0  0  0  0  0  0  0  0  0
   60.7680   34.1000   49.1050 C   0  0  0  0  0  0  0  0  0  0  0  0
   62.0180   33.6500   48.6920 C   0  0  0  0  0  0  0  0  0  0  0  0
   63.1840   33.4590   49.4010 C   0  0  0  0  0  0  0  0  0  0  0  0
   64.1060   32.9960   48.4680 C   0  0  0  0  0  0  0  0  0  0  0  0
   63.5420   32.9010   47.2420 N   0  0  0  0  0  0  0  0  0  0  0  0
   62.2690   33.3030   47.3910 C   0  0  0  0  0  0  0  0  0  0  0  0
   61.2850   33.3840   46.4080 C   0  0  0  0  0  0  0  0  0  0  0  0
   56.7230   31.3070   44.0930 C   0  0  0  0  0  0  0  0  0  0  0  0
   55.9230   30.1780   44.2700 C   0  0  0  0  0  0  0  0  0  0  0  0
   56.3450   29.1360   45.1020 C   0  0  0  0  0  0  0  0  0  0  0  0
   55.5200   28.0270   45.2580 O   0  0  0  0  0  0  0  0  0  0  0  0
   58.0992   27.1136   46.2916 H   0  0  0  0  0  0  0  0  0  0  0  0
   59.3605   30.4357   46.0820 H   0  0  0  0  0  0  0  0  0  0  0  0
   58.7515   34.5482   48.4276 H   0  0  0  0  0  0  0  0  0  0  0  0
   60.5801   34.3718   50.1542 H   0  0  0  0  0  0  0  0  0  0  0  0
   63.3500   33.6349   50.4741 H   0  0  0  0  0  0  0  0  0  0  0  0
   65.1516   32.7417   48.6961 H   0  0  0  0  0  0  0  0  0  0  0  0
   64.0060   32.5840   46.3620 H   0  0  0  0  0  0  0  0  0  0  0  0
   61.4982   33.0989   45.3672 H   0  0  0  0  0  0  0  0  0  0  0  0
   56.3812   32.1204   43.4361 H   0  0  0  0  0  0  0  0  0  0  0  0
   54.9550   30.1069   43.7524 H   0  0  0  0  0  0  0  0  0  0  0  0
  1  2  2  0
  2  3  1  0
  3  4  2  0
  4  5  1  0
  5  6  1  0
  6  7  1  0
  7  8  2  0
  7  9  2  0
  7 10  1  0
 10 11  2  0
 11 12  1  0
 12 13  2  0
 13 14  1  0
 14 15  2  0
 15 16  1  0
 16 17  1  0
 17 18  2  0
  5 19  2  0
 19 20  1  0
 20 21  2  0
 21 22  1  0
 21  3  1  0
 18 10  1  0
 17 13  1  0
  2 23  1  0
  4 24  1  0
 11 25  1  0
 12 26  1  0
 14 27  1  0
 15 28  1  0
 16 29  1  0
 18 30  1  0
 19 31  1  0
 20 32  1  0
M  CHG  2   6  -1  22  -1
M  END
>  <UniqueID>  (55) 
53

>  <SMILES>  (55) 
O=Cc1cc([N-]S(=O)(=O)c2ccc3cc[nH]c3c2)ccc1[O-]

>  <Energy>  (55) 
71.3336859086028

>  <Genealogy>  (55) 
O=Cc1cc([N-]S(=O)(=O)c2ccc3cc[nH]c3c2)ccc1[O-] (protonated)
O=Cc1cc([N-]S(=O)(=O)c2ccc3cc[nH]c3c2)ccc1[O-] (3D coordinates assigned)
O=Cc1cc([N-]S(=O)(=O)c2ccc3cc[nH]c3c2)ccc1[O-] (optimized conformer: 71.3336859086028 kcal/mol)

>  <smiles>  (55) 
O=Cc1cc(NS(=O)(=O)c2ccc3cc[nH]c3c2)ccc1O

>  <score_type>  (55) 
oracle

>  <origin>  (55) 
adg

>  <m_score__min__energy>  (55) 
-11.91

>  <m_primary>  (55) 
energy

$$$$
55:0
     RDKit          3D

 41 43  0  0  0  0  0  0  0  0999 V2000
   57.9597   33.4330   42.8681 H   0  0  0  0  0  0  0  0  0  0  0  0
   57.8620   33.0880   43.9080 C   0  0  0  0  0  0  0  0  0  0  0  0
   58.2070   33.9900   45.2870 S   0  0  0  0  0  0  0  0  0  0  0  0
   57.7830   32.7370   46.3330 C   0  0  0  0  0  0  0  0  0  0  0  0
   57.8190   32.7810   47.6300 N   0  0  0  0  0  0  0  0  0  0  0  0
   59.1880   32.3060   48.5830 S   0  0  0  0  0  0  0  0  0  0  0  0
   60.0580   31.3640   47.7980 O   0  0  0  0  0  0  0  0  0  0  0  0
   59.9920   33.5180   48.9670 O   0  0  0  0  0  0  0  0  0  0  0  0
   58.6150   31.4970   50.0370 C   0  0  0  0  0  0  0  0  0  0  0  0
   57.8820   32.2070   50.9980 C   0  0  0  0  0  0  0  0  0  0  0  0
   57.6725   33.2764   50.8483 H   0  0  0  0  0  0  0  0  0  0  0  0
   57.4170   31.5600   52.1450 C   0  0  0  0  0  0  0  0  0  0  0  0
   56.8309   32.1189   52.8894 H   0  0  0  0  0  0  0  0  0  0  0  0
   57.6940   30.2010   52.3520 C   0  0  0  0  0  0  0  0  0  0  0  0
   57.2100   29.5180   53.5130 N   0  0  0  0  0  0  0  0  0  0  0  0
   55.9000   29.6690   54.0770 C   0  0  0  0  0  0  0  0  0  0  0  0
   55.7410   30.4770   55.0280 O   0  0  0  0  0  0  0  0  0  0  0  0
   54.6980   28.9770   53.4890 C   0  0  0  0  0  0  0  0  0  0  0  0
   55.0374   28.2813   52.7075 H   0  0  0  0  0  0  0  0  0  0  0  0
   54.1834   28.4461   54.3034 H   0  0  0  0  0  0  0  0  0  0  0  0
   53.7190   29.9490   52.8810 C   0  0  0  0  0  0  0  0  0  0  0  0
   52.6130   30.4050   53.6200 C   0  0  0  0  0  0  0  0  0  0  0  0
   52.4527   30.0401   54.6453 H   0  0  0  0  0  0  0  0  0  0  0  0
   51.7160   31.3190   53.0600 C   0  0  0  0  0  0  0  0  0  0  0  0
   50.8479   31.6633   53.6412 H   0  0  0  0  0  0  0  0  0  0  0  0
   51.9210   31.7960   51.7620 C   0  0  0  0  0  0  0  0  0  0  0  0
   51.0270   32.7040   51.2060 O   0  0  0  0  0  0  0  0  0  0  0  0
   53.0280   31.3640   51.0260 C   0  0  0  0  0  0  0  0  0  0  0  0
   53.1914   31.7426   50.0062 H   0  0  0  0  0  0  0  0  0  0  0  0
   53.9270   30.4520   51.5840 C   0  0  0  0  0  0  0  0  0  0  0  0
   54.8034   30.1250   51.0052 H   0  0  0  0  0  0  0  0  0  0  0  0
   58.3880   29.4820   51.3720 C   0  0  0  0  0  0  0  0  0  0  0  0
   58.5677   28.4051   51.5062 H   0  0  0  0  0  0  0  0  0  0  0  0
   58.8540   30.1290   50.2220 C   0  0  0  0  0  0  0  0  0  0  0  0
   59.4097   29.5617   49.4609 H   0  0  0  0  0  0  0  0  0  0  0  0
   57.3800   31.6390   45.6620 N   0  0  0  0  0  0  0  0  0  0  0  0
   57.4310   31.8280   44.3160 C   0  0  0  0  0  0  0  0  0  0  0  0
   56.9960   30.7710   43.3550 C   0  0  0  0  0  0  0  0  0  0  0  0
   56.6352   29.8943   43.9128 H   0  0  0  0  0  0  0  0  0  0  0  0
   56.1856   31.1619   42.7221 H   0  0  0  0  0  0  0  0  0  0  0  0
   57.8467   30.4782   42.7221 H   0  0  0  0  0  0  0  0  0  0  0  0
  1  2  1  0
  2  3  1  0
  3  4  1  0
  4  5  2  0
  5  6  1  0
  6  7  2  0
  6  8  2  0
  6  9  1  0
  9 10  2  0
 10 11  1  0
 10 12  1  0
 12 13  1  0
 12 14  2  0
 14 15  1  0
 15 16  1  0
 16 17  2  0
 16 18  1  0
 18 19  1  0
 18 20  1  0
 18 21  1  0
 21 22  2  0
 22 23  1  0
 22 24  1  0
 24 25  1  0
 24 26  2  0
 26 27  1  0
 26 28  1  0
 28 29  1  0
 28 30  2  0
 30 31  1  0
 14 32  1  0
 32 33  1  0
 32 34  2  0
 34 35  1  0
  4 36  1  0
 36 37  1  0
 37 38  1  0
 38 39  1  0
 38 40  1  0
 38 41  1  0
 37  2  2  0
 34  9  1  0
 30 21  1  0
M  CHG  3  15  -1  27  -1  36  -1
M  END
>  <UniqueID>  (56) 
54

>  <SMILES>  (56) 
Cc1cs/c(=N\S(=O)(=O)c2ccc([N-]C(=O)Cc3ccc([O-])cc3)cc2)[n-]1

>  <Energy>  (56) 
80.81479866613854

>  <Genealogy>  (56) 
Cc1csc(=NS(=O)(=O)c2ccc([N-]C(=O)Cc3ccc([O-])cc3)cc2)[n-]1 (protonated)
Cc1cs/c(=N\S(=O)(=O)c2ccc([N-]C(=O)Cc3ccc([O-])cc3)cc2)[n-]1 (cis-trans isomerization)
Cc1cs/c(=N\S(=O)(=O)c2ccc([N-]C(=O)Cc3ccc([O-])cc3)cc2)[n-]1 (3D coordinates assigned)
Cc1cs/c(=N\S(=O)(=O)c2ccc([N-]C(=O)Cc3ccc([O-])cc3)cc2)[n-]1 (optimized conformer: 80.81479866613854 kcal/mol)

>  <smiles>  (56) 
Cc1csc(=NS(=O)(=O)c2ccc(NC(=O)Cc3ccc(O)cc3)cc2)[nH]1

>  <score_type>  (56) 
oracle

>  <origin>  (56) 
adg

>  <m_score__min__energy>  (56) 
-14.23

>  <m_primary>  (56) 
energy

$$$$
56:0
     RDKit          3D

 35 37  0  0  0  0  0  0  0  0999 V2000
   54.7780   26.7140   46.0000 O   0  0  0  0  0  0  0  0  0  0  0  0
   55.2670   25.4730   45.6080 C   0  0  0  0  0  0  0  0  0  0  0  0
   54.3720   24.4080   45.4500 C   0  0  0  0  0  0  0  0  0  0  0  0
   54.8310   23.1600   45.0270 C   0  0  0  0  0  0  0  0  0  0  0  0
   56.1880   22.9680   44.7580 C   0  0  0  0  0  0  0  0  0  0  0  0
   57.0890   24.0240   44.9180 C   0  0  0  0  0  0  0  0  0  0  0  0
   56.6420   25.2860   45.3510 C   0  0  0  0  0  0  0  0  0  0  0  0
   57.6150   26.3910   45.5240 C   0  0  0  0  0  0  0  0  0  0  0  0
   58.6460   26.2830   46.4720 C   0  0  0  0  0  0  0  0  0  0  0  0
   59.5570   27.3320   46.6520 C   0  0  0  0  0  0  0  0  0  0  0  0
   60.5760   27.2330   47.5960 O   0  0  0  0  0  0  0  0  0  0  0  0
   59.4440   28.4930   45.8820 C   0  0  0  0  0  0  0  0  0  0  0  0
   58.4280   28.6110   44.9180 C   0  0  0  0  0  0  0  0  0  0  0  0
   58.2730   29.8110   44.1410 N   0  0  0  0  0  0  0  0  0  0  0  0
   58.2680   31.1400   44.6920 C   0  0  0  0  0  0  0  0  0  0  0  0
   58.3280   31.3120   46.0830 C   0  0  0  0  0  0  0  0  0  0  0  0
   58.2970   32.5940   46.6410 C   0  0  0  0  0  0  0  0  0  0  0  0
   58.1900   33.7150   45.8130 C   0  0  0  0  0  0  0  0  0  0  0  0
   58.1580   34.9570   46.3550 F   0  0  0  0  0  0  0  0  0  0  0  0
   58.1060   33.5540   44.4270 C   0  0  0  0  0  0  0  0  0  0  0  0
   58.1370   32.2730   43.8660 C   0  0  0  0  0  0  0  0  0  0  0  0
   57.5060   27.5660   44.7620 C   0  0  0  0  0  0  0  0  0  0  0  0
   53.3024   24.5557   45.6602 H   0  0  0  0  0  0  0  0  0  0  0  0
   54.1234   22.3266   44.9053 H   0  0  0  0  0  0  0  0  0  0  0  0
   56.5477   21.9849   44.4200 H   0  0  0  0  0  0  0  0  0  0  0  0
   58.1565   23.8674   44.7037 H   0  0  0  0  0  0  0  0  0  0  0  0
   58.7386   25.3689   47.0769 H   0  0  0  0  0  0  0  0  0  0  0  0
   60.5580   27.7710   48.4540 H   0  0  0  0  0  0  0  0  0  0  0  0
   60.1545   29.3194   46.0314 H   0  0  0  0  0  0  0  0  0  0  0  0
   58.1590   29.7130   43.1070 H   0  0  0  0  0  0  0  0  0  0  0  0
   58.3999   30.4323   46.7394 H   0  0  0  0  0  0  0  0  0  0  0  0
   58.3569   32.7202   47.7321 H   0  0  0  0  0  0  0  0  0  0  0  0
   58.0154   34.4363   43.7763 H   0  0  0  0  0  0  0  0  0  0  0  0
   58.0588   32.1502   42.7757 H   0  0  0  0  0  0  0  0  0  0  0  0
   56.6875   27.6676   44.0341 H   0  0  0  0  0  0  0  0  0  0  0  0
  1  2  1  0
  2  3  2  0
  3  4  1  0
  4  5  2  0
  5  6  1  0
  6  7  2  0
  7  8  1  0
  8  9  2  0
  9 10  1  0
 10 11  1  0
 10 12  2  0
 12 13  1  0
 13 14  1  0
 14 15  1  0
 15 16  2  0
 16 17  1  0
 17 18  2  0
 18 19  1  0
 18 20  1  0
 20 21  2  0
 13 22  2  0
  7  2  1  0
 22  8  1  0
 21 15  1  0
  3 23  1  0
  4 24  1  0
  5 25  1  0
  6 26  1  0
  9 27  1  0
 11 28  1  0
 12 29  1  0
 14 30  1  0
 16 31  1  0
 17 32  1  0
 20 33  1  0
 21 34  1  0
 22 35  1  0
M  CHG  1   1  -1
M  END
>  <UniqueID>  (57) 
55

>  <SMILES>  (57) 
[O-]c1ccccc1-c1cc(O)cc(Nc2ccc(F)cc2)c1

>  <Energy>  (57) 
49.63530537244922

>  <Genealogy>  (57) 
[O-]c1ccccc1-c1cc(O)cc(Nc2ccc(F)cc2)c1 (protonated)
[O-]c1ccccc1-c1cc(O)cc(Nc2ccc(F)cc2)c1 (3D coordinates assigned)
[O-]c1ccccc1-c1cc(O)cc(Nc2ccc(F)cc2)c1 (optimized conformer: 49.63530537244922 kcal/mol)

>  <smiles>  (57) 
Oc1cc(Nc2ccc(F)cc2)cc(-c2ccccc2O)c1

>  <score_type>  (57) 
oracle

>  <origin>  (57) 
adg

>  <m_score__min__energy>  (57) 
-10.9

>  <m_primary>  (57) 
energy

$$$$
57:0
     RDKit          3D

 28 29  0  0  0  0  0  0  0  0999 V2000
   58.1927   25.6023   46.6673 H   0  0  0  0  0  0  0  0  0  0  0  0
   57.7200   26.1040   45.8100 C   0  0  0  0  0  0  0  0  0  0  0  0
   57.1400   25.3260   44.8830 C   0  0  0  0  0  0  0  0  0  0  0  0
   57.6596   25.2091   43.9205 H   0  0  0  0  0  0  0  0  0  0  0  0
   55.8540   24.6130   45.0570 C   0  0  0  0  0  0  0  0  0  0  0  0
   54.7270   25.2400   45.6180 C   0  0  0  0  0  0  0  0  0  0  0  0
   54.7830   26.5620   46.0430 O   0  0  0  0  0  0  0  0  0  0  0  0
   53.5700   24.5440   45.7700 N   0  0  0  0  0  0  0  0  0  0  0  0
   53.4830   23.2400   45.4060 C   0  0  0  0  0  0  0  0  0  0  0  0
   52.4000   22.6180   45.5530 O   0  0  0  0  0  0  0  0  0  0  0  0
   54.5650   22.6040   44.8920 N   0  0  0  0  0  0  0  0  0  0  0  0
   55.7450   23.2540   44.7170 C   0  0  0  0  0  0  0  0  0  0  0  0
   56.7290   22.6300   44.2390 O   0  0  0  0  0  0  0  0  0  0  0  0
   57.7750   27.5830   45.7720 C   0  0  0  0  0  0  0  0  0  0  0  0
   58.8440   28.2980   46.3400 C   0  0  0  0  0  0  0  0  0  0  0  0
   59.6745   27.7544   46.8141 H   0  0  0  0  0  0  0  0  0  0  0  0
   58.8580   29.6940   46.3060 C   0  0  0  0  0  0  0  0  0  0  0  0
   59.7084   30.2432   46.7364 H   0  0  0  0  0  0  0  0  0  0  0  0
   57.7900   30.4020   45.7240 C   0  0  0  0  0  0  0  0  0  0  0  0
   57.7640   31.8060   45.6660 O   0  0  0  0  0  0  0  0  0  0  0  0
   57.7430   32.5600   44.4580 C   0  0  0  0  0  0  0  0  0  0  0  0
   57.7131   33.6335   44.6963 H   0  0  0  0  0  0  0  0  0  0  0  0
   58.6476   32.3395   43.8723 H   0  0  0  0  0  0  0  0  0  0  0  0
   56.8520   32.2895   43.8723 H   0  0  0  0  0  0  0  0  0  0  0  0
   56.7100   29.6890   45.1860 C   0  0  0  0  0  0  0  0  0  0  0  0
   55.6410   30.3710   44.6160 O   0  0  0  0  0  0  0  0  0  0  0  0
   56.6990   28.2910   45.2200 C   0  0  0  0  0  0  0  0  0  0  0  0
   55.8383   27.7424   44.8099 H   0  0  0  0  0  0  0  0  0  0  0  0
  1  2  1  0
  2  3  2  0
  3  4  1  0
  3  5  1  0
  5  6  2  0
  6  7  1  0
  6  8  1  0
  8  9  1  0
  9 10  2  0
  9 11  1  0
 11 12  1  0
 12 13  2  0
  2 14  1  0
 14 15  2  0
 15 16  1  0
 15 17  1  0
 17 18  1  0
 17 19  2  0
 19 20  1  0
 20 21  1  0
 21 22  1  0
 21 23  1  0
 21 24  1  0
 19 25  1  0
 25 26  1  0
 25 27  2  0
 27 28  1  0
 12  5  1  0
 27 14  1  0
M  CHG  4   7  -1   8  -1  11  -1  26  -1
M  END
>  <UniqueID>  (58) 
56

>  <SMILES>  (58) 
COc1ccc(/C=C\c2c([O-])[n-]c(=O)[n-]c2=O)cc1[O-]

>  <Energy>  (58) 
41.53480608924202

>  <Genealogy>  (58) 
COc1ccc(C=Cc2c([O-])[n-]c(=O)[n-]c2=O)cc1[O-] (protonated)
COc1ccc(/C=C\c2c([O-])[n-]c(=O)[n-]c2=O)cc1[O-] (cis-trans isomerization)
COc1ccc(/C=C\c2c([O-])[n-]c(=O)[n-]c2=O)cc1[O-] (3D coordinates assigned)
COc1ccc(/C=C\c2c([O-])[n-]c(=O)[n-]c2=O)cc1[O-] (optimized conformer: 41.53480608924202 kcal/mol)

>  <smiles>  (58) 
COc1ccc(C=Cc2c(O)[nH]c(=O)[nH]c2=O)cc1O

>  <score_type>  (58) 
oracle

>  <origin>  (58) 
adg

>  <m_score__min__energy>  (58) 
-15.9

>  <m_primary>  (58) 
energy

$$$$
58:0
     RDKit          3D

 36 37  0  0  0  0  0  0  0  0999 V2000
   56.1870   27.1980   45.7780 O   0  0  0  0  0  0  0  0  0  0  0  0
   57.3690   27.4940   46.0950 C   0  0  0  0  0  0  0  0  0  0  0  0
   58.2050   28.2710   45.1160 C   0  0  0  0  0  0  0  0  0  0  0  0
   57.4830   28.4520   43.8530 N   0  0  0  0  0  0  0  0  0  0  0  0
   56.5000   29.8910   43.8870 S   0  0  0  0  0  0  0  0  0  0  0  0
   55.3550   29.6750   44.8360 O   0  0  0  0  0  0  0  0  0  0  0  0
   55.9470   30.1250   42.5090 O   0  0  0  0  0  0  0  0  0  0  0  0
   57.4190   31.3040   44.4290 C   0  0  0  0  0  0  0  0  0  0  0  0
   57.7770   31.4270   45.7810 C   0  0  0  0  0  0  0  0  0  0  0  0
   58.5150   32.5300   46.2200 C   0  0  0  0  0  0  0  0  0  0  0  0
   58.8890   33.5270   45.3150 C   0  0  0  0  0  0  0  0  0  0  0  0
   58.5180   33.4250   43.9730 C   0  0  0  0  0  0  0  0  0  0  0  0
   57.7820   32.3220   43.5270 C   0  0  0  0  0  0  0  0  0  0  0  0
   57.4240   32.2580   42.2200 F   0  0  0  0  0  0  0  0  0  0  0  0
   57.8590   27.0820   47.3800 N   0  0  0  0  0  0  0  0  0  0  0  0
   59.2330   27.2000   47.8620 C   0  0  0  0  0  0  0  0  0  0  0  0
   59.6020   28.6380   48.1150 C   0  0  0  0  0  0  0  0  0  0  0  0
   60.6020   29.2600   47.3460 C   0  0  0  0  0  0  0  0  0  0  0  0
   60.9550   30.5890   47.5910 C   0  0  0  0  0  0  0  0  0  0  0  0
   60.3260   31.3040   48.6130 C   0  0  0  0  0  0  0  0  0  0  0  0
   59.3450   30.6890   49.3950 C   0  0  0  0  0  0  0  0  0  0  0  0
   58.9880   29.3590   49.1530 C   0  0  0  0  0  0  0  0  0  0  0  0
   58.4395   29.2571   45.5432 H   0  0  0  0  0  0  0  0  0  0  0  0
   59.1319   27.7126   44.9185 H   0  0  0  0  0  0  0  0  0  0  0  0
   56.8380   27.6380   43.7240 H   0  0  0  0  0  0  0  0  0  0  0  0
   57.4749   30.6506   46.4992 H   0  0  0  0  0  0  0  0  0  0  0  0
   58.8016   32.6133   47.2787 H   0  0  0  0  0  0  0  0  0  0  0  0
   59.4753   34.3915   45.6598 H   0  0  0  0  0  0  0  0  0  0  0  0
   58.8055   34.2149   43.2635 H   0  0  0  0  0  0  0  0  0  0  0  0
   59.3338   26.6338   48.7997 H   0  0  0  0  0  0  0  0  0  0  0  0
   59.9073   26.7988   47.0910 H   0  0  0  0  0  0  0  0  0  0  0  0
   61.1084   28.6972   46.5480 H   0  0  0  0  0  0  0  0  0  0  0  0
   61.7295   31.0734   46.9782 H   0  0  0  0  0  0  0  0  0  0  0  0
   60.6031   32.3516   48.8022 H   0  0  0  0  0  0  0  0  0  0  0  0
   58.8530   31.2518   50.2020 H   0  0  0  0  0  0  0  0  0  0  0  0
   58.2231   28.8750   49.7780 H   0  0  0  0  0  0  0  0  0  0  0  0
  1  2  2  0
  2  3  1  0
  3  4  1  0
  4  5  1  0
  5  6  2  0
  5  7  2  0
  5  8  1  0
  8  9  2  0
  9 10  1  0
 10 11  2  0
 11 12  1  0
 12 13  2  0
 13 14  1  0
  2 15  1  0
 15 16  1  0
 16 17  1  0
 17 18  2  0
 18 19  1  0
 19 20  2  0
 20 21  1  0
 21 22  2  0
 13  8  1  0
 22 17  1  0
  3 23  1  0
  3 24  1  0
  4 25  1  0
  9 26  1  0
 10 27  1  0
 11 28  1  0
 12 29  1  0
 16 30  1  0
 16 31  1  0
 18 32  1  0
 19 33  1  0
 20 34  1  0
 21 35  1  0
 22 36  1  0
M  CHG  1  15  -1
M  END
>  <UniqueID>  (59) 
57

>  <SMILES>  (59) 
O=C(CNS(=O)(=O)c1ccccc1F)[N-]Cc1ccccc1

>  <Energy>  (59) 
31.828922408863118

>  <Genealogy>  (59) 
O=C(CNS(=O)(=O)c1ccccc1F)[N-]Cc1ccccc1 (protonated)
O=C(CNS(=O)(=O)c1ccccc1F)[N-]Cc1ccccc1 (3D coordinates assigned)
O=C(CNS(=O)(=O)c1ccccc1F)[N-]Cc1ccccc1 (optimized conformer: 31.828922408863118 kcal/mol)

>  <smiles>  (59) 
O=C(CNS(=O)(=O)c1ccccc1F)NCc1ccccc1

>  <score_type>  (59) 
oracle

>  <origin>  (59) 
adg

>  <m_score__min__energy>  (59) 
-9.8399999999999999

>  <m_primary>  (59) 
energy

$$$$
59:0
     RDKit          3D

 18 19  0  0  0  0  0  0  0  0999 V2000
   50.6470   30.4240   47.8620 O   0  0  0  0  0  0  0  0  0  0  0  0
   51.0140   30.8350   48.9940 C   0  0  0  0  0  0  0  0  0  0  0  0
   50.5350   31.9690   49.5450 N   0  0  0  0  0  0  0  0  0  0  0  0
   51.1820   32.0250   50.7210 C   0  0  0  0  0  0  0  0  0  0  0  0
   51.0280   33.0670   51.6250 O   0  0  0  0  0  0  0  0  0  0  0  0
   52.0230   30.9360   50.8580 C   0  0  0  0  0  0  0  0  0  0  0  0
   52.9260   30.6110   51.9870 C   0  0  0  0  0  0  0  0  0  0  0  0
   54.2990   30.4220   51.7450 C   0  0  0  0  0  0  0  0  0  0  0  0
   55.1700   30.1110   52.7940 C   0  0  0  0  0  0  0  0  0  0  0  0
   54.6780   29.9750   54.0950 C   0  0  0  0  0  0  0  0  0  0  0  0
   55.5450   29.6640   55.1370 O   0  0  0  0  0  0  0  0  0  0  0  0
   53.3150   30.1460   54.3460 C   0  0  0  0  0  0  0  0  0  0  0  0
   52.4410   30.4590   53.3000 C   0  0  0  0  0  0  0  0  0  0  0  0
   51.9200   30.1790   49.7470 N   0  0  0  0  0  0  0  0  0  0  0  0
   54.6908   30.5197   50.7218 H   0  0  0  0  0  0  0  0  0  0  0  0
   56.2430   29.9733   52.5950 H   0  0  0  0  0  0  0  0  0  0  0  0
   52.9276   30.0342   55.3694 H   0  0  0  0  0  0  0  0  0  0  0  0
   51.3678   30.5872   53.5044 H   0  0  0  0  0  0  0  0  0  0  0  0
  1  2  2  0
  2  3  1  0
  3  4  1  0
  4  5  1  0
  4  6  2  0
  6  7  1  0
  7  8  2  0
  8  9  1  0
  9 10  2  0
 10 11  1  0
 10 12  1  0
 12 13  2  0
  6 14  1  0
 14  2  1  0
 13  7  1  0
  8 15  1  0
  9 16  1  0
 12 17  1  0
 13 18  1  0
M  CHG  4   3  -1   5  -1  11  -1  14  -1
M  END
>  <UniqueID>  (60) 
58

>  <SMILES>  (60) 
O=c1[n-]c([O-])c(-c2ccc([O-])cc2)[n-]1

>  <Energy>  (60) 
51.619137773935364

>  <Genealogy>  (60) 
O=c1[n-]c([O-])c(-c2ccc([O-])cc2)[n-]1 (protonated)
O=c1[n-]c([O-])c(-c2ccc([O-])cc2)[n-]1 (3D coordinates assigned)
O=c1[n-]c([O-])c(-c2ccc([O-])cc2)[n-]1 (optimized conformer: 51.619137773935364 kcal/mol)

>  <smiles>  (60) 
O=c1[nH]c(O)c(-c2ccc(O)cc2)[nH]1

>  <score_type>  (60) 
oracle

>  <origin>  (60) 
adg

>  <m_score__min__energy>  (60) 
-15.220000000000001

>  <m_primary>  (60) 
energy

$$$$
60:0
     RDKit          3D

 65 69  0  0  0  0  0  0  0  0999 V2000
   55.3020   23.3430   42.6920 C   0  0  0  0  0  0  0  0  0  0  0  0
   56.1360   23.0320   43.9000 C   0  0  0  0  0  0  0  0  0  0  0  0
   55.8540   21.8950   44.6720 C   0  0  0  0  0  0  0  0  0  0  0  0
   56.6260   21.5960   45.8070 C   0  0  0  0  0  0  0  0  0  0  0  0
   56.3040   20.3880   46.6380 C   0  0  0  0  0  0  0  0  0  0  0  0
   57.6560   22.4700   46.1940 C   0  0  0  0  0  0  0  0  0  0  0  0
   57.9320   23.6150   45.4370 C   0  0  0  0  0  0  0  0  0  0  0  0
   59.0250   24.5240   45.8180 C   0  0  0  0  0  0  0  0  0  0  0  0
   60.1950   24.0600   45.9200 O   0  0  0  0  0  0  0  0  0  0  0  0
   58.7610   25.8980   46.1640 N   0  0  0  0  0  0  0  0  0  0  0  0
   59.4910   27.0250   45.6020 C   0  0  0  0  0  0  0  0  0  0  0  0
   58.9940   28.2580   46.3710 C   0  0  1  0  0  0  0  0  0  0  0  0
   60.0000   28.7820   47.4350 C   0  0  0  0  0  0  0  0  0  0  0  0
   60.2730   30.1670   46.9320 C   0  0  0  0  0  0  0  0  0  0  0  0
   61.1730   31.1500   47.5750 C   0  0  0  0  0  0  0  0  0  0  0  0
   62.4930   31.3040   47.1140 C   0  0  0  0  0  0  0  0  0  0  0  0
   63.3350   32.2560   47.6950 C   0  0  0  0  0  0  0  0  0  0  0  0
   62.8640   33.0750   48.7220 C   0  0  0  0  0  0  0  0  0  0  0  0
   61.5570   32.9280   49.2070 C   0  0  0  0  0  0  0  0  0  0  0  0
   61.1080   33.8190   50.2410 N   0  0  0  0  0  0  0  0  0  0  0  0
   60.6450   33.4760   51.5550 C   0  0  0  0  0  0  0  0  0  0  0  0
   61.2980   33.8350   52.5720 O   0  0  0  0  0  0  0  0  0  0  0  0
   59.3680   32.7420   51.7190 C   0  0  0  0  0  0  0  0  0  0  0  0
   59.2620   31.3970   51.3270 C   0  0  0  0  0  0  0  0  0  0  0  0
   58.0520   30.7120   51.4640 C   0  0  0  0  0  0  0  0  0  0  0  0
   56.9170   31.3580   51.9860 C   0  0  0  0  0  0  0  0  0  0  0  0
   55.6620   30.6620   52.1050 N   0  0  0  0  0  0  0  0  0  0  0  0
   54.5820   31.2710   51.9630 O   0  0  0  0  0  0  0  0  0  0  0  0
   55.6340   29.3100   52.3660 O   0  0  0  0  0  0  0  0  0  0  0  0
   57.0250   32.7020   52.3830 C   0  0  0  0  0  0  0  0  0  0  0  0
   58.2380   33.3830   52.2580 C   0  0  0  0  0  0  0  0  0  0  0  0
   60.7110   31.9640   48.6270 C   0  0  0  0  0  0  0  0  0  0  0  0
   59.6140   30.4370   45.8580 N   0  0  0  0  0  0  0  0  0  0  0  0
   58.8440   29.3660   45.4950 O   0  0  0  0  0  0  0  0  0  0  0  0
   57.6450   27.8400   46.9770 C   0  0  0  0  0  0  0  0  0  0  0  0
   57.7200   26.3150   47.1000 C   0  0  1  0  0  0  0  0  0  0  0  0
   56.3960   25.6780   46.7770 C   0  0  0  0  0  0  0  0  0  0  0  0
   55.4540   26.3780   45.9640 N   0  0  0  0  0  0  0  0  0  0  0  0
   56.1210   24.5200   47.2060 O   0  0  0  0  0  0  0  0  0  0  0  0
   57.1640   23.9000   44.2990 C   0  0  0  0  0  0  0  0  0  0  0  0
   54.3159   23.7107   43.0120 H   0  0  0  0  0  0  0  0  0  0  0  0
   55.8032   24.1147   42.0892 H   0  0  0  0  0  0  0  0  0  0  0  0
   55.1755   22.4316   42.0892 H   0  0  0  0  0  0  0  0  0  0  0  0
   55.0229   21.2333   44.3867 H   0  0  0  0  0  0  0  0  0  0  0  0
   56.3732   20.6477   47.7047 H   0  0  0  0  0  0  0  0  0  0  0  0
   55.2836   20.0469   46.4091 H   0  0  0  0  0  0  0  0  0  0  0  0
   57.0193   19.5842   46.4091 H   0  0  0  0  0  0  0  0  0  0  0  0
   58.2480   22.2537   47.0955 H   0  0  0  0  0  0  0  0  0  0  0  0
   60.5735   26.8925   45.7457 H   0  0  0  0  0  0  0  0  0  0  0  0
   59.3219   27.1228   44.5195 H   0  0  0  0  0  0  0  0  0  0  0  0
   59.5500   28.8005   48.4386 H   0  0  0  0  0  0  0  0  0  0  0  0
   60.9002   28.1596   47.5457 H   0  0  0  0  0  0  0  0  0  0  0  0
   62.8639   30.6727   46.2931 H   0  0  0  0  0  0  0  0  0  0  0  0
   64.3716   32.3600   47.3419 H   0  0  0  0  0  0  0  0  0  0  0  0
   63.5235   33.8419   49.1543 H   0  0  0  0  0  0  0  0  0  0  0  0
   60.1381   30.8794   50.9092 H   0  0  0  0  0  0  0  0  0  0  0  0
   57.9864   29.6567   51.1605 H   0  0  0  0  0  0  0  0  0  0  0  0
   56.1474   33.2215   52.7953 H   0  0  0  0  0  0  0  0  0  0  0  0
   58.3103   34.4310   52.5843 H   0  0  0  0  0  0  0  0  0  0  0  0
   59.6822   31.8458   48.9980 H   0  0  0  0  0  0  0  0  0  0  0  0
   57.5062   28.3011   47.9660 H   0  0  0  0  0  0  0  0  0  0  0  0
   56.7960   28.1628   46.3565 H   0  0  0  0  0  0  0  0  0  0  0  0
   57.9575   26.0004   48.1270 H   0  0  0  0  0  0  0  0  0  0  0  0
   54.7920   27.0580   46.3940 H   0  0  0  0  0  0  0  0  0  0  0  0
   57.3686   24.8097   43.7153 H   0  0  0  0  0  0  0  0  0  0  0  0
  1  2  1  0
  2  3  2  0
  3  4  1  0
  4  5  1  0
  4  6  2  0
  6  7  1  0
  7  8  1  0
  8  9  2  0
  8 10  1  0
 10 11  1  0
 11 12  1  0
 12 13  1  0
 13 14  1  0
 14 15  1  0
 15 16  2  0
 16 17  1  0
 17 18  2  0
 18 19  1  0
 19 20  1  0
 20 21  1  0
 21 22  2  0
 21 23  1  0
 23 24  2  0
 24 25  1  0
 25 26  2  0
 26 27  1  0
 27 28  2  0
 27 29  1  0
 26 30  1  0
 30 31  2  0
 19 32  2  0
 14 33  2  0
 33 34  1  0
 12 35  1  0
 35 36  1  0
 36 37  1  0
 37 38  1  0
 37 39  2  0
  7 40  2  0
 40  2  1  0
 36 10  1  0
 12 34  1  6
 32 15  1  0
 31 23  1  0
  1 41  1  0
  1 42  1  0
  1 43  1  0
  3 44  1  0
  5 45  1  0
  5 46  1  0
  5 47  1  0
  6 48  1  0
 11 49  1  0
 11 50  1  0
 13 51  1  0
 13 52  1  0
 16 53  1  0
 17 54  1  0
 18 55  1  0
 24 56  1  0
 25 57  1  0
 30 58  1  0
 31 59  1  0
 32 60  1  0
 35 61  1  0
 35 62  1  0
 36 63  1  1
 38 64  1  0
 40 65  1  0
M  CHG  4  20  -1  27   1  29  -1  38  -1
M  END
>  <UniqueID>  (61) 
59

>  <SMILES>  (61) 
Cc1cc(C)cc(C(=O)N2C[C@]3(CC(c4cccc([N-]C(=O)c5ccc([N+](=O)[O-])cc5)c4)=NO3)C[C@H]2C([NH-])=O)c1

>  <Energy>  (61) 
100.16258011646877

>  <Genealogy>  (61) 
Cc1cc(C)cc(C(=O)N2CC3(CC(c4cccc([N-]C(=O)c5ccc([N+](=O)[O-])cc5)c4)=NO3)CC2C([NH-])=O)c1 (protonated)
Cc1cc(C)cc(C(=O)N2C[C@]3(CC(c4cccc([N-]C(=O)c5ccc([N+](=O)[O-])cc5)c4)=NO3)C[C@H]2C([NH-])=O)c1 (chirality)
Cc1cc(C)cc(C(=O)N2C[C@]3(CC(c4cccc([N-]C(=O)c5ccc([N+](=O)[O-])cc5)c4)=NO3)C[C@H]2C([NH-])=O)c1 (3D coordinates assigned)
Cc1cc(C)cc(C(=O)N2C[C@]3(CC(c4cccc([N-]C(=O)c5ccc([N+](=O)[O-])cc5)c4)=NO3)C[C@H]2C([NH-])=O)c1 (nonaromatic ring conformer: 100.16258011646877 kcal/mol)

>  <smiles>  (61) 
Cc1cc(C)cc(C(=O)N2CC3(CC(c4cccc(NC(=O)c5ccc([N+](=O)[O-])cc5)c4)=NO3)CC2C(N)=O)c1

>  <score_type>  (61) 
oracle

>  <origin>  (61) 
adg

>  <m_score__min__energy>  (61) 
-13.800000000000001

>  <m_primary>  (61) 
energy

$$$$
61:0
     RDKit          3D

 44 46  0  0  0  0  0  0  0  0999 V2000
   60.2522   28.4039   46.0258 H   0  0  0  0  0  0  0  0  0  0  0  0
   59.1840   28.5150   45.7880 C   0  0  0  0  0  0  0  0  0  0  0  0
   58.6760   29.7430   45.5000 N   0  0  0  0  0  0  0  0  0  0  0  0
   57.3560   29.9300   45.2080 C   0  0  0  0  0  0  0  0  0  0  0  0
   56.8920   31.1140   44.9260 N   0  0  0  0  0  0  0  0  0  0  0  0
   57.6570   32.2300   44.4430 C   0  0  0  0  0  0  0  0  0  0  0  0
   57.6350   32.4850   43.2100 O   0  0  0  0  0  0  0  0  0  0  0  0
   58.4130   33.1250   45.3540 C   0  0  0  0  0  0  0  0  0  0  0  0
   58.8490   34.3830   44.9060 C   0  0  0  0  0  0  0  0  0  0  0  0
   58.6393   34.6986   43.8733 H   0  0  0  0  0  0  0  0  0  0  0  0
   59.5470   35.2350   45.7640 C   0  0  0  0  0  0  0  0  0  0  0  0
   59.8947   36.2137   45.4018 H   0  0  0  0  0  0  0  0  0  0  0  0
   59.8050   34.8480   47.0810 C   0  0  0  0  0  0  0  0  0  0  0  0
   60.3638   35.5187   47.7503 H   0  0  0  0  0  0  0  0  0  0  0  0
   59.3540   33.6080   47.5520 C   0  0  0  0  0  0  0  0  0  0  0  0
   59.6250   33.1440   49.2330 S   0  0  0  0  0  0  0  0  0  0  0  0
   59.7310   34.3860   50.0750 O   0  0  0  0  0  0  0  0  0  0  0  0
   58.4300   32.3670   49.7130 O   0  0  0  0  0  0  0  0  0  0  0  0
   61.0640   32.1670   49.4460 N   0  0  0  0  0  0  0  0  0  0  0  0
   62.2350   32.9470   49.8880 C   0  0  0  0  0  0  0  0  0  0  0  0
   62.9608   32.2570   50.3431 H   0  0  0  0  0  0  0  0  0  0  0  0
   61.8700   33.7006   50.6014 H   0  0  0  0  0  0  0  0  0  0  0  0
   62.9380   33.7100   48.7430 C   0  0  0  0  0  0  0  0  0  0  0  0
   64.0219   33.5366   48.8149 H   0  0  0  0  0  0  0  0  0  0  0  0
   62.6954   34.7776   48.8497 H   0  0  0  0  0  0  0  0  0  0  0  0
   62.4740   33.2710   47.4140 N   0  0  0  0  0  0  0  0  0  0  0  0
   63.3420   33.8120   46.3600 C   0  0  0  0  0  0  0  0  0  0  0  0
   64.1903   34.3407   46.8191 H   0  0  0  0  0  0  0  0  0  0  0  0
   63.7180   32.9880   45.7357 H   0  0  0  0  0  0  0  0  0  0  0  0
   62.7678   34.5124   45.7357 H   0  0  0  0  0  0  0  0  0  0  0  0
   62.4250   31.8050   47.3500 C   0  0  0  0  0  0  0  0  0  0  0  0
   63.4003   31.3942   47.6502 H   0  0  0  0  0  0  0  0  0  0  0  0
   62.1915   31.4956   46.3206 H   0  0  0  0  0  0  0  0  0  0  0  0
   61.3340   31.2740   48.2980 C   0  0  0  0  0  0  0  0  0  0  0  0
   61.6555   30.2961   48.6857 H   0  0  0  0  0  0  0  0  0  0  0  0
   60.4037   31.2064   47.7149 H   0  0  0  0  0  0  0  0  0  0  0  0
   58.6630   32.7480   46.6850 C   0  0  0  0  0  0  0  0  0  0  0  0
   58.3140   31.7707   47.0498 H   0  0  0  0  0  0  0  0  0  0  0  0
   56.4940   28.8240   45.1830 C   0  0  0  0  0  0  0  0  0  0  0  0
   55.1460   28.9780   44.8740 O   0  0  0  0  0  0  0  0  0  0  0  0
   56.9990   27.5540   45.4750 C   0  0  0  0  0  0  0  0  0  0  0  0
   56.3314   26.6799   45.4628 H   0  0  0  0  0  0  0  0  0  0  0  0
   58.3510   27.3960   45.7820 C   0  0  0  0  0  0  0  0  0  0  0  0
   58.7554   26.4003   46.0166 H   0  0  0  0  0  0  0  0  0  0  0  0
  1  2  1  0
  2  3  1  0
  3  4  1  0
  4  5  2  0
  5  6  1  0
  6  7  2  0
  6  8  1  0
  8  9  2  0
  9 10  1  0
  9 11  1  0
 11 12  1  0
 11 13  2  0
 13 14  1  0
 13 15  1  0
 15 16  1  0
 16 17  2  0
 16 18  2  0
 16 19  1  0
 19 20  1  0
 20 21  1  0
 20 22  1  0
 20 23  1  0
 23 24  1  0
 23 25  1  0
 23 26  1  0
 26 27  1  0
 27 28  1  0
 27 29  1  0
 27 30  1  0
 26 31  1  0
 31 32  1  0
 31 33  1  0
 31 34  1  0
 34 35  1  0
 34 36  1  0
 15 37  2  0
 37 38  1  0
  4 39  1  0
 39 40  1  0
 39 41  2  0
 41 42  1  0
 41 43  1  0
 43 44  1  0
 43  2  2  0
 37  8  1  0
 34 19  1  0
M  CHG  2   3  -1  40  -1
M  END
>  <UniqueID>  (62) 
60

>  <SMILES>  (62) 
CN1CCN(S(=O)(=O)c2cccc(C(=O)/N=c3\[n-]cccc3[O-])c2)CC1

>  <Energy>  (62) 
62.24322655538311

>  <Genealogy>  (62) 
CN1CCN(S(=O)(=O)c2cccc(C(=O)N=c3[n-]cccc3[O-])c2)CC1 (protonated)
CN1CCN(S(=O)(=O)c2cccc(C(=O)/N=c3\[n-]cccc3[O-])c2)CC1 (cis-trans isomerization)
CN1CCN(S(=O)(=O)c2cccc(C(=O)/N=c3\[n-]cccc3[O-])c2)CC1 (3D coordinates assigned)
CN1CCN(S(=O)(=O)c2cccc(C(=O)/N=c3\[n-]cccc3[O-])c2)CC1 (nonaromatic ring conformer: 62.24322655538311 kcal/mol)

>  <smiles>  (62) 
CN1CCN(S(=O)(=O)c2cccc(C(=O)N=c3[nH]cccc3O)c2)CC1

>  <score_type>  (62) 
oracle

>  <origin>  (62) 
adg

>  <m_score__min__energy>  (62) 
-14.57

>  <m_primary>  (62) 
energy

$$$$
62:0
     RDKit          3D

 48 50  0  0  0  0  0  0  0  0999 V2000
   61.3190   32.4370   50.0540 C   0  0  0  0  0  0  0  0  0  0  0  0
   61.3580   33.8130   49.5270 N   0  0  0  0  0  0  0  0  0  0  0  0
   62.1950   33.9120   48.3100 C   0  0  0  0  0  0  0  0  0  0  0  0
   61.5680   33.1630   47.1220 C   0  0  0  0  0  0  0  0  0  0  0  0
   60.1080   33.3140   47.1240 N   0  0  0  0  0  0  0  0  0  0  0  0
   59.2800   32.3780   46.4050 C   0  0  0  0  0  0  0  0  0  0  0  0
   58.8440   32.6670   45.1000 C   0  0  0  0  0  0  0  0  0  0  0  0
   58.0230   31.7690   44.4130 C   0  0  0  0  0  0  0  0  0  0  0  0
   57.6200   30.5740   45.0230 C   0  0  0  0  0  0  0  0  0  0  0  0
   56.5430   29.4540   44.1930 S   0  0  0  0  0  0  0  0  0  0  0  0
   55.2300   29.3360   44.9170 O   0  0  0  0  0  0  0  0  0  0  0  0
   56.2910   29.9690   42.8050 O   0  0  0  0  0  0  0  0  0  0  0  0
   57.2930   27.8920   44.1040 N   0  0  0  0  0  0  0  0  0  0  0  0
   58.2890   27.4660   45.0490 C   0  0  0  0  0  0  0  0  0  0  0  0
   59.5530   28.0840   45.0600 C   0  0  0  0  0  0  0  0  0  0  0  0
   60.5270   27.6940   45.9800 C   0  0  0  0  0  0  0  0  0  0  0  0
   60.2490   26.6900   46.9080 C   0  0  0  0  0  0  0  0  0  0  0  0
   58.9990   26.0690   46.9130 C   0  0  0  0  0  0  0  0  0  0  0  0
   58.0130   26.4400   45.9850 C   0  0  0  0  0  0  0  0  0  0  0  0
   56.4620   25.5860   45.9890 S   0  0  0  0  0  0  0  0  0  0  0  0
   55.1460   26.7060   45.9960 N   0  0  0  0  0  0  0  0  0  0  0  0
   56.3640   24.7250   44.7610 O   0  0  0  0  0  0  0  0  0  0  0  0
   56.3600   24.7260   47.2170 O   0  0  0  0  0  0  0  0  0  0  0  0
   58.0420   30.2860   46.3260 C   0  0  0  0  0  0  0  0  0  0  0  0
   58.8640   31.1820   47.0140 C   0  0  0  0  0  0  0  0  0  0  0  0
   59.5240   34.4260   47.8820 C   0  0  0  0  0  0  0  0  0  0  0  0
   59.9940   34.3750   49.3490 C   0  0  0  0  0  0  0  0  0  0  0  0
   61.3198   32.4654   51.1536 H   0  0  0  0  0  0  0  0  0  0  0  0
   60.4063   31.9348   49.7008 H   0  0  0  0  0  0  0  0  0  0  0  0
   62.2018   31.8839   49.7008 H   0  0  0  0  0  0  0  0  0  0  0  0
   62.3090   34.9727   48.0418 H   0  0  0  0  0  0  0  0  0  0  0  0
   63.1701   33.4517   48.5277 H   0  0  0  0  0  0  0  0  0  0  0  0
   61.9718   33.5718   46.1840 H   0  0  0  0  0  0  0  0  0  0  0  0
   61.8125   32.0941   47.2098 H   0  0  0  0  0  0  0  0  0  0  0  0
   59.1512   33.6062   44.6167 H   0  0  0  0  0  0  0  0  0  0  0  0
   57.6921   32.0011   43.3900 H   0  0  0  0  0  0  0  0  0  0  0  0
   57.0860   27.3130   43.2610 H   0  0  0  0  0  0  0  0  0  0  0  0
   59.7755   28.8822   44.3365 H   0  0  0  0  0  0  0  0  0  0  0  0
   61.5146   28.1784   45.9736 H   0  0  0  0  0  0  0  0  0  0  0  0
   61.0157   26.3875   47.6365 H   0  0  0  0  0  0  0  0  0  0  0  0
   58.7845   25.2818   47.6507 H   0  0  0  0  0  0  0  0  0  0  0  0
   55.1420   27.1820   45.0650 H   0  0  0  0  0  0  0  0  0  0  0  0
   57.7252   29.3505   46.8103 H   0  0  0  0  0  0  0  0  0  0  0  0
   59.1877   30.9496   48.0393 H   0  0  0  0  0  0  0  0  0  0  0  0
   59.8406   35.3785   47.4319 H   0  0  0  0  0  0  0  0  0  0  0  0
   58.4275   34.3432   47.8533 H   0  0  0  0  0  0  0  0  0  0  0  0
   59.9867   35.3991   49.7505 H   0  0  0  0  0  0  0  0  0  0  0  0
   59.3020   33.7064   49.8820 H   0  0  0  0  0  0  0  0  0  0  0  0
  1  2  1  0
  2  3  1  0
  3  4  1  0
  4  5  1  0
  5  6  1  0
  6  7  2  0
  7  8  1  0
  8  9  2  0
  9 10  1  0
 10 11  2  0
 10 12  2  0
 10 13  1  0
 13 14  1  0
 14 15  2  0
 15 16  1  0
 16 17  2  0
 17 18  1  0
 18 19  2  0
 19 20  1  0
 20 21  1  0
 20 22  2  0
 20 23  2  0
  9 24  1  0
 24 25  2  0
  5 26  1  0
 26 27  1  0
 27  2  1  0
 25  6  1  0
 19 14  1  0
  1 28  1  0
  1 29  1  0
  1 30  1  0
  3 31  1  0
  3 32  1  0
  4 33  1  0
  4 34  1  0
  7 35  1  0
  8 36  1  0
 13 37  1  0
 15 38  1  0
 16 39  1  0
 17 40  1  0
 18 41  1  0
 21 42  1  0
 24 43  1  0
 25 44  1  0
 26 45  1  0
 26 46  1  0
 27 47  1  0
 27 48  1  0
M  CHG  1  21  -1
M  END
>  <UniqueID>  (63) 
61

>  <SMILES>  (63) 
CN1CCN(c2ccc(S(=O)(=O)Nc3ccccc3S([NH-])(=O)=O)cc2)CC1

>  <Energy>  (63) 
64.98743743242564

>  <Genealogy>  (63) 
CN1CCN(c2ccc(S(=O)(=O)Nc3ccccc3S([NH-])(=O)=O)cc2)CC1 (protonated)
CN1CCN(c2ccc(S(=O)(=O)Nc3ccccc3S([NH-])(=O)=O)cc2)CC1 (3D coordinates assigned)
CN1CCN(c2ccc(S(=O)(=O)Nc3ccccc3S([NH-])(=O)=O)cc2)CC1 (nonaromatic ring conformer: 64.98743743242564 kcal/mol)

>  <smiles>  (63) 
CN1CCN(c2ccc(S(=O)(=O)Nc3ccccc3S(N)(=O)=O)cc2)CC1

>  <score_type>  (63) 
oracle

>  <origin>  (63) 
adg

>  <m_score__min__energy>  (63) 
-12.73

>  <m_primary>  (63) 
energy

$$$$
63:0
     RDKit          3D

 62 65  0  0  0  0  0  0  0  0999 V2000
   58.0340   32.4690   43.3890 C   0  0  0  0  0  0  0  0  0  0  0  0
   57.9410   31.3540   44.4570 C   0  0  2  0  0  0  0  0  0  0  0  0
   56.8530   31.6280   45.3070 O   0  0  0  0  0  0  0  0  0  0  0  0
   59.2710   31.3530   45.2760 C   0  0  0  0  0  0  0  0  0  0  0  0
   59.1210   31.8250   46.6640 N   0  0  0  0  0  0  0  0  0  0  0  0
   59.2960   33.1470   46.9690 C   0  0  0  0  0  0  0  0  0  0  0  0
   59.1450   33.6080   48.2760 C   0  0  0  0  0  0  0  0  0  0  0  0
   59.2810   34.9740   48.5330 O   0  0  0  0  0  0  0  0  0  0  0  0
   58.8580   32.6950   49.2990 C   0  0  0  0  0  0  0  0  0  0  0  0
   58.7030   33.1140   50.4790 O   0  0  0  0  0  0  0  0  0  0  0  0
   58.7500   31.3210   49.0010 C   0  0  0  0  0  0  0  0  0  0  0  0
   58.4510   30.3050   50.0460 C   0  0  0  0  0  0  0  0  0  0  0  0
   57.4650   30.4520   50.8210 O   0  0  0  0  0  0  0  0  0  0  0  0
   59.2850   29.1450   50.1750 N   0  0  0  0  0  0  0  0  0  0  0  0
   60.4280   28.8720   49.3140 C   0  0  0  0  0  0  0  0  0  0  0  0
   61.5250   29.8620   49.5900 C   0  0  0  0  0  0  0  0  0  0  0  0
   62.1420   29.8900   50.8510 C   0  0  0  0  0  0  0  0  0  0  0  0
   63.1220   30.8440   51.1380 C   0  0  0  0  0  0  0  0  0  0  0  0
   63.4980   31.7800   50.1650 C   0  0  0  0  0  0  0  0  0  0  0  0
   64.7440   32.9700   50.5280 S   0  0  0  0  0  0  0  0  0  0  0  0
   65.6700   32.4450   51.9550 C   0  0  0  0  0  0  0  0  0  0  0  0
   65.6720   33.1150   49.3540 O   0  0  0  0  0  0  0  0  0  0  0  0
   64.1030   34.3040   50.8000 O   0  0  0  0  0  0  0  0  0  0  0  0
   62.8950   31.7470   48.9010 C   0  0  0  0  0  0  0  0  0  0  0  0
   61.9120   30.7950   48.6150 C   0  0  0  0  0  0  0  0  0  0  0  0
   58.9000   30.9150   47.6630 C   0  0  0  0  0  0  0  0  0  0  0  0
   57.6950   30.0080   43.7050 C   0  0  0  0  0  0  0  0  0  0  0  0
   57.5720   28.8410   44.5910 N   0  0  0  0  0  0  0  0  0  0  0  0
   56.4310   28.3880   45.1680 C   0  0  0  0  0  0  0  0  0  0  0  0
   55.1880   28.9800   44.9980 O   0  0  0  0  0  0  0  0  0  0  0  0
   56.6660   27.3110   46.0060 C   0  0  0  0  0  0  0  0  0  0  0  0
   58.0350   27.1550   45.9930 C   0  0  0  0  0  0  0  0  0  0  0  0
   58.8440   26.3050   46.7470 C   0  0  0  0  0  0  0  0  0  0  0  0
   60.2380   26.4540   46.6380 C   0  0  0  0  0  0  0  0  0  0  0  0
   60.7860   27.4570   45.8110 C   0  0  0  0  0  0  0  0  0  0  0  0
   59.9460   28.3070   45.0690 C   0  0  0  0  0  0  0  0  0  0  0  0
   58.5610   28.1090   45.1550 C   0  0  0  0  0  0  0  0  0  0  0  0
   58.1156   33.4469   43.8860 H   0  0  0  0  0  0  0  0  0  0  0  0
   58.9213   32.3019   42.7607 H   0  0  0  0  0  0  0  0  0  0  0  0
   57.1312   32.4512   42.7607 H   0  0  0  0  0  0  0  0  0  0  0  0
   56.2160   30.8710   45.2540 H   0  0  0  0  0  0  0  0  0  0  0  0
   59.6612   30.3248   45.3006 H   0  0  0  0  0  0  0  0  0  0  0  0
   59.9543   32.0537   44.7739 H   0  0  0  0  0  0  0  0  0  0  0  0
   59.5598   33.8568   46.1712 H   0  0  0  0  0  0  0  0  0  0  0  0
   59.1800   35.3590   49.4650 H   0  0  0  0  0  0  0  0  0  0  0  0
   60.7973   27.8545   49.5098 H   0  0  0  0  0  0  0  0  0  0  0  0
   60.1179   28.9592   48.2622 H   0  0  0  0  0  0  0  0  0  0  0  0
   61.8521   29.1564   51.6177 H   0  0  0  0  0  0  0  0  0  0  0  0
   63.5990   30.8603   52.1291 H   0  0  0  0  0  0  0  0  0  0  0  0
   65.1376   32.7469   52.8690 H   0  0  0  0  0  0  0  0  0  0  0  0
   65.7793   31.3506   51.9389 H   0  0  0  0  0  0  0  0  0  0  0  0
   66.6653   32.9132   51.9389 H   0  0  0  0  0  0  0  0  0  0  0  0
   63.1960   32.4726   48.1309 H   0  0  0  0  0  0  0  0  0  0  0  0
   61.4397   30.7769   47.6217 H   0  0  0  0  0  0  0  0  0  0  0  0
   58.8386   29.8453   47.4140 H   0  0  0  0  0  0  0  0  0  0  0  0
   56.7652   30.1011   43.1247 H   0  0  0  0  0  0  0  0  0  0  0  0
   58.5757   29.8333   43.0695 H   0  0  0  0  0  0  0  0  0  0  0  0
   55.9256   26.7137   46.5584 H   0  0  0  0  0  0  0  0  0  0  0  0
   58.4051   25.5418   47.4065 H   0  0  0  0  0  0  0  0  0  0  0  0
   60.9051   25.7846   47.2009 H   0  0  0  0  0  0  0  0  0  0  0  0
   61.8777   27.5752   45.7460 H   0  0  0  0  0  0  0  0  0  0  0  0
   60.3646   29.1053   44.4385 H   0  0  0  0  0  0  0  0  0  0  0  0
  1  2  1  0
  2  3  1  1
  2  4  1  0
  4  5  1  0
  5  6  1  0
  6  7  2  0
  7  8  1  0
  7  9  1  0
  9 10  2  0
  9 11  1  0
 11 12  1  0
 12 13  2  0
 12 14  1  0
 14 15  1  0
 15 16  1  0
 16 17  2  0
 17 18  1  0
 18 19  2  0
 19 20  1  0
 20 21  1  0
 20 22  2  0
 20 23  2  0
 19 24  1  0
 24 25  2  0
 11 26  2  0
  2 27  1  0
 27 28  1  0
 28 29  1  0
 29 30  1  0
 29 31  2  0
 31 32  1  0
 32 33  2  0
 33 34  1  0
 34 35  2  0
 35 36  1  0
 36 37  2  0
 26  5  1  0
 37 28  1  0
 25 16  1  0
 37 32  1  0
  1 38  1  0
  1 39  1  0
  1 40  1  0
  3 41  1  0
  4 42  1  0
  4 43  1  0
  6 44  1  0
  8 45  1  0
 15 46  1  0
 15 47  1  0
 17 48  1  0
 18 49  1  0
 21 50  1  0
 21 51  1  0
 21 52  1  0
 24 53  1  0
 25 54  1  0
 26 55  1  0
 27 56  1  0
 27 57  1  0
 31 58  1  0
 33 59  1  0
 34 60  1  0
 35 61  1  0
 36 62  1  0
M  CHG  2  14  -1  30  -1
M  END
>  <UniqueID>  (64) 
62

>  <SMILES>  (64) 
C[C@](O)(Cn1cc(O)c(=O)c(C(=O)[N-]Cc2ccc(S(C)(=O)=O)cc2)c1)Cn1c([O-])cc2ccccc21

>  <Energy>  (64) 
99.15170537887315

>  <Genealogy>  (64) 
CC(O)(Cn1cc(O)c(=O)c(C(=O)[N-]Cc2ccc(S(C)(=O)=O)cc2)c1)Cn1c([O-])cc2ccccc21 (protonated)
C[C@](O)(Cn1cc(O)c(=O)c(C(=O)[N-]Cc2ccc(S(C)(=O)=O)cc2)c1)Cn1c([O-])cc2ccccc21 (chirality)
C[C@](O)(Cn1cc(O)c(=O)c(C(=O)[N-]Cc2ccc(S(C)(=O)=O)cc2)c1)Cn1c([O-])cc2ccccc21 (3D coordinates assigned)
C[C@](O)(Cn1cc(O)c(=O)c(C(=O)[N-]Cc2ccc(S(C)(=O)=O)cc2)c1)Cn1c([O-])cc2ccccc21 (optimized conformer: 99.15170537887315 kcal/mol)

>  <smiles>  (64) 
CC(O)(Cn1cc(O)c(=O)c(C(=O)NCc2ccc(S(C)(=O)=O)cc2)c1)Cn1c(O)cc2ccccc21

>  <score_type>  (64) 
oracle

>  <origin>  (64) 
adg

>  <m_score__min__energy>  (64) 
-14.470000000000001

>  <m_primary>  (64) 
energy

$$$$
64:0
     RDKit          3D

 51 54  0  0  0  0  0  0  0  0999 V2000
   61.0360   33.7950   47.6240 C   0  0  0  0  0  0  0  0  0  0  0  0
   59.7230   33.8000   46.8850 C   0  0  0  0  0  0  0  0  0  0  0  0
   59.6340   34.4700   45.6490 C   0  0  0  0  0  0  0  0  0  0  0  0
   58.4350   34.4910   44.9350 C   0  0  0  0  0  0  0  0  0  0  0  0
   57.3090   33.8430   45.4400 C   0  0  0  0  0  0  0  0  0  0  0  0
   57.3800   33.1700   46.6610 C   0  0  0  0  0  0  0  0  0  0  0  0
   58.5790   33.1360   47.3950 C   0  0  0  0  0  0  0  0  0  0  0  0
   58.6030   32.4090   48.7220 C   0  0  0  0  0  0  0  0  0  0  0  0
   58.5280   30.9650   48.5220 N   0  0  0  0  0  0  0  0  0  0  0  0
   58.8800   29.9980   49.5170 C   0  0  0  0  0  0  0  0  0  0  0  0
   58.0810   29.7250   50.4540 O   0  0  0  0  0  0  0  0  0  0  0  0
   60.2020   29.2910   49.4230 C   0  0  1  0  0  0  0  0  0  0  0  0
   60.9770   29.3640   50.7430 C   0  0  0  0  0  0  0  0  0  0  0  0
   61.5590   27.9710   50.9610 C   0  0  0  0  0  0  0  0  0  0  0  0
   60.7450   27.0270   50.0820 C   0  0  0  0  0  0  0  0  0  0  0  0
   60.0330   27.8700   49.1330 N   0  0  0  0  0  0  0  0  0  0  0  0
   59.6350   27.3850   47.8360 C   0  0  0  0  0  0  0  0  0  0  0  0
   59.3470   26.1660   47.6900 O   0  0  0  0  0  0  0  0  0  0  0  0
   59.5150   28.3110   46.6900 C   0  0  0  0  0  0  0  0  0  0  0  0
   60.5380   28.9420   46.3200 O   0  0  0  0  0  0  0  0  0  0  0  0
   58.2330   28.5210   45.9740 C   0  0  0  0  0  0  0  0  0  0  0  0
   57.0670   27.7590   46.0800 C   0  0  0  0  0  0  0  0  0  0  0  0
   56.1080   28.2350   45.2560 N   0  0  0  0  0  0  0  0  0  0  0  0
   56.6520   29.2820   44.6170 C   0  0  0  0  0  0  0  0  0  0  0  0
   56.0450   30.0780   43.6480 C   0  0  0  0  0  0  0  0  0  0  0  0
   56.8050   31.1160   43.0780 C   0  0  0  0  0  0  0  0  0  0  0  0
   58.1420   31.3270   43.4780 C   0  0  0  0  0  0  0  0  0  0  0  0
   58.7270   30.5110   44.4620 C   0  0  0  0  0  0  0  0  0  0  0  0
   57.9470   29.4920   45.0220 C   0  0  0  0  0  0  0  0  0  0  0  0
   60.8469   33.7957   48.7076 H   0  0  0  0  0  0  0  0  0  0  0  0
   61.6064   32.8947   47.3520 H   0  0  0  0  0  0  0  0  0  0  0  0
   61.6133   34.6910   47.3520 H   0  0  0  0  0  0  0  0  0  0  0  0
   60.5187   34.9819   45.2424 H   0  0  0  0  0  0  0  0  0  0  0  0
   58.3785   35.0198   43.9721 H   0  0  0  0  0  0  0  0  0  0  0  0
   56.3645   33.8619   44.8765 H   0  0  0  0  0  0  0  0  0  0  0  0
   56.4877   32.6604   47.0535 H   0  0  0  0  0  0  0  0  0  0  0  0
   59.5369   32.6522   49.2498 H   0  0  0  0  0  0  0  0  0  0  0  0
   57.7339   32.7289   49.3157 H   0  0  0  0  0  0  0  0  0  0  0  0
   60.7485   29.7982   48.6142 H   0  0  0  0  0  0  0  0  0  0  0  0
   61.7831   30.1093   50.6732 H   0  0  0  0  0  0  0  0  0  0  0  0
   60.3274   29.6665   51.5776 H   0  0  0  0  0  0  0  0  0  0  0  0
   62.6181   27.9497   50.6647 H   0  0  0  0  0  0  0  0  0  0  0  0
   61.5080   27.6766   52.0196 H   0  0  0  0  0  0  0  0  0  0  0  0
   61.4110   26.3318   49.5499 H   0  0  0  0  0  0  0  0  0  0  0  0
   60.0493   26.4210   50.6809 H   0  0  0  0  0  0  0  0  0  0  0  0
   56.9462   26.8901   46.7437 H   0  0  0  0  0  0  0  0  0  0  0  0
   55.1460   27.8470   45.1310 H   0  0  0  0  0  0  0  0  0  0  0  0
   55.0045   29.9006   43.3383 H   0  0  0  0  0  0  0  0  0  0  0  0
   56.3539   31.7677   42.3152 H   0  0  0  0  0  0  0  0  0  0  0  0
   58.7297   32.1346   43.0171 H   0  0  0  0  0  0  0  0  0  0  0  0
   59.7674   30.6685   44.7827 H   0  0  0  0  0  0  0  0  0  0  0  0
  1  2  1  0
  2  3  2  0
  3  4  1  0
  4  5  2  0
  5  6  1  0
  6  7  2  0
  7  8  1  0
  8  9  1  0
  9 10  1  0
 10 11  2  0
 10 12  1  0
 12 13  1  0
 13 14  1  0
 14 15  1  0
 15 16  1  0
 16 17  1  0
 17 18  2  0
 17 19  1  0
 19 20  2  0
 19 21  1  0
 21 22  2  0
 22 23  1  0
 23 24  1  0
 24 25  2  0
 25 26  1  0
 26 27  2  0
 27 28  1  0
 28 29  2  0
  7  2  1  0
 16 12  1  0
 29 21  1  0
 29 24  1  0
  1 30  1  0
  1 31  1  0
  1 32  1  0
  3 33  1  0
  4 34  1  0
  5 35  1  0
  6 36  1  0
  8 37  1  0
  8 38  1  0
 12 39  1  6
 13 40  1  0
 13 41  1  0
 14 42  1  0
 14 43  1  0
 15 44  1  0
 15 45  1  0
 22 46  1  0
 23 47  1  0
 25 48  1  0
 26 49  1  0
 27 50  1  0
 28 51  1  0
M  CHG  1   9  -1
M  END
>  <UniqueID>  (65) 
63

>  <SMILES>  (65) 
Cc1ccccc1C[N-]C(=O)[C@H]1CCCN1C(=O)C(=O)c1c[nH]c2ccccc12

>  <Energy>  (65) 
93.47680437111495

>  <Genealogy>  (65) 
Cc1ccccc1C[N-]C(=O)C1CCCN1C(=O)C(=O)c1c[nH]c2ccccc12 (protonated)
Cc1ccccc1C[N-]C(=O)[C@H]1CCCN1C(=O)C(=O)c1c[nH]c2ccccc12 (chirality)
Cc1ccccc1C[N-]C(=O)[C@H]1CCCN1C(=O)C(=O)c1c[nH]c2ccccc12 (3D coordinates assigned)
Cc1ccccc1C[N-]C(=O)[C@H]1CCCN1C(=O)C(=O)c1c[nH]c2ccccc12 (nonaromatic ring conformer: 93.47680437111495 kcal/mol)

>  <smiles>  (65) 
Cc1ccccc1CNC(=O)C1CCCN1C(=O)C(=O)c1c[nH]c2ccccc12

>  <score_type>  (65) 
oracle

>  <origin>  (65) 
adg

>  <m_score__min__energy>  (65) 
-11.640000000000001

>  <m_primary>  (65) 
energy

$$$$
65:0
     RDKit          3D

 34 35  0  0  0  0  0  0  0  0999 V2000
   55.1360   26.3270   45.9170 N   0  0  0  0  0  0  0  0  0  0  0  0
   56.8470   26.5530   45.8120 S   0  0  0  0  0  0  0  0  0  0  0  0
   57.4150   25.6050   44.7940 O   0  0  0  0  0  0  0  0  0  0  0  0
   57.4560   26.2660   47.1560 O   0  0  0  0  0  0  0  0  0  0  0  0
   57.2040   28.2100   45.3330 C   0  0  0  0  0  0  0  0  0  0  0  0
   58.5120   28.7040   45.4150 C   0  0  0  0  0  0  0  0  0  0  0  0
   58.7930   30.0180   45.0280 C   0  0  0  0  0  0  0  0  0  0  0  0
   57.7640   30.8550   44.5700 C   0  0  0  0  0  0  0  0  0  0  0  0
   58.0290   32.1960   44.1420 N   0  0  0  0  0  0  0  0  0  0  0  0
   57.9750   33.3700   44.9630 C   0  0  0  0  0  0  0  0  0  0  0  0
   56.9540   33.5650   45.6730 O   0  0  0  0  0  0  0  0  0  0  0  0
   59.1390   34.3140   45.0860 C   0  0  0  0  0  0  0  0  0  0  0  0
   59.3910   34.8260   46.8210 S   0  0  0  0  0  0  0  0  0  0  0  0
   59.8190   33.1770   47.4060 C   0  0  0  0  0  0  0  0  0  0  0  0
   58.7960   32.3290   47.6990 N   0  0  0  0  0  0  0  0  0  0  0  0
   59.0070   31.0450   48.0890 C   0  0  0  0  0  0  0  0  0  0  0  0
   60.3040   30.5520   48.1890 C   0  0  0  0  0  0  0  0  0  0  0  0
   61.3780   31.3940   47.9040 C   0  0  0  0  0  0  0  0  0  0  0  0
   61.1580   32.7280   47.5230 C   0  0  0  0  0  0  0  0  0  0  0  0
   62.3260   33.6090   47.2790 C   0  0  0  0  0  0  0  0  0  0  0  0
   62.9170   34.1570   48.2470 O   0  0  0  0  0  0  0  0  0  0  0  0
   62.7620   33.8810   45.9890 O   0  0  0  0  0  0  0  0  0  0  0  0
   56.4660   30.3440   44.4470 C   0  0  0  0  0  0  0  0  0  0  0  0
   56.1840   29.0320   44.8350 C   0  0  0  0  0  0  0  0  0  0  0  0
   54.7670   27.0810   46.5390 H   0  0  0  0  0  0  0  0  0  0  0  0
   59.3206   28.0564   45.7849 H   0  0  0  0  0  0  0  0  0  0  0  0
   59.8242   30.3969   45.0828 H   0  0  0  0  0  0  0  0  0  0  0  0
   60.0483   33.8119   44.7240 H   0  0  0  0  0  0  0  0  0  0  0  0
   58.9265   35.2104   44.4849 H   0  0  0  0  0  0  0  0  0  0  0  0
   58.1519   30.3948   48.3258 H   0  0  0  0  0  0  0  0  0  0  0  0
   60.4803   29.5087   48.4898 H   0  0  0  0  0  0  0  0  0  0  0  0
   62.4063   31.0105   47.9781 H   0  0  0  0  0  0  0  0  0  0  0  0
   55.6641   30.9792   44.0426 H   0  0  0  0  0  0  0  0  0  0  0  0
   55.1586   28.6430   44.7494 H   0  0  0  0  0  0  0  0  0  0  0  0
  1  2  1  0
  2  3  2  0
  2  4  2  0
  2  5  1  0
  5  6  2  0
  6  7  1  0
  7  8  2  0
  8  9  1  0
  9 10  1  0
 10 11  2  0
 10 12  1  0
 12 13  1  0
 13 14  1  0
 14 15  2  0
 15 16  1  0
 16 17  2  0
 17 18  1  0
 18 19  2  0
 19 20  1  0
 20 21  2  0
 20 22  1  0
  8 23  1  0
 23 24  2  0
 24  5  1  0
 19 14  1  0
  1 25  1  0
  6 26  1  0
  7 27  1  0
 12 28  1  0
 12 29  1  0
 16 30  1  0
 17 31  1  0
 18 32  1  0
 23 33  1  0
 24 34  1  0
M  CHG  3   1  -1   9  -1  22  -1
M  END
>  <UniqueID>  (66) 
64

>  <SMILES>  (66) 
[NH-]S(=O)(=O)c1ccc([N-]C(=O)CSc2ncccc2C(=O)[O-])cc1

>  <Energy>  (66) 
40.03882894622345

>  <Genealogy>  (66) 
[NH-]S(=O)(=O)c1ccc([N-]C(=O)CSc2ncccc2C(=O)[O-])cc1 (protonated)
[NH-]S(=O)(=O)c1ccc([N-]C(=O)CSc2ncccc2C(=O)[O-])cc1 (3D coordinates assigned)
[NH-]S(=O)(=O)c1ccc([N-]C(=O)CSc2ncccc2C(=O)[O-])cc1 (optimized conformer: 40.03882894622345 kcal/mol)

>  <smiles>  (66) 
NS(=O)(=O)c1ccc(NC(=O)CSc2ncccc2C(=O)O)cc1

>  <score_type>  (66) 
oracle

>  <origin>  (66) 
adg

>  <m_score__min__energy>  (66) 
-13.17

>  <m_primary>  (66) 
energy

$$$$
66:0
     RDKit          3D

 51 54  0  0  0  0  0  0  0  0999 V2000
   60.6400   28.6010   49.5460 H   0  0  0  0  0  0  0  0  0  0  0  0
   60.7100   29.1570   50.3900 O   0  0  0  0  0  0  0  0  0  0  0  0
   59.9300   30.2970   50.5820 C   0  0  0  0  0  0  0  0  0  0  0  0
   60.1140   31.0830   51.7300 C   0  0  0  0  0  0  0  0  0  0  0  0
   60.8373   30.7701   52.4974 H   0  0  0  0  0  0  0  0  0  0  0  0
   59.3830   32.2610   51.9030 C   0  0  0  0  0  0  0  0  0  0  0  0
   59.5257   32.8688   52.8087 H   0  0  0  0  0  0  0  0  0  0  0  0
   58.4710   32.6670   50.9260 C   0  0  0  0  0  0  0  0  0  0  0  0
   57.9065   33.6021   51.0561 H   0  0  0  0  0  0  0  0  0  0  0  0
   58.2750   31.8870   49.7840 C   0  0  0  0  0  0  0  0  0  0  0  0
   57.5657   32.2183   49.0113 H   0  0  0  0  0  0  0  0  0  0  0  0
   58.9760   30.6850   49.6160 C   0  0  0  0  0  0  0  0  0  0  0  0
   58.7490   29.9230   48.4230 N   0  0  0  0  0  0  0  0  0  0  0  0
   59.7660   29.4830   47.5130 C   0  0  0  0  0  0  0  0  0  0  0  0
   60.4930   28.4940   47.8020 O   0  0  0  0  0  0  0  0  0  0  0  0
   59.9090   30.1350   46.1700 C   0  0  0  0  0  0  0  0  0  0  0  0
   60.9742   30.1645   45.8971 H   0  0  0  0  0  0  0  0  0  0  0  0
   59.3366   29.5492   45.4357 H   0  0  0  0  0  0  0  0  0  0  0  0
   59.3750   31.5190   46.1860 N   0  0  0  0  0  0  0  0  0  0  0  0
   58.2760   31.8350   45.4040 C   0  0  0  0  0  0  0  0  0  0  0  0
   57.6390   30.8470   44.4500 C   0  0  0  0  0  0  0  0  0  0  0  0
   57.2053   31.3890   43.5967 H   0  0  0  0  0  0  0  0  0  0  0  0
   58.4027   30.1430   44.0879 H   0  0  0  0  0  0  0  0  0  0  0  0
   56.5900   30.1110   45.1410 N   0  0  0  0  0  0  0  0  0  0  0  0
   56.2430   28.9090   44.7980 C   0  0  0  0  0  0  0  0  0  0  0  0
   55.3983   28.7647   44.1083 H   0  0  0  0  0  0  0  0  0  0  0  0
   56.9670   27.7290   45.3210 C   0  0  0  0  0  0  0  0  0  0  0  0
   58.3720   27.6540   45.2470 C   0  0  0  0  0  0  0  0  0  0  0  0
   58.9403   28.4809   44.7962 H   0  0  0  0  0  0  0  0  0  0  0  0
   59.0490   26.5350   45.7430 C   0  0  0  0  0  0  0  0  0  0  0  0
   60.1461   26.4848   45.6814 H   0  0  0  0  0  0  0  0  0  0  0  0
   58.3340   25.4820   46.3160 C   0  0  0  0  0  0  0  0  0  0  0  0
   58.8685   24.6028   46.7051 H   0  0  0  0  0  0  0  0  0  0  0  0
   56.9420   25.5430   46.3960 C   0  0  0  0  0  0  0  0  0  0  0  0
   56.3821   24.7113   46.8485 H   0  0  0  0  0  0  0  0  0  0  0  0
   56.2550   26.6600   45.9020 C   0  0  0  0  0  0  0  0  0  0  0  0
   54.8680   26.6940   45.9930 O   0  0  0  0  0  0  0  0  0  0  0  0
   57.6770   33.0980   45.5060 C   0  0  0  0  0  0  0  0  0  0  0  0
   56.7766   33.3256   44.9165 H   0  0  0  0  0  0  0  0  0  0  0  0
   58.2120   34.0600   46.3440 C   0  0  0  0  0  0  0  0  0  0  0  0
   57.7233   35.0409   46.4393 H   0  0  0  0  0  0  0  0  0  0  0  0
   59.3690   33.7850   47.0660 C   0  0  0  0  0  0  0  0  0  0  0  0
   59.9380   34.7820   47.8750 C   0  0  0  0  0  0  0  0  0  0  0  0
   59.4505   35.7647   47.9568 H   0  0  0  0  0  0  0  0  0  0  0  0
   61.1160   34.5330   48.5740 C   0  0  0  0  0  0  0  0  0  0  0  0
   61.5522   35.3149   49.2131 H   0  0  0  0  0  0  0  0  0  0  0  0
   61.7420   33.2940   48.4640 C   0  0  0  0  0  0  0  0  0  0  0  0
   62.6799   33.1048   49.0067 H   0  0  0  0  0  0  0  0  0  0  0  0
   61.1850   32.2900   47.6680 C   0  0  0  0  0  0  0  0  0  0  0  0
   61.6966   31.3198   47.5837 H   0  0  0  0  0  0  0  0  0  0  0  0
   59.9690   32.5020   46.9660 C   0  0  0  0  0  0  0  0  0  0  0  0
  1  2  1  0
  2  3  1  0
  3  4  2  0
  4  5  1  0
  4  6  1  0
  6  7  1  0
  6  8  2  0
  8  9  1  0
  8 10  1  0
 10 11  1  0
 10 12  2  0
 12 13  1  0
 13 14  1  0
 14 15  2  0
 14 16  1  0
 16 17  1  0
 16 18  1  0
 16 19  1  0
 19 20  1  0
 20 21  1  0
 21 22  1  0
 21 23  1  0
 21 24  1  0
 24 25  2  0
 25 26  1  0
 25 27  1  0
 27 28  2  0
 28 29  1  0
 28 30  1  0
 30 31  1  0
 30 32  2  0
 32 33  1  0
 32 34  1  0
 34 35  1  0
 34 36  2  0
 36 37  1  0
 20 38  2  0
 38 39  1  0
 38 40  1  0
 40 41  1  0
 40 42  2  0
 42 43  1  0
 43 44  1  0
 43 45  2  0
 45 46  1  0
 45 47  1  0
 47 48  1  0
 47 49  2  0
 49 50  1  0
 49 51  1  0
 12  3  1  0
 51 19  2  0
 36 27  1  0
 51 42  1  0
M  CHG  3  13  -1  19   1  37  -1
M  END
>  <UniqueID>  (67) 
65

>  <SMILES>  (67) 
O=C(C[n+]1c(C/N=C/c2ccccc2[O-])ccc2ccccc21)[N-]c1ccccc1O

>  <Energy>  (67) 
70.08353235108777

>  <Genealogy>  (67) 
O=C(C[n+]1c(CN=Cc2ccccc2[O-])ccc2ccccc21)[N-]c1ccccc1O (protonated)
O=C(C[n+]1c(C/N=C/c2ccccc2[O-])ccc2ccccc21)[N-]c1ccccc1O (cis-trans isomerization)
O=C(C[n+]1c(C/N=C/c2ccccc2[O-])ccc2ccccc21)[N-]c1ccccc1O (3D coordinates assigned)
O=C(C[n+]1c(C/N=C/c2ccccc2[O-])ccc2ccccc21)[N-]c1ccccc1O (optimized conformer: 70.08353235108777 kcal/mol)

>  <smiles>  (67) 
O=C(C[n+]1c(CN=Cc2ccccc2O)ccc2ccccc21)Nc1ccccc1O

>  <score_type>  (67) 
oracle

>  <origin>  (67) 
adg

>  <m_score__min__energy>  (67) 
-12.130000000000001

>  <m_primary>  (67) 
energy

$$$$
67:0
     RDKit          3D

 28 29  0  0  0  0  0  0  0  0999 V2000
   59.7580   24.3763   46.6306 H   0  0  0  0  0  0  0  0  0  0  0  0
   58.9470   24.3280   45.8890 C   0  0  0  0  0  0  0  0  0  0  0  0
   58.7960   23.2550   45.1730 N   0  0  0  0  0  0  0  0  0  0  0  0
   57.6100   22.4960   45.1200 N   0  0  0  0  0  0  0  0  0  0  0  0
   56.6480   22.5960   44.1860 C   0  0  0  0  0  0  0  0  0  0  0  0
   56.7010   23.5100   43.0070 C   0  0  0  0  0  0  0  0  0  0  0  0
   56.7614   24.5523   43.3535 H   0  0  0  0  0  0  0  0  0  0  0  0
   57.5869   23.2736   42.3994 H   0  0  0  0  0  0  0  0  0  0  0  0
   55.7937   23.3776   42.3994 H   0  0  0  0  0  0  0  0  0  0  0  0
   55.5950   21.8060   44.4830 N   0  0  0  0  0  0  0  0  0  0  0  0
   55.8740   21.1920   45.6270 N   0  0  0  0  0  0  0  0  0  0  0  0
   57.0900   21.6240   46.0070 C   0  0  0  0  0  0  0  0  0  0  0  0
   57.6410   21.2800   47.0850 O   0  0  0  0  0  0  0  0  0  0  0  0
   58.0430   25.4850   45.7200 C   0  0  0  0  0  0  0  0  0  0  0  0
   56.6550   25.3620   45.9120 C   0  0  0  0  0  0  0  0  0  0  0  0
   56.2253   24.3891   46.1927 H   0  0  0  0  0  0  0  0  0  0  0  0
   55.8200   26.4690   45.7480 C   0  0  0  0  0  0  0  0  0  0  0  0
   54.4500   26.3340   45.9410 O   0  0  0  0  0  0  0  0  0  0  0  0
   56.3590   27.7100   45.3900 C   0  0  0  0  0  0  0  0  0  0  0  0
   55.5200   28.8070   45.2270 O   0  0  0  0  0  0  0  0  0  0  0  0
   57.7390   27.8510   45.1930 C   0  0  0  0  0  0  0  0  0  0  0  0
   58.2380   29.1140   44.8350 O   0  0  0  0  0  0  0  0  0  0  0  0
   57.6530   29.9630   43.8540 C   0  0  0  0  0  0  0  0  0  0  0  0
   57.0967   30.7704   44.3526 H   0  0  0  0  0  0  0  0  0  0  0  0
   58.4447   30.3970   43.2256 H   0  0  0  0  0  0  0  0  0  0  0  0
   56.9655   29.3778   43.2256 H   0  0  0  0  0  0  0  0  0  0  0  0
   58.5780   26.7320   45.3610 C   0  0  0  0  0  0  0  0  0  0  0  0
   59.6625   26.8364   45.2094 H   0  0  0  0  0  0  0  0  0  0  0  0
  1  2  1  0
  2  3  2  0
  3  4  1  0
  4  5  1  0
  5  6  1  0
  6  7  1  0
  6  8  1  0
  6  9  1  0
  5 10  2  0
 10 11  1  0
 11 12  1  0
 12 13  2  0
  2 14  1  0
 14 15  2  0
 15 16  1  0
 15 17  1  0
 17 18  1  0
 17 19  2  0
 19 20  1  0
 19 21  1  0
 21 22  1  0
 22 23  1  0
 23 24  1  0
 23 25  1  0
 23 26  1  0
 21 27  2  0
 27 28  1  0
 12  4  1  0
 27 14  1  0
M  CHG  3  11  -1  18  -1  20  -1
M  END
>  <UniqueID>  (68) 
66

>  <SMILES>  (68) 
COc1cc(/C=N/n2c(C)n[n-]c2=O)cc([O-])c1[O-]

>  <Energy>  (68) 
67.71071259166605

>  <Genealogy>  (68) 
COc1cc(C=Nn2c(C)n[n-]c2=O)cc([O-])c1[O-] (protonated)
COc1cc(/C=N/n2c(C)n[n-]c2=O)cc([O-])c1[O-] (cis-trans isomerization)
COc1cc(/C=N/n2c(C)n[n-]c2=O)cc([O-])c1[O-] (3D coordinates assigned)
COc1cc(/C=N/n2c(C)n[n-]c2=O)cc([O-])c1[O-] (optimized conformer: 67.71071259166605 kcal/mol)

>  <smiles>  (68) 
COc1cc(C=Nn2c(C)n[nH]c2=O)cc(O)c1O

>  <score_type>  (68) 
oracle

>  <origin>  (68) 
adg

>  <m_score__min__energy>  (68) 
-14.619999999999999

>  <m_primary>  (68) 
energy

$$$$
68:0
     RDKit          3D

 82 86  0  0  0  0  0  0  0  0999 V2000
   59.7640   35.8650   45.9760 C   0  0  0  0  0  0  0  0  0  0  0  0
   59.4540   34.5310   46.5850 C   0  0  0  0  0  0  0  0  0  0  0  0
   59.5020   34.3600   47.9770 C   0  0  0  0  0  0  0  0  0  0  0  0
   59.1600   33.1330   48.5470 C   0  0  0  0  0  0  0  0  0  0  0  0
   58.7500   32.0730   47.7350 C   0  0  0  0  0  0  0  0  0  0  0  0
   58.6960   32.2260   46.3430 C   0  0  0  0  0  0  0  0  0  0  0  0
   58.2980   31.0710   45.4660 C   0  0  0  0  0  0  0  0  0  0  0  0
   57.3920   30.1730   46.1840 N   0  0  0  0  0  0  0  0  0  0  0  0
   56.9800   28.7840   45.2170 S   0  0  0  0  0  0  0  0  0  0  0  0
   55.5220   28.8630   44.8640 O   0  0  0  0  0  0  0  0  0  0  0  0
   57.7820   28.8340   43.9510 O   0  0  0  0  0  0  0  0  0  0  0  0
   57.2510   27.2820   46.1400 C   0  0  0  0  0  0  0  0  0  0  0  0
   56.1550   26.4110   46.3170 C   0  0  0  0  0  0  0  0  0  0  0  0
   54.9120   26.7120   45.7690 O   0  0  0  0  0  0  0  0  0  0  0  0
   56.2990   25.2220   47.0370 C   0  0  0  0  0  0  0  0  0  0  0  0
   57.5330   24.8640   47.5690 C   0  0  0  0  0  0  0  0  0  0  0  0
   58.6380   25.6900   47.3730 C   0  0  0  0  0  0  0  0  0  0  0  0
   58.5240   26.8950   46.6520 C   0  0  0  0  0  0  0  0  0  0  0  0
   59.7750   27.7180   46.4670 C   0  0  0  0  0  0  0  0  0  0  0  0
   60.5400   27.7830   47.7100 N   0  0  0  0  0  0  0  0  0  0  0  0
   60.1660   28.5920   48.8310 C   0  0  0  0  0  0  0  0  0  0  0  0
   59.1240   29.3000   48.7790 O   0  0  0  0  0  0  0  0  0  0  0  0
   61.0060   28.6100   50.0410 C   0  0  0  0  0  0  0  0  0  0  0  0
   61.3840   27.5190   50.5430 O   0  0  0  0  0  0  0  0  0  0  0  0
   61.3120   29.9170   50.7380 C   0  0  2  0  0  0  0  0  0  0  0  0
   62.7290   30.4660   50.4470 C   0  0  0  0  0  0  0  0  0  0  0  0
   62.7070   31.5680   49.4100 C   0  0  0  0  0  0  0  0  0  0  0  0
   63.0760   32.8810   49.7530 C   0  0  0  0  0  0  0  0  0  0  0  0
   63.0500   33.8980   48.7900 C   0  0  0  0  0  0  0  0  0  0  0  0
   62.6600   33.6130   47.4790 C   0  0  0  0  0  0  0  0  0  0  0  0
   62.2890   32.3100   47.1280 C   0  0  0  0  0  0  0  0  0  0  0  0
   62.3050   31.2930   48.0900 C   0  0  0  0  0  0  0  0  0  0  0  0
   61.0770   29.7660   52.1750 N   0  0  0  0  0  0  0  0  0  0  0  0
   59.8070   29.5010   52.7860 C   0  0  0  0  0  0  0  0  0  0  0  0
   59.6500   28.4860   53.5140 O   0  0  0  0  0  0  0  0  0  0  0  0
   58.6180   30.3920   52.5010 C   0  0  2  0  0  0  0  0  0  0  0  0
   58.0570   30.1720   51.1670 N   0  0  0  0  0  0  0  0  0  0  0  0
   57.2330   31.3560   50.8890 C   0  0  0  0  0  0  0  0  0  0  0  0
   57.5770   32.4350   51.9190 C   0  0  0  0  0  0  0  0  0  0  0  0
   58.8340   31.9170   52.6450 C   0  0  0  0  0  0  0  0  0  0  0  0
   60.1180   32.4220   51.9120 C   0  0  0  0  0  0  0  0  0  0  0  0
   60.5540   33.7840   52.4790 C   0  0  0  0  0  0  0  0  0  0  0  0
   60.8740   33.7750   53.8710 O   0  0  0  0  0  0  0  0  0  0  0  0
   60.2840   32.7030   54.5960 C   0  0  0  0  0  0  0  0  0  0  0  0
   58.8550   32.3800   54.1330 C   0  0  0  0  0  0  0  0  0  0  0  0
   59.0470   33.4610   45.7710 C   0  0  0  0  0  0  0  0  0  0  0  0
   59.9352   36.6018   46.7746 H   0  0  0  0  0  0  0  0  0  0  0  0
   60.6670   35.7828   45.3532 H   0  0  0  0  0  0  0  0  0  0  0  0
   58.9173   36.1894   45.3532 H   0  0  0  0  0  0  0  0  0  0  0  0
   59.8104   35.1964   48.6214 H   0  0  0  0  0  0  0  0  0  0  0  0
   59.2134   33.0003   49.6377 H   0  0  0  0  0  0  0  0  0  0  0  0
   58.4678   31.1125   48.1908 H   0  0  0  0  0  0  0  0  0  0  0  0
   57.7913   31.4553   44.5685 H   0  0  0  0  0  0  0  0  0  0  0  0
   59.2015   30.5123   45.1803 H   0  0  0  0  0  0  0  0  0  0  0  0
   55.4297   24.5643   47.1841 H   0  0  0  0  0  0  0  0  0  0  0  0
   57.6365   23.9313   48.1430 H   0  0  0  0  0  0  0  0  0  0  0  0
   59.6139   25.3968   47.7874 H   0  0  0  0  0  0  0  0  0  0  0  0
   60.3966   27.2588   45.6842 H   0  0  0  0  0  0  0  0  0  0  0  0
   59.4864   28.7388   46.1760 H   0  0  0  0  0  0  0  0  0  0  0  0
   60.6283   30.6742   50.3266 H   0  0  0  0  0  0  0  0  0  0  0  0
   63.1542   30.8645   51.3800 H   0  0  0  0  0  0  0  0  0  0  0  0
   63.3395   29.6402   50.0529 H   0  0  0  0  0  0  0  0  0  0  0  0
   63.3867   33.1106   50.7829 H   0  0  0  0  0  0  0  0  0  0  0  0
   63.3373   34.9232   49.0666 H   0  0  0  0  0  0  0  0  0  0  0  0
   62.6446   34.4122   46.7233 H   0  0  0  0  0  0  0  0  0  0  0  0
   61.9845   32.0847   46.0953 H   0  0  0  0  0  0  0  0  0  0  0  0
   62.0015   30.2728   47.8122 H   0  0  0  0  0  0  0  0  0  0  0  0
   57.9299   30.0791   53.3002 H   0  0  0  0  0  0  0  0  0  0  0  0
   58.8300   30.1570   50.4620 H   0  0  0  0  0  0  0  0  0  0  0  0
   57.4461   31.7277   49.8759 H   0  0  0  0  0  0  0  0  0  0  0  0
   56.1656   31.0979   50.9532 H   0  0  0  0  0  0  0  0  0  0  0  0
   57.7875   33.3920   51.4191 H   0  0  0  0  0  0  0  0  0  0  0  0
   56.7459   32.6167   52.6163 H   0  0  0  0  0  0  0  0  0  0  0  0
   60.9287   31.6925   52.0556 H   0  0  0  0  0  0  0  0  0  0  0  0
   59.8981   32.5338   50.8400 H   0  0  0  0  0  0  0  0  0  0  0  0
   61.4439   34.1171   51.9248 H   0  0  0  0  0  0  0  0  0  0  0  0
   59.6939   34.4596   52.3618 H   0  0  0  0  0  0  0  0  0  0  0  0
   60.9066   31.8058   54.4637 H   0  0  0  0  0  0  0  0  0  0  0  0
   60.2266   33.0111   55.6504 H   0  0  0  0  0  0  0  0  0  0  0  0
   58.4466   31.5770   54.7641 H   0  0  0  0  0  0  0  0  0  0  0  0
   58.2463   33.2919   54.2219 H   0  0  0  0  0  0  0  0  0  0  0  0
   59.0027   33.5904   44.6795 H   0  0  0  0  0  0  0  0  0  0  0  0
  1  2  1  0
  2  3  2  0
  3  4  1  0
  4  5  2  0
  5  6  1  0
  6  7  1  0
  7  8  1  0
  8  9  1  0
  9 10  2  0
  9 11  2  0
  9 12  1  0
 12 13  2  0
 13 14  1  0
 13 15  1  0
 15 16  2  0
 16 17  1  0
 17 18  2  0
 18 19  1  0
 19 20  1  0
 20 21  1  0
 21 22  2  0
 21 23  1  0
 23 24  2  0
 23 25  1  0
 25 26  1  0
 26 27  1  0
 27 28  2  0
 28 29  1  0
 29 30  2  0
 30 31  1  0
 31 32  2  0
 25 33  1  0
 33 34  1  0
 34 35  2  0
 34 36  1  0
 36 37  1  0
 37 38  1  0
 38 39  1  0
 39 40  1  0
 40 41  1  0
 41 42  1  0
 42 43  1  0
 43 44  1  0
 44 45  1  0
  6 46  2  0
 46  2  1  0
 18 12  1  0
 32 27  1  0
 40 36  1  0
 45 40  1  0
  1 47  1  0
  1 48  1  0
  1 49  1  0
  3 50  1  0
  4 51  1  0
  5 52  1  0
  7 53  1  0
  7 54  1  0
 15 55  1  0
 16 56  1  0
 17 57  1  0
 19 58  1  0
 19 59  1  0
 25 60  1  6
 26 61  1  0
 26 62  1  0
 28 63  1  0
 29 64  1  0
 30 65  1  0
 31 66  1  0
 32 67  1  0
 36 68  1  1
 37 69  1  0
 38 70  1  0
 38 71  1  0
 39 72  1  0
 39 73  1  0
 41 74  1  0
 41 75  1  0
 42 76  1  0
 42 77  1  0
 44 78  1  0
 44 79  1  0
 45 80  1  0
 45 81  1  0
 46 82  1  0
M  CHG  4   8  -1  14  -1  20  -1  33  -1
M  END
>  <UniqueID>  (69) 
67

>  <SMILES>  (69) 
Cc1cccc(C[N-]S(=O)(=O)c2c([O-])cccc2C[N-]C(=O)C(=O)[C@H](Cc2ccccc2)[N-]C(=O)[C@@H]2NCCC23CCOCC3)c1

>  <Energy>  (69) 
101.7360698313429

>  <Genealogy>  (69) 
Cc1cccc(C[N-]S(=O)(=O)c2c([O-])cccc2C[N-]C(=O)C(=O)C(Cc2ccccc2)[N-]C(=O)C2NCCC23CCOCC3)c1 (protonated)
Cc1cccc(C[N-]S(=O)(=O)c2c([O-])cccc2C[N-]C(=O)C(=O)[C@H](Cc2ccccc2)[N-]C(=O)[C@@H]2NCCC23CCOCC3)c1 (chirality)
Cc1cccc(C[N-]S(=O)(=O)c2c([O-])cccc2C[N-]C(=O)C(=O)[C@H](Cc2ccccc2)[N-]C(=O)[C@@H]2NCCC23CCOCC3)c1 (3D coordinates assigned)
Cc1cccc(C[N-]S(=O)(=O)c2c([O-])cccc2C[N-]C(=O)C(=O)[C@H](Cc2ccccc2)[N-]C(=O)[C@@H]2NCCC23CCOCC3)c1 (nonaromatic ring conformer: 101.7360698313429 kcal/mol)

>  <smiles>  (69) 
Cc1cccc(CNS(=O)(=O)c2c(O)cccc2CNC(=O)C(=O)C(Cc2ccccc2)NC(=O)C2NCCC23CCOCC3)c1

>  <score_type>  (69) 
oracle

>  <origin>  (69) 
adg

>  <m_score__min__energy>  (69) 
-17.949999999999999

>  <m_primary>  (69) 
energy

$$$$
69:0
     RDKit          3D

 66 70  0  0  0  0  0  0  0  0999 V2000
   60.5740   28.3100   45.3110 C   0  0  0  0  0  0  0  0  0  0  0  0
   59.7120   29.3530   45.8730 N   0  0  0  0  0  0  0  0  0  0  0  0
   60.1420   30.0570   47.0580 C   0  0  0  0  0  0  0  0  0  0  0  0
   60.3870   31.2930   46.9950 O   0  0  0  0  0  0  0  0  0  0  0  0
   60.2870   29.3470   48.3800 C   0  0  0  0  0  0  0  0  0  0  0  0
   60.6040   30.2990   49.4470 N   0  0  0  0  0  0  0  0  0  0  0  0
   61.8500   30.6920   49.8070 C   0  0  0  0  0  0  0  0  0  0  0  0
   61.7800   31.6520   50.8090 C   0  0  0  0  0  0  0  0  0  0  0  0
   62.9300   32.3940   51.4230 C   0  0  0  0  0  0  0  0  0  0  0  0
   63.4550   33.3950   50.4940 N   0  0  0  0  0  0  0  0  0  0  0  0
   63.0950   33.4440   49.1010 C   0  0  0  0  0  0  0  0  0  0  0  0
   63.9260   32.9030   48.1020 C   0  0  0  0  0  0  0  0  0  0  0  0
   63.5480   32.9670   46.7610 C   0  0  0  0  0  0  0  0  0  0  0  0
   62.3440   33.5720   46.3960 C   0  0  0  0  0  0  0  0  0  0  0  0
   61.5000   34.1290   47.3740 C   0  0  0  0  0  0  0  0  0  0  0  0
   60.1710   34.7720   47.0030 C   0  0  0  0  0  0  0  0  0  0  0  0
   59.6950   34.3820   45.5780 C   0  0  0  0  0  0  0  0  0  0  0  0
   58.2270   33.9410   45.5580 C   0  0  0  0  0  0  0  0  0  0  0  0
   57.9940   32.8510   46.5160 N   0  0  0  0  0  0  0  0  0  0  0  0
   58.3570   33.1820   47.9110 C   0  0  0  0  0  0  0  0  0  0  0  0
   59.0990   34.5220   48.0860 C   0  0  0  0  0  0  0  0  0  0  0  0
   61.8830   34.0460   48.7260 C   0  0  0  0  0  0  0  0  0  0  0  0
   60.4330   31.8630   51.0380 C   0  0  0  0  0  0  0  0  0  0  0  0
   59.7800   32.7450   51.8970 C   0  0  0  0  0  0  0  0  0  0  0  0
   58.3730   32.7550   51.8830 C   0  0  0  0  0  0  0  0  0  0  0  0
   57.6620   31.8990   51.0170 C   0  0  0  0  0  0  0  0  0  0  0  0
   58.3470   31.0240   50.1550 C   0  0  0  0  0  0  0  0  0  0  0  0
   59.7450   31.0270   50.1940 C   0  0  0  0  0  0  0  0  0  0  0  0
   58.4870   29.7020   45.2020 C   0  0  0  0  0  0  0  0  0  0  0  0
   58.4620   30.7500   44.2680 C   0  0  0  0  0  0  0  0  0  0  0  0
   57.2710   31.0840   43.6160 C   0  0  0  0  0  0  0  0  0  0  0  0
   56.1000   30.3740   43.8900 C   0  0  0  0  0  0  0  0  0  0  0  0
   56.1170   29.3260   44.8160 C   0  0  0  0  0  0  0  0  0  0  0  0
   57.3060   28.9890   45.4700 C   0  0  0  0  0  0  0  0  0  0  0  0
   61.0431   27.7424   46.1281 H   0  0  0  0  0  0  0  0  0  0  0  0
   59.9707   27.6301   44.6915 H   0  0  0  0  0  0  0  0  0  0  0  0
   61.3553   28.7745   44.6915 H   0  0  0  0  0  0  0  0  0  0  0  0
   59.3432   28.8359   48.6208 H   0  0  0  0  0  0  0  0  0  0  0  0
   61.1068   28.6178   48.3017 H   0  0  0  0  0  0  0  0  0  0  0  0
   62.7825   30.3065   49.3690 H   0  0  0  0  0  0  0  0  0  0  0  0
   62.5873   32.8966   52.3395 H   0  0  0  0  0  0  0  0  0  0  0  0
   63.7294   31.6757   51.6576 H   0  0  0  0  0  0  0  0  0  0  0  0
   64.1500   34.0940   50.8470 H   0  0  0  0  0  0  0  0  0  0  0  0
   64.8781   32.4275   48.3802 H   0  0  0  0  0  0  0  0  0  0  0  0
   64.2019   32.5386   45.9871 H   0  0  0  0  0  0  0  0  0  0  0  0
   62.0531   33.6135   45.3360 H   0  0  0  0  0  0  0  0  0  0  0  0
   60.3373   35.8588   46.9679 H   0  0  0  0  0  0  0  0  0  0  0  0
   59.8126   35.2517   44.9149 H   0  0  0  0  0  0  0  0  0  0  0  0
   60.3070   33.5335   45.2381 H   0  0  0  0  0  0  0  0  0  0  0  0
   57.5900   34.7972   45.8247 H   0  0  0  0  0  0  0  0  0  0  0  0
   57.9821   33.5799   44.5482 H   0  0  0  0  0  0  0  0  0  0  0  0
   58.5450   32.0170   46.2060 H   0  0  0  0  0  0  0  0  0  0  0  0
   57.4319   33.2232   48.5046 H   0  0  0  0  0  0  0  0  0  0  0  0
   59.0523   32.3975   48.2442 H   0  0  0  0  0  0  0  0  0  0  0  0
   58.3621   35.3375   48.0428 H   0  0  0  0  0  0  0  0  0  0  0  0
   59.6176   34.4833   49.0553 H   0  0  0  0  0  0  0  0  0  0  0  0
   61.2218   34.4596   49.5017 H   0  0  0  0  0  0  0  0  0  0  0  0
   60.3461   33.4116   52.5642 H   0  0  0  0  0  0  0  0  0  0  0  0
   57.8244   33.4347   52.5517 H   0  0  0  0  0  0  0  0  0  0  0  0
   56.5621   31.9157   51.0156 H   0  0  0  0  0  0  0  0  0  0  0  0
   57.8002   30.3579   49.4713 H   0  0  0  0  0  0  0  0  0  0  0  0
   59.3827   31.3104   44.0484 H   0  0  0  0  0  0  0  0  0  0  0  0
   57.2564   31.9070   42.8863 H   0  0  0  0  0  0  0  0  0  0  0  0
   55.1637   30.6392   43.3772 H   0  0  0  0  0  0  0  0  0  0  0  0
   55.1944   28.7665   45.0299 H   0  0  0  0  0  0  0  0  0  0  0  0
   57.3170   28.1632   46.1966 H   0  0  0  0  0  0  0  0  0  0  0  0
  1  2  1  0
  2  3  1  0
  3  4  2  0
  3  5  1  0
  5  6  1  0
  6  7  1  0
  7  8  2  0
  8  9  1  0
  9 10  1  0
 10 11  1  0
 11 12  2  0
 12 13  1  0
 13 14  2  0
 14 15  1  0
 15 16  1  0
 16 17  1  0
 17 18  1  0
 18 19  1  0
 19 20  1  0
 20 21  1  0
 15 22  2  0
  8 23  1  0
 23 24  2  0
 24 25  1  0
 25 26  2  0
 26 27  1  0
 27 28  2  0
  2 29  1  0
 29 30  2  0
 30 31  1  0
 31 32  2  0
 32 33  1  0
 33 34  2  0
 28  6  1  0
 34 29  1  0
 22 11  1  0
 28 23  1  0
 21 16  1  0
  1 35  1  0
  1 36  1  0
  1 37  1  0
  5 38  1  0
  5 39  1  0
  7 40  1  0
  9 41  1  0
  9 42  1  0
 10 43  1  0
 12 44  1  0
 13 45  1  0
 14 46  1  0
 16 47  1  0
 17 48  1  0
 17 49  1  0
 18 50  1  0
 18 51  1  0
 19 52  1  0
 20 53  1  0
 20 54  1  0
 21 55  1  0
 21 56  1  0
 22 57  1  0
 24 58  1  0
 25 59  1  0
 26 60  1  0
 27 61  1  0
 30 62  1  0
 31 63  1  0
 32 64  1  0
 33 65  1  0
 34 66  1  0
M  END
>  <UniqueID>  (70) 
68

>  <SMILES>  (70) 
CN(C(=O)Cn1cc(CNc2cccc(C3CCNCC3)c2)c2ccccc21)c1ccccc1

>  <Energy>  (70) 
117.39870602229854

>  <Genealogy>  (70) 
CN(C(=O)Cn1cc(CNc2cccc(C3CCNCC3)c2)c2ccccc21)c1ccccc1 (3D coordinates assigned)
CN(C(=O)Cn1cc(CNc2cccc(C3CCNCC3)c2)c2ccccc21)c1ccccc1 (nonaromatic ring conformer: 117.39870602229854 kcal/mol)

>  <smiles>  (70) 
CN(C(=O)Cn1cc(CNc2cccc(C3CCNCC3)c2)c2ccccc21)c1ccccc1

>  <score_type>  (70) 
oracle

>  <origin>  (70) 
adg

>  <m_score__min__energy>  (70) 
-10.15

>  <m_primary>  (70) 
energy

$$$$
70:0
     RDKit          3D

 26 27  0  0  0  0  0  0  0  0999 V2000
   59.6875   27.1273   46.1591 H   0  0  0  0  0  0  0  0  0  0  0  0
   59.8820   28.1050   45.6940 C   0  0  0  0  0  0  0  0  0  0  0  0
   60.9146   28.4137   45.4739 H   0  0  0  0  0  0  0  0  0  0  0  0
   58.8560   28.9240   45.3940 C   0  0  0  0  0  0  0  0  0  0  0  0
   59.1810   30.1600   44.8000 C   0  0  0  0  0  0  0  0  0  0  0  0
   60.2283   30.4962   44.7869 H   0  0  0  0  0  0  0  0  0  0  0  0
   58.1970   30.9610   44.2300 C   0  0  0  0  0  0  0  0  0  0  0  0
   58.4687   31.9258   43.7769 H   0  0  0  0  0  0  0  0  0  0  0  0
   56.8730   30.5450   44.2320 C   0  0  0  0  0  0  0  0  0  0  0  0
   56.1088   31.1531   43.7258 H   0  0  0  0  0  0  0  0  0  0  0  0
   56.5040   29.3600   44.8720 C   0  0  0  0  0  0  0  0  0  0  0  0
   55.1530   29.0160   44.8740 O   0  0  0  0  0  0  0  0  0  0  0  0
   57.4710   28.5570   45.5330 C   0  0  0  0  0  0  0  0  0  0  0  0
   57.0190   27.5120   46.2800 C   0  0  0  0  0  0  0  0  0  0  0  0
   56.7816   27.7234   47.3331 H   0  0  0  0  0  0  0  0  0  0  0  0
   56.8150   26.1220   45.8190 C   0  0  0  0  0  0  0  0  0  0  0  0
   57.9310   25.3640   45.4320 C   0  0  0  0  0  0  0  0  0  0  0  0
   58.9383   25.8014   45.4957 H   0  0  0  0  0  0  0  0  0  0  0  0
   57.7690   24.0560   44.9660 C   0  0  0  0  0  0  0  0  0  0  0  0
   58.6496   23.4626   44.6790 H   0  0  0  0  0  0  0  0  0  0  0  0
   56.4910   23.5010   44.8640 C   0  0  0  0  0  0  0  0  0  0  0  0
   56.3668   22.4679   44.5073 H   0  0  0  0  0  0  0  0  0  0  0  0
   55.3710   24.2580   45.2150 C   0  0  0  0  0  0  0  0  0  0  0  0
   54.3652   23.8214   45.1265 H   0  0  0  0  0  0  0  0  0  0  0  0
   55.5230   25.5700   45.6790 C   0  0  0  0  0  0  0  0  0  0  0  0
   54.3920   26.3190   45.9820 O   0  0  0  0  0  0  0  0  0  0  0  0
  1  2  1  0
  2  3  1  0
  2  4  2  0
  4  5  1  0
  5  6  1  0
  5  7  2  0
  7  8  1  0
  7  9  1  0
  9 10  1  0
  9 11  2  0
 11 12  1  0
 11 13  1  0
 13 14  2  0
 14 15  1  0
 14 16  1  0
 16 17  2  0
 17 18  1  0
 17 19  1  0
 19 20  1  0
 19 21  2  0
 21 22  1  0
 21 23  1  0
 23 24  1  0
 23 25  2  0
 25 26  1  0
 13  4  1  0
 25 16  1  0
M  CHG  2  12  -1  26  -1
M  END
>  <UniqueID>  (71) 
69

>  <SMILES>  (71) 
C=c1cccc([O-])/c1=C/c1ccccc1[O-]

>  <Energy>  (71) 
51.31542596244528

>  <Genealogy>  (71) 
C=c1cccc([O-])c1=Cc1ccccc1[O-] (protonated)
C=c1cccc([O-])/c1=C/c1ccccc1[O-] (cis-trans isomerization)
C=c1cccc([O-])/c1=C/c1ccccc1[O-] (3D coordinates assigned)
C=c1cccc([O-])/c1=C/c1ccccc1[O-] (optimized conformer: 51.31542596244528 kcal/mol)

>  <smiles>  (71) 
C=c1cccc(O)c1=Cc1ccccc1O

>  <score_type>  (71) 
oracle

>  <origin>  (71) 
adg

>  <m_score__min__energy>  (71) 
-14.26

>  <m_primary>  (71) 
energy

$$$$
71:0
     RDKit          3D

 29 30  0  0  0  0  0  0  0  0999 V2000
   59.6020   36.7730   46.7400 H   0  0  0  0  0  0  0  0  0  0  0  0
   59.6900   36.0350   46.0500 O   0  0  0  0  0  0  0  0  0  0  0  0
   59.1630   34.7640   46.2720 C   0  0  0  0  0  0  0  0  0  0  0  0
   59.1260   34.2220   47.5620 C   0  0  0  0  0  0  0  0  0  0  0  0
   59.5220   34.7980   48.4114 H   0  0  0  0  0  0  0  0  0  0  0  0
   58.5870   32.9510   47.7720 C   0  0  0  0  0  0  0  0  0  0  0  0
   58.5390   32.4220   49.0560 O   0  0  0  0  0  0  0  0  0  0  0  0
   58.0920   32.2100   46.6930 C   0  0  0  0  0  0  0  0  0  0  0  0
   57.6643   31.2112   46.8650 H   0  0  0  0  0  0  0  0  0  0  0  0
   58.1390   32.7380   45.3860 C   0  0  0  0  0  0  0  0  0  0  0  0
   57.6150   32.0000   44.2090 C   0  0  0  0  0  0  0  0  0  0  0  0
   58.1536   32.0968   43.2548 H   0  0  0  0  0  0  0  0  0  0  0  0
   56.5240   31.2230   44.2420 C   0  0  0  0  0  0  0  0  0  0  0  0
   55.5478   31.6885   44.4429 H   0  0  0  0  0  0  0  0  0  0  0  0
   56.5840   29.7680   44.0190 C   0  0  0  0  0  0  0  0  0  0  0  0
   57.0100   29.3440   42.9110 O   0  0  0  0  0  0  0  0  0  0  0  0
   56.1660   28.8550   45.0500 N   0  0  0  0  0  0  0  0  0  0  0  0
   56.8470   27.8580   45.5410 C   0  0  0  0  0  0  0  0  0  0  0  0
   58.2110   27.8890   45.5900 N   0  0  0  0  0  0  0  0  0  0  0  0
   58.9370   26.8590   46.0990 C   0  0  0  0  0  0  0  0  0  0  0  0
   60.0351   26.9201   46.1224 H   0  0  0  0  0  0  0  0  0  0  0  0
   58.2920   25.7240   46.5920 C   0  0  0  0  0  0  0  0  0  0  0  0
   58.8748   24.8872   47.0045 H   0  0  0  0  0  0  0  0  0  0  0  0
   56.8980   25.6640   46.5550 C   0  0  0  0  0  0  0  0  0  0  0  0
   56.3754   24.7759   46.9399 H   0  0  0  0  0  0  0  0  0  0  0  0
   56.1660   26.7320   46.0290 C   0  0  0  0  0  0  0  0  0  0  0  0
   54.7780   26.6700   45.9940 O   0  0  0  0  0  0  0  0  0  0  0  0
   58.6660   34.0260   45.1920 C   0  0  0  0  0  0  0  0  0  0  0  0
   58.6881   34.4586   44.1809 H   0  0  0  0  0  0  0  0  0  0  0  0
  1  2  1  0
  2  3  1  0
  3  4  2  0
  4  5  1  0
  4  6  1  0
  6  7  1  0
  6  8  2  0
  8  9  1  0
  8 10  1  0
 10 11  1  0
 11 12  1  0
 11 13  2  3
 13 14  1  0
 13 15  1  0
 15 16  2  0
 15 17  1  0
 17 18  2  0
 18 19  1  0
 19 20  1  0
 20 21  1  0
 20 22  2  0
 22 23  1  0
 22 24  1  0
 24 25  1  0
 24 26  2  0
 26 27  1  0
 10 28  2  0
 28 29  1  0
 28  3  1  0
 26 18  1  0
M  CHG  3   7  -1  19  -1  27  -1
M  END
>  <UniqueID>  (72) 
70

>  <SMILES>  (72) 
O=C(C=Cc1cc([O-])cc(O)c1)/N=c1\[n-]cccc1[O-]

>  <Energy>  (72) 
34.68980048688548

>  <Genealogy>  (72) 
O=C(C=Cc1cc([O-])cc(O)c1)N=c1[n-]cccc1[O-] (protonated)
O=C(C=Cc1cc([O-])cc(O)c1)/N=c1\[n-]cccc1[O-] (cis-trans isomerization)
O=C(C=Cc1cc([O-])cc(O)c1)/N=c1\[n-]cccc1[O-] (3D coordinates assigned)
O=C(C=Cc1cc([O-])cc(O)c1)/N=c1\[n-]cccc1[O-] (optimized conformer: 34.68980048688548 kcal/mol)

>  <smiles>  (72) 
O=C(C=Cc1cc(O)cc(O)c1)N=c1[nH]cccc1O

>  <score_type>  (72) 
oracle

>  <origin>  (72) 
adg

>  <m_score__min__energy>  (72) 
-14.029999999999999

>  <m_primary>  (72) 
energy

$$$$
72:0
     RDKit          3D

 58 61  0  0  0  0  0  0  0  0999 V2000
   60.9430   30.5910   53.5660 C   0  0  0  0  0  0  0  0  0  0  0  0
   59.7900   30.5000   52.7370 O   0  0  0  0  0  0  0  0  0  0  0  0
   59.7920   30.0130   51.4200 C   0  0  0  0  0  0  0  0  0  0  0  0
   60.9840   29.6680   50.7550 C   0  0  0  0  0  0  0  0  0  0  0  0
   60.9470   29.1770   49.4480 C   0  0  0  0  0  0  0  0  0  0  0  0
   59.7240   29.0230   48.7810 C   0  0  0  0  0  0  0  0  0  0  0  0
   59.6980   28.4900   47.4040 C   0  0  0  0  0  0  0  0  0  0  0  0
   60.6680   27.7270   46.8610 N   0  0  0  0  0  0  0  0  0  0  0  0
   60.2870   27.4660   45.6190 N   0  0  0  0  0  0  0  0  0  0  0  0
   59.1020   28.0800   45.4550 C   0  0  0  0  0  0  0  0  0  0  0  0
   58.1600   28.0550   43.9320 S   0  0  0  0  0  0  0  0  0  0  0  0
   57.9530   29.8700   43.8770 C   0  0  0  0  0  0  0  0  0  0  0  0
   56.7830   30.2960   44.7230 C   0  0  0  0  0  0  0  0  0  0  0  0
   55.8450   29.4810   44.9210 O   0  0  0  0  0  0  0  0  0  0  0  0
   56.6480   31.6380   45.2110 N   0  0  0  0  0  0  0  0  0  0  0  0
   57.7190   32.5750   45.3860 C   0  0  0  0  0  0  0  0  0  0  0  0
   57.6350   33.8290   44.7710 C   0  0  0  0  0  0  0  0  0  0  0  0
   58.6730   34.7550   44.9170 C   0  0  0  0  0  0  0  0  0  0  0  0
   59.7930   34.4370   45.6910 C   0  0  0  0  0  0  0  0  0  0  0  0
   59.8670   33.2010   46.3440 C   0  0  0  0  0  0  0  0  0  0  0  0
   61.3030   32.8010   47.2860 S   0  0  0  0  0  0  0  0  0  0  0  0
   62.5320   33.3590   46.6160 O   0  0  0  0  0  0  0  0  0  0  0  0
   61.4290   31.3030   47.3650 O   0  0  0  0  0  0  0  0  0  0  0  0
   61.1450   33.4680   48.8910 N   0  0  0  0  0  0  0  0  0  0  0  0
   62.0760   32.7870   49.8080 C   0  0  0  0  0  0  0  0  0  0  0  0
   61.8680   33.3130   51.2340 C   0  0  0  0  0  0  0  0  0  0  0  0
   60.5330   33.1030   51.6550 O   0  0  0  0  0  0  0  0  0  0  0  0
   59.6450   33.8060   50.8050 C   0  0  0  0  0  0  0  0  0  0  0  0
   59.7620   33.3010   49.3620 C   0  0  0  0  0  0  0  0  0  0  0  0
   58.8250   32.2760   46.1980 C   0  0  0  0  0  0  0  0  0  0  0  0
   58.7310   28.7060   46.5440 O   0  0  0  0  0  0  0  0  0  0  0  0
   58.5330   29.3720   49.4380 C   0  0  0  0  0  0  0  0  0  0  0  0
   58.5620   29.8690   50.7570 C   0  0  0  0  0  0  0  0  0  0  0  0
   57.3910   30.2240   51.4450 O   0  0  0  0  0  0  0  0  0  0  0  0
   56.9730   31.5640   51.6900 C   0  0  0  0  0  0  0  0  0  0  0  0
   60.6378   30.5669   54.6225 H   0  0  0  0  0  0  0  0  0  0  0  0
   61.6119   29.7429   53.3582 H   0  0  0  0  0  0  0  0  0  0  0  0
   61.4706   31.5336   53.3582 H   0  0  0  0  0  0  0  0  0  0  0  0
   61.9500   29.7858   51.2677 H   0  0  0  0  0  0  0  0  0  0  0  0
   61.8844   28.9093   48.9385 H   0  0  0  0  0  0  0  0  0  0  0  0
   58.8672   30.3497   44.2566 H   0  0  0  0  0  0  0  0  0  0  0  0
   57.7674   30.1743   42.8363 H   0  0  0  0  0  0  0  0  0  0  0  0
   56.7500   34.0873   44.1709 H   0  0  0  0  0  0  0  0  0  0  0  0
   58.6080   35.7352   44.4220 H   0  0  0  0  0  0  0  0  0  0  0  0
   60.6172   35.1591   45.7870 H   0  0  0  0  0  0  0  0  0  0  0  0
   61.8857   31.7038   49.7856 H   0  0  0  0  0  0  0  0  0  0  0  0
   63.1110   32.9848   49.4923 H   0  0  0  0  0  0  0  0  0  0  0  0
   62.5493   32.7843   51.9168 H   0  0  0  0  0  0  0  0  0  0  0  0
   62.0771   34.3929   51.2466 H   0  0  0  0  0  0  0  0  0  0  0  0
   58.6137   33.6566   51.1573 H   0  0  0  0  0  0  0  0  0  0  0  0
   59.9052   34.8745   50.8279 H   0  0  0  0  0  0  0  0  0  0  0  0
   59.4883   32.2363   49.3235 H   0  0  0  0  0  0  0  0  0  0  0  0
   59.0843   33.8792   48.7168 H   0  0  0  0  0  0  0  0  0  0  0  0
   58.8735   31.3102   46.7223 H   0  0  0  0  0  0  0  0  0  0  0  0
   57.5698   29.2567   48.9194 H   0  0  0  0  0  0  0  0  0  0  0  0
   56.9185   31.7386   52.7747 H   0  0  0  0  0  0  0  0  0  0  0  0
   57.6963   32.2614   51.2422 H   0  0  0  0  0  0  0  0  0  0  0  0
   55.9815   31.7265   51.2422 H   0  0  0  0  0  0  0  0  0  0  0  0
  1  2  1  0
  2  3  1  0
  3  4  2  0
  4  5  1  0
  5  6  2  0
  6  7  1  0
  7  8  2  0
  8  9  1  0
  9 10  2  0
 10 11  1  0
 11 12  1  0
 12 13  1  0
 13 14  2  0
 13 15  1  0
 15 16  1  0
 16 17  2  0
 17 18  1  0
 18 19  2  0
 19 20  1  0
 20 21  1  0
 21 22  2  0
 21 23  2  0
 21 24  1  0
 24 25  1  0
 25 26  1  0
 26 27  1  0
 27 28  1  0
 28 29  1  0
 20 30  2  0
 10 31  1  0
  6 32  1  0
 32 33  2  0
 33 34  1  0
 34 35  1  0
 33  3  1  0
 31  7  1  0
 30 16  1  0
 29 24  1  0
  1 36  1  0
  1 37  1  0
  1 38  1  0
  4 39  1  0
  5 40  1  0
 12 41  1  0
 12 42  1  0
 17 43  1  0
 18 44  1  0
 19 45  1  0
 25 46  1  0
 25 47  1  0
 26 48  1  0
 26 49  1  0
 28 50  1  0
 28 51  1  0
 29 52  1  0
 29 53  1  0
 30 54  1  0
 32 55  1  0
 35 56  1  0
 35 57  1  0
 35 58  1  0
M  CHG  1  15  -1
M  END
>  <UniqueID>  (73) 
71

>  <SMILES>  (73) 
COc1ccc(-c2nnc(SCC(=O)[N-]c3cccc(S(=O)(=O)N4CCOCC4)c3)o2)cc1OC

>  <Energy>  (73) 
95.66658078877904

>  <Genealogy>  (73) 
COc1ccc(-c2nnc(SCC(=O)[N-]c3cccc(S(=O)(=O)N4CCOCC4)c3)o2)cc1OC (protonated)
COc1ccc(-c2nnc(SCC(=O)[N-]c3cccc(S(=O)(=O)N4CCOCC4)c3)o2)cc1OC (3D coordinates assigned)
COc1ccc(-c2nnc(SCC(=O)[N-]c3cccc(S(=O)(=O)N4CCOCC4)c3)o2)cc1OC (nonaromatic ring conformer: 95.66658078877904 kcal/mol)

>  <smiles>  (73) 
COc1ccc(-c2nnc(SCC(=O)Nc3cccc(S(=O)(=O)N4CCOCC4)c3)o2)cc1OC

>  <score_type>  (73) 
oracle

>  <origin>  (73) 
adg

>  <m_score__min__energy>  (73) 
-12.08

>  <m_primary>  (73) 
energy

$$$$
73:0
     RDKit          3D

 62 65  0  0  1  0  0  0  0  0999 V2000
   67.1340   32.5230   50.5540 C   0  0  0  0  0  0  0  0  0  0  0  0
   65.6040   32.4740   50.6770 C   0  0  0  0  0  0  0  0  0  0  0  0
   65.1160   33.5570   49.8760 N   0  0  0  0  0  0  0  0  0  0  0  0
   64.0060   33.4580   49.2640 C   0  0  0  0  0  0  0  0  0  0  0  0
   64.0510   32.9880   47.9840 N   0  0  0  0  0  0  0  0  0  0  0  0
   62.9760   32.8300   47.2240 C   0  0  0  0  0  0  0  0  0  0  0  0
   61.7390   33.1680   47.7830 C   0  0  0  0  0  0  0  0  0  0  0  0
   60.5240   33.0210   46.9830 C   0  0  0  0  0  0  0  0  0  0  0  0
   59.6770   31.9810   47.3520 C   0  0  0  0  0  0  0  0  0  0  0  0
   58.5000   31.7510   46.6610 C   0  0  0  0  0  0  0  0  0  0  0  0
   58.1820   32.5840   45.5870 C   0  0  0  0  0  0  0  0  0  0  0  0
   56.9580   32.3050   44.9100 N   0  0  0  0  0  0  0  0  0  0  0  0
   56.5890   30.8260   44.1600 S   0  0  0  0  0  0  0  0  0  0  0  0
   56.6620   30.8780   42.6640 O   0  0  0  0  0  0  0  0  0  0  0  0
   55.1710   30.4540   44.4920 O   0  0  0  0  0  0  0  0  0  0  0  0
   57.6340   29.5060   44.7030 C   0  0  0  0  0  0  0  0  0  0  0  0
   57.1080   28.3970   45.3530 C   0  0  0  0  0  0  0  0  0  0  0  0
   57.9130   27.3570   45.7830 C   0  0  0  0  0  0  0  0  0  0  0  0
   59.2830   27.4280   45.5580 C   0  0  0  0  0  0  0  0  0  0  0  0
   59.8360   28.5130   44.9180 C   0  0  0  0  0  0  0  0  0  0  0  0
   59.0050   29.5440   44.4960 C   0  0  0  0  0  0  0  0  0  0  0  0
   59.0260   33.6160   45.2220 C   0  0  0  0  0  0  0  0  0  0  0  0
   60.2160   33.8480   45.9210 C   0  0  0  0  0  0  0  0  0  0  0  0
   61.6910   33.6490   49.0940 C   0  0  0  0  0  0  0  0  0  0  0  0
   60.5470   33.9450   49.5790 N   0  0  0  0  0  0  0  0  0  0  0  0
   60.2740   33.8260   50.9820 C   0  0  0  0  0  0  0  0  0  0  0  0
   59.2450   32.7620   51.2560 C   0  0  0  0  0  0  0  0  0  0  0  0
   59.3380   31.5000   50.7010 C   0  0  0  0  0  0  0  0  0  0  0  0
   58.4190   30.5030   50.9240 C   0  0  0  0  0  0  0  0  0  0  0  0
   57.3500   30.8020   51.7550 C   0  0  0  0  0  0  0  0  0  0  0  0
   56.4240   29.7930   51.9770 O   0  0  0  0  0  0  0  0  0  0  0  0
   55.2320   30.0930   52.6740 C   0  0  0  0  0  0  0  0  0  0  0  0
   57.2210   32.0500   52.3280 C   0  0  0  0  0  0  0  0  0  0  0  0
   58.1620   33.0560   52.0930 C   0  0  0  0  0  0  0  0  0  0  0  0
   62.8270   33.7780   49.7910 N   0  0  0  0  0  0  0  0  0  0  0  0
   67.5823   32.5374   51.5584 H   0  0  0  0  0  0  0  0  0  0  0  0
   67.4865   31.6357   50.0078 H   0  0  0  0  0  0  0  0  0  0  0  0
   67.4290   33.4311   50.0078 H   0  0  0  0  0  0  0  0  0  0  0  0
   65.2194   31.5147   50.3003 H   0  0  0  0  0  0  0  0  0  0  0  0
   65.2777   32.5638   51.7236 H   0  0  0  0  0  0  0  0  0  0  0  0
   64.9850   32.7280   47.5520 H   0  0  0  0  0  0  0  0  0  0  0  0
   63.0538   32.4485   46.1952 H   0  0  0  0  0  0  0  0  0  0  0  0
   59.9452   31.3352   48.2011 H   0  0  0  0  0  0  0  0  0  0  0  0
   57.8293   30.9291   46.9520 H   0  0  0  0  0  0  0  0  0  0  0  0
   56.2680   33.1180   44.9040 H   0  0  0  0  0  0  0  0  0  0  0  0
   56.0237   28.3441   45.5305 H   0  0  0  0  0  0  0  0  0  0  0  0
   57.4756   26.4873   46.2951 H   0  0  0  0  0  0  0  0  0  0  0  0
   59.9325   26.6070   45.8957 H   0  0  0  0  0  0  0  0  0  0  0  0
   60.9208   28.5638   44.7427 H   0  0  0  0  0  0  0  0  0  0  0  0
   59.4459   30.4124   43.9847 H   0  0  0  0  0  0  0  0  0  0  0  0
   58.7593   34.2621   44.3726 H   0  0  0  0  0  0  0  0  0  0  0  0
   60.8891   34.6685   45.6317 H   0  0  0  0  0  0  0  0  0  0  0  0
   61.2053   33.5660   51.5065 H   0  0  0  0  0  0  0  0  0  0  0  0
   59.8787   34.7883   51.3393 H   0  0  0  0  0  0  0  0  0  0  0  0
   60.1938   31.2817   50.0453 H   0  0  0  0  0  0  0  0  0  0  0  0
   58.5268   29.5101   50.4630 H   0  0  0  0  0  0  0  0  0  0  0  0
   55.4188   30.0460   53.7570 H   0  0  0  0  0  0  0  0  0  0  0  0
   54.8939   31.1043   52.4038 H   0  0  0  0  0  0  0  0  0  0  0  0
   54.4554   29.3623   52.4038 H   0  0  0  0  0  0  0  0  0  0  0  0
   56.3613   32.2573   52.9822 H   0  0  0  0  0  0  0  0  0  0  0  0
   58.0549   34.0498   52.5522 H   0  0  0  0  0  0  0  0  0  0  0  0
   62.8010   34.1380   50.7680 H   0  0  0  0  0  0  0  0  0  0  0  0
  1  2  1  0
  2  3  1  0
  3  4  2  0
  4  5  1  0
  5  6  1  0
  6  7  2  0
  7  8  1  0
  8  9  2  0
  9 10  1  0
 10 11  2  0
 11 12  1  0
 12 13  1  0
 13 14  2  0
 13 15  2  0
 13 16  1  0
 16 17  2  0
 17 18  1  0
 18 19  2  0
 19 20  1  0
 20 21  2  0
 11 22  1  0
 22 23  2  0
  7 24  1  0
 24 25  2  0
 25 26  1  0
 26 27  1  0
 27 28  2  0
 28 29  1  0
 29 30  2  0
 30 31  1  0
 31 32  1  0
 30 33  1  0
 33 34  2  0
 24 35  1  0
 35  4  1  0
 23  8  1  0
 34 27  1  0
 21 16  1  0
  1 36  1  0
  1 37  1  0
  1 38  1  0
  2 39  1  0
  2 40  1  0
  5 41  1  0
  6 42  1  0
  9 43  1  0
 10 44  1  0
 12 45  1  0
 17 46  1  0
 18 47  1  0
 19 48  1  0
 20 49  1  0
 21 50  1  0
 22 51  1  0
 23 52  1  0
 26 53  1  0
 26 54  1  0
 28 55  1  0
 29 56  1  0
 32 57  1  0
 32 58  1  0
 32 59  1  0
 33 60  1  0
 34 61  1  0
 35 62  1  0
M  END
>  <smiles>  (74) 
CCN=c1[nH]cc(-c2ccc(NS(=O)(=O)c3ccccc3)cc2)c(=NCc2ccc(OC)cc2)[nH]1

>  <score_type>  (74) 
oracle

>  <origin>  (74) 
adg

>  <m_score__min__energy>  (74) 
-10.16

>  <m_primary>  (74) 
energy

$$$$
74:0
     RDKit          3D

 52 55  0  0  1  0  0  0  0  0999 V2000
   58.5590   32.0780   48.2900 C   0  0  0  0  0  0  0  0  0  0  0  0
   58.4560   32.5830   46.8660 C   0  0  0  0  0  0  0  0  0  0  0  0
   58.6880   33.9340   46.5810 C   0  0  0  0  0  0  0  0  0  0  0  0
   58.5980   34.2900   45.2580 C   0  0  0  0  0  0  0  0  0  0  0  0
   58.2920   33.3670   44.2480 C   0  0  0  0  0  0  0  0  0  0  0  0
   58.0690   32.0470   44.5410 C   0  0  0  0  0  0  0  0  0  0  0  0
   57.8290   31.0060   43.6380 N   0  0  0  0  0  0  0  0  0  0  0  0
   56.7290   30.1050   43.6780 C   0  0  0  0  0  0  0  0  0  0  0  0
   55.8770   30.2400   44.5670 O   0  0  0  0  0  0  0  0  0  0  0  0
   56.6550   29.0110   42.6270 C   0  0  0  0  0  0  0  0  0  0  0  0
   57.7350   27.6860   43.1800 S   0  0  0  0  0  0  0  0  0  0  0  0
   58.4040   27.8910   44.7980 C   0  0  0  0  0  0  0  0  0  0  0  0
   59.5860   28.6490   44.8840 C   0  0  0  0  0  0  0  0  0  0  0  0
   60.1970   28.9150   46.0820 C   0  0  0  0  0  0  0  0  0  0  0  0
   59.6520   28.4320   47.2540 C   0  0  0  0  0  0  0  0  0  0  0  0
   60.3070   28.8010   48.4910 C   0  0  0  0  0  0  0  0  0  0  0  0
   60.4750   28.3940   49.5720 N   0  0  0  0  0  0  0  0  0  0  0  0
   61.1350   28.8770   50.5710 N   0  0  0  0  0  0  0  0  0  0  0  0
   61.7310   30.0400   50.3560 C   0  0  0  0  0  0  0  0  0  0  0  0
   62.4450   30.7630   51.0970 N   0  0  0  0  0  0  0  0  0  0  0  0
   63.3180   31.7320   50.5800 C   0  0  0  0  0  0  0  0  0  0  0  0
   64.3790   31.9830   51.2370 O   0  0  0  0  0  0  0  0  0  0  0  0
   63.1400   32.4880   49.3590 C   0  0  0  0  0  0  0  0  0  0  0  0
   62.0960   33.3880   49.2990 C   0  0  0  0  0  0  0  0  0  0  0  0
   61.8460   34.1540   48.1500 C   0  0  0  0  0  0  0  0  0  0  0  0
   62.6890   33.9560   47.1040 C   0  0  0  0  0  0  0  0  0  0  0  0
   63.7350   33.0710   47.1330 C   0  0  0  0  0  0  0  0  0  0  0  0
   63.9790   32.3150   48.2750 C   0  0  0  0  0  0  0  0  0  0  0  0
   61.2920   30.4230   48.6090 S   0  0  0  0  0  0  0  0  0  0  0  0
   58.5030   27.6910   47.1760 C   0  0  0  0  0  0  0  0  0  0  0  0
   57.8880   27.4240   45.9620 C   0  0  0  0  0  0  0  0  0  0  0  0
   58.1630   31.6950   45.8930 C   0  0  0  0  0  0  0  0  0  0  0  0
   58.3891   32.9112   48.9877 H   0  0  0  0  0  0  0  0  0  0  0  0
   57.8013   31.2985   48.4583 H   0  0  0  0  0  0  0  0  0  0  0  0
   59.5614   31.6575   48.4583 H   0  0  0  0  0  0  0  0  0  0  0  0
   58.9274   34.6645   47.3678 H   0  0  0  0  0  0  0  0  0  0  0  0
   58.7727   35.3398   44.9798 H   0  0  0  0  0  0  0  0  0  0  0  0
   58.2299   33.7077   43.2040 H   0  0  0  0  0  0  0  0  0  0  0  0
   58.5320   30.8880   42.8590 H   0  0  0  0  0  0  0  0  0  0  0  0
   55.6222   28.6440   42.5345 H   0  0  0  0  0  0  0  0  0  0  0  0
   56.9661   29.3885   41.6417 H   0  0  0  0  0  0  0  0  0  0  0  0
   60.0348   29.0412   43.9594 H   0  0  0  0  0  0  0  0  0  0  0  0
   61.1202   29.5125   46.1089 H   0  0  0  0  0  0  0  0  0  0  0  0
   61.1930   28.3620   51.5080 H   0  0  0  0  0  0  0  0  0  0  0  0
   61.4421   33.5084   50.1753 H   0  0  0  0  0  0  0  0  0  0  0  0
   61.0152   34.8732   48.0996 H   0  0  0  0  0  0  0  0  0  0  0  0
   62.5235   34.5368   46.1846 H   0  0  0  0  0  0  0  0  0  0  0  0
   64.3830   32.9582   46.2513 H   0  0  0  0  0  0  0  0  0  0  0  0
   64.8148   31.6009   48.3138 H   0  0  0  0  0  0  0  0  0  0  0  0
   58.0560   27.2972   48.1007 H   0  0  0  0  0  0  0  0  0  0  0  0
   56.9665   26.8236   45.9429 H   0  0  0  0  0  0  0  0  0  0  0  0
   57.9900   30.6460   46.1751 H   0  0  0  0  0  0  0  0  0  0  0  0
  1  2  1  0
  2  3  2  0
  3  4  1  0
  4  5  2  0
  5  6  1  0
  6  7  1  0
  7  8  1  0
  8  9  2  0
  8 10  1  0
 10 11  1  0
 11 12  1  0
 12 13  2  0
 13 14  1  0
 14 15  2  0
 15 16  1  0
 16 17  2  0
 17 18  1  0
 18 19  1  0
 19 20  2  0
 20 21  1  0
 21 22  2  0
 21 23  1  0
 23 24  2  0
 24 25  1  0
 25 26  2  0
 26 27  1  0
 27 28  2  0
 19 29  1  0
 15 30  1  0
 30 31  2  0
  6 32  2  0
 32  2  1  0
 31 12  1  0
 29 16  1  0
 28 23  1  0
  1 33  1  0
  1 34  1  0
  1 35  1  0
  3 36  1  0
  4 37  1  0
  5 38  1  0
  7 39  1  0
 10 40  1  0
 10 41  1  0
 13 42  1  0
 14 43  1  0
 18 44  1  0
 24 45  1  0
 25 46  1  0
 26 47  1  0
 27 48  1  0
 28 49  1  0
 30 50  1  0
 31 51  1  0
 32 52  1  0
M  END
>  <smiles>  (75) 
Cc1cccc(NC(=O)CSc2ccc(-c3n[nH]c(=NC(=O)c4ccccc4)s3)cc2)c1

>  <score_type>  (75) 
oracle

>  <origin>  (75) 
adg

>  <m_score__min__energy>  (75) 
-10.220000000000001

>  <m_primary>  (75) 
energy

$$$$
75:0
     RDKit          3D

 33 34  0  0  0  0  0  0  0  0999 V2000
   58.1270   27.9480   44.2540 C   0  0  0  0  0  0  0  0  0  0  0  0
   58.0140   29.4310   44.4910 C   0  0  0  0  0  0  0  0  0  0  0  0
   58.7940   30.0290   45.4910 C   0  0  0  0  0  0  0  0  0  0  0  0
   58.7080   31.3990   45.7380 C   0  0  0  0  0  0  0  0  0  0  0  0
   57.8370   32.2110   44.9920 C   0  0  0  0  0  0  0  0  0  0  0  0
   57.7640   33.6720   45.2680 C   0  0  0  0  0  0  0  0  0  0  0  0
   56.6420   34.2000   45.5080 O   0  0  0  0  0  0  0  0  0  0  0  0
   59.0010   34.5360   45.2920 C   0  0  0  0  0  0  0  0  0  0  0  0
   59.8090   34.2850   46.4940 N   0  0  0  0  0  0  0  0  0  0  0  0
   59.2720   34.5080   47.7330 C   0  0  0  0  0  0  0  0  0  0  0  0
   60.0350   34.2990   48.8840 C   0  0  0  0  0  0  0  0  0  0  0  0
   61.3550   33.8700   48.7630 C   0  0  0  0  0  0  0  0  0  0  0  0
   61.9000   33.6570   47.4970 C   0  0  0  0  0  0  0  0  0  0  0  0
   63.7110   33.0790   47.3100 Br  0  0  0  0  0  0  0  0  0  0  0  0
   61.1080   33.8740   46.3640 C   0  0  0  0  0  0  0  0  0  0  0  0
   57.0520   31.6120   43.9880 C   0  0  0  0  0  0  0  0  0  0  0  0
   57.1240   30.2310   43.7360 C   0  0  0  0  0  0  0  0  0  0  0  0
   56.2700   29.6320   42.6500 C   0  0  0  0  0  0  0  0  0  0  0  0
   58.1669   27.4242   45.2205 H   0  0  0  0  0  0  0  0  0  0  0  0
   57.2528   27.6001   43.6842 H   0  0  0  0  0  0  0  0  0  0  0  0
   59.0439   27.7365   43.6842 H   0  0  0  0  0  0  0  0  0  0  0  0
   59.4813   29.4109   46.0873 H   0  0  0  0  0  0  0  0  0  0  0  0
   59.3294   31.8492   46.5262 H   0  0  0  0  0  0  0  0  0  0  0  0
   59.6077   34.3167   44.4010 H   0  0  0  0  0  0  0  0  0  0  0  0
   58.6862   35.5900   45.3011 H   0  0  0  0  0  0  0  0  0  0  0  0
   58.2318   34.8544   47.8229 H   0  0  0  0  0  0  0  0  0  0  0  0
   59.5972   34.4717   49.8782 H   0  0  0  0  0  0  0  0  0  0  0  0
   61.9650   33.6999   49.6625 H   0  0  0  0  0  0  0  0  0  0  0  0
   61.5323   33.7132   45.3620 H   0  0  0  0  0  0  0  0  0  0  0  0
   56.3707   32.2356   43.3906 H   0  0  0  0  0  0  0  0  0  0  0  0
   55.4497   29.0566   43.1040 H   0  0  0  0  0  0  0  0  0  0  0  0
   55.8525   30.4362   42.0263 H   0  0  0  0  0  0  0  0  0  0  0  0
   56.8840   28.9656   42.0263 H   0  0  0  0  0  0  0  0  0  0  0  0
  1  2  1  0
  2  3  2  0
  3  4  1  0
  4  5  2  0
  5  6  1  0
  6  7  2  0
  6  8  1  0
  8  9  1  0
  9 10  2  0
 10 11  1  0
 11 12  2  0
 12 13  1  0
 13 14  1  0
 13 15  2  0
  5 16  1  0
 16 17  2  0
 17 18  1  0
 17  2  1  0
 15  9  1  0
  1 19  1  0
  1 20  1  0
  1 21  1  0
  3 22  1  0
  4 23  1  0
  8 24  1  0
  8 25  1  0
 10 26  1  0
 11 27  1  0
 12 28  1  0
 15 29  1  0
 16 30  1  0
 18 31  1  0
 18 32  1  0
 18 33  1  0
M  CHG  1   9   1
M  END
>  <UniqueID>  (76) 
72

>  <SMILES>  (76) 
Cc1ccc(C(=O)C[n+]2cccc(Br)c2)cc1C

>  <Energy>  (76) 
35.88938943588982

>  <Genealogy>  (76) 
Cc1ccc(C(=O)C[n+]2cccc(Br)c2)cc1C (3D coordinates assigned)
Cc1ccc(C(=O)C[n+]2cccc(Br)c2)cc1C (optimized conformer: 35.88938943588982 kcal/mol)

>  <smiles>  (76) 
Cc1ccc(C(=O)C[n+]2cccc(Br)c2)cc1C

>  <score_type>  (76) 
oracle

>  <origin>  (76) 
adg

>  <m_score__min__energy>  (76) 
-6.0300000000000002

>  <m_primary>  (76) 
energy

$$$$
76:0
     RDKit          3D

 51 54  0  0  0  0  0  0  0  0999 V2000
   58.3680   27.6220   46.7040 C   0  0  0  0  0  0  0  0  0  0  0  0
   58.1340   29.0060   46.2680 N   0  0  0  0  0  0  0  0  0  0  0  0
   57.0580   29.3560   45.4820 C   0  0  0  0  0  0  0  0  0  0  0  0
   56.2130   28.4920   45.1220 O   0  0  0  0  0  0  0  0  0  0  0  0
   56.8900   30.6540   45.0730 N   0  0  0  0  0  0  0  0  0  0  0  0
   57.7690   31.6350   45.4170 C   0  0  0  0  0  0  0  0  0  0  0  0
   57.5880   32.8150   45.0180 O   0  0  0  0  0  0  0  0  0  0  0  0
   58.8560   31.2850   46.2120 C   0  0  0  0  0  0  0  0  0  0  0  0
   59.0140   29.9910   46.6060 C   0  0  0  0  0  0  0  0  0  0  0  0
   60.1580   29.8600   47.3030 N   0  0  0  0  0  0  0  0  0  0  0  0
   60.6710   31.1140   47.3200 C   0  0  0  0  0  0  0  0  0  0  0  0
   61.9300   31.4290   47.9280 N   0  0  0  0  0  0  0  0  0  0  0  0
   61.9670   31.5970   49.3920 C   0  0  0  0  0  0  0  0  0  0  0  0
   63.2880   31.1340   50.0290 C   0  0  0  0  0  0  0  0  0  0  0  0
   64.5160   31.9590   49.5980 C   0  0  0  0  0  0  0  0  0  0  0  0
   64.2060   33.2370   48.8010 C   0  0  0  0  0  0  0  0  0  0  0  0
   63.8120   32.9840   47.3370 C   0  0  0  0  0  0  0  0  0  0  0  0
   63.1050   31.6380   47.0670 C   0  0  0  0  0  0  0  0  0  0  0  0
   59.8950   32.0220   46.6660 N   0  0  0  0  0  0  0  0  0  0  0  0
   60.2350   33.4110   46.3420 C   0  0  0  0  0  0  0  0  0  0  0  0
   59.6770   34.3530   47.4040 C   0  0  0  0  0  0  0  0  0  0  0  0
   60.8680   34.5250   48.7710 S   0  0  0  0  0  0  0  0  0  0  0  0
   59.8060   33.6970   49.9490 C   0  0  0  0  0  0  0  0  0  0  0  0
   59.0170   32.6670   49.5430 N   0  0  0  0  0  0  0  0  0  0  0  0
   58.2070   32.0230   50.4230 C   0  0  0  0  0  0  0  0  0  0  0  0
   58.1790   32.4180   51.7610 C   0  0  0  0  0  0  0  0  0  0  0  0
   58.9940   33.4790   52.1570 C   0  0  0  0  0  0  0  0  0  0  0  0
   59.7910   34.0970   51.2470 N   0  0  0  0  0  0  0  0  0  0  0  0
   58.3751   27.5801   47.8032 H   0  0  0  0  0  0  0  0  0  0  0  0
   57.5664   26.9753   46.3176 H   0  0  0  0  0  0  0  0  0  0  0  0
   59.3376   27.2748   46.3176 H   0  0  0  0  0  0  0  0  0  0  0  0
   60.5730   28.9970   47.7160 H   0  0  0  0  0  0  0  0  0  0  0  0
   61.8232   32.6626   49.6240 H   0  0  0  0  0  0  0  0  0  0  0  0
   61.1678   30.9676   49.8104 H   0  0  0  0  0  0  0  0  0  0  0  0
   63.1889   31.2069   51.1221 H   0  0  0  0  0  0  0  0  0  0  0  0
   63.4617   30.1032   49.6866 H   0  0  0  0  0  0  0  0  0  0  0  0
   65.0648   32.2501   50.5058 H   0  0  0  0  0  0  0  0  0  0  0  0
   65.0928   31.3121   48.9206 H   0  0  0  0  0  0  0  0  0  0  0  0
   63.3751   33.7602   49.2968 H   0  0  0  0  0  0  0  0  0  0  0  0
   65.1315   33.8312   48.7821 H   0  0  0  0  0  0  0  0  0  0  0  0
   63.1354   33.7923   47.0226 H   0  0  0  0  0  0  0  0  0  0  0  0
   64.7539   32.9520   46.7697 H   0  0  0  0  0  0  0  0  0  0  0  0
   62.7794   31.6164   46.0165 H   0  0  0  0  0  0  0  0  0  0  0  0
   63.8244   30.8356   47.2874 H   0  0  0  0  0  0  0  0  0  0  0  0
   61.3291   33.5170   46.3014 H   0  0  0  0  0  0  0  0  0  0  0  0
   59.7955   33.6694   45.3673 H   0  0  0  0  0  0  0  0  0  0  0  0
   59.4927   35.3401   46.9549 H   0  0  0  0  0  0  0  0  0  0  0  0
   58.7356   33.9396   47.7949 H   0  0  0  0  0  0  0  0  0  0  0  0
   57.5738   31.1910   50.0812 H   0  0  0  0  0  0  0  0  0  0  0  0
   57.5300   31.9052   52.4862 H   0  0  0  0  0  0  0  0  0  0  0  0
   58.9911   33.8145   53.2046 H   0  0  0  0  0  0  0  0  0  0  0  0
  1  2  1  0
  2  3  1  0
  3  4  2  0
  3  5  1  0
  5  6  1  0
  6  7  2  0
  6  8  1  0
  8  9  2  0
  9 10  1  0
 10 11  2  0
 11 12  1  0
 12 13  1  0
 13 14  1  0
 14 15  1  0
 15 16  1  0
 16 17  1  0
 17 18  1  0
 11 19  1  0
 19 20  1  0
 20 21  1  0
 21 22  1  0
 22 23  1  0
 23 24  2  0
 24 25  1  0
 25 26  2  0
 26 27  1  0
 27 28  2  0
  9  2  1  0
 18 12  1  0
 28 23  1  0
 19  8  1  0
  1 29  1  0
  1 30  1  0
  1 31  1  0
 10 32  1  0
 13 33  1  0
 13 34  1  0
 14 35  1  0
 14 36  1  0
 15 37  1  0
 15 38  1  0
 16 39  1  0
 16 40  1  0
 17 41  1  0
 17 42  1  0
 18 43  1  0
 18 44  1  0
 20 45  1  0
 20 46  1  0
 21 47  1  0
 21 48  1  0
 25 49  1  0
 26 50  1  0
 27 51  1  0
M  CHG  2   5  -1  10   1
M  END
>  <UniqueID>  (77) 
73

>  <SMILES>  (77) 
Cn1c(=O)[n-]c(=O)c2c1[nH+]c(N1CCCCCC1)n2CCSc1ncccn1

>  <Energy>  (77) 
101.68411165815468

>  <Genealogy>  (77) 
Cn1c(=O)[n-]c(=O)c2c1[nH+]c(N1CCCCCC1)n2CCSc1ncccn1 (protonated)
Cn1c(=O)[n-]c(=O)c2c1[nH+]c(N1CCCCCC1)n2CCSc1ncccn1 (3D coordinates assigned)
Cn1c(=O)[n-]c(=O)c2c1[nH+]c(N1CCCCCC1)n2CCSc1ncccn1 (nonaromatic ring conformer: 101.68411165815468 kcal/mol)

>  <smiles>  (77) 
Cn1c(=O)[nH]c(=O)c2c1nc(N1CCCCCC1)n2CCSc1ncccn1

>  <score_type>  (77) 
oracle

>  <origin>  (77) 
adg

>  <m_score__min__energy>  (77) 
-5.4800000000000004

>  <m_primary>  (77) 
energy

$$$$
77:0
     RDKit          3D

 23 24  0  0  0  0  0  0  0  0999 V2000
   58.1360   33.4227   44.9492 H   0  0  0  0  0  0  0  0  0  0  0  0
   57.7020   32.5640   44.4160 C   0  0  0  0  0  0  0  0  0  0  0  0
   56.9940   31.6080   44.9720 O   0  0  0  0  0  0  0  0  0  0  0  0
   56.6390   30.7550   44.0390 C   0  0  0  0  0  0  0  0  0  0  0  0
   55.8380   29.5170   44.2950 C   0  0  0  0  0  0  0  0  0  0  0  0
   55.9492   28.8308   43.4425 H   0  0  0  0  0  0  0  0  0  0  0  0
   54.7814   29.7958   44.4210 H   0  0  0  0  0  0  0  0  0  0  0  0
   56.3010   28.8520   45.5120 N   0  0  0  0  0  0  0  0  0  0  0  0
   56.5170   27.5720   45.6250 C   0  0  0  0  0  0  0  0  0  0  0  0
   55.5040   26.7220   45.9460 N   0  0  0  0  0  0  0  0  0  0  0  0
   55.7270   25.3890   46.0660 C   0  0  0  0  0  0  0  0  0  0  0  0
   54.7810   24.6150   46.3640 O   0  0  0  0  0  0  0  0  0  0  0  0
   56.9740   24.8960   45.8630 N   0  0  0  0  0  0  0  0  0  0  0  0
   57.9840   25.7060   45.5470 N   0  0  0  0  0  0  0  0  0  0  0  0
   57.8030   27.0470   45.4160 C   0  0  0  0  0  0  0  0  0  0  0  0
   58.9680   27.9210   45.0630 C   0  0  0  0  0  0  0  0  0  0  0  0
   59.4485   28.2815   45.9845 H   0  0  0  0  0  0  0  0  0  0  0  0
   59.6943   27.3431   44.4727 H   0  0  0  0  0  0  0  0  0  0  0  0
   58.6164   28.7800   44.4727 H   0  0  0  0  0  0  0  0  0  0  0  0
   57.1330   31.1580   42.8150 C   0  0  0  0  0  0  0  0  0  0  0  0
   57.0060   30.6519   41.8466 H   0  0  0  0  0  0  0  0  0  0  0  0
   57.8190   32.3280   43.0610 C   0  0  0  0  0  0  0  0  0  0  0  0
   58.3522   32.9485   42.3257 H   0  0  0  0  0  0  0  0  0  0  0  0
  1  2  1  0
  2  3  1  0
  3  4  1  0
  4  5  1  0
  5  6  1  0
  5  7  1  0
  5  8  1  0
  8  9  2  0
  9 10  1  0
 10 11  1  0
 11 12  2  0
 11 13  1  0
 13 14  1  0
 14 15  2  0
 15 16  1  0
 16 17  1  0
 16 18  1  0
 16 19  1  0
  4 20  2  0
 20 21  1  0
 20 22  1  0
 22 23  1  0
 22  2  2  0
 15  9  1  0
M  CHG  2  10  -1  13  -1
M  END
>  <UniqueID>  (78) 
74

>  <SMILES>  (78) 
Cc1n[n-]c(=O)[n-]/c1=N\Cc1ccco1

>  <Energy>  (78) 
49.37382539088764

>  <Genealogy>  (78) 
Cc1n[n-]c(=O)[n-]c1=NCc1ccco1 (protonated)
Cc1n[n-]c(=O)[n-]/c1=N\Cc1ccco1 (cis-trans isomerization)
Cc1n[n-]c(=O)[n-]/c1=N\Cc1ccco1 (3D coordinates assigned)
Cc1n[n-]c(=O)[n-]/c1=N\Cc1ccco1 (optimized conformer: 49.37382539088764 kcal/mol)

>  <smiles>  (78) 
Cc1n[nH]c(=O)[nH]c1=NCc1ccco1

>  <score_type>  (78) 
oracle

>  <origin>  (78) 
adg

>  <m_score__min__energy>  (78) 
-9.8100000000000005

>  <m_primary>  (78) 
energy

$$$$
78:0
     RDKit          3D

 29 29  0  0  0  0  0  0  0  0999 V2000
   60.6606   27.7536   45.4600 H   0  0  0  0  0  0  0  0  0  0  0  0
   59.7260   27.9380   46.0100 C   0  0  0  0  0  0  0  0  0  0  0  0
   59.1040   29.2680   45.8600 C   0  0  0  0  0  0  0  0  0  0  0  0
   58.8270   29.9240   46.9000 O   0  0  0  0  0  0  0  0  0  0  0  0
   58.7220   29.8300   44.5150 C   0  0  0  0  0  0  0  0  0  0  0  0
   58.6646   30.9264   44.5835 H   0  0  0  0  0  0  0  0  0  0  0  0
   59.4828   29.5363   43.7768 H   0  0  0  0  0  0  0  0  0  0  0  0
   57.3890   29.2910   44.0810 C   0  0  0  0  0  0  0  0  0  0  0  0
   57.3500   28.3210   43.2780 O   0  0  0  0  0  0  0  0  0  0  0  0
   56.1290   29.8430   44.6040 C   0  0  0  0  0  0  0  0  0  0  0  0
   55.1500   29.0890   44.8520 O   0  0  0  0  0  0  0  0  0  0  0  0
   56.0100   31.2090   44.8250 O   0  0  0  0  0  0  0  0  0  0  0  0
   59.2460   26.9340   46.7620 C   0  0  0  0  0  0  0  0  0  0  0  0
   59.7581   26.7252   47.7128 H   0  0  0  0  0  0  0  0  0  0  0  0
   58.0840   26.0860   46.4150 C   0  0  0  0  0  0  0  0  0  0  0  0
   56.7810   26.6110   46.3730 C   0  0  0  0  0  0  0  0  0  0  0  0
   56.6083   27.6685   46.6217 H   0  0  0  0  0  0  0  0  0  0  0  0
   55.7050   25.7960   46.0170 C   0  0  0  0  0  0  0  0  0  0  0  0
   54.4170   26.3170   45.9910 O   0  0  0  0  0  0  0  0  0  0  0  0
   55.9220   24.4570   45.6810 C   0  0  0  0  0  0  0  0  0  0  0  0
   55.0691   23.8175   45.4096 H   0  0  0  0  0  0  0  0  0  0  0  0
   57.2160   23.9230   45.6870 C   0  0  0  0  0  0  0  0  0  0  0  0
   57.3820   22.5770   45.3300 O   0  0  0  0  0  0  0  0  0  0  0  0
   58.4470   22.0830   44.5230 C   0  0  0  0  0  0  0  0  0  0  0  0
   59.2540   21.7087   45.1699 H   0  0  0  0  0  0  0  0  0  0  0  0
   58.0767   21.2647   43.8880 H   0  0  0  0  0  0  0  0  0  0  0  0
   58.8326   22.8942   43.8880 H   0  0  0  0  0  0  0  0  0  0  0  0
   58.3000   24.7490   46.0470 C   0  0  0  0  0  0  0  0  0  0  0  0
   59.3223   24.3429   46.0394 H   0  0  0  0  0  0  0  0  0  0  0  0
  1  2  1  0
  2  3  1  0
  3  4  2  0
  3  5  1  0
  5  6  1  0
  5  7  1  0
  5  8  1  0
  8  9  2  0
  8 10  1  0
 10 11  2  0
 10 12  1  0
  2 13  2  0
 13 14  1  0
 13 15  1  0
 15 16  2  0
 16 17  1  0
 16 18  1  0
 18 19  1  0
 18 20  2  0
 20 21  1  0
 20 22  1  0
 22 23  1  0
 23 24  1  0
 24 25  1  0
 24 26  1  0
 24 27  1  0
 22 28  2  0
 28 29  1  0
 28 15  1  0
M  CHG  2  12  -1  19  -1
M  END
>  <UniqueID>  (79) 
75

>  <SMILES>  (79) 
COc1cc([O-])cc(/C=C\C(=O)CC(=O)C(=O)[O-])c1

>  <Energy>  (79) 
33.51823494040584

>  <Genealogy>  (79) 
COc1cc([O-])cc(C=CC(=O)CC(=O)C(=O)[O-])c1 (protonated)
COc1cc([O-])cc(/C=C\C(=O)CC(=O)C(=O)[O-])c1 (cis-trans isomerization)
COc1cc([O-])cc(/C=C\C(=O)CC(=O)C(=O)[O-])c1 (3D coordinates assigned)
COc1cc([O-])cc(/C=C\C(=O)CC(=O)C(=O)[O-])c1 (optimized conformer: 33.51823494040584 kcal/mol)

>  <smiles>  (79) 
COc1cc(O)cc(C=CC(=O)CC(=O)C(=O)O)c1

>  <score_type>  (79) 
oracle

>  <origin>  (79) 
adg

>  <m_score__min__energy>  (79) 
-12.380000000000001

>  <m_primary>  (79) 
energy

$$$$
79:0
     RDKit          3D

 64 64  0  0  0  0  0  0  0  0999 V2000
   60.6553   30.2582   48.7346 H   0  0  0  0  0  0  0  0  0  0  0  0
   59.7690   30.0420   48.1200 C   0  0  0  0  0  0  0  0  0  0  0  0
   59.6630   28.7430   47.5070 C   0  0  0  0  0  0  0  0  0  0  0  0
   59.5760   27.6630   46.9800 C   0  0  0  0  0  0  0  0  0  0  0  0
   59.4500   26.3540   46.3340 C   0  0  0  0  0  0  0  0  0  0  0  0
   60.2549   26.2323   45.5942 H   0  0  0  0  0  0  0  0  0  0  0  0
   59.5253   25.5633   47.0950 H   0  0  0  0  0  0  0  0  0  0  0  0
   58.1180   26.2560   45.6440 C   0  0  0  0  0  0  0  0  0  0  0  0
   57.6823   25.2530   45.5253 H   0  0  0  0  0  0  0  0  0  0  0  0
   57.4160   27.2970   45.1600 C   0  0  0  0  0  0  0  0  0  0  0  0
   56.4254   27.4884   45.5982 H   0  0  0  0  0  0  0  0  0  0  0  0
   57.8820   28.2220   44.0630 C   0  0  0  0  0  0  0  0  0  0  0  0
   58.8493   27.8635   43.6812 H   0  0  0  0  0  0  0  0  0  0  0  0
   57.1211   28.2231   43.2687 H   0  0  0  0  0  0  0  0  0  0  0  0
   58.0490   29.6610   44.5680 C   0  0  0  0  0  0  0  0  0  0  0  0
   58.0313   29.6610   45.6679 H   0  0  0  0  0  0  0  0  0  0  0  0
   59.0080   30.0537   44.1990 H   0  0  0  0  0  0  0  0  0  0  0  0
   56.9200   30.5580   44.0480 C   0  0  0  0  0  0  0  0  0  0  0  0
   56.6666   31.3000   44.8195 H   0  0  0  0  0  0  0  0  0  0  0  0
   57.2649   31.0565   43.1301 H   0  0  0  0  0  0  0  0  0  0  0  0
   55.6750   29.7390   43.7160 C   0  0  0  0  0  0  0  0  0  0  0  0
   54.9224   30.3903   43.2476 H   0  0  0  0  0  0  0  0  0  0  0  0
   55.9443   28.9295   43.0216 H   0  0  0  0  0  0  0  0  0  0  0  0
   55.1550   29.1950   44.8770 F   0  0  0  0  0  0  0  0  0  0  0  0
   58.8430   31.0010   47.9800 C   0  0  0  0  0  0  0  0  0  0  0  0
   57.9598   30.7636   47.3688 H   0  0  0  0  0  0  0  0  0  0  0  0
   58.9120   32.3950   48.5980 C   0  0  1  0  0  0  0  0  0  0  0  0
   59.9568   32.6319   48.8476 H   0  0  0  0  0  0  0  0  0  0  0  0
   58.4640   33.4970   47.5720 C   0  0  1  0  0  0  0  0  0  0  0  0
   57.5576   33.9674   47.9808 H   0  0  0  0  0  0  0  0  0  0  0  0
   59.5380   34.5880   47.4020 C   0  0  0  0  0  0  0  0  0  0  0  0
   59.8739   34.9293   48.3923 H   0  0  0  0  0  0  0  0  0  0  0  0
   60.3936   34.1768   46.8462 H   0  0  0  0  0  0  0  0  0  0  0  0
   59.1135   35.4370   46.8462 H   0  0  0  0  0  0  0  0  0  0  0  0
   58.1290   32.8680   46.1910 C   0  0  0  0  0  0  0  0  0  0  0  0
   57.4853   31.9907   46.3519 H   0  0  0  0  0  0  0  0  0  0  0  0
   59.0814   32.5951   45.7130 H   0  0  0  0  0  0  0  0  0  0  0  0
   57.4060   33.8390   45.2530 C   0  0  0  0  0  0  0  0  0  0  0  0
   56.8535   34.5810   45.8482 H   0  0  0  0  0  0  0  0  0  0  0  0
   58.1430   34.3531   44.6185 H   0  0  0  0  0  0  0  0  0  0  0  0
   56.7022   33.2803   44.6185 H   0  0  0  0  0  0  0  0  0  0  0  0
   58.1410   32.4240   49.8720 N   0  0  0  0  0  0  0  0  0  0  0  0
   58.2960   33.3280   50.3730 H   0  0  0  0  0  0  0  0  0  0  0  0
   57.1130   32.3460   49.6860 H   0  0  0  0  0  0  0  0  0  0  0  0
   58.4760   31.3340   50.7500 C   0  0  0  0  0  0  0  0  0  0  0  0
   57.6670   30.3780   50.9160 O   0  0  0  0  0  0  0  0  0  0  0  0
   59.7040   31.3670   51.4790 N   0  0  0  0  0  0  0  0  0  0  0  0
   60.6640   32.7960   51.6540 S   0  0  0  0  0  0  0  0  0  0  0  0
   60.5770   33.2930   53.0680 O   0  0  0  0  0  0  0  0  0  0  0  0
   60.1720   33.8570   50.7100 O   0  0  0  0  0  0  0  0  0  0  0  0
   62.3610   32.4020   51.2700 C   0  0  0  0  0  0  0  0  0  0  0  0
   63.0273   33.0649   51.8415 H   0  0  0  0  0  0  0  0  0  0  0  0
   62.5583   31.3537   51.5385 H   0  0  0  0  0  0  0  0  0  0  0  0
   62.6120   32.5910   49.7990 C   0  0  0  0  0  0  0  0  0  0  0  0
   63.0060   33.8470   49.3040 C   0  0  0  0  0  0  0  0  0  0  0  0
   63.0759   34.7074   49.9858 H   0  0  0  0  0  0  0  0  0  0  0  0
   63.3090   34.0060   47.9490 C   0  0  0  0  0  0  0  0  0  0  0  0
   63.6083   34.9923   47.5648 H   0  0  0  0  0  0  0  0  0  0  0  0
   63.2320   32.9120   47.0810 C   0  0  0  0  0  0  0  0  0  0  0  0
   63.4735   33.0381   46.0153 H   0  0  0  0  0  0  0  0  0  0  0  0
   62.8480   31.6570   47.5670 C   0  0  0  0  0  0  0  0  0  0  0  0
   62.7868   30.7977   46.8830 H   0  0  0  0  0  0  0  0  0  0  0  0
   62.5420   31.4950   48.9220 C   0  0  0  0  0  0  0  0  0  0  0  0
   62.2455   30.5065   49.3026 H   0  0  0  0  0  0  0  0  0  0  0  0
  1  2  1  0
  2  3  1  0
  3  4  3  0
  4  5  1  0
  5  6  1  0
  5  7  1  0
  5  8  1  0
  8  9  1  0
  8 10  2  0
 10 11  1  0
 10 12  1  0
 12 13  1  0
 12 14  1  0
 12 15  1  0
 15 16  1  0
 15 17  1  0
 15 18  1  0
 18 19  1  0
 18 20  1  0
 18 21  1  0
 21 22  1  0
 21 23  1  0
 21 24  1  0
  2 25  2  3
 25 26  1  0
 25 27  1  0
 27 28  1  1
 27 29  1  0
 29 30  1  1
 29 31  1  0
 31 32  1  0
 31 33  1  0
 31 34  1  0
 29 35  1  0
 35 36  1  0
 35 37  1  0
 35 38  1  0
 38 39  1  0
 38 40  1  0
 38 41  1  0
 27 42  1  0
 42 43  1  0
 42 44  1  0
 42 45  1  0
 45 46  2  0
 45 47  1  0
 47 48  1  0
 48 49  2  0
 48 50  2  0
 48 51  1  0
 51 52  1  0
 51 53  1  0
 51 54  1  0
 54 55  2  0
 55 56  1  0
 55 57  1  0
 57 58  1  0
 57 59  2  0
 59 60  1  0
 59 61  1  0
 61 62  1  0
 61 63  2  0
 63 64  1  0
 63 54  1  0
M  CHG  2  42   1  47  -1
M  END
>  <UniqueID>  (80) 
76

>  <SMILES>  (80) 
CC[C@H](C)[C@H](C=CC#CC/C=C\CCCCF)[NH2+]C(=O)[N-]S(=O)(=O)Cc1ccccc1

>  <Energy>  (80) 
44.18896515500722

>  <Genealogy>  (80) 
CCC(C)C(C=CC#CCC=CCCCCF)[NH2+]C(=O)[N-]S(=O)(=O)Cc1ccccc1 (protonated)
CC[C@H](C)[C@H](C=CC#CCC=CCCCCF)[NH2+]C(=O)[N-]S(=O)(=O)Cc1ccccc1 (chirality)
CC[C@H](C)[C@H](C=CC#CC/C=C\CCCCF)[NH2+]C(=O)[N-]S(=O)(=O)Cc1ccccc1 (cis-trans isomerization)
CC[C@H](C)[C@H](C=CC#CC/C=C\CCCCF)[NH2+]C(=O)[N-]S(=O)(=O)Cc1ccccc1 (3D coordinates assigned)
CC[C@H](C)[C@H](C=CC#CC/C=C\CCCCF)[NH2+]C(=O)[N-]S(=O)(=O)Cc1ccccc1 (optimized conformer: 44.18896515500722 kcal/mol)

>  <smiles>  (80) 
CCC(C)C(C=CC#CCC=CCCCCF)NC(=O)NS(=O)(=O)Cc1ccccc1

>  <score_type>  (80) 
oracle

>  <origin>  (80) 
adg

>  <m_score__min__energy>  (80) 
-7.4400000000000004

>  <m_primary>  (80) 
energy

$$$$
80:0
     RDKit          3D

 61 65  0  0  0  0  0  0  0  0999 V2000
   60.2760   30.1620   50.1520 C   0  0  0  0  0  0  0  0  0  0  0  0
   60.4720   31.4570   49.5920 O   0  0  0  0  0  0  0  0  0  0  0  0
   61.7130   32.1040   49.4940 C   0  0  0  0  0  0  0  0  0  0  0  0
   62.9240   31.4210   49.7240 C   0  0  0  0  0  0  0  0  0  0  0  0
   64.1460   32.0890   49.6070 C   0  0  0  0  0  0  0  0  0  0  0  0
   64.1760   33.4380   49.2550 C   0  0  0  0  0  0  0  0  0  0  0  0
   62.9840   34.1280   49.0300 C   0  0  0  0  0  0  0  0  0  0  0  0
   61.7480   33.4760   49.1570 C   0  0  0  0  0  0  0  0  0  0  0  0
   60.4770   34.2420   48.8770 C   0  0  0  0  0  0  0  0  0  0  0  0
   59.9070   33.8490   47.5460 C   0  0  0  0  0  0  0  0  0  0  0  0
   60.0490   34.6250   46.5610 O   0  0  0  0  0  0  0  0  0  0  0  0
   59.1920   32.6080   47.4050 N   0  0  0  0  0  0  0  0  0  0  0  0
   58.7090   32.0990   46.1500 C   0  0  0  0  0  0  0  0  0  0  0  0
   58.9810   30.7770   45.7460 C   0  0  0  0  0  0  0  0  0  0  0  0
   58.5090   30.2930   44.5170 C   0  0  0  0  0  0  0  0  0  0  0  0
   58.7940   28.9370   44.1340 N   0  0  0  0  0  0  0  0  0  0  0  0
   58.2220   27.7790   44.7670 C   0  0  0  0  0  0  0  0  0  0  0  0
   58.0420   27.7240   46.1540 C   0  0  0  0  0  0  0  0  0  0  0  0
   57.4810   26.5910   46.7470 C   0  0  0  0  0  0  0  0  0  0  0  0
   57.0840   25.4930   45.9680 C   0  0  0  0  0  0  0  0  0  0  0  0
   57.2110   25.5670   44.5710 C   0  0  0  0  0  0  0  0  0  0  0  0
   57.7850   26.7070   43.9810 C   0  0  0  0  0  0  0  0  0  0  0  0
   56.8060   24.4080   43.7150 C   0  0  0  0  0  0  0  0  0  0  0  0
   57.7630   23.2450   43.9670 C   0  0  0  0  0  0  0  0  0  0  0  0
   57.4090   22.4010   45.1750 C   0  0  0  0  0  0  0  0  0  0  0  0
   57.7390   21.0330   45.0900 C   0  0  0  0  0  0  0  0  0  0  0  0
   57.4740   20.1590   46.1390 C   0  0  0  0  0  0  0  0  0  0  0  0
   56.8870   20.6330   47.3040 C   0  0  0  0  0  0  0  0  0  0  0  0
   56.5710   21.9850   47.4270 C   0  0  0  0  0  0  0  0  0  0  0  0
   56.8290   22.9020   46.3830 C   0  0  0  0  0  0  0  0  0  0  0  0
   56.4580   24.3310   46.6380 C   0  0  0  0  0  0  0  0  0  0  0  0
   55.6060   24.5790   47.5350 O   0  0  0  0  0  0  0  0  0  0  0  0
   57.7100   31.1240   43.7130 C   0  0  0  0  0  0  0  0  0  0  0  0
   57.4130   32.4260   44.1230 C   0  0  0  0  0  0  0  0  0  0  0  0
   57.9070   32.9130   45.3360 C   0  0  0  0  0  0  0  0  0  0  0  0
   57.6100   34.1810   45.7140 F   0  0  0  0  0  0  0  0  0  0  0  0
   60.2866   30.2318   51.2497 H   0  0  0  0  0  0  0  0  0  0  0  0
   59.3070   29.7615   49.8194 H   0  0  0  0  0  0  0  0  0  0  0  0
   61.0831   29.4927   49.8194 H   0  0  0  0  0  0  0  0  0  0  0  0
   62.9074   30.3556   49.9973 H   0  0  0  0  0  0  0  0  0  0  0  0
   65.0863   31.5494   49.7930 H   0  0  0  0  0  0  0  0  0  0  0  0
   65.1398   33.9586   49.1546 H   0  0  0  0  0  0  0  0  0  0  0  0
   63.0136   35.1916   48.7508 H   0  0  0  0  0  0  0  0  0  0  0  0
   59.7413   34.0222   49.6647 H   0  0  0  0  0  0  0  0  0  0  0  0
   60.7069   35.3176   48.8611 H   0  0  0  0  0  0  0  0  0  0  0  0
   58.9220   32.0980   48.2770 H   0  0  0  0  0  0  0  0  0  0  0  0
   59.5695   30.1177   46.4010 H   0  0  0  0  0  0  0  0  0  0  0  0
   59.4660   28.7830   43.3490 H   0  0  0  0  0  0  0  0  0  0  0  0
   58.3438   28.5770   46.7796 H   0  0  0  0  0  0  0  0  0  0  0  0
   57.3485   26.5586   47.8385 H   0  0  0  0  0  0  0  0  0  0  0  0
   57.8919   26.7567   42.8873 H   0  0  0  0  0  0  0  0  0  0  0  0
   55.7801   24.1029   43.9687 H   0  0  0  0  0  0  0  0  0  0  0  0
   56.8448   24.6979   42.6546 H   0  0  0  0  0  0  0  0  0  0  0  0
   57.7586   22.5957   43.0791 H   0  0  0  0  0  0  0  0  0  0  0  0
   58.7508   23.6856   44.1672 H   0  0  0  0  0  0  0  0  0  0  0  0
   58.2155   20.6492   44.1759 H   0  0  0  0  0  0  0  0  0  0  0  0
   57.7294   19.0932   46.0454 H   0  0  0  0  0  0  0  0  0  0  0  0
   56.6709   19.9409   48.1312 H   0  0  0  0  0  0  0  0  0  0  0  0
   56.1102   22.3466   48.3581 H   0  0  0  0  0  0  0  0  0  0  0  0
   57.3169   30.7476   42.7570 H   0  0  0  0  0  0  0  0  0  0  0  0
   56.7875   33.0707   43.4881 H   0  0  0  0  0  0  0  0  0  0  0  0
  1  2  1  0
  2  3  1  0
  3  4  2  0
  4  5  1  0
  5  6  2  0
  6  7  1  0
  7  8  2  0
  8  9  1  0
  9 10  1  0
 10 11  2  0
 10 12  1  0
 12 13  1  0
 13 14  2  0
 14 15  1  0
 15 16  1  0
 16 17  1  0
 17 18  2  0
 18 19  1  0
 19 20  2  0
 20 21  1  0
 21 22  2  0
 21 23  1  0
 23 24  1  0
 24 25  1  0
 25 26  2  0
 26 27  1  0
 27 28  2  0
 28 29  1  0
 29 30  2  0
 30 31  1  0
 31 32  2  0
 15 33  2  0
 33 34  1  0
 34 35  2  0
 35 36  1  0
  8  3  1  0
 35 13  1  0
 22 17  1  0
 30 25  1  0
 31 20  1  0
  1 37  1  0
  1 38  1  0
  1 39  1  0
  4 40  1  0
  5 41  1  0
  6 42  1  0
  7 43  1  0
  9 44  1  0
  9 45  1  0
 12 46  1  0
 14 47  1  0
 16 48  1  0
 18 49  1  0
 19 50  1  0
 22 51  1  0
 23 52  1  0
 23 53  1  0
 24 54  1  0
 24 55  1  0
 26 56  1  0
 27 57  1  0
 28 58  1  0
 29 59  1  0
 33 60  1  0
 34 61  1  0
M  END
>  <UniqueID>  (81) 
77

>  <SMILES>  (81) 
COc1ccccc1CC(=O)Nc1cc(Nc2ccc3c(c2)CCc2ccccc2C3=O)ccc1F

>  <Energy>  (81) 
91.82586436200577

>  <Genealogy>  (81) 
COc1ccccc1CC(=O)Nc1cc(Nc2ccc3c(c2)CCc2ccccc2C3=O)ccc1F (3D coordinates assigned)
COc1ccccc1CC(=O)Nc1cc(Nc2ccc3c(c2)CCc2ccccc2C3=O)ccc1F (nonaromatic ring conformer: 91.82586436200577 kcal/mol)

>  <smiles>  (81) 
COc1ccccc1CC(=O)Nc1cc(Nc2ccc3c(c2)CCc2ccccc2C3=O)ccc1F

>  <score_type>  (81) 
oracle

>  <origin>  (81) 
adg

>  <m_score__min__energy>  (81) 
-8.0600000000000005

>  <m_primary>  (81) 
energy

$$$$
81:0
     RDKit          3D

 52 54  0  0  0  0  0  0  0  0999 V2000
   57.4170   32.6860   52.5260 C   0  0  0  0  0  0  0  0  0  0  0  0
   58.6780   32.2660   52.0140 O   0  0  0  0  0  0  0  0  0  0  0  0
   58.8720   31.7010   50.7440 C   0  0  0  0  0  0  0  0  0  0  0  0
   59.5140   32.3980   49.7010 C   0  0  0  0  0  0  0  0  0  0  0  0
   59.6890   31.7960   48.4450 C   0  0  0  0  0  0  0  0  0  0  0  0
   60.3950   32.5440   47.3430 C   0  0  0  0  0  0  0  0  0  0  0  0
   59.9400   33.9520   47.2700 N   0  0  0  0  0  0  0  0  0  0  0  0
   58.4770   34.0760   47.5090 C   0  0  0  0  0  0  0  0  0  0  0  0
   57.6420   34.2020   46.2180 C   0  0  0  0  0  0  0  0  0  0  0  0
   58.3450   33.5790   45.0940 N   0  0  0  0  0  0  0  0  0  0  0  0
   57.7880   32.4510   44.3960 C   0  0  0  0  0  0  0  0  0  0  0  0
   57.9050   32.3520   43.0030 C   0  0  0  0  0  0  0  0  0  0  0  0
   57.3900   31.2440   42.3300 C   0  0  0  0  0  0  0  0  0  0  0  0
   56.7670   30.2060   43.0370 C   0  0  0  0  0  0  0  0  0  0  0  0
   56.2550   29.0760   42.3200 N   0  0  0  0  0  0  0  0  0  0  0  0
   56.6610   30.2820   44.4410 C   0  0  0  0  0  0  0  0  0  0  0  0
   56.0500   29.2000   45.1600 N   0  0  0  0  0  0  0  0  0  0  0  0
   56.7900   27.6740   45.5270 S   0  0  0  0  0  0  0  0  0  0  0  0
   58.0390   27.8810   46.7790 C   0  0  0  0  0  0  0  0  0  0  0  0
   57.4430   27.1450   44.2810 O   0  0  0  0  0  0  0  0  0  0  0  0
   55.7480   26.6910   45.9810 O   0  0  0  0  0  0  0  0  0  0  0  0
   57.1670   31.4130   45.1080 C   0  0  0  0  0  0  0  0  0  0  0  0
   59.7010   34.0400   44.7790 C   0  0  0  0  0  0  0  0  0  0  0  0
   60.3650   34.6430   46.0280 C   0  0  0  0  0  0  0  0  0  0  0  0
   59.2230   30.4900   48.2330 C   0  0  0  0  0  0  0  0  0  0  0  0
   58.5840   29.7970   49.2630 C   0  0  0  0  0  0  0  0  0  0  0  0
   58.4090   30.3980   50.5130 C   0  0  0  0  0  0  0  0  0  0  0  0
   57.7730   29.6950   51.5290 O   0  0  0  0  0  0  0  0  0  0  0  0
   57.4461   32.6763   53.6256 H   0  0  0  0  0  0  0  0  0  0  0  0
   57.1993   33.7052   52.1739 H   0  0  0  0  0  0  0  0  0  0  0  0
   56.6317   32.0009   52.1739 H   0  0  0  0  0  0  0  0  0  0  0  0
   59.8806   33.4209   49.8722 H   0  0  0  0  0  0  0  0  0  0  0  0
   61.4779   32.5270   47.5353 H   0  0  0  0  0  0  0  0  0  0  0  0
   60.1615   32.0539   46.3863 H   0  0  0  0  0  0  0  0  0  0  0  0
   58.1382   33.1832   48.0550 H   0  0  0  0  0  0  0  0  0  0  0  0
   58.3240   35.0034   48.0804 H   0  0  0  0  0  0  0  0  0  0  0  0
   56.6732   33.7013   46.3623 H   0  0  0  0  0  0  0  0  0  0  0  0
   57.4863   35.2680   45.9956 H   0  0  0  0  0  0  0  0  0  0  0  0
   58.4054   33.1519   42.4376 H   0  0  0  0  0  0  0  0  0  0  0  0
   57.4735   31.1842   41.2348 H   0  0  0  0  0  0  0  0  0  0  0  0
   56.4270   28.1050   42.6650 H   0  0  0  0  0  0  0  0  0  0  0  0
   55.7040   29.1880   41.4410 H   0  0  0  0  0  0  0  0  0  0  0  0
   57.5768   27.8044   47.7742 H   0  0  0  0  0  0  0  0  0  0  0  0
   58.8028   27.0972   46.6681 H   0  0  0  0  0  0  0  0  0  0  0  0
   58.5091   28.8693   46.6681 H   0  0  0  0  0  0  0  0  0  0  0  0
   57.0747   31.4846   46.2018 H   0  0  0  0  0  0  0  0  0  0  0  0
   60.3005   33.1883   44.4251 H   0  0  0  0  0  0  0  0  0  0  0  0
   59.6433   34.8118   43.9974 H   0  0  0  0  0  0  0  0  0  0  0  0
   61.4568   34.5544   45.9279 H   0  0  0  0  0  0  0  0  0  0  0  0
   60.0571   35.6964   46.1022 H   0  0  0  0  0  0  0  0  0  0  0  0
   59.3614   30.0106   47.2527 H   0  0  0  0  0  0  0  0  0  0  0  0
   58.2170   28.7745   49.0903 H   0  0  0  0  0  0  0  0  0  0  0  0
  1  2  1  0
  2  3  1  0
  3  4  2  0
  4  5  1  0
  5  6  1  0
  6  7  1  0
  7  8  1  0
  8  9  1  0
  9 10  1  0
 10 11  1  0
 11 12  2  0
 12 13  1  0
 13 14  2  0
 14 15  1  0
 14 16  1  0
 16 17  1  0
 17 18  1  0
 18 19  1  0
 18 20  2  0
 18 21  2  0
 16 22  2  0
 10 23  1  0
 23 24  1  0
  5 25  2  0
 25 26  1  0
 26 27  2  0
 27 28  1  0
 27  3  1  0
 24  7  1  0
 22 11  1  0
  1 29  1  0
  1 30  1  0
  1 31  1  0
  4 32  1  0
  6 33  1  0
  6 34  1  0
  8 35  1  0
  8 36  1  0
  9 37  1  0
  9 38  1  0
 12 39  1  0
 13 40  1  0
 15 41  1  0
 15 42  1  0
 19 43  1  0
 19 44  1  0
 19 45  1  0
 22 46  1  0
 23 47  1  0
 23 48  1  0
 24 49  1  0
 24 50  1  0
 25 51  1  0
 26 52  1  0
M  CHG  2  17  -1  28  -1
M  END
>  <UniqueID>  (82) 
78

>  <SMILES>  (82) 
COc1cc(CN2CCN(c3ccc(N)c([N-]S(C)(=O)=O)c3)CC2)ccc1[O-]

>  <Energy>  (82) 
63.09417953406199

>  <Genealogy>  (82) 
COc1cc(CN2CCN(c3ccc(N)c([N-]S(C)(=O)=O)c3)CC2)ccc1[O-] (protonated)
COc1cc(CN2CCN(c3ccc(N)c([N-]S(C)(=O)=O)c3)CC2)ccc1[O-] (3D coordinates assigned)
COc1cc(CN2CCN(c3ccc(N)c([N-]S(C)(=O)=O)c3)CC2)ccc1[O-] (nonaromatic ring conformer: 63.09417953406199 kcal/mol)

>  <smiles>  (82) 
COc1cc(CN2CCN(c3ccc(N)c(NS(C)(=O)=O)c3)CC2)ccc1O

>  <score_type>  (82) 
oracle

>  <origin>  (82) 
adg

>  <m_score__min__energy>  (82) 
-11.91

>  <m_primary>  (82) 
energy

$$$$
82:0
     RDKit          3D

 29 30  0  0  0  0  0  0  0  0999 V2000
   57.0140   30.5900   43.1420 C   0  0  0  0  0  0  0  0  0  0  0  0
   55.9730   29.8770   43.9370 C   0  0  0  0  0  0  0  0  0  0  0  0
   54.8370   29.6720   43.4290 O   0  0  0  0  0  0  0  0  0  0  0  0
   56.3140   29.3450   45.1870 O   0  0  0  0  0  0  0  0  0  0  0  0
   57.6210   29.2090   45.6770 C   0  0  0  0  0  0  0  0  0  0  0  0
   58.2230   30.2200   46.4510 C   0  0  0  0  0  0  0  0  0  0  0  0
   59.5320   30.0690   46.9140 C   0  0  0  0  0  0  0  0  0  0  0  0
   60.2580   28.9200   46.6000 C   0  0  0  0  0  0  0  0  0  0  0  0
   59.6800   27.9180   45.8190 C   0  0  0  0  0  0  0  0  0  0  0  0
   58.3610   28.0510   45.3520 C   0  0  0  0  0  0  0  0  0  0  0  0
   57.7440   26.9530   44.5180 C   0  0  0  0  0  0  0  0  0  0  0  0
   57.2830   25.8570   45.3690 N   0  0  0  0  0  0  0  0  0  0  0  0
   57.9930   24.7630   45.5990 N   0  0  0  0  0  0  0  0  0  0  0  0
   57.2400   23.9660   46.3810 C   0  0  0  0  0  0  0  0  0  0  0  0
   57.6160   22.8370   46.7900 O   0  0  0  0  0  0  0  0  0  0  0  0
   56.0210   24.5470   46.6640 C   0  0  0  0  0  0  0  0  0  0  0  0
   56.0910   25.7520   45.9980 C   0  0  0  0  0  0  0  0  0  0  0  0
   55.0840   26.7130   45.9820 O   0  0  0  0  0  0  0  0  0  0  0  0
   57.7261   31.0777   43.8240 H   0  0  0  0  0  0  0  0  0  0  0  0
   57.5494   29.8681   42.5078 H   0  0  0  0  0  0  0  0  0  0  0  0
   56.5344   31.3501   42.5078 H   0  0  0  0  0  0  0  0  0  0  0  0
   57.6593   31.1333   46.6921 H   0  0  0  0  0  0  0  0  0  0  0  0
   59.9915   30.8579   47.5276 H   0  0  0  0  0  0  0  0  0  0  0  0
   61.2878   28.8034   46.9686 H   0  0  0  0  0  0  0  0  0  0  0  0
   60.2606   27.0182   45.5673 H   0  0  0  0  0  0  0  0  0  0  0  0
   56.8889   27.3609   43.9591 H   0  0  0  0  0  0  0  0  0  0  0  0
   58.5038   26.5665   43.8228 H   0  0  0  0  0  0  0  0  0  0  0  0
   55.1960   24.1470   47.2717 H   0  0  0  0  0  0  0  0  0  0  0  0
   55.1470   27.5400   45.4040 H   0  0  0  0  0  0  0  0  0  0  0  0
  1  2  1  0
  2  3  2  0
  2  4  1  0
  4  5  1  0
  5  6  2  0
  6  7  1  0
  7  8  2  0
  8  9  1  0
  9 10  2  0
 10 11  1  0
 11 12  1  0
 12 13  1  0
 13 14  1  0
 14 15  2  0
 14 16  1  0
 16 17  2  0
 17 18  1  0
 10  5  1  0
 17 12  1  0
  1 19  1  0
  1 20  1  0
  1 21  1  0
  6 22  1  0
  7 23  1  0
  8 24  1  0
  9 25  1  0
 11 26  1  0
 11 27  1  0
 16 28  1  0
 18 29  1  0
M  CHG  1  13  -1
M  END
>  <UniqueID>  (83) 
79

>  <SMILES>  (83) 
CC(=O)Oc1ccccc1Cn1[n-]c(=O)cc1O

>  <Energy>  (83) 
62.45254689769745

>  <Genealogy>  (83) 
CC(=O)Oc1ccccc1Cn1[n-]c(=O)cc1O (protonated)
CC(=O)Oc1ccccc1Cn1[n-]c(=O)cc1O (3D coordinates assigned)
CC(=O)Oc1ccccc1Cn1[n-]c(=O)cc1O (optimized conformer: 62.45254689769745 kcal/mol)

>  <smiles>  (83) 
CC(=O)Oc1ccccc1Cn1[nH]c(=O)cc1O

>  <score_type>  (83) 
oracle

>  <origin>  (83) 
adg

>  <m_score__min__energy>  (83) 
-8.4000000000000004

>  <m_primary>  (83) 
energy

$$$$
83:0
     RDKit          3D

 51 54  0  0  0  0  0  0  0  0999 V2000
   60.6390   29.2750   45.3620 O   0  0  0  0  0  0  0  0  0  0  0  0
   59.4770   29.0030   45.7760 C   0  0  0  0  0  0  0  0  0  0  0  0
   58.3870   28.7450   44.9780 C   0  0  0  0  0  0  0  0  0  0  0  0
   58.1460   29.5170   43.7970 N   0  0  0  0  0  0  0  0  0  0  0  0
   56.9930   30.8080   43.8750 S   0  0  0  0  0  0  0  0  0  0  0  0
   55.7420   30.3520   44.5660 O   0  0  0  0  0  0  0  0  0  0  0  0
   56.6390   31.2400   42.4800 O   0  0  0  0  0  0  0  0  0  0  0  0
   57.6960   32.1570   44.7730 C   0  0  0  0  0  0  0  0  0  0  0  0
   58.1190   33.3160   44.1020 C   0  0  0  0  0  0  0  0  0  0  0  0
   58.7600   34.3380   44.8070 C   0  0  0  0  0  0  0  0  0  0  0  0
   58.9270   34.2410   46.1900 C   0  0  0  0  0  0  0  0  0  0  0  0
   58.5020   33.0900   46.8770 C   0  0  0  0  0  0  0  0  0  0  0  0
   58.7060   32.9810   48.3070 N   0  0  0  0  0  0  0  0  0  0  0  0
   59.4950   33.7630   48.8910 O   0  0  0  0  0  0  0  0  0  0  0  0
   58.1480   31.9400   48.9970 O   0  0  0  0  0  0  0  0  0  0  0  0
   57.9100   32.0290   46.1530 C   0  0  0  0  0  0  0  0  0  0  0  0
   57.3350   28.4550   45.8720 C   0  0  0  0  0  0  0  0  0  0  0  0
   56.5900   27.2690   45.6210 N   0  0  0  0  0  0  0  0  0  0  0  0
   56.6780   26.0610   46.4280 C   0  0  0  0  0  0  0  0  0  0  0  0
   57.0620   24.8670   45.5860 C   0  0  0  0  0  0  0  0  0  0  0  0
   56.2660   24.4650   44.5040 C   0  0  0  0  0  0  0  0  0  0  0  0
   56.6060   23.3160   43.7660 C   0  0  0  0  0  0  0  0  0  0  0  0
   57.7560   22.5870   44.0900 C   0  0  0  0  0  0  0  0  0  0  0  0
   58.5930   23.0360   45.1120 C   0  0  0  0  0  0  0  0  0  0  0  0
   58.2580   24.1890   45.8490 C   0  0  0  0  0  0  0  0  0  0  0  0
   57.8260   28.6540   47.1340 N   0  0  0  0  0  0  0  0  0  0  0  0
   59.1070   28.9860   47.0580 N   0  0  0  0  0  0  0  0  0  0  0  0
   59.9880   29.0970   48.2000 C   0  0  0  0  0  0  0  0  0  0  0  0
   60.6970   30.2810   48.4310 C   0  0  0  0  0  0  0  0  0  0  0  0
   61.4420   30.4390   49.6050 C   0  0  0  0  0  0  0  0  0  0  0  0
   61.5320   29.3890   50.5340 C   0  0  0  0  0  0  0  0  0  0  0  0
   60.9070   28.1680   50.2580 C   0  0  0  0  0  0  0  0  0  0  0  0
   60.1230   28.0190   49.1070 C   0  0  0  0  0  0  0  0  0  0  0  0
   58.8210   29.4610   43.0060 H   0  0  0  0  0  0  0  0  0  0  0  0
   57.9456   33.4193   43.0207 H   0  0  0  0  0  0  0  0  0  0  0  0
   59.1345   35.2223   44.2706 H   0  0  0  0  0  0  0  0  0  0  0  0
   59.3931   35.0688   46.7446 H   0  0  0  0  0  0  0  0  0  0  0  0
   57.6177   31.1042   46.6719 H   0  0  0  0  0  0  0  0  0  0  0  0
   55.7580   27.3560   44.9860 H   0  0  0  0  0  0  0  0  0  0  0  0
   57.4372   26.2070   47.2105 H   0  0  0  0  0  0  0  0  0  0  0  0
   55.6915   25.8686   46.8750 H   0  0  0  0  0  0  0  0  0  0  0  0
   55.3743   25.0487   44.2316 H   0  0  0  0  0  0  0  0  0  0  0  0
   55.9664   22.9901   42.9325 H   0  0  0  0  0  0  0  0  0  0  0  0
   57.9987   21.6648   43.5417 H   0  0  0  0  0  0  0  0  0  0  0  0
   59.5181   22.4876   45.3432 H   0  0  0  0  0  0  0  0  0  0  0  0
   58.9372   24.5569   46.6321 H   0  0  0  0  0  0  0  0  0  0  0  0
   60.6686   31.0907   47.6869 H   0  0  0  0  0  0  0  0  0  0  0  0
   61.9595   31.3896   49.8013 H   0  0  0  0  0  0  0  0  0  0  0  0
   62.0900   29.5259   51.4720 H   0  0  0  0  0  0  0  0  0  0  0  0
   61.0320   27.3208   50.9484 H   0  0  0  0  0  0  0  0  0  0  0  0
   59.6127   27.0650   48.9082 H   0  0  0  0  0  0  0  0  0  0  0  0
  1  2  2  0
  2  3  1  0
  3  4  1  0
  4  5  1  0
  5  6  2  0
  5  7  2  0
  5  8  1  0
  8  9  2  0
  9 10  1  0
 10 11  2  0
 11 12  1  0
 12 13  1  0
 13 14  2  0
 13 15  1  0
 12 16  2  0
  3 17  2  0
 17 18  1  0
 18 19  1  0
 19 20  1  0
 20 21  2  0
 21 22  1  0
 22 23  2  0
 23 24  1  0
 24 25  2  0
 17 26  1  0
 26 27  1  0
 27 28  1  0
 28 29  2  0
 29 30  1  0
 30 31  2  0
 31 32  1  0
 32 33  2  0
 27  2  1  0
 33 28  1  0
 16  8  1  0
 25 20  1  0
  4 34  1  0
  9 35  1  0
 10 36  1  0
 11 37  1  0
 16 38  1  0
 18 39  1  0
 19 40  1  0
 19 41  1  0
 21 42  1  0
 22 43  1  0
 23 44  1  0
 24 45  1  0
 25 46  1  0
 29 47  1  0
 30 48  1  0
 31 49  1  0
 32 50  1  0
 33 51  1  0
M  CHG  3  13   1  15  -1  26  -1
M  END
>  <UniqueID>  (84) 
80

>  <SMILES>  (84) 
O=c1c(NS(=O)(=O)c2cccc([N+](=O)[O-])c2)c(NCc2ccccc2)[n-]n1-c1ccccc1

>  <Energy>  (84) 
131.26533202338328

>  <Genealogy>  (84) 
O=c1c(NS(=O)(=O)c2cccc([N+](=O)[O-])c2)c(NCc2ccccc2)[n-]n1-c1ccccc1 (protonated)
O=c1c(NS(=O)(=O)c2cccc([N+](=O)[O-])c2)c(NCc2ccccc2)[n-]n1-c1ccccc1 (3D coordinates assigned)
O=c1c(NS(=O)(=O)c2cccc([N+](=O)[O-])c2)c(NCc2ccccc2)[n-]n1-c1ccccc1 (optimized conformer: 131.26533202338328 kcal/mol)

>  <smiles>  (84) 
O=c1c(NS(=O)(=O)c2cccc([N+](=O)[O-])c2)c(NCc2ccccc2)[nH]n1-c1ccccc1

>  <score_type>  (84) 
oracle

>  <origin>  (84) 
adg

>  <m_score__min__energy>  (84) 
-11.48

>  <m_primary>  (84) 
energy

$$$$
84:0
     RDKit          3D

 30 31  0  0  0  0  0  0  0  0999 V2000
   56.1280   29.2940   42.6820 N   0  0  0  0  0  0  0  0  0  0  0  0
   56.6400   29.5700   43.9890 C   0  0  0  0  0  0  0  0  0  0  0  0
   56.2800   30.6290   44.5710 O   0  0  0  0  0  0  0  0  0  0  0  0
   57.5620   28.6340   44.6740 C   0  0  0  0  0  0  0  0  0  0  0  0
   58.6480   29.1340   45.4130 C   0  0  0  0  0  0  0  0  0  0  0  0
   59.5300   28.2610   46.0550 C   0  0  0  0  0  0  0  0  0  0  0  0
   59.3400   26.8820   45.9690 C   0  0  0  0  0  0  0  0  0  0  0  0
   58.2580   26.3590   45.2430 C   0  0  0  0  0  0  0  0  0  0  0  0
   58.0780   24.8650   45.1210 C   0  0  0  0  0  0  0  0  0  0  0  0
   56.6450   24.5020   45.0310 N   0  0  0  0  0  0  0  0  0  0  0  0
   56.1690   23.7380   43.9840 C   0  0  0  0  0  0  0  0  0  0  0  0
   57.0280   23.2670   42.9320 N   0  0  0  0  0  0  0  0  0  0  0  0
   54.8130   23.3980   43.9280 C   0  0  0  0  0  0  0  0  0  0  0  0
   53.9650   23.8360   44.9360 C   0  0  0  0  0  0  0  0  0  0  0  0
   52.7410   23.5440   44.9080 O   0  0  0  0  0  0  0  0  0  0  0  0
   54.4580   24.5780   45.9530 N   0  0  0  0  0  0  0  0  0  0  0  0
   55.7720   24.9120   46.0150 C   0  0  0  0  0  0  0  0  0  0  0  0
   56.1730   25.5990   46.9930 O   0  0  0  0  0  0  0  0  0  0  0  0
   57.3860   27.2390   44.5800 C   0  0  0  0  0  0  0  0  0  0  0  0
   56.2640   28.3660   42.2240 H   0  0  0  0  0  0  0  0  0  0  0  0
   55.5280   29.9990   42.1990 H   0  0  0  0  0  0  0  0  0  0  0  0
   58.8047   30.2203   45.4864 H   0  0  0  0  0  0  0  0  0  0  0  0
   60.3772   28.6627   46.6303 H   0  0  0  0  0  0  0  0  0  0  0  0
   60.0415   26.2006   46.4726 H   0  0  0  0  0  0  0  0  0  0  0  0
   58.5941   24.5146   44.2150 H   0  0  0  0  0  0  0  0  0  0  0  0
   58.5013   24.3895   46.0181 H   0  0  0  0  0  0  0  0  0  0  0  0
   57.8810   22.6950   43.1030 H   0  0  0  0  0  0  0  0  0  0  0  0
   56.8090   23.4890   41.9360 H   0  0  0  0  0  0  0  0  0  0  0  0
   54.4241   22.7918   43.0965 H   0  0  0  0  0  0  0  0  0  0  0  0
   56.5568   26.8345   43.9810 H   0  0  0  0  0  0  0  0  0  0  0  0
  1  2  1  0
  2  3  2  0
  2  4  1  0
  4  5  2  0
  5  6  1  0
  6  7  2  0
  7  8  1  0
  8  9  1  0
  9 10  1  0
 10 11  1  0
 11 12  1  0
 11 13  2  0
 13 14  1  0
 14 15  2  0
 14 16  1  0
 16 17  1  0
 17 18  2  0
  8 19  2  0
 19  4  1  0
 17 10  1  0
  1 20  1  0
  1 21  1  0
  5 22  1  0
  6 23  1  0
  7 24  1  0
  9 25  1  0
  9 26  1  0
 12 27  1  0
 12 28  1  0
 13 29  1  0
 19 30  1  0
M  CHG  1  16  -1
M  END
>  <UniqueID>  (85) 
81

>  <SMILES>  (85) 
NC(=O)c1cccc(Cn2c(N)cc(=O)[n-]c2=O)c1

>  <Energy>  (85) 
37.105851330435826

>  <Genealogy>  (85) 
NC(=O)c1cccc(Cn2c(N)cc(=O)[n-]c2=O)c1 (protonated)
NC(=O)c1cccc(Cn2c(N)cc(=O)[n-]c2=O)c1 (3D coordinates assigned)
NC(=O)c1cccc(Cn2c(N)cc(=O)[n-]c2=O)c1 (optimized conformer: 37.105851330435826 kcal/mol)

>  <smiles>  (85) 
NC(=O)c1cccc(Cn2c(N)cc(=O)[nH]c2=O)c1

>  <score_type>  (85) 
oracle

>  <origin>  (85) 
adg

>  <m_score__min__energy>  (85) 
-9.0999999999999996

>  <m_primary>  (85) 
energy

$$$$
85:0
     RDKit          3D

 45 47  0  0  1  0  0  0  0  0999 V2000
   57.7680   30.2340   51.2020 O   0  0  0  0  0  0  0  0  0  0  0  0
   58.4970   30.3410   50.1850 C   0  0  0  0  0  0  0  0  0  0  0  0
   59.6660   29.5170   50.0030 N   0  0  0  0  0  0  0  0  0  0  0  0
   59.6470   28.7510   48.9420 C   0  0  0  0  0  0  0  0  0  0  0  0
   60.5190   27.7140   48.6700 C   0  0  0  0  0  0  0  0  0  0  0  0
   60.1540   27.1640   47.4500 C   0  0  0  0  0  0  0  0  0  0  0  0
   59.0960   27.8570   47.0140 N   0  0  0  0  0  0  0  0  0  0  0  0
   58.1850   27.6520   45.5510 S   0  0  0  0  0  0  0  0  0  0  0  0
   56.8580   28.3470   45.6640 O   0  0  0  0  0  0  0  0  0  0  0  0
   58.9830   28.2980   44.4450 O   0  0  0  0  0  0  0  0  0  0  0  0
   57.8860   25.9730   45.2160 C   0  0  0  0  0  0  0  0  0  0  0  0
   57.9950   25.0020   46.2160 C   0  0  0  0  0  0  0  0  0  0  0  0
   57.7390   23.6760   45.8700 C   0  0  0  0  0  0  0  0  0  0  0  0
   57.3920   23.3470   44.5760 C   0  0  0  0  0  0  0  0  0  0  0  0
   57.1290   21.9280   44.2520 C   0  0  0  0  0  0  0  0  0  0  0  0
   57.7920   20.9250   44.9280 O   0  0  0  0  0  0  0  0  0  0  0  0
   56.2830   21.6230   43.3400 N   0  0  0  0  0  0  0  0  0  0  0  0
   56.1480   20.2830   42.9950 O   0  0  0  0  0  0  0  0  0  0  0  0
   57.2800   24.2900   43.5730 C   0  0  0  0  0  0  0  0  0  0  0  0
   57.5380   25.6160   43.9330 C   0  0  0  0  0  0  0  0  0  0  0  0
   58.7860   28.8090   47.8990 N   0  0  0  0  0  0  0  0  0  0  0  0
   58.1520   31.2760   49.2280 O   0  0  0  0  0  0  0  0  0  0  0  0
   59.0540   32.1770   48.6160 C   0  0  0  0  0  0  0  0  0  0  0  0
   58.5780   32.4810   47.2350 C   0  0  0  0  0  0  0  0  0  0  0  0
   58.2150   33.7820   46.9440 C   0  0  0  0  0  0  0  0  0  0  0  0
   57.7720   34.0870   45.6740 C   0  0  0  0  0  0  0  0  0  0  0  0
   57.6980   33.0900   44.7170 C   0  0  0  0  0  0  0  0  0  0  0  0
   58.0610   31.7740   44.9970 C   0  0  0  0  0  0  0  0  0  0  0  0
   58.5080   31.4720   46.2840 C   0  0  0  0  0  0  0  0  0  0  0  0
   61.3530   27.3839   49.3068 H   0  0  0  0  0  0  0  0  0  0  0  0
   60.6409   26.3202   46.9392 H   0  0  0  0  0  0  0  0  0  0  0  0
   58.2742   25.2759   47.2441 H   0  0  0  0  0  0  0  0  0  0  0  0
   57.8141   22.8875   46.6333 H   0  0  0  0  0  0  0  0  0  0  0  0
   57.7790   19.9930   44.5360 H   0  0  0  0  0  0  0  0  0  0  0  0
   56.8250   19.6040   43.3480 H   0  0  0  0  0  0  0  0  0  0  0  0
   57.0025   24.0124   42.5454 H   0  0  0  0  0  0  0  0  0  0  0  0
   57.4603   26.4001   43.1654 H   0  0  0  0  0  0  0  0  0  0  0  0
   57.9930   29.5120   47.8210 H   0  0  0  0  0  0  0  0  0  0  0  0
   59.1011   33.1065   49.2024 H   0  0  0  0  0  0  0  0  0  0  0  0
   60.0562   31.7257   48.5718 H   0  0  0  0  0  0  0  0  0  0  0  0
   58.2785   34.5641   47.7149 H   0  0  0  0  0  0  0  0  0  0  0  0
   57.4791   35.1172   45.4231 H   0  0  0  0  0  0  0  0  0  0  0  0
   57.3428   33.3434   43.7072 H   0  0  0  0  0  0  0  0  0  0  0  0
   57.9969   30.9940   44.2240 H   0  0  0  0  0  0  0  0  0  0  0  0
   58.8021   30.4441   46.5426 H   0  0  0  0  0  0  0  0  0  0  0  0
  1  2  2  0
  2  3  1  0
  3  4  2  0
  4  5  1  0
  5  6  2  0
  6  7  1  0
  7  8  1  0
  8  9  2  0
  8 10  2  0
  8 11  1  0
 11 12  2  0
 12 13  1  0
 13 14  2  0
 14 15  1  0
 15 16  1  0
 15 17  2  0
 17 18  1  0
 14 19  1  0
 19 20  2  0
  7 21  1  0
  2 22  1  0
 22 23  1  0
 23 24  1  0
 24 25  2  0
 25 26  1  0
 26 27  2  0
 27 28  1  0
 28 29  2  0
 21  4  1  0
 29 24  1  0
 20 11  1  0
  5 30  1  0
  6 31  1  0
 12 32  1  0
 13 33  1  0
 16 34  1  0
 18 35  1  0
 19 36  1  0
 20 37  1  0
 21 38  1  0
 23 39  1  0
 23 40  1  0
 25 41  1  0
 26 42  1  0
 27 43  1  0
 28 44  1  0
 29 45  1  0
M  END
>  <smiles>  (86) 
O=C(N=c1ccn(S(=O)(=O)c2ccc(C(O)=NO)cc2)[nH]1)OCc1ccccc1

>  <score_type>  (86) 
oracle

>  <origin>  (86) 
adg

>  <m_score__min__energy>  (86) 
-9.8699999999999992

>  <m_primary>  (86) 
energy

$$$$
86:0
     RDKit          3D

 50 53  0  0  1  0  0  0  0  0999 V2000
   55.4080   22.9470   48.1290 C   0  0  0  0  0  0  0  0  0  0  0  0
   55.3210   23.8580   47.0380 O   0  0  0  0  0  0  0  0  0  0  0  0
   56.3040   24.8120   46.8140 C   0  0  0  0  0  0  0  0  0  0  0  0
   57.6390   24.6080   47.0860 C   0  0  0  0  0  0  0  0  0  0  0  0
   58.5670   25.6160   46.8340 C   0  0  0  0  0  0  0  0  0  0  0  0
   58.2070   26.8400   46.3120 C   0  0  0  0  0  0  0  0  0  0  0  0
   59.2030   27.9170   46.0410 C   0  0  0  0  0  0  0  0  0  0  0  0
   58.9130   28.6690   44.8530 N   0  0  0  0  0  0  0  0  0  0  0  0
   58.0540   29.6220   44.7510 C   0  0  0  0  0  0  0  0  0  0  0  0
   56.8800   29.4020   44.1340 N   0  0  0  0  0  0  0  0  0  0  0  0
   56.0210   30.4050   44.0460 C   0  0  0  0  0  0  0  0  0  0  0  0
   56.3080   31.6130   44.5580 N   0  0  0  0  0  0  0  0  0  0  0  0
   57.4610   31.8790   45.1800 C   0  0  0  0  0  0  0  0  0  0  0  0
   57.7660   33.1280   45.7130 C   0  0  0  0  0  0  0  0  0  0  0  0
   58.9870   33.3490   46.3530 C   0  0  0  0  0  0  0  0  0  0  0  0
   59.8940   32.3110   46.4520 C   0  0  0  0  0  0  0  0  0  0  0  0
   61.1940   32.4560   47.1040 C   0  0  0  0  0  0  0  0  0  0  0  0
   61.9280   33.5950   46.7470 C   0  0  0  0  0  0  0  0  0  0  0  0
   63.1580   33.8260   47.3000 C   0  0  0  0  0  0  0  0  0  0  0  0
   63.6640   32.9170   48.2170 C   0  0  0  0  0  0  0  0  0  0  0  0
   62.9270   31.8000   48.5570 C   0  0  0  0  0  0  0  0  0  0  0  0
   61.6820   31.5400   48.0140 C   0  0  0  0  0  0  0  0  0  0  0  0
   60.9260   30.4280   48.3410 O   0  0  0  0  0  0  0  0  0  0  0  0
   60.0790   30.3400   49.4630 C   0  0  0  0  0  0  0  0  0  0  0  0
   59.5870   31.0710   45.9210 C   0  0  0  0  0  0  0  0  0  0  0  0
   58.4010   30.8480   45.2960 C   0  0  0  0  0  0  0  0  0  0  0  0
   56.8490   27.0120   46.0480 C   0  0  0  0  0  0  0  0  0  0  0  0
   55.9160   26.0280   46.2910 C   0  0  0  0  0  0  0  0  0  0  0  0
   54.5800   26.3060   45.9900 O   0  0  0  0  0  0  0  0  0  0  0  0
   55.3549   23.5034   49.0764 H   0  0  0  0  0  0  0  0  0  0  0  0
   54.5741   22.2316   48.0767 H   0  0  0  0  0  0  0  0  0  0  0  0
   56.3622   22.4023   48.0767 H   0  0  0  0  0  0  0  0  0  0  0  0
   57.9731   23.6466   47.5033 H   0  0  0  0  0  0  0  0  0  0  0  0
   59.6270   25.4281   47.0601 H   0  0  0  0  0  0  0  0  0  0  0  0
   59.2138   28.6069   46.8977 H   0  0  0  0  0  0  0  0  0  0  0  0
   60.1780   27.4305   45.8903 H   0  0  0  0  0  0  0  0  0  0  0  0
   56.6900   28.4580   43.7490 H   0  0  0  0  0  0  0  0  0  0  0  0
   55.0548   30.2464   43.5446 H   0  0  0  0  0  0  0  0  0  0  0  0
   57.0383   33.9486   45.6292 H   0  0  0  0  0  0  0  0  0  0  0  0
   59.2242   34.3374   46.7734 H   0  0  0  0  0  0  0  0  0  0  0  0
   61.5132   34.3071   46.0184 H   0  0  0  0  0  0  0  0  0  0  0  0
   63.7367   34.7191   47.0215 H   0  0  0  0  0  0  0  0  0  0  0  0
   64.6509   33.0856   48.6727 H   0  0  0  0  0  0  0  0  0  0  0  0
   63.3455   31.0910   49.2865 H   0  0  0  0  0  0  0  0  0  0  0  0
   60.6802   30.4025   50.3821 H   0  0  0  0  0  0  0  0  0  0  0  0
   59.3549   31.1677   49.4416 H   0  0  0  0  0  0  0  0  0  0  0  0
   59.5405   29.3811   49.4416 H   0  0  0  0  0  0  0  0  0  0  0  0
   60.3155   30.2512   46.0061 H   0  0  0  0  0  0  0  0  0  0  0  0
   56.5092   27.9708   45.6293 H   0  0  0  0  0  0  0  0  0  0  0  0
   53.9200   25.6150   46.3680 H   0  0  0  0  0  0  0  0  0  0  0  0
  1  2  1  0
  2  3  1  0
  3  4  2  0
  4  5  1  0
  5  6  2  0
  6  7  1  0
  7  8  1  0
  8  9  2  0
  9 10  1  0
 10 11  1  0
 11 12  2  0
 12 13  1  0
 13 14  2  0
 14 15  1  0
 15 16  2  0
 16 17  1  0
 17 18  2  0
 18 19  1  0
 19 20  2  0
 20 21  1  0
 21 22  2  0
 22 23  1  0
 23 24  1  0
 16 25  1  0
 25 26  2  0
  6 27  1  0
 27 28  2  0
 28 29  1  0
 28  3  1  0
 26  9  1  0
 26 13  1  0
 22 17  1  0
  1 30  1  0
  1 31  1  0
  1 32  1  0
  4 33  1  0
  5 34  1  0
  7 35  1  0
  7 36  1  0
 10 37  1  0
 11 38  1  0
 14 39  1  0
 15 40  1  0
 18 41  1  0
 19 42  1  0
 20 43  1  0
 21 44  1  0
 24 45  1  0
 24 46  1  0
 24 47  1  0
 25 48  1  0
 27 49  1  0
 29 50  1  0
M  END
>  <smiles>  (87) 
COc1ccc(CN=c2[nH]cnc3ccc(-c4ccccc4OC)cc23)cc1O

>  <score_type>  (87) 
oracle

>  <origin>  (87) 
adg

>  <m_score__min__energy>  (87) 
-10.01

>  <m_primary>  (87) 
energy

$$$$
87:0
     RDKit          3D

 67 70  0  0  0  0  0  0  0  0999 V2000
   50.8920   24.5810   44.0450 C   0  0  0  0  0  0  0  0  0  0  0  0
   51.3610   23.3660   44.8300 C   0  0  0  0  0  0  0  0  0  0  0  0
   52.7840   23.3340   44.8430 O   0  0  0  0  0  0  0  0  0  0  0  0
   53.5360   23.5380   46.0030 C   0  0  0  0  0  0  0  0  0  0  0  0
   53.1690   23.0240   47.0940 O   0  0  0  0  0  0  0  0  0  0  0  0
   54.7950   24.3010   45.9450 C   0  0  0  0  0  0  0  0  0  0  0  0
   54.7800   25.6510   45.7540 N   0  0  0  0  0  0  0  0  0  0  0  0
   56.0220   26.1830   45.8250 C   0  0  0  0  0  0  0  0  0  0  0  0
   56.3030   27.4380   45.6370 N   0  0  0  0  0  0  0  0  0  0  0  0
   57.3940   27.9870   44.8810 C   0  0  0  0  0  0  0  0  0  0  0  0
   57.6120   27.5240   43.7300 O   0  0  0  0  0  0  0  0  0  0  0  0
   58.2870   29.0450   45.4020 C   0  0  0  0  0  0  0  0  0  0  0  0
   59.5690   28.7380   45.8880 C   0  0  0  0  0  0  0  0  0  0  0  0
   60.3960   29.7500   46.3820 C   0  0  0  0  0  0  0  0  0  0  0  0
   59.9560   31.0770   46.3900 C   0  0  0  0  0  0  0  0  0  0  0  0
   58.6900   31.4010   45.8830 C   0  0  0  0  0  0  0  0  0  0  0  0
   58.1080   33.0630   45.9350 S   0  0  0  0  0  0  0  0  0  0  0  0
   56.6440   33.0990   45.5980 O   0  0  0  0  0  0  0  0  0  0  0  0
   58.8480   33.8690   44.9040 O   0  0  0  0  0  0  0  0  0  0  0  0
   58.3520   33.7890   47.4910 N   0  0  0  0  0  0  0  0  0  0  0  0
   59.3720   33.3700   48.4010 C   0  0  0  0  0  0  0  0  0  0  0  0
   59.1810   32.7660   49.6320 C   0  0  0  0  0  0  0  0  0  0  0  0
   57.8730   32.2810   50.1820 C   0  0  0  0  0  0  0  0  0  0  0  0
   60.3870   32.6270   50.2380 N   0  0  0  0  0  0  0  0  0  0  0  0
   60.6260   32.0230   51.5510 C   0  0  0  0  0  0  0  0  0  0  0  0
   61.3190   33.1780   49.4620 N   0  0  0  0  0  0  0  0  0  0  0  0
   62.7160   33.3010   49.7740 C   0  0  0  0  0  0  0  0  0  0  0  0
   63.6730   32.5860   49.0400 C   0  0  0  0  0  0  0  0  0  0  0  0
   65.0260   32.6670   49.3840 C   0  0  0  0  0  0  0  0  0  0  0  0
   65.4300   33.4670   50.4580 C   0  0  0  0  0  0  0  0  0  0  0  0
   64.4800   34.1850   51.1900 C   0  0  0  0  0  0  0  0  0  0  0  0
   63.1260   34.0960   50.8560 C   0  0  0  0  0  0  0  0  0  0  0  0
   60.7200   33.6510   48.3520 C   0  0  0  0  0  0  0  0  0  0  0  0
   61.3050   34.3320   47.4700 O   0  0  0  0  0  0  0  0  0  0  0  0
   57.8670   30.3860   45.3730 C   0  0  0  0  0  0  0  0  0  0  0  0
   57.1910   25.0160   46.1020 S   0  0  0  0  0  0  0  0  0  0  0  0
   56.0750   23.7550   46.1350 C   0  0  0  0  0  0  0  0  0  0  0  0
   56.4620   22.3360   46.1940 C   0  0  0  0  0  0  0  0  0  0  0  0
   57.0300   21.8930   47.2290 O   0  0  0  0  0  0  0  0  0  0  0  0
   56.2590   21.5030   45.0860 O   0  0  0  0  0  0  0  0  0  0  0  0
   56.9660   21.6420   43.8560 C   0  0  0  0  0  0  0  0  0  0  0  0
   56.3360   22.7300   42.9940 C   0  0  0  0  0  0  0  0  0  0  0  0
   50.5861   25.3734   44.7439 H   0  0  0  0  0  0  0  0  0  0  0  0
   51.7132   24.9477   43.4116 H   0  0  0  0  0  0  0  0  0  0  0  0
   50.0374   24.3008   43.4116 H   0  0  0  0  0  0  0  0  0  0  0  0
   50.9856   23.4282   45.8621 H   0  0  0  0  0  0  0  0  0  0  0  0
   50.9765   22.4507   44.3563 H   0  0  0  0  0  0  0  0  0  0  0  0
   59.9231   27.6966   45.8795 H   0  0  0  0  0  0  0  0  0  0  0  0
   61.3965   29.5019   46.7659 H   0  0  0  0  0  0  0  0  0  0  0  0
   60.6043   31.8681   46.7948 H   0  0  0  0  0  0  0  0  0  0  0  0
   57.9098   32.2947   51.2813 H   0  0  0  0  0  0  0  0  0  0  0  0
   57.0626   32.9384   49.8341 H   0  0  0  0  0  0  0  0  0  0  0  0
   57.6871   31.2542   49.8341 H   0  0  0  0  0  0  0  0  0  0  0  0
   60.3438   32.7362   52.3395 H   0  0  0  0  0  0  0  0  0  0  0  0
   60.0217   31.1092   51.6497 H   0  0  0  0  0  0  0  0  0  0  0  0
   61.6920   31.7701   51.6497 H   0  0  0  0  0  0  0  0  0  0  0  0
   63.3589   31.9600   48.1918 H   0  0  0  0  0  0  0  0  0  0  0  0
   65.7737   32.1008   48.8092 H   0  0  0  0  0  0  0  0  0  0  0  0
   66.4948   33.5310   50.7264 H   0  0  0  0  0  0  0  0  0  0  0  0
   64.7984   34.8205   52.0295 H   0  0  0  0  0  0  0  0  0  0  0  0
   62.3790   34.6507   51.4428 H   0  0  0  0  0  0  0  0  0  0  0  0
   56.8855   30.6415   44.9471 H   0  0  0  0  0  0  0  0  0  0  0  0
   58.0116   21.9095   44.0685 H   0  0  0  0  0  0  0  0  0  0  0  0
   56.9201   20.6875   43.3112 H   0  0  0  0  0  0  0  0  0  0  0  0
   55.8906   23.4992   43.6420 H   0  0  0  0  0  0  0  0  0  0  0  0
   57.1086   23.1880   42.3590 H   0  0  0  0  0  0  0  0  0  0  0  0
   55.5542   22.2879   42.3590 H   0  0  0  0  0  0  0  0  0  0  0  0
  1  2  1  0
  2  3  1  0
  3  4  1  0
  4  5  2  0
  4  6  1  0
  6  7  1  0
  7  8  1  0
  8  9  2  3
  9 10  1  0
 10 11  2  0
 10 12  1  0
 12 13  2  0
 13 14  1  0
 14 15  2  0
 15 16  1  0
 16 17  1  0
 17 18  2  0
 17 19  2  0
 17 20  1  0
 20 21  1  0
 21 22  2  0
 22 23  1  0
 22 24  1  0
 24 25  1  0
 24 26  1  0
 26 27  1  0
 27 28  2  0
 28 29  1  0
 29 30  2  0
 30 31  1  0
 31 32  2  0
 26 33  1  0
 33 34  2  0
 16 35  2  0
  8 36  1  0
 36 37  1  0
 37 38  1  0
 38 39  2  0
 38 40  1  0
 40 41  1  0
 41 42  1  0
 37  6  2  0
 35 12  1  0
 33 21  1  0
 32 27  1  0
  1 43  1  0
  1 44  1  0
  1 45  1  0
  2 46  1  0
  2 47  1  0
 13 48  1  0
 14 49  1  0
 15 50  1  0
 23 51  1  0
 23 52  1  0
 23 53  1  0
 25 54  1  0
 25 55  1  0
 25 56  1  0
 28 57  1  0
 29 58  1  0
 30 59  1  0
 31 60  1  0
 32 61  1  0
 35 62  1  0
 41 63  1  0
 41 64  1  0
 42 65  1  0
 42 66  1  0
 42 67  1  0
M  CHG  2   7  -1  20  -1
M  END
>  <UniqueID>  (88) 
82

>  <SMILES>  (88) 
CCOC(=O)c1[n-]c(=NC(=O)c2cccc(S(=O)(=O)[N-]c3c(C)n(C)n(-c4ccccc4)c3=O)c2)sc1C(=O)OCC

>  <Energy>  (88) 
145.0162083914469

>  <Genealogy>  (88) 
CCOC(=O)c1[n-]c(=NC(=O)c2cccc(S(=O)(=O)[N-]c3c(C)n(C)n(-c4ccccc4)c3=O)c2)sc1C(=O)OCC (protonated)
CCOC(=O)c1[n-]c(=NC(=O)c2cccc(S(=O)(=O)[N-]c3c(C)n(C)n(-c4ccccc4)c3=O)c2)sc1C(=O)OCC (3D coordinates assigned)
CCOC(=O)c1[n-]c(=NC(=O)c2cccc(S(=O)(=O)[N-]c3c(C)n(C)n(-c4ccccc4)c3=O)c2)sc1C(=O)OCC (optimized conformer: 145.0162083914469 kcal/mol)

>  <smiles>  (88) 
CCOC(=O)c1[nH]c(=NC(=O)c2cccc(S(=O)(=O)Nc3c(C)n(C)n(-c4ccccc4)c3=O)c2)sc1C(=O)OCC

>  <score_type>  (88) 
oracle

>  <origin>  (88) 
adg

>  <m_score__min__energy>  (88) 
-12.199999999999999

>  <m_primary>  (88) 
energy

$$$$
88:0
     RDKit          3D

 32 33  0  0  0  0  0  0  0  0999 V2000
   55.3960   26.1600   46.2250 O   0  0  0  0  0  0  0  0  0  0  0  0
   56.5500   26.3650   45.7620 C   0  0  0  0  0  0  0  0  0  0  0  0
   56.9830   27.7620   45.4650 C   0  0  0  0  0  0  0  0  0  0  0  0
   55.8090   28.5920   45.2370 N   0  0  0  0  0  0  0  0  0  0  0  0
   55.7700   29.6190   44.2440 C   0  0  0  0  0  0  0  0  0  0  0  0
   54.7740   29.7330   43.4800 O   0  0  0  0  0  0  0  0  0  0  0  0
   56.9390   30.5310   44.0780 C   0  0  0  0  0  0  0  0  0  0  0  0
   56.7330   31.7020   44.8620 O   0  0  0  0  0  0  0  0  0  0  0  0
   57.6910   32.2600   45.7210 C   0  0  0  0  0  0  0  0  0  0  0  0
   57.8630   33.6500   45.7130 C   0  0  0  0  0  0  0  0  0  0  0  0
   58.8060   34.2530   46.5510 C   0  0  0  0  0  0  0  0  0  0  0  0
   59.5870   33.4700   47.4050 C   0  0  0  0  0  0  0  0  0  0  0  0
   60.7690   34.2270   48.4560 Cl  0  0  0  0  0  0  0  0  0  0  0  0
   59.4220   32.0820   47.4230 C   0  0  0  0  0  0  0  0  0  0  0  0
   58.4800   31.4760   46.5860 C   0  0  0  0  0  0  0  0  0  0  0  0
   57.4520   25.2820   45.4840 N   0  0  0  0  0  0  0  0  0  0  0  0
   57.2670   24.2530   44.7050 C   0  0  0  0  0  0  0  0  0  0  0  0
   56.4810   24.2250   43.6020 N   0  0  0  0  0  0  0  0  0  0  0  0
   56.4710   22.9990   43.0140 C   0  0  0  0  0  0  0  0  0  0  0  0
   57.2480   22.0380   43.6530 C   0  0  0  0  0  0  0  0  0  0  0  0
   57.9630   22.7550   44.9980 S   0  0  0  0  0  0  0  0  0  0  0  0
   57.5535   28.1589   46.3177 H   0  0  0  0  0  0  0  0  0  0  0  0
   57.6180   27.7676   44.5668 H   0  0  0  0  0  0  0  0  0  0  0  0
   57.8544   30.0207   44.4121 H   0  0  0  0  0  0  0  0  0  0  0  0
   57.0443   30.8086   43.0188 H   0  0  0  0  0  0  0  0  0  0  0  0
   57.2517   34.2719   45.0425 H   0  0  0  0  0  0  0  0  0  0  0  0
   58.9332   35.3455   46.5379 H   0  0  0  0  0  0  0  0  0  0  0  0
   60.0345   31.4652   48.0971 H   0  0  0  0  0  0  0  0  0  0  0  0
   58.3544   30.3833   46.6029 H   0  0  0  0  0  0  0  0  0  0  0  0
   55.9090   25.0120   43.2310 H   0  0  0  0  0  0  0  0  0  0  0  0
   55.8931   22.7836   42.1032 H   0  0  0  0  0  0  0  0  0  0  0  0
   57.3733   20.9924   43.3350 H   0  0  0  0  0  0  0  0  0  0  0  0
  1  2  2  0
  2  3  1  0
  3  4  1  0
  4  5  1  0
  5  6  2  0
  5  7  1  0
  7  8  1  0
  8  9  1  0
  9 10  2  0
 10 11  1  0
 11 12  2  0
 12 13  1  0
 12 14  1  0
 14 15  2  0
  2 16  1  0
 16 17  2  3
 17 18  1  0
 18 19  1  0
 19 20  2  0
 20 21  1  0
 15  9  1  0
 21 17  1  0
  3 22  1  0
  3 23  1  0
  7 24  1  0
  7 25  1  0
 10 26  1  0
 11 27  1  0
 14 28  1  0
 15 29  1  0
 18 30  1  0
 19 31  1  0
 20 32  1  0
M  CHG  1   4  -1
M  END
>  <UniqueID>  (89) 
83

>  <SMILES>  (89) 
O=C(C[N-]C(=O)COc1ccc(Cl)cc1)N=c1[nH]ccs1

>  <Energy>  (89) 
61.524590095046754

>  <Genealogy>  (89) 
O=C(C[N-]C(=O)COc1ccc(Cl)cc1)N=c1[nH]ccs1 (protonated)
O=C(C[N-]C(=O)COc1ccc(Cl)cc1)N=c1[nH]ccs1 (3D coordinates assigned)
O=C(C[N-]C(=O)COc1ccc(Cl)cc1)N=c1[nH]ccs1 (optimized conformer: 61.524590095046754 kcal/mol)

>  <smiles>  (89) 
O=C(CNC(=O)COc1ccc(Cl)cc1)N=c1[nH]ccs1

>  <score_type>  (89) 
oracle

>  <origin>  (89) 
adg

>  <m_score__min__energy>  (89) 
-9.4499999999999993

>  <m_primary>  (89) 
energy

$$$$
89:0
     RDKit          3D

 57 60  0  0  0  0  0  0  0  0999 V2000
   58.0663   26.7364   42.1361 H   0  0  0  0  0  0  0  0  0  0  0  0
   57.8790   26.8410   43.2150 C   0  0  0  0  0  0  0  0  0  0  0  0
   57.9110   28.0790   43.7340 C   0  0  0  0  0  0  0  0  0  0  0  0
   56.7150   29.3250   43.2370 S   0  0  0  0  0  0  0  0  0  0  0  0
   57.2910   30.3290   44.6100 C   0  0  0  0  0  0  0  0  0  0  0  0
   56.7220   31.4070   44.9270 O   0  0  0  0  0  0  0  0  0  0  0  0
   58.4420   29.8430   45.2980 N   0  0  0  0  0  0  0  0  0  0  0  0
   59.0180   30.4340   46.4750 C   0  0  0  0  0  0  0  0  0  0  0  0
   59.7680   31.6150   46.3820 C   0  0  0  0  0  0  0  0  0  0  0  0
   59.9611   32.0636   45.3964 H   0  0  0  0  0  0  0  0  0  0  0  0
   60.2720   32.2260   47.5340 C   0  0  0  0  0  0  0  0  0  0  0  0
   60.8653   33.1485   47.4502 H   0  0  0  0  0  0  0  0  0  0  0  0
   60.0230   31.6650   48.8010 C   0  0  0  0  0  0  0  0  0  0  0  0
   60.4560   32.2620   49.9950 O   0  0  0  0  0  0  0  0  0  0  0  0
   60.5590   33.6670   50.2290 C   0  0  0  0  0  0  0  0  0  0  0  0
   60.0601   34.2042   49.4089 H   0  0  0  0  0  0  0  0  0  0  0  0
   60.0791   33.8942   51.1924 H   0  0  0  0  0  0  0  0  0  0  0  0
   62.0240   34.1150   50.3010 C   0  0  0  0  0  0  0  0  0  0  0  0
   62.0630   35.2137   50.3383 H   0  0  0  0  0  0  0  0  0  0  0  0
   62.4791   33.6829   51.2044 H   0  0  0  0  0  0  0  0  0  0  0  0
   62.7730   33.6480   49.1310 N   0  0  0  0  0  0  0  0  0  0  0  0
   62.7400   34.1950   47.9000 C   0  0  0  0  0  0  0  0  0  0  0  0
   62.1411   35.0675   47.5999 H   0  0  0  0  0  0  0  0  0  0  0  0
   63.5840   33.4760   47.0800 C   0  0  0  0  0  0  0  0  0  0  0  0
   63.7687   33.6776   46.0145 H   0  0  0  0  0  0  0  0  0  0  0  0
   64.1440   32.4870   47.8000 N   0  0  0  0  0  0  0  0  0  0  0  0
   64.8330   31.7790   47.4610 H   0  0  0  0  0  0  0  0  0  0  0  0
   63.6390   32.6110   49.0430 C   0  0  0  0  0  0  0  0  0  0  0  0
   64.0260   31.7170   50.1810 C   0  0  0  0  0  0  0  0  0  0  0  0
   63.8077   32.2212   51.1340 H   0  0  0  0  0  0  0  0  0  0  0  0
   63.4530   30.7799   50.1223 H   0  0  0  0  0  0  0  0  0  0  0  0
   65.1015   31.4935   50.1223 H   0  0  0  0  0  0  0  0  0  0  0  0
   59.3010   30.4680   48.8870 C   0  0  0  0  0  0  0  0  0  0  0  0
   59.1287   30.0039   49.8693 H   0  0  0  0  0  0  0  0  0  0  0  0
   58.7980   29.8590   47.7350 C   0  0  0  0  0  0  0  0  0  0  0  0
   58.2260   28.9230   47.8166 H   0  0  0  0  0  0  0  0  0  0  0  0
   58.8230   28.5780   44.7710 C   0  0  0  0  0  0  0  0  0  0  0  0
   59.8630   27.9760   45.1490 O   0  0  0  0  0  0  0  0  0  0  0  0
   57.6110   25.6090   43.9850 C   0  0  0  0  0  0  0  0  0  0  0  0
   57.9840   25.5460   45.3310 C   0  0  0  0  0  0  0  0  0  0  0  0
   58.4462   26.4206   45.8120 H   0  0  0  0  0  0  0  0  0  0  0  0
   57.7730   24.3790   46.0680 C   0  0  0  0  0  0  0  0  0  0  0  0
   58.0600   24.3434   47.1293 H   0  0  0  0  0  0  0  0  0  0  0  0
   57.1950   23.2470   45.4610 C   0  0  0  0  0  0  0  0  0  0  0  0
   56.9580   22.0600   46.1720 O   0  0  0  0  0  0  0  0  0  0  0  0
   57.7480   20.8810   46.0590 C   0  0  0  0  0  0  0  0  0  0  0  0
   57.9973   20.5090   47.0637 H   0  0  0  0  0  0  0  0  0  0  0  0
   57.1824   20.1116   45.5130 H   0  0  0  0  0  0  0  0  0  0  0  0
   58.6747   21.1115   45.5130 H   0  0  0  0  0  0  0  0  0  0  0  0
   56.8440   23.2930   44.1030 C   0  0  0  0  0  0  0  0  0  0  0  0
   56.2680   22.1510   43.5220 O   0  0  0  0  0  0  0  0  0  0  0  0
   57.0050   21.0940   42.9170 C   0  0  0  0  0  0  0  0  0  0  0  0
   57.4469   20.4602   43.6999 H   0  0  0  0  0  0  0  0  0  0  0  0
   56.3321   20.4888   42.2918 H   0  0  0  0  0  0  0  0  0  0  0  0
   57.8055   21.5162   42.2918 H   0  0  0  0  0  0  0  0  0  0  0  0
   57.0760   24.4690   43.3640 C   0  0  0  0  0  0  0  0  0  0  0  0
   56.8360   24.4948   42.2908 H   0  0  0  0  0  0  0  0  0  0  0  0
  1  2  1  0
  2  3  2  0
  3  4  1  0
  4  5  1  0
  5  6  2  0
  5  7  1  0
  7  8  1  0
  8  9  2  0
  9 10  1  0
  9 11  1  0
 11 12  1  0
 11 13  2  0
 13 14  1  0
 14 15  1  0
 15 16  1  0
 15 17  1  0
 15 18  1  0
 18 19  1  0
 18 20  1  0
 18 21  1  0
 21 22  1  0
 22 23  1  0
 22 24  2  0
 24 25  1  0
 24 26  1  0
 26 27  1  0
 26 28  2  0
 28 29  1  0
 29 30  1  0
 29 31  1  0
 29 32  1  0
 13 33  1  0
 33 34  1  0
 33 35  2  0
 35 36  1  0
  7 37  1  0
 37 38  2  0
  2 39  1  0
 39 40  2  0
 40 41  1  0
 40 42  1  0
 42 43  1  0
 42 44  2  0
 44 45  1  0
 45 46  1  0
 46 47  1  0
 46 48  1  0
 46 49  1  0
 44 50  1  0
 50 51  1  0
 51 52  1  0
 52 53  1  0
 52 54  1  0
 52 55  1  0
 50 56  2  0
 56 57  1  0
 37  3  1  0
 56 39  1  0
 35  8  1  0
 28 21  1  0
M  CHG  1  26   1
M  END
>  <UniqueID>  (90) 
84

>  <SMILES>  (90) 
COc1ccc(/C=C2/SC(=O)N(c3ccc(OCCn4cc[nH+]c4C)cc3)C2=O)cc1OC

>  <Energy>  (90) 
118.15982029718077

>  <Genealogy>  (90) 
COc1ccc(C=C2SC(=O)N(c3ccc(OCCn4cc[nH+]c4C)cc3)C2=O)cc1OC (protonated)
COc1ccc(/C=C2/SC(=O)N(c3ccc(OCCn4cc[nH+]c4C)cc3)C2=O)cc1OC (cis-trans isomerization)
COc1ccc(/C=C2/SC(=O)N(c3ccc(OCCn4cc[nH+]c4C)cc3)C2=O)cc1OC (3D coordinates assigned)
COc1ccc(/C=C2/SC(=O)N(c3ccc(OCCn4cc[nH+]c4C)cc3)C2=O)cc1OC (nonaromatic ring conformer: 118.15982029718077 kcal/mol)

>  <smiles>  (90) 
COc1ccc(C=C2SC(=O)N(c3ccc(OCCn4ccnc4C)cc3)C2=O)cc1OC

>  <score_type>  (90) 
oracle

>  <origin>  (90) 
adg

>  <m_score__min__energy>  (90) 
-7.6100000000000003

>  <m_primary>  (90) 
energy

$$$$
90:0
     RDKit          3D

 56 59  0  0  0  0  0  0  0  0999 V2000
   63.8460   33.3930   48.3950 C   0  0  0  0  0  0  0  0  0  0  0  0
   62.4090   33.2170   48.0050 C   0  0  0  0  0  0  0  0  0  0  0  0
   62.0130   32.1030   47.2470 C   0  0  0  0  0  0  0  0  0  0  0  0
   60.6670   31.9130   46.9200 C   0  0  0  0  0  0  0  0  0  0  0  0
   59.6970   32.8360   47.3430 C   0  0  0  0  0  0  0  0  0  0  0  0
   58.2400   32.6040   47.0440 C   0  0  0  0  0  0  0  0  0  0  0  0
   58.0790   31.3360   46.3410 N   0  0  0  0  0  0  0  0  0  0  0  0
   57.3570   31.2480   45.1080 C   0  0  0  0  0  0  0  0  0  0  0  0
   56.3680   31.9990   44.8990 O   0  0  0  0  0  0  0  0  0  0  0  0
   57.8200   30.3090   44.0400 C   0  0  0  0  0  0  0  0  0  0  0  0
   57.8900   28.9550   44.5840 N   0  0  0  0  0  0  0  0  0  0  0  0
   59.0280   28.2670   44.8500 C   0  0  0  0  0  0  0  0  0  0  0  0
   58.6950   27.0940   45.4990 C   0  0  0  0  0  0  0  0  0  0  0  0
   59.5020   26.0600   45.9730 C   0  0  0  0  0  0  0  0  0  0  0  0
   58.8720   24.9730   46.6090 C   0  0  0  0  0  0  0  0  0  0  0  0
   57.4660   24.9410   46.7510 C   0  0  0  0  0  0  0  0  0  0  0  0
   56.6770   26.0030   46.2670 C   0  0  0  0  0  0  0  0  0  0  0  0
   55.2540   25.9390   46.3250 N   0  0  0  0  0  0  0  0  0  0  0  0
   54.4340   24.4730   45.9100 S   0  0  0  0  0  0  0  0  0  0  0  0
   53.9720   23.7770   47.1600 O   0  0  0  0  0  0  0  0  0  0  0  0
   53.2330   24.8030   45.0670 O   0  0  0  0  0  0  0  0  0  0  0  0
   55.5290   23.4280   45.0060 C   0  0  0  0  0  0  0  0  0  0  0  0
   55.9810   22.2220   45.5560 C   0  0  0  0  0  0  0  0  0  0  0  0
   56.7680   21.3520   44.7950 C   0  0  0  0  0  0  0  0  0  0  0  0
   57.1180   21.6830   43.4770 C   0  0  0  0  0  0  0  0  0  0  0  0
   57.8960   20.7150   42.6370 C   0  0  0  0  0  0  0  0  0  0  0  0
   56.6580   22.8900   42.9260 C   0  0  0  0  0  0  0  0  0  0  0  0
   55.8770   23.7620   43.6910 C   0  0  0  0  0  0  0  0  0  0  0  0
   57.3300   27.0690   45.6470 C   0  0  0  0  0  0  0  0  0  0  0  0
   56.8570   28.2320   45.0800 C   0  0  0  0  0  0  0  0  0  0  0  0
   55.5260   28.6310   45.0360 O   0  0  0  0  0  0  0  0  0  0  0  0
   60.0890   33.9310   48.1290 C   0  0  0  0  0  0  0  0  0  0  0  0
   61.4350   34.1200   48.4600 C   0  0  0  0  0  0  0  0  0  0  0  0
   63.9297   33.4032   49.4918 H   0  0  0  0  0  0  0  0  0  0  0  0
   64.4405   32.5610   47.9897 H   0  0  0  0  0  0  0  0  0  0  0  0
   64.2221   34.3439   47.9897 H   0  0  0  0  0  0  0  0  0  0  0  0
   62.7660   31.3760   46.9087 H   0  0  0  0  0  0  0  0  0  0  0  0
   60.3663   31.0358   46.3282 H   0  0  0  0  0  0  0  0  0  0  0  0
   57.6734   32.5743   47.9864 H   0  0  0  0  0  0  0  0  0  0  0  0
   57.8627   33.4216   46.4122 H   0  0  0  0  0  0  0  0  0  0  0  0
   58.6550   30.5210   46.6500 H   0  0  0  0  0  0  0  0  0  0  0  0
   57.1112   30.3309   43.1991 H   0  0  0  0  0  0  0  0  0  0  0  0
   58.8154   30.6157   43.6862 H   0  0  0  0  0  0  0  0  0  0  0  0
   60.0474   28.5896   44.5917 H   0  0  0  0  0  0  0  0  0  0  0  0
   60.5951   26.0925   45.8539 H   0  0  0  0  0  0  0  0  0  0  0  0
   59.4788   24.1422   46.9984 H   0  0  0  0  0  0  0  0  0  0  0  0
   56.9853   24.0821   47.2421 H   0  0  0  0  0  0  0  0  0  0  0  0
   55.7160   21.9581   46.5905 H   0  0  0  0  0  0  0  0  0  0  0  0
   57.1144   20.4036   45.2316 H   0  0  0  0  0  0  0  0  0  0  0  0
   58.4503   20.0254   43.2906 H   0  0  0  0  0  0  0  0  0  0  0  0
   57.2042   20.1421   42.0021 H   0  0  0  0  0  0  0  0  0  0  0  0
   58.6043   21.2674   42.0021 H   0  0  0  0  0  0  0  0  0  0  0  0
   56.9131   23.1506   41.8882 H   0  0  0  0  0  0  0  0  0  0  0  0
   55.5347   24.7137   43.2585 H   0  0  0  0  0  0  0  0  0  0  0  0
   59.3328   34.6452   48.4870 H   0  0  0  0  0  0  0  0  0  0  0  0
   61.7314   34.9795   49.0792 H   0  0  0  0  0  0  0  0  0  0  0  0
  1  2  1  0
  2  3  2  0
  3  4  1  0
  4  5  2  0
  5  6  1  0
  6  7  1  0
  7  8  1  0
  8  9  2  0
  8 10  1  0
 10 11  1  0
 11 12  1  0
 12 13  2  0
 13 14  1  0
 14 15  2  0
 15 16  1  0
 16 17  2  0
 17 18  1  0
 18 19  1  0
 19 20  2  0
 19 21  2  0
 19 22  1  0
 22 23  2  0
 23 24  1  0
 24 25  2  0
 25 26  1  0
 25 27  1  0
 27 28  2  0
 17 29  1  0
 29 30  2  0
 30 31  1  0
  5 32  1  0
 32 33  2  0
 33  2  1  0
 30 11  1  0
 29 13  1  0
 28 22  1  0
  1 34  1  0
  1 35  1  0
  1 36  1  0
  3 37  1  0
  4 38  1  0
  6 39  1  0
  6 40  1  0
  7 41  1  0
 10 42  1  0
 10 43  1  0
 12 44  1  0
 14 45  1  0
 15 46  1  0
 16 47  1  0
 23 48  1  0
 24 49  1  0
 26 50  1  0
 26 51  1  0
 26 52  1  0
 27 53  1  0
 28 54  1  0
 32 55  1  0
 33 56  1  0
M  CHG  2  18  -1  31  -1
M  END
>  <UniqueID>  (91) 
85

>  <SMILES>  (91) 
Cc1ccc(CNC(=O)Cn2cc3cccc([N-]S(=O)(=O)c4ccc(C)cc4)c3c2[O-])cc1

>  <Energy>  (91) 
92.3790045827875

>  <Genealogy>  (91) 
Cc1ccc(CNC(=O)Cn2cc3cccc([N-]S(=O)(=O)c4ccc(C)cc4)c3c2[O-])cc1 (protonated)
Cc1ccc(CNC(=O)Cn2cc3cccc([N-]S(=O)(=O)c4ccc(C)cc4)c3c2[O-])cc1 (3D coordinates assigned)
Cc1ccc(CNC(=O)Cn2cc3cccc([N-]S(=O)(=O)c4ccc(C)cc4)c3c2[O-])cc1 (optimized conformer: 92.3790045827875 kcal/mol)

>  <smiles>  (91) 
Cc1ccc(CNC(=O)Cn2cc3cccc(NS(=O)(=O)c4ccc(C)cc4)c3c2O)cc1

>  <score_type>  (91) 
oracle

>  <origin>  (91) 
adg

>  <m_score__min__energy>  (91) 
-14.94

>  <m_primary>  (91) 
energy

$$$$
91:0
     RDKit          3D

 48 50  0  0  1  0  0  0  0  0999 V2000
   56.5900   29.6210   42.6320 C   0  0  0  0  0  0  0  0  0  0  0  0
   56.4790   29.9880   44.3430 S   0  0  0  0  0  0  0  0  0  0  0  0
   55.9240   31.3870   44.5050 O   0  0  0  0  0  0  0  0  0  0  0  0
   55.5080   29.0250   44.9640 O   0  0  0  0  0  0  0  0  0  0  0  0
   57.9370   29.8900   45.2010 N   0  0  0  0  0  0  0  0  0  0  0  0
   58.2150   30.9510   46.1070 C   0  0  0  0  0  0  0  0  0  0  0  0
   59.0020   30.3690   47.2590 C   0  0  0  0  0  0  0  0  0  0  0  0
   59.4960   28.9540   46.9260 C   0  0  0  0  0  0  0  0  0  0  0  0
   60.5240   28.6430   47.8690 N   0  0  0  0  0  0  0  0  0  0  0  0
   60.9920   29.4870   48.7080 C   0  0  0  0  0  0  0  0  0  0  0  0
   60.6590   29.3620   49.9970 N   0  0  0  0  0  0  0  0  0  0  0  0
   61.1500   30.2500   50.8900 C   0  0  0  0  0  0  0  0  0  0  0  0
   61.9880   31.2830   50.5020 C   0  0  0  0  0  0  0  0  0  0  0  0
   62.3010   31.3620   49.1430 C   0  0  0  0  0  0  0  0  0  0  0  0
   63.0820   32.3140   48.7340 N   0  0  0  0  0  0  0  0  0  0  0  0
   62.8910   32.9520   47.4420 C   0  0  0  0  0  0  0  0  0  0  0  0
   61.5150   33.5250   47.4660 C   0  0  0  0  0  0  0  0  0  0  0  0
   60.9450   34.0390   48.6120 C   0  0  0  0  0  0  0  0  0  0  0  0
   59.6640   34.5610   48.5920 C   0  0  0  0  0  0  0  0  0  0  0  0
   58.9110   34.5820   47.4150 C   0  0  0  0  0  0  0  0  0  0  0  0
   59.4690   34.0750   46.2800 C   0  0  0  0  0  0  0  0  0  0  0  0
   58.6000   34.0580   44.7560 Cl  0  0  0  0  0  0  0  0  0  0  0  0
   60.7470   33.5550   46.3070 C   0  0  0  0  0  0  0  0  0  0  0  0
   61.8040   30.4700   48.2670 N   0  0  0  0  0  0  0  0  0  0  0  0
   60.1090   29.0200   45.5450 C   0  0  0  0  0  0  0  0  0  0  0  0
   59.0490   29.3480   44.4930 C   0  0  0  0  0  0  0  0  0  0  0  0
   56.9062   28.5756   42.5010 H   0  0  0  0  0  0  0  0  0  0  0  0
   55.6070   29.7686   42.1608 H   0  0  0  0  0  0  0  0  0  0  0  0
   57.3264   30.2886   42.1608 H   0  0  0  0  0  0  0  0  0  0  0  0
   58.8064   31.7299   45.6034 H   0  0  0  0  0  0  0  0  0  0  0  0
   57.2815   31.4084   46.4668 H   0  0  0  0  0  0  0  0  0  0  0  0
   59.8690   31.0139   47.4650 H   0  0  0  0  0  0  0  0  0  0  0  0
   58.3460   30.3138   48.1402 H   0  0  0  0  0  0  0  0  0  0  0  0
   58.6915   28.2047   46.9625 H   0  0  0  0  0  0  0  0  0  0  0  0
   60.0460   28.6220   50.3430 H   0  0  0  0  0  0  0  0  0  0  0  0
   60.8776   30.1501   51.9510 H   0  0  0  0  0  0  0  0  0  0  0  0
   62.3873   32.0057   51.2288 H   0  0  0  0  0  0  0  0  0  0  0  0
   63.6345   33.7494   47.2958 H   0  0  0  0  0  0  0  0  0  0  0  0
   63.0147   32.2354   46.6166 H   0  0  0  0  0  0  0  0  0  0  0  0
   61.5154   34.0338   49.5525 H   0  0  0  0  0  0  0  0  0  0  0  0
   59.2308   34.9664   49.5183 H   0  0  0  0  0  0  0  0  0  0  0  0
   57.8926   34.9977   47.4050 H   0  0  0  0  0  0  0  0  0  0  0  0
   61.1738   33.1494   45.3778 H   0  0  0  0  0  0  0  0  0  0  0  0
   62.0320   30.5190   47.2490 H   0  0  0  0  0  0  0  0  0  0  0  0
   60.8835   29.8010   45.5316 H   0  0  0  0  0  0  0  0  0  0  0  0
   60.5480   28.0397   45.3080 H   0  0  0  0  0  0  0  0  0  0  0  0
   59.4396   30.0848   43.7756 H   0  0  0  0  0  0  0  0  0  0  0  0
   58.7617   28.4526   43.9223 H   0  0  0  0  0  0  0  0  0  0  0  0
  1  2  1  0
  2  3  2  0
  2  4  2  0
  2  5  1  0
  5  6  1  0
  6  7  1  0
  7  8  1  0
  8  9  1  0
  9 10  2  0
 10 11  1  0
 11 12  1  0
 12 13  2  0
 13 14  1  0
 14 15  2  0
 15 16  1  0
 16 17  1  0
 17 18  2  0
 18 19  1  0
 19 20  2  0
 20 21  1  0
 21 22  1  0
 21 23  2  0
 14 24  1  0
  8 25  1  0
 25 26  1  0
 26  5  1  0
 24 10  1  0
 23 17  1  0
  1 27  1  0
  1 28  1  0
  1 29  1  0
  6 30  1  0
  6 31  1  0
  7 32  1  0
  7 33  1  0
  8 34  1  0
 11 35  1  0
 12 36  1  0
 13 37  1  0
 16 38  1  0
 16 39  1  0
 18 40  1  0
 19 41  1  0
 20 42  1  0
 23 43  1  0
 24 44  1  0
 25 45  1  0
 25 46  1  0
 26 47  1  0
 26 48  1  0
M  END
>  <smiles>  (92) 
CS(=O)(=O)N1CCC(N=c2[nH]ccc(=NCc3cccc(Cl)c3)[nH]2)CC1

>  <score_type>  (92) 
oracle

>  <origin>  (92) 
adg

>  <m_score__min__energy>  (92) 
-9.3599999999999994

>  <m_primary>  (92) 
energy

$$$$
92:0
     RDKit          3D

 35 36  0  0  0  0  0  0  0  0999 V2000
   56.8220   30.4620   42.9590 C   0  0  0  0  0  0  0  0  0  0  0  0
   56.9900   30.2020   44.4250 C   0  0  0  0  0  0  0  0  0  0  0  0
   56.0240   29.7270   45.0770 O   0  0  0  0  0  0  0  0  0  0  0  0
   58.2080   30.5130   45.1170 N   0  0  0  0  0  0  0  0  0  0  0  0
   58.3160   30.9780   46.4670 C   0  0  0  0  0  0  0  0  0  0  0  0
   58.0430   32.3130   46.8110 C   0  0  0  0  0  0  0  0  0  0  0  0
   58.1500   32.7340   48.1410 C   0  0  0  0  0  0  0  0  0  0  0  0
   58.5290   31.8250   49.1350 C   0  0  0  0  0  0  0  0  0  0  0  0
   58.5640   32.3240   50.8600 S   0  0  0  0  0  0  0  0  0  0  0  0
   57.6590   30.8630   51.4930 C   0  0  0  0  0  0  0  0  0  0  0  0
   56.2460   31.2000   51.8520 C   0  0  0  0  0  0  0  0  0  0  0  0
   55.9730   32.3320   52.3310 O   0  0  0  0  0  0  0  0  0  0  0  0
   55.2210   30.2200   51.6400 N   0  0  0  0  0  0  0  0  0  0  0  0
   53.8130   30.3700   51.8730 C   0  0  0  0  0  0  0  0  0  0  0  0
   53.1640   29.4130   52.6640 C   0  0  0  0  0  0  0  0  0  0  0  0
   51.8060   29.5470   52.9690 C   0  0  0  0  0  0  0  0  0  0  0  0
   51.0880   30.6470   52.4920 C   0  0  0  0  0  0  0  0  0  0  0  0
   51.7290   31.6170   51.7170 C   0  0  0  0  0  0  0  0  0  0  0  0
   51.0180   32.7200   51.2600 O   0  0  0  0  0  0  0  0  0  0  0  0
   53.0870   31.4840   51.4090 C   0  0  0  0  0  0  0  0  0  0  0  0
   58.8540   30.5090   48.7860 C   0  0  0  0  0  0  0  0  0  0  0  0
   58.7570   30.0900   47.4570 C   0  0  0  0  0  0  0  0  0  0  0  0
   56.2302   31.3779   42.8145 H   0  0  0  0  0  0  0  0  0  0  0  0
   57.8106   30.5869   42.4931 H   0  0  0  0  0  0  0  0  0  0  0  0
   56.3019   29.6120   42.4931 H   0  0  0  0  0  0  0  0  0  0  0  0
   57.7441   33.0295   46.0318 H   0  0  0  0  0  0  0  0  0  0  0  0
   57.9361   33.7801   48.4054 H   0  0  0  0  0  0  0  0  0  0  0  0
   57.6534   30.0834   50.7170 H   0  0  0  0  0  0  0  0  0  0  0  0
   58.1691   30.5110   52.4018 H   0  0  0  0  0  0  0  0  0  0  0  0
   53.7270   28.5496   53.0481 H   0  0  0  0  0  0  0  0  0  0  0  0
   51.3028   28.7866   53.5844 H   0  0  0  0  0  0  0  0  0  0  0  0
   50.0182   30.7492   52.7267 H   0  0  0  0  0  0  0  0  0  0  0  0
   53.5894   32.2519   50.8025 H   0  0  0  0  0  0  0  0  0  0  0  0
   59.1868   29.8026   49.5607 H   0  0  0  0  0  0  0  0  0  0  0  0
   59.0279   29.0587   47.1866 H   0  0  0  0  0  0  0  0  0  0  0  0
  1  2  1  0
  2  3  2  0
  2  4  1  0
  4  5  1  0
  5  6  2  0
  6  7  1  0
  7  8  2  0
  8  9  1  0
  9 10  1  0
 10 11  1  0
 11 12  2  0
 11 13  1  0
 13 14  1  0
 14 15  2  0
 15 16  1  0
 16 17  2  0
 17 18  1  0
 18 19  1  0
 18 20  2  0
  8 21  1  0
 21 22  2  0
 22  5  1  0
 20 14  1  0
  1 23  1  0
  1 24  1  0
  1 25  1  0
  6 26  1  0
  7 27  1  0
 10 28  1  0
 10 29  1  0
 15 30  1  0
 16 31  1  0
 17 32  1  0
 20 33  1  0
 21 34  1  0
 22 35  1  0
M  CHG  3   4  -1  13  -1  19  -1
M  END
>  <UniqueID>  (93) 
86

>  <SMILES>  (93) 
CC(=O)[N-]c1ccc(SCC(=O)[N-]c2cccc([O-])c2)cc1

>  <Energy>  (93) 
34.83607277650764

>  <Genealogy>  (93) 
CC(=O)[N-]c1ccc(SCC(=O)[N-]c2cccc([O-])c2)cc1 (protonated)
CC(=O)[N-]c1ccc(SCC(=O)[N-]c2cccc([O-])c2)cc1 (3D coordinates assigned)
CC(=O)[N-]c1ccc(SCC(=O)[N-]c2cccc([O-])c2)cc1 (optimized conformer: 34.83607277650764 kcal/mol)

>  <smiles>  (93) 
CC(=O)Nc1ccc(SCC(=O)Nc2cccc(O)c2)cc1

>  <score_type>  (93) 
oracle

>  <origin>  (93) 
adg

>  <m_score__min__energy>  (93) 
-13.18

>  <m_primary>  (93) 
energy

$$$$
93:0
     RDKit          3D

 50 52  0  0  0  0  0  0  0  0999 V2000
   58.8550   26.0100   47.7810 C   0  0  0  0  0  0  0  0  0  0  0  0
   58.5120   27.1060   46.7850 C   0  0  0  0  0  0  0  0  0  0  0  0
   57.3690   26.9510   45.9550 C   0  0  0  0  0  0  0  0  0  0  0  0
   56.3970   25.8370   46.0760 C   0  0  0  0  0  0  0  0  0  0  0  0
   55.1540   26.0260   45.9920 O   0  0  0  0  0  0  0  0  0  0  0  0
   57.1180   27.8990   44.9640 C   0  0  0  0  0  0  0  0  0  0  0  0
   57.9160   29.0310   44.8420 C   0  0  0  0  0  0  0  0  0  0  0  0
   57.6330   30.0290   43.7450 C   0  0  0  0  0  0  0  0  0  0  0  0
   57.2240   31.3430   44.3390 C   0  0  0  0  0  0  0  0  0  0  0  0
   55.9990   31.5930   44.5020 O   0  0  0  0  0  0  0  0  0  0  0  0
   58.2150   32.3260   44.6710 N   0  0  0  0  0  0  0  0  0  0  0  0
   57.8490   33.6760   45.1180 C   0  0  0  0  0  0  0  0  0  0  0  0
   58.9880   34.6610   44.8700 C   0  0  0  0  0  0  0  0  0  0  0  0
   59.8500   34.6000   46.1180 C   0  0  0  0  0  0  0  0  0  0  0  0
   58.9020   34.2590   47.2620 C   0  0  0  0  0  0  0  0  0  0  0  0
   57.6270   33.6980   46.6330 C   0  0  0  0  0  0  0  0  0  0  0  0
   58.9920   29.2050   45.7280 C   0  0  0  0  0  0  0  0  0  0  0  0
   59.6910   30.2530   45.6300 O   0  0  0  0  0  0  0  0  0  0  0  0
   59.2810   28.2580   46.6870 N   0  0  0  0  0  0  0  0  0  0  0  0
   60.4120   28.5060   47.6170 C   0  0  0  0  0  0  0  0  0  0  0  0
   60.2330   29.8040   48.3630 C   0  0  0  0  0  0  0  0  0  0  0  0
   61.1980   30.8200   48.2660 C   0  0  0  0  0  0  0  0  0  0  0  0
   61.0170   32.0320   48.9390 C   0  0  0  0  0  0  0  0  0  0  0  0
   59.8650   32.2440   49.7030 C   0  0  0  0  0  0  0  0  0  0  0  0
   58.8930   31.2450   49.7930 C   0  0  0  0  0  0  0  0  0  0  0  0
   59.0710   30.0310   49.1230 C   0  0  0  0  0  0  0  0  0  0  0  0
   58.7348   26.3941   48.8047 H   0  0  0  0  0  0  0  0  0  0  0  0
   58.1821   25.1531   47.6295 H   0  0  0  0  0  0  0  0  0  0  0  0
   59.8964   25.6896   47.6295 H   0  0  0  0  0  0  0  0  0  0  0  0
   56.7721   24.8166   46.2439 H   0  0  0  0  0  0  0  0  0  0  0  0
   56.2779   27.7495   44.2698 H   0  0  0  0  0  0  0  0  0  0  0  0
   58.5397   30.1701   43.1384 H   0  0  0  0  0  0  0  0  0  0  0  0
   56.8165   29.6489   43.1135 H   0  0  0  0  0  0  0  0  0  0  0  0
   59.2220   32.0810   44.5350 H   0  0  0  0  0  0  0  0  0  0  0  0
   56.9418   33.9528   44.5608 H   0  0  0  0  0  0  0  0  0  0  0  0
   59.5695   34.3626   43.9852 H   0  0  0  0  0  0  0  0  0  0  0  0
   58.6158   35.6782   44.6783 H   0  0  0  0  0  0  0  0  0  0  0  0
   60.6201   33.8215   46.0138 H   0  0  0  0  0  0  0  0  0  0  0  0
   60.3727   35.5514   46.2956 H   0  0  0  0  0  0  0  0  0  0  0  0
   59.3605   33.5072   47.9213 H   0  0  0  0  0  0  0  0  0  0  0  0
   58.6817   35.1500   47.8683 H   0  0  0  0  0  0  0  0  0  0  0  0
   57.4400   32.6789   47.0025 H   0  0  0  0  0  0  0  0  0  0  0  0
   56.7552   34.3161   46.8936 H   0  0  0  0  0  0  0  0  0  0  0  0
   60.4673   27.6806   48.3421 H   0  0  0  0  0  0  0  0  0  0  0  0
   61.3387   28.5690   47.0278 H   0  0  0  0  0  0  0  0  0  0  0  0
   62.1006   30.6613   47.6576 H   0  0  0  0  0  0  0  0  0  0  0  0
   61.7815   32.8197   48.8675 H   0  0  0  0  0  0  0  0  0  0  0  0
   59.7244   33.1975   50.2331 H   0  0  0  0  0  0  0  0  0  0  0  0
   57.9860   31.4137   50.3920 H   0  0  0  0  0  0  0  0  0  0  0  0
   58.2993   29.2500   49.1903 H   0  0  0  0  0  0  0  0  0  0  0  0
  1  2  1  0
  2  3  2  0
  3  4  1  0
  4  5  2  0
  3  6  1  0
  6  7  2  0
  7  8  1  0
  8  9  1  0
  9 10  2  0
  9 11  1  0
 11 12  1  0
 12 13  1  0
 13 14  1  0
 14 15  1  0
 15 16  1  0
  7 17  1  0
 17 18  2  0
 17 19  1  0
 19 20  1  0
 20 21  1  0
 21 22  2  0
 22 23  1  0
 23 24  2  0
 24 25  1  0
 25 26  2  0
 19  2  1  0
 26 21  1  0
 16 12  1  0
  1 27  1  0
  1 28  1  0
  1 29  1  0
  4 30  1  0
  6 31  1  0
  8 32  1  0
  8 33  1  0
 11 34  1  0
 12 35  1  0
 13 36  1  0
 13 37  1  0
 14 38  1  0
 14 39  1  0
 15 40  1  0
 15 41  1  0
 16 42  1  0
 16 43  1  0
 20 44  1  0
 20 45  1  0
 22 46  1  0
 23 47  1  0
 24 48  1  0
 25 49  1  0
 26 50  1  0
M  END
>  <UniqueID>  (94) 
87

>  <SMILES>  (94) 
Cc1c(C=O)cc(CC(=O)NC2CCCC2)c(=O)n1Cc1ccccc1

>  <Energy>  (94) 
60.88819826718065

>  <Genealogy>  (94) 
Cc1c(C=O)cc(CC(=O)NC2CCCC2)c(=O)n1Cc1ccccc1 (3D coordinates assigned)
Cc1c(C=O)cc(CC(=O)NC2CCCC2)c(=O)n1Cc1ccccc1 (nonaromatic ring conformer: 60.88819826718065 kcal/mol)

>  <smiles>  (94) 
Cc1c(C=O)cc(CC(=O)NC2CCCC2)c(=O)n1Cc1ccccc1

>  <score_type>  (94) 
oracle

>  <origin>  (94) 
adg

>  <m_score__min__energy>  (94) 
-8.1300000000000008

>  <m_primary>  (94) 
energy

$$$$
94:0
     RDKit          3D

 33 34  0  0  0  0  0  0  0  0999 V2000
   56.7201   24.2002   47.0236 H   0  0  0  0  0  0  0  0  0  0  0  0
   56.3550   24.2100   45.9860 C   0  0  0  0  0  0  0  0  0  0  0  0
   57.1870   24.4750   45.0250 N   0  0  0  0  0  0  0  0  0  0  0  0
   58.4990   25.0790   45.2500 C   0  0  0  0  0  0  0  0  0  0  0  0
   58.8098   25.6106   44.3385 H   0  0  0  0  0  0  0  0  0  0  0  0
   59.2121   24.2784   45.4960 H   0  0  0  0  0  0  0  0  0  0  0  0
   58.4630   26.0710   46.4190 C   0  0  0  0  0  0  0  0  0  0  0  0
   59.4584   26.1059   46.8860 H   0  0  0  0  0  0  0  0  0  0  0  0
   57.7004   25.7271   47.1332 H   0  0  0  0  0  0  0  0  0  0  0  0
   58.0870   27.4610   45.9690 C   0  0  0  0  0  0  0  0  0  0  0  0
   59.0450   28.4850   45.9660 C   0  0  0  0  0  0  0  0  0  0  0  0
   60.0837   28.2632   46.2522 H   0  0  0  0  0  0  0  0  0  0  0  0
   58.6870   29.7870   45.6010 C   0  0  0  0  0  0  0  0  0  0  0  0
   59.4461   30.5831   45.5975 H   0  0  0  0  0  0  0  0  0  0  0  0
   57.3590   30.0830   45.2380 C   0  0  0  0  0  0  0  0  0  0  0  0
   56.9550   31.3760   44.8700 O   0  0  0  0  0  0  0  0  0  0  0  0
   57.4930   32.1060   43.7730 C   0  0  0  0  0  0  0  0  0  0  0  0
   58.1058   32.9375   44.1512 H   0  0  0  0  0  0  0  0  0  0  0  0
   58.1175   31.4395   43.1600 H   0  0  0  0  0  0  0  0  0  0  0  0
   56.6715   32.5052   43.1600 H   0  0  0  0  0  0  0  0  0  0  0  0
   56.4030   29.0580   45.2450 C   0  0  0  0  0  0  0  0  0  0  0  0
   55.0860   29.3330   44.8960 O   0  0  0  0  0  0  0  0  0  0  0  0
   56.7630   27.7570   45.6070 C   0  0  0  0  0  0  0  0  0  0  0  0
   56.0047   26.9602   45.6083 H   0  0  0  0  0  0  0  0  0  0  0  0
   54.9240   23.9200   45.7200 C   0  0  0  0  0  0  0  0  0  0  0  0
   54.0050   24.9810   45.6240 C   0  0  0  0  0  0  0  0  0  0  0  0
   54.4190   26.2990   45.7750 O   0  0  0  0  0  0  0  0  0  0  0  0
   52.6940   24.7270   45.3750 N   0  0  0  0  0  0  0  0  0  0  0  0
   52.2430   23.4590   45.2150 C   0  0  0  0  0  0  0  0  0  0  0  0
   50.6610   23.1880   44.9160 S   0  0  0  0  0  0  0  0  0  0  0  0
   53.1040   22.4150   45.3010 N   0  0  0  0  0  0  0  0  0  0  0  0
   54.4260   22.6100   45.5470 C   0  0  0  0  0  0  0  0  0  0  0  0
   55.1850   21.6080   45.6230 O   0  0  0  0  0  0  0  0  0  0  0  0
  1  2  1  0
  2  3  2  0
  3  4  1  0
  4  5  1  0
  4  6  1  0
  4  7  1  0
  7  8  1  0
  7  9  1  0
  7 10  1  0
 10 11  2  0
 11 12  1  0
 11 13  1  0
 13 14  1  0
 13 15  2  0
 15 16  1  0
 16 17  1  0
 17 18  1  0
 17 19  1  0
 17 20  1  0
 15 21  1  0
 21 22  1  0
 21 23  2  0
 23 24  1  0
  2 25  1  0
 25 26  2  0
 26 27  1  0
 26 28  1  0
 28 29  1  0
 29 30  2  0
 29 31  1  0
 31 32  1  0
 32 33  2  0
 23 10  1  0
 32 25  1  0
M  CHG  4  22  -1  27  -1  28  -1  31  -1
M  END
>  <UniqueID>  (95) 
88

>  <SMILES>  (95) 
COc1ccc(CC/N=C/c2c([O-])[n-]c(=S)[n-]c2=O)cc1[O-]

>  <Energy>  (95) 
32.182579507728576

>  <Genealogy>  (95) 
COc1ccc(CCN=Cc2c([O-])[n-]c(=S)[n-]c2=O)cc1[O-] (protonated)
COc1ccc(CC/N=C/c2c([O-])[n-]c(=S)[n-]c2=O)cc1[O-] (cis-trans isomerization)
COc1ccc(CC/N=C/c2c([O-])[n-]c(=S)[n-]c2=O)cc1[O-] (3D coordinates assigned)
COc1ccc(CC/N=C/c2c([O-])[n-]c(=S)[n-]c2=O)cc1[O-] (optimized conformer: 32.182579507728576 kcal/mol)

>  <smiles>  (95) 
COc1ccc(CCN=Cc2c(O)[nH]c(=S)[nH]c2=O)cc1O

>  <score_type>  (95) 
oracle

>  <origin>  (95) 
adg

>  <m_score__min__energy>  (95) 
-17.210000000000001

>  <m_primary>  (95) 
energy

$$$$
