0:0
     RDKit          3D

 47 49  0  0  0  0  0  0  0  0999 V2000
   58.1460   29.0070   44.7970 C   0  0  0  0  0  0  0  0  0  0  0  0
   56.6370   29.8180   44.3140 S   0  0  0  0  0  0  0  0  0  0  0  0
   55.4640   29.0830   44.8980 O   0  0  0  0  0  0  0  0  0  0  0  0
   56.5320   29.7970   42.8150 O   0  0  0  0  0  0  0  0  0  0  0  0
   56.6320   31.4700   44.8540 N   0  0  0  0  0  0  0  0  0  0  0  0
   57.9190   31.8110   45.4570 C   0  0  0  0  0  0  0  0  0  0  0  0
   57.8140   33.1430   46.1980 C   0  0  0  0  0  0  0  0  0  0  0  0
   59.0560   33.4640   46.8290 O   0  0  0  0  0  0  0  0  0  0  0  0
   59.3750   33.1440   48.1560 C   0  0  0  0  0  0  0  0  0  0  0  0
   59.6550   34.1320   49.1170 C   0  0  0  0  0  0  0  0  0  0  0  0
   59.9300   33.7680   50.4370 C   0  0  0  0  0  0  0  0  0  0  0  0
   59.9160   32.4230   50.8140 C   0  0  0  0  0  0  0  0  0  0  0  0
   59.6490   31.4270   49.8620 C   0  0  0  0  0  0  0  0  0  0  0  0
   59.5120   29.9880   50.2750 C   0  0  0  0  0  0  0  0  0  0  0  0
   58.1450   29.7380   50.7200 N   0  0  0  0  0  0  0  0  0  0  0  0
   57.5890   30.3040   51.9120 C   0  0  0  0  0  0  0  0  0  0  0  0
   58.3280   30.9750   52.6830 O   0  0  0  0  0  0  0  0  0  0  0  0
   56.1450   30.1240   52.2200 C   0  0  0  0  0  0  0  0  0  0  0  0
   55.2130   31.0830   51.7810 C   0  0  0  0  0  0  0  0  0  0  0  0
   53.8580   30.9580   52.1040 C   0  0  0  0  0  0  0  0  0  0  0  0
   52.9180   31.9150   51.6900 C   0  0  0  0  0  0  0  0  0  0  0  0
   51.5710   31.7680   52.0390 C   0  0  0  0  0  0  0  0  0  0  0  0
   50.6410   32.7160   51.6300 O   0  0  0  0  0  0  0  0  0  0  0  0
   51.1580   30.6680   52.7990 C   0  0  0  0  0  0  0  0  0  0  0  0
   52.0890   29.7110   53.2150 C   0  0  0  0  0  0  0  0  0  0  0  0
   53.4380   29.8530   52.8710 C   0  0  0  0  0  0  0  0  0  0  0  0
   54.3460   28.9290   53.2800 N   0  0  0  0  0  0  0  0  0  0  0  0
   55.6680   29.0300   52.9810 C   0  0  0  0  0  0  0  0  0  0  0  0
   56.4540   28.1380   53.3960 O   0  0  0  0  0  0  0  0  0  0  0  0
   59.4010   31.7950   48.5290 C   0  0  0  0  0  0  0  0  0  0  0  0
   58.2090   28.9732   45.8947 H   0  0  0  0  0  0  0  0  0  0  0  0
   58.1556   27.9822   44.3974 H   0  0  0  0  0  0  0  0  0  0  0  0
   59.0060   29.5644   44.3974 H   0  0  0  0  0  0  0  0  0  0  0  0
   58.2092   31.0218   46.1662 H   0  0  0  0  0  0  0  0  0  0  0  0
   58.6766   31.8983   44.6643 H   0  0  0  0  0  0  0  0  0  0  0  0
   57.5563   33.9367   45.4813 H   0  0  0  0  0  0  0  0  0  0  0  0
   57.0339   33.0607   46.9692 H   0  0  0  0  0  0  0  0  0  0  0  0
   59.6574   35.1935   48.8284 H   0  0  0  0  0  0  0  0  0  0  0  0
   60.1585   34.5436   51.1828 H   0  0  0  0  0  0  0  0  0  0  0  0
   60.1147   32.1439   51.8593 H   0  0  0  0  0  0  0  0  0  0  0  0
   59.7438   29.3371   49.4191 H   0  0  0  0  0  0  0  0  0  0  0  0
   60.2104   29.7744   51.0976 H   0  0  0  0  0  0  0  0  0  0  0  0
   55.5533   31.9382   51.1786 H   0  0  0  0  0  0  0  0  0  0  0  0
   53.2402   32.7799   51.0916 H   0  0  0  0  0  0  0  0  0  0  0  0
   50.0978   30.5557   53.0700 H   0  0  0  0  0  0  0  0  0  0  0  0
   51.7612   28.8473   53.8121 H   0  0  0  0  0  0  0  0  0  0  0  0
   59.2258   31.0164   47.7719 H   0  0  0  0  0  0  0  0  0  0  0  0
  1  2  1  0
  2  3  2  0
  2  4  2  0
  2  5  1  0
  5  6  1  0
  6  7  1  0
  7  8  1  0
  8  9  1  0
  9 10  2  0
 10 11  1  0
 11 12  2  0
 12 13  1  0
 13 14  1  0
 14 15  1  0
 15 16  1  0
 16 17  2  0
 16 18  1  0
 18 19  2  0
 19 20  1  0
 20 21  2  0
 21 22  1  0
 22 23  1  0
 22 24  2  0
 24 25  1  0
 25 26  2  0
 26 27  1  0
 27 28  1  0
 28 29  2  0
 13 30  2  0
 30  9  1  0
 28 18  1  0
 26 20  1  0
  1 31  1  0
  1 32  1  0
  1 33  1  0
  6 34  1  0
  6 35  1  0
  7 36  1  0
  7 37  1  0
 10 38  1  0
 11 39  1  0
 12 40  1  0
 14 41  1  0
 14 42  1  0
 19 43  1  0
 21 44  1  0
 24 45  1  0
 25 46  1  0
 30 47  1  0
M  CHG  4   5  -1  15  -1  23  -1  27  -1
M  END
>  <UniqueID>  (1) 
1

>  <SMILES>  (1) 
CS(=O)(=O)[N-]CCOc1cccc(C[N-]C(=O)c2cc3cc([O-])ccc3[n-]c2=O)c1

>  <Energy>  (1) 
45.12676291558353

>  <Genealogy>  (1) 
CS(=O)(=O)[N-]CCOc1cccc(C[N-]C(=O)c2cc3cc([O-])ccc3[n-]c2=O)c1 (protonated)
CS(=O)(=O)[N-]CCOc1cccc(C[N-]C(=O)c2cc3cc([O-])ccc3[n-]c2=O)c1 (3D coordinates assigned)
CS(=O)(=O)[N-]CCOc1cccc(C[N-]C(=O)c2cc3cc([O-])ccc3[n-]c2=O)c1 (optimized conformer: 45.12676291558353 kcal/mol)

>  <smiles>  (1) 
CS(=O)(=O)NCCOc1cccc(CNC(=O)c2cc3cc(O)ccc3[nH]c2=O)c1

>  <score_type>  (1) 
oracle

>  <origin>  (1) 
adg

>  <m_score__min__energy>  (1) 
-16.359999999999999

>  <m_primary>  (1) 
energy

$$$$
1:0
     RDKit          3D

 65 68  0  0  0  0  0  0  0  0999 V2000
   55.7050   31.5960   51.0470 H   0  0  0  0  0  0  0  0  0  0  0  0
   56.2300   30.8860   51.6050 N   0  0  0  0  0  0  0  0  0  0  0  0
   57.8060   31.5360   51.8960 S   0  0  0  0  0  0  0  0  0  0  0  0
   57.7850   33.0060   51.5770 O   0  0  0  0  0  0  0  0  0  0  0  0
   58.1640   31.3550   53.3450 O   0  0  0  0  0  0  0  0  0  0  0  0
   59.0040   30.7060   50.8930 C   0  0  0  0  0  0  0  0  0  0  0  0
   58.5960   29.6940   50.0120 C   0  0  0  0  0  0  0  0  0  0  0  0
   57.5384   29.3942   49.9733 H   0  0  0  0  0  0  0  0  0  0  0  0
   59.5280   29.0660   49.1840 C   0  0  0  0  0  0  0  0  0  0  0  0
   59.2106   28.2718   48.4922 H   0  0  0  0  0  0  0  0  0  0  0  0
   60.8660   29.4560   49.2430 C   0  0  0  0  0  0  0  0  0  0  0  0
   61.6106   28.9641   48.5999 H   0  0  0  0  0  0  0  0  0  0  0  0
   61.2510   30.4440   50.0950 N   0  0  0  0  0  0  0  0  0  0  0  0
   60.3630   31.0800   50.9140 C   0  0  0  0  0  0  0  0  0  0  0  0
   60.7610   32.0370   51.6960 N   0  0  0  0  0  0  0  0  0  0  0  0
   61.1410   33.3740   51.2480 C   0  0  0  0  0  0  0  0  0  0  0  0
   61.2097   34.0469   52.1155 H   0  0  0  0  0  0  0  0  0  0  0  0
   60.3838   33.7584   50.5488 H   0  0  0  0  0  0  0  0  0  0  0  0
   62.4810   33.3040   50.5560 C   0  0  0  0  0  0  0  0  0  0  0  0
   63.6410   33.4120   51.3430 C   0  0  0  0  0  0  0  0  0  0  0  0
   63.5498   33.5700   52.4278 H   0  0  0  0  0  0  0  0  0  0  0  0
   64.9060   33.3210   50.7630 C   0  0  0  0  0  0  0  0  0  0  0  0
   65.8049   33.3987   51.3922 H   0  0  0  0  0  0  0  0  0  0  0  0
   65.0340   33.1320   49.3890 C   0  0  0  0  0  0  0  0  0  0  0  0
   66.0335   33.0488   48.9372 H   0  0  0  0  0  0  0  0  0  0  0  0
   63.8980   33.0480   48.5850 C   0  0  0  0  0  0  0  0  0  0  0  0
   64.0082   32.9053   47.4999 H   0  0  0  0  0  0  0  0  0  0  0  0
   62.6120   33.1440   49.1480 C   0  0  0  0  0  0  0  0  0  0  0  0
   61.4400   33.0430   48.2400 C   0  0  0  0  0  0  0  0  0  0  0  0
   60.3960   33.9760   48.3360 C   0  0  0  0  0  0  0  0  0  0  0  0
   60.4623   34.7973   49.0647 H   0  0  0  0  0  0  0  0  0  0  0  0
   59.2720   33.8680   47.5110 C   0  0  0  0  0  0  0  0  0  0  0  0
   58.4630   34.6089   47.5915 H   0  0  0  0  0  0  0  0  0  0  0  0
   59.1680   32.8240   46.5830 C   0  0  0  0  0  0  0  0  0  0  0  0
   58.0080   32.7720   45.7360 N   0  0  0  0  0  0  0  0  0  0  0  0
   57.4220   31.6290   45.0950 C   0  0  0  0  0  0  0  0  0  0  0  0
   56.3060   31.7720   44.5230 O   0  0  0  0  0  0  0  0  0  0  0  0
   58.0690   30.2680   45.1370 C   0  0  0  0  0  0  0  0  0  0  0  0
   58.2809   30.0116   46.1855 H   0  0  0  0  0  0  0  0  0  0  0  0
   58.9889   30.3195   44.5361 H   0  0  0  0  0  0  0  0  0  0  0  0
   57.1840   29.1720   44.5340 C   0  0  0  0  0  0  0  0  0  0  0  0
   57.8010   28.4961   43.9237 H   0  0  0  0  0  0  0  0  0  0  0  0
   56.4098   29.6307   43.9014 H   0  0  0  0  0  0  0  0  0  0  0  0
   56.5510   28.4160   45.6090 N   0  0  0  0  0  0  0  0  0  0  0  0
   57.1270   27.2410   46.1920 C   0  0  0  0  0  0  0  0  0  0  0  0
   57.9340   27.3510   47.1560 O   0  0  0  0  0  0  0  0  0  0  0  0
   56.7770   25.9000   45.6760 C   0  0  0  0  0  0  0  0  0  0  0  0
   57.7950   25.0370   45.2330 C   0  0  0  0  0  0  0  0  0  0  0  0
   58.8469   25.3490   45.3110 H   0  0  0  0  0  0  0  0  0  0  0  0
   57.4810   23.7850   44.6940 C   0  0  0  0  0  0  0  0  0  0  0  0
   58.2884   23.1141   44.3653 H   0  0  0  0  0  0  0  0  0  0  0  0
   56.1490   23.3800   44.5700 C   0  0  0  0  0  0  0  0  0  0  0  0
   55.8860   22.1260   43.9990 O   0  0  0  0  0  0  0  0  0  0  0  0
   56.8690   21.3050   43.3740 C   0  0  0  0  0  0  0  0  0  0  0  0
   57.4710   20.8022   44.1452 H   0  0  0  0  0  0  0  0  0  0  0  0
   56.3716   20.5502   42.7472 H   0  0  0  0  0  0  0  0  0  0  0  0
   57.5231   21.9289   42.7472 H   0  0  0  0  0  0  0  0  0  0  0  0
   55.1240   24.2360   45.0160 C   0  0  0  0  0  0  0  0  0  0  0  0
   54.0735   23.9206   44.9322 H   0  0  0  0  0  0  0  0  0  0  0  0
   55.4330   25.4850   45.5650 C   0  0  0  0  0  0  0  0  0  0  0  0
   54.3920   26.3110   45.9770 O   0  0  0  0  0  0  0  0  0  0  0  0
   60.2290   31.9100   46.4600 C   0  0  0  0  0  0  0  0  0  0  0  0
   60.1862   31.1212   45.6945 H   0  0  0  0  0  0  0  0  0  0  0  0
   61.3380   31.9990   47.3060 C   0  0  0  0  0  0  0  0  0  0  0  0
   62.1369   31.2458   47.2398 H   0  0  0  0  0  0  0  0  0  0  0  0
  1  2  1  0
  2  3  1  0
  3  4  2  0
  3  5  2  0
  3  6  1  0
  6  7  2  0
  7  8  1  0
  7  9  1  0
  9 10  1  0
  9 11  2  0
 11 12  1  0
 11 13  1  0
 13 14  1  0
 14 15  2  0
 15 16  1  0
 16 17  1  0
 16 18  1  0
 16 19  1  0
 19 20  2  0
 20 21  1  0
 20 22  1  0
 22 23  1  0
 22 24  2  0
 24 25  1  0
 24 26  1  0
 26 27  1  0
 26 28  2  0
 28 29  1  0
 29 30  2  0
 30 31  1  0
 30 32  1  0
 32 33  1  0
 32 34  2  0
 34 35  1  0
 35 36  1  0
 36 37  2  0
 36 38  1  0
 38 39  1  0
 38 40  1  0
 38 41  1  0
 41 42  1  0
 41 43  1  0
 41 44  1  0
 44 45  1  0
 45 46  2  0
 45 47  1  0
 47 48  2  0
 48 49  1  0
 48 50  1  0
 50 51  1  0
 50 52  2  0
 52 53  1  0
 53 54  1  0
 54 55  1  0
 54 56  1  0
 54 57  1  0
 52 58  1  0
 58 59  1  0
 58 60  2  0
 60 61  1  0
 34 62  1  0
 62 63  1  0
 62 64  2  0
 64 65  1  0
 14  6  1  0
 28 19  1  0
 64 29  1  0
 60 47  1  0
M  CHG  5   2  -1  13  -1  35  -1  44  -1  61  -1
M  END
>  <UniqueID>  (2) 
2

>  <SMILES>  (2) 
COc1ccc(C(=O)[N-]CCC(=O)[N-]c2ccc(-c3ccccc3C/N=c3\[n-]cccc3S([NH-])(=O)=O)cc2)c([O-])c1

>  <Energy>  (2) 
81.83653649437996

>  <Genealogy>  (2) 
COc1ccc(C(=O)[N-]CCC(=O)[N-]c2ccc(-c3ccccc3CN=c3[n-]cccc3S([NH-])(=O)=O)cc2)c([O-])c1 (protonated)
COc1ccc(C(=O)[N-]CCC(=O)[N-]c2ccc(-c3ccccc3C/N=c3\[n-]cccc3S([NH-])(=O)=O)cc2)c([O-])c1 (cis-trans isomerization)
COc1ccc(C(=O)[N-]CCC(=O)[N-]c2ccc(-c3ccccc3C/N=c3\[n-]cccc3S([NH-])(=O)=O)cc2)c([O-])c1 (3D coordinates assigned)
COc1ccc(C(=O)[N-]CCC(=O)[N-]c2ccc(-c3ccccc3C/N=c3\[n-]cccc3S([NH-])(=O)=O)cc2)c([O-])c1 (optimized conformer: 81.83653649437996 kcal/mol)

>  <smiles>  (2) 
COc1ccc(C(=O)NCCC(=O)Nc2ccc(-c3ccccc3CN=c3[nH]cccc3S(N)(=O)=O)cc2)c(O)c1

>  <score_type>  (2) 
oracle

>  <origin>  (2) 
adg

>  <m_score__min__energy>  (2) 
-18.280000000000001

>  <m_primary>  (2) 
energy

$$$$
2:0
     RDKit          3D

 50 53  0  0  0  0  0  0  0  0999 V2000
   64.3340   33.4830   47.9510 N   0  0  0  0  0  0  0  0  0  0  0  0
   63.2130   33.1880   47.1180 C   0  0  0  0  0  0  0  0  0  0  0  0
   63.0710   33.8180   46.0340 O   0  0  0  0  0  0  0  0  0  0  0  0
   62.2300   32.1530   47.5160 C   0  0  0  0  0  0  0  0  0  0  0  0
   62.4430   31.3750   48.6680 C   0  0  0  0  0  0  0  0  0  0  0  0
   61.5160   30.4020   49.0490 C   0  0  0  0  0  0  0  0  0  0  0  0
   60.3650   30.1930   48.2890 C   0  0  0  0  0  0  0  0  0  0  0  0
   60.1410   30.9490   47.1300 C   0  0  0  0  0  0  0  0  0  0  0  0
   58.9340   30.7040   46.3160 C   0  0  0  0  0  0  0  0  0  0  0  0
   58.4840   29.3830   46.1670 C   0  0  0  0  0  0  0  0  0  0  0  0
   57.3690   29.0930   45.3720 C   0  0  0  0  0  0  0  0  0  0  0  0
   56.9700   27.7270   45.1900 N   0  0  0  0  0  0  0  0  0  0  0  0
   56.9260   26.8150   46.3330 C   0  0  0  0  0  0  0  0  0  0  0  0
   55.9040   25.7350   46.1470 C   0  0  0  0  0  0  0  0  0  0  0  0
   55.9980   24.4150   46.5440 C   0  0  0  0  0  0  0  0  0  0  0  0
   54.8350   23.7920   46.2820 N   0  0  0  0  0  0  0  0  0  0  0  0
   54.0770   24.7620   45.7290 C   0  0  0  0  0  0  0  0  0  0  0  0
   52.9060   24.5570   45.3170 O   0  0  0  0  0  0  0  0  0  0  0  0
   54.6800   25.9630   45.6350 N   0  0  0  0  0  0  0  0  0  0  0  0
   56.6650   30.1400   44.7580 C   0  0  0  0  0  0  0  0  0  0  0  0
   55.5170   29.8800   44.0160 O   0  0  0  0  0  0  0  0  0  0  0  0
   57.1070   31.4580   44.8970 C   0  0  0  0  0  0  0  0  0  0  0  0
   58.2550   31.7560   45.6500 C   0  0  0  0  0  0  0  0  0  0  0  0
   58.7490   33.1840   45.7030 C   0  0  0  0  0  0  0  0  0  0  0  0
   58.3250   33.8310   46.9040 O   0  0  0  0  0  0  0  0  0  0  0  0
   58.9090   33.6570   48.1690 C   0  0  0  0  0  0  0  0  0  0  0  0
   60.0220   34.4030   48.6060 C   0  0  0  0  0  0  0  0  0  0  0  0
   60.5530   34.1920   49.8840 C   0  0  0  0  0  0  0  0  0  0  0  0
   59.9870   33.2360   50.7310 C   0  0  0  0  0  0  0  0  0  0  0  0
   60.5060   33.0320   51.9680 F   0  0  0  0  0  0  0  0  0  0  0  0
   58.8870   32.4880   50.3010 C   0  0  0  0  0  0  0  0  0  0  0  0
   58.3500   32.7010   49.0270 C   0  0  0  0  0  0  0  0  0  0  0  0
   61.0700   31.9300   46.7500 C   0  0  0  0  0  0  0  0  0  0  0  0
   65.3030   33.2340   47.6500 H   0  0  0  0  0  0  0  0  0  0  0  0
   63.3471   31.5340   49.2741 H   0  0  0  0  0  0  0  0  0  0  0  0
   61.6942   29.7986   49.9513 H   0  0  0  0  0  0  0  0  0  0  0  0
   59.6321   29.4338   48.5997 H   0  0  0  0  0  0  0  0  0  0  0  0
   59.0132   28.5668   46.6805 H   0  0  0  0  0  0  0  0  0  0  0  0
   56.3250   27.5180   44.3940 H   0  0  0  0  0  0  0  0  0  0  0  0
   57.9156   26.3508   46.4559 H   0  0  0  0  0  0  0  0  0  0  0  0
   56.6480   27.3977   47.2236 H   0  0  0  0  0  0  0  0  0  0  0  0
   56.8827   23.9480   47.0014 H   0  0  0  0  0  0  0  0  0  0  0  0
   56.5494   32.2722   44.4110 H   0  0  0  0  0  0  0  0  0  0  0  0
   59.8483   33.1855   45.6630 H   0  0  0  0  0  0  0  0  0  0  0  0
   58.3300   33.7305   44.8453 H   0  0  0  0  0  0  0  0  0  0  0  0
   60.4747   35.1532   47.9410 H   0  0  0  0  0  0  0  0  0  0  0  0
   61.4185   34.7807   50.2223 H   0  0  0  0  0  0  0  0  0  0  0  0
   58.4434   31.7314   50.9649 H   0  0  0  0  0  0  0  0  0  0  0  0
   57.4814   32.1128   48.6961 H   0  0  0  0  0  0  0  0  0  0  0  0
   60.8902   32.5299   45.8457 H   0  0  0  0  0  0  0  0  0  0  0  0
  1  2  1  0
  2  3  2  0
  2  4  1  0
  4  5  2  0
  5  6  1  0
  6  7  2  0
  7  8  1  0
  8  9  1  0
  9 10  2  0
 10 11  1  0
 11 12  1  0
 12 13  1  0
 13 14  1  0
 14 15  2  0
 15 16  1  0
 16 17  1  0
 17 18  2  0
 17 19  1  0
 11 20  2  0
 20 21  1  0
 20 22  1  0
 22 23  2  0
 23 24  1  0
 24 25  1  0
 25 26  1  0
 26 27  2  0
 27 28  1  0
 28 29  2  0
 29 30  1  0
 29 31  1  0
 31 32  2  0
  8 33  2  0
 33  4  1  0
 23  9  1  0
 32 26  1  0
 19 14  1  0
  1 34  1  0
  5 35  1  0
  6 36  1  0
  7 37  1  0
 10 38  1  0
 12 39  1  0
 13 40  1  0
 13 41  1  0
 15 42  1  0
 22 43  1  0
 24 44  1  0
 24 45  1  0
 27 46  1  0
 28 47  1  0
 31 48  1  0
 32 49  1  0
 33 50  1  0
M  CHG  4   1  -1  16  -1  19  -1  21  -1
M  END
>  <UniqueID>  (3) 
3

>  <SMILES>  (3) 
[NH-]C(=O)c1cccc(-c2cc(NCc3c[n-]c(=O)[n-]3)c([O-])cc2COc2ccc(F)cc2)c1

>  <Energy>  (3) 
94.20207136027956

>  <Genealogy>  (3) 
[NH-]C(=O)c1cccc(-c2cc(NCc3c[n-]c(=O)[n-]3)c([O-])cc2COc2ccc(F)cc2)c1 (protonated)
[NH-]C(=O)c1cccc(-c2cc(NCc3c[n-]c(=O)[n-]3)c([O-])cc2COc2ccc(F)cc2)c1 (3D coordinates assigned)
[NH-]C(=O)c1cccc(-c2cc(NCc3c[n-]c(=O)[n-]3)c([O-])cc2COc2ccc(F)cc2)c1 (optimized conformer: 94.20207136027956 kcal/mol)

>  <smiles>  (3) 
NC(=O)c1cccc(-c2cc(NCc3c[nH]c(=O)[nH]3)c(O)cc2COc2ccc(F)cc2)c1

>  <score_type>  (3) 
oracle

>  <origin>  (3) 
adg

>  <m_score__min__energy>  (3) 
-15.35

>  <m_primary>  (3) 
energy

$$$$
3:0
     RDKit          3D

 30 31  0  0  0  0  0  0  0  0999 V2000
   57.6440   30.1214   42.5384 H   0  0  0  0  0  0  0  0  0  0  0  0
   57.6690   30.8110   43.3950 C   0  0  0  0  0  0  0  0  0  0  0  0
   57.7390   32.4900   43.3070 S   0  0  0  0  0  0  0  0  0  0  0  0
   57.7330   32.6760   44.9740 C   0  0  0  0  0  0  0  0  0  0  0  0
   57.7720   33.8320   45.5670 N   0  0  0  0  0  0  0  0  0  0  0  0
   58.4410   34.1240   46.8040 C   0  0  0  0  0  0  0  0  0  0  0  0
   58.9180   35.2690   47.0330 O   0  0  0  0  0  0  0  0  0  0  0  0
   58.5670   33.1020   47.7900 N   0  0  0  0  0  0  0  0  0  0  0  0
   59.0500   33.2960   48.6940 H   0  0  0  0  0  0  0  0  0  0  0  0
   58.1760   32.1490   47.6130 H   0  0  0  0  0  0  0  0  0  0  0  0
   57.6750   31.4890   45.6160 N   0  0  0  0  0  0  0  0  0  0  0  0
   57.6480   30.4430   44.7430 C   0  0  0  0  0  0  0  0  0  0  0  0
   57.5520   29.0420   45.2200 C   0  0  0  0  0  0  0  0  0  0  0  0
   58.7330   28.3540   45.5420 C   0  0  0  0  0  0  0  0  0  0  0  0
   59.7041   28.8610   45.4422 H   0  0  0  0  0  0  0  0  0  0  0  0
   58.6850   27.0340   45.9870 C   0  0  0  0  0  0  0  0  0  0  0  0
   59.6170   26.5019   46.2282 H   0  0  0  0  0  0  0  0  0  0  0  0
   57.4590   26.3870   46.1270 C   0  0  0  0  0  0  0  0  0  0  0  0
   57.4307   25.3448   46.4778 H   0  0  0  0  0  0  0  0  0  0  0  0
   56.2630   27.0490   45.8260 C   0  0  0  0  0  0  0  0  0  0  0  0
   55.0380   26.3200   45.9940 N   0  0  0  0  0  0  0  0  0  0  0  0
   54.7860   24.6290   45.6940 S   0  0  0  0  0  0  0  0  0  0  0  0
   53.3410   24.3640   45.3780 O   0  0  0  0  0  0  0  0  0  0  0  0
   55.1490   23.8630   46.9350 O   0  0  0  0  0  0  0  0  0  0  0  0
   55.8220   24.0800   44.3540 C   0  0  0  0  0  0  0  0  0  0  0  0
   56.7250   23.6015   44.7610 H   0  0  0  0  0  0  0  0  0  0  0  0
   55.2700   23.3561   43.7366 H   0  0  0  0  0  0  0  0  0  0  0  0
   56.1111   24.9433   43.7366 H   0  0  0  0  0  0  0  0  0  0  0  0
   56.3120   28.3720   45.3280 C   0  0  0  0  0  0  0  0  0  0  0  0
   55.1530   28.9940   44.8820 O   0  0  0  0  0  0  0  0  0  0  0  0
  1  2  1  0
  2  3  1  0
  3  4  1  0
  4  5  2  0
  5  6  1  0
  6  7  2  0
  6  8  1  0
  8  9  1  0
  8 10  1  0
  4 11  1  0
 11 12  1  0
 12 13  1  0
 13 14  2  0
 14 15  1  0
 14 16  1  0
 16 17  1  0
 16 18  2  0
 18 19  1  0
 18 20  1  0
 20 21  1  0
 21 22  1  0
 22 23  2  0
 22 24  2  0
 22 25  1  0
 25 26  1  0
 25 27  1  0
 25 28  1  0
 20 29  2  0
 29 30  1  0
 12  2  2  0
 29 13  1  0
M  CHG  3  11  -1  21  -1  30  -1
M  END
>  <UniqueID>  (4) 
4

>  <SMILES>  (4) 
CS(=O)(=O)[N-]c1cccc(-c2cs/c(=N/C(N)=O)[n-]2)c1[O-]

>  <Energy>  (4) 
68.5849139248485

>  <Genealogy>  (4) 
CS(=O)(=O)[N-]c1cccc(-c2csc(=NC(N)=O)[n-]2)c1[O-] (protonated)
CS(=O)(=O)[N-]c1cccc(-c2cs/c(=N/C(N)=O)[n-]2)c1[O-] (cis-trans isomerization)
CS(=O)(=O)[N-]c1cccc(-c2cs/c(=N/C(N)=O)[n-]2)c1[O-] (3D coordinates assigned)
CS(=O)(=O)[N-]c1cccc(-c2cs/c(=N/C(N)=O)[n-]2)c1[O-] (optimized conformer: 68.5849139248485 kcal/mol)

>  <smiles>  (4) 
CS(=O)(=O)Nc1cccc(-c2csc(=NC(N)=O)[nH]2)c1O

>  <score_type>  (4) 
oracle

>  <origin>  (4) 
adg

>  <m_score__min__energy>  (4) 
-14.33

>  <m_primary>  (4) 
energy

$$$$
4:0
     RDKit          3D

 44 46  0  0  0  0  0  0  0  0999 V2000
   65.0822   32.9231   49.1675 H   0  0  0  0  0  0  0  0  0  0  0  0
   64.1140   33.2340   48.7480 C   0  0  0  0  0  0  0  0  0  0  0  0
   63.6460   33.0990   47.1350 S   0  0  0  0  0  0  0  0  0  0  0  0
   62.1280   33.7580   47.4120 C   0  0  0  0  0  0  0  0  0  0  0  0
   61.2470   33.9490   46.4740 N   0  0  0  0  0  0  0  0  0  0  0  0
   59.8240   33.8600   46.6260 C   0  0  0  0  0  0  0  0  0  0  0  0
   59.2300   34.7630   47.2730 O   0  0  0  0  0  0  0  0  0  0  0  0
   59.0330   32.7820   45.9820 C   0  0  0  0  0  0  0  0  0  0  0  0
   57.9040   33.0870   45.2000 C   0  0  0  0  0  0  0  0  0  0  0  0
   57.6009   34.1356   45.0639 H   0  0  0  0  0  0  0  0  0  0  0  0
   57.1650   32.0670   44.5950 C   0  0  0  0  0  0  0  0  0  0  0  0
   56.2869   32.3166   43.9813 H   0  0  0  0  0  0  0  0  0  0  0  0
   57.5380   30.7280   44.7670 C   0  0  0  0  0  0  0  0  0  0  0  0
   56.6230   29.4300   44.0070 S   0  0  0  0  0  0  0  0  0  0  0  0
   55.5610   30.0300   43.1280 O   0  0  0  0  0  0  0  0  0  0  0  0
   57.5380   28.5720   43.1780 O   0  0  0  0  0  0  0  0  0  0  0  0
   55.8950   28.4620   45.2470 N   0  0  0  0  0  0  0  0  0  0  0  0
   56.4490   27.2560   45.7900 C   0  0  0  0  0  0  0  0  0  0  0  0
   55.6530   26.1380   46.0960 C   0  0  0  0  0  0  0  0  0  0  0  0
   54.5676   26.1753   45.9211 H   0  0  0  0  0  0  0  0  0  0  0  0
   56.2370   24.9710   46.6250 C   0  0  0  0  0  0  0  0  0  0  0  0
   55.4830   23.8320   46.9450 O   0  0  0  0  0  0  0  0  0  0  0  0
   55.7530   22.9700   48.0460 C   0  0  0  0  0  0  0  0  0  0  0  0
   55.5829   23.5132   48.9873 H   0  0  0  0  0  0  0  0  0  0  0  0
   55.0853   22.0970   48.0006 H   0  0  0  0  0  0  0  0  0  0  0  0
   56.7994   22.6340   48.0006 H   0  0  0  0  0  0  0  0  0  0  0  0
   57.6180   24.9340   46.8440 C   0  0  0  0  0  0  0  0  0  0  0  0
   58.0790   24.0246   47.2569 H   0  0  0  0  0  0  0  0  0  0  0  0
   58.4240   26.0470   46.5420 C   0  0  0  0  0  0  0  0  0  0  0  0
   59.8120   26.0500   46.7470 O   0  0  0  0  0  0  0  0  0  0  0  0
   60.6790   27.1120   46.3650 C   0  0  0  0  0  0  0  0  0  0  0  0
   61.0784   27.6012   47.2656 H   0  0  0  0  0  0  0  0  0  0  0  0
   61.5101   26.7098   45.7671 H   0  0  0  0  0  0  0  0  0  0  0  0
   60.1186   27.8458   45.7671 H   0  0  0  0  0  0  0  0  0  0  0  0
   57.8290   27.1990   46.0170 C   0  0  0  0  0  0  0  0  0  0  0  0
   58.4543   28.0722   45.7793 H   0  0  0  0  0  0  0  0  0  0  0  0
   58.6520   30.4170   45.5560 C   0  0  0  0  0  0  0  0  0  0  0  0
   58.9460   29.3666   45.6987 H   0  0  0  0  0  0  0  0  0  0  0  0
   59.3920   31.4350   46.1630 C   0  0  0  0  0  0  0  0  0  0  0  0
   60.2615   31.1806   46.7868 H   0  0  0  0  0  0  0  0  0  0  0  0
   61.9650   34.1000   48.7130 N   0  0  0  0  0  0  0  0  0  0  0  0
   61.1210   34.5640   49.1150 H   0  0  0  0  0  0  0  0  0  0  0  0
   63.0630   33.8070   49.4570 C   0  0  0  0  0  0  0  0  0  0  0  0
   63.1171   34.0074   50.5372 H   0  0  0  0  0  0  0  0  0  0  0  0
  1  2  1  0
  2  3  1  0
  3  4  1  0
  4  5  2  0
  5  6  1  0
  6  7  2  0
  6  8  1  0
  8  9  2  0
  9 10  1  0
  9 11  1  0
 11 12  1  0
 11 13  2  0
 13 14  1  0
 14 15  2  0
 14 16  2  0
 14 17  1  0
 17 18  1  0
 18 19  2  0
 19 20  1  0
 19 21  1  0
 21 22  1  0
 22 23  1  0
 23 24  1  0
 23 25  1  0
 23 26  1  0
 21 27  2  0
 27 28  1  0
 27 29  1  0
 29 30  1  0
 30 31  1  0
 31 32  1  0
 31 33  1  0
 31 34  1  0
 29 35  2  0
 35 36  1  0
 13 37  1  0
 37 38  1  0
 37 39  2  0
 39 40  1  0
  4 41  1  0
 41 42  1  0
 41 43  1  0
 43 44  1  0
 43  2  2  0
 39  8  1  0
 35 18  1  0
M  CHG  1  17  -1
M  END
>  <UniqueID>  (5) 
5

>  <SMILES>  (5) 
COc1cc([N-]S(=O)(=O)c2ccc(C(=O)/N=c3\[nH]ccs3)cc2)cc(OC)c1

>  <Energy>  (5) 
87.50377169722736

>  <Genealogy>  (5) 
COc1cc([N-]S(=O)(=O)c2ccc(C(=O)N=c3[nH]ccs3)cc2)cc(OC)c1 (protonated)
COc1cc([N-]S(=O)(=O)c2ccc(C(=O)/N=c3\[nH]ccs3)cc2)cc(OC)c1 (cis-trans isomerization)
COc1cc([N-]S(=O)(=O)c2ccc(C(=O)/N=c3\[nH]ccs3)cc2)cc(OC)c1 (3D coordinates assigned)
COc1cc([N-]S(=O)(=O)c2ccc(C(=O)/N=c3\[nH]ccs3)cc2)cc(OC)c1 (optimized conformer: 87.50377169722736 kcal/mol)

>  <smiles>  (5) 
COc1cc(NS(=O)(=O)c2ccc(C(=O)N=c3[nH]ccs3)cc2)cc(OC)c1

>  <score_type>  (5) 
oracle

>  <origin>  (5) 
adg

>  <m_score__min__energy>  (5) 
-9.8900000000000006

>  <m_primary>  (5) 
energy

$$$$
5:0
     RDKit          3D

 31 32  0  0  0  0  0  0  0  0999 V2000
   54.6800   26.3380   45.9740 N   0  0  0  0  0  0  0  0  0  0  0  0
   55.8150   25.0350   45.9930 S   0  0  0  0  0  0  0  0  0  0  0  0
   55.6050   24.1960   47.2220 O   0  0  0  0  0  0  0  0  0  0  0  0
   55.5960   24.1800   44.7750 O   0  0  0  0  0  0  0  0  0  0  0  0
   57.4560   25.6880   46.0000 C   0  0  0  0  0  0  0  0  0  0  0  0
   58.5490   24.8310   46.2120 C   0  0  0  0  0  0  0  0  0  0  0  0
   59.8510   25.3360   46.2210 C   0  0  0  0  0  0  0  0  0  0  0  0
   60.0730   26.7010   46.0260 C   0  0  0  0  0  0  0  0  0  0  0  0
   58.9950   27.5620   45.8140 C   0  0  0  0  0  0  0  0  0  0  0  0
   57.6810   27.0620   45.7780 C   0  0  0  0  0  0  0  0  0  0  0  0
   56.5650   27.9460   45.5980 N   0  0  0  0  0  0  0  0  0  0  0  0
   56.6410   29.3540   45.3440 C   0  0  0  0  0  0  0  0  0  0  0  0
   55.7280   29.8940   44.6660 O   0  0  0  0  0  0  0  0  0  0  0  0
   57.7510   30.1310   45.8270 N   0  0  0  0  0  0  0  0  0  0  0  0
   57.8930   31.5470   45.6240 C   0  0  0  0  0  0  0  0  0  0  0  0
   57.7020   32.0790   44.3390 C   0  0  0  0  0  0  0  0  0  0  0  0
   57.8110   33.4550   44.1200 C   0  0  0  0  0  0  0  0  0  0  0  0
   58.0950   34.3140   45.1850 C   0  0  0  0  0  0  0  0  0  0  0  0
   58.2620   33.7970   46.4730 C   0  0  0  0  0  0  0  0  0  0  0  0
   58.5160   34.6340   47.5090 F   0  0  0  0  0  0  0  0  0  0  0  0
   58.1550   32.4210   46.6960 C   0  0  0  0  0  0  0  0  0  0  0  0
   54.9750   27.0100   46.7180 H   0  0  0  0  0  0  0  0  0  0  0  0
   58.3782   23.7562   46.3718 H   0  0  0  0  0  0  0  0  0  0  0  0
   60.7023   24.6582   46.3818 H   0  0  0  0  0  0  0  0  0  0  0  0
   61.0987   27.0981   46.0395 H   0  0  0  0  0  0  0  0  0  0  0  0
   59.1743   28.6382   45.6742 H   0  0  0  0  0  0  0  0  0  0  0  0
   58.4710   29.6590   46.4180 H   0  0  0  0  0  0  0  0  0  0  0  0
   57.4651   31.4088   43.4995 H   0  0  0  0  0  0  0  0  0  0  0  0
   57.6730   33.8625   43.1076 H   0  0  0  0  0  0  0  0  0  0  0  0
   58.1871   35.3961   45.0100 H   0  0  0  0  0  0  0  0  0  0  0  0
   58.2760   32.0198   47.7130 H   0  0  0  0  0  0  0  0  0  0  0  0
  1  2  1  0
  2  3  2  0
  2  4  2  0
  2  5  1  0
  5  6  2  0
  6  7  1  0
  7  8  2  0
  8  9  1  0
  9 10  2  0
 10 11  1  0
 11 12  1  0
 12 13  2  0
 12 14  1  0
 14 15  1  0
 15 16  2  0
 16 17  1  0
 17 18  2  0
 18 19  1  0
 19 20  1  0
 19 21  2  0
 10  5  1  0
 21 15  1  0
  1 22  1  0
  6 23  1  0
  7 24  1  0
  8 25  1  0
  9 26  1  0
 14 27  1  0
 16 28  1  0
 17 29  1  0
 18 30  1  0
 21 31  1  0
M  CHG  2   1  -1  11  -1
M  END
>  <UniqueID>  (6) 
6

>  <SMILES>  (6) 
[NH-]S(=O)(=O)c1ccccc1[N-]C(=O)Nc1cccc(F)c1

>  <Energy>  (6) 
40.766957277334434

>  <Genealogy>  (6) 
[NH-]S(=O)(=O)c1ccccc1[N-]C(=O)Nc1cccc(F)c1 (protonated)
[NH-]S(=O)(=O)c1ccccc1[N-]C(=O)Nc1cccc(F)c1 (3D coordinates assigned)
[NH-]S(=O)(=O)c1ccccc1[N-]C(=O)Nc1cccc(F)c1 (optimized conformer: 40.766957277334434 kcal/mol)

>  <smiles>  (6) 
NS(=O)(=O)c1ccccc1NC(=O)Nc1cccc(F)c1

>  <score_type>  (6) 
oracle

>  <origin>  (6) 
adg

>  <m_score__min__energy>  (6) 
-12.109999999999999

>  <m_primary>  (6) 
energy

$$$$
6:0
     RDKit          3D

 48 49  0  0  0  0  0  0  0  0999 V2000
   62.4347   32.2130   50.1833 H   0  0  0  0  0  0  0  0  0  0  0  0
   62.4640   32.6630   49.1800 C   0  0  0  0  0  0  0  0  0  0  0  0
   61.3030   33.2140   48.6280 C   0  0  0  0  0  0  0  0  0  0  0  0
   60.3636   33.1985   49.2001 H   0  0  0  0  0  0  0  0  0  0  0  0
   61.3320   33.7870   47.3460 C   0  0  0  0  0  0  0  0  0  0  0  0
   60.0960   34.4120   46.7670 C   0  0  0  0  0  0  0  0  0  0  0  0
   60.1192   34.3249   45.6707 H   0  0  0  0  0  0  0  0  0  0  0  0
   60.0544   35.4749   47.0474 H   0  0  0  0  0  0  0  0  0  0  0  0
   58.9190   33.7230   47.2860 N   0  0  0  0  0  0  0  0  0  0  0  0
   58.2680   32.6200   46.6440 C   0  0  0  0  0  0  0  0  0  0  0  0
   57.2450   32.8440   45.9420 O   0  0  0  0  0  0  0  0  0  0  0  0
   58.7570   31.2330   46.7750 C   0  0  0  0  0  0  0  0  0  0  0  0
   58.5680   30.5200   47.9670 C   0  0  0  0  0  0  0  0  0  0  0  0
   58.0307   30.9878   48.8052 H   0  0  0  0  0  0  0  0  0  0  0  0
   59.0590   29.2170   48.0960 C   0  0  0  0  0  0  0  0  0  0  0  0
   58.8936   28.6599   49.0300 H   0  0  0  0  0  0  0  0  0  0  0  0
   59.7610   28.6170   47.0410 C   0  0  0  0  0  0  0  0  0  0  0  0
   60.3040   27.2260   47.2010 C   0  0  0  0  0  0  0  0  0  0  0  0
   61.1069   27.2296   47.9529 H   0  0  0  0  0  0  0  0  0  0  0  0
   60.7057   26.8752   46.2389 H   0  0  0  0  0  0  0  0  0  0  0  0
   59.2340   26.3360   47.6360 N   0  0  0  0  0  0  0  0  0  0  0  0
   58.3420   25.6570   46.7460 C   0  0  0  0  0  0  0  0  0  0  0  0
   58.6250   24.4890   46.3700 O   0  0  0  0  0  0  0  0  0  0  0  0
   57.0820   26.2770   46.2840 C   0  0  0  0  0  0  0  0  0  0  0  0
   55.9390   25.8050   46.6780 N   0  0  0  0  0  0  0  0  0  0  0  0
   54.7890   25.9620   45.9360 O   0  0  0  0  0  0  0  0  0  0  0  0
   54.0490   24.8300   45.5110 C   0  0  0  0  0  0  0  0  0  0  0  0
   53.6875   24.2770   46.3905 H   0  0  0  0  0  0  0  0  0  0  0  0
   53.1909   25.1588   44.9064 H   0  0  0  0  0  0  0  0  0  0  0  0
   54.6944   24.1759   44.9064 H   0  0  0  0  0  0  0  0  0  0  0  0
   57.1000   27.4240   45.3510 C   0  0  0  0  0  0  0  0  0  0  0  0
   58.1340   27.6400   44.6610 O   0  0  0  0  0  0  0  0  0  0  0  0
   55.9760   28.3120   45.2450 N   0  0  0  0  0  0  0  0  0  0  0  0
   55.1420   28.1790   45.8610 H   0  0  0  0  0  0  0  0  0  0  0  0
   55.9650   29.4200   44.2980 C   0  0  0  0  0  0  0  0  0  0  0  0
   55.9555   30.3725   44.8482 H   0  0  0  0  0  0  0  0  0  0  0  0
   56.8637   29.3708   43.6656 H   0  0  0  0  0  0  0  0  0  0  0  0
   55.0675   29.3529   43.6656 H   0  0  0  0  0  0  0  0  0  0  0  0
   59.9830   29.3420   45.8610 C   0  0  0  0  0  0  0  0  0  0  0  0
   60.5495   28.8862   45.0356 H   0  0  0  0  0  0  0  0  0  0  0  0
   59.4860   30.6430   45.7310 C   0  0  0  0  0  0  0  0  0  0  0  0
   59.6677   31.2073   44.8044 H   0  0  0  0  0  0  0  0  0  0  0  0
   62.5430   33.8200   46.6330 C   0  0  0  0  0  0  0  0  0  0  0  0
   62.5805   34.2864   45.6375 H   0  0  0  0  0  0  0  0  0  0  0  0
   63.7000   33.2620   47.1850 C   0  0  0  0  0  0  0  0  0  0  0  0
   64.6420   33.2780   46.6172 H   0  0  0  0  0  0  0  0  0  0  0  0
   63.6620   32.6830   48.4590 C   0  0  0  0  0  0  0  0  0  0  0  0
   64.7870   32.1500   48.9970 F   0  0  0  0  0  0  0  0  0  0  0  0
  1  2  1  0
  2  3  2  0
  3  4  1  0
  3  5  1  0
  5  6  1  0
  6  7  1  0
  6  8  1  0
  6  9  1  0
  9 10  1  0
 10 11  2  0
 10 12  1  0
 12 13  2  0
 13 14  1  0
 13 15  1  0
 15 16  1  0
 15 17  2  0
 17 18  1  0
 18 19  1  0
 18 20  1  0
 18 21  1  0
 21 22  1  0
 22 23  2  0
 22 24  1  0
 24 25  2  0
 25 26  1  0
 26 27  1  0
 27 28  1  0
 27 29  1  0
 27 30  1  0
 24 31  1  0
 31 32  2  0
 31 33  1  0
 33 34  1  0
 33 35  1  0
 35 36  1  0
 35 37  1  0
 35 38  1  0
 17 39  1  0
 39 40  1  0
 39 41  2  0
 41 42  1  0
  5 43  2  0
 43 44  1  0
 43 45  1  0
 45 46  1  0
 45 47  2  0
 47 48  1  0
 47  2  1  0
 41 12  1  0
M  CHG  2   9  -1  21  -1
M  END
>  <UniqueID>  (7) 
7

>  <SMILES>  (7) 
CNC(=O)/C(=N/OC)C(=O)[N-]Cc1ccc(C(=O)[N-]Cc2ccc(F)cc2)cc1

>  <Energy>  (7) 
48.31708795012315

>  <Genealogy>  (7) 
CNC(=O)C(=NOC)C(=O)[N-]Cc1ccc(C(=O)[N-]Cc2ccc(F)cc2)cc1 (protonated)
CNC(=O)/C(=N/OC)C(=O)[N-]Cc1ccc(C(=O)[N-]Cc2ccc(F)cc2)cc1 (cis-trans isomerization)
CNC(=O)/C(=N/OC)C(=O)[N-]Cc1ccc(C(=O)[N-]Cc2ccc(F)cc2)cc1 (3D coordinates assigned)
CNC(=O)/C(=N/OC)C(=O)[N-]Cc1ccc(C(=O)[N-]Cc2ccc(F)cc2)cc1 (optimized conformer: 48.31708795012315 kcal/mol)

>  <smiles>  (7) 
CNC(=O)C(=NOC)C(=O)NCc1ccc(C(=O)NCc2ccc(F)cc2)cc1

>  <score_type>  (7) 
oracle

>  <origin>  (7) 
adg

>  <m_score__min__energy>  (7) 
-11.06

>  <m_primary>  (7) 
energy

$$$$
7:0
     RDKit          3D

 60 63  0  0  0  0  0  0  0  0999 V2000
   54.3140   26.5740   46.7400 H   0  0  0  0  0  0  0  0  0  0  0  0
   55.1400   26.3260   46.1500 N   0  0  0  0  0  0  0  0  0  0  0  0
   56.1310   27.1420   45.9980 C   0  0  0  0  0  0  0  0  0  0  0  0
   57.3290   26.8840   46.5890 N   0  0  0  0  0  0  0  0  0  0  0  0
   58.3860   27.7270   46.4360 C   0  0  0  0  0  0  0  0  0  0  0  0
   59.6830   27.4260   47.1260 C   0  0  0  0  0  0  0  0  0  0  0  0
   59.7384   26.3487   47.3415 H   0  0  0  0  0  0  0  0  0  0  0  0
   60.5153   27.7213   46.4702 H   0  0  0  0  0  0  0  0  0  0  0  0
   59.7770   28.1960   48.4150 C   0  0  0  0  0  0  0  0  0  0  0  0
   60.7730   27.8850   49.3570 C   0  0  0  0  0  0  0  0  0  0  0  0
   61.4712   27.0575   49.1627 H   0  0  0  0  0  0  0  0  0  0  0  0
   60.8800   28.6230   50.5400 C   0  0  0  0  0  0  0  0  0  0  0  0
   61.6561   28.3702   51.2774 H   0  0  0  0  0  0  0  0  0  0  0  0
   60.0010   29.6820   50.7860 C   0  0  0  0  0  0  0  0  0  0  0  0
   60.0831   30.2601   51.7182 H   0  0  0  0  0  0  0  0  0  0  0  0
   59.0170   30.0060   49.8460 C   0  0  0  0  0  0  0  0  0  0  0  0
   58.3285   30.8420   50.0388 H   0  0  0  0  0  0  0  0  0  0  0  0
   58.9060   29.2710   48.6630 C   0  0  0  0  0  0  0  0  0  0  0  0
   58.1351   29.5342   47.9238 H   0  0  0  0  0  0  0  0  0  0  0  0
   58.2340   28.8900   45.6740 C   0  0  0  0  0  0  0  0  0  0  0  0
   59.0696   29.5949   45.5520 H   0  0  0  0  0  0  0  0  0  0  0  0
   57.0000   29.1370   45.0720 C   0  0  0  0  0  0  0  0  0  0  0  0
   56.7590   30.5990   44.0630 S   0  0  0  0  0  0  0  0  0  0  0  0
   58.1970   31.4810   44.7640 C   0  0  0  0  0  0  0  0  0  0  0  0
   58.4062   31.0923   45.7716 H   0  0  0  0  0  0  0  0  0  0  0  0
   59.0690   31.3220   44.1125 H   0  0  0  0  0  0  0  0  0  0  0  0
   57.9140   32.9300   44.8480 N   0  0  0  0  0  0  0  0  0  0  0  0
   59.1240   33.7870   44.7820 C   0  0  0  0  0  0  0  0  0  0  0  0
   59.9541   33.1872   44.3806 H   0  0  0  0  0  0  0  0  0  0  0  0
   58.8791   34.6440   44.1373 H   0  0  0  0  0  0  0  0  0  0  0  0
   59.5500   34.3560   46.1520 C   0  0  0  0  0  0  0  0  0  0  0  0
   60.6331   34.5478   46.1416 H   0  0  0  0  0  0  0  0  0  0  0  0
   58.9971   35.2896   46.3329 H   0  0  0  0  0  0  0  0  0  0  0  0
   59.2380   33.4050   47.2350 N   0  0  0  0  0  0  0  0  0  0  0  0
   59.6940   32.4930   46.9990 H   0  0  0  0  0  0  0  0  0  0  0  0
   59.8160   33.8800   48.5150 C   0  0  0  0  0  0  0  0  0  0  0  0
   59.7990   34.9798   48.5274 H   0  0  0  0  0  0  0  0  0  0  0  0
   59.2134   33.4670   49.3374 H   0  0  0  0  0  0  0  0  0  0  0  0
   61.2450   33.4090   48.6940 C   0  0  0  0  0  0  0  0  0  0  0  0
   62.1530   34.2330   49.3820 C   0  0  0  0  0  0  0  0  0  0  0  0
   61.8120   35.1927   49.7976 H   0  0  0  0  0  0  0  0  0  0  0  0
   63.4840   33.8430   49.5420 C   0  0  0  0  0  0  0  0  0  0  0  0
   64.1860   34.4943   50.0832 H   0  0  0  0  0  0  0  0  0  0  0  0
   63.9240   32.6300   49.0170 C   0  0  0  0  0  0  0  0  0  0  0  0
   64.9729   32.3246   49.1458 H   0  0  0  0  0  0  0  0  0  0  0  0
   63.0360   31.8000   48.3270 C   0  0  0  0  0  0  0  0  0  0  0  0
   63.3908   30.8446   47.9131 H   0  0  0  0  0  0  0  0  0  0  0  0
   61.6890   32.1790   48.1580 C   0  0  0  0  0  0  0  0  0  0  0  0
   60.7760   31.3620   47.4700 O   0  0  0  0  0  0  0  0  0  0  0  0
   61.1340   30.3850   46.4990 C   0  0  0  0  0  0  0  0  0  0  0  0
   61.4697   29.4689   47.0071 H   0  0  0  0  0  0  0  0  0  0  0  0
   60.2612   30.1565   45.8697 H   0  0  0  0  0  0  0  0  0  0  0  0
   61.9478   30.7745   45.8697 H   0  0  0  0  0  0  0  0  0  0  0  0
   57.7680   33.2030   47.3460 C   0  0  0  0  0  0  0  0  0  0  0  0
   57.5839   32.2139   47.7908 H   0  0  0  0  0  0  0  0  0  0  0  0
   57.3730   34.0178   47.9705 H   0  0  0  0  0  0  0  0  0  0  0  0
   57.0370   33.2730   45.9840 C   0  0  0  0  0  0  0  0  0  0  0  0
   56.1923   32.5686   46.0015 H   0  0  0  0  0  0  0  0  0  0  0  0
   56.6994   34.3101   45.8414 H   0  0  0  0  0  0  0  0  0  0  0  0
   55.9750   28.2630   45.2460 N   0  0  0  0  0  0  0  0  0  0  0  0
  1  2  1  0
  2  3  2  0
  3  4  1  0
  4  5  2  0
  5  6  1  0
  6  7  1  0
  6  8  1  0
  6  9  1  0
  9 10  2  0
 10 11  1  0
 10 12  1  0
 12 13  1  0
 12 14  2  0
 14 15  1  0
 14 16  1  0
 16 17  1  0
 16 18  2  0
 18 19  1  0
  5 20  1  0
 20 21  1  0
 20 22  2  0
 22 23  1  0
 23 24  1  0
 24 25  1  0
 24 26  1  0
 24 27  1  0
 27 28  1  0
 28 29  1  0
 28 30  1  0
 28 31  1  0
 31 32  1  0
 31 33  1  0
 31 34  1  0
 34 35  1  0
 34 36  1  0
 36 37  1  0
 36 38  1  0
 36 39  1  0
 39 40  2  0
 40 41  1  0
 40 42  1  0
 42 43  1  0
 42 44  2  0
 44 45  1  0
 44 46  1  0
 46 47  1  0
 46 48  2  0
 48 49  1  0
 49 50  1  0
 50 51  1  0
 50 52  1  0
 50 53  1  0
 34 54  1  0
 54 55  1  0
 54 56  1  0
 54 57  1  0
 57 58  1  0
 57 59  1  0
 22 60  1  0
 60  3  1  0
 18  9  1  0
 57 27  1  0
 48 39  1  0
M  CHG  2  34   1  60  -1
M  END
>  <UniqueID>  (8) 
8

>  <SMILES>  (8) 
[H]/N=c1\nc(Cc2ccccc2)cc(SCN2CC[NH+](Cc3ccccc3OC)CC2)[n-]1

>  <Energy>  (8) 
71.87587155306808

>  <Genealogy>  (8) 
COc1ccccc1C[NH+]1CCN(CSc2cc(Cc3ccccc3)nc(=N)[n-]2)CC1 (protonated)
[H]/N=c1\nc(Cc2ccccc2)cc(SCN2CC[NH+](Cc3ccccc3OC)CC2)[n-]1 (cis-trans isomerization)
[H]/N=c1\nc(Cc2ccccc2)cc(SCN2CC[NH+](Cc3ccccc3OC)CC2)[n-]1 (3D coordinates assigned)
[H]/N=c1\nc(Cc2ccccc2)cc(SCN2CC[NH+](Cc3ccccc3OC)CC2)[n-]1 (nonaromatic ring conformer: 71.87587155306808 kcal/mol)

>  <smiles>  (8) 
COc1ccccc1CN1CCN(CSc2cc(Cc3ccccc3)nc(=N)[nH]2)CC1

>  <score_type>  (8) 
oracle

>  <origin>  (8) 
adg

>  <m_score__min__energy>  (8) 
-10.02

>  <m_primary>  (8) 
energy

$$$$
8:0
     RDKit          3D

 66 70  0  0  0  0  0  0  0  0999 V2000
   60.3750   27.0620   47.9380 C   0  0  0  0  0  0  0  0  0  0  0  0
   59.3210   26.5040   47.0740 N   0  0  0  0  0  0  0  0  0  0  0  0
   59.6120   26.7440   45.6390 C   0  0  0  0  0  0  0  0  0  0  0  0
   58.9950   28.0490   45.1110 C   0  0  0  0  0  0  0  0  0  0  0  0
   57.5660   28.1360   45.4480 N   0  0  0  0  0  0  0  0  0  0  0  0
   56.7340   29.1800   44.9010 C   0  0  0  0  0  0  0  0  0  0  0  0
   55.5090   28.9660   44.7020 O   0  0  0  0  0  0  0  0  0  0  0  0
   57.2770   30.5220   44.6170 C   0  0  0  0  0  0  0  0  0  0  0  0
   58.0180   31.1960   45.6000 C   0  0  0  0  0  0  0  0  0  0  0  0
   58.5310   32.4850   45.3640 C   0  0  0  0  0  0  0  0  0  0  0  0
   59.2500   33.2610   46.4540 C   0  0  0  0  0  0  0  0  0  0  0  0
   60.6270   33.7780   45.9870 C   0  0  0  0  0  0  0  0  0  0  0  0
   61.5030   34.1110   47.2000 C   0  0  0  0  0  0  0  0  0  0  0  0
   61.8080   32.9060   48.0080 N   0  0  0  0  0  0  0  0  0  0  0  0
   62.2390   33.3650   49.6370 S   0  0  0  0  0  0  0  0  0  0  0  0
   61.1420   32.9650   50.5830 O   0  0  0  0  0  0  0  0  0  0  0  0
   62.4250   34.8550   49.7220 O   0  0  0  0  0  0  0  0  0  0  0  0
   63.7240   32.5500   50.1240 C   0  0  0  0  0  0  0  0  0  0  0  0
   64.9760   33.0920   49.7910 C   0  0  0  0  0  0  0  0  0  0  0  0
   66.1510   32.4320   50.1650 C   0  0  0  0  0  0  0  0  0  0  0  0
   66.0790   31.2250   50.8630 C   0  0  0  0  0  0  0  0  0  0  0  0
   64.8320   30.6870   51.2090 C   0  0  0  0  0  0  0  0  0  0  0  0
   63.6560   31.3380   50.8270 C   0  0  0  0  0  0  0  0  0  0  0  0
   64.7840   29.4940   51.9370 O   0  0  0  0  0  0  0  0  0  0  0  0
   65.9510   28.9710   52.5790 C   0  0  0  0  0  0  0  0  0  0  0  0
   67.1860   29.1840   51.6920 C   0  0  0  0  0  0  0  0  0  0  0  0
   67.2420   30.5360   51.2260 O   0  0  0  0  0  0  0  0  0  0  0  0
   60.7460   31.8700   48.0100 C   0  0  0  0  0  0  0  0  0  0  0  0
   59.3400   32.4430   47.7690 C   0  0  0  0  0  0  0  0  0  0  0  0
   58.3080   33.0830   44.1130 C   0  0  0  0  0  0  0  0  0  0  0  0
   57.5920   32.4090   43.1210 C   0  0  0  0  0  0  0  0  0  0  0  0
   57.0700   31.1360   43.3630 C   0  0  0  0  0  0  0  0  0  0  0  0
   56.3450   30.5110   42.3450 O   0  0  0  0  0  0  0  0  0  0  0  0
   56.9940   27.1520   46.3720 C   0  0  0  0  0  0  0  0  0  0  0  0
   57.9740   26.9350   47.5300 C   0  0  0  0  0  0  0  0  0  0  0  0
   60.0997   26.9162   48.9930 H   0  0  0  0  0  0  0  0  0  0  0  0
   61.3265   26.5495   47.7332 H   0  0  0  0  0  0  0  0  0  0  0  0
   60.4861   28.1370   47.7332 H   0  0  0  0  0  0  0  0  0  0  0  0
   60.7028   26.7931   45.5060 H   0  0  0  0  0  0  0  0  0  0  0  0
   59.1658   25.9152   45.0698 H   0  0  0  0  0  0  0  0  0  0  0  0
   59.5224   28.9030   45.5609 H   0  0  0  0  0  0  0  0  0  0  0  0
   59.0962   28.0640   44.0158 H   0  0  0  0  0  0  0  0  0  0  0  0
   58.2005   30.7094   46.5695 H   0  0  0  0  0  0  0  0  0  0  0  0
   58.6449   34.1531   46.6729 H   0  0  0  0  0  0  0  0  0  0  0  0
   61.1211   33.0027   45.3831 H   0  0  0  0  0  0  0  0  0  0  0  0
   60.4850   34.6874   45.3846 H   0  0  0  0  0  0  0  0  0  0  0  0
   62.4473   34.5510   46.8469 H   0  0  0  0  0  0  0  0  0  0  0  0
   60.9503   34.8178   47.8364 H   0  0  0  0  0  0  0  0  0  0  0  0
   65.0327   34.0389   49.2341 H   0  0  0  0  0  0  0  0  0  0  0  0
   67.1302   32.8632   49.9096 H   0  0  0  0  0  0  0  0  0  0  0  0
   62.6782   30.9006   51.0772 H   0  0  0  0  0  0  0  0  0  0  0  0
   66.0998   29.4875   53.5387 H   0  0  0  0  0  0  0  0  0  0  0  0
   65.8137   27.8930   52.7493 H   0  0  0  0  0  0  0  0  0  0  0  0
   68.0925   28.9644   52.2751 H   0  0  0  0  0  0  0  0  0  0  0  0
   67.1207   28.5113   50.8241 H   0  0  0  0  0  0  0  0  0  0  0  0
   60.9672   31.1412   47.2163 H   0  0  0  0  0  0  0  0  0  0  0  0
   60.7434   31.4067   49.0077 H   0  0  0  0  0  0  0  0  0  0  0  0
   58.6237   31.6099   47.7161 H   0  0  0  0  0  0  0  0  0  0  0  0
   59.1084   33.1227   48.6023 H   0  0  0  0  0  0  0  0  0  0  0  0
   58.7006   34.0908   43.9127 H   0  0  0  0  0  0  0  0  0  0  0  0
   57.4379   32.8845   42.1411 H   0  0  0  0  0  0  0  0  0  0  0  0
   55.6810   29.7660   42.5190 H   0  0  0  0  0  0  0  0  0  0  0  0
   56.0361   27.5252   46.7632 H   0  0  0  0  0  0  0  0  0  0  0  0
   56.8203   26.2017   45.8459 H   0  0  0  0  0  0  0  0  0  0  0  0
   58.0767   27.8794   48.0847 H   0  0  0  0  0  0  0  0  0  0  0  0
   57.5664   26.1318   48.1615 H   0  0  0  0  0  0  0  0  0  0  0  0
  1  2  1  0
  2  3  1  0
  3  4  1  0
  4  5  1  0
  5  6  1  0
  6  7  2  0
  6  8  1  0
  8  9  2  0
  9 10  1  0
 10 11  1  0
 11 12  1  0
 12 13  1  0
 13 14  1  0
 14 15  1  0
 15 16  2  0
 15 17  2  0
 15 18  1  0
 18 19  2  0
 19 20  1  0
 20 21  2  0
 21 22  1  0
 22 23  2  0
 22 24  1  0
 24 25  1  0
 25 26  1  0
 26 27  1  0
 14 28  1  0
 28 29  1  0
 10 30  2  0
 30 31  1  0
 31 32  2  0
 32 33  1  0
  5 34  1  0
 34 35  1  0
 35  2  1  0
 32  8  1  0
 29 11  1  0
 23 18  1  0
 27 21  1  0
  1 36  1  0
  1 37  1  0
  1 38  1  0
  3 39  1  0
  3 40  1  0
  4 41  1  0
  4 42  1  0
  9 43  1  0
 11 44  1  0
 12 45  1  0
 12 46  1  0
 13 47  1  0
 13 48  1  0
 19 49  1  0
 20 50  1  0
 23 51  1  0
 25 52  1  0
 25 53  1  0
 26 54  1  0
 26 55  1  0
 28 56  1  0
 28 57  1  0
 29 58  1  0
 29 59  1  0
 30 60  1  0
 31 61  1  0
 33 62  1  0
 34 63  1  0
 34 64  1  0
 35 65  1  0
 35 66  1  0
M  END
>  <UniqueID>  (9) 
9

>  <SMILES>  (9) 
CN1CCN(C(=O)c2cc(C3CCN(S(=O)(=O)c4ccc5c(c4)OCCO5)CC3)ccc2O)CC1

>  <Energy>  (9) 
94.0790073521487

>  <Genealogy>  (9) 
CN1CCN(C(=O)c2cc(C3CCN(S(=O)(=O)c4ccc5c(c4)OCCO5)CC3)ccc2O)CC1 (3D coordinates assigned)
CN1CCN(C(=O)c2cc(C3CCN(S(=O)(=O)c4ccc5c(c4)OCCO5)CC3)ccc2O)CC1 (nonaromatic ring conformer: 94.0790073521487 kcal/mol)

>  <smiles>  (9) 
CN1CCN(C(=O)c2cc(C3CCN(S(=O)(=O)c4ccc5c(c4)OCCO5)CC3)ccc2O)CC1

>  <score_type>  (9) 
oracle

>  <origin>  (9) 
adg

>  <m_score__min__energy>  (9) 
-9.7300000000000004

>  <m_primary>  (9) 
energy

$$$$
9:0
     RDKit          3D

 38 40  0  0  0  0  0  0  0  0999 V2000
   55.5260   28.8630   45.0420 N   0  0  0  0  0  0  0  0  0  0  0  0
   56.7040   29.9460   44.3920 S   0  0  0  0  0  0  0  0  0  0  0  0
   56.2270   31.3590   44.5820 O   0  0  0  0  0  0  0  0  0  0  0  0
   56.8580   29.6950   42.9180 O   0  0  0  0  0  0  0  0  0  0  0  0
   58.2560   29.7190   45.2170 C   0  0  0  0  0  0  0  0  0  0  0  0
   58.8500   30.8230   45.8490 C   0  0  0  0  0  0  0  0  0  0  0  0
   60.0960   30.7030   46.4680 C   0  0  0  0  0  0  0  0  0  0  0  0
   60.7640   29.4800   46.4660 C   0  0  0  0  0  0  0  0  0  0  0  0
   60.1830   28.3680   45.8520 C   0  0  0  0  0  0  0  0  0  0  0  0
   58.9240   28.4690   45.2370 C   0  0  0  0  0  0  0  0  0  0  0  0
   58.3380   27.2560   44.6330 C   0  0  0  0  0  0  0  0  0  0  0  0
   58.3080   27.0980   43.2410 C   0  0  0  0  0  0  0  0  0  0  0  0
   57.7340   25.9550   42.6810 C   0  0  0  0  0  0  0  0  0  0  0  0
   57.1930   24.9730   43.5200 C   0  0  0  0  0  0  0  0  0  0  0  0
   56.6480   23.9150   42.9950 N   0  0  0  0  0  0  0  0  0  0  0  0
   56.2930   22.7090   43.6910 C   0  0  0  0  0  0  0  0  0  0  0  0
   56.2710   21.6270   43.0480 O   0  0  0  0  0  0  0  0  0  0  0  0
   55.8770   22.7120   45.1170 C   0  0  0  0  0  0  0  0  0  0  0  0
   56.8500   22.5790   46.1230 C   0  0  0  0  0  0  0  0  0  0  0  0
   56.4650   22.5840   47.4640 C   0  0  0  0  0  0  0  0  0  0  0  0
   57.3310   22.4540   48.3700 O   0  0  0  0  0  0  0  0  0  0  0  0
   55.1170   22.7340   47.7940 C   0  0  0  0  0  0  0  0  0  0  0  0
   54.7090   22.7410   49.1240 O   0  0  0  0  0  0  0  0  0  0  0  0
   54.1750   22.8780   46.7740 C   0  0  0  0  0  0  0  0  0  0  0  0
   54.5620   22.8680   45.4670 N   0  0  0  0  0  0  0  0  0  0  0  0
   53.5920   22.9860   44.4970 O   0  0  0  0  0  0  0  0  0  0  0  0
   57.2680   25.1310   44.8720 N   0  0  0  0  0  0  0  0  0  0  0  0
   57.8240   26.2330   45.4400 C   0  0  0  0  0  0  0  0  0  0  0  0
   54.6040   29.3520   44.9970 H   0  0  0  0  0  0  0  0  0  0  0  0
   58.3290   31.7917   45.8567 H   0  0  0  0  0  0  0  0  0  0  0  0
   60.5513   31.5760   46.9584 H   0  0  0  0  0  0  0  0  0  0  0  0
   61.7487   29.3903   46.9479 H   0  0  0  0  0  0  0  0  0  0  0  0
   60.7155   27.4055   45.8500 H   0  0  0  0  0  0  0  0  0  0  0  0
   58.7365   27.8741   42.5898 H   0  0  0  0  0  0  0  0  0  0  0  0
   57.7070   25.8269   41.5888 H   0  0  0  0  0  0  0  0  0  0  0  0
   57.9111   22.4714   45.8538 H   0  0  0  0  0  0  0  0  0  0  0  0
   53.1115   23.0006   47.0270 H   0  0  0  0  0  0  0  0  0  0  0  0
   57.8705   26.3219   46.5354 H   0  0  0  0  0  0  0  0  0  0  0  0
  1  2  1  0
  2  3  2  0
  2  4  2  0
  2  5  1  0
  5  6  2  0
  6  7  1  0
  7  8  2  0
  8  9  1  0
  9 10  2  0
 10 11  1  0
 11 12  1  0
 12 13  2  0
 13 14  1  0
 14 15  2  3
 15 16  1  0
 16 17  2  0
 16 18  1  0
 18 19  2  0
 19 20  1  0
 20 21  2  0
 20 22  1  0
 22 23  1  0
 22 24  2  0
 24 25  1  0
 25 26  1  0
 14 27  1  0
 27 28  1  0
 10  5  1  0
 28 11  2  0
 25 18  1  0
  1 29  1  0
  6 30  1  0
  7 31  1  0
  8 32  1  0
  9 33  1  0
 12 34  1  0
 13 35  1  0
 19 36  1  0
 24 37  1  0
 28 38  1  0
M  CHG  4   1  -1  23  -1  26  -1  27  -1
M  END
>  <UniqueID>  (10) 
10

>  <SMILES>  (10) 
[NH-]S(=O)(=O)c1ccccc1-c1ccc(=NC(=O)c2cc(=O)c([O-])cn2[O-])[n-]c1

>  <Energy>  (10) 
59.66433905233056

>  <Genealogy>  (10) 
[NH-]S(=O)(=O)c1ccccc1-c1ccc(=NC(=O)c2cc(=O)c([O-])cn2[O-])[n-]c1 (protonated)
[NH-]S(=O)(=O)c1ccccc1-c1ccc(=NC(=O)c2cc(=O)c([O-])cn2[O-])[n-]c1 (3D coordinates assigned)
[NH-]S(=O)(=O)c1ccccc1-c1ccc(=NC(=O)c2cc(=O)c([O-])cn2[O-])[n-]c1 (optimized conformer: 59.66433905233056 kcal/mol)

>  <smiles>  (10) 
NS(=O)(=O)c1ccccc1-c1ccc(=NC(=O)c2cc(=O)c(O)cn2O)[nH]c1

>  <score_type>  (10) 
oracle

>  <origin>  (10) 
adg

>  <m_score__min__energy>  (10) 
-16.170000000000002

>  <m_primary>  (10) 
energy

$$$$
10:0
     RDKit          3D

 47 49  0  0  0  0  0  0  0  0999 V2000
   62.6972   32.4275   51.0123 H   0  0  0  0  0  0  0  0  0  0  0  0
   61.9240   32.4130   50.2300 C   0  0  0  0  0  0  0  0  0  0  0  0
   61.3780   31.0930   49.8470 C   0  0  0  0  0  0  0  0  0  0  0  0
   60.8710   30.3690   50.7430 O   0  0  0  0  0  0  0  0  0  0  0  0
   61.4580   30.6190   48.4980 N   0  0  0  0  0  0  0  0  0  0  0  0
   60.3760   30.1880   47.6610 C   0  0  0  0  0  0  0  0  0  0  0  0
   60.3210   30.6690   46.3470 C   0  0  0  0  0  0  0  0  0  0  0  0
   61.1161   31.3311   45.9736 H   0  0  0  0  0  0  0  0  0  0  0  0
   59.2620   30.3130   45.5070 C   0  0  0  0  0  0  0  0  0  0  0  0
   59.2331   30.6861   44.4726 H   0  0  0  0  0  0  0  0  0  0  0  0
   58.2370   29.4820   45.9790 C   0  0  0  0  0  0  0  0  0  0  0  0
   56.8930   29.0590   44.9220 S   0  0  0  0  0  0  0  0  0  0  0  0
   57.3900   28.6480   43.5630 O   0  0  0  0  0  0  0  0  0  0  0  0
   56.0010   30.2580   44.7710 O   0  0  0  0  0  0  0  0  0  0  0  0
   55.9770   27.7540   45.6110 N   0  0  0  0  0  0  0  0  0  0  0  0
   56.4150   26.5580   45.8870 C   0  0  0  0  0  0  0  0  0  0  0  0
   55.5380   25.6470   46.3890 N   0  0  0  0  0  0  0  0  0  0  0  0
   55.9100   24.3790   46.7090 C   0  0  0  0  0  0  0  0  0  0  0  0
   55.1667   23.6733   47.1084 H   0  0  0  0  0  0  0  0  0  0  0  0
   57.2320   23.9710   46.5320 C   0  0  0  0  0  0  0  0  0  0  0  0
   57.5398   22.9478   46.7933 H   0  0  0  0  0  0  0  0  0  0  0  0
   58.1580   24.8790   46.0190 C   0  0  0  0  0  0  0  0  0  0  0  0
   59.2049   24.5739   45.8743 H   0  0  0  0  0  0  0  0  0  0  0  0
   57.7570   26.1750   45.6890 C   0  0  0  0  0  0  0  0  0  0  0  0
   58.4829   26.8918   45.2776 H   0  0  0  0  0  0  0  0  0  0  0  0
   58.2790   29.0120   47.2980 C   0  0  0  0  0  0  0  0  0  0  0  0
   57.4766   28.3596   47.6729 H   0  0  0  0  0  0  0  0  0  0  0  0
   59.3370   29.3690   48.1400 C   0  0  0  0  0  0  0  0  0  0  0  0
   59.3570   29.0087   49.1791 H   0  0  0  0  0  0  0  0  0  0  0  0
   61.5600   33.5950   49.7080 C   0  0  0  0  0  0  0  0  0  0  0  0
   61.8509   34.5070   50.2499 H   0  0  0  0  0  0  0  0  0  0  0  0
   60.7970   33.7520   48.4580 C   0  0  0  0  0  0  0  0  0  0  0  0
   59.4170   33.9930   48.5400 C   0  0  0  0  0  0  0  0  0  0  0  0
   58.9264   34.0284   49.5239 H   0  0  0  0  0  0  0  0  0  0  0  0
   58.6630   34.1880   47.3830 C   0  0  0  0  0  0  0  0  0  0  0  0
   57.5827   34.3818   47.4560 H   0  0  0  0  0  0  0  0  0  0  0  0
   59.2800   34.1370   46.1340 C   0  0  0  0  0  0  0  0  0  0  0  0
   58.6858   34.2972   45.2223 H   0  0  0  0  0  0  0  0  0  0  0  0
   60.6510   33.8830   46.0360 C   0  0  0  0  0  0  0  0  0  0  0  0
   61.1289   33.8412   45.0461 H   0  0  0  0  0  0  0  0  0  0  0  0
   61.4220   33.6810   47.1900 C   0  0  0  0  0  0  0  0  0  0  0  0
   63.1590   33.3770   47.0290 S   0  0  0  0  0  0  0  0  0  0  0  0
   63.9160   34.1320   48.0850 O   0  0  0  0  0  0  0  0  0  0  0  0
   63.6320   33.8380   45.6790 O   0  0  0  0  0  0  0  0  0  0  0  0
   63.4710   31.6840   47.2070 N   0  0  0  0  0  0  0  0  0  0  0  0
   62.6640   31.1770   46.7780 H   0  0  0  0  0  0  0  0  0  0  0  0
   63.4490   31.4760   48.2310 H   0  0  0  0  0  0  0  0  0  0  0  0
  1  2  1  0
  2  3  1  0
  3  4  2  0
  3  5  1  0
  5  6  1  0
  6  7  2  0
  7  8  1  0
  7  9  1  0
  9 10  1  0
  9 11  2  0
 11 12  1  0
 12 13  2  0
 12 14  2  0
 12 15  1  0
 15 16  2  0
 16 17  1  0
 17 18  1  0
 18 19  1  0
 18 20  2  0
 20 21  1  0
 20 22  1  0
 22 23  1  0
 22 24  2  0
 24 25  1  0
 11 26  1  0
 26 27  1  0
 26 28  2  0
 28 29  1  0
  2 30  2  3
 30 31  1  0
 30 32  1  0
 32 33  2  0
 33 34  1  0
 33 35  1  0
 35 36  1  0
 35 37  2  0
 37 38  1  0
 37 39  1  0
 39 40  1  0
 39 41  2  0
 41 42  1  0
 42 43  2  0
 42 44  2  0
 42 45  1  0
 45 46  1  0
 45 47  1  0
 28  6  1  0
 41 32  1  0
 24 16  1  0
M  CHG  2   5  -1  17  -1
M  END
>  <UniqueID>  (11) 
11

>  <SMILES>  (11) 
NS(=O)(=O)c1ccccc1C=CC(=O)[N-]c1ccc(S(=O)(=O)/N=c2\cccc[n-]2)cc1

>  <Energy>  (11) 
65.4397213704269

>  <Genealogy>  (11) 
NS(=O)(=O)c1ccccc1C=CC(=O)[N-]c1ccc(S(=O)(=O)N=c2cccc[n-]2)cc1 (protonated)
NS(=O)(=O)c1ccccc1C=CC(=O)[N-]c1ccc(S(=O)(=O)/N=c2\cccc[n-]2)cc1 (cis-trans isomerization)
NS(=O)(=O)c1ccccc1C=CC(=O)[N-]c1ccc(S(=O)(=O)/N=c2\cccc[n-]2)cc1 (3D coordinates assigned)
NS(=O)(=O)c1ccccc1C=CC(=O)[N-]c1ccc(S(=O)(=O)/N=c2\cccc[n-]2)cc1 (optimized conformer: 65.4397213704269 kcal/mol)

>  <smiles>  (11) 
NS(=O)(=O)c1ccccc1C=CC(=O)Nc1ccc(S(=O)(=O)N=c2cccc[nH]2)cc1

>  <score_type>  (11) 
oracle

>  <origin>  (11) 
adg

>  <m_score__min__energy>  (11) 
-12.369999999999999

>  <m_primary>  (11) 
energy

$$$$
11:0
     RDKit          3D

 23 24  0  0  0  0  0  0  0  0999 V2000
   54.7600   27.4660   46.3500 H   0  0  0  0  0  0  0  0  0  0  0  0
   55.1770   26.7170   45.8120 O   0  0  0  0  0  0  0  0  0  0  0  0
   56.0600   25.8070   46.3880 C   0  0  0  0  0  0  0  0  0  0  0  0
   55.6630   24.6590   46.9600 N   0  0  0  0  0  0  0  0  0  0  0  0
   56.8310   24.0740   47.3030 C   0  0  0  0  0  0  0  0  0  0  0  0
   56.8860   22.9540   47.8720 O   0  0  0  0  0  0  0  0  0  0  0  0
   57.9340   24.7830   46.9830 N   0  0  0  0  0  0  0  0  0  0  0  0
   57.4380   25.8980   46.4190 C   0  0  0  0  0  0  0  0  0  0  0  0
   58.2860   26.9710   45.8770 C   0  0  0  0  0  0  0  0  0  0  0  0
   59.3692   26.9239   46.0627 H   0  0  0  0  0  0  0  0  0  0  0  0
   57.8080   28.0010   45.1700 C   0  0  0  0  0  0  0  0  0  0  0  0
   57.7490   28.0720   43.7140 C   0  0  0  0  0  0  0  0  0  0  0  0
   58.0528   27.2789   43.0149 H   0  0  0  0  0  0  0  0  0  0  0  0
   57.2650   29.2600   43.3820 C   0  0  0  0  0  0  0  0  0  0  0  0
   57.0914   29.6173   42.3562 H   0  0  0  0  0  0  0  0  0  0  0  0
   57.0000   30.0170   44.6030 C   0  0  0  0  0  0  0  0  0  0  0  0
   56.4920   31.3200   44.6180 O   0  0  0  0  0  0  0  0  0  0  0  0
   57.3050   32.4750   44.8010 C   0  0  0  0  0  0  0  0  0  0  0  0
   57.4376   32.6634   45.8766 H   0  0  0  0  0  0  0  0  0  0  0  0
   58.2871   32.3099   44.3339 H   0  0  0  0  0  0  0  0  0  0  0  0
   56.8182   33.3438   44.3339 H   0  0  0  0  0  0  0  0  0  0  0  0
   57.3210   29.2870   45.6670 C   0  0  0  0  0  0  0  0  0  0  0  0
   57.2363   29.5924   46.7204 H   0  0  0  0  0  0  0  0  0  0  0  0
  1  2  1  0
  2  3  1  0
  3  4  1  0
  4  5  1  0
  5  6  2  0
  5  7  1  0
  7  8  1  0
  8  9  1  0
  9 10  1  0
  9 11  2  0
 11 12  1  0
 12 13  1  0
 12 14  2  0
 14 15  1  0
 14 16  1  0
 16 17  1  0
 17 18  1  0
 18 19  1  0
 18 20  1  0
 18 21  1  0
 16 22  2  0
 22 23  1  0
  8  3  2  0
 22 11  1  0
M  CHG  2   4  -1   7  -1
M  END
>  <UniqueID>  (12) 
12

>  <SMILES>  (12) 
COC1=C/C(=C\c2[n-]c(=O)[n-]c2O)C=C1

>  <Energy>  (12) 
76.79990539269409

>  <Genealogy>  (12) 
COC1=CC(=Cc2[n-]c(=O)[n-]c2O)C=C1 (protonated)
COC1=C/C(=C\c2[n-]c(=O)[n-]c2O)C=C1 (cis-trans isomerization)
COC1=C/C(=C\c2[n-]c(=O)[n-]c2O)C=C1 (3D coordinates assigned)
COC1=C/C(=C\c2[n-]c(=O)[n-]c2O)C=C1 (nonaromatic ring conformer: 76.79990539269409 kcal/mol)

>  <smiles>  (12) 
COC1=CC(=Cc2[nH]c(=O)[nH]c2O)C=C1

>  <score_type>  (12) 
oracle

>  <origin>  (12) 
adg

>  <m_score__min__energy>  (12) 
-10.9

>  <m_primary>  (12) 
energy

$$$$
12:0
     RDKit          3D

 49 52  0  0  0  0  0  0  0  0999 V2000
   55.9290   21.3380   44.0580 O   0  0  0  0  0  0  0  0  0  0  0  0
   55.6400   22.3040   44.8120 C   0  0  0  0  0  0  0  0  0  0  0  0
   54.4740   22.9780   44.7170 N   0  0  0  0  0  0  0  0  0  0  0  0
   54.5850   23.8980   45.6900 C   0  0  0  0  0  0  0  0  0  0  0  0
   53.6020   24.8320   45.9950 O   0  0  0  0  0  0  0  0  0  0  0  0
   55.7960   23.7680   46.3280 C   0  0  0  0  0  0  0  0  0  0  0  0
   56.2680   24.5530   47.5110 C   0  0  0  0  0  0  0  0  0  0  0  0
   56.9510   25.7650   47.0640 N   0  0  0  0  0  0  0  0  0  0  0  0
   58.2450   26.0730   47.2840 C   0  0  0  0  0  0  0  0  0  0  0  0
   58.5500   27.2600   46.6350 C   0  0  0  0  0  0  0  0  0  0  0  0
   59.7760   27.9370   46.6250 O   0  0  0  0  0  0  0  0  0  0  0  0
   60.5390   28.2680   47.7850 C   0  0  0  0  0  0  0  0  0  0  0  0
   60.4100   29.7610   48.1020 C   0  0  0  0  0  0  0  0  0  0  0  0
   59.3900   30.4090   47.2750 N   0  0  0  0  0  0  0  0  0  0  0  0
   59.3880   31.8190   46.9870 C   0  0  0  0  0  0  0  0  0  0  0  0
   58.1610   32.4800   46.8030 C   0  0  0  0  0  0  0  0  0  0  0  0
   58.1290   33.8480   46.5170 C   0  0  0  0  0  0  0  0  0  0  0  0
   59.3190   34.5710   46.4140 C   0  0  0  0  0  0  0  0  0  0  0  0
   60.5460   33.9270   46.5980 C   0  0  0  0  0  0  0  0  0  0  0  0
   60.5830   32.5590   46.8840 C   0  0  0  0  0  0  0  0  0  0  0  0
   57.4030   27.6820   45.9790 C   0  0  0  0  0  0  0  0  0  0  0  0
   57.2420   28.8940   45.1440 C   0  0  0  0  0  0  0  0  0  0  0  0
   55.9590   29.3950   44.8550 C   0  0  0  0  0  0  0  0  0  0  0  0
   55.8090   30.5410   44.0680 C   0  0  0  0  0  0  0  0  0  0  0  0
   56.9330   31.1960   43.5610 C   0  0  0  0  0  0  0  0  0  0  0  0
   58.2110   30.7070   43.8400 C   0  0  0  0  0  0  0  0  0  0  0  0
   58.3670   29.5610   44.6280 C   0  0  0  0  0  0  0  0  0  0  0  0
   56.4430   26.7270   46.2670 C   0  0  0  0  0  0  0  0  0  0  0  0
   55.1400   26.7170   45.7790 O   0  0  0  0  0  0  0  0  0  0  0  0
   56.4720   22.7430   45.7820 N   0  0  0  0  0  0  0  0  0  0  0  0
   53.8510   25.7420   46.3610 H   0  0  0  0  0  0  0  0  0  0  0  0
   55.4041   24.8297   48.1332 H   0  0  0  0  0  0  0  0  0  0  0  0
   56.9674   23.9388   48.0972 H   0  0  0  0  0  0  0  0  0  0  0  0
   58.9482   25.4766   47.8839 H   0  0  0  0  0  0  0  0  0  0  0  0
   60.1702   27.6829   48.6403 H   0  0  0  0  0  0  0  0  0  0  0  0
   61.5968   28.0342   47.5945 H   0  0  0  0  0  0  0  0  0  0  0  0
   60.1358   29.8773   49.1609 H   0  0  0  0  0  0  0  0  0  0  0  0
   61.3770   30.2396   47.8878 H   0  0  0  0  0  0  0  0  0  0  0  0
   58.6200   29.8290   46.8740 H   0  0  0  0  0  0  0  0  0  0  0  0
   57.2196   31.9169   46.8846 H   0  0  0  0  0  0  0  0  0  0  0  0
   57.1641   34.3560   46.3728 H   0  0  0  0  0  0  0  0  0  0  0  0
   59.2910   35.6472   46.1881 H   0  0  0  0  0  0  0  0  0  0  0  0
   61.4833   34.4971   46.5177 H   0  0  0  0  0  0  0  0  0  0  0  0
   61.5509   32.0571   47.0295 H   0  0  0  0  0  0  0  0  0  0  0  0
   55.0696   28.8824   45.2503 H   0  0  0  0  0  0  0  0  0  0  0  0
   54.8029   30.9275   43.8478 H   0  0  0  0  0  0  0  0  0  0  0  0
   56.8119   32.0971   42.9419 H   0  0  0  0  0  0  0  0  0  0  0  0
   59.0961   31.2232   43.4399 H   0  0  0  0  0  0  0  0  0  0  0  0
   59.3758   29.1798   44.8449 H   0  0  0  0  0  0  0  0  0  0  0  0
  1  2  2  0
  2  3  1  0
  3  4  1  0
  4  5  1  0
  4  6  2  0
  6  7  1  0
  7  8  1  0
  8  9  1  0
  9 10  2  0
 10 11  1  0
 11 12  1  0
 12 13  1  0
 13 14  1  0
 14 15  1  0
 15 16  2  0
 16 17  1  0
 17 18  2  0
 18 19  1  0
 19 20  2  0
 10 21  1  0
 21 22  1  0
 22 23  2  0
 23 24  1  0
 24 25  2  0
 25 26  1  0
 26 27  2  0
 21 28  2  0
 28 29  1  0
  6 30  1  0
 30  2  1  0
 28  8  1  0
 20 15  1  0
 27 22  1  0
  5 31  1  0
  7 32  1  0
  7 33  1  0
  9 34  1  0
 12 35  1  0
 12 36  1  0
 13 37  1  0
 13 38  1  0
 14 39  1  0
 16 40  1  0
 17 41  1  0
 18 42  1  0
 19 43  1  0
 20 44  1  0
 23 45  1  0
 24 46  1  0
 25 47  1  0
 26 48  1  0
 27 49  1  0
M  CHG  3   3  -1  29  -1  30  -1
M  END
>  <UniqueID>  (13) 
13

>  <SMILES>  (13) 
O=c1[n-]c(O)c(Cn2cc(OCCNc3ccccc3)c(-c3ccccc3)c2[O-])[n-]1

>  <Energy>  (13) 
110.60762977878525

>  <Genealogy>  (13) 
O=c1[n-]c(O)c(Cn2cc(OCCNc3ccccc3)c(-c3ccccc3)c2[O-])[n-]1 (protonated)
O=c1[n-]c(O)c(Cn2cc(OCCNc3ccccc3)c(-c3ccccc3)c2[O-])[n-]1 (3D coordinates assigned)
O=c1[n-]c(O)c(Cn2cc(OCCNc3ccccc3)c(-c3ccccc3)c2[O-])[n-]1 (optimized conformer: 110.60762977878525 kcal/mol)

>  <smiles>  (13) 
O=c1[nH]c(O)c(Cn2cc(OCCNc3ccccc3)c(-c3ccccc3)c2O)[nH]1

>  <score_type>  (13) 
oracle

>  <origin>  (13) 
adg

>  <m_score__min__energy>  (13) 
-14.99

>  <m_primary>  (13) 
energy

$$$$
13:0
     RDKit          3D

 48 51  0  0  0  0  0  0  0  0999 V2000
   53.0486   20.7233   46.1312 H   0  0  0  0  0  0  0  0  0  0  0  0
   53.5360   21.7090   46.1010 C   0  0  0  0  0  0  0  0  0  0  0  0
   52.8240   22.7550   45.6240 C   0  0  0  0  0  0  0  0  0  0  0  0
   51.7937   22.5672   45.2877 H   0  0  0  0  0  0  0  0  0  0  0  0
   53.3580   24.1710   45.5240 C   0  0  0  0  0  0  0  0  0  0  0  0
   53.4094   24.4590   44.4636 H   0  0  0  0  0  0  0  0  0  0  0  0
   52.6788   24.8347   46.0791 H   0  0  0  0  0  0  0  0  0  0  0  0
   54.7210   24.2890   46.1250 C   0  0  0  0  0  0  0  0  0  0  0  0
   55.4440   23.2280   46.6090 C   0  0  0  0  0  0  0  0  0  0  0  0
   56.6570   23.7360   47.0280 C   0  0  0  0  0  0  0  0  0  0  0  0
   57.7010   22.9900   47.5630 O   0  0  0  0  0  0  0  0  0  0  0  0
   56.6990   25.0730   46.8330 N   0  0  0  0  0  0  0  0  0  0  0  0
   57.8310   25.9640   47.0880 C   0  0  0  0  0  0  0  0  0  0  0  0
   58.1591   25.8413   48.1307 H   0  0  0  0  0  0  0  0  0  0  0  0
   57.5120   27.0011   46.9073 H   0  0  0  0  0  0  0  0  0  0  0  0
   58.9790   25.6440   46.1680 C   0  0  0  0  0  0  0  0  0  0  0  0
   59.4720   24.4850   46.1800 O   0  0  0  0  0  0  0  0  0  0  0  0
   59.5090   26.6050   45.2420 N   0  0  0  0  0  0  0  0  0  0  0  0
   58.9380   27.6900   44.8070 C   0  0  0  0  0  0  0  0  0  0  0  0
   59.1950   28.8970   45.3520 N   0  0  0  0  0  0  0  0  0  0  0  0
   58.4560   29.8920   44.7830 C   0  0  0  0  0  0  0  0  0  0  0  0
   58.5940   31.3060   45.2250 C   0  0  0  0  0  0  0  0  0  0  0  0
   57.6640   32.2640   44.7900 C   0  0  0  0  0  0  0  0  0  0  0  0
   56.8405   31.9614   44.1265 H   0  0  0  0  0  0  0  0  0  0  0  0
   57.7740   33.5960   45.1910 C   0  0  0  0  0  0  0  0  0  0  0  0
   57.0356   34.3333   44.8431 H   0  0  0  0  0  0  0  0  0  0  0  0
   58.8210   34.0030   46.0360 C   0  0  0  0  0  0  0  0  0  0  0  0
   58.9610   35.3340   46.4620 O   0  0  0  0  0  0  0  0  0  0  0  0
   59.9750   36.2240   46.0070 C   0  0  0  0  0  0  0  0  0  0  0  0
   60.4852   36.6718   46.8725 H   0  0  0  0  0  0  0  0  0  0  0  0
   60.7041   35.6689   45.3985 H   0  0  0  0  0  0  0  0  0  0  0  0
   59.5191   37.0189   45.3985 H   0  0  0  0  0  0  0  0  0  0  0  0
   59.7620   33.0600   46.4730 C   0  0  0  0  0  0  0  0  0  0  0  0
   60.8000   33.4980   47.3130 O   0  0  0  0  0  0  0  0  0  0  0  0
   62.1860   33.4070   47.0000 C   0  0  0  0  0  0  0  0  0  0  0  0
   62.7704   33.3686   47.9311 H   0  0  0  0  0  0  0  0  0  0  0  0
   62.3703   32.4948   46.4135 H   0  0  0  0  0  0  0  0  0  0  0  0
   62.4880   34.2873   46.4135 H   0  0  0  0  0  0  0  0  0  0  0  0
   59.6470   31.7160   46.0650 C   0  0  0  0  0  0  0  0  0  0  0  0
   60.3884   30.9788   46.4067 H   0  0  0  0  0  0  0  0  0  0  0  0
   57.5910   29.4620   43.7710 C   0  0  0  0  0  0  0  0  0  0  0  0
   56.9143   30.1022   43.1860 H   0  0  0  0  0  0  0  0  0  0  0  0
   57.7640   27.7980   43.6030 S   0  0  0  0  0  0  0  0  0  0  0  0
   55.5190   25.4070   46.2670 C   0  0  0  0  0  0  0  0  0  0  0  0
   55.1760   26.6960   45.8750 O   0  0  0  0  0  0  0  0  0  0  0  0
   54.9660   21.8120   46.5970 C   0  0  0  0  0  0  0  0  0  0  0  0
   55.6166   21.2213   45.9354 H   0  0  0  0  0  0  0  0  0  0  0  0
   55.0010   21.4285   47.6274 H   0  0  0  0  0  0  0  0  0  0  0  0
  1  2  1  0
  2  3  2  0
  3  4  1  0
  3  5  1  0
  5  6  1  0
  5  7  1  0
  5  8  1  0
  8  9  1  0
  9 10  2  0
 10 11  1  0
 10 12  1  0
 12 13  1  0
 13 14  1  0
 13 15  1  0
 13 16  1  0
 16 17  2  0
 16 18  1  0
 18 19  2  0
 19 20  1  0
 20 21  1  0
 21 22  1  0
 22 23  2  0
 23 24  1  0
 23 25  1  0
 25 26  1  0
 25 27  2  0
 27 28  1  0
 28 29  1  0
 29 30  1  0
 29 31  1  0
 29 32  1  0
 27 33  1  0
 33 34  1  0
 34 35  1  0
 35 36  1  0
 35 37  1  0
 35 38  1  0
 33 39  2  0
 39 40  1  0
 21 41  2  0
 41 42  1  0
 41 43  1  0
 12 44  1  0
 44 45  1  0
  9 46  1  0
 46 47  1  0
 46 48  1  0
 46  2  1  0
 44  8  2  0
 43 19  1  0
 39 22  1  0
M  CHG  3  11  -1  20  -1  45  -1
M  END
>  <UniqueID>  (14) 
14

>  <SMILES>  (14) 
COc1ccc(-c2cs/c(=N\C(=O)Cn3c([O-])c4c(c3[O-])CC=CC4)[n-]2)cc1OC

>  <Energy>  (14) 
121.19625445415188

>  <Genealogy>  (14) 
COc1ccc(-c2csc(=NC(=O)Cn3c([O-])c4c(c3[O-])CC=CC4)[n-]2)cc1OC (protonated)
COc1ccc(-c2cs/c(=N\C(=O)Cn3c([O-])c4c(c3[O-])CC=CC4)[n-]2)cc1OC (cis-trans isomerization)
COc1ccc(-c2cs/c(=N\C(=O)Cn3c([O-])c4c(c3[O-])CC=CC4)[n-]2)cc1OC (3D coordinates assigned)
COc1ccc(-c2cs/c(=N\C(=O)Cn3c([O-])c4c(c3[O-])CC=CC4)[n-]2)cc1OC (nonaromatic ring conformer: 121.19625445415188 kcal/mol)

>  <smiles>  (14) 
COc1ccc(-c2csc(=NC(=O)Cn3c(O)c4c(c3O)CC=CC4)[nH]2)cc1OC

>  <score_type>  (14) 
oracle

>  <origin>  (14) 
adg

>  <m_score__min__energy>  (14) 
-13.949999999999999

>  <m_primary>  (14) 
energy

$$$$
14:0
     RDKit          3D

 30 32  0  0  1  0  0  0  0  0999 V2000
   58.2780   34.6940   44.8580 O   0  0  0  0  0  0  0  0  0  0  0  0
   58.6290   33.8290   45.7020 C   0  0  0  0  0  0  0  0  0  0  0  0
   59.1990   34.1940   47.0380 C   0  0  0  0  0  0  0  0  0  0  0  0
   60.5330   33.5400   47.2000 C   0  0  0  0  0  0  0  0  0  0  0  0
   61.6570   34.1170   46.6010 C   0  0  0  0  0  0  0  0  0  0  0  0
   62.8940   33.5190   46.7460 C   0  0  0  0  0  0  0  0  0  0  0  0
   63.0350   32.3530   47.4780 C   0  0  0  0  0  0  0  0  0  0  0  0
   61.9180   31.7770   48.0750 C   0  0  0  0  0  0  0  0  0  0  0  0
   60.6580   32.3620   47.9440 C   0  0  0  0  0  0  0  0  0  0  0  0
   58.4860   32.4450   45.3990 N   0  0  0  0  0  0  0  0  0  0  0  0
   58.0220   32.0960   44.2470 C   0  0  0  0  0  0  0  0  0  0  0  0
   58.3700   32.7550   43.1150 N   0  0  0  0  0  0  0  0  0  0  0  0
   57.8600   32.3610   41.9130 C   0  0  0  0  0  0  0  0  0  0  0  0
   57.0100   31.3150   41.8610 N   0  0  0  0  0  0  0  0  0  0  0  0
   56.6560   30.6530   42.9800 C   0  0  0  0  0  0  0  0  0  0  0  0
   55.8490   29.6090   43.1850 N   0  0  0  0  0  0  0  0  0  0  0  0
   55.8440   29.3390   44.5150 C   0  0  0  0  0  0  0  0  0  0  0  0
   56.6430   30.2010   45.1670 N   0  0  0  0  0  0  0  0  0  0  0  0
   57.1520   31.0240   44.2120 C   0  0  0  0  0  0  0  0  0  0  0  0
   59.3147   35.2860   47.1025 H   0  0  0  0  0  0  0  0  0  0  0  0
   58.5213   33.8521   47.8341 H   0  0  0  0  0  0  0  0  0  0  0  0
   61.5568   35.0435   46.0166 H   0  0  0  0  0  0  0  0  0  0  0  0
   63.7769   33.9749   46.2742 H   0  0  0  0  0  0  0  0  0  0  0  0
   64.0242   31.8844   47.5872 H   0  0  0  0  0  0  0  0  0  0  0  0
   62.0295   30.8501   48.6567 H   0  0  0  0  0  0  0  0  0  0  0  0
   59.7773   31.9043   48.4181 H   0  0  0  0  0  0  0  0  0  0  0  0
   59.0160   33.5530   43.1470 H   0  0  0  0  0  0  0  0  0  0  0  0
   58.1401   32.8929   40.9918 H   0  0  0  0  0  0  0  0  0  0  0  0
   55.3100   29.0860   42.4480 H   0  0  0  0  0  0  0  0  0  0  0  0
   55.2689   28.5311   44.9909 H   0  0  0  0  0  0  0  0  0  0  0  0
  1  2  2  0
  2  3  1  0
  3  4  1  0
  4  5  2  0
  5  6  1  0
  6  7  2  0
  7  8  1  0
  8  9  2  0
  2 10  1  0
 10 11  2  0
 11 12  1  0
 12 13  1  0
 13 14  2  0
 14 15  1  0
 15 16  1  0
 16 17  1  0
 17 18  2  0
 18 19  1  0
  9  4  1  0
 19 11  1  0
 19 15  2  0
  3 20  1  0
  3 21  1  0
  5 22  1  0
  6 23  1  0
  7 24  1  0
  8 25  1  0
  9 26  1  0
 12 27  1  0
 13 28  1  0
 16 29  1  0
 17 30  1  0
M  END
>  <smiles>  (15) 
O=C(Cc1ccccc1)N=c1[nH]cnc2[nH]cnc12

>  <score_type>  (15) 
oracle

>  <origin>  (15) 
adg

>  <m_score__min__energy>  (15) 
-6.8700000000000001

>  <m_primary>  (15) 
energy

$$$$
15:0
     RDKit          3D

 42 44  0  0  1  0  0  0  0  0999 V2000
   58.3900   24.0560   46.3110 C   0  0  0  0  0  0  0  0  0  0  0  0
   58.5710   25.3790   45.9640 N   0  0  0  0  0  0  0  0  0  0  0  0
   58.7400   26.6720   45.6130 C   0  0  0  0  0  0  0  0  0  0  0  0
   59.8220   27.4560   45.3530 C   0  0  0  0  0  0  0  0  0  0  0  0
   59.7820   28.8060   45.0670 C   0  0  0  0  0  0  0  0  0  0  0  0
   58.5470   29.3950   45.0430 C   0  0  0  0  0  0  0  0  0  0  0  0
   58.4140   30.8080   44.7760 C   0  0  0  0  0  0  0  0  0  0  0  0
   58.4830   31.6690   45.8210 N   0  0  0  0  0  0  0  0  0  0  0  0
   58.3780   32.9720   45.5690 C   0  0  0  0  0  0  0  0  0  0  0  0
   58.4330   33.7850   46.5720 N   0  0  0  0  0  0  0  0  0  0  0  0
   59.4830   33.6960   47.5350 C   0  0  0  0  0  0  0  0  0  0  0  0
   59.2850   33.7380   48.8900 C   0  0  0  0  0  0  0  0  0  0  0  0
   60.3590   33.6510   49.7570 C   0  0  0  0  0  0  0  0  0  0  0  0
   61.6480   33.5210   49.2890 C   0  0  0  0  0  0  0  0  0  0  0  0
   61.8270   33.4820   47.9150 C   0  0  0  0  0  0  0  0  0  0  0  0
   63.4270   33.3250   47.1880 S   0  0  0  0  0  0  0  0  0  0  0  0
   63.7410   31.6900   46.7460 N   0  0  0  0  0  0  0  0  0  0  0  0
   63.4770   34.1450   45.9590 O   0  0  0  0  0  0  0  0  0  0  0  0
   64.4640   33.8240   48.1410 O   0  0  0  0  0  0  0  0  0  0  0  0
   60.7620   33.5680   47.0550 C   0  0  0  0  0  0  0  0  0  0  0  0
   58.2040   33.4790   44.3060 C   0  0  0  0  0  0  0  0  0  0  0  0
   58.1350   32.5940   43.2560 C   0  0  0  0  0  0  0  0  0  0  0  0
   58.2410   31.2770   43.5110 N   0  0  0  0  0  0  0  0  0  0  0  0
   57.4540   28.6890   45.2840 N   0  0  0  0  0  0  0  0  0  0  0  0
   57.4930   27.3960   45.5600 C   0  0  0  0  0  0  0  0  0  0  0  0
   56.2660   26.7050   45.8090 C   0  0  0  0  0  0  0  0  0  0  0  0
   55.2550   26.1400   46.0330 N   0  0  0  0  0  0  0  0  0  0  0  0
   58.3773   23.9628   47.4070 H   0  0  0  0  0  0  0  0  0  0  0  0
   57.4344   23.6969   45.9013 H   0  0  0  0  0  0  0  0  0  0  0  0
   59.2141   23.4534   45.9013 H   0  0  0  0  0  0  0  0  0  0  0  0
   57.7920   25.1600   44.8840 H   0  0  0  0  0  0  0  0  0  0  0  0
   60.8105   26.9737   45.3724 H   0  0  0  0  0  0  0  0  0  0  0  0
   60.6987   29.3805   44.8680 H   0  0  0  0  0  0  0  0  0  0  0  0
   58.2658   33.8415   49.2907 H   0  0  0  0  0  0  0  0  0  0  0  0
   60.1803   33.6863   50.8418 H   0  0  0  0  0  0  0  0  0  0  0  0
   62.5020   33.4509   49.9787 H   0  0  0  0  0  0  0  0  0  0  0  0
   63.3200   31.0550   47.4700 H   0  0  0  0  0  0  0  0  0  0  0  0
   64.7380   31.5300   46.5860 H   0  0  0  0  0  0  0  0  0  0  0  0
   60.9350   33.5340   45.9692 H   0  0  0  0  0  0  0  0  0  0  0  0
   58.1220   34.5630   44.1382 H   0  0  0  0  0  0  0  0  0  0  0  0
   57.9957   32.9559   42.2266 H   0  0  0  0  0  0  0  0  0  0  0  0
   58.1860   30.6520   42.6790 H   0  0  0  0  0  0  0  0  0  0  0  0
  1  2  1  0
  2  3  1  0
  3  4  2  0
  4  5  1  0
  5  6  2  0
  6  7  1  0
  7  8  2  0
  8  9  1  0
  9 10  2  0
 10 11  1  0
 11 12  2  0
 12 13  1  0
 13 14  2  0
 14 15  1  0
 15 16  1  0
 16 17  1  0
 16 18  2  0
 16 19  2  0
 15 20  2  0
  9 21  1  0
 21 22  2  0
 22 23  1  0
  6 24  1  0
 24 25  2  0
 25 26  1  0
 26 27  3  0
 25  3  1  0
 23  7  1  0
 20 11  1  0
  1 28  1  0
  1 29  1  0
  1 30  1  0
  2 31  1  0
  4 32  1  0
  5 33  1  0
 12 34  1  0
 13 35  1  0
 14 36  1  0
 17 37  1  0
 17 38  1  0
 20 39  1  0
 21 40  1  0
 22 41  1  0
 23 42  1  0
M  END
>  <smiles>  (16) 
CNc1ccc(-c2nc(=Nc3cccc(S(N)(=O)=O)c3)cc[nH]2)nc1C#N

>  <score_type>  (16) 
oracle

>  <origin>  (16) 
adg

>  <m_score__min__energy>  (16) 
-8.6600000000000001

>  <m_primary>  (16) 
energy

$$$$
16:0
     RDKit          3D

 44 45  0  0  0  0  0  0  0  0999 V2000
   56.9970   21.7690   43.1970 C   0  0  0  0  0  0  0  0  0  0  0  0
   56.1700   23.0470   43.3320 C   0  0  0  0  0  0  0  0  0  0  0  0
   55.6120   23.2330   44.7490 C   0  0  0  0  0  0  0  0  0  0  0  0
   55.7620   24.6430   45.2300 C   0  0  0  0  0  0  0  0  0  0  0  0
   54.7500   25.3670   45.7450 N   0  0  0  0  0  0  0  0  0  0  0  0
   55.2790   26.5170   46.0350 O   0  0  0  0  0  0  0  0  0  0  0  0
   56.5480   26.5100   45.7140 C   0  0  0  0  0  0  0  0  0  0  0  0
   57.4750   27.6660   45.9190 C   0  0  0  0  0  0  0  0  0  0  0  0
   57.4670   28.6150   44.7140 C   0  0  0  0  0  0  0  0  0  0  0  0
   56.3260   29.5990   44.7800 C   0  0  0  0  0  0  0  0  0  0  0  0
   55.1450   29.1670   44.7270 O   0  0  0  0  0  0  0  0  0  0  0  0
   56.5360   31.0130   44.8740 N   0  0  0  0  0  0  0  0  0  0  0  0
   57.4920   31.7800   44.0850 C   0  0  0  0  0  0  0  0  0  0  0  0
   57.4010   33.2700   44.4420 C   0  0  0  0  0  0  0  0  0  0  0  0
   58.7420   33.8830   44.8810 C   0  0  0  0  0  0  0  0  0  0  0  0
   59.0100   33.7030   46.3550 C   0  0  0  0  0  0  0  0  0  0  0  0
   58.6530   32.5020   46.9920 C   0  0  0  0  0  0  0  0  0  0  0  0
   58.8550   32.3440   48.3650 C   0  0  0  0  0  0  0  0  0  0  0  0
   59.4160   33.3800   49.1140 C   0  0  0  0  0  0  0  0  0  0  0  0
   59.7770   34.5780   48.4900 C   0  0  0  0  0  0  0  0  0  0  0  0
   59.5760   34.7430   47.1160 C   0  0  0  0  0  0  0  0  0  0  0  0
   59.9280   35.9150   46.5290 F   0  0  0  0  0  0  0  0  0  0  0  0
   56.9260   25.3260   45.1930 N   0  0  0  0  0  0  0  0  0  0  0  0
   57.2452   21.3855   44.1976 H   0  0  0  0  0  0  0  0  0  0  0  0
   56.4165   21.0129   42.6481 H   0  0  0  0  0  0  0  0  0  0  0  0
   57.9246   21.9888   42.6481 H   0  0  0  0  0  0  0  0  0  0  0  0
   56.8083   23.9088   43.0873 H   0  0  0  0  0  0  0  0  0  0  0  0
   55.3168   22.9700   42.6420 H   0  0  0  0  0  0  0  0  0  0  0  0
   54.5439   22.9700   44.7475 H   0  0  0  0  0  0  0  0  0  0  0  0
   56.1814   22.5802   45.4269 H   0  0  0  0  0  0  0  0  0  0  0  0
   57.1597   28.2224   46.8140 H   0  0  0  0  0  0  0  0  0  0  0  0
   58.4949   27.2725   46.0410 H   0  0  0  0  0  0  0  0  0  0  0  0
   58.4156   29.1715   44.6934 H   0  0  0  0  0  0  0  0  0  0  0  0
   57.3424   28.0094   43.8042 H   0  0  0  0  0  0  0  0  0  0  0  0
   58.5093   31.4178   44.2946 H   0  0  0  0  0  0  0  0  0  0  0  0
   57.2599   31.6523   43.0174 H   0  0  0  0  0  0  0  0  0  0  0  0
   57.0414   33.8176   43.5584 H   0  0  0  0  0  0  0  0  0  0  0  0
   56.7134   33.3548   45.2964 H   0  0  0  0  0  0  0  0  0  0  0  0
   59.5519   33.4001   44.3146 H   0  0  0  0  0  0  0  0  0  0  0  0
   58.6943   34.9637   44.6816 H   0  0  0  0  0  0  0  0  0  0  0  0
   58.2121   31.6821   46.4060 H   0  0  0  0  0  0  0  0  0  0  0  0
   58.5716   31.4018   48.8569 H   0  0  0  0  0  0  0  0  0  0  0  0
   59.5740   33.2538   50.1952 H   0  0  0  0  0  0  0  0  0  0  0  0
   60.2202   35.3928   49.0814 H   0  0  0  0  0  0  0  0  0  0  0  0
  1  2  1  0
  2  3  1  0
  3  4  1  0
  4  5  2  0
  5  6  1  0
  6  7  1  0
  7  8  1  0
  8  9  1  0
  9 10  1  0
 10 11  2  0
 10 12  1  0
 12 13  1  0
 13 14  1  0
 14 15  1  0
 15 16  1  0
 16 17  2  0
 17 18  1  0
 18 19  2  0
 19 20  1  0
 20 21  2  0
 21 22  1  0
  7 23  2  0
 23  4  1  0
 21 16  1  0
  1 24  1  0
  1 25  1  0
  1 26  1  0
  2 27  1  0
  2 28  1  0
  3 29  1  0
  3 30  1  0
  8 31  1  0
  8 32  1  0
  9 33  1  0
  9 34  1  0
 13 35  1  0
 13 36  1  0
 14 37  1  0
 14 38  1  0
 15 39  1  0
 15 40  1  0
 17 41  1  0
 18 42  1  0
 19 43  1  0
 20 44  1  0
M  CHG  1  12  -1
M  END
>  <UniqueID>  (17) 
15

>  <SMILES>  (17) 
CCCc1noc(CCC(=O)[N-]CCCc2ccccc2F)n1

>  <Energy>  (17) 
59.00225717570527

>  <Genealogy>  (17) 
CCCc1noc(CCC(=O)[N-]CCCc2ccccc2F)n1 (protonated)
CCCc1noc(CCC(=O)[N-]CCCc2ccccc2F)n1 (3D coordinates assigned)
CCCc1noc(CCC(=O)[N-]CCCc2ccccc2F)n1 (optimized conformer: 59.00225717570527 kcal/mol)

>  <smiles>  (17) 
CCCc1noc(CCC(=O)NCCCc2ccccc2F)n1

>  <score_type>  (17) 
oracle

>  <origin>  (17) 
adg

>  <m_score__min__energy>  (17) 
-10.51

>  <m_primary>  (17) 
energy

$$$$
17:0
     RDKit          3D

 46 48  0  0  0  0  0  0  0  0999 V2000
   63.7570   32.9620   47.1250 C   0  0  0  0  0  0  0  0  0  0  0  0
   63.1000   33.9590   47.8960 O   0  0  0  0  0  0  0  0  0  0  0  0
   62.4140   33.6430   49.0690 C   0  0  0  0  0  0  0  0  0  0  0  0
   61.1180   33.2870   49.0540 C   0  0  0  0  0  0  0  0  0  0  0  0
   60.0270   34.1990   49.4800 C   0  0  0  0  0  0  0  0  0  0  0  0
   59.4500   34.9540   48.6510 O   0  0  0  0  0  0  0  0  0  0  0  0
   59.6200   34.1950   50.8180 O   0  0  0  0  0  0  0  0  0  0  0  0
   58.9310   33.1020   51.4110 C   0  0  0  0  0  0  0  0  0  0  0  0
   60.7560   31.9380   48.5690 C   0  0  0  0  0  0  0  0  0  0  0  0
   60.9450   30.8420   49.4280 C   0  0  0  0  0  0  0  0  0  0  0  0
   60.5620   29.5590   49.0340 C   0  0  0  0  0  0  0  0  0  0  0  0
   59.9880   29.3540   47.7800 C   0  0  0  0  0  0  0  0  0  0  0  0
   59.7930   30.4320   46.9150 C   0  0  0  0  0  0  0  0  0  0  0  0
   60.1830   31.7320   47.2860 C   0  0  0  0  0  0  0  0  0  0  0  0
   59.9830   32.8630   46.2980 C   0  0  0  0  0  0  0  0  0  0  0  0
   58.2500   33.4450   46.2620 S   0  0  0  0  0  0  0  0  0  0  0  0
   57.6830   32.2000   45.1040 C   0  0  0  0  0  0  0  0  0  0  0  0
   57.6840   32.3410   43.7700 N   0  0  0  0  0  0  0  0  0  0  0  0
   57.1650   31.2380   43.2550 N   0  0  0  0  0  0  0  0  0  0  0  0
   56.8610   30.4590   44.3150 C   0  0  0  0  0  0  0  0  0  0  0  0
   56.2560   29.0980   44.2080 C   0  0  0  0  0  0  0  0  0  0  0  0
   57.0550   28.1330   44.9680 N   0  0  0  0  0  0  0  0  0  0  0  0
   56.5290   27.2030   45.8160 C   0  0  0  0  0  0  0  0  0  0  0  0
   55.1580   27.0500   45.9940 O   0  0  0  0  0  0  0  0  0  0  0  0
   57.4590   26.4140   46.4860 C   0  0  0  0  0  0  0  0  0  0  0  0
   58.9980   26.8990   45.9930 S   0  0  0  0  0  0  0  0  0  0  0  0
   58.4100   28.0910   44.9660 C   0  0  0  0  0  0  0  0  0  0  0  0
   59.1390   28.8640   44.2860 O   0  0  0  0  0  0  0  0  0  0  0  0
   57.1820   31.0390   45.4510 O   0  0  0  0  0  0  0  0  0  0  0  0
   64.2361   32.2350   47.7973 H   0  0  0  0  0  0  0  0  0  0  0  0
   63.0218   32.4455   46.4905 H   0  0  0  0  0  0  0  0  0  0  0  0
   64.5217   33.4339   46.4905 H   0  0  0  0  0  0  0  0  0  0  0  0
   62.9471   33.6863   50.0302 H   0  0  0  0  0  0  0  0  0  0  0  0
   58.9840   33.1861   52.5065 H   0  0  0  0  0  0  0  0  0  0  0  0
   57.8782   33.1161   51.0927 H   0  0  0  0  0  0  0  0  0  0  0  0
   59.3977   32.1582   51.0927 H   0  0  0  0  0  0  0  0  0  0  0  0
   61.3982   30.9964   50.4183 H   0  0  0  0  0  0  0  0  0  0  0  0
   60.7133   28.7078   49.7142 H   0  0  0  0  0  0  0  0  0  0  0  0
   59.6884   28.3414   47.4719 H   0  0  0  0  0  0  0  0  0  0  0  0
   59.3291   30.2633   45.9320 H   0  0  0  0  0  0  0  0  0  0  0  0
   60.6335   33.7028   46.5835 H   0  0  0  0  0  0  0  0  0  0  0  0
   60.2351   32.4863   45.2957 H   0  0  0  0  0  0  0  0  0  0  0  0
   58.0170   33.1630   43.2180 H   0  0  0  0  0  0  0  0  0  0  0  0
   55.2328   29.1215   44.6112 H   0  0  0  0  0  0  0  0  0  0  0  0
   56.2336   28.7950   43.1508 H   0  0  0  0  0  0  0  0  0  0  0  0
   57.2314   25.6162   47.2083 H   0  0  0  0  0  0  0  0  0  0  0  0
  1  2  1  0
  2  3  1  0
  3  4  2  3
  4  5  1  0
  5  6  2  0
  5  7  1  0
  7  8  1  0
  4  9  1  0
  9 10  2  0
 10 11  1  0
 11 12  2  0
 12 13  1  0
 13 14  2  0
 14 15  1  0
 15 16  1  0
 16 17  1  0
 17 18  2  0
 18 19  1  0
 19 20  2  0
 20 21  1  0
 21 22  1  0
 22 23  1  0
 23 24  1  0
 23 25  2  0
 25 26  1  0
 26 27  1  0
 27 28  2  0
 20 29  1  0
 14  9  1  0
 29 17  1  0
 27 22  1  0
  1 30  1  0
  1 31  1  0
  1 32  1  0
  3 33  1  0
  8 34  1  0
  8 35  1  0
  8 36  1  0
 10 37  1  0
 11 38  1  0
 12 39  1  0
 13 40  1  0
 15 41  1  0
 15 42  1  0
 18 43  1  0
 21 44  1  0
 21 45  1  0
 25 46  1  0
M  CHG  2  18   1  24  -1
M  END
>  <UniqueID>  (18) 
16

>  <SMILES>  (18) 
COC=C(C(=O)OC)c1ccccc1CSc1[nH+]nc(Cn2c([O-])csc2=O)o1

>  <Energy>  (18) 
106.58349953239518

>  <Genealogy>  (18) 
COC=C(C(=O)OC)c1ccccc1CSc1[nH+]nc(Cn2c([O-])csc2=O)o1 (protonated)
COC=C(C(=O)OC)c1ccccc1CSc1[nH+]nc(Cn2c([O-])csc2=O)o1 (3D coordinates assigned)
COC=C(C(=O)OC)c1ccccc1CSc1[nH+]nc(Cn2c([O-])csc2=O)o1 (optimized conformer: 106.58349953239518 kcal/mol)

>  <smiles>  (18) 
COC=C(C(=O)OC)c1ccccc1CSc1nnc(Cn2c(O)csc2=O)o1

>  <score_type>  (18) 
oracle

>  <origin>  (18) 
adg

>  <m_score__min__energy>  (18) 
-10.06

>  <m_primary>  (18) 
energy

$$$$
18:0
     RDKit          3D

 61 64  0  0  0  0  0  0  0  0999 V2000
   57.9590   21.4060   43.3940 C   0  0  0  0  0  0  0  0  0  0  0  0
   56.4760   22.3300   43.7390 S   0  0  0  0  0  0  0  0  0  0  0  0
   55.5890   21.5350   44.6570 O   0  0  0  0  0  0  0  0  0  0  0  0
   55.7360   22.5910   42.4550 O   0  0  0  0  0  0  0  0  0  0  0  0
   56.9090   23.8550   44.5060 C   0  0  0  0  0  0  0  0  0  0  0  0
   57.4170   24.9090   43.7360 C   0  0  0  0  0  0  0  0  0  0  0  0
   57.7350   26.1290   44.3380 C   0  0  0  0  0  0  0  0  0  0  0  0
   57.5310   26.3170   45.7140 C   0  0  0  0  0  0  0  0  0  0  0  0
   57.8970   27.6230   46.3650 C   0  0  0  0  0  0  0  0  0  0  0  0
   58.6510   28.4690   45.4380 N   0  0  0  0  0  0  0  0  0  0  0  0
   58.3430   29.8600   45.2730 C   0  0  0  0  0  0  0  0  0  0  0  0
   59.2300   31.1240   45.9500 S   0  0  0  0  0  0  0  0  0  0  0  0
   58.1730   32.3410   45.4830 C   0  0  0  0  0  0  0  0  0  0  0  0
   58.3850   34.0430   45.8520 S   0  0  0  0  0  0  0  0  0  0  0  0
   57.8060   34.3570   47.2040 O   0  0  0  0  0  0  0  0  0  0  0  0
   57.6680   34.8530   44.8090 O   0  0  0  0  0  0  0  0  0  0  0  0
   60.0690   34.4610   45.8350 N   0  0  0  0  0  0  0  0  0  0  0  0
   61.0370   33.9430   46.7640 C   0  0  0  0  0  0  0  0  0  0  0  0
   62.3130   33.5120   46.3500 C   0  0  0  0  0  0  0  0  0  0  0  0
   63.2360   33.0310   47.2840 C   0  0  0  0  0  0  0  0  0  0  0  0
   62.9020   32.9760   48.6450 C   0  0  0  0  0  0  0  0  0  0  0  0
   63.8730   32.4550   49.6280 C   0  0  0  0  0  0  0  0  0  0  0  0
   65.1180   33.0960   49.7430 C   0  0  0  0  0  0  0  0  0  0  0  0
   66.0900   32.6050   50.6160 C   0  0  0  0  0  0  0  0  0  0  0  0
   65.8330   31.4680   51.3810 C   0  0  0  0  0  0  0  0  0  0  0  0
   64.5940   30.8280   51.2900 C   0  0  0  0  0  0  0  0  0  0  0  0
   63.5970   31.3190   50.4300 C   0  0  0  0  0  0  0  0  0  0  0  0
   62.0180   30.5140   50.4100 S   0  0  0  0  0  0  0  0  0  0  0  0
   62.1270   28.9620   51.1700 N   0  0  0  0  0  0  0  0  0  0  0  0
   61.5630   30.3320   48.9890 O   0  0  0  0  0  0  0  0  0  0  0  0
   61.0080   31.3370   51.1620 O   0  0  0  0  0  0  0  0  0  0  0  0
   61.6250   33.3810   49.0580 C   0  0  0  0  0  0  0  0  0  0  0  0
   60.7030   33.8620   48.1260 C   0  0  0  0  0  0  0  0  0  0  0  0
   57.1020   31.7830   44.7970 C   0  0  0  0  0  0  0  0  0  0  0  0
   57.1970   30.3880   44.6650 C   0  0  0  0  0  0  0  0  0  0  0  0
   56.2250   29.6130   43.9440 N   0  0  0  0  0  0  0  0  0  0  0  0
   55.1530   29.2890   44.4970 O   0  0  0  0  0  0  0  0  0  0  0  0
   56.3740   29.3820   42.5980 O   0  0  0  0  0  0  0  0  0  0  0  0
   57.0350   25.2540   46.4870 C   0  0  0  0  0  0  0  0  0  0  0  0
   56.7180   24.0330   45.8840 C   0  0  0  0  0  0  0  0  0  0  0  0
   58.4348   21.1095   44.3404 H   0  0  0  0  0  0  0  0  0  0  0  0
   57.7041   20.5066   42.8143 H   0  0  0  0  0  0  0  0  0  0  0  0
   58.6540   22.0312   42.8143 H   0  0  0  0  0  0  0  0  0  0  0  0
   57.5660   24.7758   42.6543 H   0  0  0  0  0  0  0  0  0  0  0  0
   58.1478   26.9474   43.7299 H   0  0  0  0  0  0  0  0  0  0  0  0
   56.9777   28.1468   46.6658 H   0  0  0  0  0  0  0  0  0  0  0  0
   58.5235   27.4165   47.2452 H   0  0  0  0  0  0  0  0  0  0  0  0
   59.3940   28.0360   44.8450 H   0  0  0  0  0  0  0  0  0  0  0  0
   60.3970   35.0600   45.0430 H   0  0  0  0  0  0  0  0  0  0  0  0
   62.5850   33.5542   45.2850 H   0  0  0  0  0  0  0  0  0  0  0  0
   64.2284   32.6943   46.9497 H   0  0  0  0  0  0  0  0  0  0  0  0
   65.3283   33.9918   49.1403 H   0  0  0  0  0  0  0  0  0  0  0  0
   67.0605   33.1159   50.7007 H   0  0  0  0  0  0  0  0  0  0  0  0
   66.6064   31.0743   52.0569 H   0  0  0  0  0  0  0  0  0  0  0  0
   64.3974   29.9319   51.8970 H   0  0  0  0  0  0  0  0  0  0  0  0
   63.1070   28.8610   51.5150 H   0  0  0  0  0  0  0  0  0  0  0  0
   61.3481   33.3196   50.1208 H   0  0  0  0  0  0  0  0  0  0  0  0
   59.7052   34.1807   48.4618 H   0  0  0  0  0  0  0  0  0  0  0  0
   56.2644   32.3737   44.3976 H   0  0  0  0  0  0  0  0  0  0  0  0
   56.8955   25.3827   47.5705 H   0  0  0  0  0  0  0  0  0  0  0  0
   56.3173   23.2090   46.4926 H   0  0  0  0  0  0  0  0  0  0  0  0
  1  2  1  0
  2  3  2  0
  2  4  2  0
  2  5  1  0
  5  6  2  0
  6  7  1  0
  7  8  2  0
  8  9  1  0
  9 10  1  0
 10 11  1  0
 11 12  1  0
 12 13  1  0
 13 14  1  0
 14 15  2  0
 14 16  2  0
 14 17  1  0
 17 18  1  0
 18 19  2  0
 19 20  1  0
 20 21  2  0
 21 22  1  0
 22 23  2  0
 23 24  1  0
 24 25  2  0
 25 26  1  0
 26 27  2  0
 27 28  1  0
 28 29  1  0
 28 30  2  0
 28 31  2  0
 21 32  1  0
 32 33  2  0
 13 34  2  0
 34 35  1  0
 35 36  1  0
 36 37  2  0
 36 38  1  0
  8 39  1  0
 39 40  2  0
 40  5  1  0
 35 11  2  0
 33 18  1  0
 27 22  1  0
  1 41  1  0
  1 42  1  0
  1 43  1  0
  6 44  1  0
  7 45  1  0
  9 46  1  0
  9 47  1  0
 10 48  1  0
 17 49  1  0
 19 50  1  0
 20 51  1  0
 23 52  1  0
 24 53  1  0
 25 54  1  0
 26 55  1  0
 29 56  1  0
 32 57  1  0
 33 58  1  0
 34 59  1  0
 39 60  1  0
 40 61  1  0
M  CHG  3  29  -1  36   1  38  -1
M  END
>  <UniqueID>  (19) 
17

>  <SMILES>  (19) 
CS(=O)(=O)c1ccc(CNc2sc(S(=O)(=O)Nc3ccc(-c4ccccc4S([NH-])(=O)=O)cc3)cc2[N+](=O)[O-])cc1

>  <Energy>  (19) 
101.5573640049736

>  <Genealogy>  (19) 
CS(=O)(=O)c1ccc(CNc2sc(S(=O)(=O)Nc3ccc(-c4ccccc4S([NH-])(=O)=O)cc3)cc2[N+](=O)[O-])cc1 (protonated)
CS(=O)(=O)c1ccc(CNc2sc(S(=O)(=O)Nc3ccc(-c4ccccc4S([NH-])(=O)=O)cc3)cc2[N+](=O)[O-])cc1 (3D coordinates assigned)
CS(=O)(=O)c1ccc(CNc2sc(S(=O)(=O)Nc3ccc(-c4ccccc4S([NH-])(=O)=O)cc3)cc2[N+](=O)[O-])cc1 (optimized conformer: 101.5573640049736 kcal/mol)

>  <smiles>  (19) 
CS(=O)(=O)c1ccc(CNc2sc(S(=O)(=O)Nc3ccc(-c4ccccc4S(N)(=O)=O)cc3)cc2[N+](=O)[O-])cc1

>  <score_type>  (19) 
oracle

>  <origin>  (19) 
adg

>  <m_score__min__energy>  (19) 
-13.32

>  <m_primary>  (19) 
energy

$$$$
19:0
     RDKit          3D

 55 59  0  0  0  0  0  0  0  0999 V2000
   59.6060   34.3420   49.7420 N   0  0  0  0  0  0  0  0  0  0  0  0
   59.7520   34.1360   51.0070 C   0  0  0  0  0  0  0  0  0  0  0  0
   58.8860   34.5790   51.9520 N   0  0  0  0  0  0  0  0  0  0  0  0
   59.3220   34.2170   53.1470 N   0  0  0  0  0  0  0  0  0  0  0  0
   60.4730   33.5380   52.9880 C   0  0  0  0  0  0  0  0  0  0  0  0
   61.3700   32.9370   53.8750 C   0  0  0  0  0  0  0  0  0  0  0  0
   62.5150   32.2970   53.4020 C   0  0  0  0  0  0  0  0  0  0  0  0
   62.7990   32.2380   52.0410 C   0  0  0  0  0  0  0  0  0  0  0  0
   61.8970   32.8410   51.1560 C   0  0  0  0  0  0  0  0  0  0  0  0
   62.2230   32.7220   49.7430 C   0  0  0  0  0  0  0  0  0  0  0  0
   63.4760   33.2280   49.3720 C   0  0  0  0  0  0  0  0  0  0  0  0
   63.8260   33.1150   48.0450 C   0  0  0  0  0  0  0  0  0  0  0  0
   62.9620   32.5210   47.1190 C   0  0  0  0  0  0  0  0  0  0  0  0
   61.7330   32.0220   47.4690 C   0  0  0  0  0  0  0  0  0  0  0  0
   60.8110   31.4120   46.6000 N   0  0  0  0  0  0  0  0  0  0  0  0
   59.4170   31.5990   46.5680 C   0  0  0  0  0  0  0  0  0  0  0  0
   58.8770   32.3820   47.3730 O   0  0  0  0  0  0  0  0  0  0  0  0
   58.5380   30.9140   45.6220 C   0  0  0  0  0  0  0  0  0  0  0  0
   57.8730   31.5580   44.6010 C   0  0  0  0  0  0  0  0  0  0  0  0
   57.0390   30.8880   43.7110 C   0  0  0  0  0  0  0  0  0  0  0  0
   56.8510   29.5310   43.8260 C   0  0  0  0  0  0  0  0  0  0  0  0
   57.5050   28.8590   44.8400 C   0  0  0  0  0  0  0  0  0  0  0  0
   57.2860   27.4280   44.9350 C   0  0  0  0  0  0  0  0  0  0  0  0
   56.3600   26.9970   45.6730 O   0  0  0  0  0  0  0  0  0  0  0  0
   58.0560   26.4580   44.2430 N   0  0  0  0  0  0  0  0  0  0  0  0
   57.7560   25.0770   44.4080 C   0  0  0  0  0  0  0  0  0  0  0  0
   57.0270   24.4740   43.3800 C   0  0  0  0  0  0  0  0  0  0  0  0
   56.6830   23.1300   43.4450 C   0  0  0  0  0  0  0  0  0  0  0  0
   57.0840   22.3990   44.5610 C   0  0  0  0  0  0  0  0  0  0  0  0
   57.7990   23.0050   45.5600 C   0  0  0  0  0  0  0  0  0  0  0  0
   58.1540   24.3530   45.5170 C   0  0  0  0  0  0  0  0  0  0  0  0
   58.3240   29.5390   45.7100 C   0  0  0  0  0  0  0  0  0  0  0  0
   61.3990   32.1470   48.8230 C   0  0  0  0  0  0  0  0  0  0  0  0
   60.7760   33.4670   51.6410 C   0  0  0  0  0  0  0  0  0  0  0  0
   59.3400   33.5260   49.1490 H   0  0  0  0  0  0  0  0  0  0  0  0
   57.9990   35.1260   51.7880 H   0  0  0  0  0  0  0  0  0  0  0  0
   58.8540   34.4230   54.0720 H   0  0  0  0  0  0  0  0  0  0  0  0
   61.1710   32.9691   54.9564 H   0  0  0  0  0  0  0  0  0  0  0  0
   63.2069   31.8299   54.1183 H   0  0  0  0  0  0  0  0  0  0  0  0
   63.7040   31.7333   51.6719 H   0  0  0  0  0  0  0  0  0  0  0  0
   64.1489   33.6940   50.1069 H   0  0  0  0  0  0  0  0  0  0  0  0
   64.8005   33.4979   47.7078 H   0  0  0  0  0  0  0  0  0  0  0  0
   63.2807   32.4513   46.0685 H   0  0  0  0  0  0  0  0  0  0  0  0
   61.1990   30.7320   45.8860 H   0  0  0  0  0  0  0  0  0  0  0  0
   58.0067   32.6437   44.4851 H   0  0  0  0  0  0  0  0  0  0  0  0
   56.5283   31.4462   42.9125 H   0  0  0  0  0  0  0  0  0  0  0  0
   56.1947   28.9927   43.1264 H   0  0  0  0  0  0  0  0  0  0  0  0
   58.8310   26.7650   43.6220 H   0  0  0  0  0  0  0  0  0  0  0  0
   56.7216   25.0712   42.5082 H   0  0  0  0  0  0  0  0  0  0  0  0
   56.1086   22.6549   42.6360 H   0  0  0  0  0  0  0  0  0  0  0  0
   56.8259   21.3327   44.6402 H   0  0  0  0  0  0  0  0  0  0  0  0
   58.1050   22.4052   46.4298 H   0  0  0  0  0  0  0  0  0  0  0  0
   58.7267   24.8209   46.3313 H   0  0  0  0  0  0  0  0  0  0  0  0
   58.8308   28.9758   46.5075 H   0  0  0  0  0  0  0  0  0  0  0  0
   60.4250   31.7626   49.1599 H   0  0  0  0  0  0  0  0  0  0  0  0
  1  2  2  3
  2  3  1  0
  3  4  1  0
  4  5  1  0
  5  6  2  0
  6  7  1  0
  7  8  2  0
  8  9  1  0
  9 10  1  0
 10 11  2  0
 11 12  1  0
 12 13  2  0
 13 14  1  0
 14 15  1  0
 15 16  1  0
 16 17  2  0
 16 18  1  0
 18 19  2  0
 19 20  1  0
 20 21  2  0
 21 22  1  0
 22 23  1  0
 23 24  2  0
 23 25  1  0
 25 26  1  0
 26 27  2  0
 27 28  1  0
 28 29  2  0
 29 30  1  0
 30 31  2  0
 22 32  2  0
 14 33  2  0
  9 34  2  0
 34  2  1  0
 34  5  1  0
 33 10  1  0
 32 18  1  0
 31 26  1  0
  1 35  1  0
  3 36  1  0
  4 37  1  0
  6 38  1  0
  7 39  1  0
  8 40  1  0
 11 41  1  0
 12 42  1  0
 13 43  1  0
 15 44  1  0
 19 45  1  0
 20 46  1  0
 21 47  1  0
 25 48  1  0
 27 49  1  0
 28 50  1  0
 29 51  1  0
 30 52  1  0
 31 53  1  0
 32 54  1  0
 33 55  1  0
M  END
>  <smiles>  (20) 
N=c1[nH][nH]c2cccc(-c3cccc(NC(=O)c4cccc(C(=O)Nc5ccccc5)c4)c3)c12

>  <score_type>  (20) 
oracle

>  <origin>  (20) 
adg

>  <m_score__min__energy>  (20) 
-9.0899999999999999

>  <m_primary>  (20) 
energy

$$$$
20:0
     RDKit          3D

 39 41  0  0  0  0  0  0  0  0999 V2000
   60.3540   29.1570   49.0840 O   0  0  0  0  0  0  0  0  0  0  0  0
   60.1090   29.9780   48.1600 C   0  0  0  0  0  0  0  0  0  0  0  0
   60.3630   31.3720   48.3960 N   0  0  0  0  0  0  0  0  0  0  0  0
   61.4440   32.0210   48.0690 C   0  0  0  0  0  0  0  0  0  0  0  0
   61.4200   32.9640   47.0820 N   0  0  0  0  0  0  0  0  0  0  0  0
   62.5270   33.6690   46.7290 C   0  0  0  0  0  0  0  0  0  0  0  0
   63.7360   33.4450   47.3870 C   0  0  0  0  0  0  0  0  0  0  0  0
   63.7920   32.4970   48.4080 C   0  0  0  0  0  0  0  0  0  0  0  0
   62.6460   31.7770   48.7620 C   0  0  0  0  0  0  0  0  0  0  0  0
   62.7260   30.8360   49.7890 O   0  0  0  0  0  0  0  0  0  0  0  0
   59.6290   29.4720   46.8520 C   0  0  0  0  0  0  0  0  0  0  0  0
   60.3250   28.4550   46.1760 C   0  0  0  0  0  0  0  0  0  0  0  0
   59.8570   27.9720   44.9510 C   0  0  0  0  0  0  0  0  0  0  0  0
   58.6880   28.4930   44.3920 C   0  0  0  0  0  0  0  0  0  0  0  0
   57.9790   29.5010   45.0560 C   0  0  0  0  0  0  0  0  0  0  0  0
   56.4970   30.1420   44.3580 S   0  0  0  0  0  0  0  0  0  0  0  0
   55.3260   29.3300   44.8370 O   0  0  0  0  0  0  0  0  0  0  0  0
   56.5980   30.0740   42.8600 O   0  0  0  0  0  0  0  0  0  0  0  0
   56.2970   31.7880   44.8670 N   0  0  0  0  0  0  0  0  0  0  0  0
   57.3280   32.7520   45.1310 C   0  0  0  0  0  0  0  0  0  0  0  0
   58.2000   33.0750   44.0820 C   0  0  0  0  0  0  0  0  0  0  0  0
   59.2270   34.0050   44.2690 C   0  0  0  0  0  0  0  0  0  0  0  0
   59.3930   34.6220   45.5080 C   0  0  0  0  0  0  0  0  0  0  0  0
   58.5350   34.3100   46.5640 C   0  0  0  0  0  0  0  0  0  0  0  0
   57.5040   33.3800   46.3860 C   0  0  0  0  0  0  0  0  0  0  0  0
   56.7000   33.1100   47.4430 F   0  0  0  0  0  0  0  0  0  0  0  0
   58.4430   29.9800   46.2900 C   0  0  0  0  0  0  0  0  0  0  0  0
   62.4693   34.4165   45.9241 H   0  0  0  0  0  0  0  0  0  0  0  0
   64.6361   34.0103   47.1035 H   0  0  0  0  0  0  0  0  0  0  0  0
   64.7395   32.3149   48.9363 H   0  0  0  0  0  0  0  0  0  0  0  0
   61.9470   30.2380   50.0370 H   0  0  0  0  0  0  0  0  0  0  0  0
   61.2434   28.0368   46.6138 H   0  0  0  0  0  0  0  0  0  0  0  0
   60.4106   27.1797   44.4259 H   0  0  0  0  0  0  0  0  0  0  0  0
   58.3234   28.1102   43.4273 H   0  0  0  0  0  0  0  0  0  0  0  0
   58.0749   32.5918   43.1018 H   0  0  0  0  0  0  0  0  0  0  0  0
   59.9046   34.2501   43.4378 H   0  0  0  0  0  0  0  0  0  0  0  0
   60.2003   35.3549   45.6536 H   0  0  0  0  0  0  0  0  0  0  0  0
   58.6697   34.7974   47.5409 H   0  0  0  0  0  0  0  0  0  0  0  0
   57.8760   30.7580   46.8221 H   0  0  0  0  0  0  0  0  0  0  0  0
  1  2  2  0
  2  3  1  0
  3  4  2  3
  4  5  1  0
  5  6  1  0
  6  7  2  0
  7  8  1  0
  8  9  2  0
  9 10  1  0
  2 11  1  0
 11 12  2  0
 12 13  1  0
 13 14  2  0
 14 15  1  0
 15 16  1  0
 16 17  2  0
 16 18  2  0
 16 19  1  0
 19 20  1  0
 20 21  2  0
 21 22  1  0
 22 23  2  0
 23 24  1  0
 24 25  2  0
 25 26  1  0
 15 27  2  0
  9  4  1  0
 27 11  1  0
 25 20  1  0
  6 28  1  0
  7 29  1  0
  8 30  1  0
 10 31  1  0
 12 32  1  0
 13 33  1  0
 14 34  1  0
 21 35  1  0
 22 36  1  0
 23 37  1  0
 24 38  1  0
 27 39  1  0
M  CHG  2   5  -1  19  -1
M  END
>  <UniqueID>  (21) 
18

>  <SMILES>  (21) 
O=C(N=c1[n-]cccc1O)c1cccc(S(=O)(=O)[N-]c2ccccc2F)c1

>  <Energy>  (21) 
57.68839729848845

>  <Genealogy>  (21) 
O=C(N=c1[n-]cccc1O)c1cccc(S(=O)(=O)[N-]c2ccccc2F)c1 (protonated)
O=C(N=c1[n-]cccc1O)c1cccc(S(=O)(=O)[N-]c2ccccc2F)c1 (3D coordinates assigned)
O=C(N=c1[n-]cccc1O)c1cccc(S(=O)(=O)[N-]c2ccccc2F)c1 (optimized conformer: 57.68839729848845 kcal/mol)

>  <smiles>  (21) 
O=C(N=c1[nH]cccc1O)c1cccc(S(=O)(=O)Nc2ccccc2F)c1

>  <score_type>  (21) 
oracle

>  <origin>  (21) 
adg

>  <m_score__min__energy>  (21) 
-12.539999999999999

>  <m_primary>  (21) 
energy

$$$$
21:0
     RDKit          3D

 29 31  0  0  0  0  0  0  0  0999 V2000
   59.6866   28.0223   46.0182 H   0  0  0  0  0  0  0  0  0  0  0  0
   58.8030   27.3770   46.1320 C   0  0  0  0  0  0  0  0  0  0  0  0
   58.8960   26.1900   46.8830 C   0  0  0  0  0  0  0  0  0  0  0  0
   59.8440   25.8877   47.3519 H   0  0  0  0  0  0  0  0  0  0  0  0
   57.7510   25.4120   47.0130 C   0  0  0  0  0  0  0  0  0  0  0  0
   56.5710   25.7710   46.4460 C   0  0  0  0  0  0  0  0  0  0  0  0
   56.4360   26.9360   45.6970 C   0  0  0  0  0  0  0  0  0  0  0  0
   55.4681   27.2159   45.2557 H   0  0  0  0  0  0  0  0  0  0  0  0
   57.5750   27.7470   45.5200 C   0  0  0  0  0  0  0  0  0  0  0  0
   57.4500   28.9500   44.7470 N   0  0  0  0  0  0  0  0  0  0  0  0
   56.3100   29.8190   44.7150 C   0  0  0  0  0  0  0  0  0  0  0  0
   55.1630   29.3240   44.8680 O   0  0  0  0  0  0  0  0  0  0  0  0
   56.4370   31.2360   44.5350 N   0  0  0  0  0  0  0  0  0  0  0  0
   57.3740   31.9880   45.0350 C   0  0  0  0  0  0  0  0  0  0  0  0
   57.3970   33.6780   45.0530 S   0  0  0  0  0  0  0  0  0  0  0  0
   58.8560   33.7390   45.8910 C   0  0  0  0  0  0  0  0  0  0  0  0
   59.6070   34.9850   46.2230 C   0  0  0  0  0  0  0  0  0  0  0  0
   59.6724   35.0935   47.3157 H   0  0  0  0  0  0  0  0  0  0  0  0
   60.6203   34.9263   45.7990 H   0  0  0  0  0  0  0  0  0  0  0  0
   59.0819   35.8536   45.7990 H   0  0  0  0  0  0  0  0  0  0  0  0
   59.2930   32.4400   46.1240 C   0  0  0  0  0  0  0  0  0  0  0  0
   60.2371   32.2123   46.6406 H   0  0  0  0  0  0  0  0  0  0  0  0
   58.4560   31.4750   45.6600 N   0  0  0  0  0  0  0  0  0  0  0  0
   58.6400   30.4530   45.7650 H   0  0  0  0  0  0  0  0  0  0  0  0
   55.6110   24.8220   46.7420 O   0  0  0  0  0  0  0  0  0  0  0  0
   56.2280   23.8030   47.5420 C   0  0  0  0  0  0  0  0  0  0  0  0
   55.7361   23.7321   48.5233 H   0  0  0  0  0  0  0  0  0  0  0  0
   56.1493   22.8098   47.0758 H   0  0  0  0  0  0  0  0  0  0  0  0
   57.5930   24.2190   47.6920 O   0  0  0  0  0  0  0  0  0  0  0  0
  1  2  1  0
  2  3  2  0
  3  4  1  0
  3  5  1  0
  5  6  2  0
  6  7  1  0
  7  8  1  0
  7  9  2  0
  9 10  1  0
 10 11  1  0
 11 12  2  0
 11 13  1  0
 13 14  2  0
 14 15  1  0
 15 16  1  0
 16 17  1  0
 17 18  1  0
 17 19  1  0
 17 20  1  0
 16 21  2  0
 21 22  1  0
 21 23  1  0
 23 24  1  0
  6 25  1  0
 25 26  1  0
 26 27  1  0
 26 28  1  0
 26 29  1  0
  9  2  1  0
 23 14  1  0
 29  5  1  0
M  CHG  1  10  -1
M  END
>  <UniqueID>  (22) 
19

>  <SMILES>  (22) 
Cc1c[nH]/c(=N/C(=O)[N-]c2ccc3c(c2)OCO3)s1

>  <Energy>  (22) 
96.41149211208106

>  <Genealogy>  (22) 
Cc1c[nH]c(=NC(=O)[N-]c2ccc3c(c2)OCO3)s1 (protonated)
Cc1c[nH]/c(=N/C(=O)[N-]c2ccc3c(c2)OCO3)s1 (cis-trans isomerization)
Cc1c[nH]/c(=N/C(=O)[N-]c2ccc3c(c2)OCO3)s1 (3D coordinates assigned)
Cc1c[nH]/c(=N/C(=O)[N-]c2ccc3c(c2)OCO3)s1 (nonaromatic ring conformer: 96.41149211208106 kcal/mol)

>  <smiles>  (22) 
Cc1c[nH]c(=NC(=O)Nc2ccc3c(c2)OCO3)s1

>  <score_type>  (22) 
oracle

>  <origin>  (22) 
adg

>  <m_score__min__energy>  (22) 
-8.3200000000000003

>  <m_primary>  (22) 
energy

$$$$
22:0
     RDKit          3D

 61 65  0  0  0  0  0  0  0  0999 V2000
   58.1440   31.7290   48.7390 O   0  0  0  0  0  0  0  0  0  0  0  0
   58.9170   31.7520   47.7460 C   0  0  0  0  0  0  0  0  0  0  0  0
   59.7790   30.6290   47.5160 N   0  0  0  0  0  0  0  0  0  0  0  0
   59.4700   29.4770   46.7140 C   0  0  0  0  0  0  0  0  0  0  0  0
   59.4320   29.6270   45.3230 C   0  0  0  0  0  0  0  0  0  0  0  0
   59.1230   28.5410   44.5020 C   0  0  0  0  0  0  0  0  0  0  0  0
   58.8660   27.2920   45.0650 C   0  0  0  0  0  0  0  0  0  0  0  0
   58.9410   27.1190   46.4490 C   0  0  0  0  0  0  0  0  0  0  0  0
   59.2670   28.2040   47.2880 C   0  0  0  0  0  0  0  0  0  0  0  0
   59.4210   28.0500   48.6760 O   0  0  0  0  0  0  0  0  0  0  0  0
   60.6580   27.8490   49.3600 C   0  0  0  0  0  0  0  0  0  0  0  0
   60.9980   29.0510   50.1990 C   0  0  0  0  0  0  0  0  0  0  0  0
   62.1420   29.0390   50.9960 C   0  0  0  0  0  0  0  0  0  0  0  0
   62.4450   30.1580   51.7680 C   0  0  0  0  0  0  0  0  0  0  0  0
   63.4840   30.1360   52.4860 O   0  0  0  0  0  0  0  0  0  0  0  0
   61.6260   31.2590   51.7420 N   0  0  0  0  0  0  0  0  0  0  0  0
   61.9180   32.3650   52.5010 C   0  0  0  0  0  0  0  0  0  0  0  0
   61.0870   33.4860   52.4820 C   0  0  0  0  0  0  0  0  0  0  0  0
   59.9490   33.4850   51.6830 C   0  0  0  0  0  0  0  0  0  0  0  0
   59.6510   32.3680   50.9090 C   0  0  0  0  0  0  0  0  0  0  0  0
   60.5000   31.2500   50.9420 C   0  0  0  0  0  0  0  0  0  0  0  0
   60.2050   30.1570   50.1820 N   0  0  0  0  0  0  0  0  0  0  0  0
   58.8950   32.9260   46.8430 C   0  0  0  0  0  0  0  0  0  0  0  0
   57.9760   32.9120   45.7800 C   0  0  0  0  0  0  0  0  0  0  0  0
   57.9810   33.9240   44.8210 C   0  0  0  0  0  0  0  0  0  0  0  0
   58.8980   34.9680   44.9150 C   0  0  0  0  0  0  0  0  0  0  0  0
   59.7860   35.0250   45.9890 C   0  0  0  0  0  0  0  0  0  0  0  0
   59.7720   34.0360   46.9920 C   0  0  0  0  0  0  0  0  0  0  0  0
   60.6510   34.2340   48.2180 C   0  0  0  0  0  0  0  0  0  0  0  0
   62.1030   34.1110   47.9460 N   0  0  0  0  0  0  0  0  0  0  0  0
   62.4700   33.1570   46.8820 C   0  0  0  0  0  0  0  0  0  0  0  0
   62.7220   31.7300   47.4210 C   0  0  0  0  0  0  0  0  0  0  0  0
   62.7000   31.6590   48.8330 O   0  0  0  0  0  0  0  0  0  0  0  0
   63.5540   32.6430   49.3710 C   0  0  0  0  0  0  0  0  0  0  0  0
   62.9780   34.0500   49.1360 C   0  0  0  0  0  0  0  0  0  0  0  0
   59.6471   30.6076   44.8734 H   0  0  0  0  0  0  0  0  0  0  0  0
   59.0823   28.6710   43.4105 H   0  0  0  0  0  0  0  0  0  0  0  0
   58.6038   26.4415   44.4185 H   0  0  0  0  0  0  0  0  0  0  0  0
   58.7444   26.1294   46.8873 H   0  0  0  0  0  0  0  0  0  0  0  0
   60.5726   26.9660   50.0104 H   0  0  0  0  0  0  0  0  0  0  0  0
   61.4547   27.6971   48.6169 H   0  0  0  0  0  0  0  0  0  0  0  0
   62.7977   28.1560   51.0149 H   0  0  0  0  0  0  0  0  0  0  0  0
   62.8187   32.3677   53.1324 H   0  0  0  0  0  0  0  0  0  0  0  0
   61.3309   34.3656   53.0958 H   0  0  0  0  0  0  0  0  0  0  0  0
   59.2873   34.3635   51.6630 H   0  0  0  0  0  0  0  0  0  0  0  0
   58.7533   32.3607   50.2733 H   0  0  0  0  0  0  0  0  0  0  0  0
   59.3540   30.1650   49.5740 H   0  0  0  0  0  0  0  0  0  0  0  0
   57.2448   32.0938   45.7037 H   0  0  0  0  0  0  0  0  0  0  0  0
   57.2606   33.8979   43.9901 H   0  0  0  0  0  0  0  0  0  0  0  0
   58.9220   35.7490   44.1408 H   0  0  0  0  0  0  0  0  0  0  0  0
   60.5069   35.8533   46.0537 H   0  0  0  0  0  0  0  0  0  0  0  0
   60.4589   35.2387   48.6225 H   0  0  0  0  0  0  0  0  0  0  0  0
   60.3916   33.4345   48.9276 H   0  0  0  0  0  0  0  0  0  0  0  0
   61.6517   33.1165   46.1480 H   0  0  0  0  0  0  0  0  0  0  0  0
   63.4071   33.5107   46.4274 H   0  0  0  0  0  0  0  0  0  0  0  0
   61.9421   31.0632   47.0247 H   0  0  0  0  0  0  0  0  0  0  0  0
   63.7275   31.4280   47.0928 H   0  0  0  0  0  0  0  0  0  0  0  0
   63.6639   32.4737   50.4523 H   0  0  0  0  0  0  0  0  0  0  0  0
   64.5321   32.5734   48.8726 H   0  0  0  0  0  0  0  0  0  0  0  0
   62.3928   34.3439   50.0198 H   0  0  0  0  0  0  0  0  0  0  0  0
   63.8230   34.7333   48.9655 H   0  0  0  0  0  0  0  0  0  0  0  0
  1  2  2  0
  2  3  1  0
  3  4  1  0
  4  5  2  0
  5  6  1  0
  6  7  2  0
  7  8  1  0
  8  9  2  0
  9 10  1  0
 10 11  1  0
 11 12  1  0
 12 13  2  0
 13 14  1  0
 14 15  2  0
 14 16  1  0
 16 17  1  0
 17 18  2  0
 18 19  1  0
 19 20  2  0
 20 21  1  0
 21 22  2  0
  2 23  1  0
 23 24  2  0
 24 25  1  0
 25 26  2  0
 26 27  1  0
 27 28  2  0
 28 29  1  0
 29 30  1  0
 30 31  1  0
 31 32  1  0
 32 33  1  0
 33 34  1  0
 34 35  1  0
  9  4  1  0
 22 12  1  0
 28 23  1  0
 35 30  1  0
 21 16  1  0
  5 36  1  0
  6 37  1  0
  7 38  1  0
  8 39  1  0
 11 40  1  0
 11 41  1  0
 13 42  1  0
 17 43  1  0
 18 44  1  0
 19 45  1  0
 20 46  1  0
 22 47  1  0
 24 48  1  0
 25 49  1  0
 26 50  1  0
 27 51  1  0
 29 52  1  0
 29 53  1  0
 31 54  1  0
 31 55  1  0
 32 56  1  0
 32 57  1  0
 34 58  1  0
 34 59  1  0
 35 60  1  0
 35 61  1  0
M  CHG  2   3  -1  22   1
M  END
>  <UniqueID>  (23) 
20

>  <SMILES>  (23) 
O=C([N-]c1ccccc1OCc1cc(=O)n2ccccc2[nH+]1)c1ccccc1CN1CCOCC1

>  <Energy>  (23) 
98.80985865636566

>  <Genealogy>  (23) 
O=C([N-]c1ccccc1OCc1cc(=O)n2ccccc2[nH+]1)c1ccccc1CN1CCOCC1 (protonated)
O=C([N-]c1ccccc1OCc1cc(=O)n2ccccc2[nH+]1)c1ccccc1CN1CCOCC1 (3D coordinates assigned)
O=C([N-]c1ccccc1OCc1cc(=O)n2ccccc2[nH+]1)c1ccccc1CN1CCOCC1 (nonaromatic ring conformer: 98.80985865636566 kcal/mol)

>  <smiles>  (23) 
O=C(Nc1ccccc1OCc1cc(=O)n2ccccc2n1)c1ccccc1CN1CCOCC1

>  <score_type>  (23) 
oracle

>  <origin>  (23) 
adg

>  <m_score__min__energy>  (23) 
-8.4100000000000001

>  <m_primary>  (23) 
energy

$$$$
23:0
     RDKit          3D

 39 42  0  0  0  0  0  0  0  0999 V2000
   56.2522   21.6808   45.3384 H   0  0  0  0  0  0  0  0  0  0  0  0
   56.2140   22.7770   45.4210 C   0  0  0  0  0  0  0  0  0  0  0  0
   55.1870   23.3960   46.1410 C   0  0  0  0  0  0  0  0  0  0  0  0
   54.1400   22.5740   46.8240 C   0  0  0  0  0  0  0  0  0  0  0  0
   54.2558   22.6649   47.9141 H   0  0  0  0  0  0  0  0  0  0  0  0
   53.1426   22.9328   46.5300 H   0  0  0  0  0  0  0  0  0  0  0  0
   54.2518   21.5199   46.5300 H   0  0  0  0  0  0  0  0  0  0  0  0
   55.1480   24.7540   46.2300 N   0  0  0  0  0  0  0  0  0  0  0  0
   56.0740   25.5530   45.6310 C   0  0  0  0  0  0  0  0  0  0  0  0
   55.9660   26.8430   45.7770 N   0  0  0  0  0  0  0  0  0  0  0  0
   57.0300   27.7910   45.9350 C   0  0  0  0  0  0  0  0  0  0  0  0
   58.0730   27.4420   46.5500 O   0  0  0  0  0  0  0  0  0  0  0  0
   56.8590   29.2330   45.5250 C   0  0  2  0  0  0  0  0  0  0  0  0
   55.9186   29.6218   45.9427 H   0  0  0  0  0  0  0  0  0  0  0  0
   56.7660   29.3420   44.0530 N   0  0  0  0  0  0  0  0  0  0  0  0
   56.3680   28.5500   43.4990 H   0  0  0  0  0  0  0  0  0  0  0  0
   56.9650   30.6040   43.4020 C   0  0  0  0  0  0  0  0  0  0  0  0
   56.6370   30.7700   42.1970 O   0  0  0  0  0  0  0  0  0  0  0  0
   57.5820   31.6760   44.1750 C   0  0  0  0  0  0  0  0  0  0  0  0
   58.0320   31.4460   45.4560 C   0  0  0  0  0  0  0  0  0  0  0  0
   58.6230   32.6240   45.8550 C   0  0  0  0  0  0  0  0  0  0  0  0
   59.2950   32.9680   47.0270 C   0  0  0  0  0  0  0  0  0  0  0  0
   59.4154   32.2454   47.8476 H   0  0  0  0  0  0  0  0  0  0  0  0
   59.8140   34.2730   47.1230 C   0  0  0  0  0  0  0  0  0  0  0  0
   60.3444   34.5835   48.0353 H   0  0  0  0  0  0  0  0  0  0  0  0
   59.6590   35.1870   46.0570 C   0  0  0  0  0  0  0  0  0  0  0  0
   60.0667   36.2047   46.1473 H   0  0  0  0  0  0  0  0  0  0  0  0
   58.9870   34.8060   44.8800 C   0  0  0  0  0  0  0  0  0  0  0  0
   58.8673   35.5086   44.0422 H   0  0  0  0  0  0  0  0  0  0  0  0
   58.4780   33.5100   44.8100 C   0  0  0  0  0  0  0  0  0  0  0  0
   57.8390   32.9390   43.7680 N   0  0  0  0  0  0  0  0  0  0  0  0
   57.6180   33.3690   42.8420 H   0  0  0  0  0  0  0  0  0  0  0  0
   58.0200   30.0900   46.0980 C   0  0  0  0  0  0  0  0  0  0  0  0
   57.8855   30.2037   47.1838 H   0  0  0  0  0  0  0  0  0  0  0  0
   58.9747   29.5858   45.8874 H   0  0  0  0  0  0  0  0  0  0  0  0
   57.1300   24.9540   44.9130 C   0  0  0  0  0  0  0  0  0  0  0  0
   57.9014   25.5783   44.4385 H   0  0  0  0  0  0  0  0  0  0  0  0
   57.1890   23.5640   44.8090 C   0  0  0  0  0  0  0  0  0  0  0  0
   58.0046   23.0889   44.2442 H   0  0  0  0  0  0  0  0  0  0  0  0
  1  2  1  0
  2  3  2  0
  3  4  1  0
  4  5  1  0
  4  6  1  0
  4  7  1  0
  3  8  1  0
  8  9  1  0
  9 10  2  0
 10 11  1  0
 11 12  2  0
 11 13  1  0
 13 14  1  1
 13 15  1  0
 15 16  1  0
 15 17  1  0
 17 18  2  0
 17 19  1  0
 19 20  2  0
 20 21  1  0
 21 22  2  0
 22 23  1  0
 22 24  1  0
 24 25  1  0
 24 26  2  0
 26 27  1  0
 26 28  1  0
 28 29  1  0
 28 30  2  0
 30 31  1  0
 31 32  1  0
 20 33  1  0
 33 34  1  0
 33 35  1  0
  9 36  1  0
 36 37  1  0
 36 38  2  0
 38 39  1  0
 38  2  1  0
 33 13  1  0
 31 19  1  0
 30 21  1  0
M  CHG  1   8  -1
M  END
>  <UniqueID>  (24) 
21

>  <SMILES>  (24) 
Cc1ccc/c(=N\C(=O)[C@H]2Cc3c([nH]c4ccccc34)C(=O)N2)[n-]1

>  <Energy>  (24) 
87.66591164448178

>  <Genealogy>  (24) 
Cc1cccc(=NC(=O)C2Cc3c([nH]c4ccccc34)C(=O)N2)[n-]1 (protonated)
Cc1cccc(=NC(=O)[C@H]2Cc3c([nH]c4ccccc34)C(=O)N2)[n-]1 (chirality)
Cc1ccc/c(=N\C(=O)[C@H]2Cc3c([nH]c4ccccc34)C(=O)N2)[n-]1 (cis-trans isomerization)
Cc1ccc/c(=N\C(=O)[C@H]2Cc3c([nH]c4ccccc34)C(=O)N2)[n-]1 (3D coordinates assigned)
Cc1ccc/c(=N\C(=O)[C@H]2Cc3c([nH]c4ccccc34)C(=O)N2)[n-]1 (nonaromatic ring conformer: 87.66591164448178 kcal/mol)

>  <smiles>  (24) 
Cc1cccc(=NC(=O)C2Cc3c([nH]c4ccccc34)C(=O)N2)[nH]1

>  <score_type>  (24) 
oracle

>  <origin>  (24) 
adg

>  <m_score__min__energy>  (24) 
-10.43

>  <m_primary>  (24) 
energy

$$$$
24:0
     RDKit          3D

 42 43  0  0  0  0  0  0  0  0999 V2000
   63.3280   31.5050   47.1210 C   0  0  0  0  0  0  0  0  0  0  0  0
   63.8000   32.8690   47.4130 N   0  0  0  0  0  0  0  0  0  0  0  0
   63.5790   33.2410   48.8330 C   0  0  0  0  0  0  0  0  0  0  0  0
   62.3730   34.1750   49.0670 C   0  0  0  0  0  0  0  0  0  0  0  0
   61.3490   33.9900   48.0330 N   0  0  0  0  0  0  0  0  0  0  0  0
   59.9590   34.1000   48.3790 C   0  0  0  0  0  0  0  0  0  0  0  0
   59.2340   34.9470   47.7940 O   0  0  0  0  0  0  0  0  0  0  0  0
   59.3800   33.2740   49.3960 N   0  0  0  0  0  0  0  0  0  0  0  0
   58.4830   32.1570   49.1250 C   0  0  0  0  0  0  0  0  0  0  0  0
   59.0260   30.9120   49.7650 C   0  0  0  0  0  0  0  0  0  0  0  0
   59.3610   30.9430   50.9790 O   0  0  0  0  0  0  0  0  0  0  0  0
   59.2540   29.7140   49.0120 N   0  0  0  0  0  0  0  0  0  0  0  0
   59.3260   29.6280   47.5830 C   0  0  0  0  0  0  0  0  0  0  0  0
   60.5470   29.3960   46.9270 C   0  0  0  0  0  0  0  0  0  0  0  0
   60.5890   29.3070   45.5340 C   0  0  0  0  0  0  0  0  0  0  0  0
   59.4190   29.4630   44.7860 C   0  0  0  0  0  0  0  0  0  0  0  0
   58.2030   29.7280   45.4290 C   0  0  0  0  0  0  0  0  0  0  0  0
   56.7210   29.8880   44.4940 S   0  0  0  0  0  0  0  0  0  0  0  0
   55.5260   28.8100   45.1200 N   0  0  0  0  0  0  0  0  0  0  0  0
   56.9880   29.5560   43.0520 O   0  0  0  0  0  0  0  0  0  0  0  0
   56.2170   31.3020   44.5770 O   0  0  0  0  0  0  0  0  0  0  0  0
   58.1630   29.8190   46.8280 C   0  0  0  0  0  0  0  0  0  0  0  0
   61.7380   34.0320   46.6220 C   0  0  0  0  0  0  0  0  0  0  0  0
   63.2570   33.8610   46.4630 C   0  0  0  0  0  0  0  0  0  0  0  0
   63.1432   30.9710   48.0648 H   0  0  0  0  0  0  0  0  0  0  0  0
   62.3953   31.5562   46.5400 H   0  0  0  0  0  0  0  0  0  0  0  0
   64.0929   30.9688   46.5400 H   0  0  0  0  0  0  0  0  0  0  0  0
   63.4163   32.3182   49.4091 H   0  0  0  0  0  0  0  0  0  0  0  0
   64.4727   33.7956   49.1550 H   0  0  0  0  0  0  0  0  0  0  0  0
   61.9334   33.9535   50.0507 H   0  0  0  0  0  0  0  0  0  0  0  0
   62.7259   35.2160   49.0248 H   0  0  0  0  0  0  0  0  0  0  0  0
   57.4877   32.3775   49.5382 H   0  0  0  0  0  0  0  0  0  0  0  0
   58.4037   32.0059   48.0383 H   0  0  0  0  0  0  0  0  0  0  0  0
   61.4717   29.2843   47.5121 H   0  0  0  0  0  0  0  0  0  0  0  0
   61.5447   29.1138   45.0247 H   0  0  0  0  0  0  0  0  0  0  0  0
   59.4529   29.3775   43.6899 H   0  0  0  0  0  0  0  0  0  0  0  0
   54.6290   29.3430   45.1680 H   0  0  0  0  0  0  0  0  0  0  0  0
   57.2124   30.0417   47.3347 H   0  0  0  0  0  0  0  0  0  0  0  0
   61.2266   33.2204   46.0838 H   0  0  0  0  0  0  0  0  0  0  0  0
   61.4508   35.0101   46.2087 H   0  0  0  0  0  0  0  0  0  0  0  0
   63.4722   33.5266   45.4374 H   0  0  0  0  0  0  0  0  0  0  0  0
   63.7337   34.8302   46.6712 H   0  0  0  0  0  0  0  0  0  0  0  0
  1  2  1  0
  2  3  1  0
  3  4  1  0
  4  5  1  0
  5  6  1  0
  6  7  2  0
  6  8  1  0
  8  9  1  0
  9 10  1  0
 10 11  2  0
 10 12  1  0
 12 13  1  0
 13 14  2  0
 14 15  1  0
 15 16  2  0
 16 17  1  0
 17 18  1  0
 18 19  1  0
 18 20  2  0
 18 21  2  0
 17 22  2  0
  5 23  1  0
 23 24  1  0
 24  2  1  0
 22 13  1  0
  1 25  1  0
  1 26  1  0
  1 27  1  0
  3 28  1  0
  3 29  1  0
  4 30  1  0
  4 31  1  0
  9 32  1  0
  9 33  1  0
 14 34  1  0
 15 35  1  0
 16 36  1  0
 19 37  1  0
 22 38  1  0
 23 39  1  0
 23 40  1  0
 24 41  1  0
 24 42  1  0
M  CHG  3   8  -1  12  -1  19  -1
M  END
>  <UniqueID>  (25) 
22

>  <SMILES>  (25) 
CN1CCN(C(=O)[N-]CC(=O)[N-]c2cccc(S([NH-])(=O)=O)c2)CC1

>  <Energy>  (25) 
52.39086207535557

>  <Genealogy>  (25) 
CN1CCN(C(=O)[N-]CC(=O)[N-]c2cccc(S([NH-])(=O)=O)c2)CC1 (protonated)
CN1CCN(C(=O)[N-]CC(=O)[N-]c2cccc(S([NH-])(=O)=O)c2)CC1 (3D coordinates assigned)
CN1CCN(C(=O)[N-]CC(=O)[N-]c2cccc(S([NH-])(=O)=O)c2)CC1 (nonaromatic ring conformer: 52.39086207535557 kcal/mol)

>  <smiles>  (25) 
CN1CCN(C(=O)NCC(=O)Nc2cccc(S(N)(=O)=O)c2)CC1

>  <score_type>  (25) 
oracle

>  <origin>  (25) 
adg

>  <m_score__min__energy>  (25) 
-13.390000000000001

>  <m_primary>  (25) 
energy

$$$$
25:0
     RDKit          3D

 64 67  0  0  0  0  0  0  0  0999 V2000
   54.9200   26.3430   46.0170 N   0  0  0  0  0  0  0  0  0  0  0  0
   56.6290   26.4250   45.7670 S   0  0  0  0  0  0  0  0  0  0  0  0
   57.0400   25.4070   44.7420 O   0  0  0  0  0  0  0  0  0  0  0  0
   57.3300   26.1280   47.0620 O   0  0  0  0  0  0  0  0  0  0  0  0
   57.0460   28.0380   45.1960 C   0  0  0  0  0  0  0  0  0  0  0  0
   58.3850   28.3470   44.9240 C   0  0  0  0  0  0  0  0  0  0  0  0
   58.7330   29.6140   44.4480 C   0  0  0  0  0  0  0  0  0  0  0  0
   57.7420   30.5870   44.2310 C   0  0  0  0  0  0  0  0  0  0  0  0
   58.1250   31.9590   43.7400 C   0  0  0  0  0  0  0  0  0  0  0  0
   58.1260   32.9610   44.8970 C   0  0  0  0  0  0  0  0  0  0  0  0
   59.4920   33.2180   45.3620 N   0  0  0  0  0  0  0  0  0  0  0  0
   59.8960   32.2460   46.7500 S   0  0  0  0  0  0  0  0  0  0  0  0
   60.2270   30.8590   46.2770 O   0  0  0  0  0  0  0  0  0  0  0  0
   58.7020   32.1660   47.6570 O   0  0  0  0  0  0  0  0  0  0  0  0
   61.3250   32.9060   47.5720 C   0  0  0  0  0  0  0  0  0  0  0  0
   62.5810   32.4390   47.1520 C   0  0  0  0  0  0  0  0  0  0  0  0
   63.7510   32.8840   47.7700 C   0  0  0  0  0  0  0  0  0  0  0  0
   63.6810   33.7930   48.8250 C   0  0  0  0  0  0  0  0  0  0  0  0
   62.4410   34.2640   49.2610 C   0  0  0  0  0  0  0  0  0  0  0  0
   61.2560   33.8290   48.6460 C   0  0  0  0  0  0  0  0  0  0  0  0
   59.9820   34.3660   49.1500 C   0  0  0  0  0  0  0  0  0  0  0  0
   59.2280   34.9960   48.3630 O   0  0  0  0  0  0  0  0  0  0  0  0
   59.5970   34.2190   50.5220 N   0  0  0  0  0  0  0  0  0  0  0  0
   58.8710   33.0680   51.0580 C   0  0  2  0  0  0  0  0  0  0  0  0
   58.3130   33.3450   52.4340 C   0  0  0  0  0  0  0  0  0  0  0  0
   58.2580   31.9730   53.0730 C   0  0  0  0  0  0  0  0  0  0  0  0
   59.3560   31.1780   52.4970 N   0  0  0  0  0  0  0  0  0  0  0  0
   58.9330   29.7860   52.2410 C   0  0  0  0  0  0  0  0  0  0  0  0
   59.3290   29.3670   50.8480 C   0  0  0  0  0  0  0  0  0  0  0  0
   60.4970   28.6160   50.6310 C   0  0  0  0  0  0  0  0  0  0  0  0
   60.8570   28.2390   49.3330 C   0  0  0  0  0  0  0  0  0  0  0  0
   60.0570   28.6070   48.2470 C   0  0  0  0  0  0  0  0  0  0  0  0
   58.8860   29.3400   48.4570 C   0  0  0  0  0  0  0  0  0  0  0  0
   58.5180   29.7120   49.7550 C   0  0  0  0  0  0  0  0  0  0  0  0
   59.7990   31.8790   51.2740 C   0  0  0  0  0  0  0  0  0  0  0  0
   56.4020   30.2800   44.5140 C   0  0  0  0  0  0  0  0  0  0  0  0
   56.0550   29.0100   44.9910 C   0  0  0  0  0  0  0  0  0  0  0  0
   54.6710   27.0910   46.7040 H   0  0  0  0  0  0  0  0  0  0  0  0
   59.1658   27.5892   45.0858 H   0  0  0  0  0  0  0  0  0  0  0  0
   59.7873   29.8510   44.2422 H   0  0  0  0  0  0  0  0  0  0  0  0
   59.1307   31.9171   43.2964 H   0  0  0  0  0  0  0  0  0  0  0  0
   57.3921   32.2851   42.9873 H   0  0  0  0  0  0  0  0  0  0  0  0
   57.6773   33.9058   44.5562 H   0  0  0  0  0  0  0  0  0  0  0  0
   57.5438   32.5389   45.7294 H   0  0  0  0  0  0  0  0  0  0  0  0
   62.6436   31.7144   46.3268 H   0  0  0  0  0  0  0  0  0  0  0  0
   64.7288   32.5173   47.4244 H   0  0  0  0  0  0  0  0  0  0  0  0
   64.6034   34.1393   49.3142 H   0  0  0  0  0  0  0  0  0  0  0  0
   62.3920   34.9817   50.0931 H   0  0  0  0  0  0  0  0  0  0  0  0
   58.0804   32.8639   50.3209 H   0  0  0  0  0  0  0  0  0  0  0  0
   58.9757   34.0164   52.9997 H   0  0  0  0  0  0  0  0  0  0  0  0
   57.3341   33.8461   52.4076 H   0  0  0  0  0  0  0  0  0  0  0  0
   58.3867   32.0594   54.1620 H   0  0  0  0  0  0  0  0  0  0  0  0
   57.2871   31.4926   52.8818 H   0  0  0  0  0  0  0  0  0  0  0  0
   59.4156   29.1199   52.9713 H   0  0  0  0  0  0  0  0  0  0  0  0
   57.8391   29.7208   52.3371 H   0  0  0  0  0  0  0  0  0  0  0  0
   61.1288   28.3244   51.4829 H   0  0  0  0  0  0  0  0  0  0  0  0
   61.7719   27.6515   49.1662 H   0  0  0  0  0  0  0  0  0  0  0  0
   60.3496   28.3193   47.2264 H   0  0  0  0  0  0  0  0  0  0  0  0
   58.2540   29.6244   47.6028 H   0  0  0  0  0  0  0  0  0  0  0  0
   57.5889   30.2774   49.9197 H   0  0  0  0  0  0  0  0  0  0  0  0
   60.8342   32.2297   51.3977 H   0  0  0  0  0  0  0  0  0  0  0  0
   59.7640   31.2014   50.4082 H   0  0  0  0  0  0  0  0  0  0  0  0
   55.6215   31.0398   44.3605 H   0  0  0  0  0  0  0  0  0  0  0  0
   55.0024   28.7736   45.2056 H   0  0  0  0  0  0  0  0  0  0  0  0
  1  2  1  0
  2  3  2  0
  2  4  2  0
  2  5  1  0
  5  6  2  0
  6  7  1  0
  7  8  2  0
  8  9  1  0
  9 10  1  0
 10 11  1  0
 11 12  1  0
 12 13  2  0
 12 14  2  0
 12 15  1  0
 15 16  2  0
 16 17  1  0
 17 18  2  0
 18 19  1  0
 19 20  2  0
 20 21  1  0
 21 22  2  0
 21 23  1  0
 23 24  1  0
 24 25  1  0
 25 26  1  0
 26 27  1  0
 27 28  1  0
 28 29  1  0
 29 30  2  0
 30 31  1  0
 31 32  2  0
 32 33  1  0
 33 34  2  0
 27 35  1  0
  8 36  1  0
 36 37  2  0
 37  5  1  0
 20 15  1  0
 35 24  1  0
 34 29  1  0
  1 38  1  0
  6 39  1  0
  7 40  1  0
  9 41  1  0
  9 42  1  0
 10 43  1  0
 10 44  1  0
 16 45  1  0
 17 46  1  0
 18 47  1  0
 19 48  1  0
 24 49  1  6
 25 50  1  0
 25 51  1  0
 26 52  1  0
 26 53  1  0
 28 54  1  0
 28 55  1  0
 30 56  1  0
 31 57  1  0
 32 58  1  0
 33 59  1  0
 34 60  1  0
 35 61  1  0
 35 62  1  0
 36 63  1  0
 37 64  1  0
M  CHG  3   1  -1  11  -1  23  -1
M  END
>  <UniqueID>  (26) 
23

>  <SMILES>  (26) 
[NH-]S(=O)(=O)c1ccc(CC[N-]S(=O)(=O)c2ccccc2C(=O)[N-][C@@H]2CCN(Cc3ccccc3)C2)cc1

>  <Energy>  (26) 
74.55435721249302

>  <Genealogy>  (26) 
[NH-]S(=O)(=O)c1ccc(CC[N-]S(=O)(=O)c2ccccc2C(=O)[N-]C2CCN(Cc3ccccc3)C2)cc1 (protonated)
[NH-]S(=O)(=O)c1ccc(CC[N-]S(=O)(=O)c2ccccc2C(=O)[N-][C@@H]2CCN(Cc3ccccc3)C2)cc1 (chirality)
[NH-]S(=O)(=O)c1ccc(CC[N-]S(=O)(=O)c2ccccc2C(=O)[N-][C@@H]2CCN(Cc3ccccc3)C2)cc1 (3D coordinates assigned)
[NH-]S(=O)(=O)c1ccc(CC[N-]S(=O)(=O)c2ccccc2C(=O)[N-][C@@H]2CCN(Cc3ccccc3)C2)cc1 (nonaromatic ring conformer: 74.55435721249302 kcal/mol)

>  <smiles>  (26) 
NS(=O)(=O)c1ccc(CCNS(=O)(=O)c2ccccc2C(=O)NC2CCN(Cc3ccccc3)C2)cc1

>  <score_type>  (26) 
oracle

>  <origin>  (26) 
adg

>  <m_score__min__energy>  (26) 
-14.51

>  <m_primary>  (26) 
energy

$$$$
26:0
     RDKit          3D

 63 67  0  0  0  0  0  0  0  0999 V2000
   59.9780   28.3340   44.3700 O   0  0  0  0  0  0  0  0  0  0  0  0
   59.2960   27.8170   45.2950 C   0  0  0  0  0  0  0  0  0  0  0  0
   58.1010   27.0950   44.9660 N   0  0  0  0  0  0  0  0  0  0  0  0
   56.8150   27.3420   45.6080 C   0  0  0  0  0  0  0  0  0  0  0  0
   56.2980   28.7270   45.2320 C   0  0  0  0  0  0  0  0  0  0  0  0
   57.2830   29.7410   45.6080 N   0  0  0  0  0  0  0  0  0  0  0  0
   57.5560   30.8910   44.7910 C   0  0  0  0  0  0  0  0  0  0  0  0
   57.4510   30.7890   43.3930 C   0  0  0  0  0  0  0  0  0  0  0  0
   57.7700   31.8750   42.5770 C   0  0  0  0  0  0  0  0  0  0  0  0
   58.1920   33.0790   43.1370 C   0  0  0  0  0  0  0  0  0  0  0  0
   58.2920   33.2120   44.5290 C   0  0  0  0  0  0  0  0  0  0  0  0
   58.6960   34.4330   45.0930 C   0  0  0  0  0  0  0  0  0  0  0  0
   58.7780   34.5750   46.4790 C   0  0  0  0  0  0  0  0  0  0  0  0
   58.4550   33.5060   47.3130 C   0  0  0  0  0  0  0  0  0  0  0  0
   58.0500   32.2840   46.7700 C   0  0  0  0  0  0  0  0  0  0  0  0
   57.9740   32.1130   45.3710 C   0  0  0  0  0  0  0  0  0  0  0  0
   59.7350   27.9750   46.6960 C   0  0  0  0  0  0  0  0  0  0  0  0
   59.8030   26.8670   47.5660 C   0  0  0  0  0  0  0  0  0  0  0  0
   59.4220   25.5900   47.1570 O   0  0  0  0  0  0  0  0  0  0  0  0
   60.2680   27.0280   48.8310 N   0  0  0  0  0  0  0  0  0  0  0  0
   60.6800   28.2300   49.3070 C   0  0  0  0  0  0  0  0  0  0  0  0
   61.1870   28.3280   50.6070 C   0  0  0  0  0  0  0  0  0  0  0  0
   61.6500   29.5540   51.0880 C   0  0  0  0  0  0  0  0  0  0  0  0
   61.6040   30.6960   50.2790 C   0  0  0  0  0  0  0  0  0  0  0  0
   62.2350   32.2370   50.8730 S   0  0  0  0  0  0  0  0  0  0  0  0
   61.0890   33.1100   51.3070 O   0  0  0  0  0  0  0  0  0  0  0  0
   63.1000   31.9820   52.0770 O   0  0  0  0  0  0  0  0  0  0  0  0
   63.1730   33.0740   49.6500 N   0  0  0  0  0  0  0  0  0  0  0  0
   62.4830   34.2750   49.1220 C   0  0  0  0  0  0  0  0  0  0  0  0
   61.6140   34.0070   47.8740 C   0  0  0  0  0  0  0  0  0  0  0  0
   62.2700   33.0680   46.8440 C   0  0  0  0  0  0  0  0  0  0  0  0
   63.7050   32.7060   47.2190 C   0  0  0  0  0  0  0  0  0  0  0  0
   63.7330   32.1410   48.6410 C   0  0  0  0  0  0  0  0  0  0  0  0
   61.0590   30.6110   48.9890 C   0  0  0  0  0  0  0  0  0  0  0  0
   60.6130   29.3750   48.4860 C   0  0  0  0  0  0  0  0  0  0  0  0
   60.1210   29.2400   47.1740 C   0  0  0  0  0  0  0  0  0  0  0  0
   60.0250   30.2510   46.4250 O   0  0  0  0  0  0  0  0  0  0  0  0
   56.0917   26.5818   45.2778 H   0  0  0  0  0  0  0  0  0  0  0  0
   56.9418   27.2894   46.6994 H   0  0  0  0  0  0  0  0  0  0  0  0
   56.1251   28.7703   44.1465 H   0  0  0  0  0  0  0  0  0  0  0  0
   55.3553   28.9204   45.7648 H   0  0  0  0  0  0  0  0  0  0  0  0
   57.8650   29.5840   46.4630 H   0  0  0  0  0  0  0  0  0  0  0  0
   57.1146   29.8454   42.9386 H   0  0  0  0  0  0  0  0  0  0  0  0
   57.6878   31.7799   41.4842 H   0  0  0  0  0  0  0  0  0  0  0  0
   58.4474   33.9275   42.4852 H   0  0  0  0  0  0  0  0  0  0  0  0
   58.9489   35.2810   44.4396 H   0  0  0  0  0  0  0  0  0  0  0  0
   59.0984   35.5331   46.9143 H   0  0  0  0  0  0  0  0  0  0  0  0
   58.5193   33.6250   48.4046 H   0  0  0  0  0  0  0  0  0  0  0  0
   57.7886   31.4495   47.4373 H   0  0  0  0  0  0  0  0  0  0  0  0
   58.8790   25.4140   46.3230 H   0  0  0  0  0  0  0  0  0  0  0  0
   61.2209   27.4373   51.2516 H   0  0  0  0  0  0  0  0  0  0  0  0
   62.0535   29.6234   52.1090 H   0  0  0  0  0  0  0  0  0  0  0  0
   61.8344   34.6768   49.9144 H   0  0  0  0  0  0  0  0  0  0  0  0
   63.2680   34.9819   48.8153 H   0  0  0  0  0  0  0  0  0  0  0  0
   60.6675   33.5529   48.2025 H   0  0  0  0  0  0  0  0  0  0  0  0
   61.4677   34.9757   47.3739 H   0  0  0  0  0  0  0  0  0  0  0  0
   61.6773   32.1435   46.7807 H   0  0  0  0  0  0  0  0  0  0  0  0
   62.2979   33.5952   45.8789 H   0  0  0  0  0  0  0  0  0  0  0  0
   64.0883   31.9510   46.5168 H   0  0  0  0  0  0  0  0  0  0  0  0
   64.3354   33.6061   47.1693 H   0  0  0  0  0  0  0  0  0  0  0  0
   63.1453   31.2113   48.6598 H   0  0  0  0  0  0  0  0  0  0  0  0
   64.7869   31.9679   48.9041 H   0  0  0  0  0  0  0  0  0  0  0  0
   60.9800   31.5153   48.3677 H   0  0  0  0  0  0  0  0  0  0  0  0
  1  2  2  0
  2  3  1  0
  3  4  1  0
  4  5  1  0
  5  6  1  0
  6  7  1  0
  7  8  2  0
  8  9  1  0
  9 10  2  0
 10 11  1  0
 11 12  2  0
 12 13  1  0
 13 14  2  0
 14 15  1  0
 15 16  2  0
  2 17  1  0
 17 18  2  0
 18 19  1  0
 18 20  1  0
 20 21  1  0
 21 22  2  0
 22 23  1  0
 23 24  2  0
 24 25  1  0
 25 26  2  0
 25 27  2  0
 25 28  1  0
 28 29  1  0
 29 30  1  0
 30 31  1  0
 31 32  1  0
 32 33  1  0
 24 34  1  0
 34 35  2  0
 35 36  1  0
 36 37  2  0
 16  7  1  0
 36 17  1  0
 16 11  1  0
 35 21  1  0
 33 28  1  0
  4 38  1  0
  4 39  1  0
  5 40  1  0
  5 41  1  0
  6 42  1  0
  8 43  1  0
  9 44  1  0
 10 45  1  0
 12 46  1  0
 13 47  1  0
 14 48  1  0
 15 49  1  0
 19 50  1  0
 22 51  1  0
 23 52  1  0
 29 53  1  0
 29 54  1  0
 30 55  1  0
 30 56  1  0
 31 57  1  0
 31 58  1  0
 32 59  1  0
 32 60  1  0
 33 61  1  0
 33 62  1  0
 34 63  1  0
M  CHG  2   3  -1  20  -1
M  END
>  <UniqueID>  (27) 
24

>  <SMILES>  (27) 
O=C([N-]CCNc1cccc2ccccc12)c1c(O)[n-]c2ccc(S(=O)(=O)N3CCCCC3)cc2c1=O

>  <Energy>  (27) 
90.3992798458482

>  <Genealogy>  (27) 
O=C([N-]CCNc1cccc2ccccc12)c1c(O)[n-]c2ccc(S(=O)(=O)N3CCCCC3)cc2c1=O (protonated)
O=C([N-]CCNc1cccc2ccccc12)c1c(O)[n-]c2ccc(S(=O)(=O)N3CCCCC3)cc2c1=O (3D coordinates assigned)
O=C([N-]CCNc1cccc2ccccc12)c1c(O)[n-]c2ccc(S(=O)(=O)N3CCCCC3)cc2c1=O (nonaromatic ring conformer: 90.3992798458482 kcal/mol)

>  <smiles>  (27) 
O=C(NCCNc1cccc2ccccc12)c1c(O)[nH]c2ccc(S(=O)(=O)N3CCCCC3)cc2c1=O

>  <score_type>  (27) 
oracle

>  <origin>  (27) 
adg

>  <m_score__min__energy>  (27) 
-12.56

>  <m_primary>  (27) 
energy

$$$$
27:0
     RDKit          3D

 34 36  0  0  0  0  0  0  0  0999 V2000
   58.4533   24.5570   47.3048 H   0  0  0  0  0  0  0  0  0  0  0  0
   58.1180   24.4670   46.2610 C   0  0  0  0  0  0  0  0  0  0  0  0
   57.8920   23.2010   45.7100 C   0  0  0  0  0  0  0  0  0  0  0  0
   58.0540   22.3004   46.3204 H   0  0  0  0  0  0  0  0  0  0  0  0
   57.4600   23.0770   44.3830 C   0  0  0  0  0  0  0  0  0  0  0  0
   57.1940   21.4840   43.6820 S   0  0  0  0  0  0  0  0  0  0  0  0
   58.3150   21.1500   42.7380 O   0  0  0  0  0  0  0  0  0  0  0  0
   55.9010   21.4730   42.9150 O   0  0  0  0  0  0  0  0  0  0  0  0
   57.1270   20.3000   44.9390 N   0  0  0  0  0  0  0  0  0  0  0  0
   58.1130   20.0790   45.2030 H   0  0  0  0  0  0  0  0  0  0  0  0
   56.7260   19.4310   44.5190 H   0  0  0  0  0  0  0  0  0  0  0  0
   57.2690   24.2280   43.6070 C   0  0  0  0  0  0  0  0  0  0  0  0
   56.9415   24.1353   42.5610 H   0  0  0  0  0  0  0  0  0  0  0  0
   57.4930   25.4940   44.1570 C   0  0  0  0  0  0  0  0  0  0  0  0
   57.3350   26.3939   43.5444 H   0  0  0  0  0  0  0  0  0  0  0  0
   57.9200   25.6200   45.4920 C   0  0  0  0  0  0  0  0  0  0  0  0
   58.1630   26.9000   46.0860 N   0  0  0  0  0  0  0  0  0  0  0  0
   57.2300   27.7430   46.2830 N   0  0  0  0  0  0  0  0  0  0  0  0
   57.3270   29.1260   45.9010 C   0  0  0  0  0  0  0  0  0  0  0  0
   56.2630   29.6930   45.1850 C   0  0  0  0  0  0  0  0  0  0  0  0
   55.1500   28.9260   44.8630 O   0  0  0  0  0  0  0  0  0  0  0  0
   56.3080   30.9930   44.7990 N   0  0  0  0  0  0  0  0  0  0  0  0
   57.3660   31.7950   45.0850 C   0  0  0  0  0  0  0  0  0  0  0  0
   57.3620   33.1300   44.6650 C   0  0  0  0  0  0  0  0  0  0  0  0
   56.5028   33.5267   44.1042 H   0  0  0  0  0  0  0  0  0  0  0  0
   58.4480   33.9600   44.9570 C   0  0  0  0  0  0  0  0  0  0  0  0
   58.4417   35.0089   44.6258 H   0  0  0  0  0  0  0  0  0  0  0  0
   59.5420   33.4600   45.6690 C   0  0  0  0  0  0  0  0  0  0  0  0
   60.3940   34.1172   45.8974 H   0  0  0  0  0  0  0  0  0  0  0  0
   59.5570   32.1270   46.0920 C   0  0  0  0  0  0  0  0  0  0  0  0
   60.4214   31.7385   46.6505 H   0  0  0  0  0  0  0  0  0  0  0  0
   58.4690   31.2810   45.8050 C   0  0  0  0  0  0  0  0  0  0  0  0
   58.4450   29.9320   46.2150 C   0  0  0  0  0  0  0  0  0  0  0  0
   59.4190   29.4530   46.8570 O   0  0  0  0  0  0  0  0  0  0  0  0
  1  2  1  0
  2  3  2  0
  3  4  1  0
  3  5  1  0
  5  6  1  0
  6  7  2  0
  6  8  2  0
  6  9  1  0
  9 10  1  0
  9 11  1  0
  5 12  2  0
 12 13  1  0
 12 14  1  0
 14 15  1  0
 14 16  2  0
 16 17  1  0
 17 18  2  0
 18 19  1  0
 19 20  2  0
 20 21  1  0
 20 22  1  0
 22 23  1  0
 23 24  2  0
 24 25  1  0
 24 26  1  0
 26 27  1  0
 26 28  2  0
 28 29  1  0
 28 30  1  0
 30 31  1  0
 30 32  2  0
 32 33  1  0
 33 34  2  0
 16  2  1  0
 33 19  1  0
 32 23  1  0
M  CHG  2  21  -1  22  -1
M  END
>  <UniqueID>  (28) 
25

>  <SMILES>  (28) 
NS(=O)(=O)c1ccc(/N=N/c2c([O-])[n-]c3ccccc3c2=O)cc1

>  <Energy>  (28) 
42.48343191922623

>  <Genealogy>  (28) 
NS(=O)(=O)c1ccc(N=Nc2c([O-])[n-]c3ccccc3c2=O)cc1 (protonated)
NS(=O)(=O)c1ccc(/N=N/c2c([O-])[n-]c3ccccc3c2=O)cc1 (cis-trans isomerization)
NS(=O)(=O)c1ccc(/N=N/c2c([O-])[n-]c3ccccc3c2=O)cc1 (3D coordinates assigned)
NS(=O)(=O)c1ccc(/N=N/c2c([O-])[n-]c3ccccc3c2=O)cc1 (optimized conformer: 42.48343191922623 kcal/mol)

>  <smiles>  (28) 
NS(=O)(=O)c1ccc(N=Nc2c(O)[nH]c3ccccc3c2=O)cc1

>  <score_type>  (28) 
oracle

>  <origin>  (28) 
adg

>  <m_score__min__energy>  (28) 
-13.85

>  <m_primary>  (28) 
energy

$$$$
28:0
     RDKit          3D

 66 70  0  0  0  0  0  0  0  0999 V2000
   63.9275   33.2919   51.0267 H   0  0  0  0  0  0  0  0  0  0  0  0
   63.5190   32.7390   50.1680 C   0  0  0  0  0  0  0  0  0  0  0  0
   62.5210   31.8320   50.3540 N   0  0  0  0  0  0  0  0  0  0  0  0
   61.9820   31.1330   49.3150 C   0  0  0  0  0  0  0  0  0  0  0  0
   60.9060   30.1210   49.5860 C   0  0  0  0  0  0  0  0  0  0  0  0
   59.9221   30.5717   49.3887 H   0  0  0  0  0  0  0  0  0  0  0  0
   60.9622   29.8023   50.6373 H   0  0  0  0  0  0  0  0  0  0  0  0
   61.0910   28.9630   48.7200 N   0  0  0  0  0  0  0  0  0  0  0  0
   60.0660   28.4550   47.8630 C   0  0  0  0  0  0  0  0  0  0  0  0
   60.3070   27.4890   47.0920 O   0  0  0  0  0  0  0  0  0  0  0  0
   58.7150   29.1110   47.8680 C   0  0  0  0  0  0  0  0  0  0  0  0
   57.9395   28.3330   47.9251 H   0  0  0  0  0  0  0  0  0  0  0  0
   58.6590   29.7822   48.7377 H   0  0  0  0  0  0  0  0  0  0  0  0
   58.5010   29.9160   46.6430 N   0  0  0  0  0  0  0  0  0  0  0  0
   57.7950   29.4150   45.5700 C   0  0  0  0  0  0  0  0  0  0  0  0
   57.1300   28.0930   45.6210 C   0  0  0  0  0  0  0  0  0  0  0  0
   55.7900   27.9270   45.6230 N   0  0  0  0  0  0  0  0  0  0  0  0
   55.6040   26.5960   45.7150 C   0  0  0  0  0  0  0  0  0  0  0  0
   54.3510   25.9950   45.7470 O   0  0  0  0  0  0  0  0  0  0  0  0
   56.8010   25.9300   45.7750 C   0  0  0  0  0  0  0  0  0  0  0  0
   56.9680   24.5200   45.9450 N   0  0  0  0  0  0  0  0  0  0  0  0
   56.2280   23.3560   44.8950 S   0  0  0  0  0  0  0  0  0  0  0  0
   56.8880   22.0210   45.1040 O   0  0  0  0  0  0  0  0  0  0  0  0
   56.4160   23.7840   43.4670 O   0  0  0  0  0  0  0  0  0  0  0  0
   54.5030   23.2510   45.2400 C   0  0  0  0  0  0  0  0  0  0  0  0
   54.0510   22.6630   46.4270 C   0  0  0  0  0  0  0  0  0  0  0  0
   54.7724   22.2248   47.1324 H   0  0  0  0  0  0  0  0  0  0  0  0
   52.6850   22.6320   46.7170 C   0  0  0  0  0  0  0  0  0  0  0  0
   52.3330   22.1669   47.6496 H   0  0  0  0  0  0  0  0  0  0  0  0
   51.7640   23.1900   45.8260 C   0  0  0  0  0  0  0  0  0  0  0  0
   50.6903   23.1661   46.0639 H   0  0  0  0  0  0  0  0  0  0  0  0
   52.2010   23.7820   44.6270 C   0  0  0  0  0  0  0  0  0  0  0  0
   51.2600   24.3730   43.7120 N   0  0  0  0  0  0  0  0  0  0  0  0
   51.0940   23.8910   42.5710 O   0  0  0  0  0  0  0  0  0  0  0  0
   50.4950   25.4510   44.0950 O   0  0  0  0  0  0  0  0  0  0  0  0
   53.5780   23.7990   44.3400 C   0  0  0  0  0  0  0  0  0  0  0  0
   53.9327   24.2468   43.3999 H   0  0  0  0  0  0  0  0  0  0  0  0
   57.7920   26.8820   45.7220 C   0  0  0  0  0  0  0  0  0  0  0  0
   58.8790   26.7162   45.7532 H   0  0  0  0  0  0  0  0  0  0  0  0
   57.6650   30.1960   44.4100 C   0  0  0  0  0  0  0  0  0  0  0  0
   56.7620   29.6480   43.0020 Cl  0  0  0  0  0  0  0  0  0  0  0  0
   58.1890   31.4430   44.3850 N   0  0  0  0  0  0  0  0  0  0  0  0
   58.8530   31.9840   45.4330 C   0  0  0  0  0  0  0  0  0  0  0  0
   59.2740   33.2170   45.2950 N   0  0  0  0  0  0  0  0  0  0  0  0
   59.7290   34.2570   46.2330 C   0  0  0  0  0  0  0  0  0  0  0  0
   59.7475   35.1579   45.6021 H   0  0  0  0  0  0  0  0  0  0  0  0
   58.7750   34.4980   47.4070 C   0  0  0  0  0  0  0  0  0  0  0  0
   58.2237   35.4388   47.2621 H   0  0  0  0  0  0  0  0  0  0  0  0
   58.0338   33.6895   47.4906 H   0  0  0  0  0  0  0  0  0  0  0  0
   59.6440   34.5830   48.6590 C   0  0  0  0  0  0  0  0  0  0  0  0
   59.4209   35.5088   49.2096 H   0  0  0  0  0  0  0  0  0  0  0  0
   59.4470   33.7319   49.3275 H   0  0  0  0  0  0  0  0  0  0  0  0
   61.1010   34.5850   48.2030 C   0  0  0  0  0  0  0  0  0  0  0  0
   61.4952   35.6119   48.2039 H   0  0  0  0  0  0  0  0  0  0  0  0
   61.7240   33.9825   48.8803 H   0  0  0  0  0  0  0  0  0  0  0  0
   61.1290   34.0160   46.7910 C   0  0  0  0  0  0  0  0  0  0  0  0
   61.8820   34.5361   46.1807 H   0  0  0  0  0  0  0  0  0  0  0  0
   61.3958   32.9489   46.7836 H   0  0  0  0  0  0  0  0  0  0  0  0
   59.0210   31.1910   46.5960 C   0  0  0  0  0  0  0  0  0  0  0  0
   59.6420   31.6370   47.5950 O   0  0  0  0  0  0  0  0  0  0  0  0
   62.4790   31.3250   48.0170 C   0  0  0  0  0  0  0  0  0  0  0  0
   62.0662   30.7518   47.1738 H   0  0  0  0  0  0  0  0  0  0  0  0
   63.5030   32.2510   47.8060 C   0  0  0  0  0  0  0  0  0  0  0  0
   63.8977   32.4156   46.7925 H   0  0  0  0  0  0  0  0  0  0  0  0
   64.0240   32.9670   48.8850 C   0  0  0  0  0  0  0  0  0  0  0  0
   64.8250   33.7042   48.7269 H   0  0  0  0  0  0  0  0  0  0  0  0
  1  2  1  0
  2  3  2  0
  3  4  1  0
  4  5  1  0
  5  6  1  0
  5  7  1  0
  5  8  1  0
  8  9  1  0
  9 10  2  0
  9 11  1  0
 11 12  1  0
 11 13  1  0
 11 14  1  0
 14 15  1  0
 15 16  1  0
 16 17  1  0
 17 18  1  0
 18 19  1  0
 18 20  2  0
 20 21  1  0
 21 22  1  0
 22 23  2  0
 22 24  2  0
 22 25  1  0
 25 26  2  0
 26 27  1  0
 26 28  1  0
 28 29  1  0
 28 30  2  0
 30 31  1  0
 30 32  1  0
 32 33  1  0
 33 34  2  0
 33 35  1  0
 32 36  2  0
 36 37  1  0
 20 38  1  0
 38 39  1  0
 15 40  2  0
 40 41  1  0
 40 42  1  0
 42 43  1  0
 43 44  2  0
 44 45  1  0
 45 46  1  0
 45 47  1  0
 47 48  1  0
 47 49  1  0
 47 50  1  0
 50 51  1  0
 50 52  1  0
 50 53  1  0
 53 54  1  0
 53 55  1  0
 53 56  1  0
 56 57  1  0
 56 58  1  0
 43 59  1  0
 59 60  2  0
  4 61  2  0
 61 62  1  0
 61 63  1  0
 63 64  1  0
 63 65  2  0
 65 66  1  0
 65  2  1  0
 59 14  1  0
 38 16  2  0
 56 45  1  0
 36 25  1  0
M  CHG  7   8  -1  17  -1  19  -1  21  -1  33   1  35  -1  42  -1
M  END
>  <UniqueID>  (29) 
26

>  <SMILES>  (29) 
O=C(Cn1c(-c2cc([N-]S(=O)(=O)c3cccc([N+](=O)[O-])c3)c([O-])[n-]2)c(Cl)[n-]/c(=N/C2CCCC2)c1=O)[N-]Cc1ccccn1

>  <Energy>  (29) 
122.36155916070132

>  <Genealogy>  (29) 
O=C(Cn1c(-c2cc([N-]S(=O)(=O)c3cccc([N+](=O)[O-])c3)c([O-])[n-]2)c(Cl)[n-]c(=NC2CCCC2)c1=O)[N-]Cc1ccccn1 (protonated)
O=C(Cn1c(-c2cc([N-]S(=O)(=O)c3cccc([N+](=O)[O-])c3)c([O-])[n-]2)c(Cl)[n-]/c(=N/C2CCCC2)c1=O)[N-]Cc1ccccn1 (cis-trans isomerization)
O=C(Cn1c(-c2cc([N-]S(=O)(=O)c3cccc([N+](=O)[O-])c3)c([O-])[n-]2)c(Cl)[n-]/c(=N/C2CCCC2)c1=O)[N-]Cc1ccccn1 (3D coordinates assigned)
O=C(Cn1c(-c2cc([N-]S(=O)(=O)c3cccc([N+](=O)[O-])c3)c([O-])[n-]2)c(Cl)[n-]/c(=N/C2CCCC2)c1=O)[N-]Cc1ccccn1 (nonaromatic ring conformer: 122.36155916070132 kcal/mol)

>  <smiles>  (29) 
O=C(Cn1c(-c2cc(NS(=O)(=O)c3cccc([N+](=O)[O-])c3)c(O)[nH]2)c(Cl)[nH]c(=NC2CCCC2)c1=O)NCc1ccccn1

>  <score_type>  (29) 
oracle

>  <origin>  (29) 
adg

>  <m_score__min__energy>  (29) 
-19.469999999999999

>  <m_primary>  (29) 
energy

$$$$
29:0
     RDKit          3D

 40 42  0  0  0  0  0  0  0  0999 V2000
   57.8280   27.8180   45.1290 O   0  0  0  0  0  0  0  0  0  0  0  0
   56.6340   28.0940   45.4190 C   0  0  0  0  0  0  0  0  0  0  0  0
   56.1280   29.4220   45.2250 N   0  0  0  0  0  0  0  0  0  0  0  0
   56.7210   30.4310   44.3920 C   0  0  0  0  0  0  0  0  0  0  0  0
   56.5460   30.3510   43.0050 C   0  0  0  0  0  0  0  0  0  0  0  0
   57.1250   31.3070   42.1660 C   0  0  0  0  0  0  0  0  0  0  0  0
   57.8860   32.3460   42.7060 C   0  0  0  0  0  0  0  0  0  0  0  0
   58.0670   32.4440   44.0910 C   0  0  0  0  0  0  0  0  0  0  0  0
   58.8520   33.5260   44.6150 N   0  0  0  0  0  0  0  0  0  0  0  0
   58.8270   34.0180   45.9640 C   0  0  0  0  0  0  0  0  0  0  0  0
   57.7770   34.5750   46.3820 O   0  0  0  0  0  0  0  0  0  0  0  0
   60.0020   33.9220   46.8610 C   0  0  0  0  0  0  0  0  0  0  0  0
   59.8600   34.1720   48.2370 C   0  0  0  0  0  0  0  0  0  0  0  0
   60.9550   34.0390   49.0960 C   0  0  0  0  0  0  0  0  0  0  0  0
   62.2040   33.6690   48.5880 C   0  0  0  0  0  0  0  0  0  0  0  0
   63.6910   33.4570   49.7680 Br  0  0  0  0  0  0  0  0  0  0  0  0
   62.3600   33.4450   47.2170 C   0  0  0  0  0  0  0  0  0  0  0  0
   61.2680   33.5750   46.3560 C   0  0  0  0  0  0  0  0  0  0  0  0
   57.4410   31.5090   44.9340 C   0  0  0  0  0  0  0  0  0  0  0  0
   55.7610   27.0810   45.9360 N   0  0  0  0  0  0  0  0  0  0  0  0
   56.1030   25.6860   46.0120 C   0  0  0  0  0  0  0  0  0  0  0  0
   55.2500   24.6900   45.5000 C   0  0  0  0  0  0  0  0  0  0  0  0
   55.6020   23.3400   45.5980 C   0  0  0  0  0  0  0  0  0  0  0  0
   56.7970   22.9710   46.2220 C   0  0  0  0  0  0  0  0  0  0  0  0
   57.6360   23.9520   46.7560 C   0  0  0  0  0  0  0  0  0  0  0  0
   57.2880   25.3020   46.6580 C   0  0  0  0  0  0  0  0  0  0  0  0
   55.9505   29.5326   42.5742 H   0  0  0  0  0  0  0  0  0  0  0  0
   56.9809   31.2409   41.0775 H   0  0  0  0  0  0  0  0  0  0  0  0
   58.3455   33.0911   42.0400 H   0  0  0  0  0  0  0  0  0  0  0  0
   58.8820   34.4739   48.6401 H   0  0  0  0  0  0  0  0  0  0  0  0
   60.8337   34.2257   50.1732 H   0  0  0  0  0  0  0  0  0  0  0  0
   63.3452   33.1657   46.8153 H   0  0  0  0  0  0  0  0  0  0  0  0
   61.3988   33.4051   45.2771 H   0  0  0  0  0  0  0  0  0  0  0  0
   57.5154   31.6222   46.0256 H   0  0  0  0  0  0  0  0  0  0  0  0
   54.8650   27.3960   46.3740 H   0  0  0  0  0  0  0  0  0  0  0  0
   54.3019   24.9749   45.0205 H   0  0  0  0  0  0  0  0  0  0  0  0
   54.9375   22.5676   45.1834 H   0  0  0  0  0  0  0  0  0  0  0  0
   57.0765   21.9094   46.2925 H   0  0  0  0  0  0  0  0  0  0  0  0
   58.5724   23.6613   47.2546 H   0  0  0  0  0  0  0  0  0  0  0  0
   57.9476   26.0688   47.0903 H   0  0  0  0  0  0  0  0  0  0  0  0
  1  2  2  0
  2  3  1  0
  3  4  1  0
  4  5  2  0
  5  6  1  0
  6  7  2  0
  7  8  1  0
  8  9  1  0
  9 10  1  0
 10 11  2  0
 10 12  1  0
 12 13  2  0
 13 14  1  0
 14 15  2  0
 15 16  1  0
 15 17  1  0
 17 18  2  0
  8 19  2  0
  2 20  1  0
 20 21  1  0
 21 22  2  0
 22 23  1  0
 23 24  2  0
 24 25  1  0
 25 26  2  0
 19  4  1  0
 26 21  1  0
 18 12  1  0
  5 27  1  0
  6 28  1  0
  7 29  1  0
 13 30  1  0
 14 31  1  0
 17 32  1  0
 18 33  1  0
 19 34  1  0
 20 35  1  0
 22 36  1  0
 23 37  1  0
 24 38  1  0
 25 39  1  0
 26 40  1  0
M  CHG  2   3  -1   9  -1
M  END
>  <UniqueID>  (30) 
27

>  <SMILES>  (30) 
O=C([N-]c1cccc([N-]C(=O)c2ccc(Br)cc2)c1)Nc1ccccc1

>  <Energy>  (30) 
54.16635353637848

>  <Genealogy>  (30) 
O=C([N-]c1cccc([N-]C(=O)c2ccc(Br)cc2)c1)Nc1ccccc1 (protonated)
O=C([N-]c1cccc([N-]C(=O)c2ccc(Br)cc2)c1)Nc1ccccc1 (3D coordinates assigned)
O=C([N-]c1cccc([N-]C(=O)c2ccc(Br)cc2)c1)Nc1ccccc1 (optimized conformer: 54.16635353637848 kcal/mol)

>  <smiles>  (30) 
O=C(Nc1ccccc1)Nc1cccc(NC(=O)c2ccc(Br)cc2)c1

>  <score_type>  (30) 
oracle

>  <origin>  (30) 
adg

>  <m_score__min__energy>  (30) 
-11.970000000000001

>  <m_primary>  (30) 
energy

$$$$
30:0
     RDKit          3D

 34 35  0  0  0  0  0  0  0  0999 V2000
   61.2213   29.6123   44.4672 H   0  0  0  0  0  0  0  0  0  0  0  0
   60.8020   29.3000   45.4350 C   0  0  0  0  0  0  0  0  0  0  0  0
   60.7250   30.2870   46.5340 C   0  0  0  0  0  0  0  0  0  0  0  0
   61.7690   30.6200   47.1570 O   0  0  0  0  0  0  0  0  0  0  0  0
   59.4930   30.9400   46.8610 N   0  0  0  0  0  0  0  0  0  0  0  0
   58.9060   32.0500   46.1630 C   0  0  0  0  0  0  0  0  0  0  0  0
   58.3770   31.8950   44.8670 C   0  0  0  0  0  0  0  0  0  0  0  0
   58.4319   30.9167   44.3671 H   0  0  0  0  0  0  0  0  0  0  0  0
   57.7830   32.9770   44.2130 C   0  0  0  0  0  0  0  0  0  0  0  0
   57.3853   32.8519   43.1951 H   0  0  0  0  0  0  0  0  0  0  0  0
   57.6930   34.2160   44.8480 C   0  0  0  0  0  0  0  0  0  0  0  0
   57.2309   35.0678   44.3275 H   0  0  0  0  0  0  0  0  0  0  0  0
   58.1890   34.3760   46.1440 C   0  0  0  0  0  0  0  0  0  0  0  0
   58.1096   35.3522   46.6447 H   0  0  0  0  0  0  0  0  0  0  0  0
   58.7880   33.2960   46.8090 C   0  0  0  0  0  0  0  0  0  0  0  0
   59.2890   33.4840   48.1480 C   0  0  0  0  0  0  0  0  0  0  0  0
   59.6910   33.6350   49.2230 N   0  0  0  0  0  0  0  0  0  0  0  0
   60.3770   28.0370   45.5810 C   0  0  0  0  0  0  0  0  0  0  0  0
   61.1304   27.2364   45.6184 H   0  0  0  0  0  0  0  0  0  0  0  0
   58.9460   27.6590   45.6950 C   0  0  0  0  0  0  0  0  0  0  0  0
   58.5280   26.4490   46.2830 C   0  0  0  0  0  0  0  0  0  0  0  0
   59.2762   25.7417   46.6701 H   0  0  0  0  0  0  0  0  0  0  0  0
   57.1700   26.1430   46.3770 C   0  0  0  0  0  0  0  0  0  0  0  0
   56.8538   25.1927   46.8319 H   0  0  0  0  0  0  0  0  0  0  0  0
   56.2100   27.0360   45.8970 C   0  0  0  0  0  0  0  0  0  0  0  0
   54.8610   26.7140   45.9960 O   0  0  0  0  0  0  0  0  0  0  0  0
   56.6010   28.2510   45.3210 C   0  0  0  0  0  0  0  0  0  0  0  0
   55.6040   29.1230   44.8570 O   0  0  0  0  0  0  0  0  0  0  0  0
   55.7540   30.0040   43.7480 C   0  0  0  0  0  0  0  0  0  0  0  0
   55.9282   31.0269   44.1132 H   0  0  0  0  0  0  0  0  0  0  0  0
   56.6103   29.6820   43.1371 H   0  0  0  0  0  0  0  0  0  0  0  0
   54.8394   29.9835   43.1371 H   0  0  0  0  0  0  0  0  0  0  0  0
   57.9720   28.5600   45.2280 C   0  0  0  0  0  0  0  0  0  0  0  0
   58.2847   29.5171   44.7850 H   0  0  0  0  0  0  0  0  0  0  0  0
  1  2  1  0
  2  3  1  0
  3  4  2  0
  3  5  1  0
  5  6  1  0
  6  7  2  0
  7  8  1  0
  7  9  1  0
  9 10  1  0
  9 11  2  0
 11 12  1  0
 11 13  1  0
 13 14  1  0
 13 15  2  0
 15 16  1  0
 16 17  3  0
  2 18  2  0
 18 19  1  0
 18 20  1  0
 20 21  2  0
 21 22  1  0
 21 23  1  0
 23 24  1  0
 23 25  2  0
 25 26  1  0
 25 27  1  0
 27 28  1  0
 28 29  1  0
 29 30  1  0
 29 31  1  0
 29 32  1  0
 27 33  2  0
 33 34  1  0
 15  6  1  0
 33 20  1  0
M  CHG  2   5  -1  26  -1
M  END
>  <UniqueID>  (31) 
28

>  <SMILES>  (31) 
COc1cc(/C=C/C(=O)[N-]c2ccccc2C#N)ccc1[O-]

>  <Energy>  (31) 
40.65919617549626

>  <Genealogy>  (31) 
COc1cc(C=CC(=O)[N-]c2ccccc2C#N)ccc1[O-] (protonated)
COc1cc(/C=C/C(=O)[N-]c2ccccc2C#N)ccc1[O-] (cis-trans isomerization)
COc1cc(/C=C/C(=O)[N-]c2ccccc2C#N)ccc1[O-] (3D coordinates assigned)
COc1cc(/C=C/C(=O)[N-]c2ccccc2C#N)ccc1[O-] (optimized conformer: 40.65919617549626 kcal/mol)

>  <smiles>  (31) 
COc1cc(C=CC(=O)Nc2ccccc2C#N)ccc1O

>  <score_type>  (31) 
oracle

>  <origin>  (31) 
adg

>  <m_score__min__energy>  (31) 
-12.31

>  <m_primary>  (31) 
energy

$$$$
31:0
     RDKit          3D

 46 48  0  0  0  0  0  0  0  0999 V2000
   55.1850   29.3450   44.8860 N   0  0  0  0  0  0  0  0  0  0  0  0
   56.8540   29.5580   44.4940 S   0  0  0  0  0  0  0  0  0  0  0  0
   57.0450   29.3870   43.0140 O   0  0  0  0  0  0  0  0  0  0  0  0
   57.2890   30.9450   44.8790 O   0  0  0  0  0  0  0  0  0  0  0  0
   57.8160   28.3700   45.3650 C   0  0  0  0  0  0  0  0  0  0  0  0
   57.5950   27.0010   45.1730 C   0  0  0  0  0  0  0  0  0  0  0  0
   58.3310   26.0630   45.9020 C   0  0  0  0  0  0  0  0  0  0  0  0
   59.2900   26.4860   46.8260 C   0  0  0  0  0  0  0  0  0  0  0  0
   59.5330   27.8590   47.0140 C   0  0  0  0  0  0  0  0  0  0  0  0
   60.4610   28.3450   47.9940 N   0  0  0  0  0  0  0  0  0  0  0  0
   60.5920   27.9110   49.3530 C   0  0  0  0  0  0  0  0  0  0  0  0
   61.0060   26.7520   49.6200 O   0  0  0  0  0  0  0  0  0  0  0  0
   60.3140   28.8730   50.4700 C   0  0  0  0  0  0  0  0  0  0  0  0
   59.4160   29.9370   50.0240 N   0  0  0  0  0  0  0  0  0  0  0  0
   58.2730   30.3960   50.7240 C   0  0  0  0  0  0  0  0  0  0  0  0
   57.6500   29.7000   51.5680 O   0  0  0  0  0  0  0  0  0  0  0  0
   57.9110   31.7330   50.4100 N   0  0  0  0  0  0  0  0  0  0  0  0
   58.8960   32.2600   49.4590 C   0  0  0  0  0  0  0  0  0  0  0  0
   58.2160   32.6190   48.1140 C   0  0  0  0  0  0  0  0  0  0  0  0
   58.8990   33.6950   47.2430 C   0  0  0  0  0  0  0  0  0  0  0  0
   60.4230   33.5490   47.0910 C   0  0  0  0  0  0  0  0  0  0  0  0
   61.2810   34.2170   48.1950 C   0  0  0  0  0  0  0  0  0  0  0  0
   61.1560   33.6260   49.6090 C   0  0  0  0  0  0  0  0  0  0  0  0
   59.7130   33.4080   50.1100 C   0  0  0  0  0  0  0  0  0  0  0  0
   59.8050   31.0700   49.2560 C   0  0  0  0  0  0  0  0  0  0  0  0
   60.8260   31.0730   48.5150 O   0  0  0  0  0  0  0  0  0  0  0  0
   58.7800   28.7920   46.2910 C   0  0  0  0  0  0  0  0  0  0  0  0
   55.1380   28.6260   45.6430 H   0  0  0  0  0  0  0  0  0  0  0  0
   56.8408   26.6631   44.4471 H   0  0  0  0  0  0  0  0  0  0  0  0
   58.1548   24.9882   45.7479 H   0  0  0  0  0  0  0  0  0  0  0  0
   59.8563   25.7438   47.4078 H   0  0  0  0  0  0  0  0  0  0  0  0
   59.8454   28.3313   51.3049 H   0  0  0  0  0  0  0  0  0  0  0  0
   61.2639   29.3240   50.7930 H   0  0  0  0  0  0  0  0  0  0  0  0
   58.1579   31.6974   47.5163 H   0  0  0  0  0  0  0  0  0  0  0  0
   57.2459   33.0552   48.3944 H   0  0  0  0  0  0  0  0  0  0  0  0
   58.4519   33.6532   46.2388 H   0  0  0  0  0  0  0  0  0  0  0  0
   58.7355   34.6525   47.7592 H   0  0  0  0  0  0  0  0  0  0  0  0
   60.6595   32.4748   47.0843 H   0  0  0  0  0  0  0  0  0  0  0  0
   60.6802   34.0713   46.1577 H   0  0  0  0  0  0  0  0  0  0  0  0
   62.3356   34.1397   47.8920 H   0  0  0  0  0  0  0  0  0  0  0  0
   60.9043   35.2474   48.2745 H   0  0  0  0  0  0  0  0  0  0  0  0
   61.6685   32.6527   49.6166 H   0  0  0  0  0  0  0  0  0  0  0  0
   61.6038   34.3667   50.2878 H   0  0  0  0  0  0  0  0  0  0  0  0
   59.7660   33.2040   51.1896 H   0  0  0  0  0  0  0  0  0  0  0  0
   59.1770   34.3273   49.8316 H   0  0  0  0  0  0  0  0  0  0  0  0
   58.9466   29.8674   46.4513 H   0  0  0  0  0  0  0  0  0  0  0  0
  1  2  1  0
  2  3  2  0
  2  4  2  0
  2  5  1  0
  5  6  2  0
  6  7  1  0
  7  8  2  0
  8  9  1  0
  9 10  1  0
 10 11  1  0
 11 12  2  0
 11 13  1  0
 13 14  1  0
 14 15  1  0
 15 16  2  0
 15 17  1  0
 17 18  1  0
 18 19  1  0
 19 20  1  0
 20 21  1  0
 21 22  1  0
 22 23  1  0
 23 24  1  0
 18 25  1  0
 25 26  2  0
  9 27  2  0
 27  5  1  0
 25 14  1  0
 24 18  1  0
  1 28  1  0
  6 29  1  0
  7 30  1  0
  8 31  1  0
 13 32  1  0
 13 33  1  0
 19 34  1  0
 19 35  1  0
 20 36  1  0
 20 37  1  0
 21 38  1  0
 21 39  1  0
 22 40  1  0
 22 41  1  0
 23 42  1  0
 23 43  1  0
 24 44  1  0
 24 45  1  0
 27 46  1  0
M  CHG  3   1  -1  10  -1  17  -1
M  END
>  <UniqueID>  (32) 
29

>  <SMILES>  (32) 
[NH-]S(=O)(=O)c1cccc([N-]C(=O)CN2C(=O)[N-]C3(CCCCCC3)C2=O)c1

>  <Energy>  (32) 
77.3302491809766

>  <Genealogy>  (32) 
[NH-]S(=O)(=O)c1cccc([N-]C(=O)CN2C(=O)[N-]C3(CCCCCC3)C2=O)c1 (protonated)
[NH-]S(=O)(=O)c1cccc([N-]C(=O)CN2C(=O)[N-]C3(CCCCCC3)C2=O)c1 (3D coordinates assigned)
[NH-]S(=O)(=O)c1cccc([N-]C(=O)CN2C(=O)[N-]C3(CCCCCC3)C2=O)c1 (nonaromatic ring conformer: 77.3302491809766 kcal/mol)

>  <smiles>  (32) 
NS(=O)(=O)c1cccc(NC(=O)CN2C(=O)NC3(CCCCCC3)C2=O)c1

>  <score_type>  (32) 
oracle

>  <origin>  (32) 
adg

>  <m_score__min__energy>  (32) 
-12.630000000000001

>  <m_primary>  (32) 
energy

$$$$
32:0
     RDKit          3D

 39 40  0  0  0  0  0  0  0  0999 V2000
   57.4060   32.3900   40.9060 C   0  0  0  0  0  0  0  0  0  0  0  0
   58.1630   31.9690   42.0880 N   0  0  0  0  0  0  0  0  0  0  0  0
   57.7540   32.7250   43.2800 C   0  0  0  0  0  0  0  0  0  0  0  0
   58.3330   32.1030   44.5330 C   0  0  0  0  0  0  0  0  0  0  0  0
   58.4590   30.7050   44.5740 C   0  0  0  0  0  0  0  0  0  0  0  0
   58.9660   30.0580   45.7100 C   0  0  0  0  0  0  0  0  0  0  0  0
   59.0030   28.5570   45.7710 C   0  0  0  0  0  0  0  0  0  0  0  0
   57.6200   27.8630   44.8800 S   0  0  0  0  0  0  0  0  0  0  0  0
   57.8940   27.9010   43.4030 O   0  0  0  0  0  0  0  0  0  0  0  0
   56.3950   28.6910   45.1540 O   0  0  0  0  0  0  0  0  0  0  0  0
   57.3360   26.2000   45.4100 C   0  0  0  0  0  0  0  0  0  0  0  0
   58.3610   25.2560   45.2690 C   0  0  0  0  0  0  0  0  0  0  0  0
   58.1300   23.9290   45.6300 C   0  0  0  0  0  0  0  0  0  0  0  0
   56.8820   23.5520   46.1210 C   0  0  0  0  0  0  0  0  0  0  0  0
   55.8780   24.5130   46.2440 C   0  0  0  0  0  0  0  0  0  0  0  0
   56.1130   25.8080   45.8900 N   0  0  0  0  0  0  0  0  0  0  0  0
   55.0850   26.7150   46.0070 O   0  0  0  0  0  0  0  0  0  0  0  0
   59.3540   30.8200   46.8170 C   0  0  0  0  0  0  0  0  0  0  0  0
   59.2520   32.2110   46.7870 C   0  0  0  0  0  0  0  0  0  0  0  0
   58.7470   32.8700   45.6520 C   0  0  0  0  0  0  0  0  0  0  0  0
   58.6340   34.3710   45.6740 C   0  0  0  0  0  0  0  0  0  0  0  0
   56.4855   32.9019   41.2233 H   0  0  0  0  0  0  0  0  0  0  0  0
   58.0186   33.0770   40.3037 H   0  0  0  0  0  0  0  0  0  0  0  0
   57.1456   31.5071   40.3037 H   0  0  0  0  0  0  0  0  0  0  0  0
   57.9380   30.9610   42.2590 H   0  0  0  0  0  0  0  0  0  0  0  0
   58.1137   33.7608   43.1917 H   0  0  0  0  0  0  0  0  0  0  0  0
   56.6564   32.7068   43.3509 H   0  0  0  0  0  0  0  0  0  0  0  0
   58.1552   30.1082   43.7013 H   0  0  0  0  0  0  0  0  0  0  0  0
   59.9406   28.1990   45.3207 H   0  0  0  0  0  0  0  0  0  0  0  0
   58.9440   28.2413   46.8231 H   0  0  0  0  0  0  0  0  0  0  0  0
   59.3425   25.5596   44.8758 H   0  0  0  0  0  0  0  0  0  0  0  0
   58.9309   23.1820   45.5274 H   0  0  0  0  0  0  0  0  0  0  0  0
   56.6902   22.5078   46.4087 H   0  0  0  0  0  0  0  0  0  0  0  0
   54.8894   24.2233   46.6296 H   0  0  0  0  0  0  0  0  0  0  0  0
   59.7418   30.3195   47.7165 H   0  0  0  0  0  0  0  0  0  0  0  0
   59.5701   32.7987   47.6607 H   0  0  0  0  0  0  0  0  0  0  0  0
   58.6076   34.7215   46.7163 H   0  0  0  0  0  0  0  0  0  0  0  0
   59.5015   34.8116   45.1609 H   0  0  0  0  0  0  0  0  0  0  0  0
   57.7103   34.6767   45.1609 H   0  0  0  0  0  0  0  0  0  0  0  0
  1  2  1  0
  2  3  1  0
  3  4  1  0
  4  5  2  0
  5  6  1  0
  6  7  1  0
  7  8  1  0
  8  9  2  0
  8 10  2  0
  8 11  1  0
 11 12  2  0
 12 13  1  0
 13 14  2  0
 14 15  1  0
 15 16  2  0
 16 17  1  0
  6 18  2  0
 18 19  1  0
 19 20  2  0
 20 21  1  0
 20  4  1  0
 16 11  1  0
  1 22  1  0
  1 23  1  0
  1 24  1  0
  2 25  1  0
  3 26  1  0
  3 27  1  0
  5 28  1  0
  7 29  1  0
  7 30  1  0
 12 31  1  0
 13 32  1  0
 14 33  1  0
 15 34  1  0
 18 35  1  0
 19 36  1  0
 21 37  1  0
 21 38  1  0
 21 39  1  0
M  CHG  2  16   1  17  -1
M  END
>  <UniqueID>  (33) 
30

>  <SMILES>  (33) 
CNCc1cc(CS(=O)(=O)c2cccc[n+]2[O-])ccc1C

>  <Energy>  (33) 
34.828778116003285

>  <Genealogy>  (33) 
CNCc1cc(CS(=O)(=O)c2cccc[n+]2[O-])ccc1C (3D coordinates assigned)
CNCc1cc(CS(=O)(=O)c2cccc[n+]2[O-])ccc1C (optimized conformer: 34.828778116003285 kcal/mol)

>  <smiles>  (33) 
CNCc1cc(CS(=O)(=O)c2cccc[n+]2[O-])ccc1C

>  <score_type>  (33) 
oracle

>  <origin>  (33) 
adg

>  <m_score__min__energy>  (33) 
-8.7599999999999998

>  <m_primary>  (33) 
energy

$$$$
33:0
     RDKit          3D

 55 56  0  0  0  0  0  0  0  0999 V2000
   58.5729   29.3529   44.1717 H   0  0  0  0  0  0  0  0  0  0  0  0
   58.1060   29.4270   45.1650 C   0  0  0  0  0  0  0  0  0  0  0  0
   56.9800   28.5130   45.4660 C   0  0  0  0  0  0  0  0  0  0  0  0
   55.8090   28.9240   45.2400 O   0  0  0  0  0  0  0  0  0  0  0  0
   57.1830   27.1740   46.1090 C   0  0  0  0  0  0  0  0  0  0  0  0
   56.0720   26.3170   46.3430 C   0  0  0  0  0  0  0  0  0  0  0  0
   54.7770   26.7060   46.0200 O   0  0  0  0  0  0  0  0  0  0  0  0
   56.2520   25.0510   46.9080 C   0  0  0  0  0  0  0  0  0  0  0  0
   55.3812   24.3976   47.0651 H   0  0  0  0  0  0  0  0  0  0  0  0
   57.5220   24.6060   47.2750 C   0  0  0  0  0  0  0  0  0  0  0  0
   57.6370   23.3170   47.8160 O   0  0  0  0  0  0  0  0  0  0  0  0
   56.5530   22.5130   48.2780 C   0  0  0  0  0  0  0  0  0  0  0  0
   55.6044   22.9852   47.9827 H   0  0  0  0  0  0  0  0  0  0  0  0
   56.6207   22.4318   49.3729 H   0  0  0  0  0  0  0  0  0  0  0  0
   56.6160   21.1240   47.6900 C   0  0  0  0  0  0  0  0  0  0  0  0
   57.2659   20.3828   48.1780 H   0  0  0  0  0  0  0  0  0  0  0  0
   55.9190   20.7400   46.5980 C   0  0  0  0  0  0  0  0  0  0  0  0
   54.4400   21.0240   46.4610 C   0  0  0  0  0  0  0  0  0  0  0  0
   53.9891   21.1106   47.4606 H   0  0  0  0  0  0  0  0  0  0  0  0
   54.2969   21.9660   45.9114 H   0  0  0  0  0  0  0  0  0  0  0  0
   53.9582   20.2020   45.9114 H   0  0  0  0  0  0  0  0  0  0  0  0
   56.6340   20.0290   45.4690 C   0  0  0  0  0  0  0  0  0  0  0  0
   56.3171   18.9759   45.4461 H   0  0  0  0  0  0  0  0  0  0  0  0
   57.7190   20.0948   45.6375 H   0  0  0  0  0  0  0  0  0  0  0  0
   56.3000   20.6860   44.1240 C   0  0  0  0  0  0  0  0  0  0  0  0
   55.4493   21.3705   44.2571 H   0  0  0  0  0  0  0  0  0  0  0  0
   56.0449   19.8998   43.3982 H   0  0  0  0  0  0  0  0  0  0  0  0
   57.4830   21.4610   43.6060 C   0  0  0  0  0  0  0  0  0  0  0  0
   58.0042   21.0695   42.7199 H   0  0  0  0  0  0  0  0  0  0  0  0
   57.9470   22.6030   44.1550 C   0  0  0  0  0  0  0  0  0  0  0  0
   57.1990   23.8880   43.8900 C   0  0  0  0  0  0  0  0  0  0  0  0
   56.9259   24.3572   44.8467 H   0  0  0  0  0  0  0  0  0  0  0  0
   57.8394   24.5732   43.3152 H   0  0  0  0  0  0  0  0  0  0  0  0
   56.2870   23.6695   43.3152 H   0  0  0  0  0  0  0  0  0  0  0  0
   59.1890   22.6310   45.0100 C   0  0  0  0  0  0  0  0  0  0  0  0
   58.9031   22.6246   46.0722 H   0  0  0  0  0  0  0  0  0  0  0  0
   59.8051   21.7465   44.7907 H   0  0  0  0  0  0  0  0  0  0  0  0
   59.7646   23.5424   44.7907 H   0  0  0  0  0  0  0  0  0  0  0  0
   58.6270   25.4460   47.0740 C   0  0  0  0  0  0  0  0  0  0  0  0
   59.6269   25.1143   47.3906 H   0  0  0  0  0  0  0  0  0  0  0  0
   58.4720   26.7020   46.4750 C   0  0  0  0  0  0  0  0  0  0  0  0
   59.6180   27.4570   46.2380 O   0  0  0  0  0  0  0  0  0  0  0  0
   58.5980   30.3410   46.0200 C   0  0  0  0  0  0  0  0  0  0  0  0
   59.0544   29.9697   46.9494 H   0  0  0  0  0  0  0  0  0  0  0  0
   58.5750   31.8100   45.8110 C   0  0  0  0  0  0  0  0  0  0  0  0
   57.7970   32.3390   44.7690 C   0  0  0  0  0  0  0  0  0  0  0  0
   57.2420   31.6639   44.1010 H   0  0  0  0  0  0  0  0  0  0  0  0
   57.7260   33.7270   44.5780 C   0  0  0  0  0  0  0  0  0  0  0  0
   57.1066   34.1381   43.7672 H   0  0  0  0  0  0  0  0  0  0  0  0
   58.4400   34.5890   45.4150 C   0  0  0  0  0  0  0  0  0  0  0  0
   58.3961   35.6759   45.2512 H   0  0  0  0  0  0  0  0  0  0  0  0
   59.2090   34.0710   46.4590 C   0  0  0  0  0  0  0  0  0  0  0  0
   59.9110   34.9310   47.2990 O   0  0  0  0  0  0  0  0  0  0  0  0
   59.2610   32.6920   46.6700 C   0  0  0  0  0  0  0  0  0  0  0  0
   59.8420   32.2906   47.5134 H   0  0  0  0  0  0  0  0  0  0  0  0
  1  2  1  0
  2  3  1  0
  3  4  2  0
  3  5  1  0
  5  6  2  0
  6  7  1  0
  6  8  1  0
  8  9  1  0
  8 10  2  0
 10 11  1  0
 11 12  1  0
 12 13  1  0
 12 14  1  0
 12 15  1  0
 15 16  1  0
 15 17  2  0
 17 18  1  0
 18 19  1  0
 18 20  1  0
 18 21  1  0
 17 22  1  0
 22 23  1  0
 22 24  1  0
 22 25  1  0
 25 26  1  0
 25 27  1  0
 25 28  1  0
 28 29  1  0
 28 30  2  3
 30 31  1  0
 31 32  1  0
 31 33  1  0
 31 34  1  0
 30 35  1  0
 35 36  1  0
 35 37  1  0
 35 38  1  0
 10 39  1  0
 39 40  1  0
 39 41  2  0
 41 42  1  0
  2 43  2  3
 43 44  1  0
 43 45  1  0
 45 46  2  0
 46 47  1  0
 46 48  1  0
 48 49  1  0
 48 50  2  0
 50 51  1  0
 50 52  1  0
 52 53  1  0
 52 54  2  0
 54 55  1  0
 41  5  1  0
 54 45  1  0
M  CHG  3   7  -1  42  -1  53  -1
M  END
>  <UniqueID>  (34) 
31

>  <SMILES>  (34) 
CC(C)=CCC/C(C)=C/COc1cc([O-])c(C(=O)C=Cc2cccc([O-])c2)c([O-])c1

>  <Energy>  (34) 
60.28055409455926

>  <Genealogy>  (34) 
CC(C)=CCCC(C)=CCOc1cc([O-])c(C(=O)C=Cc2cccc([O-])c2)c([O-])c1 (protonated)
CC(C)=CCC/C(C)=C/COc1cc([O-])c(C(=O)C=Cc2cccc([O-])c2)c([O-])c1 (cis-trans isomerization)
CC(C)=CCC/C(C)=C/COc1cc([O-])c(C(=O)C=Cc2cccc([O-])c2)c([O-])c1 (3D coordinates assigned)
CC(C)=CCC/C(C)=C/COc1cc([O-])c(C(=O)C=Cc2cccc([O-])c2)c([O-])c1 (optimized conformer: 60.28055409455926 kcal/mol)

>  <smiles>  (34) 
CC(C)=CCCC(C)=CCOc1cc(O)c(C(=O)C=Cc2cccc(O)c2)c(O)c1

>  <score_type>  (34) 
oracle

>  <origin>  (34) 
adg

>  <m_score__min__energy>  (34) 
-14.94

>  <m_primary>  (34) 
energy

$$$$
34:0
     RDKit          3D

 29 30  0  0  0  0  0  0  0  0999 V2000
   60.9490   31.0310   49.2290 C   0  0  0  0  0  0  0  0  0  0  0  0
   61.8690   31.8370   48.4010 C   0  0  0  0  0  0  0  0  0  0  0  0
   63.2150   31.6320   48.3560 N   0  0  0  0  0  0  0  0  0  0  0  0
   63.7800   32.4890   47.5420 N   0  0  0  0  0  0  0  0  0  0  0  0
   62.7880   33.2800   47.0360 C   0  0  0  0  0  0  0  0  0  0  0  0
   63.0280   34.1940   46.2320 O   0  0  0  0  0  0  0  0  0  0  0  0
   61.5730   32.9060   47.5480 C   0  0  0  0  0  0  0  0  0  0  0  0
   60.2390   33.4120   47.3770 C   0  0  0  0  0  0  0  0  0  0  0  0
   59.8060   34.1980   48.2900 O   0  0  0  0  0  0  0  0  0  0  0  0
   59.3210   33.1420   46.2970 C   0  0  0  0  0  0  0  0  0  0  0  0
   58.5120   34.2080   45.8910 C   0  0  0  0  0  0  0  0  0  0  0  0
   57.5730   34.0590   44.8780 C   0  0  0  0  0  0  0  0  0  0  0  0
   57.4010   32.8530   44.2320 C   0  0  0  0  0  0  0  0  0  0  0  0
   58.2040   31.8090   44.6410 C   0  0  0  0  0  0  0  0  0  0  0  0
   58.0400   30.5530   43.9830 N   0  0  0  0  0  0  0  0  0  0  0  0
   56.8380   29.7850   44.1240 C   0  0  0  0  0  0  0  0  0  0  0  0
   55.8950   30.2230   44.8480 O   0  0  0  0  0  0  0  0  0  0  0  0
   59.1430   31.9630   45.6560 C   0  0  0  0  0  0  0  0  0  0  0  0
   61.1579   31.2140   50.2934 H   0  0  0  0  0  0  0  0  0  0  0  0
   59.9101   31.3149   49.0051 H   0  0  0  0  0  0  0  0  0  0  0  0
   61.0938   29.9638   49.0051 H   0  0  0  0  0  0  0  0  0  0  0  0
   63.7340   30.8910   48.8950 H   0  0  0  0  0  0  0  0  0  0  0  0
   64.8030   32.5620   47.3140 H   0  0  0  0  0  0  0  0  0  0  0  0
   58.6215   35.1851   46.3842 H   0  0  0  0  0  0  0  0  0  0  0  0
   56.9544   34.9203   44.5854 H   0  0  0  0  0  0  0  0  0  0  0  0
   56.6592   32.7296   43.4292 H   0  0  0  0  0  0  0  0  0  0  0  0
   58.7940   30.1470   43.3710 H   0  0  0  0  0  0  0  0  0  0  0  0
   56.7348   28.8200   43.6061 H   0  0  0  0  0  0  0  0  0  0  0  0
   59.7599   31.0999   45.9467 H   0  0  0  0  0  0  0  0  0  0  0  0
  1  2  1  0
  2  3  1  0
  3  4  1  0
  4  5  1  0
  5  6  2  0
  5  7  1  0
  7  8  1  0
  8  9  2  0
  8 10  1  0
 10 11  2  0
 11 12  1  0
 12 13  2  0
 13 14  1  0
 14 15  1  0
 15 16  1  0
 16 17  2  0
 14 18  2  0
  7  2  2  0
 18 10  1  0
  1 19  1  0
  1 20  1  0
  1 21  1  0
  3 22  1  0
  4 23  1  0
 11 24  1  0
 12 25  1  0
 13 26  1  0
 15 27  1  0
 16 28  1  0
 18 29  1  0
M  END
>  <smiles>  (35) 
Cc1[nH][nH]c(=O)c1C(=O)c1cccc(NC=O)c1

>  <score_type>  (35) 
oracle

>  <origin>  (35) 
adg

>  <m_score__min__energy>  (35) 
-7.04

>  <m_primary>  (35) 
energy

$$$$
35:0
     RDKit          3D

 72 75  0  0  0  0  0  0  0  0999 V2000
   57.2810   23.2480   45.3770 C   0  0  0  0  0  0  0  0  0  0  0  0
   57.3230   24.7430   45.2920 C   0  0  0  0  0  0  0  0  0  0  0  0
   57.7240   25.3860   44.1090 C   0  0  0  0  0  0  0  0  0  0  0  0
   57.7800   26.7820   44.0500 C   0  0  0  0  0  0  0  0  0  0  0  0
   57.4450   27.5540   45.1760 C   0  0  0  0  0  0  0  0  0  0  0  0
   57.5230   29.0650   45.1280 C   0  0  0  0  0  0  0  0  0  0  0  0
   58.6190   29.5390   44.2390 N   0  0  2  0  0  0  0  0  0  0  0  0
   59.9530   29.2520   44.8300 C   0  0  0  0  0  0  0  0  0  0  0  0
   59.9500   29.3170   46.3430 C   0  0  0  0  0  0  0  0  0  0  0  0
   59.8780   30.5650   46.9930 C   0  0  0  0  0  0  0  0  0  0  0  0
   59.9130   30.6360   48.3900 C   0  0  0  0  0  0  0  0  0  0  0  0
   60.0390   29.4710   49.1480 C   0  0  0  0  0  0  0  0  0  0  0  0
   60.1270   28.2300   48.5120 C   0  0  0  0  0  0  0  0  0  0  0  0
   60.0980   28.1510   47.1160 C   0  0  0  0  0  0  0  0  0  0  0  0
   58.4330   30.9470   43.7750 C   0  0  0  0  0  0  0  0  0  0  0  0
   57.9310   32.0200   44.7860 C   0  0  2  0  0  0  0  0  0  0  0  0
   56.6430   31.7080   45.2430 O   0  0  0  0  0  0  0  0  0  0  0  0
   57.9880   33.4750   44.2860 C   0  0  0  0  0  0  0  0  0  0  0  0
   58.2320   34.3750   45.3670 O   0  0  0  0  0  0  0  0  0  0  0  0
   59.1730   34.1900   46.3940 C   0  0  0  0  0  0  0  0  0  0  0  0
   58.8310   34.2330   47.7600 C   0  0  0  0  0  0  0  0  0  0  0  0
   59.8070   34.0420   48.7410 C   0  0  0  0  0  0  0  0  0  0  0  0
   61.1380   33.7990   48.3750 C   0  0  0  0  0  0  0  0  0  0  0  0
   62.1250   33.6010   49.3520 C   0  0  0  0  0  0  0  0  0  0  0  0
   63.4510   33.3480   48.9780 C   0  0  0  0  0  0  0  0  0  0  0  0
   64.6870   33.0810   50.2110 S   0  0  0  0  0  0  0  0  0  0  0  0
   66.0320   32.9650   49.5480 O   0  0  0  0  0  0  0  0  0  0  0  0
   64.7280   34.2650   51.1360 O   0  0  0  0  0  0  0  0  0  0  0  0
   64.3730   31.6310   51.1330 N   0  0  0  0  0  0  0  0  0  0  0  0
   65.6020   30.8410   51.2530 C   0  0  0  0  0  0  0  0  0  0  0  0
   63.3220   30.8410   50.4780 C   0  0  0  0  0  0  0  0  0  0  0  0
   63.7930   33.2990   47.6200 C   0  0  0  0  0  0  0  0  0  0  0  0
   62.8180   33.4980   46.6390 C   0  0  0  0  0  0  0  0  0  0  0  0
   61.4880   33.7470   47.0060 C   0  0  0  0  0  0  0  0  0  0  0  0
   60.5020   33.9450   46.0280 C   0  0  0  0  0  0  0  0  0  0  0  0
   57.0320   26.9090   46.3550 C   0  0  0  0  0  0  0  0  0  0  0  0
   56.9710   25.5120   46.4110 C   0  0  0  0  0  0  0  0  0  0  0  0
   57.2724   22.9409   46.4332 H   0  0  0  0  0  0  0  0  0  0  0  0
   56.3721   22.8779   44.8801 H   0  0  0  0  0  0  0  0  0  0  0  0
   58.1677   22.8274   44.8801 H   0  0  0  0  0  0  0  0  0  0  0  0
   57.9950   24.7890   43.2257 H   0  0  0  0  0  0  0  0  0  0  0  0
   58.0877   27.2785   43.1179 H   0  0  0  0  0  0  0  0  0  0  0  0
   56.5665   29.4582   44.7531 H   0  0  0  0  0  0  0  0  0  0  0  0
   57.7306   29.4270   46.1458 H   0  0  0  0  0  0  0  0  0  0  0  0
   58.5500   28.9740   43.3580 H   0  0  0  0  0  0  0  0  0  0  0  0
   60.2643   28.2429   44.5220 H   0  0  0  0  0  0  0  0  0  0  0  0
   60.6493   30.0221   44.4665 H   0  0  0  0  0  0  0  0  0  0  0  0
   59.7939   31.4875   46.3997 H   0  0  0  0  0  0  0  0  0  0  0  0
   59.8410   31.6122   48.8919 H   0  0  0  0  0  0  0  0  0  0  0  0
   60.0690   29.5297   50.2460 H   0  0  0  0  0  0  0  0  0  0  0  0
   60.2194   27.3122   49.1112 H   0  0  0  0  0  0  0  0  0  0  0  0
   60.1913   27.1734   46.6205 H   0  0  0  0  0  0  0  0  0  0  0  0
   59.4067   31.2921   43.3971 H   0  0  0  0  0  0  0  0  0  0  0  0
   57.6157   30.8752   43.0423 H   0  0  0  0  0  0  0  0  0  0  0  0
   58.6493   31.9769   45.6180 H   0  0  0  0  0  0  0  0  0  0  0  0
   56.4140   32.3600   45.9560 H   0  0  0  0  0  0  0  0  0  0  0  0
   58.7977   33.5708   43.5476 H   0  0  0  0  0  0  0  0  0  0  0  0
   57.0200   33.7282   43.8290 H   0  0  0  0  0  0  0  0  0  0  0  0
   57.7880   34.4183   48.0562 H   0  0  0  0  0  0  0  0  0  0  0  0
   59.5299   34.0825   49.8048 H   0  0  0  0  0  0  0  0  0  0  0  0
   61.8562   33.6447   50.4177 H   0  0  0  0  0  0  0  0  0  0  0  0
   65.8380   30.6893   52.3166 H   0  0  0  0  0  0  0  0  0  0  0  0
   65.4595   29.8649   50.7662 H   0  0  0  0  0  0  0  0  0  0  0  0
   66.4308   31.3760   50.7662 H   0  0  0  0  0  0  0  0  0  0  0  0
   62.6900   30.3659   51.2428 H   0  0  0  0  0  0  0  0  0  0  0  0
   62.7048   31.5007   49.8504 H   0  0  0  0  0  0  0  0  0  0  0  0
   63.7841   30.0648   49.8504 H   0  0  0  0  0  0  0  0  0  0  0  0
   64.8343   33.1029   47.3247 H   0  0  0  0  0  0  0  0  0  0  0  0
   63.0949   33.4592   45.5751 H   0  0  0  0  0  0  0  0  0  0  0  0
   60.7756   33.9074   44.9632 H   0  0  0  0  0  0  0  0  0  0  0  0
   56.7556   27.5050   47.2373 H   0  0  0  0  0  0  0  0  0  0  0  0
   56.6456   25.0148   47.3367 H   0  0  0  0  0  0  0  0  0  0  0  0
  1  2  1  0
  2  3  2  0
  3  4  1  0
  4  5  2  0
  5  6  1  0
  6  7  1  0
  7  8  1  0
  8  9  1  0
  9 10  2  0
 10 11  1  0
 11 12  2  0
 12 13  1  0
 13 14  2  0
  7 15  1  0
 15 16  1  0
 16 17  1  0
 16 18  1  0
 18 19  1  0
 19 20  1  0
 20 21  2  0
 21 22  1  0
 22 23  2  0
 23 24  1  0
 24 25  2  0
 25 26  1  0
 26 27  2  0
 26 28  2  0
 26 29  1  0
 29 30  1  0
 29 31  1  0
 25 32  1  0
 32 33  2  0
 33 34  1  0
 34 35  2  0
  5 36  1  0
 36 37  2  0
 37  2  1  0
 14  9  1  0
 35 20  1  0
 34 23  1  0
  1 38  1  0
  1 39  1  0
  1 40  1  0
  3 41  1  0
  4 42  1  0
  6 43  1  0
  6 44  1  0
  7 45  1  6
  8 46  1  0
  8 47  1  0
 10 48  1  0
 11 49  1  0
 12 50  1  0
 13 51  1  0
 14 52  1  0
 15 53  1  0
 15 54  1  0
 16 55  1  1
 17 56  1  0
 18 57  1  0
 18 58  1  0
 21 59  1  0
 22 60  1  0
 24 61  1  0
 30 62  1  0
 30 63  1  0
 30 64  1  0
 31 65  1  0
 31 66  1  0
 31 67  1  0
 32 68  1  0
 33 69  1  0
 35 70  1  0
 36 71  1  0
 37 72  1  0
M  CHG  1   7   1
M  END
>  <UniqueID>  (36) 
32

>  <SMILES>  (36) 
Cc1ccc(C[N@H+](Cc2ccccc2)C[C@H](O)COc2ccc3cc(S(=O)(=O)N(C)C)ccc3c2)cc1

>  <Energy>  (36) 
87.89600971391758

>  <Genealogy>  (36) 
Cc1ccc(C[NH+](Cc2ccccc2)CC(O)COc2ccc3cc(S(=O)(=O)N(C)C)ccc3c2)cc1 (protonated)
Cc1ccc(C[N@H+](Cc2ccccc2)C[C@H](O)COc2ccc3cc(S(=O)(=O)N(C)C)ccc3c2)cc1 (chirality)
Cc1ccc(C[N@H+](Cc2ccccc2)C[C@H](O)COc2ccc3cc(S(=O)(=O)N(C)C)ccc3c2)cc1 (3D coordinates assigned)
Cc1ccc(C[N@H+](Cc2ccccc2)C[C@H](O)COc2ccc3cc(S(=O)(=O)N(C)C)ccc3c2)cc1 (optimized conformer: 87.89600971391758 kcal/mol)

>  <smiles>  (36) 
Cc1ccc(CN(Cc2ccccc2)CC(O)COc2ccc3cc(S(=O)(=O)N(C)C)ccc3c2)cc1

>  <score_type>  (36) 
oracle

>  <origin>  (36) 
adg

>  <m_score__min__energy>  (36) 
-9.1600000000000001

>  <m_primary>  (36) 
energy

$$$$
36:0
     RDKit          3D

 40 41  0  0  0  0  0  0  0  0999 V2000
   58.7200   31.8510   48.7310 N   0  0  0  0  0  0  0  0  0  0  0  0
   59.8180   30.5190   48.8220 S   0  0  0  0  0  0  0  0  0  0  0  0
   59.8110   29.9560   50.2150 O   0  0  0  0  0  0  0  0  0  0  0  0
   61.2080   30.9940   48.5010 O   0  0  0  0  0  0  0  0  0  0  0  0
   59.3300   29.2720   47.6790 C   0  0  0  0  0  0  0  0  0  0  0  0
   60.0220   28.0540   47.6200 C   0  0  0  0  0  0  0  0  0  0  0  0
   59.6580   27.0870   46.6800 C   0  0  0  0  0  0  0  0  0  0  0  0
   58.6040   27.3300   45.7960 C   0  0  0  0  0  0  0  0  0  0  0  0
   57.8970   28.5380   45.8500 C   0  0  0  0  0  0  0  0  0  0  0  0
   56.8740   28.7830   44.8770 N   0  0  0  0  0  0  0  0  0  0  0  0
   56.3890   30.0690   44.4760 C   0  0  0  0  0  0  0  0  0  0  0  0
   55.1500   30.2910   44.3980 O   0  0  0  0  0  0  0  0  0  0  0  0
   57.3680   31.1330   44.0820 C   0  0  0  0  0  0  0  0  0  0  0  0
   57.5060   32.2200   45.1580 C   0  0  0  0  0  0  0  0  0  0  0  0
   58.8750   32.3200   45.6740 N   0  0  0  0  0  0  0  0  0  0  0  0
   59.1850   33.8500   46.4490 S   0  0  0  0  0  0  0  0  0  0  0  0
   59.0640   34.9920   45.4770 O   0  0  0  0  0  0  0  0  0  0  0  0
   58.1810   34.0530   47.5480 O   0  0  0  0  0  0  0  0  0  0  0  0
   60.7980   33.8200   47.1560 C   0  0  0  0  0  0  0  0  0  0  0  0
   61.8970   33.4680   46.3590 C   0  0  0  0  0  0  0  0  0  0  0  0
   63.1820   33.4390   46.9080 C   0  0  0  0  0  0  0  0  0  0  0  0
   63.3780   33.7660   48.2520 C   0  0  0  0  0  0  0  0  0  0  0  0
   62.2860   34.1230   49.0500 C   0  0  0  0  0  0  0  0  0  0  0  0
   60.9980   34.1480   48.5050 C   0  0  0  0  0  0  0  0  0  0  0  0
   58.2760   29.5150   46.7890 C   0  0  0  0  0  0  0  0  0  0  0  0
   58.3870   31.9040   47.7430 H   0  0  0  0  0  0  0  0  0  0  0  0
   59.2770   32.7170   48.9090 H   0  0  0  0  0  0  0  0  0  0  0  0
   60.8524   27.8597   48.3147 H   0  0  0  0  0  0  0  0  0  0  0  0
   60.2024   26.1322   46.6358 H   0  0  0  0  0  0  0  0  0  0  0  0
   58.3275   26.5678   45.0527 H   0  0  0  0  0  0  0  0  0  0  0  0
   58.3514   30.6675   43.9203 H   0  0  0  0  0  0  0  0  0  0  0  0
   56.9963   31.6113   43.1638 H   0  0  0  0  0  0  0  0  0  0  0  0
   57.2207   33.1885   44.7214 H   0  0  0  0  0  0  0  0  0  0  0  0
   56.8485   31.9490   45.9972 H   0  0  0  0  0  0  0  0  0  0  0  0
   61.7473   33.2141   45.2992 H   0  0  0  0  0  0  0  0  0  0  0  0
   64.0407   33.1581   46.2806 H   0  0  0  0  0  0  0  0  0  0  0  0
   64.3901   33.7428   48.6823 H   0  0  0  0  0  0  0  0  0  0  0  0
   62.4403   34.3844   50.1073 H   0  0  0  0  0  0  0  0  0  0  0  0
   60.1404   34.4254   49.1355 H   0  0  0  0  0  0  0  0  0  0  0  0
   57.7412   30.4756   46.8244 H   0  0  0  0  0  0  0  0  0  0  0  0
  1  2  1  0
  2  3  2  0
  2  4  2  0
  2  5  1  0
  5  6  2  0
  6  7  1  0
  7  8  2  0
  8  9  1  0
  9 10  1  0
 10 11  1  0
 11 12  2  0
 11 13  1  0
 13 14  1  0
 14 15  1  0
 15 16  1  0
 16 17  2  0
 16 18  2  0
 16 19  1  0
 19 20  2  0
 20 21  1  0
 21 22  2  0
 22 23  1  0
 23 24  2  0
  9 25  2  0
 25  5  1  0
 24 19  1  0
  1 26  1  0
  1 27  1  0
  6 28  1  0
  7 29  1  0
  8 30  1  0
 13 31  1  0
 13 32  1  0
 14 33  1  0
 14 34  1  0
 20 35  1  0
 21 36  1  0
 22 37  1  0
 23 38  1  0
 24 39  1  0
 25 40  1  0
M  CHG  2  10  -1  15  -1
M  END
>  <UniqueID>  (37) 
33

>  <SMILES>  (37) 
NS(=O)(=O)c1cccc([N-]C(=O)CC[N-]S(=O)(=O)c2ccccc2)c1

>  <Energy>  (37) 
34.66711586745622

>  <Genealogy>  (37) 
NS(=O)(=O)c1cccc([N-]C(=O)CC[N-]S(=O)(=O)c2ccccc2)c1 (protonated)
NS(=O)(=O)c1cccc([N-]C(=O)CC[N-]S(=O)(=O)c2ccccc2)c1 (3D coordinates assigned)
NS(=O)(=O)c1cccc([N-]C(=O)CC[N-]S(=O)(=O)c2ccccc2)c1 (optimized conformer: 34.66711586745622 kcal/mol)

>  <smiles>  (37) 
NS(=O)(=O)c1cccc(NC(=O)CCNS(=O)(=O)c2ccccc2)c1

>  <score_type>  (37) 
oracle

>  <origin>  (37) 
adg

>  <m_score__min__energy>  (37) 
-12.17

>  <m_primary>  (37) 
energy

$$$$
37:0
     RDKit          3D

 24 25  0  0  0  0  0  0  0  0999 V2000
   54.4240   29.1430   52.2200 O   0  0  0  0  0  0  0  0  0  0  0  0
   54.3310   30.3950   52.3390 C   0  0  0  0  0  0  0  0  0  0  0  0
   55.4650   31.1730   52.7620 N   0  0  0  0  0  0  0  0  0  0  0  0
   56.6680   31.2270   52.2530 C   0  0  0  0  0  0  0  0  0  0  0  0
   57.4830   32.3760   52.3380 C   0  0  0  0  0  0  0  0  0  0  0  0
   58.7610   32.3570   51.7760 C   0  0  0  0  0  0  0  0  0  0  0  0
   59.2270   31.2050   51.1460 C   0  0  0  0  0  0  0  0  0  0  0  0
   60.4680   31.1770   50.5990 F   0  0  0  0  0  0  0  0  0  0  0  0
   58.4090   30.0780   51.0940 C   0  0  0  0  0  0  0  0  0  0  0  0
   57.1650   30.1080   51.6470 N   0  0  0  0  0  0  0  0  0  0  0  0
   53.0210   31.0560   52.1330 C   0  0  0  0  0  0  0  0  0  0  0  0
   52.1370   31.2490   53.2080 C   0  0  0  0  0  0  0  0  0  0  0  0
   50.9080   31.8780   52.9900 C   0  0  0  0  0  0  0  0  0  0  0  0
   50.5690   32.3020   51.7450 N   0  0  0  0  0  0  0  0  0  0  0  0
   51.4000   32.1330   50.6840 C   0  0  0  0  0  0  0  0  0  0  0  0
   51.0510   32.5400   49.5450 O   0  0  0  0  0  0  0  0  0  0  0  0
   52.6400   31.5090   50.8570 C   0  0  0  0  0  0  0  0  0  0  0  0
   57.1139   33.2805   52.8436 H   0  0  0  0  0  0  0  0  0  0  0  0
   59.3996   33.2510   51.8306 H   0  0  0  0  0  0  0  0  0  0  0  0
   58.7694   29.1611   50.6046 H   0  0  0  0  0  0  0  0  0  0  0  0
   56.5770   29.2460   51.5910 H   0  0  0  0  0  0  0  0  0  0  0  0
   52.4110   30.9065   54.2168 H   0  0  0  0  0  0  0  0  0  0  0  0
   50.2133   32.0301   53.8292 H   0  0  0  0  0  0  0  0  0  0  0  0
   53.3144   31.3731   49.9987 H   0  0  0  0  0  0  0  0  0  0  0  0
  1  2  2  0
  2  3  1  0
  3  4  2  3
  4  5  1  0
  5  6  2  0
  6  7  1  0
  7  8  1  0
  7  9  2  0
  9 10  1  0
  2 11  1  0
 11 12  1  0
 12 13  2  0
 13 14  1  0
 14 15  1  0
 15 16  2  0
 15 17  1  0
 10  4  1  0
 17 11  2  0
  5 18  1  0
  6 19  1  0
  9 20  1  0
 10 21  1  0
 12 22  1  0
 13 23  1  0
 17 24  1  0
M  CHG  1  14  -1
M  END
>  <UniqueID>  (38) 
34

>  <SMILES>  (38) 
O=C(N=c1ccc(F)c[nH]1)c1cc[n-]c(=O)c1

>  <Energy>  (38) 
34.81708292030217

>  <Genealogy>  (38) 
O=C(N=c1ccc(F)c[nH]1)c1cc[n-]c(=O)c1 (protonated)
O=C(N=c1ccc(F)c[nH]1)c1cc[n-]c(=O)c1 (3D coordinates assigned)
O=C(N=c1ccc(F)c[nH]1)c1cc[n-]c(=O)c1 (optimized conformer: 34.81708292030217 kcal/mol)

>  <smiles>  (38) 
O=C(N=c1ccc(F)c[nH]1)c1cc[nH]c(=O)c1

>  <score_type>  (38) 
oracle

>  <origin>  (38) 
adg

>  <m_score__min__energy>  (38) 
-8.7200000000000006

>  <m_primary>  (38) 
energy

$$$$
38:0
     RDKit          3D

 37 39  0  0  0  0  0  0  0  0999 V2000
   54.3580   30.0150   50.9890 O   0  0  0  0  0  0  0  0  0  0  0  0
   53.8630   30.4320   52.0710 C   0  0  0  0  0  0  0  0  0  0  0  0
   52.3810   30.4300   52.2600 C   0  0  0  0  0  0  0  0  0  0  0  0
   51.7040   30.8460   50.9930 C   0  0  0  0  0  0  0  0  0  0  0  0
   51.6420   30.0850   49.8860 N   0  0  0  0  0  0  0  0  0  0  0  0
   51.0080   30.8810   48.9980 C   0  0  0  0  0  0  0  0  0  0  0  0
   50.7520   30.5150   47.8220 O   0  0  0  0  0  0  0  0  0  0  0  0
   50.6740   32.1020   49.4680 N   0  0  0  0  0  0  0  0  0  0  0  0
   51.1280   32.0650   50.7310 C   0  0  0  0  0  0  0  0  0  0  0  0
   51.0230   33.1250   51.6220 O   0  0  0  0  0  0  0  0  0  0  0  0
   54.7120   30.8660   53.1350 N   0  0  0  0  0  0  0  0  0  0  0  0
   56.2680   30.1640   53.4260 S   0  0  0  0  0  0  0  0  0  0  0  0
   56.1560   28.6690   53.3130 O   0  0  0  0  0  0  0  0  0  0  0  0
   56.7210   30.5210   54.8130 O   0  0  0  0  0  0  0  0  0  0  0  0
   57.4340   30.7850   52.2620 C   0  0  0  0  0  0  0  0  0  0  0  0
   58.1670   29.9070   51.4550 C   0  0  0  0  0  0  0  0  0  0  0  0
   59.0920   30.4050   50.5320 C   0  0  0  0  0  0  0  0  0  0  0  0
   59.2970   31.7910   50.4040 C   0  0  0  0  0  0  0  0  0  0  0  0
   60.2770   32.3220   49.4230 C   0  0  0  0  0  0  0  0  0  0  0  0
   59.9730   33.4590   48.6500 C   0  0  0  0  0  0  0  0  0  0  0  0
   60.8980   33.9560   47.7260 C   0  0  0  0  0  0  0  0  0  0  0  0
   62.1330   33.3260   47.5610 C   0  0  0  0  0  0  0  0  0  0  0  0
   63.2910   33.9530   46.4020 Cl  0  0  0  0  0  0  0  0  0  0  0  0
   62.4470   32.1960   48.3210 C   0  0  0  0  0  0  0  0  0  0  0  0
   61.5260   31.6950   49.2470 C   0  0  0  0  0  0  0  0  0  0  0  0
   58.5600   32.6660   51.2220 C   0  0  0  0  0  0  0  0  0  0  0  0
   57.6370   32.1650   52.1460 C   0  0  0  0  0  0  0  0  0  0  0  0
   52.0500   29.4176   52.5346 H   0  0  0  0  0  0  0  0  0  0  0  0
   52.1177   31.1379   53.0597 H   0  0  0  0  0  0  0  0  0  0  0  0
   58.0149   28.8215   51.5472 H   0  0  0  0  0  0  0  0  0  0  0  0
   59.6635   29.7080   49.9014 H   0  0  0  0  0  0  0  0  0  0  0  0
   59.0014   33.9598   48.7736 H   0  0  0  0  0  0  0  0  0  0  0  0
   60.6518   34.8456   47.1277 H   0  0  0  0  0  0  0  0  0  0  0  0
   63.4200   31.6997   48.1908 H   0  0  0  0  0  0  0  0  0  0  0  0
   61.7789   30.8050   49.8420 H   0  0  0  0  0  0  0  0  0  0  0  0
   58.7105   33.7521   51.1346 H   0  0  0  0  0  0  0  0  0  0  0  0
   57.0687   32.8581   52.7837 H   0  0  0  0  0  0  0  0  0  0  0  0
  1  2  2  0
  2  3  1  0
  3  4  1  0
  4  5  1  0
  5  6  1  0
  6  7  2  0
  6  8  1  0
  8  9  1  0
  9 10  1  0
  2 11  1  0
 11 12  1  0
 12 13  2  0
 12 14  2  0
 12 15  1  0
 15 16  2  0
 16 17  1  0
 17 18  2  0
 18 19  1  0
 19 20  2  0
 20 21  1  0
 21 22  2  0
 22 23  1  0
 22 24  1  0
 24 25  2  0
 18 26  1  0
 26 27  2  0
  9  4  2  0
 27 15  1  0
 25 19  1  0
  3 28  1  0
  3 29  1  0
 16 30  1  0
 17 31  1  0
 20 32  1  0
 21 33  1  0
 24 34  1  0
 25 35  1  0
 26 36  1  0
 27 37  1  0
M  CHG  4   5  -1   8  -1  10  -1  11  -1
M  END
>  <UniqueID>  (39) 
35

>  <SMILES>  (39) 
O=C(Cc1[n-]c(=O)[n-]c1[O-])[N-]S(=O)(=O)c1ccc(-c2ccc(Cl)cc2)cc1

>  <Energy>  (39) 
73.79261584792027

>  <Genealogy>  (39) 
O=C(Cc1[n-]c(=O)[n-]c1[O-])[N-]S(=O)(=O)c1ccc(-c2ccc(Cl)cc2)cc1 (protonated)
O=C(Cc1[n-]c(=O)[n-]c1[O-])[N-]S(=O)(=O)c1ccc(-c2ccc(Cl)cc2)cc1 (3D coordinates assigned)
O=C(Cc1[n-]c(=O)[n-]c1[O-])[N-]S(=O)(=O)c1ccc(-c2ccc(Cl)cc2)cc1 (optimized conformer: 73.79261584792027 kcal/mol)

>  <smiles>  (39) 
O=C(Cc1[nH]c(=O)[nH]c1O)NS(=O)(=O)c1ccc(-c2ccc(Cl)cc2)cc1

>  <score_type>  (39) 
oracle

>  <origin>  (39) 
adg

>  <m_score__min__energy>  (39) 
-18.170000000000002

>  <m_primary>  (39) 
energy

$$$$
39:0
     RDKit          3D

 72 75  0  0  0  0  0  0  0  0999 V2000
   62.0000   33.7710   53.4460 C   0  0  0  0  0  0  0  0  0  0  0  0
   62.0060   32.6010   52.5660 N   0  0  0  0  0  0  0  0  0  0  0  0
   61.4200   32.9320   51.2910 C   0  0  0  0  0  0  0  0  0  0  0  0
   62.0970   32.6360   50.0970 C   0  0  0  0  0  0  0  0  0  0  0  0
   61.5240   32.9480   48.8600 C   0  0  0  0  0  0  0  0  0  0  0  0
   60.2580   33.5570   48.7930 C   0  0  0  0  0  0  0  0  0  0  0  0
   59.6550   33.9040   47.4790 C   0  0  0  0  0  0  0  0  0  0  0  0
   60.1930   34.9440   46.7010 C   0  0  0  0  0  0  0  0  0  0  0  0
   59.6190   35.2780   45.4730 C   0  0  0  0  0  0  0  0  0  0  0  0
   58.5060   34.5800   45.0030 C   0  0  0  0  0  0  0  0  0  0  0  0
   57.9600   33.5300   45.7570 C   0  0  0  0  0  0  0  0  0  0  0  0
   56.7510   32.7850   45.2530 C   0  0  0  0  0  0  0  0  0  0  0  0
   57.1280   31.8140   44.2240 N   0  0  0  0  0  0  0  0  0  0  0  0
   57.5280   30.4560   44.4900 C   0  0  0  0  0  0  0  0  0  0  0  0
   58.8920   30.1270   44.4710 C   0  0  0  0  0  0  0  0  0  0  0  0
   59.3140   28.8180   44.7210 C   0  0  0  0  0  0  0  0  0  0  0  0
   58.3760   27.8130   44.9950 C   0  0  0  0  0  0  0  0  0  0  0  0
   58.8260   26.3900   45.2110 C   0  0  0  0  0  0  0  0  0  0  0  0
   58.4620   25.8840   46.6130 C   0  0  0  0  0  0  0  0  0  0  0  0
   58.4310   27.0060   47.5700 N   0  0  0  0  0  0  0  0  0  0  0  0
   59.7680   27.5790   47.7770 C   0  0  0  0  0  0  0  0  0  0  0  0
   59.6630   29.0990   48.0060 C   0  0  1  0  0  0  0  0  0  0  0  0
   58.4190   29.5900   47.5780 O   0  0  0  0  0  0  0  0  0  0  0  0
   59.9120   29.4740   49.4560 C   0  0  0  0  0  0  0  0  0  0  0  0
   58.8940   30.0810   50.2080 C   0  0  0  0  0  0  0  0  0  0  0  0
   59.1100   30.4260   51.5430 C   0  0  0  0  0  0  0  0  0  0  0  0
   60.3400   30.1600   52.1520 C   0  0  0  0  0  0  0  0  0  0  0  0
   60.5340   30.5350   53.4770 O   0  0  0  0  0  0  0  0  0  0  0  0
   61.3660   29.5260   51.4260 C   0  0  0  0  0  0  0  0  0  0  0  0
   62.7140   29.2820   52.0650 C   0  0  0  0  0  0  0  0  0  0  0  0
   62.9790   30.2080   53.0860 O   0  0  0  0  0  0  0  0  0  0  0  0
   61.1500   29.2070   50.0730 C   0  0  0  0  0  0  0  0  0  0  0  0
   57.0110   28.1330   45.0100 C   0  0  0  0  0  0  0  0  0  0  0  0
   56.5880   29.4430   44.7620 C   0  0  0  0  0  0  0  0  0  0  0  0
   58.5310   33.2060   46.9990 C   0  0  0  0  0  0  0  0  0  0  0  0
   59.5730   33.8340   49.9920 C   0  0  0  0  0  0  0  0  0  0  0  0
   60.1480   33.5220   51.2260 C   0  0  0  0  0  0  0  0  0  0  0  0
   62.0017   33.4407   54.4952 H   0  0  0  0  0  0  0  0  0  0  0  0
   62.8950   34.3803   53.2520 H   0  0  0  0  0  0  0  0  0  0  0  0
   61.0988   34.3711   53.2520 H   0  0  0  0  0  0  0  0  0  0  0  0
   62.9920   32.2750   52.4320 H   0  0  0  0  0  0  0  0  0  0  0  0
   61.4690   31.8240   53.0200 H   0  0  0  0  0  0  0  0  0  0  0  0
   63.0856   32.1551   50.1349 H   0  0  0  0  0  0  0  0  0  0  0  0
   62.0676   32.7153   47.9324 H   0  0  0  0  0  0  0  0  0  0  0  0
   61.0719   35.4982   47.0621 H   0  0  0  0  0  0  0  0  0  0  0  0
   60.0461   36.0952   44.8732 H   0  0  0  0  0  0  0  0  0  0  0  0
   58.0549   34.8538   44.0378 H   0  0  0  0  0  0  0  0  0  0  0  0
   56.2786   32.2547   46.0930 H   0  0  0  0  0  0  0  0  0  0  0  0
   56.0496   33.5093   44.8131 H   0  0  0  0  0  0  0  0  0  0  0  0
   57.0930   32.1360   43.2300 H   0  0  0  0  0  0  0  0  0  0  0  0
   59.6371   30.9075   44.2571 H   0  0  0  0  0  0  0  0  0  0  0  0
   60.3868   28.5755   44.7026 H   0  0  0  0  0  0  0  0  0  0  0  0
   58.3410   25.7457   44.4629 H   0  0  0  0  0  0  0  0  0  0  0  0
   59.9209   26.3585   45.1096 H   0  0  0  0  0  0  0  0  0  0  0  0
   57.4713   25.4070   46.5808 H   0  0  0  0  0  0  0  0  0  0  0  0
   59.2200   25.1565   46.9389 H   0  0  0  0  0  0  0  0  0  0  0  0
   57.8170   27.7600   47.1800 H   0  0  0  0  0  0  0  0  0  0  0  0
   60.2327   27.1098   48.6567 H   0  0  0  0  0  0  0  0  0  0  0  0
   60.3824   27.3910   46.8842 H   0  0  0  0  0  0  0  0  0  0  0  0
   60.4519   29.5695   47.4007 H   0  0  0  0  0  0  0  0  0  0  0  0
   57.7140   29.0030   47.9540 H   0  0  0  0  0  0  0  0  0  0  0  0
   57.9190   30.2862   49.7418 H   0  0  0  0  0  0  0  0  0  0  0  0
   58.3078   30.9100   52.1194 H   0  0  0  0  0  0  0  0  0  0  0  0
   62.7285   28.2678   52.4908 H   0  0  0  0  0  0  0  0  0  0  0  0
   63.4866   29.3949   51.2902 H   0  0  0  0  0  0  0  0  0  0  0  0
   62.1510   30.2800   53.6310 H   0  0  0  0  0  0  0  0  0  0  0  0
   61.9585   28.7429   49.4891 H   0  0  0  0  0  0  0  0  0  0  0  0
   56.2681   27.3489   45.2181 H   0  0  0  0  0  0  0  0  0  0  0  0
   55.5148   29.6835   44.7795 H   0  0  0  0  0  0  0  0  0  0  0  0
   58.0945   32.3973   47.6035 H   0  0  0  0  0  0  0  0  0  0  0  0
   58.5771   34.2998   49.9563 H   0  0  0  0  0  0  0  0  0  0  0  0
   59.5997   33.7404   52.1543 H   0  0  0  0  0  0  0  0  0  0  0  0
  1  2  1  0
  2  3  1  0
  3  4  2  0
  4  5  1  0
  5  6  2  0
  6  7  1  0
  7  8  2  0
  8  9  1  0
  9 10  2  0
 10 11  1  0
 11 12  1  0
 12 13  1  0
 13 14  1  0
 14 15  2  0
 15 16  1  0
 16 17  2  0
 17 18  1  0
 18 19  1  0
 19 20  1  0
 20 21  1  0
 21 22  1  0
 22 23  1  0
 22 24  1  0
 24 25  2  0
 25 26  1  0
 26 27  2  0
 27 28  1  0
 27 29  1  0
 29 30  1  0
 30 31  1  0
 29 32  2  0
 17 33  1  0
 33 34  2  0
 11 35  2  0
  6 36  1  0
 36 37  2  0
 37  3  1  0
 35  7  1  0
 34 14  1  0
 32 24  1  0
  1 38  1  0
  1 39  1  0
  1 40  1  0
  2 41  1  0
  2 42  1  0
  4 43  1  0
  5 44  1  0
  8 45  1  0
  9 46  1  0
 10 47  1  0
 12 48  1  0
 12 49  1  0
 13 50  1  0
 15 51  1  0
 16 52  1  0
 18 53  1  0
 18 54  1  0
 19 55  1  0
 19 56  1  0
 20 57  1  0
 21 58  1  0
 21 59  1  0
 22 60  1  6
 23 61  1  0
 25 62  1  0
 26 63  1  0
 30 64  1  0
 30 65  1  0
 31 66  1  0
 32 67  1  0
 33 68  1  0
 34 69  1  0
 35 70  1  0
 36 71  1  0
 37 72  1  0
M  CHG  2   2   1  28  -1
M  END
>  <UniqueID>  (40) 
36

>  <SMILES>  (40) 
C[NH2+]c1ccc(-c2cccc(CNc3ccc(CCNC[C@@H](O)c4ccc([O-])c(CO)c4)cc3)c2)cc1

>  <Energy>  (40) 
77.33433092768242

>  <Genealogy>  (40) 
C[NH2+]c1ccc(-c2cccc(CNc3ccc(CCNCC(O)c4ccc([O-])c(CO)c4)cc3)c2)cc1 (protonated)
C[NH2+]c1ccc(-c2cccc(CNc3ccc(CCNC[C@@H](O)c4ccc([O-])c(CO)c4)cc3)c2)cc1 (chirality)
C[NH2+]c1ccc(-c2cccc(CNc3ccc(CCNC[C@@H](O)c4ccc([O-])c(CO)c4)cc3)c2)cc1 (3D coordinates assigned)
C[NH2+]c1ccc(-c2cccc(CNc3ccc(CCNC[C@@H](O)c4ccc([O-])c(CO)c4)cc3)c2)cc1 (optimized conformer: 77.33433092768242 kcal/mol)

>  <smiles>  (40) 
CNc1ccc(-c2cccc(CNc3ccc(CCNCC(O)c4ccc(O)c(CO)c4)cc3)c2)cc1

>  <score_type>  (40) 
oracle

>  <origin>  (40) 
adg

>  <m_score__min__energy>  (40) 
-11.119999999999999

>  <m_primary>  (40) 
energy

$$$$
40:0
     RDKit          3D

 51 53  0  0  0  0  0  0  0  0999 V2000
   55.5300   29.3140   44.9590 O   0  0  0  0  0  0  0  0  0  0  0  0
   56.6700   29.6650   44.5560 C   0  0  0  0  0  0  0  0  0  0  0  0
   56.7590   30.6730   43.5400 N   0  0  0  0  0  0  0  0  0  0  0  0
   57.4000   31.9800   43.6740 C   0  0  0  0  0  0  0  0  0  0  0  0
   58.0580   32.1550   45.0460 C   0  0  0  0  0  0  0  0  0  0  0  0
   57.6630   33.7280   45.8020 S   0  0  0  0  0  0  0  0  0  0  0  0
   56.7920   34.5360   44.8840 O   0  0  0  0  0  0  0  0  0  0  0  0
   56.8980   33.4660   47.0680 O   0  0  0  0  0  0  0  0  0  0  0  0
   59.1180   34.5870   46.2110 N   0  0  0  0  0  0  0  0  0  0  0  0
   59.9550   34.3300   47.3450 C   0  0  0  0  0  0  0  0  0  0  0  0
   59.7130   34.9300   48.4250 O   0  0  0  0  0  0  0  0  0  0  0  0
   61.0990   33.4000   47.2890 C   0  0  0  0  0  0  0  0  0  0  0  0
   62.3580   33.8840   46.9080 C   0  0  0  0  0  0  0  0  0  0  0  0
   63.4540   33.0210   46.8370 C   0  0  0  0  0  0  0  0  0  0  0  0
   63.2950   31.6660   47.1270 C   0  0  0  0  0  0  0  0  0  0  0  0
   62.0380   31.1660   47.4740 C   0  0  0  0  0  0  0  0  0  0  0  0
   60.9220   32.0240   47.5420 C   0  0  0  0  0  0  0  0  0  0  0  0
   59.6340   31.5530   47.8520 O   0  0  0  0  0  0  0  0  0  0  0  0
   59.2920   30.7580   48.9880 C   0  0  0  0  0  0  0  0  0  0  0  0
   58.8950   31.6300   50.1500 C   0  0  0  0  0  0  0  0  0  0  0  0
   59.6460   32.7710   50.4770 C   0  0  0  0  0  0  0  0  0  0  0  0
   59.2650   33.5810   51.5510 C   0  0  0  0  0  0  0  0  0  0  0  0
   58.1270   33.2630   52.2990 C   0  0  0  0  0  0  0  0  0  0  0  0
   57.3670   32.1370   51.9730 C   0  0  0  0  0  0  0  0  0  0  0  0
   56.2610   31.8320   52.6950 F   0  0  0  0  0  0  0  0  0  0  0  0
   57.7450   31.3240   50.8980 C   0  0  0  0  0  0  0  0  0  0  0  0
   57.8650   29.0440   45.1560 C   0  0  0  0  0  0  0  0  0  0  0  0
   57.8000   28.4280   46.4160 C   0  0  0  0  0  0  0  0  0  0  0  0
   58.9430   27.8520   46.9800 C   0  0  0  0  0  0  0  0  0  0  0  0
   60.1610   27.8990   46.2950 C   0  0  0  0  0  0  0  0  0  0  0  0
   60.2390   28.5310   45.0500 C   0  0  0  0  0  0  0  0  0  0  0  0
   59.0980   29.1090   44.4850 C   0  0  0  0  0  0  0  0  0  0  0  0
   58.1700   32.0801   42.8949 H   0  0  0  0  0  0  0  0  0  0  0  0
   56.6246   32.7528   43.5665 H   0  0  0  0  0  0  0  0  0  0  0  0
   57.7111   31.3485   45.7087 H   0  0  0  0  0  0  0  0  0  0  0  0
   59.1477   32.1193   44.9002 H   0  0  0  0  0  0  0  0  0  0  0  0
   62.4836   34.9491   46.6636 H   0  0  0  0  0  0  0  0  0  0  0  0
   64.4427   33.4101   46.5523 H   0  0  0  0  0  0  0  0  0  0  0  0
   64.1615   30.9898   47.0823 H   0  0  0  0  0  0  0  0  0  0  0  0
   61.9182   30.0953   47.6957 H   0  0  0  0  0  0  0  0  0  0  0  0
   58.4505   30.0993   48.7272 H   0  0  0  0  0  0  0  0  0  0  0  0
   60.1693   30.1612   49.2781 H   0  0  0  0  0  0  0  0  0  0  0  0
   60.5373   33.0283   49.8859 H   0  0  0  0  0  0  0  0  0  0  0  0
   59.8609   34.4692   51.8079 H   0  0  0  0  0  0  0  0  0  0  0  0
   57.8299   33.9002   53.1450 H   0  0  0  0  0  0  0  0  0  0  0  0
   57.1401   30.4429   50.6378 H   0  0  0  0  0  0  0  0  0  0  0  0
   56.8456   28.3982   46.9622 H   0  0  0  0  0  0  0  0  0  0  0  0
   58.8837   27.3618   47.9629 H   0  0  0  0  0  0  0  0  0  0  0  0
   61.0578   27.4389   46.7354 H   0  0  0  0  0  0  0  0  0  0  0  0
   61.1990   28.5735   44.5146 H   0  0  0  0  0  0  0  0  0  0  0  0
   59.1658   29.6166   43.5115 H   0  0  0  0  0  0  0  0  0  0  0  0
  1  2  2  0
  2  3  1  0
  3  4  1  0
  4  5  1  0
  5  6  1  0
  6  7  2  0
  6  8  2  0
  6  9  1  0
  9 10  1  0
 10 11  2  0
 10 12  1  0
 12 13  2  0
 13 14  1  0
 14 15  2  0
 15 16  1  0
 16 17  2  0
 17 18  1  0
 18 19  1  0
 19 20  1  0
 20 21  2  0
 21 22  1  0
 22 23  2  0
 23 24  1  0
 24 25  1  0
 24 26  2  0
  2 27  1  0
 27 28  2  0
 28 29  1  0
 29 30  2  0
 30 31  1  0
 31 32  2  0
 17 12  1  0
 26 20  1  0
 32 27  1  0
  4 33  1  0
  4 34  1  0
  5 35  1  0
  5 36  1  0
 13 37  1  0
 14 38  1  0
 15 39  1  0
 16 40  1  0
 19 41  1  0
 19 42  1  0
 21 43  1  0
 22 44  1  0
 23 45  1  0
 26 46  1  0
 28 47  1  0
 29 48  1  0
 30 49  1  0
 31 50  1  0
 32 51  1  0
M  CHG  2   3  -1   9  -1
M  END
>  <UniqueID>  (41) 
37

>  <SMILES>  (41) 
O=C([N-]CCS(=O)(=O)[N-]C(=O)c1ccccc1OCc1cccc(F)c1)c1ccccc1

>  <Energy>  (41) 
59.86220768987633

>  <Genealogy>  (41) 
O=C([N-]CCS(=O)(=O)[N-]C(=O)c1ccccc1OCc1cccc(F)c1)c1ccccc1 (protonated)
O=C([N-]CCS(=O)(=O)[N-]C(=O)c1ccccc1OCc1cccc(F)c1)c1ccccc1 (3D coordinates assigned)
O=C([N-]CCS(=O)(=O)[N-]C(=O)c1ccccc1OCc1cccc(F)c1)c1ccccc1 (optimized conformer: 59.86220768987633 kcal/mol)

>  <smiles>  (41) 
O=C(NCCS(=O)(=O)NC(=O)c1ccccc1OCc1cccc(F)c1)c1ccccc1

>  <score_type>  (41) 
oracle

>  <origin>  (41) 
adg

>  <m_score__min__energy>  (41) 
-13.75

>  <m_primary>  (41) 
energy

$$$$
41:0
     RDKit          3D

 47 49  0  0  0  0  0  0  0  0999 V2000
   58.3910   27.0960   46.4310 C   0  0  0  0  0  0  0  0  0  0  0  0
   57.8130   28.3930   46.5400 O   0  0  0  0  0  0  0  0  0  0  0  0
   57.5310   29.2360   45.4520 C   0  0  0  0  0  0  0  0  0  0  0  0
   56.2480   29.2930   44.8710 C   0  0  0  0  0  0  0  0  0  0  0  0
   56.0020   30.1310   43.7820 C   0  0  0  0  0  0  0  0  0  0  0  0
   57.0280   30.9160   43.2570 C   0  0  0  0  0  0  0  0  0  0  0  0
   58.3040   30.8700   43.8220 C   0  0  0  0  0  0  0  0  0  0  0  0
   58.5630   30.0430   44.9280 C   0  0  0  0  0  0  0  0  0  0  0  0
   59.9550   29.9780   45.4990 C   0  0  0  0  0  0  0  0  0  0  0  0
   59.9060   30.1910   46.9440 N   0  0  0  0  0  0  0  0  0  0  0  0
   60.9380   30.8780   47.6660 C   0  0  0  0  0  0  0  0  0  0  0  0
   62.0330   31.1560   47.1050 O   0  0  0  0  0  0  0  0  0  0  0  0
   60.7210   31.2760   49.1020 C   0  0  2  0  0  0  0  0  0  0  0  0
   60.2970   30.0590   49.9610 C   0  0  0  0  0  0  0  0  0  0  0  0
   58.8170   30.2520   50.3200 C   0  0  0  0  0  0  0  0  0  0  0  0
   58.5470   31.6420   49.9020 C   0  0  0  0  0  0  0  0  0  0  0  0
   57.4700   32.2480   50.1470 O   0  0  0  0  0  0  0  0  0  0  0  0
   59.6260   32.2280   49.1980 N   0  0  0  0  0  0  0  0  0  0  0  0
   59.6950   33.6270   48.7700 C   0  0  0  0  0  0  0  0  0  0  0  0
   59.1010   33.7860   47.3960 C   0  0  0  0  0  0  0  0  0  0  0  0
   57.8140   33.2960   47.1200 C   0  0  0  0  0  0  0  0  0  0  0  0
   57.2470   33.4730   45.8540 C   0  0  0  0  0  0  0  0  0  0  0  0
   57.9610   34.1420   44.8550 C   0  0  0  0  0  0  0  0  0  0  0  0
   59.2430   34.6320   45.1210 C   0  0  0  0  0  0  0  0  0  0  0  0
   59.8120   34.4560   46.3860 C   0  0  0  0  0  0  0  0  0  0  0  0
   58.5721   26.6896   47.4370 H   0  0  0  0  0  0  0  0  0  0  0  0
   57.7033   26.4327   45.8859 H   0  0  0  0  0  0  0  0  0  0  0  0
   59.3440   27.1639   45.8859 H   0  0  0  0  0  0  0  0  0  0  0  0
   55.4356   28.6733   45.2783 H   0  0  0  0  0  0  0  0  0  0  0  0
   54.9968   30.1722   43.3371 H   0  0  0  0  0  0  0  0  0  0  0  0
   56.8318   31.5725   42.3964 H   0  0  0  0  0  0  0  0  0  0  0  0
   59.1117   31.4851   43.3986 H   0  0  0  0  0  0  0  0  0  0  0  0
   60.3901   28.9896   45.2898 H   0  0  0  0  0  0  0  0  0  0  0  0
   60.5749   30.7603   45.0367 H   0  0  0  0  0  0  0  0  0  0  0  0
   59.0280   29.9240   47.4450 H   0  0  0  0  0  0  0  0  0  0  0  0
   61.6702   31.7012   49.4601 H   0  0  0  0  0  0  0  0  0  0  0  0
   60.4279   29.1291   49.3881 H   0  0  0  0  0  0  0  0  0  0  0  0
   60.9135   29.9876   50.8692 H   0  0  0  0  0  0  0  0  0  0  0  0
   58.1816   29.5437   49.7681 H   0  0  0  0  0  0  0  0  0  0  0  0
   58.6043   30.0725   51.3842 H   0  0  0  0  0  0  0  0  0  0  0  0
   59.1348   34.2516   49.4814 H   0  0  0  0  0  0  0  0  0  0  0  0
   60.7493   33.9394   48.7410 H   0  0  0  0  0  0  0  0  0  0  0  0
   57.2490   32.7702   47.9038 H   0  0  0  0  0  0  0  0  0  0  0  0
   56.2390   33.0858   45.6440 H   0  0  0  0  0  0  0  0  0  0  0  0
   57.5139   34.2827   43.8598 H   0  0  0  0  0  0  0  0  0  0  0  0
   59.8048   35.1567   44.3341 H   0  0  0  0  0  0  0  0  0  0  0  0
   60.8207   34.8437   46.5915 H   0  0  0  0  0  0  0  0  0  0  0  0
  1  2  1  0
  2  3  1  0
  3  4  2  0
  4  5  1  0
  5  6  2  0
  6  7  1  0
  7  8  2  0
  8  9  1  0
  9 10  1  0
 10 11  1  0
 11 12  2  0
 11 13  1  0
 13 14  1  0
 14 15  1  0
 15 16  1  0
 16 17  2  0
 16 18  1  0
 18 19  1  0
 19 20  1  0
 20 21  2  0
 21 22  1  0
 22 23  2  0
 23 24  1  0
 24 25  2  0
  8  3  1  0
 18 13  1  0
 25 20  1  0
  1 26  1  0
  1 27  1  0
  1 28  1  0
  4 29  1  0
  5 30  1  0
  6 31  1  0
  7 32  1  0
  9 33  1  0
  9 34  1  0
 10 35  1  0
 13 36  1  1
 14 37  1  0
 14 38  1  0
 15 39  1  0
 15 40  1  0
 19 41  1  0
 19 42  1  0
 21 43  1  0
 22 44  1  0
 23 45  1  0
 24 46  1  0
 25 47  1  0
M  END
>  <UniqueID>  (42) 
38

>  <SMILES>  (42) 
COc1ccccc1CNC(=O)[C@@H]1CCC(=O)N1Cc1ccccc1

>  <Energy>  (42) 
48.99283859441361

>  <Genealogy>  (42) 
COc1ccccc1CNC(=O)[C@@H]1CCC(=O)N1Cc1ccccc1 (chirality)
COc1ccccc1CNC(=O)[C@@H]1CCC(=O)N1Cc1ccccc1 (3D coordinates assigned)
COc1ccccc1CNC(=O)[C@@H]1CCC(=O)N1Cc1ccccc1 (nonaromatic ring conformer: 48.99283859441361 kcal/mol)

>  <smiles>  (42) 
COc1ccccc1CNC(=O)C1CCC(=O)N1Cc1ccccc1

>  <score_type>  (42) 
oracle

>  <origin>  (42) 
adg

>  <m_score__min__energy>  (42) 
-7.8499999999999996

>  <m_primary>  (42) 
energy

$$$$
42:0
     RDKit          3D

 39 40  0  0  0  0  0  0  0  0999 V2000
   57.6180   25.9360   44.6810 C   0  0  0  0  0  0  0  0  0  0  0  0
   56.5930   26.7450   45.8920 S   0  0  0  0  0  0  0  0  0  0  0  0
   57.4070   27.0680   47.1130 O   0  0  0  0  0  0  0  0  0  0  0  0
   55.4820   25.8160   46.2910 O   0  0  0  0  0  0  0  0  0  0  0  0
   55.8950   28.1950   45.2420 N   0  0  0  0  0  0  0  0  0  0  0  0
   56.6060   29.4250   45.0590 C   0  0  0  0  0  0  0  0  0  0  0  0
   55.9890   30.4210   44.5990 O   0  0  0  0  0  0  0  0  0  0  0  0
   58.0360   29.5530   45.3850 C   0  0  0  0  0  0  0  0  0  0  0  0
   59.0060   29.0090   44.5320 C   0  0  0  0  0  0  0  0  0  0  0  0
   60.3610   29.1380   44.8400 C   0  0  0  0  0  0  0  0  0  0  0  0
   60.7580   29.7980   46.0060 C   0  0  0  0  0  0  0  0  0  0  0  0
   59.7960   30.3340   46.8830 C   0  0  0  0  0  0  0  0  0  0  0  0
   60.1620   31.0090   48.0990 N   0  0  0  0  0  0  0  0  0  0  0  0
   61.3620   32.2590   48.2040 S   0  0  0  0  0  0  0  0  0  0  0  0
   62.4100   32.0520   47.1460 O   0  0  0  0  0  0  0  0  0  0  0  0
   62.0220   32.1830   49.5520 O   0  0  0  0  0  0  0  0  0  0  0  0
   60.6110   33.8700   48.0230 C   0  0  0  0  0  0  0  0  0  0  0  0
   59.5490   33.8400   46.9570 C   0  0  0  0  0  0  0  0  0  0  0  0
   58.2280   33.4840   47.2770 C   0  0  0  0  0  0  0  0  0  0  0  0
   57.2430   33.4710   46.2840 C   0  0  0  0  0  0  0  0  0  0  0  0
   57.5650   33.8310   44.9730 C   0  0  0  0  0  0  0  0  0  0  0  0
   58.8740   34.1970   44.6500 C   0  0  0  0  0  0  0  0  0  0  0  0
   59.8640   34.2010   45.6370 C   0  0  0  0  0  0  0  0  0  0  0  0
   58.4360   30.1910   46.5680 C   0  0  0  0  0  0  0  0  0  0  0  0
   58.3826   25.3325   45.1921 H   0  0  0  0  0  0  0  0  0  0  0  0
   56.9958   25.2829   44.0515 H   0  0  0  0  0  0  0  0  0  0  0  0
   58.1087   26.6929   44.0515 H   0  0  0  0  0  0  0  0  0  0  0  0
   58.6987   28.4794   43.6182 H   0  0  0  0  0  0  0  0  0  0  0  0
   61.1193   28.7186   44.1625 H   0  0  0  0  0  0  0  0  0  0  0  0
   61.8281   29.8993   46.2399 H   0  0  0  0  0  0  0  0  0  0  0  0
   59.6120   30.8180   48.9660 H   0  0  0  0  0  0  0  0  0  0  0  0
   60.1556   34.1666   48.9794 H   0  0  0  0  0  0  0  0  0  0  0  0
   61.3868   34.5934   47.7318 H   0  0  0  0  0  0  0  0  0  0  0  0
   57.9677   33.2148   48.3113 H   0  0  0  0  0  0  0  0  0  0  0  0
   56.2133   33.1769   46.5356 H   0  0  0  0  0  0  0  0  0  0  0  0
   56.7875   33.8263   44.1948 H   0  0  0  0  0  0  0  0  0  0  0  0
   59.1259   34.4823   43.6180 H   0  0  0  0  0  0  0  0  0  0  0  0
   60.8939   34.4881   45.3786 H   0  0  0  0  0  0  0  0  0  0  0  0
   57.6744   30.5842   47.2575 H   0  0  0  0  0  0  0  0  0  0  0  0
  1  2  1  0
  2  3  2  0
  2  4  2  0
  2  5  1  0
  5  6  1  0
  6  7  2  0
  6  8  1  0
  8  9  2  0
  9 10  1  0
 10 11  2  0
 11 12  1  0
 12 13  1  0
 13 14  1  0
 14 15  2  0
 14 16  2  0
 14 17  1  0
 17 18  1  0
 18 19  2  0
 19 20  1  0
 20 21  2  0
 21 22  1  0
 22 23  2  0
 12 24  2  0
 24  8  1  0
 23 18  1  0
  1 25  1  0
  1 26  1  0
  1 27  1  0
  9 28  1  0
 10 29  1  0
 11 30  1  0
 13 31  1  0
 17 32  1  0
 17 33  1  0
 19 34  1  0
 20 35  1  0
 21 36  1  0
 22 37  1  0
 23 38  1  0
 24 39  1  0
M  CHG  1   5  -1
M  END
>  <UniqueID>  (43) 
39

>  <SMILES>  (43) 
CS(=O)(=O)[N-]C(=O)c1cccc(NS(=O)(=O)Cc2ccccc2)c1

>  <Energy>  (43) 
38.00833804661999

>  <Genealogy>  (43) 
CS(=O)(=O)[N-]C(=O)c1cccc(NS(=O)(=O)Cc2ccccc2)c1 (protonated)
CS(=O)(=O)[N-]C(=O)c1cccc(NS(=O)(=O)Cc2ccccc2)c1 (3D coordinates assigned)
CS(=O)(=O)[N-]C(=O)c1cccc(NS(=O)(=O)Cc2ccccc2)c1 (optimized conformer: 38.00833804661999 kcal/mol)

>  <smiles>  (43) 
CS(=O)(=O)NC(=O)c1cccc(NS(=O)(=O)Cc2ccccc2)c1

>  <score_type>  (43) 
oracle

>  <origin>  (43) 
adg

>  <m_score__min__energy>  (43) 
-11.44

>  <m_primary>  (43) 
energy

$$$$
43:0
     RDKit          3D

 44 46  0  0  0  0  0  0  0  0999 V2000
   55.1520   28.3290   44.4910 H   0  0  0  0  0  0  0  0  0  0  0  0
   55.2160   29.3410   44.7400 N   0  0  0  0  0  0  0  0  0  0  0  0
   56.6270   29.9660   43.9610 S   0  0  0  0  0  0  0  0  0  0  0  0
   56.2240   30.7760   42.7610 O   0  0  0  0  0  0  0  0  0  0  0  0
   57.4670   28.8050   43.5060 O   0  0  0  0  0  0  0  0  0  0  0  0
   57.5540   30.9790   45.0810 C   0  0  0  0  0  0  0  0  0  0  0  0
   57.3490   32.3690   45.0600 C   0  0  0  0  0  0  0  0  0  0  0  0
   56.5962   32.7986   44.3827 H   0  0  0  0  0  0  0  0  0  0  0  0
   58.0920   33.2100   45.8910 C   0  0  0  0  0  0  0  0  0  0  0  0
   57.9210   34.2964   45.8675 H   0  0  0  0  0  0  0  0  0  0  0  0
   59.0510   32.6740   46.7510 C   0  0  0  0  0  0  0  0  0  0  0  0
   59.6430   33.3393   47.3967 H   0  0  0  0  0  0  0  0  0  0  0  0
   59.2600   31.2950   46.7930 C   0  0  0  0  0  0  0  0  0  0  0  0
   60.0172   30.8785   47.4735 H   0  0  0  0  0  0  0  0  0  0  0  0
   58.5110   30.4340   45.9730 C   0  0  0  0  0  0  0  0  0  0  0  0
   58.7530   28.9810   46.0770 C   0  0  0  0  0  0  0  0  0  0  0  0
   57.8660   28.1630   46.7900 C   0  0  0  0  0  0  0  0  0  0  0  0
   56.9816   28.6051   47.2721 H   0  0  0  0  0  0  0  0  0  0  0  0
   58.0990   26.7880   46.8920 C   0  0  0  0  0  0  0  0  0  0  0  0
   57.3994   26.1533   47.4556 H   0  0  0  0  0  0  0  0  0  0  0  0
   59.2270   26.2140   46.2750 C   0  0  0  0  0  0  0  0  0  0  0  0
   59.5160   24.8120   46.3710 N   0  0  0  0  0  0  0  0  0  0  0  0
   59.0770   23.7840   45.4720 C   0  0  0  0  0  0  0  0  0  0  0  0
   59.6020   22.6390   45.5050 O   0  0  0  0  0  0  0  0  0  0  0  0
   57.9690   24.0300   44.5330 C   0  0  0  0  0  0  0  0  0  0  0  0
   58.0917   23.7383   43.4795 H   0  0  0  0  0  0  0  0  0  0  0  0
   56.8160   24.5970   44.9170 C   0  0  0  0  0  0  0  0  0  0  0  0
   56.6110   25.6280   44.5929 H   0  0  0  0  0  0  0  0  0  0  0  0
   55.8010   23.9110   45.7550 C   0  0  0  0  0  0  0  0  0  0  0  0
   55.9320   23.7820   47.1530 C   0  0  0  0  0  0  0  0  0  0  0  0
   56.8187   24.1919   47.6588 H   0  0  0  0  0  0  0  0  0  0  0  0
   54.9430   23.1370   47.9000 C   0  0  0  0  0  0  0  0  0  0  0  0
   55.0586   23.0348   48.9891 H   0  0  0  0  0  0  0  0  0  0  0  0
   53.8050   22.6200   47.2680 C   0  0  0  0  0  0  0  0  0  0  0  0
   52.8160   21.9750   48.0080 O   0  0  0  0  0  0  0  0  0  0  0  0
   51.9930   21.5840   47.5660 H   0  0  0  0  0  0  0  0  0  0  0  0
   53.6580   22.7570   45.8830 C   0  0  0  0  0  0  0  0  0  0  0  0
   52.5300   22.2530   45.2470 O   0  0  0  0  0  0  0  0  0  0  0  0
   54.6480   23.4030   45.1340 C   0  0  0  0  0  0  0  0  0  0  0  0
   54.5219   23.5142   44.0469 H   0  0  0  0  0  0  0  0  0  0  0  0
   60.1320   27.0410   45.6000 C   0  0  0  0  0  0  0  0  0  0  0  0
   61.0346   26.6060   45.1460 H   0  0  0  0  0  0  0  0  0  0  0  0
   59.8980   28.4160   45.4980 C   0  0  0  0  0  0  0  0  0  0  0  0
   60.6143   29.0560   44.9620 H   0  0  0  0  0  0  0  0  0  0  0  0
  1  2  1  0
  2  3  1  0
  3  4  2  0
  3  5  2  0
  3  6  1  0
  6  7  2  0
  7  8  1  0
  7  9  1  0
  9 10  1  0
  9 11  2  0
 11 12  1  0
 11 13  1  0
 13 14  1  0
 13 15  2  0
 15 16  1  0
 16 17  2  0
 17 18  1  0
 17 19  1  0
 19 20  1  0
 19 21  2  0
 21 22  1  0
 22 23  1  0
 23 24  2  0
 23 25  1  0
 25 26  1  0
 25 27  2  0
 27 28  1  0
 27 29  1  0
 29 30  2  0
 30 31  1  0
 30 32  1  0
 32 33  1  0
 32 34  2  0
 34 35  1  0
 35 36  1  0
 34 37  1  0
 37 38  1  0
 37 39  2  0
 39 40  1  0
 21 41  1  0
 41 42  1  0
 41 43  2  0
 43 44  1  0
 15  6  1  0
 43 16  1  0
 39 29  1  0
M  CHG  3   2  -1  22  -1  38  -1
M  END
>  <UniqueID>  (44) 
40

>  <SMILES>  (44) 
[NH-]S(=O)(=O)c1ccccc1-c1ccc([N-]C(=O)/C=C/c2ccc(O)c([O-])c2)cc1

>  <Energy>  (44) 
59.643841380897776

>  <Genealogy>  (44) 
[NH-]S(=O)(=O)c1ccccc1-c1ccc([N-]C(=O)C=Cc2ccc(O)c([O-])c2)cc1 (protonated)
[NH-]S(=O)(=O)c1ccccc1-c1ccc([N-]C(=O)/C=C/c2ccc(O)c([O-])c2)cc1 (cis-trans isomerization)
[NH-]S(=O)(=O)c1ccccc1-c1ccc([N-]C(=O)/C=C/c2ccc(O)c([O-])c2)cc1 (3D coordinates assigned)
[NH-]S(=O)(=O)c1ccccc1-c1ccc([N-]C(=O)/C=C/c2ccc(O)c([O-])c2)cc1 (optimized conformer: 59.643841380897776 kcal/mol)

>  <smiles>  (44) 
NS(=O)(=O)c1ccccc1-c1ccc(NC(=O)C=Cc2ccc(O)c(O)c2)cc1

>  <score_type>  (44) 
oracle

>  <origin>  (44) 
adg

>  <m_score__min__energy>  (44) 
-15.16

>  <m_primary>  (44) 
energy

$$$$
44:0
     RDKit          3D

 47 50  0  0  0  0  0  0  0  0999 V2000
   64.4860   33.4500   49.4440 C   0  0  0  0  0  0  0  0  0  0  0  0
   63.3680   32.8880   48.6170 C   0  0  0  0  0  0  0  0  0  0  0  0
   62.7340   31.6960   48.9990 C   0  0  0  0  0  0  0  0  0  0  0  0
   61.6690   31.1920   48.2490 C   0  0  0  0  0  0  0  0  0  0  0  0
   61.2020   31.8840   47.1220 C   0  0  0  0  0  0  0  0  0  0  0  0
   60.1220   31.3310   46.3500 N   0  0  0  0  0  0  0  0  0  0  0  0
   59.7580   29.9390   46.3430 C   0  0  0  0  0  0  0  0  0  0  0  0
   60.7350   28.9290   46.3850 C   0  0  0  0  0  0  0  0  0  0  0  0
   60.3640   27.5820   46.3510 C   0  0  0  0  0  0  0  0  0  0  0  0
   59.0070   27.2250   46.2580 C   0  0  0  0  0  0  0  0  0  0  0  0
   58.5820   25.8850   46.2180 C   0  0  0  0  0  0  0  0  0  0  0  0
   59.4360   24.9540   46.2580 O   0  0  0  0  0  0  0  0  0  0  0  0
   57.2450   25.5910   46.1220 N   0  0  0  0  0  0  0  0  0  0  0  0
   56.8090   24.2160   46.0860 C   0  0  0  0  0  0  0  0  0  0  0  0
   56.2400   23.6230   47.2240 C   0  0  0  0  0  0  0  0  0  0  0  0
   55.8110   22.2940   47.1830 C   0  0  0  0  0  0  0  0  0  0  0  0
   55.9470   21.5470   46.0100 C   0  0  0  0  0  0  0  0  0  0  0  0
   56.5210   22.1270   44.8700 C   0  0  0  0  0  0  0  0  0  0  0  0
   56.6810   21.1960   43.3840 S   0  0  0  0  0  0  0  0  0  0  0  0
   56.0660   19.6000   43.6370 N   0  0  0  0  0  0  0  0  0  0  0  0
   58.1260   21.1170   42.9820 O   0  0  0  0  0  0  0  0  0  0  0  0
   55.9090   21.8670   42.2820 O   0  0  0  0  0  0  0  0  0  0  0  0
   56.9450   23.4610   44.9090 C   0  0  0  0  0  0  0  0  0  0  0  0
   56.3210   26.6030   46.0620 C   0  0  0  0  0  0  0  0  0  0  0  0
   55.0880   26.3480   45.9860 O   0  0  0  0  0  0  0  0  0  0  0  0
   56.7220   27.9000   46.0960 N   0  0  0  0  0  0  0  0  0  0  0  0
   58.0310   28.2350   46.1930 C   0  0  0  0  0  0  0  0  0  0  0  0
   58.4070   29.5820   46.2280 C   0  0  0  0  0  0  0  0  0  0  0  0
   61.8410   33.0760   46.7360 C   0  0  0  0  0  0  0  0  0  0  0  0
   62.9080   33.5810   47.4870 C   0  0  0  0  0  0  0  0  0  0  0  0
   64.2484   33.3306   50.5114 H   0  0  0  0  0  0  0  0  0  0  0  0
   65.4181   32.9133   49.2136 H   0  0  0  0  0  0  0  0  0  0  0  0
   64.6114   34.5183   49.2136 H   0  0  0  0  0  0  0  0  0  0  0  0
   63.0774   31.1558   49.8936 H   0  0  0  0  0  0  0  0  0  0  0  0
   61.1930   30.2453   48.5444 H   0  0  0  0  0  0  0  0  0  0  0  0
   59.5650   31.9840   45.7540 H   0  0  0  0  0  0  0  0  0  0  0  0
   61.7992   29.2009   46.4451 H   0  0  0  0  0  0  0  0  0  0  0  0
   61.1354   26.7991   46.3971 H   0  0  0  0  0  0  0  0  0  0  0  0
   56.1316   24.2061   48.1504 H   0  0  0  0  0  0  0  0  0  0  0  0
   55.3647   21.8342   48.0771 H   0  0  0  0  0  0  0  0  0  0  0  0
   55.6032   20.5025   45.9810 H   0  0  0  0  0  0  0  0  0  0  0  0
   56.2750   19.0530   42.7730 H   0  0  0  0  0  0  0  0  0  0  0  0
   56.6290   19.1750   44.4070 H   0  0  0  0  0  0  0  0  0  0  0  0
   57.3872   23.9205   44.0127 H   0  0  0  0  0  0  0  0  0  0  0  0
   57.6380   30.3660   46.1649 H   0  0  0  0  0  0  0  0  0  0  0  0
   61.5001   33.6140   45.8391 H   0  0  0  0  0  0  0  0  0  0  0  0
   63.3882   34.5251   47.1904 H   0  0  0  0  0  0  0  0  0  0  0  0
  1  2  1  0
  2  3  2  0
  3  4  1  0
  4  5  2  0
  5  6  1  0
  6  7  1  0
  7  8  2  0
  8  9  1  0
  9 10  2  0
 10 11  1  0
 11 12  2  0
 11 13  1  0
 13 14  1  0
 14 15  2  0
 15 16  1  0
 16 17  2  0
 17 18  1  0
 18 19  1  0
 19 20  1  0
 19 21  2  0
 19 22  2  0
 18 23  2  0
 13 24  1  0
 24 25  2  0
 24 26  1  0
 26 27  1  0
 27 28  2  0
  5 29  1  0
 29 30  2  0
 30  2  1  0
 28  7  1  0
 27 10  1  0
 23 14  1  0
  1 31  1  0
  1 32  1  0
  1 33  1  0
  3 34  1  0
  4 35  1  0
  6 36  1  0
  8 37  1  0
  9 38  1  0
 15 39  1  0
 16 40  1  0
 17 41  1  0
 20 42  1  0
 20 43  1  0
 23 44  1  0
 28 45  1  0
 29 46  1  0
 30 47  1  0
M  CHG  1  26  -1
M  END
>  <UniqueID>  (45) 
41

>  <SMILES>  (45) 
Cc1ccc(Nc2ccc3c(=O)n(-c4cccc(S(N)(=O)=O)c4)c(=O)[n-]c3c2)cc1

>  <Energy>  (45) 
69.54703067733935

>  <Genealogy>  (45) 
Cc1ccc(Nc2ccc3c(=O)n(-c4cccc(S(N)(=O)=O)c4)c(=O)[n-]c3c2)cc1 (protonated)
Cc1ccc(Nc2ccc3c(=O)n(-c4cccc(S(N)(=O)=O)c4)c(=O)[n-]c3c2)cc1 (3D coordinates assigned)
Cc1ccc(Nc2ccc3c(=O)n(-c4cccc(S(N)(=O)=O)c4)c(=O)[n-]c3c2)cc1 (optimized conformer: 69.54703067733935 kcal/mol)

>  <smiles>  (45) 
Cc1ccc(Nc2ccc3c(=O)n(-c4cccc(S(N)(=O)=O)c4)c(=O)[nH]c3c2)cc1

>  <score_type>  (45) 
oracle

>  <origin>  (45) 
adg

>  <m_score__min__energy>  (45) 
-11.27

>  <m_primary>  (45) 
energy

$$$$
45:0
     RDKit          3D

 44 46  0  0  0  0  0  0  0  0999 V2000
   55.3730   26.6920   45.9960 O   0  0  0  0  0  0  0  0  0  0  0  0
   56.6040   26.6600   46.2720 C   0  0  0  0  0  0  0  0  0  0  0  0
   57.1720   25.5110   46.9100 N   0  0  0  0  0  0  0  0  0  0  0  0
   56.5380   24.1980   46.9170 C   0  0  0  0  0  0  0  0  0  0  0  0
   56.5860   23.5910   45.5420 C   0  0  0  0  0  0  0  0  0  0  0  0
   55.6070   23.9060   44.5850 C   0  0  0  0  0  0  0  0  0  0  0  0
   55.6470   23.3160   43.3180 C   0  0  0  0  0  0  0  0  0  0  0  0
   56.6600   22.4070   42.9980 C   0  0  0  0  0  0  0  0  0  0  0  0
   57.6340   22.0860   43.9470 C   0  0  0  0  0  0  0  0  0  0  0  0
   57.5980   22.6730   45.2150 C   0  0  0  0  0  0  0  0  0  0  0  0
   57.4680   27.8470   45.9480 C   0  0  1  0  0  0  0  0  0  0  0  0
   58.9340   27.5900   46.3650 C   0  0  0  0  0  0  0  0  0  0  0  0
   59.9310   28.4690   45.5870 C   0  0  0  0  0  0  0  0  0  0  0  0
   59.2600   29.7430   45.0580 C   0  0  0  0  0  0  0  0  0  0  0  0
   58.1650   29.4280   44.1070 N   0  0  2  0  0  0  0  0  0  0  0  0
   57.1150   30.8160   43.9270 S   0  0  0  0  0  0  0  0  0  0  0  0
   55.7790   30.5140   44.5470 O   0  0  0  0  0  0  0  0  0  0  0  0
   56.9030   31.1080   42.4670 O   0  0  0  0  0  0  0  0  0  0  0  0
   57.7920   32.2400   44.7030 C   0  0  0  0  0  0  0  0  0  0  0  0
   58.4190   33.2950   44.0590 C   0  0  0  0  0  0  0  0  0  0  0  0
   58.8770   34.2790   44.9420 C   0  0  0  0  0  0  0  0  0  0  0  0
   58.6110   33.9970   46.2780 C   0  0  0  0  0  0  0  0  0  0  0  0
   57.8040   32.5240   46.3590 S   0  0  0  0  0  0  0  0  0  0  0  0
   57.3850   28.2060   44.4500 C   0  0  0  0  0  0  0  0  0  0  0  0
   57.0688   23.5419   47.6226 H   0  0  0  0  0  0  0  0  0  0  0  0
   55.4876   24.3082   47.2243 H   0  0  0  0  0  0  0  0  0  0  0  0
   54.8068   24.6188   44.8331 H   0  0  0  0  0  0  0  0  0  0  0  0
   54.8796   23.5676   42.5711 H   0  0  0  0  0  0  0  0  0  0  0  0
   56.6902   21.9450   42.0002 H   0  0  0  0  0  0  0  0  0  0  0  0
   58.4305   21.3701   43.6958 H   0  0  0  0  0  0  0  0  0  0  0  0
   58.3652   22.4151   45.9599 H   0  0  0  0  0  0  0  0  0  0  0  0
   57.0887   28.7041   46.5238 H   0  0  0  0  0  0  0  0  0  0  0  0
   59.0381   27.8043   47.4389 H   0  0  0  0  0  0  0  0  0  0  0  0
   59.1669   26.5392   46.1380 H   0  0  0  0  0  0  0  0  0  0  0  0
   60.7572   28.7511   46.2562 H   0  0  0  0  0  0  0  0  0  0  0  0
   60.3039   27.8920   44.7279 H   0  0  0  0  0  0  0  0  0  0  0  0
   58.8450   30.3068   45.9065 H   0  0  0  0  0  0  0  0  0  0  0  0
   60.0183   30.3363   44.5260 H   0  0  0  0  0  0  0  0  0  0  0  0
   58.6010   29.2720   43.1680 H   0  0  0  0  0  0  0  0  0  0  0  0
   58.5436   33.3527   42.9676 H   0  0  0  0  0  0  0  0  0  0  0  0
   59.3981   35.1895   44.6111 H   0  0  0  0  0  0  0  0  0  0  0  0
   58.8824   34.6300   47.1357 H   0  0  0  0  0  0  0  0  0  0  0  0
   56.3306   28.3763   44.1870 H   0  0  0  0  0  0  0  0  0  0  0  0
   57.8156   27.3673   43.8833 H   0  0  0  0  0  0  0  0  0  0  0  0
  1  2  2  0
  2  3  1  0
  3  4  1  0
  4  5  1  0
  5  6  2  0
  6  7  1  0
  7  8  2  0
  8  9  1  0
  9 10  2  0
  2 11  1  0
 11 12  1  0
 12 13  1  0
 13 14  1  0
 14 15  1  0
 15 16  1  0
 16 17  2  0
 16 18  2  0
 16 19  1  0
 19 20  2  0
 20 21  1  0
 21 22  2  0
 22 23  1  0
 15 24  1  0
 10  5  1  0
 24 11  1  0
 23 19  1  0
  4 25  1  0
  4 26  1  0
  6 27  1  0
  7 28  1  0
  8 29  1  0
  9 30  1  0
 10 31  1  0
 11 32  1  1
 12 33  1  0
 12 34  1  0
 13 35  1  0
 13 36  1  0
 14 37  1  0
 14 38  1  0
 15 39  1  6
 20 40  1  0
 21 41  1  0
 22 42  1  0
 24 43  1  0
 24 44  1  0
M  CHG  2   3  -1  15   1
M  END
>  <UniqueID>  (46) 
42

>  <SMILES>  (46) 
O=C([N-]Cc1ccccc1)[C@H]1CCC[N@H+](S(=O)(=O)c2cccs2)C1

>  <Energy>  (46) 
72.57300385626958

>  <Genealogy>  (46) 
O=C([N-]Cc1ccccc1)C1CCC[NH+](S(=O)(=O)c2cccs2)C1 (protonated)
O=C([N-]Cc1ccccc1)[C@H]1CCC[N@H+](S(=O)(=O)c2cccs2)C1 (chirality)
O=C([N-]Cc1ccccc1)[C@H]1CCC[N@H+](S(=O)(=O)c2cccs2)C1 (3D coordinates assigned)
O=C([N-]Cc1ccccc1)[C@H]1CCC[N@H+](S(=O)(=O)c2cccs2)C1 (nonaromatic ring conformer: 72.57300385626958 kcal/mol)

>  <smiles>  (46) 
O=C(NCc1ccccc1)C1CCCN(S(=O)(=O)c2cccs2)C1

>  <score_type>  (46) 
oracle

>  <origin>  (46) 
adg

>  <m_score__min__energy>  (46) 
-10.140000000000001

>  <m_primary>  (46) 
energy

$$$$
46:0
     RDKit          3D

 36 38  0  0  0  0  0  0  0  0999 V2000
   60.9120   25.9520   46.3080 O   0  0  0  0  0  0  0  0  0  0  0  0
   60.1220   26.7270   46.9090 C   0  0  0  0  0  0  0  0  0  0  0  0
   60.6610   27.6500   47.8650 N   0  0  0  0  0  0  0  0  0  0  0  0
   60.1750   28.9750   48.1290 C   0  0  0  0  0  0  0  0  0  0  0  0
   59.4500   29.2740   49.2980 C   0  0  0  0  0  0  0  0  0  0  0  0
   58.9770   30.5710   49.5190 C   0  0  0  0  0  0  0  0  0  0  0  0
   58.2850   30.8550   50.6510 F   0  0  0  0  0  0  0  0  0  0  0  0
   59.2090   31.5720   48.5730 C   0  0  0  0  0  0  0  0  0  0  0  0
   59.9070   31.2770   47.3990 C   0  0  0  0  0  0  0  0  0  0  0  0
   60.3820   29.9800   47.1740 C   0  0  0  0  0  0  0  0  0  0  0  0
   61.0580   29.7050   46.0300 F   0  0  0  0  0  0  0  0  0  0  0  0
   58.6670   26.6280   46.6490 C   0  0  0  0  0  0  0  0  0  0  0  0
   57.9510   25.4730   47.0040 C   0  0  0  0  0  0  0  0  0  0  0  0
   56.5820   25.3830   46.7430 C   0  0  0  0  0  0  0  0  0  0  0  0
   55.9110   26.4430   46.1280 C   0  0  0  0  0  0  0  0  0  0  0  0
   54.5490   26.3410   45.8710 O   0  0  0  0  0  0  0  0  0  0  0  0
   56.6070   27.6060   45.7730 C   0  0  0  0  0  0  0  0  0  0  0  0
   55.9090   28.6500   45.1460 O   0  0  0  0  0  0  0  0  0  0  0  0
   56.4970   29.7090   44.4380 C   0  0  0  0  0  0  0  0  0  0  0  0
   56.2850   29.8910   43.0580 C   0  0  0  0  0  0  0  0  0  0  0  0
   56.9020   30.9510   42.3860 C   0  0  0  0  0  0  0  0  0  0  0  0
   57.7420   31.8270   43.0800 C   0  0  0  0  0  0  0  0  0  0  0  0
   57.9700   31.6390   44.4460 C   0  0  0  0  0  0  0  0  0  0  0  0
   57.3550   30.5800   45.1210 C   0  0  0  0  0  0  0  0  0  0  0  0
   57.9910   27.6830   46.0140 C   0  0  0  0  0  0  0  0  0  0  0  0
   59.2551   28.4852   50.0395 H   0  0  0  0  0  0  0  0  0  0  0  0
   58.8420   32.5933   48.7523 H   0  0  0  0  0  0  0  0  0  0  0  0
   60.0832   32.0645   46.6514 H   0  0  0  0  0  0  0  0  0  0  0  0
   58.4714   24.6347   47.4903 H   0  0  0  0  0  0  0  0  0  0  0  0
   56.0297   24.4738   47.0228 H   0  0  0  0  0  0  0  0  0  0  0  0
   55.6324   29.1977   42.5071 H   0  0  0  0  0  0  0  0  0  0  0  0
   56.7261   31.0957   41.3098 H   0  0  0  0  0  0  0  0  0  0  0  0
   58.2229   32.6633   42.5515 H   0  0  0  0  0  0  0  0  0  0  0  0
   58.6345   32.3254   44.9912 H   0  0  0  0  0  0  0  0  0  0  0  0
   57.5461   30.4303   46.1939 H   0  0  0  0  0  0  0  0  0  0  0  0
   58.5492   28.5781   45.7021 H   0  0  0  0  0  0  0  0  0  0  0  0
  1  2  2  0
  2  3  1  0
  3  4  1  0
  4  5  2  0
  5  6  1  0
  6  7  1  0
  6  8  2  0
  8  9  1  0
  9 10  2  0
 10 11  1  0
  2 12  1  0
 12 13  2  0
 13 14  1  0
 14 15  2  0
 15 16  1  0
 15 17  1  0
 17 18  1  0
 18 19  1  0
 19 20  2  0
 20 21  1  0
 21 22  2  0
 22 23  1  0
 23 24  2  0
 17 25  2  0
 10  4  1  0
 25 12  1  0
 24 19  1  0
  5 26  1  0
  8 27  1  0
  9 28  1  0
 13 29  1  0
 14 30  1  0
 20 31  1  0
 21 32  1  0
 22 33  1  0
 23 34  1  0
 24 35  1  0
 25 36  1  0
M  CHG  2   3  -1  16  -1
M  END
>  <UniqueID>  (47) 
43

>  <SMILES>  (47) 
O=C([N-]c1cc(F)ccc1F)c1ccc([O-])c(Oc2ccccc2)c1

>  <Energy>  (47) 
52.7277205953662

>  <Genealogy>  (47) 
O=C([N-]c1cc(F)ccc1F)c1ccc([O-])c(Oc2ccccc2)c1 (protonated)
O=C([N-]c1cc(F)ccc1F)c1ccc([O-])c(Oc2ccccc2)c1 (3D coordinates assigned)
O=C([N-]c1cc(F)ccc1F)c1ccc([O-])c(Oc2ccccc2)c1 (optimized conformer: 52.7277205953662 kcal/mol)

>  <smiles>  (47) 
O=C(Nc1cc(F)ccc1F)c1ccc(O)c(Oc2ccccc2)c1

>  <score_type>  (47) 
oracle

>  <origin>  (47) 
adg

>  <m_score__min__energy>  (47) 
-12.5

>  <m_primary>  (47) 
energy

$$$$
47:0
     RDKit          3D

 61 65  0  0  0  0  0  0  0  0999 V2000
   54.7030   26.3280   45.9530 O   0  0  0  0  0  0  0  0  0  0  0  0
   55.8040   25.8580   46.3470 C   0  0  0  0  0  0  0  0  0  0  0  0
   55.8180   24.6320   47.0040 O   0  0  0  0  0  0  0  0  0  0  0  0
   57.0630   26.6000   46.1150 C   0  0  0  0  0  0  0  0  0  0  0  0
   57.5530   26.7910   44.8100 C   0  0  0  0  0  0  0  0  0  0  0  0
   58.7400   27.4960   44.5950 C   0  0  0  0  0  0  0  0  0  0  0  0
   59.4620   28.0170   45.6790 C   0  0  0  0  0  0  0  0  0  0  0  0
   60.7080   28.8280   45.4410 C   0  0  0  0  0  0  0  0  0  0  0  0
   60.4590   30.2340   45.7490 N   0  0  0  0  0  0  0  0  0  0  0  0
   59.2220   30.9230   45.5610 C   0  0  0  0  0  0  0  0  0  0  0  0
   58.2960   30.5220   44.8090 O   0  0  0  0  0  0  0  0  0  0  0  0
   59.1840   32.1220   46.3870 C   0  0  0  0  0  0  0  0  0  0  0  0
   58.1660   33.0550   46.5580 C   0  0  0  0  0  0  0  0  0  0  0  0
   58.3690   34.0930   47.4810 C   0  0  0  0  0  0  0  0  0  0  0  0
   59.5720   34.1750   48.2110 C   0  0  0  0  0  0  0  0  0  0  0  0
   60.5970   33.2200   48.0300 C   0  0  0  0  0  0  0  0  0  0  0  0
   61.8630   33.3280   48.7810 C   0  0  0  0  0  0  0  0  0  0  0  0
   62.3650   34.4670   48.9820 O   0  0  0  0  0  0  0  0  0  0  0  0
   62.4850   32.1530   49.3320 N   0  0  0  0  0  0  0  0  0  0  0  0
   63.7470   32.1520   50.0200 C   0  0  0  0  0  0  0  0  0  0  0  0
   64.9000   32.7160   49.4440 C   0  0  0  0  0  0  0  0  0  0  0  0
   66.1220   32.6740   50.1260 C   0  0  0  0  0  0  0  0  0  0  0  0
   66.2070   32.0730   51.3900 C   0  0  0  0  0  0  0  0  0  0  0  0
   67.4920   32.0450   52.1100 C   0  0  0  0  0  0  0  0  0  0  0  0
   67.8580   33.0660   52.7510 O   0  0  0  0  0  0  0  0  0  0  0  0
   68.3360   30.8860   52.1130 N   0  0  0  0  0  0  0  0  0  0  0  0
   68.1450   29.6990   52.9440 C   0  0  0  0  0  0  0  0  0  0  0  0
   67.6860   28.5380   52.1010 C   0  0  0  0  0  0  0  0  0  0  0  0
   68.3830   28.1780   50.9330 C   0  0  0  0  0  0  0  0  0  0  0  0
   67.9210   27.1270   50.1350 C   0  0  0  0  0  0  0  0  0  0  0  0
   66.7690   26.4230   50.5000 C   0  0  0  0  0  0  0  0  0  0  0  0
   66.0740   26.7720   51.6630 C   0  0  0  0  0  0  0  0  0  0  0  0
   66.5250   27.8290   52.4580 C   0  0  0  0  0  0  0  0  0  0  0  0
   65.0660   31.4720   51.9440 C   0  0  0  0  0  0  0  0  0  0  0  0
   63.8480   31.5090   51.2620 C   0  0  0  0  0  0  0  0  0  0  0  0
   60.3670   32.1940   47.0960 C   0  0  0  0  0  0  0  0  0  0  0  0
   61.1550   31.0130   46.7260 C   0  0  0  0  0  0  0  0  0  0  0  0
   62.2600   30.6780   47.2280 O   0  0  0  0  0  0  0  0  0  0  0  0
   58.9740   27.8330   46.9800 C   0  0  0  0  0  0  0  0  0  0  0  0
   57.7860   27.1280   47.1990 C   0  0  0  0  0  0  0  0  0  0  0  0
   56.9976   26.3824   43.9529 H   0  0  0  0  0  0  0  0  0  0  0  0
   59.1105   27.6433   43.5698 H   0  0  0  0  0  0  0  0  0  0  0  0
   61.5156   28.4518   46.0862 H   0  0  0  0  0  0  0  0  0  0  0  0
   60.9998   28.7374   44.3843 H   0  0  0  0  0  0  0  0  0  0  0  0
   57.2291   32.9813   45.9864 H   0  0  0  0  0  0  0  0  0  0  0  0
   57.5838   34.8477   47.6357 H   0  0  0  0  0  0  0  0  0  0  0  0
   59.7146   34.9939   48.9315 H   0  0  0  0  0  0  0  0  0  0  0  0
   61.9620   31.2490   49.2880 H   0  0  0  0  0  0  0  0  0  0  0  0
   64.8412   33.1918   48.4540 H   0  0  0  0  0  0  0  0  0  0  0  0
   67.0198   33.1146   49.6680 H   0  0  0  0  0  0  0  0  0  0  0  0
   69.0969   29.4399   53.4307 H   0  0  0  0  0  0  0  0  0  0  0  0
   67.3791   29.9140   53.7037 H   0  0  0  0  0  0  0  0  0  0  0  0
   69.2936   28.7248   50.6470 H   0  0  0  0  0  0  0  0  0  0  0  0
   68.4645   26.8534   49.2186 H   0  0  0  0  0  0  0  0  0  0  0  0
   66.4091   25.5944   49.8723 H   0  0  0  0  0  0  0  0  0  0  0  0
   65.1714   26.2136   51.9519 H   0  0  0  0  0  0  0  0  0  0  0  0
   65.9701   28.1075   53.3661 H   0  0  0  0  0  0  0  0  0  0  0  0
   65.1316   30.9693   52.9202 H   0  0  0  0  0  0  0  0  0  0  0  0
   62.9611   31.0301   51.7024 H   0  0  0  0  0  0  0  0  0  0  0  0
   59.5293   28.2460   47.8350 H   0  0  0  0  0  0  0  0  0  0  0  0
   57.4154   26.9859   48.2249 H   0  0  0  0  0  0  0  0  0  0  0  0
  1  2  2  0
  2  3  1  0
  2  4  1  0
  4  5  2  0
  5  6  1  0
  6  7  2  0
  7  8  1  0
  8  9  1  0
  9 10  1  0
 10 11  2  0
 10 12  1  0
 12 13  2  0
 13 14  1  0
 14 15  2  0
 15 16  1  0
 16 17  1  0
 17 18  2  0
 17 19  1  0
 19 20  1  0
 20 21  2  0
 21 22  1  0
 22 23  2  0
 23 24  1  0
 24 25  2  0
 24 26  1  0
 26 27  1  0
 27 28  1  0
 28 29  2  0
 29 30  1  0
 30 31  2  0
 31 32  1  0
 32 33  2  0
 23 34  1  0
 34 35  2  0
 16 36  2  0
 36 37  1  0
 37 38  2  0
  7 39  1  0
 39 40  2  0
 40  4  1  0
 37  9  1  0
 36 12  1  0
 35 20  1  0
 33 28  1  0
  5 41  1  0
  6 42  1  0
  8 43  1  0
  8 44  1  0
 13 45  1  0
 14 46  1  0
 15 47  1  0
 19 48  1  0
 21 49  1  0
 22 50  1  0
 27 51  1  0
 27 52  1  0
 29 53  1  0
 30 54  1  0
 31 55  1  0
 32 56  1  0
 33 57  1  0
 34 58  1  0
 35 59  1  0
 39 60  1  0
 40 61  1  0
M  CHG  2   3  -1  26  -1
M  END
>  <UniqueID>  (48) 
44

>  <SMILES>  (48) 
O=C([O-])c1ccc(CN2C(=O)c3cccc(C(=O)Nc4ccc(C(=O)[N-]Cc5ccccc5)cc4)c3C2=O)cc1

>  <Energy>  (48) 
109.1375079196117

>  <Genealogy>  (48) 
O=C([O-])c1ccc(CN2C(=O)c3cccc(C(=O)Nc4ccc(C(=O)[N-]Cc5ccccc5)cc4)c3C2=O)cc1 (protonated)
O=C([O-])c1ccc(CN2C(=O)c3cccc(C(=O)Nc4ccc(C(=O)[N-]Cc5ccccc5)cc4)c3C2=O)cc1 (3D coordinates assigned)
O=C([O-])c1ccc(CN2C(=O)c3cccc(C(=O)Nc4ccc(C(=O)[N-]Cc5ccccc5)cc4)c3C2=O)cc1 (nonaromatic ring conformer: 109.1375079196117 kcal/mol)

>  <smiles>  (48) 
O=C(O)c1ccc(CN2C(=O)c3cccc(C(=O)Nc4ccc(C(=O)NCc5ccccc5)cc4)c3C2=O)cc1

>  <score_type>  (48) 
oracle

>  <origin>  (48) 
adg

>  <m_score__min__energy>  (48) 
-14.699999999999999

>  <m_primary>  (48) 
energy

$$$$
48:0
     RDKit          3D

 43 45  0  0  0  0  0  0  0  0999 V2000
   54.7440   27.0950   46.5980 H   0  0  0  0  0  0  0  0  0  0  0  0
   55.1650   26.3600   45.9860 N   0  0  0  0  0  0  0  0  0  0  0  0
   56.8690   26.6360   45.9620 S   0  0  0  0  0  0  0  0  0  0  0  0
   57.5420   25.5670   45.1460 O   0  0  0  0  0  0  0  0  0  0  0  0
   57.4020   26.5780   47.3660 O   0  0  0  0  0  0  0  0  0  0  0  0
   57.2030   28.2120   45.2510 C   0  0  0  0  0  0  0  0  0  0  0  0
   56.1550   29.0600   44.8660 C   0  0  0  0  0  0  0  0  0  0  0  0
   55.1115   28.7430   45.0098 H   0  0  0  0  0  0  0  0  0  0  0  0
   56.4330   30.3070   44.3000 C   0  0  0  0  0  0  0  0  0  0  0  0
   55.6064   30.9716   44.0085 H   0  0  0  0  0  0  0  0  0  0  0  0
   57.7620   30.7170   44.1010 C   0  0  0  0  0  0  0  0  0  0  0  0
   58.0630   32.0200   43.4050 C   0  0  0  0  0  0  0  0  0  0  0  0
   59.1532   32.1642   43.3788 H   0  0  0  0  0  0  0  0  0  0  0  0
   57.6422   31.9662   42.3901 H   0  0  0  0  0  0  0  0  0  0  0  0
   57.4220   33.2200   44.1190 C   0  0  0  0  0  0  0  0  0  0  0  0
   56.9311   33.8623   43.3730 H   0  0  0  0  0  0  0  0  0  0  0  0
   56.6875   32.8438   44.8464 H   0  0  0  0  0  0  0  0  0  0  0  0
   58.4300   34.0030   44.8360 N   0  0  0  0  0  0  0  0  0  0  0  0
   58.7130   33.8550   46.0950 C   0  0  0  0  0  0  0  0  0  0  0  0
   58.3260   32.7920   46.8360 N   0  0  0  0  0  0  0  0  0  0  0  0
   58.8370   32.8570   48.0930 C   0  0  0  0  0  0  0  0  0  0  0  0
   58.6060   31.8570   49.0320 O   0  0  0  0  0  0  0  0  0  0  0  0
   59.3630   31.2620   49.3490 H   0  0  0  0  0  0  0  0  0  0  0  0
   59.6180   33.9790   48.3580 C   0  0  0  0  0  0  0  0  0  0  0  0
   60.4230   34.2220   49.5950 C   0  0  0  0  0  0  0  0  0  0  0  0
   60.3569   35.2848   49.8708 H   0  0  0  0  0  0  0  0  0  0  0  0
   60.0282   33.6016   50.4131 H   0  0  0  0  0  0  0  0  0  0  0  0
   61.8620   33.8590   49.3460 C   0  0  0  0  0  0  0  0  0  0  0  0
   62.2680   33.4100   48.0770 C   0  0  0  0  0  0  0  0  0  0  0  0
   61.5399   33.3631   47.2538 H   0  0  0  0  0  0  0  0  0  0  0  0
   63.5930   33.0230   47.8570 C   0  0  0  0  0  0  0  0  0  0  0  0
   63.9053   32.6726   46.8622 H   0  0  0  0  0  0  0  0  0  0  0  0
   64.5210   33.0810   48.9000 C   0  0  0  0  0  0  0  0  0  0  0  0
   65.5640   32.7785   48.7251 H   0  0  0  0  0  0  0  0  0  0  0  0
   64.1250   33.5230   50.1650 C   0  0  0  0  0  0  0  0  0  0  0  0
   64.8575   33.5703   50.9843 H   0  0  0  0  0  0  0  0  0  0  0  0
   62.8000   33.9050   50.3910 C   0  0  0  0  0  0  0  0  0  0  0  0
   62.4902   34.2430   51.3909 H   0  0  0  0  0  0  0  0  0  0  0  0
   59.6870   34.9160   46.9590 S   0  0  0  0  0  0  0  0  0  0  0  0
   58.8090   29.8620   44.4800 C   0  0  0  0  0  0  0  0  0  0  0  0
   59.8530   30.1719   44.3252 H   0  0  0  0  0  0  0  0  0  0  0  0
   58.5290   28.6170   45.0540 C   0  0  0  0  0  0  0  0  0  0  0  0
   59.3542   27.9534   45.3518 H   0  0  0  0  0  0  0  0  0  0  0  0
  1  2  1  0
  2  3  1  0
  3  4  2  0
  3  5  2  0
  3  6  1  0
  6  7  2  0
  7  8  1  0
  7  9  1  0
  9 10  1  0
  9 11  2  0
 11 12  1  0
 12 13  1  0
 12 14  1  0
 12 15  1  0
 15 16  1  0
 15 17  1  0
 15 18  1  0
 18 19  2  0
 19 20  1  0
 20 21  1  0
 21 22  1  0
 22 23  1  0
 21 24  2  0
 24 25  1  0
 25 26  1  0
 25 27  1  0
 25 28  1  0
 28 29  2  0
 29 30  1  0
 29 31  1  0
 31 32  1  0
 31 33  2  0
 33 34  1  0
 33 35  1  0
 35 36  1  0
 35 37  2  0
 37 38  1  0
 24 39  1  0
 11 40  1  0
 40 41  1  0
 40 42  2  0
 42 43  1  0
 42  6  1  0
 39 19  1  0
 37 28  1  0
M  CHG  2   2  -1  20  -1
M  END
>  <UniqueID>  (49) 
45

>  <SMILES>  (49) 
[NH-]S(=O)(=O)c1ccc(CC/N=c2\[n-]c(O)c(Cc3ccccc3)s2)cc1

>  <Energy>  (49) 
65.19994730439454

>  <Genealogy>  (49) 
[NH-]S(=O)(=O)c1ccc(CCN=c2[n-]c(O)c(Cc3ccccc3)s2)cc1 (protonated)
[NH-]S(=O)(=O)c1ccc(CC/N=c2\[n-]c(O)c(Cc3ccccc3)s2)cc1 (cis-trans isomerization)
[NH-]S(=O)(=O)c1ccc(CC/N=c2\[n-]c(O)c(Cc3ccccc3)s2)cc1 (3D coordinates assigned)
[NH-]S(=O)(=O)c1ccc(CC/N=c2\[n-]c(O)c(Cc3ccccc3)s2)cc1 (optimized conformer: 65.19994730439454 kcal/mol)

>  <smiles>  (49) 
NS(=O)(=O)c1ccc(CCN=c2[nH]c(O)c(Cc3ccccc3)s2)cc1

>  <score_type>  (49) 
oracle

>  <origin>  (49) 
adg

>  <m_score__min__energy>  (49) 
-12.699999999999999

>  <m_primary>  (49) 
energy

$$$$
49:0
     RDKit          3D

 24 25  0  0  0  0  0  0  0  0999 V2000
   55.1350   30.3000   44.3020 O   0  0  0  0  0  0  0  0  0  0  0  0
   56.1830   29.7120   44.6860 C   0  0  0  0  0  0  0  0  0  0  0  0
   56.0920   28.4740   45.2450 N   0  0  0  0  0  0  0  0  0  0  0  0
   57.2060   27.8120   45.6620 C   0  0  0  0  0  0  0  0  0  0  0  0
   57.0860   26.3240   46.3300 S   0  0  0  0  0  0  0  0  0  0  0  0
   58.4290   28.3850   45.5220 N   0  0  0  0  0  0  0  0  0  0  0  0
   58.5670   29.6180   44.9730 C   0  0  0  0  0  0  0  0  0  0  0  0
   57.4390   30.3280   44.5440 C   0  0  0  0  0  0  0  0  0  0  0  0
   57.5960   31.6820   43.8980 C   0  0  0  0  0  0  0  0  0  0  0  0
   58.0790   32.6900   44.9060 C   0  0  0  0  0  0  0  0  0  0  0  0
   57.7460   32.5530   46.2650 C   0  0  0  0  0  0  0  0  0  0  0  0
   58.1700   33.5090   47.1940 C   0  0  0  0  0  0  0  0  0  0  0  0
   58.9220   34.6090   46.7730 C   0  0  0  0  0  0  0  0  0  0  0  0
   59.2490   34.7570   45.4220 C   0  0  0  0  0  0  0  0  0  0  0  0
   58.8270   33.8040   44.4900 C   0  0  0  0  0  0  0  0  0  0  0  0
   55.1510   28.0280   45.3500 H   0  0  0  0  0  0  0  0  0  0  0  0
   59.5679   30.0612   44.8646 H   0  0  0  0  0  0  0  0  0  0  0  0
   58.3261   31.6103   43.0783 H   0  0  0  0  0  0  0  0  0  0  0  0
   56.6204   32.0067   43.5071 H   0  0  0  0  0  0  0  0  0  0  0  0
   57.1499   31.6910   46.5990 H   0  0  0  0  0  0  0  0  0  0  0  0
   57.9112   33.3948   48.2570 H   0  0  0  0  0  0  0  0  0  0  0  0
   59.2568   35.3587   47.5050 H   0  0  0  0  0  0  0  0  0  0  0  0
   59.8392   35.6245   45.0916 H   0  0  0  0  0  0  0  0  0  0  0  0
   59.0817   33.9270   43.4270 H   0  0  0  0  0  0  0  0  0  0  0  0
  1  2  2  0
  2  3  1  0
  3  4  1  0
  4  5  2  0
  4  6  1  0
  6  7  1  0
  7  8  2  0
  8  9  1  0
  9 10  1  0
 10 11  2  0
 11 12  1  0
 12 13  2  0
 13 14  1  0
 14 15  2  0
  8  2  1  0
 15 10  1  0
  3 16  1  0
  7 17  1  0
  9 18  1  0
  9 19  1  0
 11 20  1  0
 12 21  1  0
 13 22  1  0
 14 23  1  0
 15 24  1  0
M  CHG  1   6  -1
M  END
>  <UniqueID>  (50) 
46

>  <SMILES>  (50) 
O=c1[nH]c(=S)[n-]cc1Cc1ccccc1

>  <Energy>  (50) 
25.220557173451592

>  <Genealogy>  (50) 
O=c1[nH]c(=S)[n-]cc1Cc1ccccc1 (protonated)
O=c1[nH]c(=S)[n-]cc1Cc1ccccc1 (3D coordinates assigned)
O=c1[nH]c(=S)[n-]cc1Cc1ccccc1 (optimized conformer: 25.220557173451592 kcal/mol)

>  <smiles>  (50) 
O=c1[nH]c(=S)[nH]cc1Cc1ccccc1

>  <score_type>  (50) 
oracle

>  <origin>  (50) 
adg

>  <m_score__min__energy>  (50) 
-8.5099999999999998

>  <m_primary>  (50) 
energy

$$$$
50:0
     RDKit          3D

 55 58  0  0  0  0  0  0  0  0999 V2000
   59.2220   33.8330   44.6940 O   0  0  0  0  0  0  0  0  0  0  0  0
   59.2470   32.7760   45.3800 C   0  0  0  0  0  0  0  0  0  0  0  0
   60.3030   32.5940   46.3320 N   0  0  0  0  0  0  0  0  0  0  0  0
   61.4620   33.4720   46.4820 C   0  0  0  0  0  0  0  0  0  0  0  0
   62.3580   32.9770   47.5860 C   0  0  0  0  0  0  0  0  0  0  0  0
   62.1430   31.7190   48.1730 C   0  0  0  0  0  0  0  0  0  0  0  0
   62.9910   31.2600   49.1850 C   0  0  0  0  0  0  0  0  0  0  0  0
   64.0620   32.0490   49.6160 C   0  0  0  0  0  0  0  0  0  0  0  0
   64.8790   31.6020   50.6000 F   0  0  0  0  0  0  0  0  0  0  0  0
   64.2880   33.3000   49.0320 C   0  0  0  0  0  0  0  0  0  0  0  0
   63.4390   33.7630   48.0190 C   0  0  0  0  0  0  0  0  0  0  0  0
   58.1880   31.7640   45.1820 C   0  0  0  0  0  0  0  0  0  0  0  0
   58.5050   30.4000   45.2110 C   0  0  0  0  0  0  0  0  0  0  0  0
   57.5020   29.4230   45.0480 C   0  0  0  0  0  0  0  0  0  0  0  0
   57.8120   27.9250   45.0330 C   0  0  0  0  0  0  0  0  0  0  0  0
   57.2170   27.1220   46.2220 C   0  0  0  0  0  0  0  0  0  0  0  0
   58.2370   26.8460   47.3430 C   0  0  0  0  0  0  0  0  0  0  0  0
   59.2490   27.9130   47.3900 N   0  0  0  0  0  0  0  0  0  0  0  0
   60.0110   27.9530   48.6600 C   0  0  0  0  0  0  0  0  0  0  0  0
   59.8780   29.2590   49.4180 C   0  0  0  0  0  0  0  0  0  0  0  0
   59.1000   30.3060   48.8940 C   0  0  0  0  0  0  0  0  0  0  0  0
   58.9780   31.5110   49.5910 C   0  0  0  0  0  0  0  0  0  0  0  0
   59.6210   31.6780   50.8200 C   0  0  0  0  0  0  0  0  0  0  0  0
   60.3830   30.6370   51.3560 C   0  0  0  0  0  0  0  0  0  0  0  0
   60.5090   29.4310   50.6610 C   0  0  0  0  0  0  0  0  0  0  0  0
   60.1150   27.9200   46.1920 C   0  0  0  0  0  0  0  0  0  0  0  0
   59.3250   27.6720   44.8880 C   0  0  0  0  0  0  0  0  0  0  0  0
   56.1800   29.8670   44.8420 C   0  0  0  0  0  0  0  0  0  0  0  0
   55.1460   28.9550   44.6530 O   0  0  0  0  0  0  0  0  0  0  0  0
   55.8950   31.1950   44.8260 N   0  0  0  0  0  0  0  0  0  0  0  0
   56.8500   32.1440   44.9970 C   0  0  0  0  0  0  0  0  0  0  0  0
   56.5230   33.3600   44.9700 O   0  0  0  0  0  0  0  0  0  0  0  0
   62.0267   33.4907   45.5382 H   0  0  0  0  0  0  0  0  0  0  0  0
   61.1120   34.4839   46.7341 H   0  0  0  0  0  0  0  0  0  0  0  0
   61.3042   31.0928   47.8350 H   0  0  0  0  0  0  0  0  0  0  0  0
   62.8154   30.2756   49.6435 H   0  0  0  0  0  0  0  0  0  0  0  0
   65.1323   33.9198   49.3683 H   0  0  0  0  0  0  0  0  0  0  0  0
   63.6193   34.7464   47.5603 H   0  0  0  0  0  0  0  0  0  0  0  0
   59.5487   30.0876   45.3627 H   0  0  0  0  0  0  0  0  0  0  0  0
   57.2947   27.5359   44.1436 H   0  0  0  0  0  0  0  0  0  0  0  0
   56.3792   27.6952   46.6458 H   0  0  0  0  0  0  0  0  0  0  0  0
   56.8951   26.1469   45.8276 H   0  0  0  0  0  0  0  0  0  0  0  0
   57.7115   26.8021   48.3084 H   0  0  0  0  0  0  0  0  0  0  0  0
   58.7381   25.8877   47.1414 H   0  0  0  0  0  0  0  0  0  0  0  0
   59.6492   27.1396   49.3062 H   0  0  0  0  0  0  0  0  0  0  0  0
   61.0736   27.8444   48.3971 H   0  0  0  0  0  0  0  0  0  0  0  0
   58.5848   30.1761   47.9308 H   0  0  0  0  0  0  0  0  0  0  0  0
   58.3747   32.3294   49.1713 H   0  0  0  0  0  0  0  0  0  0  0  0
   59.5273   32.6287   51.3654 H   0  0  0  0  0  0  0  0  0  0  0  0
   60.8845   30.7667   52.3264 H   0  0  0  0  0  0  0  0  0  0  0  0
   61.1055   28.6122   51.0897 H   0  0  0  0  0  0  0  0  0  0  0  0
   60.6123   28.8987   46.1222 H   0  0  0  0  0  0  0  0  0  0  0  0
   60.8429   27.1027   46.3017 H   0  0  0  0  0  0  0  0  0  0  0  0
   59.7178   28.3423   44.1093 H   0  0  0  0  0  0  0  0  0  0  0  0
   59.4538   26.6113   44.6264 H   0  0  0  0  0  0  0  0  0  0  0  0
  1  2  2  0
  2  3  1  0
  3  4  1  0
  4  5  1  0
  5  6  2  0
  6  7  1  0
  7  8  2  0
  8  9  1  0
  8 10  1  0
 10 11  2  0
  2 12  1  0
 12 13  2  0
 13 14  1  0
 14 15  1  0
 15 16  1  0
 16 17  1  0
 17 18  1  0
 18 19  1  0
 19 20  1  0
 20 21  2  0
 21 22  1  0
 22 23  2  0
 23 24  1  0
 24 25  2  0
 18 26  1  0
 26 27  1  0
 14 28  2  0
 28 29  1  0
 28 30  1  0
 30 31  1  0
 31 32  2  0
 11  5  1  0
 31 12  1  0
 27 15  1  0
 25 20  1  0
  4 33  1  0
  4 34  1  0
  6 35  1  0
  7 36  1  0
 10 37  1  0
 11 38  1  0
 13 39  1  0
 15 40  1  0
 16 41  1  0
 16 42  1  0
 17 43  1  0
 17 44  1  0
 19 45  1  0
 19 46  1  0
 21 47  1  0
 22 48  1  0
 23 49  1  0
 24 50  1  0
 25 51  1  0
 26 52  1  0
 26 53  1  0
 27 54  1  0
 27 55  1  0
M  CHG  3   3  -1  29  -1  30  -1
M  END
>  <UniqueID>  (51) 
47

>  <SMILES>  (51) 
O=C([N-]Cc1ccc(F)cc1)c1cc(C2CCN(Cc3ccccc3)CC2)c([O-])[n-]c1=O

>  <Energy>  (51) 
73.31951479572682

>  <Genealogy>  (51) 
O=C([N-]Cc1ccc(F)cc1)c1cc(C2CCN(Cc3ccccc3)CC2)c([O-])[n-]c1=O (protonated)
O=C([N-]Cc1ccc(F)cc1)c1cc(C2CCN(Cc3ccccc3)CC2)c([O-])[n-]c1=O (3D coordinates assigned)
O=C([N-]Cc1ccc(F)cc1)c1cc(C2CCN(Cc3ccccc3)CC2)c([O-])[n-]c1=O (nonaromatic ring conformer: 73.31951479572682 kcal/mol)

>  <smiles>  (51) 
O=C(NCc1ccc(F)cc1)c1cc(C2CCN(Cc3ccccc3)CC2)c(O)[nH]c1=O

>  <score_type>  (51) 
oracle

>  <origin>  (51) 
adg

>  <m_score__min__energy>  (51) 
-15.279999999999999

>  <m_primary>  (51) 
energy

$$$$
51:0
     RDKit          3D

 47 50  0  0  0  0  0  0  0  0999 V2000
   59.3983   31.6268   46.7079 H   0  0  0  0  0  0  0  0  0  0  0  0
   60.1310   31.2040   47.4110 C   0  0  0  0  0  0  0  0  0  0  0  0
   59.8590   29.9890   47.9310 C   0  0  0  0  0  0  0  0  0  0  0  0
   59.3580   28.8610   47.1110 C   0  0  0  0  0  0  0  0  0  0  0  0
   59.6680   27.5460   47.4920 C   0  0  0  0  0  0  0  0  0  0  0  0
   60.2493   27.3652   48.4082 H   0  0  0  0  0  0  0  0  0  0  0  0
   59.2430   26.4650   46.7150 C   0  0  0  0  0  0  0  0  0  0  0  0
   59.5002   25.4389   47.0167 H   0  0  0  0  0  0  0  0  0  0  0  0
   58.4930   26.6820   45.5570 C   0  0  0  0  0  0  0  0  0  0  0  0
   58.1725   25.8280   44.9422 H   0  0  0  0  0  0  0  0  0  0  0  0
   58.1480   27.9870   45.1770 C   0  0  0  0  0  0  0  0  0  0  0  0
   58.5730   29.0810   45.9590 C   0  0  0  0  0  0  0  0  0  0  0  0
   58.1950   30.3370   45.5990 N   0  0  0  0  0  0  0  0  0  0  0  0
   57.4230   30.5670   44.5040 C   0  0  0  0  0  0  0  0  0  0  0  0
   57.0170   31.9800   44.1800 C   0  0  0  0  0  0  0  0  0  0  0  0
   57.2061   32.1731   43.1137 H   0  0  0  0  0  0  0  0  0  0  0  0
   55.9478   32.0987   44.4094 H   0  0  0  0  0  0  0  0  0  0  0  0
   57.7970   32.9680   45.0050 C   0  0  0  0  0  0  0  0  0  0  0  0
   58.8470   33.7050   44.4300 C   0  0  0  0  0  0  0  0  0  0  0  0
   59.0816   33.5834   43.3622 H   0  0  0  0  0  0  0  0  0  0  0  0
   59.5940   34.5920   45.2110 C   0  0  0  0  0  0  0  0  0  0  0  0
   60.4212   35.1588   44.7587 H   0  0  0  0  0  0  0  0  0  0  0  0
   59.2920   34.7600   46.5650 C   0  0  0  0  0  0  0  0  0  0  0  0
   59.8820   35.4580   47.1772 H   0  0  0  0  0  0  0  0  0  0  0  0
   58.2410   34.0420   47.1420 C   0  0  0  0  0  0  0  0  0  0  0  0
   57.9980   34.1825   48.2056 H   0  0  0  0  0  0  0  0  0  0  0  0
   57.4980   33.1450   46.3680 C   0  0  0  0  0  0  0  0  0  0  0  0
   56.6764   32.5755   46.8270 H   0  0  0  0  0  0  0  0  0  0  0  0
   57.0240   29.4740   43.7100 C   0  0  0  0  0  0  0  0  0  0  0  0
   56.3210   29.6500   42.6780 O   0  0  0  0  0  0  0  0  0  0  0  0
   57.3940   28.2130   44.0650 N   0  0  0  0  0  0  0  0  0  0  0  0
   57.0820   27.4080   43.4740 H   0  0  0  0  0  0  0  0  0  0  0  0
   59.9490   29.7990   49.4190 C   0  0  0  0  0  0  0  0  0  0  0  0
   59.5314   30.6807   49.9271 H   0  0  0  0  0  0  0  0  0  0  0  0
   59.3791   28.9041   49.7095 H   0  0  0  0  0  0  0  0  0  0  0  0
   61.0024   29.6731   49.7095 H   0  0  0  0  0  0  0  0  0  0  0  0
   61.3350   32.0170   47.7080 C   0  0  0  0  0  0  0  0  0  0  0  0
   62.5980   31.7180   47.1590 C   0  0  0  0  0  0  0  0  0  0  0  0
   62.7078   30.8658   46.4722 H   0  0  0  0  0  0  0  0  0  0  0  0
   63.7120   32.4980   47.4820 C   0  0  0  0  0  0  0  0  0  0  0  0
   64.6885   32.2751   47.0274 H   0  0  0  0  0  0  0  0  0  0  0  0
   63.5880   33.5590   48.3800 C   0  0  0  0  0  0  0  0  0  0  0  0
   64.4636   34.1783   48.6246 H   0  0  0  0  0  0  0  0  0  0  0  0
   62.3510   33.8340   48.9680 C   0  0  0  0  0  0  0  0  0  0  0  0
   62.2579   34.6566   49.6924 H   0  0  0  0  0  0  0  0  0  0  0  0
   61.2310   33.0650   48.6370 C   0  0  0  0  0  0  0  0  0  0  0  0
   60.2610   33.2826   49.1079 H   0  0  0  0  0  0  0  0  0  0  0  0
  1  2  1  0
  2  3  2  0
  3  4  1  0
  4  5  2  0
  5  6  1  0
  5  7  1  0
  7  8  1  0
  7  9  2  0
  9 10  1  0
  9 11  1  0
 11 12  2  0
 12 13  1  0
 13 14  2  0
 14 15  1  0
 15 16  1  0
 15 17  1  0
 15 18  1  0
 18 19  2  0
 19 20  1  0
 19 21  1  0
 21 22  1  0
 21 23  2  0
 23 24  1  0
 23 25  1  0
 25 26  1  0
 25 27  2  0
 27 28  1  0
 14 29  1  0
 29 30  2  0
 29 31  1  0
 31 32  1  0
  3 33  1  0
 33 34  1  0
 33 35  1  0
 33 36  1  0
  2 37  1  0
 37 38  2  0
 38 39  1  0
 38 40  1  0
 40 41  1  0
 40 42  2  0
 42 43  1  0
 42 44  1  0
 44 45  1  0
 44 46  2  0
 46 47  1  0
 12  4  1  0
 27 18  1  0
 46 37  1  0
 31 11  1  0
M  END
>  <UniqueID>  (52) 
48

>  <SMILES>  (52) 
C/C(=C/c1ccccc1)c1cccc2[nH]c(=O)c(Cc3ccccc3)nc12

>  <Energy>  (52) 
62.452465765104535

>  <Genealogy>  (52) 
C/C(=C/c1ccccc1)c1cccc2[nH]c(=O)c(Cc3ccccc3)nc12 (cis-trans isomerization)
C/C(=C/c1ccccc1)c1cccc2[nH]c(=O)c(Cc3ccccc3)nc12 (3D coordinates assigned)
C/C(=C/c1ccccc1)c1cccc2[nH]c(=O)c(Cc3ccccc3)nc12 (optimized conformer: 62.452465765104535 kcal/mol)

>  <smiles>  (52) 
CC(=Cc1ccccc1)c1cccc2[nH]c(=O)c(Cc3ccccc3)nc12

>  <score_type>  (52) 
oracle

>  <origin>  (52) 
adg

>  <m_score__min__energy>  (52) 
-9.5099999999999998

>  <m_primary>  (52) 
energy

$$$$
52:0
     RDKit          3D

 42 44  0  0  1  0  0  0  0  0999 V2000
   61.4490   28.9220   44.8680 C   0  0  0  0  0  0  0  0  0  0  0  0
   59.9500   28.7610   44.8760 C   0  0  0  0  0  0  0  0  0  0  0  0
   59.3880   27.4990   44.8960 C   0  0  0  0  0  0  0  0  0  0  0  0
   58.0130   27.3690   44.9010 C   0  0  0  0  0  0  0  0  0  0  0  0
   57.2240   28.4720   44.8860 C   0  0  0  0  0  0  0  0  0  0  0  0
   55.8700   28.6320   44.8940 N   0  0  0  0  0  0  0  0  0  0  0  0
   55.5870   29.9120   44.8780 N   0  0  0  0  0  0  0  0  0  0  0  0
   56.7470   30.6230   44.8590 C   0  0  0  0  0  0  0  0  0  0  0  0
   56.7710   31.8870   44.8450 N   0  0  0  0  0  0  0  0  0  0  0  0
   57.8710   32.6180   44.2850 C   0  0  0  0  0  0  0  0  0  0  0  0
   57.6970   34.0580   44.8520 C   0  0  0  0  0  0  0  0  0  0  0  0
   58.6590   34.2080   46.0340 C   0  0  0  0  0  0  0  0  0  0  0  0
   59.0530   32.9490   46.6000 N   0  0  0  0  0  0  0  0  0  0  0  0
   58.6040   32.8270   47.9680 C   0  0  0  0  0  0  0  0  0  0  0  0
   59.4790   33.5520   48.9380 C   0  0  0  0  0  0  0  0  0  0  0  0
   60.7600   33.7710   48.5850 O   0  0  0  0  0  0  0  0  0  0  0  0
   61.1170   33.8860   47.2850 C   0  0  0  0  0  0  0  0  0  0  0  0
   60.4680   32.7730   46.4820 C   0  0  0  0  0  0  0  0  0  0  0  0
   57.7900   29.7360   44.8660 C   0  0  0  0  0  0  0  0  0  0  0  0
   59.1430   29.9080   44.8600 C   0  0  0  0  0  0  0  0  0  0  0  0
   61.8190   28.9617   45.9031 H   0  0  0  0  0  0  0  0  0  0  0  0
   61.9067   28.0679   44.3475 H   0  0  0  0  0  0  0  0  0  0  0  0
   61.7149   29.8539   44.3475 H   0  0  0  0  0  0  0  0  0  0  0  0
   60.0299   26.6058   44.9078 H   0  0  0  0  0  0  0  0  0  0  0  0
   57.5566   26.3683   44.9172 H   0  0  0  0  0  0  0  0  0  0  0  0
   55.1440   27.8800   44.9100 H   0  0  0  0  0  0  0  0  0  0  0  0
   54.6290   30.3100   44.8810 H   0  0  0  0  0  0  0  0  0  0  0  0
   58.8306   32.1856   44.6047 H   0  0  0  0  0  0  0  0  0  0  0  0
   57.8775   32.5949   43.1853 H   0  0  0  0  0  0  0  0  0  0  0  0
   57.9381   34.7988   44.0755 H   0  0  0  0  0  0  0  0  0  0  0  0
   56.6586   34.2239   45.1748 H   0  0  0  0  0  0  0  0  0  0  0  0
   59.5608   34.7340   45.6874 H   0  0  0  0  0  0  0  0  0  0  0  0
   58.1313   34.7705   46.8183 H   0  0  0  0  0  0  0  0  0  0  0  0
   57.5859   33.2372   48.0404 H   0  0  0  0  0  0  0  0  0  0  0  0
   58.6370   31.7593   48.2305 H   0  0  0  0  0  0  0  0  0  0  0  0
   59.0181   34.5329   49.1261 H   0  0  0  0  0  0  0  0  0  0  0  0
   59.5418   32.8827   49.8087 H   0  0  0  0  0  0  0  0  0  0  0  0
   60.7834   34.8601   46.8979 H   0  0  0  0  0  0  0  0  0  0  0  0
   62.2110   33.8119   47.1971 H   0  0  0  0  0  0  0  0  0  0  0  0
   60.7713   32.8409   45.4268 H   0  0  0  0  0  0  0  0  0  0  0  0
   60.7754   31.7854   46.8563 H   0  0  0  0  0  0  0  0  0  0  0  0
   59.5871   30.9142   44.8432 H   0  0  0  0  0  0  0  0  0  0  0  0
  1  2  1  0
  2  3  2  0
  3  4  1  0
  4  5  2  0
  5  6  1  0
  6  7  1  0
  7  8  1  0
  8  9  2  0
  9 10  1  0
 10 11  1  0
 11 12  1  0
 12 13  1  0
 13 14  1  0
 14 15  1  0
 15 16  1  0
 16 17  1  0
 17 18  1  0
  8 19  1  0
 19 20  2  0
 20  2  1  0
 19  5  1  0
 18 13  1  0
  1 21  1  0
  1 22  1  0
  1 23  1  0
  3 24  1  0
  4 25  1  0
  6 26  1  0
  7 27  1  0
 10 28  1  0
 10 29  1  0
 11 30  1  0
 11 31  1  0
 12 32  1  0
 12 33  1  0
 14 34  1  0
 14 35  1  0
 15 36  1  0
 15 37  1  0
 17 38  1  0
 17 39  1  0
 18 40  1  0
 18 41  1  0
 20 42  1  0
M  END
>  <smiles>  (53) 
Cc1ccc2[nH][nH]c(=NCCCN3CCOCC3)c2c1

>  <score_type>  (53) 
oracle

>  <origin>  (53) 
adg

>  <m_score__min__energy>  (53) 
-7.5800000000000001

>  <m_primary>  (53) 
energy

$$$$
53:0
     RDKit          3D

 47 50  0  0  0  0  0  0  0  0999 V2000
   58.3130   32.7200   51.8760 C   0  0  0  0  0  0  0  0  0  0  0  0
   59.3160   32.0360   51.1330 O   0  0  0  0  0  0  0  0  0  0  0  0
   59.1070   31.4390   49.8790 C   0  0  0  0  0  0  0  0  0  0  0  0
   58.8950   30.0550   49.7370 C   0  0  0  0  0  0  0  0  0  0  0  0
   58.6930   29.4980   48.4740 C   0  0  0  0  0  0  0  0  0  0  0  0
   58.6920   30.3090   47.3290 C   0  0  0  0  0  0  0  0  0  0  0  0
   58.5030   29.7010   45.9600 C   0  0  2  0  0  0  0  0  0  0  0  0
   57.3350   30.3140   45.3030 N   0  0  0  0  0  0  0  0  0  0  0  0
   56.1230   29.6040   44.9870 C   0  0  0  0  0  0  0  0  0  0  0  0
   55.1450   30.2210   44.4940 O   0  0  0  0  0  0  0  0  0  0  0  0
   56.0330   28.1950   45.2200 N   0  0  0  0  0  0  0  0  0  0  0  0
   57.1830   27.5480   45.7540 C   0  0  0  0  0  0  0  0  0  0  0  0
   58.3320   28.2100   46.0710 C   0  0  0  0  0  0  0  0  0  0  0  0
   59.1750   27.2220   46.5510 C   0  0  0  0  0  0  0  0  0  0  0  0
   60.5410   27.4200   47.1200 C   0  0  0  0  0  0  0  0  0  0  0  0
   58.5310   26.0330   46.5260 N   0  0  0  0  0  0  0  0  0  0  0  0
   57.3180   26.2350   46.0210 N   0  0  0  0  0  0  0  0  0  0  0  0
   56.3220   25.2110   45.8740 C   0  0  0  0  0  0  0  0  0  0  0  0
   55.1710   25.3830   46.3620 O   0  0  0  0  0  0  0  0  0  0  0  0
   56.6310   23.9330   45.1950 C   0  0  0  0  0  0  0  0  0  0  0  0
   56.3550   23.7960   43.8240 C   0  0  0  0  0  0  0  0  0  0  0  0
   56.6330   22.5980   43.1620 C   0  0  0  0  0  0  0  0  0  0  0  0
   57.1990   21.5280   43.8600 C   0  0  0  0  0  0  0  0  0  0  0  0
   57.4980   21.6590   45.2180 C   0  0  0  0  0  0  0  0  0  0  0  0
   57.2280   22.8590   45.8860 C   0  0  0  0  0  0  0  0  0  0  0  0
   57.5820   22.9800   47.2260 O   0  0  0  0  0  0  0  0  0  0  0  0
   58.9060   31.6890   47.4690 C   0  0  0  0  0  0  0  0  0  0  0  0
   59.1150   32.2590   48.7400 C   0  0  0  0  0  0  0  0  0  0  0  0
   59.3370   33.6350   48.9130 O   0  0  0  0  0  0  0  0  0  0  0  0
   59.6330   34.5430   47.8560 C   0  0  0  0  0  0  0  0  0  0  0  0
   58.5019   32.5912   52.9520 H   0  0  0  0  0  0  0  0  0  0  0  0
   58.3370   33.7907   51.6251 H   0  0  0  0  0  0  0  0  0  0  0  0
   57.3250   32.3067   51.6251 H   0  0  0  0  0  0  0  0  0  0  0  0
   58.8885   29.4087   50.6271 H   0  0  0  0  0  0  0  0  0  0  0  0
   58.5332   28.4142   48.3750 H   0  0  0  0  0  0  0  0  0  0  0  0
   59.3960   29.8978   45.3487 H   0  0  0  0  0  0  0  0  0  0  0  0
   60.4853   27.4119   48.2186 H   0  0  0  0  0  0  0  0  0  0  0  0
   61.2009   26.6081   46.7803 H   0  0  0  0  0  0  0  0  0  0  0  0
   60.9432   28.3858   46.7803 H   0  0  0  0  0  0  0  0  0  0  0  0
   55.9169   24.6382   43.2683 H   0  0  0  0  0  0  0  0  0  0  0  0
   56.4062   22.4967   42.0904 H   0  0  0  0  0  0  0  0  0  0  0  0
   57.4092   20.5819   43.3396 H   0  0  0  0  0  0  0  0  0  0  0  0
   57.9471   20.8164   45.7643 H   0  0  0  0  0  0  0  0  0  0  0  0
   58.9105   32.3323   46.5767 H   0  0  0  0  0  0  0  0  0  0  0  0
   59.9477   35.5083   48.2792 H   0  0  0  0  0  0  0  0  0  0  0  0
   60.4439   34.1325   47.2363 H   0  0  0  0  0  0  0  0  0  0  0  0
   58.7360   34.6893   47.2363 H   0  0  0  0  0  0  0  0  0  0  0  0
  1  2  1  0
  2  3  1  0
  3  4  2  0
  4  5  1  0
  5  6  2  0
  6  7  1  0
  7  8  1  0
  8  9  1  0
  9 10  2  0
  9 11  1  0
 11 12  1  0
 12 13  2  0
 13 14  1  0
 14 15  1  0
 14 16  2  0
 16 17  1  0
 17 18  1  0
 18 19  2  0
 18 20  1  0
 20 21  2  0
 21 22  1  0
 22 23  2  0
 23 24  1  0
 24 25  2  0
 25 26  1  0
  6 27  1  0
 27 28  2  0
 28 29  1  0
 29 30  1  0
 28  3  1  0
 13  7  1  0
 25 20  1  0
 17 12  1  0
  1 31  1  0
  1 32  1  0
  1 33  1  0
  4 34  1  0
  5 35  1  0
  7 36  1  6
 15 37  1  0
 15 38  1  0
 15 39  1  0
 21 40  1  0
 22 41  1  0
 23 42  1  0
 24 43  1  0
 27 44  1  0
 30 45  1  0
 30 46  1  0
 30 47  1  0
M  CHG  3   8  -1  11  -1  26  -1
M  END
>  <UniqueID>  (54) 
49

>  <SMILES>  (54) 
COc1ccc([C@@H]2[N-]C(=O)[N-]c3c2c(C)nn3C(=O)c2ccccc2[O-])cc1OC

>  <Energy>  (54) 
89.90137323870654

>  <Genealogy>  (54) 
COc1ccc(C2[N-]C(=O)[N-]c3c2c(C)nn3C(=O)c2ccccc2[O-])cc1OC (protonated)
COc1ccc([C@@H]2[N-]C(=O)[N-]c3c2c(C)nn3C(=O)c2ccccc2[O-])cc1OC (chirality)
COc1ccc([C@@H]2[N-]C(=O)[N-]c3c2c(C)nn3C(=O)c2ccccc2[O-])cc1OC (3D coordinates assigned)
COc1ccc([C@@H]2[N-]C(=O)[N-]c3c2c(C)nn3C(=O)c2ccccc2[O-])cc1OC (nonaromatic ring conformer: 89.90137323870654 kcal/mol)

>  <smiles>  (54) 
COc1ccc(C2NC(=O)Nc3c2c(C)nn3C(=O)c2ccccc2O)cc1OC

>  <score_type>  (54) 
oracle

>  <origin>  (54) 
adg

>  <m_score__min__energy>  (54) 
-13.85

>  <m_primary>  (54) 
energy

$$$$
54:0
     RDKit          3D

 49 52  0  0  0  0  0  0  0  0999 V2000
   56.1220   22.7040   41.5540 H   0  0  0  0  0  0  0  0  0  0  0  0
   55.5300   22.2350   42.2760 N   0  0  0  0  0  0  0  0  0  0  0  0
   56.5410   21.9470   43.6470 S   0  0  0  0  0  0  0  0  0  0  0  0
   55.9170   20.8990   44.5230 O   0  0  0  0  0  0  0  0  0  0  0  0
   57.8810   21.4530   43.1740 O   0  0  0  0  0  0  0  0  0  0  0  0
   56.7270   23.4400   44.5630 C   0  0  0  0  0  0  0  0  0  0  0  0
   57.5110   24.4760   44.0430 C   0  0  0  0  0  0  0  0  0  0  0  0
   58.0010   24.3547   43.0657 H   0  0  0  0  0  0  0  0  0  0  0  0
   57.6740   25.6650   44.7610 C   0  0  0  0  0  0  0  0  0  0  0  0
   58.3064   26.4673   44.3530 H   0  0  0  0  0  0  0  0  0  0  0  0
   57.0380   25.8410   45.9950 C   0  0  0  0  0  0  0  0  0  0  0  0
   57.2590   27.0640   46.7170 N   0  0  0  0  0  0  0  0  0  0  0  0
   58.2960   27.3690   47.4430 C   0  0  0  0  0  0  0  0  0  0  0  0
   58.4410   28.6440   47.8880 N   0  0  0  0  0  0  0  0  0  0  0  0
   59.5050   29.0130   48.6530 C   0  0  0  0  0  0  0  0  0  0  0  0
   59.6200   30.3500   49.1680 N   0  0  0  0  0  0  0  0  0  0  0  0
   59.5920   31.4810   48.5200 C   0  0  0  0  0  0  0  0  0  0  0  0
   59.9380   32.6110   49.1910 N   0  0  0  0  0  0  0  0  0  0  0  0
   59.9490   33.8370   48.6080 C   0  0  0  0  0  0  0  0  0  0  0  0
   60.2316   34.7222   49.1968 H   0  0  0  0  0  0  0  0  0  0  0  0
   59.6020   33.9770   47.2610 C   0  0  0  0  0  0  0  0  0  0  0  0
   59.6070   35.2370   46.6480 C   0  0  0  0  0  0  0  0  0  0  0  0
   59.8779   36.1301   47.2302 H   0  0  0  0  0  0  0  0  0  0  0  0
   59.2690   35.3600   45.3010 C   0  0  0  0  0  0  0  0  0  0  0  0
   59.2735   36.3512   44.8239 H   0  0  0  0  0  0  0  0  0  0  0  0
   58.9250   34.2320   44.5550 C   0  0  0  0  0  0  0  0  0  0  0  0
   58.6598   34.3415   43.4931 H   0  0  0  0  0  0  0  0  0  0  0  0
   58.9140   32.9530   45.1490 C   0  0  0  0  0  0  0  0  0  0  0  0
   58.5680   31.8010   44.4190 O   0  0  0  0  0  0  0  0  0  0  0  0
   57.2650   31.4870   43.9280 C   0  0  0  0  0  0  0  0  0  0  0  0
   56.6249   32.3782   44.0062 H   0  0  0  0  0  0  0  0  0  0  0  0
   57.3491   31.1693   42.8783 H   0  0  0  0  0  0  0  0  0  0  0  0
   56.6550   30.3710   44.7230 C   0  0  0  0  0  0  0  0  0  0  0  0
   55.4670   30.0210   44.4970 O   0  0  0  0  0  0  0  0  0  0  0  0
   57.4200   29.6800   45.7120 N   0  0  0  0  0  0  0  0  0  0  0  0
   58.4120   29.9440   45.9020 H   0  0  0  0  0  0  0  0  0  0  0  0
   56.9910   28.8990   46.2560 H   0  0  0  0  0  0  0  0  0  0  0  0
   59.2540   32.8270   46.5150 C   0  0  0  0  0  0  0  0  0  0  0  0
   59.2600   31.5730   47.1510 C   0  0  0  0  0  0  0  0  0  0  0  0
   59.0066   30.6657   46.5831 H   0  0  0  0  0  0  0  0  0  0  0  0
   60.4390   28.0500   49.0370 C   0  0  0  0  0  0  0  0  0  0  0  0
   61.2867   28.3174   49.6850 H   0  0  0  0  0  0  0  0  0  0  0  0
   60.2760   26.7430   48.5830 C   0  0  0  0  0  0  0  0  0  0  0  0
   61.0071   25.9688   48.8590 H   0  0  0  0  0  0  0  0  0  0  0  0
   59.2130   26.4260   47.7990 N   0  0  0  0  0  0  0  0  0  0  0  0
   56.2760   24.7850   46.5320 C   0  0  0  0  0  0  0  0  0  0  0  0
   55.8049   24.8966   47.5197 H   0  0  0  0  0  0  0  0  0  0  0  0
   56.1160   23.5960   45.8150 C   0  0  0  0  0  0  0  0  0  0  0  0
   55.5088   22.7802   46.2343 H   0  0  0  0  0  0  0  0  0  0  0  0
  1  2  1  0
  2  3  1  0
  3  4  2  0
  3  5  2  0
  3  6  1  0
  6  7  2  0
  7  8  1  0
  7  9  1  0
  9 10  1  0
  9 11  2  0
 11 12  1  0
 12 13  2  0
 13 14  1  0
 14 15  2  0
 15 16  1  0
 16 17  2  3
 17 18  1  0
 18 19  1  0
 19 20  1  0
 19 21  2  0
 21 22  1  0
 22 23  1  0
 22 24  2  0
 24 25  1  0
 24 26  1  0
 26 27  1  0
 26 28  2  0
 28 29  1  0
 29 30  1  0
 30 31  1  0
 30 32  1  0
 30 33  1  0
 33 34  2  0
 33 35  1  0
 35 36  1  0
 35 37  1  0
 28 38  1  0
 38 39  2  0
 39 40  1  0
 15 41  1  0
 41 42  1  0
 41 43  2  0
 43 44  1  0
 43 45  1  0
 11 46  1  0
 46 47  1  0
 46 48  2  0
 48 49  1  0
 48  6  1  0
 45 13  1  0
 39 17  1  0
 38 21  1  0
M  CHG  3   2  -1  18  -1  45  -1
M  END
>  <UniqueID>  (55) 
50

>  <SMILES>  (55) 
[NH-]S(=O)(=O)c1ccc(/N=c2/nc(N=c3cc4c(OCC(N)=O)cccc4c[n-]3)cc[n-]2)cc1

>  <Energy>  (55) 
71.34685518994947

>  <Genealogy>  (55) 
[NH-]S(=O)(=O)c1ccc(N=c2nc(N=c3cc4c(OCC(N)=O)cccc4c[n-]3)cc[n-]2)cc1 (protonated)
[NH-]S(=O)(=O)c1ccc(/N=c2/nc(N=c3cc4c(OCC(N)=O)cccc4c[n-]3)cc[n-]2)cc1 (cis-trans isomerization)
[NH-]S(=O)(=O)c1ccc(/N=c2/nc(N=c3cc4c(OCC(N)=O)cccc4c[n-]3)cc[n-]2)cc1 (3D coordinates assigned)
[NH-]S(=O)(=O)c1ccc(/N=c2/nc(N=c3cc4c(OCC(N)=O)cccc4c[n-]3)cc[n-]2)cc1 (optimized conformer: 71.34685518994947 kcal/mol)

>  <smiles>  (55) 
NC(=O)COc1cccc2c[nH]c(=Nc3cc[nH]c(=Nc4ccc(S(N)(=O)=O)cc4)n3)cc12

>  <score_type>  (55) 
oracle

>  <origin>  (55) 
adg

>  <m_score__min__energy>  (55) 
-15.31

>  <m_primary>  (55) 
energy

$$$$
55:0
     RDKit          3D

 41 43  0  0  1  0  0  0  0  0999 V2000
   56.6490   34.2010   44.8440 O   0  0  0  0  0  0  0  0  0  0  0  0
   58.0040   33.7320   45.3040 S   0  0  0  0  0  0  0  0  0  0  0  0
   59.0150   34.2670   44.3250 O   0  0  0  0  0  0  0  0  0  0  0  0
   58.2450   34.3440   46.9010 N   0  0  0  0  0  0  0  0  0  0  0  0
   59.4560   34.0910   47.6020 C   0  0  0  0  0  0  0  0  0  0  0  0
   59.5440   34.0810   48.9770 C   0  0  0  0  0  0  0  0  0  0  0  0
   60.7030   33.8390   49.6270 N   0  0  0  0  0  0  0  0  0  0  0  0
   61.8410   33.5930   48.9190 C   0  0  0  0  0  0  0  0  0  0  0  0
   63.0260   33.3450   49.5760 C   0  0  0  0  0  0  0  0  0  0  0  0
   64.1800   33.0960   48.8270 C   0  0  0  0  0  0  0  0  0  0  0  0
   64.1340   33.0960   47.4420 C   0  0  0  0  0  0  0  0  0  0  0  0
   62.9400   33.3450   46.7740 C   0  0  0  0  0  0  0  0  0  0  0  0
   61.8110   33.5900   47.5280 C   0  0  0  0  0  0  0  0  0  0  0  0
   60.6160   33.8400   46.8710 C   0  0  0  0  0  0  0  0  0  0  0  0
   58.0500   32.0030   45.3680 C   0  0  0  0  0  0  0  0  0  0  0  0
   58.5330   31.2900   46.4450 C   0  0  0  0  0  0  0  0  0  0  0  0
   58.5620   29.9220   46.4840 C   0  0  0  0  0  0  0  0  0  0  0  0
   58.0950   29.1490   45.4140 C   0  0  0  0  0  0  0  0  0  0  0  0
   57.4630   26.7860   45.1630 C   0  0  0  0  0  0  0  0  0  0  0  0
   56.3500   26.2290   45.8700 C   0  0  0  0  0  0  0  0  0  0  0  0
   58.2680   27.7330   45.5380 C   0  0  0  0  0  0  0  0  0  0  0  0
   55.0580   26.6890   45.9670 O   0  0  0  0  0  0  0  0  0  0  0  0
   56.5730   25.1260   46.5240 N   0  0  0  0  0  0  0  0  0  0  0  0
   55.6290   24.3680   47.1250 O   0  0  0  0  0  0  0  0  0  0  0  0
   57.6170   29.8500   44.3400 C   0  0  0  0  0  0  0  0  0  0  0  0
   57.5880   31.2560   44.3050 C   0  0  0  0  0  0  0  0  0  0  0  0
   57.5150   34.9180   47.4060 H   0  0  0  0  0  0  0  0  0  0  0  0
   58.6368   34.2774   49.5672 H   0  0  0  0  0  0  0  0  0  0  0  0
   63.0639   33.3429   50.6753 H   0  0  0  0  0  0  0  0  0  0  0  0
   65.1321   32.8985   49.3412 H   0  0  0  0  0  0  0  0  0  0  0  0
   65.0499   32.8973   46.8660 H   0  0  0  0  0  0  0  0  0  0  0  0
   62.8969   33.3466   45.6748 H   0  0  0  0  0  0  0  0  0  0  0  0
   60.5833   33.8403   45.7715 H   0  0  0  0  0  0  0  0  0  0  0  0
   58.9130   31.8470   47.3141 H   0  0  0  0  0  0  0  0  0  0  0  0
   58.9614   29.4183   47.3766 H   0  0  0  0  0  0  0  0  0  0  0  0
   59.2046   27.4050   46.0126 H   0  0  0  0  0  0  0  0  0  0  0  0
   57.6626   26.3547   44.1710 H   0  0  0  0  0  0  0  0  0  0  0  0
   54.3030   26.1520   46.4060 H   0  0  0  0  0  0  0  0  0  0  0  0
   54.6490   24.5150   47.1180 H   0  0  0  0  0  0  0  0  0  0  0  0
   57.2407   29.2920   43.4699 H   0  0  0  0  0  0  0  0  0  0  0  0
   57.1906   31.7674   43.4159 H   0  0  0  0  0  0  0  0  0  0  0  0
  1  2  2  0
  2  3  2  0
  2  4  1  0
  4  5  1  0
  5  6  2  0
  6  7  1  0
  7  8  2  0
  8  9  1  0
  9 10  2  0
 10 11  1  0
 11 12  2  0
 12 13  1  0
 13 14  2  0
  2 15  1  0
 15 16  2  0
 16 17  1  0
 17 18  2  0
 18 19  1  0
 19 20  2  0
 20 21  1  0
 21 22  1  0
 21 23  2  0
 23 24  1  0
 18 25  1  0
 25 26  2  0
 14  5  1  0
 26 15  1  0
 13  8  1  0
  4 27  1  0
  6 28  1  0
  9 29  1  0
 10 30  1  0
 11 31  1  0
 12 32  1  0
 14 33  1  0
 16 34  1  0
 17 35  1  0
 19 36  1  0
 20 37  1  0
 22 38  1  0
 24 39  1  0
 25 40  1  0
 26 41  1  0
M  END
>  <smiles>  (56) 
O=S(=O)(Nc1cnc2ccccc2c1)c1ccc(C=CC(O)=NO)cc1

>  <score_type>  (56) 
oracle

>  <origin>  (56) 
adg

>  <m_score__min__energy>  (56) 
-10.470000000000001

>  <m_primary>  (56) 
energy

$$$$
56:0
     RDKit          3D

 47 50  0  0  0  0  0  0  0  0999 V2000
   58.2397   32.3058   46.8031 H   0  0  0  0  0  0  0  0  0  0  0  0
   58.0300   31.5300   46.0520 C   0  0  0  0  0  0  0  0  0  0  0  0
   58.2810   30.1870   46.3500 C   0  0  0  0  0  0  0  0  0  0  0  0
   58.6694   29.9092   47.3410 H   0  0  0  0  0  0  0  0  0  0  0  0
   58.0400   29.1940   45.3920 C   0  0  0  0  0  0  0  0  0  0  0  0
   58.3640   27.5100   45.7880 S   0  0  0  0  0  0  0  0  0  0  0  0
   59.8400   27.2540   45.6660 O   0  0  0  0  0  0  0  0  0  0  0  0
   57.9290   27.2170   47.1980 O   0  0  0  0  0  0  0  0  0  0  0  0
   57.4880   26.4940   44.6840 N   0  0  0  0  0  0  0  0  0  0  0  0
   56.6240   27.0190   44.4130 H   0  0  0  0  0  0  0  0  0  0  0  0
   57.0810   25.2640   45.3650 C   0  0  0  0  0  0  0  0  0  0  0  0
   57.8106   25.0230   46.1522 H   0  0  0  0  0  0  0  0  0  0  0  0
   57.0388   24.4405   44.6369 H   0  0  0  0  0  0  0  0  0  0  0  0
   55.7310   25.4530   45.9790 C   0  0  0  0  0  0  0  0  0  0  0  0
   55.1000   24.4640   46.4380 O   0  0  0  0  0  0  0  0  0  0  0  0
   55.1460   26.7130   45.9970 O   0  0  0  0  0  0  0  0  0  0  0  0
   57.5590   29.5560   44.1260 C   0  0  0  0  0  0  0  0  0  0  0  0
   57.3786   28.7820   43.3654 H   0  0  0  0  0  0  0  0  0  0  0  0
   57.3080   30.8990   43.8280 C   0  0  0  0  0  0  0  0  0  0  0  0
   56.9485   31.1798   42.8270 H   0  0  0  0  0  0  0  0  0  0  0  0
   57.5130   31.8920   44.8020 C   0  0  0  0  0  0  0  0  0  0  0  0
   57.2950   33.2810   44.5120 N   0  0  0  0  0  0  0  0  0  0  0  0
   58.1240   34.2310   44.7310 N   0  0  0  0  0  0  0  0  0  0  0  0
   59.0280   34.3180   45.8450 C   0  0  0  0  0  0  0  0  0  0  0  0
   58.5620   34.5710   47.1470 C   0  0  0  0  0  0  0  0  0  0  0  0
   57.4882   34.7317   47.3234 H   0  0  0  0  0  0  0  0  0  0  0  0
   59.4580   34.6190   48.2170 C   0  0  0  0  0  0  0  0  0  0  0  0
   59.0907   34.8405   49.2299 H   0  0  0  0  0  0  0  0  0  0  0  0
   60.8230   34.3860   48.0050 C   0  0  0  0  0  0  0  0  0  0  0  0
   61.9570   34.4440   49.3940 S   0  0  0  0  0  0  0  0  0  0  0  0
   61.6800   32.7260   49.7990 C   0  0  0  0  0  0  0  0  0  0  0  0
   61.3640   31.7870   48.8750 N   0  0  0  0  0  0  0  0  0  0  0  0
   61.1970   30.5740   49.4600 C   0  0  0  0  0  0  0  0  0  0  0  0
   60.8640   29.4060   48.7720 C   0  0  0  0  0  0  0  0  0  0  0  0
   60.7170   29.4201   47.6820 H   0  0  0  0  0  0  0  0  0  0  0  0
   60.7200   28.2110   49.4990 C   0  0  0  0  0  0  0  0  0  0  0  0
   60.3010   26.7270   48.6640 Cl  0  0  0  0  0  0  0  0  0  0  0  0
   60.9100   28.2000   50.8970 C   0  0  0  0  0  0  0  0  0  0  0  0
   60.7949   27.2603   51.4571 H   0  0  0  0  0  0  0  0  0  0  0  0
   61.2450   29.3810   51.5770 C   0  0  0  0  0  0  0  0  0  0  0  0
   61.3951   29.3828   52.6667 H   0  0  0  0  0  0  0  0  0  0  0  0
   61.3820   30.5500   50.8340 C   0  0  0  0  0  0  0  0  0  0  0  0
   61.7690   32.0940   51.3670 S   0  0  0  0  0  0  0  0  0  0  0  0
   61.2860   34.1010   46.7120 C   0  0  0  0  0  0  0  0  0  0  0  0
   62.6370   33.8570   46.4850 O   0  0  0  0  0  0  0  0  0  0  0  0
   60.3870   34.0560   45.6400 C   0  0  0  0  0  0  0  0  0  0  0  0
   60.7510   33.8133   44.6308 H   0  0  0  0  0  0  0  0  0  0  0  0
  1  2  1  0
  2  3  2  0
  3  4  1  0
  3  5  1  0
  5  6  1  0
  6  7  2  0
  6  8  2  0
  6  9  1  0
  9 10  1  0
  9 11  1  0
 11 12  1  0
 11 13  1  0
 11 14  1  0
 14 15  2  0
 14 16  1  0
  5 17  2  0
 17 18  1  0
 17 19  1  0
 19 20  1  0
 19 21  2  0
 21 22  1  0
 22 23  2  0
 23 24  1  0
 24 25  2  0
 25 26  1  0
 25 27  1  0
 27 28  1  0
 27 29  2  0
 29 30  1  0
 30 31  1  0
 31 32  2  0
 32 33  1  0
 33 34  2  0
 34 35  1  0
 34 36  1  0
 36 37  1  0
 36 38  2  0
 38 39  1  0
 38 40  1  0
 40 41  1  0
 40 42  2  0
 42 43  1  0
 29 44  1  0
 44 45  1  0
 44 46  2  0
 46 47  1  0
 21  2  1  0
 46 24  1  0
 43 31  1  0
 42 33  1  0
M  CHG  2  16  -1  45  -1
M  END
>  <UniqueID>  (57) 
51

>  <SMILES>  (57) 
O=C([O-])CNS(=O)(=O)c1ccc(/N=N\c2ccc(Sc3nc4cc(Cl)ccc4s3)c([O-])c2)cc1

>  <Energy>  (57) 
92.18176496132648

>  <Genealogy>  (57) 
O=C([O-])CNS(=O)(=O)c1ccc(N=Nc2ccc(Sc3nc4cc(Cl)ccc4s3)c([O-])c2)cc1 (protonated)
O=C([O-])CNS(=O)(=O)c1ccc(/N=N\c2ccc(Sc3nc4cc(Cl)ccc4s3)c([O-])c2)cc1 (cis-trans isomerization)
O=C([O-])CNS(=O)(=O)c1ccc(/N=N\c2ccc(Sc3nc4cc(Cl)ccc4s3)c([O-])c2)cc1 (3D coordinates assigned)
O=C([O-])CNS(=O)(=O)c1ccc(/N=N\c2ccc(Sc3nc4cc(Cl)ccc4s3)c([O-])c2)cc1 (optimized conformer: 92.18176496132648 kcal/mol)

>  <smiles>  (57) 
O=C(O)CNS(=O)(=O)c1ccc(N=Nc2ccc(Sc3nc4cc(Cl)ccc4s3)c(O)c2)cc1

>  <score_type>  (57) 
oracle

>  <origin>  (57) 
adg

>  <m_score__min__energy>  (57) 
-14.890000000000001

>  <m_primary>  (57) 
energy

$$$$
57:0
     RDKit          3D

 39 40  0  0  0  0  0  0  0  0999 V2000
   56.8240   24.3270   45.2830 C   0  0  0  0  0  0  0  0  0  0  0  0
   56.7020   26.0150   45.8350 S   0  0  0  0  0  0  0  0  0  0  0  0
   57.3930   26.1820   47.1600 O   0  0  0  0  0  0  0  0  0  0  0  0
   55.2480   26.3570   45.9960 O   0  0  0  0  0  0  0  0  0  0  0  0
   57.4040   27.0840   44.6600 N   0  0  0  0  0  0  0  0  0  0  0  0
   58.2450   28.2020   45.0090 C   0  0  0  0  0  0  0  0  0  0  0  0
   59.5920   27.9940   45.3430 C   0  0  0  0  0  0  0  0  0  0  0  0
   60.4090   29.0630   45.7030 C   0  0  0  0  0  0  0  0  0  0  0  0
   59.8970   30.3560   45.7370 C   0  0  0  0  0  0  0  0  0  0  0  0
   58.5520   30.6090   45.4120 C   0  0  0  0  0  0  0  0  0  0  0  0
   58.0480   32.0110   45.4400 C   0  0  0  0  0  0  0  0  0  0  0  0
   57.5220   32.5110   44.4080 O   0  0  0  0  0  0  0  0  0  0  0  0
   58.1650   32.8730   46.6650 C   0  0  0  0  0  0  0  0  0  0  0  0
   59.4460   34.0990   46.4560 S   0  0  0  0  0  0  0  0  0  0  0  0
   59.1080   35.3230   47.2610 O   0  0  0  0  0  0  0  0  0  0  0  0
   59.5660   34.4930   45.0100 O   0  0  0  0  0  0  0  0  0  0  0  0
   60.9760   33.4260   47.0070 C   0  0  0  0  0  0  0  0  0  0  0  0
   61.0010   32.4380   48.0020 C   0  0  0  0  0  0  0  0  0  0  0  0
   62.2190   31.8960   48.4240 C   0  0  0  0  0  0  0  0  0  0  0  0
   63.4160   32.3350   47.8510 C   0  0  0  0  0  0  0  0  0  0  0  0
   63.3960   33.3120   46.8520 C   0  0  0  0  0  0  0  0  0  0  0  0
   62.1790   33.8550   46.4290 C   0  0  0  0  0  0  0  0  0  0  0  0
   57.7170   29.5160   45.0520 C   0  0  0  0  0  0  0  0  0  0  0  0
   56.3190   29.7310   44.7450 C   0  0  0  0  0  0  0  0  0  0  0  0
   55.2010   29.9010   44.5010 N   0  0  0  0  0  0  0  0  0  0  0  0
   56.8723   23.6586   46.1553 H   0  0  0  0  0  0  0  0  0  0  0  0
   55.9417   24.0749   44.6763 H   0  0  0  0  0  0  0  0  0  0  0  0
   57.7333   24.2044   44.6763 H   0  0  0  0  0  0  0  0  0  0  0  0
   57.2830   26.8140   43.6600 H   0  0  0  0  0  0  0  0  0  0  0  0
   60.0071   26.9756   45.3202 H   0  0  0  0  0  0  0  0  0  0  0  0
   61.4632   28.8842   45.9614 H   0  0  0  0  0  0  0  0  0  0  0  0
   60.5528   31.1919   46.0219 H   0  0  0  0  0  0  0  0  0  0  0  0
   57.2053   33.3805   46.8421 H   0  0  0  0  0  0  0  0  0  0  0  0
   58.4239   32.2346   47.5225 H   0  0  0  0  0  0  0  0  0  0  0  0
   60.0599   32.0885   48.4517 H   0  0  0  0  0  0  0  0  0  0  0  0
   62.2352   31.1238   49.2072 H   0  0  0  0  0  0  0  0  0  0  0  0
   64.3741   31.9113   48.1865 H   0  0  0  0  0  0  0  0  0  0  0  0
   64.3380   33.6539   46.3983 H   0  0  0  0  0  0  0  0  0  0  0  0
   62.1654   34.6214   45.6400 H   0  0  0  0  0  0  0  0  0  0  0  0
  1  2  1  0
  2  3  2  0
  2  4  2  0
  2  5  1  0
  5  6  1  0
  6  7  2  0
  7  8  1  0
  8  9  2  0
  9 10  1  0
 10 11  1  0
 11 12  2  0
 11 13  1  0
 13 14  1  0
 14 15  2  0
 14 16  2  0
 14 17  1  0
 17 18  2  0
 18 19  1  0
 19 20  2  0
 20 21  1  0
 21 22  2  0
 10 23  2  0
 23 24  1  0
 24 25  3  0
 23  6  1  0
 22 17  1  0
  1 26  1  0
  1 27  1  0
  1 28  1  0
  5 29  1  0
  7 30  1  0
  8 31  1  0
  9 32  1  0
 13 33  1  0
 13 34  1  0
 18 35  1  0
 19 36  1  0
 20 37  1  0
 21 38  1  0
 22 39  1  0
M  END
>  <UniqueID>  (58) 
52

>  <SMILES>  (58) 
CS(=O)(=O)Nc1cccc(C(=O)CS(=O)(=O)c2ccccc2)c1C#N

>  <Energy>  (58) 
42.08508671004471

>  <Genealogy>  (58) 
CS(=O)(=O)Nc1cccc(C(=O)CS(=O)(=O)c2ccccc2)c1C#N (3D coordinates assigned)
CS(=O)(=O)Nc1cccc(C(=O)CS(=O)(=O)c2ccccc2)c1C#N (optimized conformer: 42.08508671004471 kcal/mol)

>  <smiles>  (58) 
CS(=O)(=O)Nc1cccc(C(=O)CS(=O)(=O)c2ccccc2)c1C#N

>  <score_type>  (58) 
oracle

>  <origin>  (58) 
adg

>  <m_score__min__energy>  (58) 
-9.5399999999999991

>  <m_primary>  (58) 
energy

$$$$
58:0
     RDKit          3D

 52 54  0  0  0  0  0  0  0  0999 V2000
   60.7370   33.8750   46.2220 C   0  0  0  0  0  0  0  0  0  0  0  0
   59.6630   34.6690   46.2040 C   0  0  0  0  0  0  0  0  0  0  0  0
   59.1010   35.1950   44.9140 C   0  0  0  0  0  0  0  0  0  0  0  0
   59.1590   34.2000   43.8920 O   0  0  0  0  0  0  0  0  0  0  0  0
   58.2990   33.0940   43.7850 C   0  0  0  0  0  0  0  0  0  0  0  0
   58.1410   32.3660   42.5890 C   0  0  0  0  0  0  0  0  0  0  0  0
   57.2700   31.2740   42.5390 C   0  0  0  0  0  0  0  0  0  0  0  0
   56.5360   30.9000   43.6750 C   0  0  0  0  0  0  0  0  0  0  0  0
   55.6300   29.7030   43.6280 C   0  0  0  0  0  0  0  0  0  0  0  0
   55.6150   29.0590   44.9340 N   0  0  0  0  0  0  0  0  0  0  0  0
   56.6830   28.2300   45.4050 C   0  0  0  0  0  0  0  0  0  0  0  0
   56.5020   26.9870   45.5240 O   0  0  0  0  0  0  0  0  0  0  0  0
   57.9940   28.8260   45.7510 C   0  0  0  0  0  0  0  0  0  0  0  0
   59.1350   28.5500   44.9700 C   0  0  0  0  0  0  0  0  0  0  0  0
   60.3740   29.1110   45.2970 C   0  0  0  0  0  0  0  0  0  0  0  0
   60.4880   29.9530   46.4060 C   0  0  0  0  0  0  0  0  0  0  0  0
   61.6830   30.5070   46.7350 N   0  0  0  0  0  0  0  0  0  0  0  0
   61.8200   31.3370   47.8040 C   0  0  0  0  0  0  0  0  0  0  0  0
   63.1940   31.8750   48.1110 C   0  0  0  0  0  0  0  0  0  0  0  0
   63.6090   32.9200   47.0800 C   0  0  0  0  0  0  0  0  0  0  0  0
   60.6840   31.6090   48.6100 C   0  0  0  0  0  0  0  0  0  0  0  0
   60.7190   32.5330   49.8000 C   0  0  0  0  0  0  0  0  0  0  0  0
   59.8980   33.7890   49.5350 C   0  0  0  0  0  0  0  0  0  0  0  0
   59.4890   31.0570   48.2650 N   0  0  0  0  0  0  0  0  0  0  0  0
   59.3590   30.2370   47.1910 C   0  0  0  0  0  0  0  0  0  0  0  0
   58.1200   29.6770   46.8660 C   0  0  0  0  0  0  0  0  0  0  0  0
   56.7050   31.6150   44.8700 C   0  0  0  0  0  0  0  0  0  0  0  0
   57.5750   32.7080   44.9190 C   0  0  0  0  0  0  0  0  0  0  0  0
   61.1297   33.5026   47.1797 H   0  0  0  0  0  0  0  0  0  0  0  0
   61.2288   33.5935   45.2792 H   0  0  0  0  0  0  0  0  0  0  0  0
   59.1801   34.9434   47.1535 H   0  0  0  0  0  0  0  0  0  0  0  0
   58.0530   35.4899   45.0710 H   0  0  0  0  0  0  0  0  0  0  0  0
   59.6995   36.0616   44.5964 H   0  0  0  0  0  0  0  0  0  0  0  0
   58.7053   32.6582   41.6911 H   0  0  0  0  0  0  0  0  0  0  0  0
   57.1593   30.7048   41.6043 H   0  0  0  0  0  0  0  0  0  0  0  0
   54.6112   30.0234   43.3646 H   0  0  0  0  0  0  0  0  0  0  0  0
   55.9961   28.9933   42.8715 H   0  0  0  0  0  0  0  0  0  0  0  0
   59.0501   27.8877   44.0959 H   0  0  0  0  0  0  0  0  0  0  0  0
   61.2581   28.8893   44.6812 H   0  0  0  0  0  0  0  0  0  0  0  0
   63.1858   32.3367   49.1094 H   0  0  0  0  0  0  0  0  0  0  0  0
   63.9135   31.0435   48.0798 H   0  0  0  0  0  0  0  0  0  0  0  0
   63.9674   33.8226   47.5966 H   0  0  0  0  0  0  0  0  0  0  0  0
   64.4141   32.5140   46.4500 H   0  0  0  0  0  0  0  0  0  0  0  0
   62.7447   33.1770   46.4500 H   0  0  0  0  0  0  0  0  0  0  0  0
   60.3055   32.0099   50.6749 H   0  0  0  0  0  0  0  0  0  0  0  0
   61.7623   32.8271   49.9871 H   0  0  0  0  0  0  0  0  0  0  0  0
   59.6018   34.2422   50.4925 H   0  0  0  0  0  0  0  0  0  0  0  0
   60.5016   34.5072   48.9606 H   0  0  0  0  0  0  0  0  0  0  0  0
   58.9980   33.5243   48.9606 H   0  0  0  0  0  0  0  0  0  0  0  0
   57.2387   29.9023   47.4845 H   0  0  0  0  0  0  0  0  0  0  0  0
   56.1510   31.3145   45.7716 H   0  0  0  0  0  0  0  0  0  0  0  0
   57.6917   33.2699   45.8574 H   0  0  0  0  0  0  0  0  0  0  0  0
  1  2  2  0
  2  3  1  0
  3  4  1  0
  4  5  1  0
  5  6  2  0
  6  7  1  0
  7  8  2  0
  8  9  1  0
  9 10  1  0
 10 11  1  0
 11 12  2  0
 11 13  1  0
 13 14  2  0
 14 15  1  0
 15 16  2  0
 16 17  1  0
 17 18  2  0
 18 19  1  0
 19 20  1  0
 18 21  1  0
 21 22  1  0
 22 23  1  0
 21 24  2  0
 24 25  1  0
 25 26  2  0
  8 27  1  0
 27 28  2  0
 28  5  1  0
 26 13  1  0
 25 16  1  0
  1 29  1  0
  1 30  1  0
  2 31  1  0
  3 32  1  0
  3 33  1  0
  6 34  1  0
  7 35  1  0
  9 36  1  0
  9 37  1  0
 14 38  1  0
 15 39  1  0
 19 40  1  0
 19 41  1  0
 20 42  1  0
 20 43  1  0
 20 44  1  0
 22 45  1  0
 22 46  1  0
 23 47  1  0
 23 48  1  0
 23 49  1  0
 26 50  1  0
 27 51  1  0
 28 52  1  0
M  CHG  1  10  -1
M  END
>  <UniqueID>  (59) 
53

>  <SMILES>  (59) 
C=CCOc1ccc(C[N-]C(=O)c2ccc3nc(CC)c(CC)nc3c2)cc1

>  <Energy>  (59) 
47.35764909573352

>  <Genealogy>  (59) 
C=CCOc1ccc(C[N-]C(=O)c2ccc3nc(CC)c(CC)nc3c2)cc1 (protonated)
C=CCOc1ccc(C[N-]C(=O)c2ccc3nc(CC)c(CC)nc3c2)cc1 (3D coordinates assigned)
C=CCOc1ccc(C[N-]C(=O)c2ccc3nc(CC)c(CC)nc3c2)cc1 (optimized conformer: 47.35764909573352 kcal/mol)

>  <smiles>  (59) 
C=CCOc1ccc(CNC(=O)c2ccc3nc(CC)c(CC)nc3c2)cc1

>  <score_type>  (59) 
oracle

>  <origin>  (59) 
adg

>  <m_score__min__energy>  (59) 
-9.8000000000000007

>  <m_primary>  (59) 
energy

$$$$
59:0
     RDKit          3D

 48 52  0  0  0  0  0  0  0  0999 V2000
   60.5420   26.7460   48.1440 O   0  0  0  0  0  0  0  0  0  0  0  0
   59.5360   27.5020   48.1710 C   0  0  0  0  0  0  0  0  0  0  0  0
   58.2480   26.9540   47.8710 N   0  0  0  0  0  0  0  0  0  0  0  0
   57.9780   25.9780   46.8580 C   0  0  0  0  0  0  0  0  0  0  0  0
   57.7410   24.3150   47.1460 S   0  0  0  0  0  0  0  0  0  0  0  0
   57.3740   23.9920   45.5440 C   0  0  0  0  0  0  0  0  0  0  0  0
   57.3980   25.1150   44.8010 C   0  0  0  0  0  0  0  0  0  0  0  0
   57.7280   26.2790   45.5090 C   0  0  0  0  0  0  0  0  0  0  0  0
   57.7980   27.6320   44.9190 C   0  0  0  0  0  0  0  0  0  0  0  0
   58.7250   27.9240   44.1160 O   0  0  0  0  0  0  0  0  0  0  0  0
   56.8170   28.6140   45.2570 N   0  0  0  0  0  0  0  0  0  0  0  0
   56.5910   30.0620   44.3340 S   0  0  0  0  0  0  0  0  0  0  0  0
   56.9690   29.7940   42.9040 O   0  0  0  0  0  0  0  0  0  0  0  0
   55.1460   30.4670   44.3930 O   0  0  0  0  0  0  0  0  0  0  0  0
   57.5780   31.3560   45.0060 C   0  0  0  0  0  0  0  0  0  0  0  0
   58.7960   31.0510   45.6280 C   0  0  0  0  0  0  0  0  0  0  0  0
   59.5890   32.0720   46.1610 C   0  0  0  0  0  0  0  0  0  0  0  0
   59.1650   33.4040   46.0770 C   0  0  0  0  0  0  0  0  0  0  0  0
   60.1600   34.6850   46.7460 Cl  0  0  0  0  0  0  0  0  0  0  0  0
   57.9480   33.7120   45.4610 C   0  0  0  0  0  0  0  0  0  0  0  0
   57.1550   32.6910   44.9280 C   0  0  0  0  0  0  0  0  0  0  0  0
   57.0320   24.8500   43.3920 C   0  0  0  0  0  0  0  0  0  0  0  0
   56.7960   23.3170   43.3670 C   0  0  0  0  0  0  0  0  0  0  0  0
   56.9870   22.7810   44.8060 C   0  0  0  0  0  0  0  0  0  0  0  0
   59.6980   28.9070   48.5830 C   0  0  0  0  0  0  0  0  0  0  0  0
   60.8850   29.6370   48.5120 C   0  0  0  0  0  0  0  0  0  0  0  0
   60.5520   30.8740   49.0110 C   0  0  0  0  0  0  0  0  0  0  0  0
   61.3170   32.0250   49.1840 C   0  0  0  0  0  0  0  0  0  0  0  0
   60.6810   33.1580   49.7270 C   0  0  0  0  0  0  0  0  0  0  0  0
   59.3130   33.1110   50.0780 C   0  0  0  0  0  0  0  0  0  0  0  0
   58.5690   31.9310   49.8900 C   0  0  0  0  0  0  0  0  0  0  0  0
   59.2260   30.8280   49.3510 C   0  0  0  0  0  0  0  0  0  0  0  0
   58.7280   29.6440   49.0940 O   0  0  0  0  0  0  0  0  0  0  0  0
   59.1294   30.0050   45.6972 H   0  0  0  0  0  0  0  0  0  0  0  0
   60.5458   31.8289   46.6462 H   0  0  0  0  0  0  0  0  0  0  0  0
   57.6143   34.7581   45.3957 H   0  0  0  0  0  0  0  0  0  0  0  0
   56.1968   32.9355   44.4462 H   0  0  0  0  0  0  0  0  0  0  0  0
   56.1175   25.3941   43.1134 H   0  0  0  0  0  0  0  0  0  0  0  0
   57.8016   25.1788   42.6781 H   0  0  0  0  0  0  0  0  0  0  0  0
   55.7742   23.1021   43.0210 H   0  0  0  0  0  0  0  0  0  0  0  0
   57.5059   22.8319   42.6809 H   0  0  0  0  0  0  0  0  0  0  0  0
   56.0519   22.3564   45.2001 H   0  0  0  0  0  0  0  0  0  0  0  0
   57.7238   21.9675   44.8783 H   0  0  0  0  0  0  0  0  0  0  0  0
   61.8641   29.2996   48.1412 H   0  0  0  0  0  0  0  0  0  0  0  0
   62.3811   32.0482   48.9061 H   0  0  0  0  0  0  0  0  0  0  0  0
   61.2527   34.0854   49.8789 H   0  0  0  0  0  0  0  0  0  0  0  0
   58.8264   34.0023   50.5009 H   0  0  0  0  0  0  0  0  0  0  0  0
   57.5038   31.8818   50.1600 H   0  0  0  0  0  0  0  0  0  0  0  0
  1  2  2  0
  2  3  1  0
  3  4  1  0
  4  5  1  0
  5  6  1  0
  6  7  2  0
  7  8  1  0
  8  9  1  0
  9 10  2  0
  9 11  1  0
 11 12  1  0
 12 13  2  0
 12 14  2  0
 12 15  1  0
 15 16  2  0
 16 17  1  0
 17 18  2  0
 18 19  1  0
 18 20  1  0
 20 21  2  0
  7 22  1  0
 22 23  1  0
 23 24  1  0
  2 25  1  0
 25 26  2  0
 26 27  1  0
 27 28  2  0
 28 29  1  0
 29 30  2  0
 30 31  1  0
 31 32  2  0
 32 33  1  0
  8  4  2  0
 21 15  1  0
 33 25  1  0
 24  6  1  0
 32 27  1  0
 16 34  1  0
 17 35  1  0
 20 36  1  0
 21 37  1  0
 22 38  1  0
 22 39  1  0
 23 40  1  0
 23 41  1  0
 24 42  1  0
 24 43  1  0
 26 44  1  0
 28 45  1  0
 29 46  1  0
 30 47  1  0
 31 48  1  0
M  CHG  2   3  -1  11  -1
M  END
>  <UniqueID>  (60) 
54

>  <SMILES>  (60) 
O=C([N-]c1sc2c(c1C(=O)[N-]S(=O)(=O)c1ccc(Cl)cc1)CCC2)c1cc2ccccc2o1

>  <Energy>  (60) 
135.7155987460547

>  <Genealogy>  (60) 
O=C([N-]c1sc2c(c1C(=O)[N-]S(=O)(=O)c1ccc(Cl)cc1)CCC2)c1cc2ccccc2o1 (protonated)
O=C([N-]c1sc2c(c1C(=O)[N-]S(=O)(=O)c1ccc(Cl)cc1)CCC2)c1cc2ccccc2o1 (3D coordinates assigned)
O=C([N-]c1sc2c(c1C(=O)[N-]S(=O)(=O)c1ccc(Cl)cc1)CCC2)c1cc2ccccc2o1 (nonaromatic ring conformer: 135.7155987460547 kcal/mol)

>  <smiles>  (60) 
O=C(Nc1sc2c(c1C(=O)NS(=O)(=O)c1ccc(Cl)cc1)CCC2)c1cc2ccccc2o1

>  <score_type>  (60) 
oracle

>  <origin>  (60) 
adg

>  <m_score__min__energy>  (60) 
-13.029999999999999

>  <m_primary>  (60) 
energy

$$$$
60:0
     RDKit          3D

 52 54  0  0  0  0  0  0  0  0999 V2000
   61.9160   31.0610   50.6160 C   0  0  0  0  0  0  0  0  0  0  0  0
   61.3100   31.3200   49.3540 O   0  0  0  0  0  0  0  0  0  0  0  0
   61.8630   32.1450   48.3610 C   0  0  0  0  0  0  0  0  0  0  0  0
   63.2430   32.4180   48.3080 C   0  0  0  0  0  0  0  0  0  0  0  0
   63.7590   33.2610   47.3230 C   0  0  0  0  0  0  0  0  0  0  0  0
   62.9130   33.8190   46.3680 C   0  0  0  0  0  0  0  0  0  0  0  0
   61.5450   33.5520   46.4050 C   0  0  0  0  0  0  0  0  0  0  0  0
   61.0070   32.7330   47.4100 C   0  0  0  0  0  0  0  0  0  0  0  0
   59.5840   32.5700   47.5260 N   0  0  0  0  0  0  0  0  0  0  0  0
   58.4990   33.4570   46.4950 S   0  0  0  0  0  0  0  0  0  0  0  0
   59.1390   34.7520   46.0900 O   0  0  0  0  0  0  0  0  0  0  0  0
   57.2300   33.7430   47.2450 O   0  0  0  0  0  0  0  0  0  0  0  0
   58.1700   32.5040   45.0510 C   0  0  0  0  0  0  0  0  0  0  0  0
   58.5030   32.9890   43.7790 C   0  0  0  0  0  0  0  0  0  0  0  0
   58.0120   32.3450   42.6390 C   0  0  0  0  0  0  0  0  0  0  0  0
   57.1600   31.2420   42.7640 C   0  0  0  0  0  0  0  0  0  0  0  0
   56.8400   30.7420   44.0350 C   0  0  0  0  0  0  0  0  0  0  0  0
   55.8100   29.7060   44.2020 C   0  0  0  0  0  0  0  0  0  0  0  0
   54.8550   29.6330   43.3820 O   0  0  0  0  0  0  0  0  0  0  0  0
   55.9510   28.7370   45.2470 N   0  0  0  0  0  0  0  0  0  0  0  0
   57.1640   28.0670   45.6180 C   0  0  0  0  0  0  0  0  0  0  0  0
   57.5730   26.8650   45.0140 C   0  0  0  0  0  0  0  0  0  0  0  0
   58.7840   26.2740   45.3760 C   0  0  0  0  0  0  0  0  0  0  0  0
   59.6090   26.8800   46.3240 C   0  0  0  0  0  0  0  0  0  0  0  0
   59.2390   28.0950   46.9090 C   0  0  0  0  0  0  0  0  0  0  0  0
   60.1170   28.6750   47.8380 O   0  0  0  0  0  0  0  0  0  0  0  0
   60.1090   28.4350   49.2470 C   0  0  0  0  0  0  0  0  0  0  0  0
   59.1190   29.3630   49.9510 C   0  0  0  0  0  0  0  0  0  0  0  0
   58.7930   30.4450   49.1200 O   0  0  0  0  0  0  0  0  0  0  0  0
   58.0080   28.6820   46.5520 C   0  0  0  0  0  0  0  0  0  0  0  0
   57.3930   31.3460   45.1710 C   0  0  0  0  0  0  0  0  0  0  0  0
   61.2267   31.3556   51.4211 H   0  0  0  0  0  0  0  0  0  0  0  0
   62.1418   29.9878   50.7010 H   0  0  0  0  0  0  0  0  0  0  0  0
   62.8477   31.6395   50.7010 H   0  0  0  0  0  0  0  0  0  0  0  0
   63.9188   31.9639   49.0477 H   0  0  0  0  0  0  0  0  0  0  0  0
   64.8357   33.4851   47.3009 H   0  0  0  0  0  0  0  0  0  0  0  0
   63.3244   34.4712   45.5835 H   0  0  0  0  0  0  0  0  0  0  0  0
   60.8829   33.9861   45.6414 H   0  0  0  0  0  0  0  0  0  0  0  0
   59.1870   32.1870   48.4140 H   0  0  0  0  0  0  0  0  0  0  0  0
   59.1488   33.8737   43.6777 H   0  0  0  0  0  0  0  0  0  0  0  0
   58.2966   32.7069   41.6400 H   0  0  0  0  0  0  0  0  0  0  0  0
   56.7409   30.7667   41.8649 H   0  0  0  0  0  0  0  0  0  0  0  0
   56.9363   26.3891   44.2537 H   0  0  0  0  0  0  0  0  0  0  0  0
   59.0900   25.3250   44.9114 H   0  0  0  0  0  0  0  0  0  0  0  0
   60.5554   26.3995   46.6127 H   0  0  0  0  0  0  0  0  0  0  0  0
   59.8188   27.3904   49.4331 H   0  0  0  0  0  0  0  0  0  0  0  0
   61.1167   28.6293   49.6431 H   0  0  0  0  0  0  0  0  0  0  0  0
   58.2041   28.8020   50.1925 H   0  0  0  0  0  0  0  0  0  0  0  0
   59.5800   29.7456   50.8735 H   0  0  0  0  0  0  0  0  0  0  0  0
   59.5450   30.5460   48.4830 H   0  0  0  0  0  0  0  0  0  0  0  0
   57.7065   29.6344   47.0123 H   0  0  0  0  0  0  0  0  0  0  0  0
   57.2156   30.9075   46.1641 H   0  0  0  0  0  0  0  0  0  0  0  0
  1  2  1  0
  2  3  1  0
  3  4  2  0
  4  5  1  0
  5  6  2  0
  6  7  1  0
  7  8  2  0
  8  9  1  0
  9 10  1  0
 10 11  2  0
 10 12  2  0
 10 13  1  0
 13 14  2  0
 14 15  1  0
 15 16  2  0
 16 17  1  0
 17 18  1  0
 18 19  2  0
 18 20  1  0
 20 21  1  0
 21 22  2  0
 22 23  1  0
 23 24  2  0
 24 25  1  0
 25 26  1  0
 26 27  1  0
 27 28  1  0
 28 29  1  0
 25 30  2  0
 17 31  2  0
  8  3  1  0
 31 13  1  0
 30 21  1  0
  1 32  1  0
  1 33  1  0
  1 34  1  0
  4 35  1  0
  5 36  1  0
  6 37  1  0
  7 38  1  0
  9 39  1  0
 14 40  1  0
 15 41  1  0
 16 42  1  0
 22 43  1  0
 23 44  1  0
 24 45  1  0
 27 46  1  0
 27 47  1  0
 28 48  1  0
 28 49  1  0
 29 50  1  0
 30 51  1  0
 31 52  1  0
M  CHG  1  20  -1
M  END
>  <UniqueID>  (61) 
55

>  <SMILES>  (61) 
COc1ccccc1NS(=O)(=O)c1cccc(C(=O)[N-]c2cccc(OCCO)c2)c1

>  <Energy>  (61) 
63.98714194715621

>  <Genealogy>  (61) 
COc1ccccc1NS(=O)(=O)c1cccc(C(=O)[N-]c2cccc(OCCO)c2)c1 (protonated)
COc1ccccc1NS(=O)(=O)c1cccc(C(=O)[N-]c2cccc(OCCO)c2)c1 (3D coordinates assigned)
COc1ccccc1NS(=O)(=O)c1cccc(C(=O)[N-]c2cccc(OCCO)c2)c1 (optimized conformer: 63.98714194715621 kcal/mol)

>  <smiles>  (61) 
COc1ccccc1NS(=O)(=O)c1cccc(C(=O)Nc2cccc(OCCO)c2)c1

>  <score_type>  (61) 
oracle

>  <origin>  (61) 
adg

>  <m_score__min__energy>  (61) 
-10.6

>  <m_primary>  (61) 
energy

$$$$
61:0
     RDKit          3D

 47 49  0  0  0  0  0  0  0  0999 V2000
   55.5280   23.2670   43.1830 C   0  0  0  0  0  0  0  0  0  0  0  0
   56.1410   23.8990   44.3980 C   0  0  0  0  0  0  0  0  0  0  0  0
   57.5240   23.8410   44.6180 C   0  0  0  0  0  0  0  0  0  0  0  0
   58.0800   24.4680   45.7360 C   0  0  0  0  0  0  0  0  0  0  0  0
   57.2490   25.1570   46.6250 C   0  0  0  0  0  0  0  0  0  0  0  0
   57.7770   25.7410   47.6630 N   0  0  0  0  0  0  0  0  0  0  0  0
   58.9450   26.5820   47.6890 C   0  0  0  0  0  0  0  0  0  0  0  0
   59.8860   26.3480   48.4970 O   0  0  0  0  0  0  0  0  0  0  0  0
   59.0460   27.7270   46.7550 C   0  0  0  0  0  0  0  0  0  0  0  0
   60.2850   28.3410   46.5070 C   0  0  0  0  0  0  0  0  0  0  0  0
   60.3750   29.4260   45.6310 C   0  0  0  0  0  0  0  0  0  0  0  0
   59.2330   29.9130   44.9950 C   0  0  0  0  0  0  0  0  0  0  0  0
   57.9900   29.3110   45.2270 C   0  0  0  0  0  0  0  0  0  0  0  0
   56.5370   29.9200   44.4400 S   0  0  0  0  0  0  0  0  0  0  0  0
   55.3520   29.0970   44.8680 O   0  0  0  0  0  0  0  0  0  0  0  0
   56.6670   29.8200   42.9460 O   0  0  0  0  0  0  0  0  0  0  0  0
   56.2930   31.5770   44.8730 N   0  0  0  0  0  0  0  0  0  0  0  0
   57.4050   32.4450   45.0960 C   0  0  0  0  0  0  0  0  0  0  0  0
   57.7470   32.7970   46.4070 C   0  0  0  0  0  0  0  0  0  0  0  0
   58.7950   33.6970   46.6530 C   0  0  0  0  0  0  0  0  0  0  0  0
   59.1700   34.0530   48.0610 C   0  0  0  0  0  0  0  0  0  0  0  0
   59.5260   34.2140   45.5730 C   0  0  0  0  0  0  0  0  0  0  0  0
   59.2020   33.8510   44.2640 C   0  0  0  0  0  0  0  0  0  0  0  0
   58.1520   32.9540   44.0120 C   0  0  0  0  0  0  0  0  0  0  0  0
   57.7980   32.6110   42.5900 C   0  0  0  0  0  0  0  0  0  0  0  0
   57.8990   28.2210   46.1020 C   0  0  0  0  0  0  0  0  0  0  0  0
   55.9080   25.2090   46.3870 N   0  0  0  0  0  0  0  0  0  0  0  0
   55.3430   24.6050   45.3060 C   0  0  0  0  0  0  0  0  0  0  0  0
   54.7935   22.5098   43.4946 H   0  0  0  0  0  0  0  0  0  0  0  0
   55.0258   24.0393   42.5818 H   0  0  0  0  0  0  0  0  0  0  0  0
   56.3152   22.7886   42.5818 H   0  0  0  0  0  0  0  0  0  0  0  0
   58.1715   23.3020   43.9107 H   0  0  0  0  0  0  0  0  0  0  0  0
   59.1642   24.4200   45.9157 H   0  0  0  0  0  0  0  0  0  0  0  0
   61.1905   27.9651   47.0058 H   0  0  0  0  0  0  0  0  0  0  0  0
   61.3505   29.8980   45.4422 H   0  0  0  0  0  0  0  0  0  0  0  0
   59.3089   30.7708   44.3105 H   0  0  0  0  0  0  0  0  0  0  0  0
   57.1897   32.3646   47.2511 H   0  0  0  0  0  0  0  0  0  0  0  0
   58.5556   33.4698   48.7627 H   0  0  0  0  0  0  0  0  0  0  0  0
   60.2331   33.8238   48.2264 H   0  0  0  0  0  0  0  0  0  0  0  0
   58.9963   35.1265   48.2264 H   0  0  0  0  0  0  0  0  0  0  0  0
   60.3585   34.9087   45.7582 H   0  0  0  0  0  0  0  0  0  0  0  0
   59.7741   34.2713   43.4237 H   0  0  0  0  0  0  0  0  0  0  0  0
   57.0080   31.8456   42.5832 H   0  0  0  0  0  0  0  0  0  0  0  0
   57.4386   33.5134   42.0737 H   0  0  0  0  0  0  0  0  0  0  0  0
   58.6886   32.2233   42.0737 H   0  0  0  0  0  0  0  0  0  0  0  0
   56.9231   27.7461   46.2811 H   0  0  0  0  0  0  0  0  0  0  0  0
   54.2568   24.6718   45.1455 H   0  0  0  0  0  0  0  0  0  0  0  0
  1  2  1  0
  2  3  1  0
  3  4  2  0
  4  5  1  0
  5  6  2  3
  6  7  1  0
  7  8  2  0
  7  9  1  0
  9 10  2  0
 10 11  1  0
 11 12  2  0
 12 13  1  0
 13 14  1  0
 14 15  2  0
 14 16  2  0
 14 17  1  0
 17 18  1  0
 18 19  2  0
 19 20  1  0
 20 21  1  0
 20 22  2  0
 22 23  1  0
 23 24  2  0
 24 25  1  0
 13 26  2  0
  5 27  1  0
 27 28  1  0
 28  2  2  0
 26  9  1  0
 24 18  1  0
  1 29  1  0
  1 30  1  0
  1 31  1  0
  3 32  1  0
  4 33  1  0
 10 34  1  0
 11 35  1  0
 12 36  1  0
 19 37  1  0
 21 38  1  0
 21 39  1  0
 21 40  1  0
 22 41  1  0
 23 42  1  0
 25 43  1  0
 25 44  1  0
 25 45  1  0
 26 46  1  0
 28 47  1  0
M  CHG  2  17  -1  27  -1
M  END
>  <UniqueID>  (62) 
56

>  <SMILES>  (62) 
Cc1ccc(=NC(=O)c2cccc(S(=O)(=O)[N-]c3cc(C)ccc3C)c2)[n-]c1

>  <Energy>  (62) 
61.282124415627564

>  <Genealogy>  (62) 
Cc1ccc(=NC(=O)c2cccc(S(=O)(=O)[N-]c3cc(C)ccc3C)c2)[n-]c1 (protonated)
Cc1ccc(=NC(=O)c2cccc(S(=O)(=O)[N-]c3cc(C)ccc3C)c2)[n-]c1 (3D coordinates assigned)
Cc1ccc(=NC(=O)c2cccc(S(=O)(=O)[N-]c3cc(C)ccc3C)c2)[n-]c1 (optimized conformer: 61.282124415627564 kcal/mol)

>  <smiles>  (62) 
Cc1ccc(=NC(=O)c2cccc(S(=O)(=O)Nc3cc(C)ccc3C)c2)[nH]c1

>  <score_type>  (62) 
oracle

>  <origin>  (62) 
adg

>  <m_score__min__energy>  (62) 
-12.619999999999999

>  <m_primary>  (62) 
energy

$$$$
62:0
     RDKit          3D

 32 34  0  0  1  0  0  0  0  0999 V2000
   58.6520   25.2350   46.0040 C   0  0  0  0  0  0  0  0  0  0  0  0
   57.3360   25.3360   45.9880 C   0  0  0  0  0  0  0  0  0  0  0  0
   56.7480   26.6410   46.1170 C   0  0  0  0  0  0  0  0  0  0  0  0
   55.4870   26.7290   45.9740 O   0  0  0  0  0  0  0  0  0  0  0  0
   57.4880   27.8240   46.3930 N   0  0  0  0  0  0  0  0  0  0  0  0
   57.3340   28.8890   45.6790 C   0  0  0  0  0  0  0  0  0  0  0  0
   57.8180   30.0850   46.0670 N   0  0  0  0  0  0  0  0  0  0  0  0
   57.6480   31.1870   45.3100 C   0  0  0  0  0  0  0  0  0  0  0  0
   58.1570   32.4680   45.7100 N   0  0  0  0  0  0  0  0  0  0  0  0
   59.3580   32.4670   46.2170 C   0  0  0  0  0  0  0  0  0  0  0  0
   59.9390   31.5290   46.9920 N   0  0  0  0  0  0  0  0  0  0  0  0
   61.1880   31.9540   47.2790 C   0  0  0  0  0  0  0  0  0  0  0  0
   62.2350   31.4180   48.0230 C   0  0  0  0  0  0  0  0  0  0  0  0
   63.4300   32.1230   48.1280 C   0  0  0  0  0  0  0  0  0  0  0  0
   63.5590   33.3580   47.4850 C   0  0  0  0  0  0  0  0  0  0  0  0
   62.4960   33.8580   46.7540 C   0  0  0  0  0  0  0  0  0  0  0  0
   61.3000   33.1750   46.6360 C   0  0  0  0  0  0  0  0  0  0  0  0
   60.1880   33.4660   46.0030 O   0  0  0  0  0  0  0  0  0  0  0  0
   56.9540   31.0680   44.0990 C   0  0  0  0  0  0  0  0  0  0  0  0
   56.4690   29.8230   43.7260 C   0  0  0  0  0  0  0  0  0  0  0  0
   56.6590   28.7350   44.5160 N   0  0  0  0  0  0  0  0  0  0  0  0
   59.1291   24.2486   45.9072 H   0  0  0  0  0  0  0  0  0  0  0  0
   59.2716   26.1372   46.1142 H   0  0  0  0  0  0  0  0  0  0  0  0
   56.7042   24.4423   45.8785 H   0  0  0  0  0  0  0  0  0  0  0  0
   59.4980   30.6480   47.3030 H   0  0  0  0  0  0  0  0  0  0  0  0
   62.1188   30.4455   48.5237 H   0  0  0  0  0  0  0  0  0  0  0  0
   64.2666   31.7121   48.7122 H   0  0  0  0  0  0  0  0  0  0  0  0
   64.4974   33.9270   47.5597 H   0  0  0  0  0  0  0  0  0  0  0  0
   62.6061   34.8299   46.2507 H   0  0  0  0  0  0  0  0  0  0  0  0
   56.7964   31.9460   43.4554 H   0  0  0  0  0  0  0  0  0  0  0  0
   55.9230   29.7156   42.7772 H   0  0  0  0  0  0  0  0  0  0  0  0
   56.2760   27.8210   44.1950 H   0  0  0  0  0  0  0  0  0  0  0  0
  1  2  2  0
  2  3  1  0
  3  4  2  0
  3  5  1  0
  5  6  2  0
  6  7  1  0
  7  8  2  0
  8  9  1  0
  9 10  2  0
 10 11  1  0
 11 12  1  0
 12 13  2  0
 13 14  1  0
 14 15  2  0
 15 16  1  0
 16 17  2  0
 17 18  1  0
  8 19  1  0
 19 20  2  0
 20 21  1  0
 21  6  1  0
 18 10  1  0
 17 12  1  0
  1 22  1  0
  1 23  1  0
  2 24  1  0
 11 25  1  0
 13 26  1  0
 14 27  1  0
 15 28  1  0
 16 29  1  0
 19 30  1  0
 20 31  1  0
 21 32  1  0
M  END
>  <smiles>  (63) 
C=CC(=O)N=c1nc(N=c2[nH]c3ccccc3o2)cc[nH]1

>  <score_type>  (63) 
oracle

>  <origin>  (63) 
adg

>  <m_score__min__energy>  (63) 
-7.5099999999999998

>  <m_primary>  (63) 
energy

$$$$
63:0
     RDKit          3D

 37 39  0  0  0  0  0  0  0  0999 V2000
   55.8200   25.7330   46.3770 O   0  0  0  0  0  0  0  0  0  0  0  0
   56.5130   26.6730   45.9050 C   0  0  0  0  0  0  0  0  0  0  0  0
   55.9090   27.8450   45.6100 N   0  0  0  0  0  0  0  0  0  0  0  0
   56.6060   28.8760   45.0830 C   0  0  0  0  0  0  0  0  0  0  0  0
   56.0020   29.9550   44.8390 O   0  0  0  0  0  0  0  0  0  0  0  0
   57.9460   28.7410   44.8230 N   0  0  0  0  0  0  0  0  0  0  0  0
   58.7180   29.8460   44.2110 C   0  0  0  0  0  0  0  0  0  0  0  0
   58.3960   31.1750   44.8660 C   0  0  0  0  0  0  0  0  0  0  0  0
   58.5190   31.3020   46.2630 C   0  0  0  0  0  0  0  0  0  0  0  0
   58.2570   32.5210   46.8920 C   0  0  0  0  0  0  0  0  0  0  0  0
   57.8630   33.6270   46.1380 C   0  0  0  0  0  0  0  0  0  0  0  0
   57.7240   33.5140   44.7540 C   0  0  0  0  0  0  0  0  0  0  0  0
   57.9840   32.2970   44.1110 C   0  0  0  0  0  0  0  0  0  0  0  0
   57.7640   32.2220   42.3690 Cl  0  0  0  0  0  0  0  0  0  0  0  0
   58.5720   27.5700   45.1720 C   0  0  0  0  0  0  0  0  0  0  0  0
   59.8200   27.4560   45.0140 O   0  0  0  0  0  0  0  0  0  0  0  0
   57.8570   26.5220   45.6960 N   0  0  0  0  0  0  0  0  0  0  0  0
   58.5210   25.2330   45.9760 C   0  0  0  0  0  0  0  0  0  0  0  0
   57.9290   24.1440   45.1190 C   0  0  0  0  0  0  0  0  0  0  0  0
   58.1800   22.7920   45.4100 C   0  0  0  0  0  0  0  0  0  0  0  0
   57.6670   21.7860   44.5850 C   0  0  0  0  0  0  0  0  0  0  0  0
   56.9040   22.1210   43.4630 C   0  0  0  0  0  0  0  0  0  0  0  0
   56.4080   21.1440   42.6640 F   0  0  0  0  0  0  0  0  0  0  0  0
   56.6530   23.4630   43.1640 C   0  0  0  0  0  0  0  0  0  0  0  0
   57.1660   24.4710   43.9860 C   0  0  0  0  0  0  0  0  0  0  0  0
   59.7921   29.6401   44.3285 H   0  0  0  0  0  0  0  0  0  0  0  0
   58.4468   29.9098   43.1469 H   0  0  0  0  0  0  0  0  0  0  0  0
   58.8243   30.4330   46.8644 H   0  0  0  0  0  0  0  0  0  0  0  0
   58.3614   32.6094   47.9835 H   0  0  0  0  0  0  0  0  0  0  0  0
   57.6620   34.5878   46.6344 H   0  0  0  0  0  0  0  0  0  0  0  0
   57.4080   34.3868   44.1638 H   0  0  0  0  0  0  0  0  0  0  0  0
   59.5954   25.3231   45.7578 H   0  0  0  0  0  0  0  0  0  0  0  0
   58.3724   24.9760   47.0352 H   0  0  0  0  0  0  0  0  0  0  0  0
   58.7825   22.5240   46.2904 H   0  0  0  0  0  0  0  0  0  0  0  0
   57.8643   20.7296   44.8195 H   0  0  0  0  0  0  0  0  0  0  0  0
   56.0515   23.7263   42.2815 H   0  0  0  0  0  0  0  0  0  0  0  0
   56.9709   25.5262   43.7440 H   0  0  0  0  0  0  0  0  0  0  0  0
  1  2  2  0
  2  3  1  0
  3  4  1  0
  4  5  2  0
  4  6  1  0
  6  7  1  0
  7  8  1  0
  8  9  2  0
  9 10  1  0
 10 11  2  0
 11 12  1  0
 12 13  2  0
 13 14  1  0
  6 15  1  0
 15 16  2  0
 15 17  1  0
 17 18  1  0
 18 19  1  0
 19 20  2  0
 20 21  1  0
 21 22  2  0
 22 23  1  0
 22 24  1  0
 24 25  2  0
 17  2  1  0
 25 19  1  0
 13  8  1  0
  7 26  1  0
  7 27  1  0
  9 28  1  0
 10 29  1  0
 11 30  1  0
 12 31  1  0
 18 32  1  0
 18 33  1  0
 20 34  1  0
 21 35  1  0
 24 36  1  0
 25 37  1  0
M  CHG  1   3  -1
M  END
>  <UniqueID>  (64) 
57

>  <SMILES>  (64) 
O=c1[n-]c(=O)n(Cc2ccccc2Cl)c(=O)n1Cc1ccc(F)cc1

>  <Energy>  (64) 
48.302492420224

>  <Genealogy>  (64) 
O=c1[n-]c(=O)n(Cc2ccccc2Cl)c(=O)n1Cc1ccc(F)cc1 (protonated)
O=c1[n-]c(=O)n(Cc2ccccc2Cl)c(=O)n1Cc1ccc(F)cc1 (3D coordinates assigned)
O=c1[n-]c(=O)n(Cc2ccccc2Cl)c(=O)n1Cc1ccc(F)cc1 (optimized conformer: 48.302492420224 kcal/mol)

>  <smiles>  (64) 
O=c1[nH]c(=O)n(Cc2ccccc2Cl)c(=O)n1Cc1ccc(F)cc1

>  <score_type>  (64) 
oracle

>  <origin>  (64) 
adg

>  <m_score__min__energy>  (64) 
-9.9700000000000006

>  <m_primary>  (64) 
energy

$$$$
64:0
     RDKit          3D

 51 53  0  0  0  0  0  0  0  0999 V2000
   56.8872   31.2456   40.6969 H   0  0  0  0  0  0  0  0  0  0  0  0
   57.0390   31.3180   41.7840 C   0  0  0  0  0  0  0  0  0  0  0  0
   56.4910   30.3540   42.6270 C   0  0  0  0  0  0  0  0  0  0  0  0
   55.8983   29.5302   42.2026 H   0  0  0  0  0  0  0  0  0  0  0  0
   56.6900   30.4270   44.0130 C   0  0  0  0  0  0  0  0  0  0  0  0
   56.1130   29.3640   44.9090 C   0  0  0  0  0  0  0  0  0  0  0  0
   56.2670   29.6476   45.9606 H   0  0  0  0  0  0  0  0  0  0  0  0
   55.0358   29.2622   44.7106 H   0  0  0  0  0  0  0  0  0  0  0  0
   56.6145   28.4053   44.7106 H   0  0  0  0  0  0  0  0  0  0  0  0
   57.4710   31.4700   44.5530 C   0  0  0  0  0  0  0  0  0  0  0  0
   57.6920   31.5130   45.9700 N   0  0  0  0  0  0  0  0  0  0  0  0
   57.6600   32.7100   46.7540 C   0  0  0  0  0  0  0  0  0  0  0  0
   56.6580   33.4740   46.6840 O   0  0  0  0  0  0  0  0  0  0  0  0
   58.8270   33.1140   47.5720 C   0  0  0  0  0  0  0  0  0  0  0  0
   59.4460   34.3810   47.2500 C   0  0  0  0  0  0  0  0  0  0  0  0
   59.9410   35.3950   46.9920 N   0  0  0  0  0  0  0  0  0  0  0  0
   59.2970   32.3790   48.6090 C   0  0  0  0  0  0  0  0  0  0  0  0
   59.0050   32.8280   50.3290 S   0  0  0  0  0  0  0  0  0  0  0  0
   60.7530   33.2350   50.7550 C   0  0  0  0  0  0  0  0  0  0  0  0
   60.9532   32.8407   51.7622 H   0  0  0  0  0  0  0  0  0  0  0  0
   60.8281   34.3294   50.6730 H   0  0  0  0  0  0  0  0  0  0  0  0
   61.8340   32.6760   49.8080 C   0  0  0  0  0  0  0  0  0  0  0  0
   62.7621   32.5279   50.3796 H   0  0  0  0  0  0  0  0  0  0  0  0
   61.9739   33.4016   48.9932 H   0  0  0  0  0  0  0  0  0  0  0  0
   61.4330   31.3660   49.1910 C   0  0  0  0  0  0  0  0  0  0  0  0
   62.1410   30.3400   49.3710 O   0  0  0  0  0  0  0  0  0  0  0  0
   60.2320   31.3070   48.4030 N   0  0  0  0  0  0  0  0  0  0  0  0
   59.9100   30.1680   47.5770 C   0  0  0  0  0  0  0  0  0  0  0  0
   60.4540   30.0480   46.2870 C   0  0  0  0  0  0  0  0  0  0  0  0
   61.1471   30.8158   45.9127 H   0  0  0  0  0  0  0  0  0  0  0  0
   60.1200   28.9590   45.4760 C   0  0  0  0  0  0  0  0  0  0  0  0
   60.5468   28.8779   44.4654 H   0  0  0  0  0  0  0  0  0  0  0  0
   59.2430   27.9690   45.9450 C   0  0  0  0  0  0  0  0  0  0  0  0
   58.8570   26.8160   45.0580 C   0  0  0  0  0  0  0  0  0  0  0  0
   57.9981   26.2911   45.5016 H   0  0  0  0  0  0  0  0  0  0  0  0
   59.7164   26.1352   44.9693 H   0  0  0  0  0  0  0  0  0  0  0  0
   58.4770   27.3100   43.6650 C   0  0  0  0  0  0  0  0  0  0  0  0
   57.8085   28.1790   43.7539 H   0  0  0  0  0  0  0  0  0  0  0  0
   59.3862   27.6011   43.1185 H   0  0  0  0  0  0  0  0  0  0  0  0
   57.9624   26.5059   43.1185 H   0  0  0  0  0  0  0  0  0  0  0  0
   58.6840   28.0970   47.2250 C   0  0  0  0  0  0  0  0  0  0  0  0
   57.9794   27.3365   47.5925 H   0  0  0  0  0  0  0  0  0  0  0  0
   59.0170   29.1850   48.0360 C   0  0  0  0  0  0  0  0  0  0  0  0
   58.5772   29.2726   49.0404 H   0  0  0  0  0  0  0  0  0  0  0  0
   57.9830   32.4790   43.6990 C   0  0  0  0  0  0  0  0  0  0  0  0
   58.7440   33.6630   44.2310 C   0  0  0  0  0  0  0  0  0  0  0  0
   58.7312   33.6431   45.3307 H   0  0  0  0  0  0  0  0  0  0  0  0
   59.7841   33.6201   43.8756 H   0  0  0  0  0  0  0  0  0  0  0  0
   58.2730   34.5914   43.8756 H   0  0  0  0  0  0  0  0  0  0  0  0
   57.7790   32.3740   42.3130 C   0  0  0  0  0  0  0  0  0  0  0  0
   58.2068   33.1314   41.6397 H   0  0  0  0  0  0  0  0  0  0  0  0
  1  2  1  0
  2  3  2  0
  3  4  1  0
  3  5  1  0
  5  6  1  0
  6  7  1  0
  6  8  1  0
  6  9  1  0
  5 10  2  0
 10 11  1  0
 11 12  1  0
 12 13  2  0
 12 14  1  0
 14 15  1  0
 15 16  3  0
 14 17  2  0
 17 18  1  0
 18 19  1  0
 19 20  1  0
 19 21  1  0
 19 22  1  0
 22 23  1  0
 22 24  1  0
 22 25  1  0
 25 26  2  0
 25 27  1  0
 27 28  1  0
 28 29  2  0
 29 30  1  0
 29 31  1  0
 31 32  1  0
 31 33  2  0
 33 34  1  0
 34 35  1  0
 34 36  1  0
 34 37  1  0
 37 38  1  0
 37 39  1  0
 37 40  1  0
 33 41  1  0
 41 42  1  0
 41 43  2  0
 43 44  1  0
 10 45  1  0
 45 46  1  0
 46 47  1  0
 46 48  1  0
 46 49  1  0
 45 50  2  0
 50 51  1  0
 50  2  1  0
 27 17  1  0
 43 28  1  0
M  CHG  1  11  -1
M  END
>  <UniqueID>  (65) 
58

>  <SMILES>  (65) 
CCc1ccc(N2C(=O)CCS/C2=C(/C#N)C(=O)[N-]c2c(C)cccc2C)cc1

>  <Energy>  (65) 
74.07206207674251

>  <Genealogy>  (65) 
CCc1ccc(N2C(=O)CCSC2=C(C#N)C(=O)[N-]c2c(C)cccc2C)cc1 (protonated)
CCc1ccc(N2C(=O)CCS/C2=C(/C#N)C(=O)[N-]c2c(C)cccc2C)cc1 (cis-trans isomerization)
CCc1ccc(N2C(=O)CCS/C2=C(/C#N)C(=O)[N-]c2c(C)cccc2C)cc1 (3D coordinates assigned)
CCc1ccc(N2C(=O)CCS/C2=C(/C#N)C(=O)[N-]c2c(C)cccc2C)cc1 (nonaromatic ring conformer: 74.07206207674251 kcal/mol)

>  <smiles>  (65) 
CCc1ccc(N2C(=O)CCSC2=C(C#N)C(=O)Nc2c(C)cccc2C)cc1

>  <score_type>  (65) 
oracle

>  <origin>  (65) 
adg

>  <m_score__min__energy>  (65) 
-9.9499999999999993

>  <m_primary>  (65) 
energy

$$$$
65:0
     RDKit          3D

 58 60  0  0  0  0  0  0  0  0999 V2000
   63.1410   33.8260   46.3890 C   0  0  0  0  0  0  0  0  0  0  0  0
   63.0460   33.2940   47.8150 C   0  0  0  0  0  0  0  0  0  0  0  0
   62.0740   34.1000   48.6340 C   0  0  0  0  0  0  0  0  0  0  0  0
   62.4850   34.8340   49.5180 O   0  0  0  0  0  0  0  0  0  0  0  0
   60.3480   34.0480   48.2900 S   0  0  0  0  0  0  0  0  0  0  0  0
   59.9910   35.2170   47.4120 O   0  0  0  0  0  0  0  0  0  0  0  0
   59.5780   34.1880   49.5730 O   0  0  0  0  0  0  0  0  0  0  0  0
   59.9120   32.5150   47.5000 C   0  0  0  0  0  0  0  0  0  0  0  0
   60.2660   31.2930   48.1040 C   0  0  0  0  0  0  0  0  0  0  0  0
   60.9100   31.2620   49.3390 O   0  0  0  0  0  0  0  0  0  0  0  0
   59.9850   30.0840   47.4650 C   0  0  0  0  0  0  0  0  0  0  0  0
   59.3590   30.0730   46.2210 C   0  0  0  0  0  0  0  0  0  0  0  0
   58.9750   31.2730   45.6080 C   0  0  0  0  0  0  0  0  0  0  0  0
   58.3490   31.2700   44.3190 N   0  0  0  0  0  0  0  0  0  0  0  0
   56.9600   30.3130   43.9140 S   0  0  0  0  0  0  0  0  0  0  0  0
   55.8210   30.7000   44.8150 O   0  0  0  0  0  0  0  0  0  0  0  0
   56.5620   30.6150   42.4990 O   0  0  0  0  0  0  0  0  0  0  0  0
   57.2870   28.5880   44.0470 C   0  0  0  0  0  0  0  0  0  0  0  0
   57.7530   27.8720   42.9370 C   0  0  0  0  0  0  0  0  0  0  0  0
   58.0540   26.5120   43.0550 C   0  0  0  0  0  0  0  0  0  0  0  0
   57.9070   25.8630   44.2840 C   0  0  0  0  0  0  0  0  0  0  0  0
   57.4440   26.5660   45.4080 C   0  0  0  0  0  0  0  0  0  0  0  0
   57.4020   25.9000   46.6870 N   0  0  0  0  0  0  0  0  0  0  0  0
   57.7580   24.5220   46.8610 C   0  0  0  0  0  0  0  0  0  0  0  0
   58.8330   24.0800   46.3700 O   0  0  0  0  0  0  0  0  0  0  0  0
   56.8470   23.6050   47.5520 C   0  0  0  0  0  0  0  0  0  0  0  0
   55.7140   24.0050   47.9370 O   0  0  0  0  0  0  0  0  0  0  0  0
   57.2380   22.2430   47.7460 N   0  0  0  0  0  0  0  0  0  0  0  0
   56.8620   21.1600   46.8480 C   0  0  0  0  0  0  0  0  0  0  0  0
   56.7180   21.6590   45.4390 C   0  0  0  0  0  0  0  0  0  0  0  0
   57.6880   21.5370   44.5080 N   0  0  0  0  0  0  0  0  0  0  0  0
   57.1240   22.1230   43.4280 C   0  0  0  0  0  0  0  0  0  0  0  0
   55.8780   22.5800   43.6760 N   0  0  0  0  0  0  0  0  0  0  0  0
   55.6340   22.2910   44.9390 N   0  0  0  0  0  0  0  0  0  0  0  0
   54.3730   22.5770   45.6120 C   0  0  0  0  0  0  0  0  0  0  0  0
   57.1240   27.9330   45.2760 C   0  0  0  0  0  0  0  0  0  0  0  0
   59.2510   32.5010   46.2450 C   0  0  0  0  0  0  0  0  0  0  0  0
   58.8300   33.7240   45.6250 N   0  0  0  0  0  0  0  0  0  0  0  0
   59.5930   34.3270   44.8470 O   0  0  0  0  0  0  0  0  0  0  0  0
   57.5570   34.2000   45.8390 O   0  0  0  0  0  0  0  0  0  0  0  0
   63.3343   34.9086   46.4137 H   0  0  0  0  0  0  0  0  0  0  0  0
   63.9628   33.3187   45.8624 H   0  0  0  0  0  0  0  0  0  0  0  0
   62.1944   33.6345   45.8624 H   0  0  0  0  0  0  0  0  0  0  0  0
   62.7087   32.2474   47.7856 H   0  0  0  0  0  0  0  0  0  0  0  0
   64.0395   33.3688   48.2812 H   0  0  0  0  0  0  0  0  0  0  0  0
   60.2597   29.1342   47.9471 H   0  0  0  0  0  0  0  0  0  0  0  0
   59.1646   29.1153   45.7160 H   0  0  0  0  0  0  0  0  0  0  0  0
   57.8824   28.3809   41.9704 H   0  0  0  0  0  0  0  0  0  0  0  0
   58.4077   25.9507   42.1776 H   0  0  0  0  0  0  0  0  0  0  0  0
   58.1555   24.7950   44.3714 H   0  0  0  0  0  0  0  0  0  0  0  0
   56.9500   26.3990   47.4890 H   0  0  0  0  0  0  0  0  0  0  0  0
   57.6388   20.3817   46.8770 H   0  0  0  0  0  0  0  0  0  0  0  0
   55.8956   20.7500   47.1765 H   0  0  0  0  0  0  0  0  0  0  0  0
   57.6256   22.2172   42.4535 H   0  0  0  0  0  0  0  0  0  0  0  0
   54.5228   22.5430   46.7012 H   0  0  0  0  0  0  0  0  0  0  0  0
   54.0210   23.5778   45.3213 H   0  0  0  0  0  0  0  0  0  0  0  0
   53.6237   21.8260   45.3213 H   0  0  0  0  0  0  0  0  0  0  0  0
   56.7433   28.4903   46.1446 H   0  0  0  0  0  0  0  0  0  0  0  0
  1  2  1  0
  2  3  1  0
  3  4  2  0
  3  5  1  0
  5  6  2  0
  5  7  2  0
  5  8  1  0
  8  9  2  0
  9 10  1  0
  9 11  1  0
 11 12  2  0
 12 13  1  0
 13 14  1  0
 14 15  1  0
 15 16  2  0
 15 17  2  0
 15 18  1  0
 18 19  2  0
 19 20  1  0
 20 21  2  0
 21 22  1  0
 22 23  1  0
 23 24  1  0
 24 25  2  0
 24 26  1  0
 26 27  2  0
 26 28  1  0
 28 29  1  0
 29 30  1  0
 30 31  2  0
 31 32  1  0
 32 33  2  0
 33 34  1  0
 34 35  1  0
 22 36  2  0
 13 37  2  0
 37 38  1  0
 38 39  2  0
 38 40  1  0
 37  8  1  0
 36 18  1  0
 34 30  1  0
  1 41  1  0
  1 42  1  0
  1 43  1  0
  2 44  1  0
  2 45  1  0
 11 46  1  0
 12 47  1  0
 19 48  1  0
 20 49  1  0
 21 50  1  0
 23 51  1  0
 29 52  1  0
 29 53  1  0
 32 54  1  0
 35 55  1  0
 35 56  1  0
 35 57  1  0
 36 58  1  0
M  CHG  5  10  -1  14  -1  28  -1  38   1  40  -1
M  END
>  <UniqueID>  (66) 
59

>  <SMILES>  (66) 
CCC(=O)S(=O)(=O)c1c([O-])ccc([N-]S(=O)(=O)c2cccc(NC(=O)C(=O)[N-]Cc3ncnn3C)c2)c1[N+](=O)[O-]

>  <Energy>  (66) 
104.16623569905155

>  <Genealogy>  (66) 
CCC(=O)S(=O)(=O)c1c([O-])ccc([N-]S(=O)(=O)c2cccc(NC(=O)C(=O)[N-]Cc3ncnn3C)c2)c1[N+](=O)[O-] (protonated)
CCC(=O)S(=O)(=O)c1c([O-])ccc([N-]S(=O)(=O)c2cccc(NC(=O)C(=O)[N-]Cc3ncnn3C)c2)c1[N+](=O)[O-] (3D coordinates assigned)
CCC(=O)S(=O)(=O)c1c([O-])ccc([N-]S(=O)(=O)c2cccc(NC(=O)C(=O)[N-]Cc3ncnn3C)c2)c1[N+](=O)[O-] (optimized conformer: 104.16623569905155 kcal/mol)

>  <smiles>  (66) 
CCC(=O)S(=O)(=O)c1c(O)ccc(NS(=O)(=O)c2cccc(NC(=O)C(=O)NCc3ncnn3C)c2)c1[N+](=O)[O-]

>  <score_type>  (66) 
oracle

>  <origin>  (66) 
adg

>  <m_score__min__energy>  (66) 
-13.93

>  <m_primary>  (66) 
energy

$$$$
66:0
     RDKit          3D

 52 55  0  0  0  0  0  0  0  0999 V2000
   55.1720   26.2570   45.9050 N   0  0  0  0  0  0  0  0  0  0  0  0
   56.8800   26.5080   45.8380 S   0  0  0  0  0  0  0  0  0  0  0  0
   57.4730   26.2980   47.2020 O   0  0  0  0  0  0  0  0  0  0  0  0
   57.4930   25.5160   44.8890 O   0  0  0  0  0  0  0  0  0  0  0  0
   57.2140   28.1470   45.2890 C   0  0  0  0  0  0  0  0  0  0  0  0
   58.5290   28.6290   45.2740 C   0  0  0  0  0  0  0  0  0  0  0  0
   58.7960   29.9340   44.8510 C   0  0  0  0  0  0  0  0  0  0  0  0
   57.7480   30.7700   44.4240 C   0  0  0  0  0  0  0  0  0  0  0  0
   57.9730   32.1300   44.0170 N   0  0  0  0  0  0  0  0  0  0  0  0
   58.6370   33.0410   44.6670 C   0  0  0  0  0  0  0  0  0  0  0  0
   59.5500   32.6570   45.5980 N   0  0  0  0  0  0  0  0  0  0  0  0
   60.2550   33.5630   46.3310 C   0  0  0  0  0  0  0  0  0  0  0  0
   61.2460   33.0800   47.3260 C   0  0  0  0  0  0  0  0  0  0  0  0
   62.5990   33.4700   47.2670 C   0  0  0  0  0  0  0  0  0  0  0  0
   63.5140   33.0110   48.2180 C   0  0  0  0  0  0  0  0  0  0  0  0
   63.0950   32.1590   49.2480 C   0  0  0  0  0  0  0  0  0  0  0  0
   64.2300   31.5890   50.4670 S   0  0  0  0  0  0  0  0  0  0  0  0
   65.6240   31.5760   49.9050 O   0  0  0  0  0  0  0  0  0  0  0  0
   63.8520   30.1850   50.8500 O   0  0  0  0  0  0  0  0  0  0  0  0
   64.1450   32.6400   51.8640 N   0  0  0  0  0  0  0  0  0  0  0  0
   64.1500   34.0720   51.4840 C   0  0  0  0  0  0  0  0  0  0  0  0
   65.3790   34.8380   52.0040 C   0  0  0  0  0  0  0  0  0  0  0  0
   66.6020   34.0600   51.7950 N   0  0  0  0  0  0  0  0  0  0  0  0
   66.5740   32.7610   52.4940 C   0  0  0  0  0  0  0  0  0  0  0  0
   65.1560   32.2860   52.8770 C   0  0  0  0  0  0  0  0  0  0  0  0
   61.7500   31.7790   49.3230 C   0  0  0  0  0  0  0  0  0  0  0  0
   60.8330   32.2360   48.3740 C   0  0  0  0  0  0  0  0  0  0  0  0
   60.0340   34.9320   46.1090 C   0  0  0  0  0  0  0  0  0  0  0  0
   59.0870   35.3120   45.1610 C   0  0  0  0  0  0  0  0  0  0  0  0
   58.4050   34.3670   44.4640 N   0  0  0  0  0  0  0  0  0  0  0  0
   56.4310   30.2960   44.4800 C   0  0  0  0  0  0  0  0  0  0  0  0
   56.1640   28.9900   44.9020 C   0  0  0  0  0  0  0  0  0  0  0  0
   54.7640   27.0760   46.4090 H   0  0  0  0  0  0  0  0  0  0  0  0
   59.3549   27.9778   45.5964 H   0  0  0  0  0  0  0  0  0  0  0  0
   59.8300   30.3092   44.8519 H   0  0  0  0  0  0  0  0  0  0  0  0
   62.9379   34.1420   46.4648 H   0  0  0  0  0  0  0  0  0  0  0  0
   64.5680   33.3200   48.1576 H   0  0  0  0  0  0  0  0  0  0  0  0
   64.1346   34.1415   50.3863 H   0  0  0  0  0  0  0  0  0  0  0  0
   63.2625   34.5327   51.9423 H   0  0  0  0  0  0  0  0  0  0  0  0
   65.4629   35.7937   51.4658 H   0  0  0  0  0  0  0  0  0  0  0  0
   65.2538   35.0162   53.0822 H   0  0  0  0  0  0  0  0  0  0  0  0
   66.7190   33.8970   50.7670 H   0  0  0  0  0  0  0  0  0  0  0  0
   67.0267   32.0043   51.8364 H   0  0  0  0  0  0  0  0  0  0  0  0
   67.1308   32.8924   53.4335 H   0  0  0  0  0  0  0  0  0  0  0  0
   65.1704   31.1922   52.9927 H   0  0  0  0  0  0  0  0  0  0  0  0
   64.8783   32.7903   53.8143 H   0  0  0  0  0  0  0  0  0  0  0  0
   61.4133   31.1166   50.1341 H   0  0  0  0  0  0  0  0  0  0  0  0
   59.7779   31.9335   48.4462 H   0  0  0  0  0  0  0  0  0  0  0  0
   60.5979   35.6896   46.6730 H   0  0  0  0  0  0  0  0  0  0  0  0
   58.8914   36.3787   44.9767 H   0  0  0  0  0  0  0  0  0  0  0  0
   55.6005   30.9563   44.1897 H   0  0  0  0  0  0  0  0  0  0  0  0
   55.1272   28.6236   44.9302 H   0  0  0  0  0  0  0  0  0  0  0  0
  1  2  1  0
  2  3  2  0
  2  4  2  0
  2  5  1  0
  5  6  2  0
  6  7  1  0
  7  8  2  0
  8  9  1  0
  9 10  2  3
 10 11  1  0
 11 12  2  0
 12 13  1  0
 13 14  2  0
 14 15  1  0
 15 16  2  0
 16 17  1  0
 17 18  2  0
 17 19  2  0
 17 20  1  0
 20 21  1  0
 21 22  1  0
 22 23  1  0
 23 24  1  0
 24 25  1  0
 16 26  1  0
 26 27  2  0
 12 28  1  0
 28 29  2  0
 29 30  1  0
  8 31  1  0
 31 32  2  0
 32  5  1  0
 30 10  1  0
 27 13  1  0
 25 20  1  0
  1 33  1  0
  6 34  1  0
  7 35  1  0
 14 36  1  0
 15 37  1  0
 21 38  1  0
 21 39  1  0
 22 40  1  0
 22 41  1  0
 23 42  1  0
 24 43  1  0
 24 44  1  0
 25 45  1  0
 25 46  1  0
 26 47  1  0
 27 48  1  0
 28 49  1  0
 29 50  1  0
 31 51  1  0
 32 52  1  0
M  CHG  2   1  -1  30  -1
M  END
>  <UniqueID>  (67) 
60

>  <SMILES>  (67) 
[NH-]S(=O)(=O)c1ccc(N=c2nc(-c3ccc(S(=O)(=O)N4CCNCC4)cc3)cc[n-]2)cc1

>  <Energy>  (67) 
76.46838403811525

>  <Genealogy>  (67) 
[NH-]S(=O)(=O)c1ccc(N=c2nc(-c3ccc(S(=O)(=O)N4CCNCC4)cc3)cc[n-]2)cc1 (protonated)
[NH-]S(=O)(=O)c1ccc(N=c2nc(-c3ccc(S(=O)(=O)N4CCNCC4)cc3)cc[n-]2)cc1 (3D coordinates assigned)
[NH-]S(=O)(=O)c1ccc(N=c2nc(-c3ccc(S(=O)(=O)N4CCNCC4)cc3)cc[n-]2)cc1 (nonaromatic ring conformer: 76.46838403811525 kcal/mol)

>  <smiles>  (67) 
NS(=O)(=O)c1ccc(N=c2nc(-c3ccc(S(=O)(=O)N4CCNCC4)cc3)cc[nH]2)cc1

>  <score_type>  (67) 
oracle

>  <origin>  (67) 
adg

>  <m_score__min__energy>  (67) 
-12.85

>  <m_primary>  (67) 
energy

$$$$
67:0
     RDKit          3D

 44 48  0  0  0  0  0  0  0  0999 V2000
   52.5987   31.5862   53.3737 H   0  0  0  0  0  0  0  0  0  0  0  0
   52.9250   31.0230   52.4870 C   0  0  0  0  0  0  0  0  0  0  0  0
   52.1230   31.1420   51.2570 C   0  0  0  0  0  0  0  0  0  0  0  0
   52.1970   30.2650   50.2410 N   0  0  0  0  0  0  0  0  0  0  0  0
   51.3720   30.7900   49.3110 C   0  0  0  0  0  0  0  0  0  0  0  0
   51.1630   30.2360   48.2000 O   0  0  0  0  0  0  0  0  0  0  0  0
   50.7970   31.9600   49.6590 N   0  0  0  0  0  0  0  0  0  0  0  0
   51.2900   32.1770   50.8890 C   0  0  0  0  0  0  0  0  0  0  0  0
   51.0250   33.3200   51.6320 O   0  0  0  0  0  0  0  0  0  0  0  0
   54.0290   30.2690   52.5900 C   0  0  0  0  0  0  0  0  0  0  0  0
   54.1470   28.8860   52.7330 C   0  0  0  0  0  0  0  0  0  0  0  0
   53.3041   28.1845   52.8190 H   0  0  0  0  0  0  0  0  0  0  0  0
   55.4570   28.5370   52.7500 N   0  0  0  0  0  0  0  0  0  0  0  0
   56.1600   29.6520   52.6210 N   0  0  0  0  0  0  0  0  0  0  0  0
   57.5140   29.8140   52.5780 C   0  0  0  0  0  0  0  0  0  0  0  0
   58.3560   28.8250   52.6780 N   0  0  0  0  0  0  0  0  0  0  0  0
   59.8110   28.9120   52.5900 C   0  0  0  0  0  0  0  0  0  0  0  0
   60.0068   29.2108   53.6304 H   0  0  0  0  0  0  0  0  0  0  0  0
   60.3210   29.3720   51.2370 C   0  0  0  0  0  0  0  0  0  0  0  0
   59.6111   29.7061   50.4660 H   0  0  0  0  0  0  0  0  0  0  0  0
   61.0473   30.1233   50.8934 H   0  0  0  0  0  0  0  0  0  0  0  0
   60.3930   27.9010   51.6190 C   0  0  0  0  0  0  0  0  0  0  0  0
   59.7352   27.1712   51.1244 H   0  0  0  0  0  0  0  0  0  0  0  0
   61.1928   27.1473   51.6664 H   0  0  0  0  0  0  0  0  0  0  0  0
   57.9970   31.0790   52.4260 N   0  0  0  0  0  0  0  0  0  0  0  0
   57.1490   32.1440   52.3170 C   0  0  0  0  0  0  0  0  0  0  0  0
   57.8130   33.7890   52.0980 S   0  0  0  0  0  0  0  0  0  0  0  0
   59.0810   33.2150   50.9690 C   0  0  0  0  0  0  0  0  0  0  0  0
   60.4310   33.4630   51.2450 C   0  0  0  0  0  0  0  0  0  0  0  0
   60.7140   34.0163   52.1526 H   0  0  0  0  0  0  0  0  0  0  0  0
   61.4190   33.0080   50.3680 C   0  0  0  0  0  0  0  0  0  0  0  0
   62.4780   33.2057   50.5905 H   0  0  0  0  0  0  0  0  0  0  0  0
   61.0740   32.3030   49.2090 C   0  0  0  0  0  0  0  0  0  0  0  0
   62.1030   31.8660   48.3610 O   0  0  0  0  0  0  0  0  0  0  0  0
   63.1320   32.7050   47.8480 C   0  0  0  0  0  0  0  0  0  0  0  0
   63.6868   33.1573   48.6832 H   0  0  0  0  0  0  0  0  0  0  0  0
   63.8198   32.1069   47.2322 H   0  0  0  0  0  0  0  0  0  0  0  0
   62.6847   33.4991   47.2322 H   0  0  0  0  0  0  0  0  0  0  0  0
   59.7140   32.0580   48.9340 C   0  0  0  0  0  0  0  0  0  0  0  0
   59.4293   31.5060   48.0261 H   0  0  0  0  0  0  0  0  0  0  0  0
   58.7250   32.5140   49.8110 C   0  0  0  0  0  0  0  0  0  0  0  0
   57.6647   32.3214   49.5903 H   0  0  0  0  0  0  0  0  0  0  0  0
   55.8000   31.9600   52.3650 N   0  0  0  0  0  0  0  0  0  0  0  0
   55.3350   30.6990   52.5170 C   0  0  0  0  0  0  0  0  0  0  0  0
  1  2  1  0
  2  3  1  0
  3  4  1  0
  4  5  1  0
  5  6  2  0
  5  7  1  0
  7  8  1  0
  8  9  1  0
  2 10  2  0
 10 11  1  0
 11 12  1  0
 11 13  2  0
 13 14  1  0
 14 15  1  0
 15 16  2  3
 16 17  1  0
 17 18  1  0
 17 19  1  0
 19 20  1  0
 19 21  1  0
 19 22  1  0
 22 23  1  0
 22 24  1  0
 15 25  1  0
 25 26  2  0
 26 27  1  0
 27 28  1  0
 28 29  2  0
 29 30  1  0
 29 31  1  0
 31 32  1  0
 31 33  2  0
 33 34  1  0
 34 35  1  0
 35 36  1  0
 35 37  1  0
 35 38  1  0
 33 39  1  0
 39 40  1  0
 39 41  2  0
 41 42  1  0
 26 43  1  0
 43 44  2  0
  8  3  2  0
 44 10  1  0
 44 14  1  0
 22 17  1  0
 41 28  1  0
M  CHG  3   4  -1   7  -1   9  -1
M  END
>  <UniqueID>  (68) 
61

>  <SMILES>  (68) 
COc1ccc(Sc2nc(=NC3CC3)n3nc/c(=C\c4[n-]c(=O)[n-]c4[O-])c3n2)cc1

>  <Energy>  (68) 
385.1509004246492

>  <Genealogy>  (68) 
COc1ccc(Sc2nc(=NC3CC3)n3ncc(=Cc4[n-]c(=O)[n-]c4[O-])c3n2)cc1 (protonated)
COc1ccc(Sc2nc(=NC3CC3)n3nc/c(=C\c4[n-]c(=O)[n-]c4[O-])c3n2)cc1 (cis-trans isomerization)
COc1ccc(Sc2nc(=NC3CC3)n3nc/c(=C\c4[n-]c(=O)[n-]c4[O-])c3n2)cc1 (3D coordinates assigned)
COc1ccc(Sc2nc(=NC3CC3)n3nc/c(=C\c4[n-]c(=O)[n-]c4[O-])c3n2)cc1 (nonaromatic ring conformer: 385.1509004246492 kcal/mol)

>  <smiles>  (68) 
COc1ccc(Sc2nc(=NC3CC3)n3ncc(=Cc4[nH]c(=O)[nH]c4O)c3n2)cc1

>  <score_type>  (68) 
oracle

>  <origin>  (68) 
adg

>  <m_score__min__energy>  (68) 
-16.57

>  <m_primary>  (68) 
energy

$$$$
68:0
     RDKit          3D

 39 43  0  0  0  0  0  0  0  0999 V2000
   55.1440   27.4980   45.4000 H   0  0  0  0  0  0  0  0  0  0  0  0
   54.9890   26.7110   46.0180 O   0  0  0  0  0  0  0  0  0  0  0  0
   56.0190   25.8430   46.3690 C   0  0  0  0  0  0  0  0  0  0  0  0
   55.8470   24.7910   47.1870 N   0  0  0  0  0  0  0  0  0  0  0  0
   57.0950   24.2930   47.3030 C   0  0  0  0  0  0  0  0  0  0  0  0
   57.3600   23.2840   48.0070 O   0  0  0  0  0  0  0  0  0  0  0  0
   58.0400   24.9650   46.6120 N   0  0  0  0  0  0  0  0  0  0  0  0
   57.3460   25.9400   45.9990 C   0  0  0  0  0  0  0  0  0  0  0  0
   57.9740   26.9590   45.1430 C   0  0  0  0  0  0  0  0  0  0  0  0
   58.6912   26.6276   44.3777 H   0  0  0  0  0  0  0  0  0  0  0  0
   57.7170   28.2700   45.2480 C   0  0  0  0  0  0  0  0  0  0  0  0
   56.9620   29.0890   44.4090 C   0  0  0  0  0  0  0  0  0  0  0  0
   56.4212   28.7502   43.5131 H   0  0  0  0  0  0  0  0  0  0  0  0
   56.9950   30.3660   44.8640 N   0  0  0  0  0  0  0  0  0  0  0  0
   57.7450   30.3720   45.9550 N   0  0  0  0  0  0  0  0  0  0  0  0
   58.0810   31.4200   46.7620 C   0  0  0  0  0  0  0  0  0  0  0  0
   57.6720   32.6400   46.5570 N   0  0  0  0  0  0  0  0  0  0  0  0
   58.4620   33.8570   46.7110 C   0  0  0  0  0  0  0  0  0  0  0  0
   58.0516   34.1810   47.6788 H   0  0  0  0  0  0  0  0  0  0  0  0
   58.7800   34.5570   45.4010 C   0  0  0  0  0  0  0  0  0  0  0  0
   58.3330   34.1976   44.4624 H   0  0  0  0  0  0  0  0  0  0  0  0
   58.7139   35.5924   45.0355 H   0  0  0  0  0  0  0  0  0  0  0  0
   59.8470   33.7280   46.1030 C   0  0  0  0  0  0  0  0  0  0  0  0
   60.1713   32.7696   45.6715 H   0  0  0  0  0  0  0  0  0  0  0  0
   60.8720   33.9161   46.4551 H   0  0  0  0  0  0  0  0  0  0  0  0
   58.8880   31.1660   47.8290 N   0  0  0  0  0  0  0  0  0  0  0  0
   59.3450   29.9020   48.0790 C   0  0  0  0  0  0  0  0  0  0  0  0
   60.1880   29.6610   49.2020 N   0  0  0  0  0  0  0  0  0  0  0  0
   60.8520   28.5090   49.8370 C   0  0  0  0  0  0  0  0  0  0  0  0
   60.1391   27.7582   50.2085 H   0  0  0  0  0  0  0  0  0  0  0  0
   61.5110   27.8958   49.2048 H   0  0  0  0  0  0  0  0  0  0  0  0
   61.4920   29.2910   50.9350 C   0  0  0  0  0  0  0  0  0  0  0  0
   60.9990   28.9930   52.1950 F   0  0  0  0  0  0  0  0  0  0  0  0
   62.8740   29.3350   50.8600 F   0  0  0  0  0  0  0  0  0  0  0  0
   60.8130   30.4470   50.2820 C   0  0  0  0  0  0  0  0  0  0  0  0
   60.0749   30.9329   50.9371 H   0  0  0  0  0  0  0  0  0  0  0  0
   61.4421   31.2994   49.9858 H   0  0  0  0  0  0  0  0  0  0  0  0
   58.9980   28.8700   47.2600 N   0  0  0  0  0  0  0  0  0  0  0  0
   58.1940   29.1380   46.2040 C   0  0  0  0  0  0  0  0  0  0  0  0
  1  2  1  0
  2  3  1  0
  3  4  1  0
  4  5  1  0
  5  6  2  0
  5  7  1  0
  7  8  1  0
  8  9  1  0
  9 10  1  0
  9 11  2  0
 11 12  1  0
 12 13  1  0
 12 14  2  0
 14 15  1  0
 15 16  1  0
 16 17  2  3
 17 18  1  0
 18 19  1  0
 18 20  1  0
 20 21  1  0
 20 22  1  0
 20 23  1  0
 23 24  1  0
 23 25  1  0
 16 26  1  0
 26 27  2  0
 27 28  1  0
 28 29  1  0
 29 30  1  0
 29 31  1  0
 29 32  1  0
 32 33  1  0
 32 34  1  0
 32 35  1  0
 35 36  1  0
 35 37  1  0
 27 38  1  0
 38 39  2  0
  8  3  2  0
 39 11  1  0
 39 15  1  0
 23 18  1  0
 35 28  1  0
M  CHG  2   4  -1   7  -1
M  END
>  <UniqueID>  (69) 
62

>  <SMILES>  (69) 
O=c1[n-]c(O)c(/C=c2\cnn3c(=NC4CC4)nc(N4CC(F)(F)C4)nc23)[n-]1

>  <Energy>  (69) 
428.81494161501143

>  <Genealogy>  (69) 
O=c1[n-]c(O)c(C=c2cnn3c(=NC4CC4)nc(N4CC(F)(F)C4)nc23)[n-]1 (protonated)
O=c1[n-]c(O)c(/C=c2\cnn3c(=NC4CC4)nc(N4CC(F)(F)C4)nc23)[n-]1 (cis-trans isomerization)
O=c1[n-]c(O)c(/C=c2\cnn3c(=NC4CC4)nc(N4CC(F)(F)C4)nc23)[n-]1 (3D coordinates assigned)
O=c1[n-]c(O)c(/C=c2\cnn3c(=NC4CC4)nc(N4CC(F)(F)C4)nc23)[n-]1 (nonaromatic ring conformer: 428.81494161501143 kcal/mol)

>  <smiles>  (69) 
O=c1[nH]c(O)c(C=c2cnn3c(=NC4CC4)nc(N4CC(F)(F)C4)nc23)[nH]1

>  <score_type>  (69) 
oracle

>  <origin>  (69) 
adg

>  <m_score__min__energy>  (69) 
-12.119999999999999

>  <m_primary>  (69) 
energy

$$$$
69:0
     RDKit          3D

 46 48  0  0  0  0  0  0  0  0999 V2000
   55.8370   29.8140   43.0820 C   0  0  0  0  0  0  0  0  0  0  0  0
   55.9670   30.0890   44.4730 O   0  0  0  0  0  0  0  0  0  0  0  0
   57.0520   29.6810   45.2650 C   0  0  0  0  0  0  0  0  0  0  0  0
   58.1550   30.5190   45.5130 C   0  0  0  0  0  0  0  0  0  0  0  0
   59.2130   30.0740   46.3070 C   0  0  0  0  0  0  0  0  0  0  0  0
   59.1830   28.7940   46.8620 C   0  0  0  0  0  0  0  0  0  0  0  0
   58.0930   27.9410   46.6260 C   0  0  0  0  0  0  0  0  0  0  0  0
   58.0960   26.5530   47.2340 C   0  0  0  0  0  0  0  0  0  0  0  0
   57.4220   25.5590   46.3570 N   0  0  1  0  0  0  0  0  0  0  0  0
   58.3380   25.1300   45.2680 C   0  0  0  0  0  0  0  0  0  0  0  0
   57.8210   23.9090   44.5420 C   0  0  0  0  0  0  0  0  0  0  0  0
   56.7490   24.0110   43.6390 C   0  0  0  0  0  0  0  0  0  0  0  0
   56.2660   22.8740   42.9850 C   0  0  0  0  0  0  0  0  0  0  0  0
   56.8490   21.6260   43.2270 C   0  0  0  0  0  0  0  0  0  0  0  0
   56.3770   20.5230   42.5940 F   0  0  0  0  0  0  0  0  0  0  0  0
   57.9170   21.5150   44.1210 C   0  0  0  0  0  0  0  0  0  0  0  0
   58.4030   22.6510   44.7760 C   0  0  0  0  0  0  0  0  0  0  0  0
   56.9820   24.3860   47.1550 C   0  0  0  0  0  0  0  0  0  0  0  0
   55.7130   23.7770   46.6130 C   0  0  0  0  0  0  0  0  0  0  0  0
   55.5130   22.3920   46.6470 C   0  0  0  0  0  0  0  0  0  0  0  0
   54.3120   21.8800   46.1520 C   0  0  0  0  0  0  0  0  0  0  0  0
   54.0960   20.6400   46.1730 O   0  0  0  0  0  0  0  0  0  0  0  0
   53.3720   22.7220   45.6500 N   0  0  0  0  0  0  0  0  0  0  0  0
   53.5830   24.0640   45.6200 C   0  0  0  0  0  0  0  0  0  0  0  0
   52.7010   24.8280   45.1500 O   0  0  0  0  0  0  0  0  0  0  0  0
   54.7440   24.5820   46.0990 N   0  0  0  0  0  0  0  0  0  0  0  0
   57.0260   28.3940   45.8240 C   0  0  0  0  0  0  0  0  0  0  0  0
   55.9340   27.5670   45.5720 O   0  0  0  0  0  0  0  0  0  0  0  0
   55.3705   28.8272   42.9454 H   0  0  0  0  0  0  0  0  0  0  0  0
   55.2080   30.5850   42.6130 H   0  0  0  0  0  0  0  0  0  0  0  0
   56.8320   29.8173   42.6130 H   0  0  0  0  0  0  0  0  0  0  0  0
   58.1834   31.5294   45.0791 H   0  0  0  0  0  0  0  0  0  0  0  0
   60.0726   30.7339   46.4958 H   0  0  0  0  0  0  0  0  0  0  0  0
   60.0192   28.4508   47.4888 H   0  0  0  0  0  0  0  0  0  0  0  0
   59.1376   26.2374   47.3933 H   0  0  0  0  0  0  0  0  0  0  0  0
   57.5437   26.5972   48.1843 H   0  0  0  0  0  0  0  0  0  0  0  0
   56.5770   26.0070   45.9300 H   0  0  0  0  0  0  0  0  0  0  0  0
   58.4431   25.9540   44.5470 H   0  0  0  0  0  0  0  0  0  0  0  0
   59.3067   24.8717   45.7206 H   0  0  0  0  0  0  0  0  0  0  0  0
   56.2876   24.9907   43.4459 H   0  0  0  0  0  0  0  0  0  0  0  0
   55.4266   22.9609   42.2794 H   0  0  0  0  0  0  0  0  0  0  0  0
   58.3759   20.5333   44.3098 H   0  0  0  0  0  0  0  0  0  0  0  0
   59.2450   22.5597   45.4779 H   0  0  0  0  0  0  0  0  0  0  0  0
   57.7767   23.6257   47.1365 H   0  0  0  0  0  0  0  0  0  0  0  0
   56.7827   24.7289   48.1810 H   0  0  0  0  0  0  0  0  0  0  0  0
   56.2845   21.7221   47.0545 H   0  0  0  0  0  0  0  0  0  0  0  0
  1  2  1  0
  2  3  1  0
  3  4  2  0
  4  5  1  0
  5  6  2  0
  6  7  1  0
  7  8  1  0
  8  9  1  0
  9 10  1  0
 10 11  1  0
 11 12  2  0
 12 13  1  0
 13 14  2  0
 14 15  1  0
 14 16  1  0
 16 17  2  0
  9 18  1  0
 18 19  1  0
 19 20  2  0
 20 21  1  0
 21 22  2  0
 21 23  1  0
 23 24  1  0
 24 25  2  0
 24 26  1  0
  7 27  2  0
 27 28  1  0
 27  3  1  0
 17 11  1  0
 26 19  1  0
  1 29  1  0
  1 30  1  0
  1 31  1  0
  4 32  1  0
  5 33  1  0
  6 34  1  0
  8 35  1  0
  8 36  1  0
  9 37  1  6
 10 38  1  0
 10 39  1  0
 12 40  1  0
 13 41  1  0
 16 42  1  0
 17 43  1  0
 18 44  1  0
 18 45  1  0
 20 46  1  0
M  CHG  4   9   1  23  -1  26  -1  28  -1
M  END
>  <UniqueID>  (70) 
63

>  <SMILES>  (70) 
COc1cccc(C[N@@H+](Cc2ccc(F)cc2)Cc2cc(=O)[n-]c(=O)[n-]2)c1[O-]

>  <Energy>  (70) 
53.09734204999479

>  <Genealogy>  (70) 
COc1cccc(C[NH+](Cc2ccc(F)cc2)Cc2cc(=O)[n-]c(=O)[n-]2)c1[O-] (protonated)
COc1cccc(C[N@@H+](Cc2ccc(F)cc2)Cc2cc(=O)[n-]c(=O)[n-]2)c1[O-] (chirality)
COc1cccc(C[N@@H+](Cc2ccc(F)cc2)Cc2cc(=O)[n-]c(=O)[n-]2)c1[O-] (3D coordinates assigned)
COc1cccc(C[N@@H+](Cc2ccc(F)cc2)Cc2cc(=O)[n-]c(=O)[n-]2)c1[O-] (optimized conformer: 53.09734204999479 kcal/mol)

>  <smiles>  (70) 
COc1cccc(CN(Cc2ccc(F)cc2)Cc2cc(=O)[nH]c(=O)[nH]2)c1O

>  <score_type>  (70) 
oracle

>  <origin>  (70) 
adg

>  <m_score__min__energy>  (70) 
-11.359999999999999

>  <m_primary>  (70) 
energy

$$$$
70:0
     RDKit          3D

 29 30  0  0  0  0  0  0  0  0999 V2000
   59.2797   28.1668   50.7912 H   0  0  0  0  0  0  0  0  0  0  0  0
   60.0100   28.9850   50.8760 C   0  0  0  0  0  0  0  0  0  0  0  0
   61.1640   28.8060   50.5220 O   0  0  0  0  0  0  0  0  0  0  0  0
   59.5800   30.3130   51.4260 C   0  0  0  0  0  0  0  0  0  0  0  0
   58.8269   30.1506   52.2111 H   0  0  0  0  0  0  0  0  0  0  0  0
   60.4622   30.8241   51.8389 H   0  0  0  0  0  0  0  0  0  0  0  0
   58.9760   31.1920   50.3260 C   0  0  0  0  0  0  0  0  0  0  0  0
   59.7891   31.6391   49.7352 H   0  0  0  0  0  0  0  0  0  0  0  0
   58.3364   30.5654   49.6871 H   0  0  0  0  0  0  0  0  0  0  0  0
   58.1190   32.3120   50.9290 C   0  0  0  0  0  0  0  0  0  0  0  0
   58.7632   33.1738   51.1578 H   0  0  0  0  0  0  0  0  0  0  0  0
   57.3448   32.5912   50.1991 H   0  0  0  0  0  0  0  0  0  0  0  0
   57.4420   31.8550   52.1930 C   0  0  0  0  0  0  0  0  0  0  0  0
   57.9048   32.1370   53.1502 H   0  0  0  0  0  0  0  0  0  0  0  0
   56.3140   31.1280   52.2370 C   0  0  0  0  0  0  0  0  0  0  0  0
   55.0910   31.6870   52.1960 N   0  0  0  0  0  0  0  0  0  0  0  0
   54.2380   30.6370   52.2540 C   0  0  0  0  0  0  0  0  0  0  0  0
   52.9050   30.7560   52.2670 C   0  0  0  0  0  0  0  0  0  0  0  0
   52.3919   30.6626   53.2355 H   0  0  0  0  0  0  0  0  0  0  0  0
   52.0760   31.0040   51.0710 C   0  0  0  0  0  0  0  0  0  0  0  0
   52.0960   30.2000   49.9930 N   0  0  0  0  0  0  0  0  0  0  0  0
   51.2560   30.8080   49.1280 C   0  0  0  0  0  0  0  0  0  0  0  0
   51.0020   30.3390   47.9880 O   0  0  0  0  0  0  0  0  0  0  0  0
   50.7160   31.9590   49.5770 N   0  0  0  0  0  0  0  0  0  0  0  0
   51.2510   32.0780   50.8040 C   0  0  0  0  0  0  0  0  0  0  0  0
   51.0240   33.1710   51.6310 O   0  0  0  0  0  0  0  0  0  0  0  0
   54.8550   29.4380   52.3380 N   0  0  0  0  0  0  0  0  0  0  0  0
   56.1580   29.7570   52.3220 C   0  0  0  0  0  0  0  0  0  0  0  0
   57.0770   28.8970   52.3700 O   0  0  0  0  0  0  0  0  0  0  0  0
  1  2  1  0
  2  3  2  0
  2  4  1  0
  4  5  1  0
  4  6  1  0
  4  7  1  0
  7  8  1  0
  7  9  1  0
  7 10  1  0
 10 11  1  0
 10 12  1  0
 10 13  1  0
 13 14  1  0
 13 15  2  0
 15 16  1  0
 16 17  1  0
 17 18  2  3
 18 19  1  0
 18 20  1  0
 20 21  1  0
 21 22  1  0
 22 23  2  0
 22 24  1  0
 24 25  1  0
 25 26  1  0
 17 27  1  0
 27 28  1  0
 28 29  2  0
 28 15  1  0
 25 20  2  0
M  CHG  5  16  -1  21  -1  24  -1  26  -1  27  -1
M  END
>  <UniqueID>  (71) 
64

>  <SMILES>  (71) 
O=CCCC/C=c1/[n-]c(=Cc2[n-]c(=O)[n-]c2[O-])[n-]c1=O

>  <Energy>  (71) 
87.06137519046415

>  <Genealogy>  (71) 
O=CCCCC=c1[n-]c(=Cc2[n-]c(=O)[n-]c2[O-])[n-]c1=O (protonated)
O=CCCC/C=c1/[n-]c(=Cc2[n-]c(=O)[n-]c2[O-])[n-]c1=O (cis-trans isomerization)
O=CCCC/C=c1/[n-]c(=Cc2[n-]c(=O)[n-]c2[O-])[n-]c1=O (3D coordinates assigned)
O=CCCC/C=c1/[n-]c(=Cc2[n-]c(=O)[n-]c2[O-])[n-]c1=O (optimized conformer: 87.06137519046415 kcal/mol)

>  <smiles>  (71) 
O=CCCCC=c1[nH]c(=Cc2[nH]c(=O)[nH]c2O)[nH]c1=O

>  <score_type>  (71) 
oracle

>  <origin>  (71) 
adg

>  <m_score__min__energy>  (71) 
-16.48

>  <m_primary>  (71) 
energy

$$$$
71:0
     RDKit          3D

 40 42  0  0  0  0  0  0  0  0999 V2000
   54.4220   29.3240   44.2110 H   0  0  0  0  0  0  0  0  0  0  0  0
   55.2230   29.2840   44.8800 N   0  0  0  0  0  0  0  0  0  0  0  0
   56.6350   29.7580   44.0070 S   0  0  0  0  0  0  0  0  0  0  0  0
   57.5380   28.5690   43.8260 O   0  0  0  0  0  0  0  0  0  0  0  0
   56.2390   30.2750   42.6510 O   0  0  0  0  0  0  0  0  0  0  0  0
   57.4790   31.0180   44.9010 C   0  0  0  0  0  0  0  0  0  0  0  0
   57.3890   32.3540   44.4910 C   0  0  0  0  0  0  0  0  0  0  0  0
   56.7831   32.6182   43.6117 H   0  0  0  0  0  0  0  0  0  0  0  0
   58.0670   33.3530   45.1960 C   0  0  0  0  0  0  0  0  0  0  0  0
   57.9809   34.4012   44.8737 H   0  0  0  0  0  0  0  0  0  0  0  0
   58.8550   33.0320   46.3090 C   0  0  0  0  0  0  0  0  0  0  0  0
   59.5220   34.1050   46.9970 N   0  0  0  0  0  0  0  0  0  0  0  0
   60.8050   34.2890   47.0860 C   0  0  0  0  0  0  0  0  0  0  0  0
   61.3354   34.8410   46.2961 H   0  0  0  0  0  0  0  0  0  0  0  0
   61.5510   33.7620   48.2390 C   0  0  0  0  0  0  0  0  0  0  0  0
   61.0770   33.5540   49.5260 C   0  0  0  0  0  0  0  0  0  0  0  0
   59.6940   33.8320   50.0210 C   0  0  0  0  0  0  0  0  0  0  0  0
   59.6915   33.8325   51.1210 H   0  0  0  0  0  0  0  0  0  0  0  0
   59.3635   34.8146   49.6531 H   0  0  0  0  0  0  0  0  0  0  0  0
   59.0095   33.0535   49.6531 H   0  0  0  0  0  0  0  0  0  0  0  0
   62.0690   33.0460   50.2870 N   0  0  0  0  0  0  0  0  0  0  0  0
   62.0020   32.8040   51.3020 H   0  0  0  0  0  0  0  0  0  0  0  0
   63.1620   32.9260   49.5450 N   0  0  0  0  0  0  0  0  0  0  0  0
   64.4180   32.4110   50.0280 C   0  0  0  0  0  0  0  0  0  0  0  0
   65.6230   33.0900   49.7690 C   0  0  0  0  0  0  0  0  0  0  0  0
   65.6105   34.0223   49.1853 H   0  0  0  0  0  0  0  0  0  0  0  0
   66.8360   32.5870   50.2490 C   0  0  0  0  0  0  0  0  0  0  0  0
   67.7740   33.1223   50.0400 H   0  0  0  0  0  0  0  0  0  0  0  0
   66.8580   31.4050   50.9940 C   0  0  0  0  0  0  0  0  0  0  0  0
   67.8133   31.0078   51.3677 H   0  0  0  0  0  0  0  0  0  0  0  0
   65.6660   30.7280   51.2640 C   0  0  0  0  0  0  0  0  0  0  0  0
   65.6837   29.7994   51.8533 H   0  0  0  0  0  0  0  0  0  0  0  0
   64.4510   31.2280   50.7870 C   0  0  0  0  0  0  0  0  0  0  0  0
   63.5154   30.6929   51.0067 H   0  0  0  0  0  0  0  0  0  0  0  0
   62.8710   33.3490   48.2970 C   0  0  0  0  0  0  0  0  0  0  0  0
   63.6790   33.3330   47.3290 O   0  0  0  0  0  0  0  0  0  0  0  0
   58.9400   31.6870   46.7220 C   0  0  0  0  0  0  0  0  0  0  0  0
   59.5437   31.4210   47.6022 H   0  0  0  0  0  0  0  0  0  0  0  0
   58.2590   30.6890   46.0160 C   0  0  0  0  0  0  0  0  0  0  0  0
   58.3370   29.6403   46.3389 H   0  0  0  0  0  0  0  0  0  0  0  0
  1  2  1  0
  2  3  1  0
  3  4  2  0
  3  5  2  0
  3  6  1  0
  6  7  2  0
  7  8  1  0
  7  9  1  0
  9 10  1  0
  9 11  2  0
 11 12  1  0
 12 13  2  0
 13 14  1  0
 13 15  1  0
 15 16  2  0
 16 17  1  0
 17 18  1  0
 17 19  1  0
 17 20  1  0
 16 21  1  0
 21 22  1  0
 21 23  1  0
 23 24  1  0
 24 25  2  0
 25 26  1  0
 25 27  1  0
 27 28  1  0
 27 29  2  0
 29 30  1  0
 29 31  1  0
 31 32  1  0
 31 33  2  0
 33 34  1  0
 23 35  1  0
 35 36  2  0
 11 37  1  0
 37 38  1  0
 37 39  2  0
 39 40  1  0
 39  6  1  0
 35 15  1  0
 33 24  1  0
M  CHG  1   2  -1
M  END
>  <UniqueID>  (72) 
65

>  <SMILES>  (72) 
Cc1[nH]n(-c2ccccc2)c(=O)c1/C=N/c1ccc(S([NH-])(=O)=O)cc1

>  <Energy>  (72) 
81.25900256613704

>  <Genealogy>  (72) 
Cc1[nH]n(-c2ccccc2)c(=O)c1C=Nc1ccc(S([NH-])(=O)=O)cc1 (protonated)
Cc1[nH]n(-c2ccccc2)c(=O)c1/C=N/c1ccc(S([NH-])(=O)=O)cc1 (cis-trans isomerization)
Cc1[nH]n(-c2ccccc2)c(=O)c1/C=N/c1ccc(S([NH-])(=O)=O)cc1 (3D coordinates assigned)
Cc1[nH]n(-c2ccccc2)c(=O)c1/C=N/c1ccc(S([NH-])(=O)=O)cc1 (optimized conformer: 81.25900256613704 kcal/mol)

>  <smiles>  (72) 
Cc1[nH]n(-c2ccccc2)c(=O)c1C=Nc1ccc(S(N)(=O)=O)cc1

>  <score_type>  (72) 
oracle

>  <origin>  (72) 
adg

>  <m_score__min__energy>  (72) 
-10.869999999999999

>  <m_primary>  (72) 
energy

$$$$
72:0
     RDKit          3D

 38 40  0  0  0  0  0  0  0  0999 V2000
   55.2820   29.8250   54.0970 O   0  0  0  0  0  0  0  0  0  0  0  0
   55.4980   29.7410   52.8570 C   0  0  0  0  0  0  0  0  0  0  0  0
   56.8310   29.5850   52.3590 N   0  0  0  0  0  0  0  0  0  0  0  0
   57.5410   30.5000   51.5110 C   0  0  0  0  0  0  0  0  0  0  0  0
   57.6730   31.8640   51.8300 C   0  0  0  0  0  0  0  0  0  0  0  0
   58.3940   32.7170   50.9870 C   0  0  0  0  0  0  0  0  0  0  0  0
   58.9930   32.2250   49.8220 C   0  0  0  0  0  0  0  0  0  0  0  0
   59.7170   33.1110   49.0110 O   0  0  0  0  0  0  0  0  0  0  0  0
   59.3110   33.5780   47.7530 C   0  0  0  0  0  0  0  0  0  0  0  0
   59.9780   34.6780   47.1980 C   0  0  0  0  0  0  0  0  0  0  0  0
   59.5940   35.1820   45.9520 C   0  0  0  0  0  0  0  0  0  0  0  0
   58.5310   34.5980   45.2570 C   0  0  0  0  0  0  0  0  0  0  0  0
   57.8420   33.5110   45.8120 C   0  0  0  0  0  0  0  0  0  0  0  0
   56.7720   32.9290   45.1360 O   0  0  0  0  0  0  0  0  0  0  0  0
   58.2290   33.0060   47.0590 C   0  0  0  0  0  0  0  0  0  0  0  0
   58.8970   30.8540   49.5280 C   0  0  0  0  0  0  0  0  0  0  0  0
   58.1780   30.0010   50.3690 C   0  0  0  0  0  0  0  0  0  0  0  0
   54.4140   29.8020   51.9240 N   0  0  0  0  0  0  0  0  0  0  0  0
   53.2510   30.6370   52.0140 C   0  0  0  0  0  0  0  0  0  0  0  0
   52.6100   30.7670   53.2530 C   0  0  0  0  0  0  0  0  0  0  0  0
   51.4630   31.5560   53.3800 C   0  0  0  0  0  0  0  0  0  0  0  0
   50.9370   32.2100   52.2620 C   0  0  0  0  0  0  0  0  0  0  0  0
   51.5520   32.0660   51.0150 C   0  0  0  0  0  0  0  0  0  0  0  0
   51.0170   32.7000   49.9010 O   0  0  0  0  0  0  0  0  0  0  0  0
   52.7010   31.2780   50.8870 C   0  0  0  0  0  0  0  0  0  0  0  0
   57.2082   32.2609   52.7445 H   0  0  0  0  0  0  0  0  0  0  0  0
   58.4907   33.7826   51.2421 H   0  0  0  0  0  0  0  0  0  0  0  0
   60.8084   35.1476   47.7457 H   0  0  0  0  0  0  0  0  0  0  0  0
   60.1291   36.0394   45.5178 H   0  0  0  0  0  0  0  0  0  0  0  0
   58.2350   34.9920   44.2736 H   0  0  0  0  0  0  0  0  0  0  0  0
   56.6530   33.0430   44.1360 H   0  0  0  0  0  0  0  0  0  0  0  0
   57.6842   32.1575   47.4986 H   0  0  0  0  0  0  0  0  0  0  0  0
   59.3904   30.4506   48.6314 H   0  0  0  0  0  0  0  0  0  0  0  0
   58.1120   28.9289   50.1318 H   0  0  0  0  0  0  0  0  0  0  0  0
   53.0125   30.2440   54.1330 H   0  0  0  0  0  0  0  0  0  0  0  0
   50.9743   31.6622   54.3597 H   0  0  0  0  0  0  0  0  0  0  0  0
   50.0394   32.8377   52.3636 H   0  0  0  0  0  0  0  0  0  0  0  0
   53.1766   31.1587   49.9023 H   0  0  0  0  0  0  0  0  0  0  0  0
  1  2  2  0
  2  3  1  0
  3  4  1  0
  4  5  2  0
  5  6  1  0
  6  7  2  0
  7  8  1  0
  8  9  1  0
  9 10  2  0
 10 11  1  0
 11 12  2  0
 12 13  1  0
 13 14  1  0
 13 15  2  0
  7 16  1  0
 16 17  2  0
  2 18  1  0
 18 19  1  0
 19 20  2  0
 20 21  1  0
 21 22  2  0
 22 23  1  0
 23 24  1  0
 23 25  2  0
 17  4  1  0
 25 19  1  0
 15  9  1  0
  5 26  1  0
  6 27  1  0
 10 28  1  0
 11 29  1  0
 12 30  1  0
 14 31  1  0
 15 32  1  0
 16 33  1  0
 17 34  1  0
 20 35  1  0
 21 36  1  0
 22 37  1  0
 25 38  1  0
M  CHG  3   3  -1  18  -1  24  -1
M  END
>  <UniqueID>  (73) 
66

>  <SMILES>  (73) 
O=C([N-]c1ccc(Oc2cccc(O)c2)cc1)[N-]c1cccc([O-])c1

>  <Energy>  (73) 
54.140801995555414

>  <Genealogy>  (73) 
O=C([N-]c1ccc(Oc2cccc(O)c2)cc1)[N-]c1cccc([O-])c1 (protonated)
O=C([N-]c1ccc(Oc2cccc(O)c2)cc1)[N-]c1cccc([O-])c1 (3D coordinates assigned)
O=C([N-]c1ccc(Oc2cccc(O)c2)cc1)[N-]c1cccc([O-])c1 (optimized conformer: 54.140801995555414 kcal/mol)

>  <smiles>  (73) 
O=C(Nc1ccc(Oc2cccc(O)c2)cc1)Nc1cccc(O)c1

>  <score_type>  (73) 
oracle

>  <origin>  (73) 
adg

>  <m_score__min__energy>  (73) 
-13.57

>  <m_primary>  (73) 
energy

$$$$
73:0
     RDKit          3D

 34 36  0  0  0  0  0  0  0  0999 V2000
   55.1940   28.6100   45.6050 H   0  0  0  0  0  0  0  0  0  0  0  0
   55.3940   29.3390   44.8850 N   0  0  0  0  0  0  0  0  0  0  0  0
   56.7310   29.6130   44.4690 C   0  0  0  0  0  0  0  0  0  0  0  0
   57.3880   28.7090   43.8860 O   0  0  0  0  0  0  0  0  0  0  0  0
   57.3420   30.9390   44.7190 C   0  0  0  0  0  0  0  0  0  0  0  0
   57.5150   31.8540   43.6630 C   0  0  0  0  0  0  0  0  0  0  0  0
   57.1927   31.5806   42.6474 H   0  0  0  0  0  0  0  0  0  0  0  0
   58.0920   33.1060   43.8920 C   0  0  0  0  0  0  0  0  0  0  0  0
   58.2217   33.8110   43.0576 H   0  0  0  0  0  0  0  0  0  0  0  0
   58.5070   33.4670   45.1850 C   0  0  0  0  0  0  0  0  0  0  0  0
   59.0960   34.7100   45.4710 C   0  0  0  0  0  0  0  0  0  0  0  0
   59.2730   35.5630   44.5590 O   0  0  0  0  0  0  0  0  0  0  0  0
   59.4790   34.9990   46.7450 N   0  0  0  0  0  0  0  0  0  0  0  0
   59.9190   35.9270   46.9480 H   0  0  0  0  0  0  0  0  0  0  0  0
   59.3050   34.1040   47.7560 C   0  0  0  0  0  0  0  0  0  0  0  0
   59.6910   34.4120   48.9610 N   0  0  0  0  0  0  0  0  0  0  0  0
   61.0790   34.3960   49.4240 C   0  0  0  0  0  0  0  0  0  0  0  0
   61.5021   35.4072   49.3325 H   0  0  0  0  0  0  0  0  0  0  0  0
   61.0985   34.0685   50.4739 H   0  0  0  0  0  0  0  0  0  0  0  0
   61.9020   33.4390   48.6020 C   0  0  0  0  0  0  0  0  0  0  0  0
   61.6640   32.0570   48.6860 C   0  0  0  0  0  0  0  0  0  0  0  0
   60.8634   31.6775   49.3379 H   0  0  0  0  0  0  0  0  0  0  0  0
   62.4410   31.1620   47.9440 C   0  0  0  0  0  0  0  0  0  0  0  0
   62.2489   30.0810   48.0115 H   0  0  0  0  0  0  0  0  0  0  0  0
   63.4610   31.6390   47.1170 C   0  0  0  0  0  0  0  0  0  0  0  0
   64.0710   30.9334   46.5339 H   0  0  0  0  0  0  0  0  0  0  0  0
   63.7070   33.0130   47.0300 C   0  0  0  0  0  0  0  0  0  0  0  0
   64.5107   33.3874   46.3790 H   0  0  0  0  0  0  0  0  0  0  0  0
   62.9320   33.9110   47.7700 C   0  0  0  0  0  0  0  0  0  0  0  0
   63.1290   34.9910   47.7009 H   0  0  0  0  0  0  0  0  0  0  0  0
   58.7330   32.8960   47.4970 N   0  0  0  0  0  0  0  0  0  0  0  0
   58.3340   32.5560   46.2450 C   0  0  0  0  0  0  0  0  0  0  0  0
   57.7580   31.3040   46.0130 C   0  0  0  0  0  0  0  0  0  0  0  0
   57.6289   30.5990   46.8475 H   0  0  0  0  0  0  0  0  0  0  0  0
  1  2  1  0
  2  3  1  0
  3  4  2  0
  3  5  1  0
  5  6  2  0
  6  7  1  0
  6  8  1  0
  8  9  1  0
  8 10  2  0
 10 11  1  0
 11 12  2  0
 11 13  1  0
 13 14  1  0
 13 15  1  0
 15 16  2  0
 16 17  1  0
 17 18  1  0
 17 19  1  0
 17 20  1  0
 20 21  2  0
 21 22  1  0
 21 23  1  0
 23 24  1  0
 23 25  2  0
 25 26  1  0
 25 27  1  0
 27 28  1  0
 27 29  2  0
 29 30  1  0
 15 31  1  0
 31 32  1  0
 32 33  2  0
 33 34  1  0
 33  5  1  0
 32 10  1  0
 29 20  1  0
M  CHG  2   2  -1  31  -1
M  END
>  <UniqueID>  (74) 
67

>  <SMILES>  (74) 
[NH-]C(=O)c1ccc2c(=O)[nH]/c(=N/Cc3ccccc3)[n-]c2c1

>  <Energy>  (74) 
40.35116112733827

>  <Genealogy>  (74) 
[NH-]C(=O)c1ccc2c(=O)[nH]c(=NCc3ccccc3)[n-]c2c1 (protonated)
[NH-]C(=O)c1ccc2c(=O)[nH]/c(=N/Cc3ccccc3)[n-]c2c1 (cis-trans isomerization)
[NH-]C(=O)c1ccc2c(=O)[nH]/c(=N/Cc3ccccc3)[n-]c2c1 (3D coordinates assigned)
[NH-]C(=O)c1ccc2c(=O)[nH]/c(=N/Cc3ccccc3)[n-]c2c1 (optimized conformer: 40.35116112733827 kcal/mol)

>  <smiles>  (74) 
NC(=O)c1ccc2c(=O)[nH]c(=NCc3ccccc3)[nH]c2c1

>  <score_type>  (74) 
oracle

>  <origin>  (74) 
adg

>  <m_score__min__energy>  (74) 
-11.789999999999999

>  <m_primary>  (74) 
energy

$$$$
74:0
     RDKit          3D

 44 46  0  0  1  0  0  0  0  0999 V2000
   57.4080   31.8520   41.8330 C   0  0  0  0  0  0  0  0  0  0  0  0
   57.6720   31.6880   43.2920 C   0  0  0  0  0  0  0  0  0  0  0  0
   58.1240   32.7690   44.0530 C   0  0  0  0  0  0  0  0  0  0  0  0
   58.3770   32.6520   45.4020 C   0  0  0  0  0  0  0  0  0  0  0  0
   58.1740   31.4260   46.0010 C   0  0  0  0  0  0  0  0  0  0  0  0
   57.7220   30.3160   45.2760 C   0  0  0  0  0  0  0  0  0  0  0  0
   57.5510   29.1220   45.9880 N   0  0  0  0  0  0  0  0  0  0  0  0
   58.4230   28.5870   46.9440 C   0  0  0  0  0  0  0  0  0  0  0  0
   58.9270   29.3520   48.0020 C   0  0  0  0  0  0  0  0  0  0  0  0
   59.7870   28.8010   48.9350 C   0  0  0  0  0  0  0  0  0  0  0  0
   60.1680   27.4810   48.8410 C   0  0  0  0  0  0  0  0  0  0  0  0
   59.6850   26.7180   47.8120 C   0  0  0  0  0  0  0  0  0  0  0  0
   58.8180   27.2500   46.8610 C   0  0  0  0  0  0  0  0  0  0  0  0
   58.3580   26.3940   45.8200 N   0  0  0  0  0  0  0  0  0  0  0  0
   56.9800   26.0870   45.6270 C   0  0  0  0  0  0  0  0  0  0  0  0
   56.1010   26.5830   46.3960 O   0  0  0  0  0  0  0  0  0  0  0  0
   56.6480   25.2160   44.5490 N   0  0  0  0  0  0  0  0  0  0  0  0
   57.2570   24.0740   44.5020 C   0  0  0  0  0  0  0  0  0  0  0  0
   56.7340   23.0020   43.7750 C   0  0  0  0  0  0  0  0  0  0  0  0
   57.4040   21.7750   43.7370 C   0  0  0  0  0  0  0  0  0  0  0  0
   58.5610   21.6470   44.4120 N   0  0  0  0  0  0  0  0  0  0  0  0
   59.0770   22.6900   45.1240 C   0  0  0  0  0  0  0  0  0  0  0  0
   58.4190   23.8820   45.1580 N   0  0  0  0  0  0  0  0  0  0  0  0
   57.4760   30.4680   43.9220 C   0  0  0  0  0  0  0  0  0  0  0  0
   56.9980   29.2820   43.1660 C   0  0  0  0  0  0  0  0  0  0  0  0
   56.4815   32.4276   41.6905 H   0  0  0  0  0  0  0  0  0  0  0  0
   58.2479   32.3876   41.3663 H   0  0  0  0  0  0  0  0  0  0  0  0
   57.3000   30.8618   41.3663 H   0  0  0  0  0  0  0  0  0  0  0  0
   58.2822   33.7402   43.5614 H   0  0  0  0  0  0  0  0  0  0  0  0
   58.7317   33.5138   45.9864 H   0  0  0  0  0  0  0  0  0  0  0  0
   58.3725   31.3171   47.0774 H   0  0  0  0  0  0  0  0  0  0  0  0
   56.6690   28.5660   45.7810 H   0  0  0  0  0  0  0  0  0  0  0  0
   58.6346   30.4085   48.0932 H   0  0  0  0  0  0  0  0  0  0  0  0
   60.1695   29.4221   49.7584 H   0  0  0  0  0  0  0  0  0  0  0  0
   60.8522   27.0449   49.5838 H   0  0  0  0  0  0  0  0  0  0  0  0
   59.9879   25.6633   47.7349 H   0  0  0  0  0  0  0  0  0  0  0  0
   59.1040   25.9860   45.1840 H   0  0  0  0  0  0  0  0  0  0  0  0
   55.7875   23.1239   43.2280 H   0  0  0  0  0  0  0  0  0  0  0  0
   56.9926   20.9298   43.1656 H   0  0  0  0  0  0  0  0  0  0  0  0
   59.0450   20.7210   44.3690 H   0  0  0  0  0  0  0  0  0  0  0  0
   60.0240   22.5684   45.6703 H   0  0  0  0  0  0  0  0  0  0  0  0
   56.6827   28.4997   43.8721 H   0  0  0  0  0  0  0  0  0  0  0  0
   56.1456   29.5698   42.5330 H   0  0  0  0  0  0  0  0  0  0  0  0
   57.8117   28.8983   42.5330 H   0  0  0  0  0  0  0  0  0  0  0  0
  1  2  1  0
  2  3  2  0
  3  4  1  0
  4  5  2  0
  5  6  1  0
  6  7  1  0
  7  8  1  0
  8  9  2  0
  9 10  1  0
 10 11  2  0
 11 12  1  0
 12 13  2  0
 13 14  1  0
 14 15  1  0
 15 16  2  0
 15 17  1  0
 17 18  2  0
 18 19  1  0
 19 20  2  0
 20 21  1  0
 21 22  1  0
 22 23  2  0
  6 24  2  0
 24 25  1  0
 24  2  1  0
 13  8  1  0
 23 18  1  0
  1 26  1  0
  1 27  1  0
  1 28  1  0
  3 29  1  0
  4 30  1  0
  5 31  1  0
  7 32  1  0
  9 33  1  0
 10 34  1  0
 11 35  1  0
 12 36  1  0
 14 37  1  0
 19 38  1  0
 20 39  1  0
 21 40  1  0
 22 41  1  0
 25 42  1  0
 25 43  1  0
 25 44  1  0
M  END
>  <smiles>  (75) 
Cc1cccc(Nc2ccccc2NC(=O)N=c2cc[nH]cn2)c1C

>  <score_type>  (75) 
oracle

>  <origin>  (75) 
adg

>  <m_score__min__energy>  (75) 
-7.5300000000000002

>  <m_primary>  (75) 
energy

$$$$
75:0
     RDKit          3D

 50 52  0  0  0  0  0  0  0  0999 V2000
   66.7260   31.6580   50.7270 C   0  0  0  0  0  0  0  0  0  0  0  0
   66.2200   32.8900   50.2240 O   0  0  0  0  0  0  0  0  0  0  0  0
   64.8710   33.1300   49.9270 C   0  0  0  0  0  0  0  0  0  0  0  0
   64.0010   33.7710   50.8300 C   0  0  0  0  0  0  0  0  0  0  0  0
   62.6640   33.9880   50.4860 C   0  0  0  0  0  0  0  0  0  0  0  0
   62.1680   33.5720   49.2400 C   0  0  0  0  0  0  0  0  0  0  0  0
   60.7860   33.8180   48.9190 N   0  0  0  0  0  0  0  0  0  0  0  0
   60.0840   33.5310   47.3570 S   0  0  0  0  0  0  0  0  0  0  0  0
   61.0830   33.8890   46.2910 O   0  0  0  0  0  0  0  0  0  0  0  0
   58.8690   34.4010   47.1910 O   0  0  0  0  0  0  0  0  0  0  0  0
   59.5930   31.8450   47.2270 C   0  0  0  0  0  0  0  0  0  0  0  0
   59.7790   31.1620   46.0200 C   0  0  0  0  0  0  0  0  0  0  0  0
   59.3900   29.8250   45.8990 C   0  0  0  0  0  0  0  0  0  0  0  0
   58.8000   29.1560   46.9880 C   0  0  0  0  0  0  0  0  0  0  0  0
   58.3880   27.8160   46.9240 O   0  0  0  0  0  0  0  0  0  0  0  0
   57.8130   27.1790   45.7830 C   0  0  0  0  0  0  0  0  0  0  0  0
   56.3570   27.5330   45.6330 C   0  0  0  0  0  0  0  0  0  0  0  0
   55.4880   26.6830   45.9610 O   0  0  0  0  0  0  0  0  0  0  0  0
   55.9220   28.8160   45.1600 N   0  0  0  0  0  0  0  0  0  0  0  0
   56.1800   29.3780   43.8370 C   0  0  0  0  0  0  0  0  0  0  0  0
   56.7730   30.7520   43.9390 C   0  0  0  0  0  0  0  0  0  0  0  0
   57.4620   31.3180   42.8570 C   0  0  0  0  0  0  0  0  0  0  0  0
   58.0050   32.5990   42.9850 C   0  0  0  0  0  0  0  0  0  0  0  0
   57.8630   33.2970   44.1870 C   0  0  0  0  0  0  0  0  0  0  0  0
   57.1750   32.7000   45.2460 C   0  0  0  0  0  0  0  0  0  0  0  0
   56.6520   31.4540   45.1020 N   0  0  0  0  0  0  0  0  0  0  0  0
   58.6170   29.8460   48.1940 C   0  0  0  0  0  0  0  0  0  0  0  0
   59.0120   31.1810   48.3150 C   0  0  0  0  0  0  0  0  0  0  0  0
   63.0420   32.9360   48.3390 C   0  0  0  0  0  0  0  0  0  0  0  0
   64.3790   32.7170   48.6850 C   0  0  0  0  0  0  0  0  0  0  0  0
   66.7171   31.6796   51.8268 H   0  0  0  0  0  0  0  0  0  0  0  0
   66.0951   30.8300   50.3714 H   0  0  0  0  0  0  0  0  0  0  0  0
   67.7567   31.5124   50.3714 H   0  0  0  0  0  0  0  0  0  0  0  0
   64.3753   34.1022   51.8099 H   0  0  0  0  0  0  0  0  0  0  0  0
   61.9932   34.4899   51.1988 H   0  0  0  0  0  0  0  0  0  0  0  0
   60.1420   34.1500   49.6700 H   0  0  0  0  0  0  0  0  0  0  0  0
   60.2335   31.6797   45.1624 H   0  0  0  0  0  0  0  0  0  0  0  0
   59.5456   29.2933   44.9487 H   0  0  0  0  0  0  0  0  0  0  0  0
   58.3547   27.5018   44.8817 H   0  0  0  0  0  0  0  0  0  0  0  0
   57.8930   26.0901   45.9168 H   0  0  0  0  0  0  0  0  0  0  0  0
   56.8815   28.7232   43.2993 H   0  0  0  0  0  0  0  0  0  0  0  0
   55.2249   29.4495   43.2960 H   0  0  0  0  0  0  0  0  0  0  0  0
   57.5740   30.7589   41.9163 H   0  0  0  0  0  0  0  0  0  0  0  0
   58.5429   33.0568   42.1417 H   0  0  0  0  0  0  0  0  0  0  0  0
   58.2882   34.3054   44.2981 H   0  0  0  0  0  0  0  0  0  0  0  0
   57.0564   33.2390   46.1975 H   0  0  0  0  0  0  0  0  0  0  0  0
   58.1588   29.3327   49.0522 H   0  0  0  0  0  0  0  0  0  0  0  0
   58.8663   31.7119   49.2673 H   0  0  0  0  0  0  0  0  0  0  0  0
   62.6711   32.6091   47.3564 H   0  0  0  0  0  0  0  0  0  0  0  0
   65.0504   32.2148   47.9730 H   0  0  0  0  0  0  0  0  0  0  0  0
  1  2  1  0
  2  3  1  0
  3  4  2  0
  4  5  1  0
  5  6  2  0
  6  7  1  0
  7  8  1  0
  8  9  2  0
  8 10  2  0
  8 11  1  0
 11 12  2  0
 12 13  1  0
 13 14  2  0
 14 15  1  0
 15 16  1  0
 16 17  1  0
 17 18  2  0
 17 19  1  0
 19 20  1  0
 20 21  1  0
 21 22  2  0
 22 23  1  0
 23 24  2  0
 24 25  1  0
 25 26  2  0
 14 27  1  0
 27 28  2  0
  6 29  1  0
 29 30  2  0
 30  3  1  0
 28 11  1  0
 26 21  1  0
  1 31  1  0
  1 32  1  0
  1 33  1  0
  4 34  1  0
  5 35  1  0
  7 36  1  0
 12 37  1  0
 13 38  1  0
 16 39  1  0
 16 40  1  0
 20 41  1  0
 20 42  1  0
 22 43  1  0
 23 44  1  0
 24 45  1  0
 25 46  1  0
 27 47  1  0
 28 48  1  0
 29 49  1  0
 30 50  1  0
M  CHG  1  19  -1
M  END
>  <UniqueID>  (76) 
68

>  <SMILES>  (76) 
COc1ccc(NS(=O)(=O)c2ccc(OCC(=O)[N-]Cc3ccccn3)cc2)cc1

>  <Energy>  (76) 
52.25372719193147

>  <Genealogy>  (76) 
COc1ccc(NS(=O)(=O)c2ccc(OCC(=O)[N-]Cc3ccccn3)cc2)cc1 (protonated)
COc1ccc(NS(=O)(=O)c2ccc(OCC(=O)[N-]Cc3ccccn3)cc2)cc1 (3D coordinates assigned)
COc1ccc(NS(=O)(=O)c2ccc(OCC(=O)[N-]Cc3ccccn3)cc2)cc1 (optimized conformer: 52.25372719193147 kcal/mol)

>  <smiles>  (76) 
COc1ccc(NS(=O)(=O)c2ccc(OCC(=O)NCc3ccccn3)cc2)cc1

>  <score_type>  (76) 
oracle

>  <origin>  (76) 
adg

>  <m_score__min__energy>  (76) 
-10.210000000000001

>  <m_primary>  (76) 
energy

$$$$
76:0
     RDKit          3D

 54 57  0  0  0  0  0  0  0  0999 V2000
   59.6830   35.6410   46.0200 C   0  0  0  0  0  0  0  0  0  0  0  0
   59.1320   34.2460   45.8760 C   0  0  0  0  0  0  0  0  0  0  0  0
   58.3490   33.9410   44.7510 C   0  0  0  0  0  0  0  0  0  0  0  0
   57.7990   32.6710   44.5870 C   0  0  0  0  0  0  0  0  0  0  0  0
   58.0100   31.6710   45.5510 C   0  0  0  0  0  0  0  0  0  0  0  0
   57.4320   30.3140   45.3910 C   0  0  0  0  0  0  0  0  0  0  0  0
   58.0880   29.1030   45.5340 C   0  0  0  0  0  0  0  0  0  0  0  0
   57.1130   28.1620   45.2830 C   0  0  0  0  0  0  0  0  0  0  0  0
   57.2880   26.7050   45.3070 C   0  0  0  0  0  0  0  0  0  0  0  0
   57.8520   26.1310   44.3380 O   0  0  0  0  0  0  0  0  0  0  0  0
   56.8620   25.9580   46.4550 N   0  0  0  0  0  0  0  0  0  0  0  0
   55.9020   24.8920   46.4730 C   0  0  0  0  0  0  0  0  0  0  0  0
   56.0550   23.7610   47.2960 C   0  0  0  0  0  0  0  0  0  0  0  0
   55.1070   22.7350   47.2650 C   0  0  0  0  0  0  0  0  0  0  0  0
   54.0000   22.8190   46.4100 C   0  0  0  0  0  0  0  0  0  0  0  0
   52.8160   21.5180   46.3620 S   0  0  0  0  0  0  0  0  0  0  0  0
   51.6330   21.8570   45.1500 N   0  0  0  0  0  0  0  0  0  0  0  0
   52.1400   21.3940   47.6980 O   0  0  0  0  0  0  0  0  0  0  0  0
   53.5010   20.2170   46.0460 O   0  0  0  0  0  0  0  0  0  0  0  0
   53.8620   23.9300   45.5680 C   0  0  0  0  0  0  0  0  0  0  0  0
   54.8100   24.9570   45.5970 C   0  0  0  0  0  0  0  0  0  0  0  0
   55.9470   28.7750   45.0070 N   0  0  0  0  0  0  0  0  0  0  0  0
   56.1400   30.0830   45.0720 N   0  0  0  0  0  0  0  0  0  0  0  0
   58.7800   31.9760   46.6850 C   0  0  0  0  0  0  0  0  0  0  0  0
   59.3380   33.2530   46.8630 C   0  0  0  0  0  0  0  0  0  0  0  0
   60.2820   33.5780   48.3290 S   0  0  0  0  0  0  0  0  0  0  0  0
   59.5700   34.5910   49.1830 O   0  0  0  0  0  0  0  0  0  0  0  0
   60.4090   32.3000   49.1110 O   0  0  0  0  0  0  0  0  0  0  0  0
   61.8660   34.1800   47.8860 N   0  0  0  0  0  0  0  0  0  0  0  0
   62.7810   34.2320   49.0470 C   0  0  0  0  0  0  0  0  0  0  0  0
   63.7580   33.0430   49.0890 C   0  0  0  0  0  0  0  0  0  0  0  0
   63.1440   31.8890   48.5610 O   0  0  0  0  0  0  0  0  0  0  0  0
   62.9480   32.0340   47.1640 C   0  0  0  0  0  0  0  0  0  0  0  0
   62.4350   33.4340   46.7510 C   0  0  0  0  0  0  0  0  0  0  0  0
   59.7807   35.8883   47.0874 H   0  0  0  0  0  0  0  0  0  0  0  0
   60.6706   35.6966   45.5389 H   0  0  0  0  0  0  0  0  0  0  0  0
   58.9999   36.3565   45.5389 H   0  0  0  0  0  0  0  0  0  0  0  0
   58.1675   34.7140   43.9897 H   0  0  0  0  0  0  0  0  0  0  0  0
   57.1945   32.4497   43.6951 H   0  0  0  0  0  0  0  0  0  0  0  0
   59.1442   28.9316   45.7892 H   0  0  0  0  0  0  0  0  0  0  0  0
   56.9239   23.6843   47.9661 H   0  0  0  0  0  0  0  0  0  0  0  0
   55.2304   21.8565   47.9154 H   0  0  0  0  0  0  0  0  0  0  0  0
   51.4210   20.9540   44.6690 H   0  0  0  0  0  0  0  0  0  0  0  0
   53.0048   23.9945   44.8817 H   0  0  0  0  0  0  0  0  0  0  0  0
   54.6980   25.8225   44.9273 H   0  0  0  0  0  0  0  0  0  0  0  0
   58.9493   31.2014   47.4474 H   0  0  0  0  0  0  0  0  0  0  0  0
   63.3632   35.1638   48.9944 H   0  0  0  0  0  0  0  0  0  0  0  0
   62.1648   34.1872   49.9571 H   0  0  0  0  0  0  0  0  0  0  0  0
   64.6503   33.2848   48.4929 H   0  0  0  0  0  0  0  0  0  0  0  0
   64.0446   32.8509   50.1335 H   0  0  0  0  0  0  0  0  0  0  0  0
   63.9075   31.8523   46.6578 H   0  0  0  0  0  0  0  0  0  0  0  0
   62.1752   31.3084   46.8703 H   0  0  0  0  0  0  0  0  0  0  0  0
   63.2751   34.0097   46.3353 H   0  0  0  0  0  0  0  0  0  0  0  0
   61.6364   33.2931   46.0078 H   0  0  0  0  0  0  0  0  0  0  0  0
  1  2  1  0
  2  3  2  0
  3  4  1  0
  4  5  2  0
  5  6  1  0
  6  7  1  0
  7  8  2  0
  8  9  1  0
  9 10  2  0
  9 11  1  0
 11 12  1  0
 12 13  2  0
 13 14  1  0
 14 15  2  0
 15 16  1  0
 16 17  1  0
 16 18  2  0
 16 19  2  0
 15 20  1  0
 20 21  2  0
  8 22  1  0
 22 23  1  0
  5 24  1  0
 24 25  2  0
 25 26  1  0
 26 27  2  0
 26 28  2  0
 26 29  1  0
 29 30  1  0
 30 31  1  0
 31 32  1  0
 32 33  1  0
 33 34  1  0
 25  2  1  0
 34 29  1  0
 23  6  2  0
 21 12  1  0
  1 35  1  0
  1 36  1  0
  1 37  1  0
  3 38  1  0
  4 39  1  0
  7 40  1  0
 13 41  1  0
 14 42  1  0
 17 43  1  0
 20 44  1  0
 21 45  1  0
 24 46  1  0
 30 47  1  0
 30 48  1  0
 31 49  1  0
 31 50  1  0
 33 51  1  0
 33 52  1  0
 34 53  1  0
 34 54  1  0
M  CHG  3  11  -1  17  -1  22  -1
M  END
>  <UniqueID>  (77) 
69

>  <SMILES>  (77) 
Cc1ccc(-c2cc(C(=O)[N-]c3ccc(S([NH-])(=O)=O)cc3)[n-]n2)cc1S(=O)(=O)N1CCOCC1

>  <Energy>  (77) 
102.31727223993171

>  <Genealogy>  (77) 
Cc1ccc(-c2cc(C(=O)[N-]c3ccc(S([NH-])(=O)=O)cc3)[n-]n2)cc1S(=O)(=O)N1CCOCC1 (protonated)
Cc1ccc(-c2cc(C(=O)[N-]c3ccc(S([NH-])(=O)=O)cc3)[n-]n2)cc1S(=O)(=O)N1CCOCC1 (3D coordinates assigned)
Cc1ccc(-c2cc(C(=O)[N-]c3ccc(S([NH-])(=O)=O)cc3)[n-]n2)cc1S(=O)(=O)N1CCOCC1 (nonaromatic ring conformer: 102.31727223993171 kcal/mol)

>  <smiles>  (77) 
Cc1ccc(-c2cc(C(=O)Nc3ccc(S(N)(=O)=O)cc3)[nH]n2)cc1S(=O)(=O)N1CCOCC1

>  <score_type>  (77) 
oracle

>  <origin>  (77) 
adg

>  <m_score__min__energy>  (77) 
-15.35

>  <m_primary>  (77) 
energy

$$$$
77:0
     RDKit          3D

 19 19  0  0  0  0  0  0  0  0999 V2000
   53.9520   25.3350   45.6340 N   0  0  0  0  0  0  0  0  0  0  0  0
   55.6460   25.4670   45.9520 S   0  0  0  0  0  0  0  0  0  0  0  0
   55.9470   24.8440   47.2850 O   0  0  0  0  0  0  0  0  0  0  0  0
   56.4290   24.7490   44.8870 O   0  0  0  0  0  0  0  0  0  0  0  0
   56.1080   27.1370   45.9930 N   0  0  0  0  0  0  0  0  0  0  0  0
   57.3970   27.6620   45.6360 C   0  0  0  0  0  0  0  0  0  0  0  0
   58.5640   26.9020   45.8460 C   0  0  0  0  0  0  0  0  0  0  0  0
   59.8160   27.4110   45.5010 C   0  0  0  0  0  0  0  0  0  0  0  0
   59.9240   28.6820   44.9430 C   0  0  0  0  0  0  0  0  0  0  0  0
   58.7800   29.4510   44.7270 C   0  0  0  0  0  0  0  0  0  0  0  0
   57.5030   28.9580   45.0680 C   0  0  0  0  0  0  0  0  0  0  0  0
   56.3120   29.8180   44.8180 C   0  0  0  0  0  0  0  0  0  0  0  0
   55.1550   29.3200   44.8390 O   0  0  0  0  0  0  0  0  0  0  0  0
   56.4420   31.1770   44.5610 O   0  0  0  0  0  0  0  0  0  0  0  0
   53.5660   26.3050   45.6270 H   0  0  0  0  0  0  0  0  0  0  0  0
   58.4873   25.8970   46.2865 H   0  0  0  0  0  0  0  0  0  0  0  0
   60.7197   26.8071   45.6701 H   0  0  0  0  0  0  0  0  0  0  0  0
   60.9128   29.0805   44.6720 H   0  0  0  0  0  0  0  0  0  0  0  0
   58.8750   30.4540   44.2854 H   0  0  0  0  0  0  0  0  0  0  0  0
  1  2  1  0
  2  3  2  0
  2  4  2  0
  2  5  1  0
  5  6  1  0
  6  7  2  0
  7  8  1  0
  8  9  2  0
  9 10  1  0
 10 11  2  0
 11 12  1  0
 12 13  2  0
 12 14  1  0
 11  6  1  0
  1 15  1  0
  7 16  1  0
  8 17  1  0
  9 18  1  0
 10 19  1  0
M  CHG  3   1  -1   5  -1  14  -1
M  END
>  <UniqueID>  (78) 
70

>  <SMILES>  (78) 
[NH-]S(=O)(=O)[N-]c1ccccc1C(=O)[O-]

>  <Energy>  (78) 
22.101568260865466

>  <Genealogy>  (78) 
[NH-]S(=O)(=O)[N-]c1ccccc1C(=O)[O-] (protonated)
[NH-]S(=O)(=O)[N-]c1ccccc1C(=O)[O-] (3D coordinates assigned)
[NH-]S(=O)(=O)[N-]c1ccccc1C(=O)[O-] (optimized conformer: 22.101568260865466 kcal/mol)

>  <smiles>  (78) 
NS(=O)(=O)Nc1ccccc1C(=O)O

>  <score_type>  (78) 
oracle

>  <origin>  (78) 
adg

>  <m_score__min__energy>  (78) 
-13.029999999999999

>  <m_primary>  (78) 
energy

$$$$
78:0
     RDKit          3D

 41 42  0  0  0  0  0  0  0  0999 V2000
   60.6690   30.6050   46.8000 C   0  0  0  0  0  0  0  0  0  0  0  0
   60.3350   31.6430   47.6930 O   0  0  0  0  0  0  0  0  0  0  0  0
   61.0660   32.8160   47.3860 C   0  0  0  0  0  0  0  0  0  0  0  0
   60.4440   34.0490   48.0600 C   0  0  0  0  0  0  0  0  0  0  0  0
   58.9860   34.2860   47.6460 C   0  0  0  0  0  0  0  0  0  0  0  0
   58.5430   33.2670   46.6940 N   0  0  0  0  0  0  0  0  0  0  0  0
   58.2350   33.5610   45.3210 C   0  0  0  0  0  0  0  0  0  0  0  0
   58.4170   34.7270   44.8710 O   0  0  0  0  0  0  0  0  0  0  0  0
   57.7040   32.5080   44.4290 C   0  0  0  0  0  0  0  0  0  0  0  0
   57.8670   32.5790   43.0420 C   0  0  0  0  0  0  0  0  0  0  0  0
   57.3580   31.5580   42.2450 C   0  0  0  0  0  0  0  0  0  0  0  0
   56.6930   30.4880   42.8420 C   0  0  0  0  0  0  0  0  0  0  0  0
   56.2370   29.5610   42.1190 O   0  0  0  0  0  0  0  0  0  0  0  0
   56.5420   30.4600   44.2030 N   0  0  0  0  0  0  0  0  0  0  0  0
   55.8780   29.3410   44.8790 C   0  0  0  0  0  0  0  0  0  0  0  0
   56.8940   28.3040   45.2870 C   0  0  0  0  0  0  0  0  0  0  0  0
   58.2660   28.5810   45.1640 C   0  0  0  0  0  0  0  0  0  0  0  0
   59.2160   27.6400   45.5710 C   0  0  0  0  0  0  0  0  0  0  0  0
   58.8080   26.4190   46.1100 C   0  0  0  0  0  0  0  0  0  0  0  0
   57.4460   26.1360   46.2460 C   0  0  0  0  0  0  0  0  0  0  0  0
   56.4890   27.0730   45.8410 C   0  0  0  0  0  0  0  0  0  0  0  0
   55.1390   26.7730   45.9910 O   0  0  0  0  0  0  0  0  0  0  0  0
   57.0440   31.4430   44.9570 N   0  0  0  0  0  0  0  0  0  0  0  0
   60.9572   29.7094   47.3700 H   0  0  0  0  0  0  0  0  0  0  0  0
   59.8003   30.3726   46.1665 H   0  0  0  0  0  0  0  0  0  0  0  0
   61.5102   30.9228   46.1665 H   0  0  0  0  0  0  0  0  0  0  0  0
   62.1008   32.6971   47.7397 H   0  0  0  0  0  0  0  0  0  0  0  0
   61.0441   32.9657   46.2964 H   0  0  0  0  0  0  0  0  0  0  0  0
   60.4805   33.9084   49.1504 H   0  0  0  0  0  0  0  0  0  0  0  0
   61.0241   34.9271   47.7399 H   0  0  0  0  0  0  0  0  0  0  0  0
   58.3464   34.2463   48.5401 H   0  0  0  0  0  0  0  0  0  0  0  0
   58.9123   35.2727   47.1654 H   0  0  0  0  0  0  0  0  0  0  0  0
   58.3690   32.3060   47.0650 H   0  0  0  0  0  0  0  0  0  0  0  0
   58.3914   33.4318   42.5863 H   0  0  0  0  0  0  0  0  0  0  0  0
   57.4795   31.5950   41.1523 H   0  0  0  0  0  0  0  0  0  0  0  0
   55.3589   29.7135   45.7744 H   0  0  0  0  0  0  0  0  0  0  0  0
   55.1538   28.8829   44.1893 H   0  0  0  0  0  0  0  0  0  0  0  0
   58.5943   29.5437   44.7451 H   0  0  0  0  0  0  0  0  0  0  0  0
   60.2882   27.8624   45.4662 H   0  0  0  0  0  0  0  0  0  0  0  0
   59.5580   25.6797   46.4277 H   0  0  0  0  0  0  0  0  0  0  0  0
   57.1256   25.1740   46.6726 H   0  0  0  0  0  0  0  0  0  0  0  0
  1  2  1  0
  2  3  1  0
  3  4  1  0
  4  5  1  0
  5  6  1  0
  6  7  1  0
  7  8  2  0
  7  9  1  0
  9 10  1  0
 10 11  2  0
 11 12  1  0
 12 13  2  0
 12 14  1  0
 14 15  1  0
 15 16  1  0
 16 17  2  0
 17 18  1  0
 18 19  2  0
 19 20  1  0
 20 21  2  0
 21 22  1  0
 14 23  1  0
 23  9  2  0
 21 16  1  0
  1 24  1  0
  1 25  1  0
  1 26  1  0
  3 27  1  0
  3 28  1  0
  4 29  1  0
  4 30  1  0
  5 31  1  0
  5 32  1  0
  6 33  1  0
 10 34  1  0
 11 35  1  0
 15 36  1  0
 15 37  1  0
 17 38  1  0
 18 39  1  0
 19 40  1  0
 20 41  1  0
M  CHG  1  22  -1
M  END
>  <UniqueID>  (79) 
71

>  <SMILES>  (79) 
COCCCNC(=O)c1ccc(=O)n(Cc2ccccc2[O-])n1

>  <Energy>  (79) 
39.58925116469016

>  <Genealogy>  (79) 
COCCCNC(=O)c1ccc(=O)n(Cc2ccccc2[O-])n1 (protonated)
COCCCNC(=O)c1ccc(=O)n(Cc2ccccc2[O-])n1 (3D coordinates assigned)
COCCCNC(=O)c1ccc(=O)n(Cc2ccccc2[O-])n1 (optimized conformer: 39.58925116469016 kcal/mol)

>  <smiles>  (79) 
COCCCNC(=O)c1ccc(=O)n(Cc2ccccc2O)n1

>  <score_type>  (79) 
oracle

>  <origin>  (79) 
adg

>  <m_score__min__energy>  (79) 
-10.68

>  <m_primary>  (79) 
energy

$$$$
79:0
     RDKit          3D

 43 45  0  0  0  0  0  0  0  0999 V2000
   62.4370   31.8160   47.1590 C   0  0  0  0  0  0  0  0  0  0  0  0
   61.0710   31.3860   46.8350 N   0  0  0  0  0  0  0  0  0  0  0  0
   60.6910   30.1720   47.5820 C   0  0  1  0  0  0  0  0  0  0  0  0
   60.0700   30.6230   49.2540 S   0  0  0  0  0  0  0  0  0  0  0  0
   59.5120   28.9740   49.8340 C   0  0  0  0  0  0  0  0  0  0  0  0
   60.4100   27.8540   49.3850 C   0  0  0  0  0  0  0  0  0  0  0  0
   61.2550   27.3710   50.1860 O   0  0  0  0  0  0  0  0  0  0  0  0
   60.3050   27.3170   48.0580 N   0  0  0  0  0  0  0  0  0  0  0  0
   59.5390   27.9710   47.0350 C   0  0  0  0  0  0  0  0  0  0  0  0
   58.6390   27.2170   46.2710 C   0  0  0  0  0  0  0  0  0  0  0  0
   57.7810   27.8450   45.3680 C   0  0  0  0  0  0  0  0  0  0  0  0
   57.8090   29.2350   45.2210 C   0  0  0  0  0  0  0  0  0  0  0  0
   56.6550   30.0170   44.1440 S   0  0  0  0  0  0  0  0  0  0  0  0
   55.4040   29.1870   44.0890 O   0  0  0  0  0  0  0  0  0  0  0  0
   57.2150   30.1480   42.7550 O   0  0  0  0  0  0  0  0  0  0  0  0
   56.2710   31.5940   44.7560 N   0  0  0  0  0  0  0  0  0  0  0  0
   57.2320   32.6100   45.0750 C   0  0  0  0  0  0  0  0  0  0  0  0
   58.0810   33.1690   44.1030 C   0  0  0  0  0  0  0  0  0  0  0  0
   59.0130   34.1470   44.4600 C   0  0  0  0  0  0  0  0  0  0  0  0
   59.1150   34.5760   45.7930 C   0  0  0  0  0  0  0  0  0  0  0  0
   60.0870   35.6530   46.1720 C   0  0  0  0  0  0  0  0  0  0  0  0
   58.2490   34.0370   46.7560 C   0  0  0  0  0  0  0  0  0  0  0  0
   57.3180   33.0580   46.3980 C   0  0  0  0  0  0  0  0  0  0  0  0
   58.7350   29.9930   45.9500 C   0  0  0  0  0  0  0  0  0  0  0  0
   59.6380   29.3670   46.8320 C   0  0  0  0  0  0  0  0  0  0  0  0
   62.5598   31.8547   48.2514 H   0  0  0  0  0  0  0  0  0  0  0  0
   63.1570   31.1010   46.7341 H   0  0  0  0  0  0  0  0  0  0  0  0
   62.6176   32.8144   46.7341 H   0  0  0  0  0  0  0  0  0  0  0  0
   61.0740   31.1530   45.8140 H   0  0  0  0  0  0  0  0  0  0  0  0
   61.5883   29.5444   47.6867 H   0  0  0  0  0  0  0  0  0  0  0  0
   59.4845   28.9809   50.9336 H   0  0  0  0  0  0  0  0  0  0  0  0
   58.5188   28.7923   49.3975 H   0  0  0  0  0  0  0  0  0  0  0  0
   60.6880   26.3630   47.8730 H   0  0  0  0  0  0  0  0  0  0  0  0
   58.6086   26.1232   46.3838 H   0  0  0  0  0  0  0  0  0  0  0  0
   57.0800   27.2445   44.7696 H   0  0  0  0  0  0  0  0  0  0  0  0
   58.0110   32.8349   43.0573 H   0  0  0  0  0  0  0  0  0  0  0  0
   59.6700   34.5829   43.6929 H   0  0  0  0  0  0  0  0  0  0  0  0
   60.1491   35.7218   47.2681 H   0  0  0  0  0  0  0  0  0  0  0  0
   61.0793   35.4119   45.7630 H   0  0  0  0  0  0  0  0  0  0  0  0
   59.7458   36.6154   45.7630 H   0  0  0  0  0  0  0  0  0  0  0  0
   58.3029   34.3864   47.7976 H   0  0  0  0  0  0  0  0  0  0  0  0
   56.6479   32.6365   47.1618 H   0  0  0  0  0  0  0  0  0  0  0  0
   58.7571   31.0865   45.8326 H   0  0  0  0  0  0  0  0  0  0  0  0
  1  2  1  0
  2  3  1  0
  3  4  1  0
  4  5  1  0
  5  6  1  0
  6  7  2  0
  6  8  1  0
  8  9  1  0
  9 10  2  0
 10 11  1  0
 11 12  2  0
 12 13  1  0
 13 14  2  0
 13 15  2  0
 13 16  1  0
 16 17  1  0
 17 18  2  0
 18 19  1  0
 19 20  2  0
 20 21  1  0
 20 22  1  0
 22 23  2  0
 12 24  1  0
 24 25  2  0
 25  3  1  0
 25  9  1  0
 23 17  1  0
  1 26  1  0
  1 27  1  0
  1 28  1  0
  2 29  1  0
  3 30  1  1
  5 31  1  0
  5 32  1  0
  8 33  1  0
 10 34  1  0
 11 35  1  0
 18 36  1  0
 19 37  1  0
 21 38  1  0
 21 39  1  0
 21 40  1  0
 22 41  1  0
 23 42  1  0
 24 43  1  0
M  CHG  1  16  -1
M  END
>  <UniqueID>  (80) 
72

>  <SMILES>  (80) 
CN[C@H]1SCC(=O)Nc2ccc(S(=O)(=O)[N-]c3ccc(C)cc3)cc21

>  <Energy>  (80) 
55.827698531913015

>  <Genealogy>  (80) 
CNC1SCC(=O)Nc2ccc(S(=O)(=O)[N-]c3ccc(C)cc3)cc21 (protonated)
CN[C@H]1SCC(=O)Nc2ccc(S(=O)(=O)[N-]c3ccc(C)cc3)cc21 (chirality)
CN[C@H]1SCC(=O)Nc2ccc(S(=O)(=O)[N-]c3ccc(C)cc3)cc21 (3D coordinates assigned)
CN[C@H]1SCC(=O)Nc2ccc(S(=O)(=O)[N-]c3ccc(C)cc3)cc21 (nonaromatic ring conformer: 55.827698531913015 kcal/mol)

>  <smiles>  (80) 
CNC1SCC(=O)Nc2ccc(S(=O)(=O)Nc3ccc(C)cc3)cc21

>  <score_type>  (80) 
oracle

>  <origin>  (80) 
adg

>  <m_score__min__energy>  (80) 
-7.7800000000000002

>  <m_primary>  (80) 
energy

$$$$
80:0
     RDKit          3D

 44 45  0  0  0  0  0  0  0  0999 V2000
   55.8650   27.8630   45.5770 O   0  0  0  0  0  0  0  0  0  0  0  0
   55.8910   26.6770   46.0010 C   0  0  0  0  0  0  0  0  0  0  0  0
   54.7280   25.9160   45.9870 O   0  0  0  0  0  0  0  0  0  0  0  0
   57.1730   26.0760   46.4830 C   0  0  0  0  0  0  0  0  0  0  0  0
   58.0910   27.1310   46.9310 N   0  0  0  0  0  0  0  0  0  0  0  0
   59.5090   26.7670   46.7460 C   0  0  0  0  0  0  0  0  0  0  0  0
   60.2290   27.6350   45.6980 C   0  0  0  0  0  0  0  0  0  0  0  0
   59.2990   28.1770   44.6470 C   0  0  0  0  0  0  0  0  0  0  0  0
   58.7330   27.3670   43.8660 O   0  0  0  0  0  0  0  0  0  0  0  0
   59.0440   29.5760   44.4790 N   0  0  0  0  0  0  0  0  0  0  0  0
   57.9830   30.5550   45.4420 S   0  0  0  0  0  0  0  0  0  0  0  0
   56.6000   30.4750   44.8620 O   0  0  0  0  0  0  0  0  0  0  0  0
   57.9320   29.9940   46.8340 O   0  0  0  0  0  0  0  0  0  0  0  0
   58.5180   32.2460   45.5370 C   0  0  0  0  0  0  0  0  0  0  0  0
   57.7660   33.2100   44.8410 C   0  0  0  0  0  0  0  0  0  0  0  0
   58.1130   34.5590   44.8880 C   0  0  0  0  0  0  0  0  0  0  0  0
   59.2140   34.9720   45.6350 C   0  0  0  0  0  0  0  0  0  0  0  0
   59.9720   34.0350   46.3370 C   0  0  0  0  0  0  0  0  0  0  0  0
   59.6450   32.6650   46.3010 C   0  0  0  0  0  0  0  0  0  0  0  0
   60.5170   31.7050   47.0860 C   0  0  0  0  0  0  0  0  0  0  0  0
   61.6610   32.3990   47.7820 C   0  0  0  0  0  0  0  0  0  0  0  0
   61.5030   32.8670   49.0970 C   0  0  0  0  0  0  0  0  0  0  0  0
   62.5660   33.4900   49.7570 C   0  0  0  0  0  0  0  0  0  0  0  0
   63.8010   33.6320   49.1190 C   0  0  0  0  0  0  0  0  0  0  0  0
   63.9750   33.1430   47.8220 C   0  0  0  0  0  0  0  0  0  0  0  0
   62.9160   32.5200   47.1580 C   0  0  0  0  0  0  0  0  0  0  0  0
   56.9629   25.3967   47.3223 H   0  0  0  0  0  0  0  0  0  0  0  0
   57.6412   25.5196   45.6576 H   0  0  0  0  0  0  0  0  0  0  0  0
   57.8670   28.0210   46.4260 H   0  0  0  0  0  0  0  0  0  0  0  0
   60.0273   26.8812   47.7095 H   0  0  0  0  0  0  0  0  0  0  0  0
   59.5341   25.7292   46.3822 H   0  0  0  0  0  0  0  0  0  0  0  0
   60.7082   28.4810   46.2125 H   0  0  0  0  0  0  0  0  0  0  0  0
   60.9648   26.9951   45.1890 H   0  0  0  0  0  0  0  0  0  0  0  0
   56.8923   32.8948   44.2517 H   0  0  0  0  0  0  0  0  0  0  0  0
   57.5165   35.2989   44.3343 H   0  0  0  0  0  0  0  0  0  0  0  0
   59.4856   36.0373   45.6712 H   0  0  0  0  0  0  0  0  0  0  0  0
   60.8375   34.3704   46.9272 H   0  0  0  0  0  0  0  0  0  0  0  0
   59.8961   31.2033   47.8429 H   0  0  0  0  0  0  0  0  0  0  0  0
   60.9470   30.9859   46.3732 H   0  0  0  0  0  0  0  0  0  0  0  0
   60.5379   32.7426   49.6099 H   0  0  0  0  0  0  0  0  0  0  0  0
   62.4301   33.8692   50.7806 H   0  0  0  0  0  0  0  0  0  0  0  0
   64.6349   34.1280   49.6372 H   0  0  0  0  0  0  0  0  0  0  0  0
   64.9491   33.2490   47.3222 H   0  0  0  0  0  0  0  0  0  0  0  0
   63.0638   32.1224   46.1431 H   0  0  0  0  0  0  0  0  0  0  0  0
  1  2  2  0
  2  3  1  0
  2  4  1  0
  4  5  1  0
  5  6  1  0
  6  7  1  0
  7  8  1  0
  8  9  2  0
  8 10  1  0
 10 11  1  0
 11 12  2  0
 11 13  2  0
 11 14  1  0
 14 15  2  0
 15 16  1  0
 16 17  2  0
 17 18  1  0
 18 19  2  0
 19 20  1  0
 20 21  1  0
 21 22  2  0
 22 23  1  0
 23 24  2  0
 24 25  1  0
 25 26  2  0
 19 14  1  0
 26 21  1  0
  4 27  1  0
  4 28  1  0
  5 29  1  0
  6 30  1  0
  6 31  1  0
  7 32  1  0
  7 33  1  0
 15 34  1  0
 16 35  1  0
 17 36  1  0
 18 37  1  0
 20 38  1  0
 20 39  1  0
 22 40  1  0
 23 41  1  0
 24 42  1  0
 25 43  1  0
 26 44  1  0
M  CHG  2   3  -1  10  -1
M  END
>  <UniqueID>  (81) 
73

>  <SMILES>  (81) 
O=C([O-])CNCCC(=O)[N-]S(=O)(=O)c1ccccc1Cc1ccccc1

>  <Energy>  (81) 
48.14275258105721

>  <Genealogy>  (81) 
O=C([O-])CNCCC(=O)[N-]S(=O)(=O)c1ccccc1Cc1ccccc1 (protonated)
O=C([O-])CNCCC(=O)[N-]S(=O)(=O)c1ccccc1Cc1ccccc1 (3D coordinates assigned)
O=C([O-])CNCCC(=O)[N-]S(=O)(=O)c1ccccc1Cc1ccccc1 (optimized conformer: 48.14275258105721 kcal/mol)

>  <smiles>  (81) 
O=C(O)CNCCC(=O)NS(=O)(=O)c1ccccc1Cc1ccccc1

>  <score_type>  (81) 
oracle

>  <origin>  (81) 
adg

>  <m_score__min__energy>  (81) 
-13.529999999999999

>  <m_primary>  (81) 
energy

$$$$
81:0
     RDKit          3D

 43 45  0  0  0  0  0  0  0  0999 V2000
   54.4460   29.2780   52.2690 O   0  0  0  0  0  0  0  0  0  0  0  0
   54.3610   30.4990   51.9620 C   0  0  0  0  0  0  0  0  0  0  0  0
   55.5550   31.2560   51.7050 N   0  0  0  0  0  0  0  0  0  0  0  0
   56.8890   30.6590   51.7410 C   0  0  0  0  0  0  0  0  0  0  0  0
   57.9510   31.7390   51.7170 C   0  0  0  0  0  0  0  0  0  0  0  0
   57.7420   32.8610   52.5400 C   0  0  0  0  0  0  0  0  0  0  0  0
   58.6740   33.8970   52.5910 C   0  0  0  0  0  0  0  0  0  0  0  0
   59.8320   33.8310   51.8220 C   0  0  0  0  0  0  0  0  0  0  0  0
   60.0640   32.7280   51.0000 C   0  0  0  0  0  0  0  0  0  0  0  0
   59.1370   31.6710   50.9280 C   0  0  0  0  0  0  0  0  0  0  0  0
   59.4930   30.4900   50.0490 C   0  0  0  0  0  0  0  0  0  0  0  0
   59.1560   30.7290   48.5710 C   0  0  0  0  0  0  0  0  0  0  0  0
   58.3800   31.9580   48.3850 N   0  0  0  0  0  0  0  0  0  0  0  0
   58.4650   32.8300   47.4180 C   0  0  0  0  0  0  0  0  0  0  0  0
   59.3330   33.9410   47.4610 C   0  0  0  0  0  0  0  0  0  0  0  0
   59.3870   34.8140   46.3730 C   0  0  0  0  0  0  0  0  0  0  0  0
   58.5770   34.5900   45.2600 C   0  0  0  0  0  0  0  0  0  0  0  0
   57.7180   33.4920   45.2520 C   0  0  0  0  0  0  0  0  0  0  0  0
   57.6830   32.6480   46.3180 N   0  0  0  0  0  0  0  0  0  0  0  0
   53.0310   31.1390   51.8670 C   0  0  0  0  0  0  0  0  0  0  0  0
   52.1900   31.2310   52.9870 C   0  0  0  0  0  0  0  0  0  0  0  0
   50.9440   31.8440   52.8390 C   0  0  0  0  0  0  0  0  0  0  0  0
   50.1660   31.9440   53.8240 O   0  0  0  0  0  0  0  0  0  0  0  0
   50.5670   32.3330   51.6290 N   0  0  0  0  0  0  0  0  0  0  0  0
   51.3900   32.2370   50.5540 C   0  0  0  0  0  0  0  0  0  0  0  0
   51.0250   32.6960   49.4410 O   0  0  0  0  0  0  0  0  0  0  0  0
   52.6060   31.6440   50.6770 N   0  0  0  0  0  0  0  0  0  0  0  0
   55.4830   32.2740   51.4840 H   0  0  0  0  0  0  0  0  0  0  0  0
   56.9960   30.0657   52.6611 H   0  0  0  0  0  0  0  0  0  0  0  0
   57.0155   30.0141   50.8589 H   0  0  0  0  0  0  0  0  0  0  0  0
   56.8301   32.9218   53.1521 H   0  0  0  0  0  0  0  0  0  0  0  0
   58.4937   34.7670   53.2395 H   0  0  0  0  0  0  0  0  0  0  0  0
   60.5655   34.6498   51.8624 H   0  0  0  0  0  0  0  0  0  0  0  0
   60.9845   32.6836   50.3995 H   0  0  0  0  0  0  0  0  0  0  0  0
   60.5726   30.2984   50.1373 H   0  0  0  0  0  0  0  0  0  0  0  0
   58.8980   29.6302   50.3907 H   0  0  0  0  0  0  0  0  0  0  0  0
   60.0928   30.8088   48.0000 H   0  0  0  0  0  0  0  0  0  0  0  0
   58.5494   29.8829   48.2160 H   0  0  0  0  0  0  0  0  0  0  0  0
   59.9627   34.1182   48.3453 H   0  0  0  0  0  0  0  0  0  0  0  0
   60.0678   35.6778   46.3935 H   0  0  0  0  0  0  0  0  0  0  0  0
   58.6155   35.2722   44.3979 H   0  0  0  0  0  0  0  0  0  0  0  0
   57.0685   33.3082   44.3835 H   0  0  0  0  0  0  0  0  0  0  0  0
   52.5058   30.8287   53.9609 H   0  0  0  0  0  0  0  0  0  0  0  0
  1  2  2  0
  2  3  1  0
  3  4  1  0
  4  5  1  0
  5  6  2  0
  6  7  1  0
  7  8  2  0
  8  9  1  0
  9 10  2  0
 10 11  1  0
 11 12  1  0
 12 13  1  0
 13 14  2  3
 14 15  1  0
 15 16  2  0
 16 17  1  0
 17 18  2  0
 18 19  1  0
  2 20  1  0
 20 21  2  0
 21 22  1  0
 22 23  2  0
 22 24  1  0
 24 25  1  0
 25 26  2  0
 25 27  1  0
 10  5  1  0
 19 14  1  0
 27 20  1  0
  3 28  1  0
  4 29  1  0
  4 30  1  0
  6 31  1  0
  7 32  1  0
  8 33  1  0
  9 34  1  0
 11 35  1  0
 11 36  1  0
 12 37  1  0
 12 38  1  0
 15 39  1  0
 16 40  1  0
 17 41  1  0
 18 42  1  0
 21 43  1  0
M  CHG  3  19  -1  24  -1  27  -1
M  END
>  <UniqueID>  (82) 
74

>  <SMILES>  (82) 
O=C(NCc1ccccc1CCN=c1cccc[n-]1)c1cc(=O)[n-]c(=O)[n-]1

>  <Energy>  (82) 
48.386513026179614

>  <Genealogy>  (82) 
O=C(NCc1ccccc1CCN=c1cccc[n-]1)c1cc(=O)[n-]c(=O)[n-]1 (protonated)
O=C(NCc1ccccc1CCN=c1cccc[n-]1)c1cc(=O)[n-]c(=O)[n-]1 (3D coordinates assigned)
O=C(NCc1ccccc1CCN=c1cccc[n-]1)c1cc(=O)[n-]c(=O)[n-]1 (optimized conformer: 48.386513026179614 kcal/mol)

>  <smiles>  (82) 
O=C(NCc1ccccc1CCN=c1cccc[nH]1)c1cc(=O)[nH]c(=O)[nH]1

>  <score_type>  (82) 
oracle

>  <origin>  (82) 
adg

>  <m_score__min__energy>  (82) 
-14.539999999999999

>  <m_primary>  (82) 
energy

$$$$
82:0
     RDKit          3D

 51 54  0  0  0  0  0  0  0  0999 V2000
   58.6010   32.2350   49.4630 C   0  0  0  0  0  0  0  0  0  0  0  0
   59.3670   33.1770   50.2950 N   0  0  0  0  0  0  0  0  0  0  0  0
   60.1510   34.0710   49.4230 C   0  0  0  0  0  0  0  0  0  0  0  0
   60.2460   32.4410   51.2300 C   0  0  0  0  0  0  0  0  0  0  0  0
   60.7900   31.1720   50.5670 C   0  0  0  0  0  0  0  0  0  0  0  0
   60.2190   29.6750   51.4490 S   0  0  0  0  0  0  0  0  0  0  0  0
   60.0910   28.6520   49.9780 C   0  0  0  0  0  0  0  0  0  0  0  0
   60.8900   27.5100   49.8450 C   0  0  0  0  0  0  0  0  0  0  0  0
   60.7850   26.7130   48.7030 C   0  0  0  0  0  0  0  0  0  0  0  0
   59.8770   27.0470   47.6950 C   0  0  0  0  0  0  0  0  0  0  0  0
   59.0530   28.1780   47.8280 C   0  0  0  0  0  0  0  0  0  0  0  0
   58.0890   28.5420   46.7660 C   0  0  0  0  0  0  0  0  0  0  0  0
   57.9880   29.7130   46.1320 C   0  0  0  0  0  0  0  0  0  0  0  0
   58.9050   30.8640   46.2500 C   0  0  0  0  0  0  0  0  0  0  0  0
   60.2100   30.8360   46.7350 C   0  0  0  0  0  0  0  0  0  0  0  0
   60.7550   32.0730   46.6800 N   0  0  0  0  0  0  0  0  0  0  0  0
   62.0920   32.4480   47.1300 C   0  0  0  0  0  0  0  0  0  0  0  0
   59.8060   32.8870   46.1760 C   0  0  0  0  0  0  0  0  0  0  0  0
   59.8850   34.2660   45.9610 C   0  0  0  0  0  0  0  0  0  0  0  0
   58.7480   34.9190   45.4520 C   0  0  0  0  0  0  0  0  0  0  0  0
   57.5670   34.1950   45.1820 C   0  0  0  0  0  0  0  0  0  0  0  0
   57.5130   32.8080   45.4110 C   0  0  0  0  0  0  0  0  0  0  0  0
   58.6610   32.1800   45.8980 C   0  0  0  0  0  0  0  0  0  0  0  0
   56.8790   29.6000   45.1820 C   0  0  0  0  0  0  0  0  0  0  0  0
   56.5350   30.4920   44.3640 O   0  0  0  0  0  0  0  0  0  0  0  0
   56.2580   28.3230   45.2400 N   0  0  0  0  0  0  0  0  0  0  0  0
   57.0340   27.6730   46.2390 C   0  0  0  0  0  0  0  0  0  0  0  0
   56.8050   26.4970   46.6280 O   0  0  0  0  0  0  0  0  0  0  0  0
   59.1700   28.9800   48.9760 C   0  0  0  0  0  0  0  0  0  0  0  0
   58.0403   31.5455   50.1112 H   0  0  0  0  0  0  0  0  0  0  0  0
   57.8983   32.7944   48.8280 H   0  0  0  0  0  0  0  0  0  0  0  0
   59.2919   31.6611   48.8280 H   0  0  0  0  0  0  0  0  0  0  0  0
   60.7503   34.7544   50.0425 H   0  0  0  0  0  0  0  0  0  0  0  0
   60.8190   33.4706   48.7880 H   0  0  0  0  0  0  0  0  0  0  0  0
   59.4685   34.6549   48.7880 H   0  0  0  0  0  0  0  0  0  0  0  0
   61.0875   33.0871   51.5205 H   0  0  0  0  0  0  0  0  0  0  0  0
   59.6626   32.1567   52.1182 H   0  0  0  0  0  0  0  0  0  0  0  0
   60.4389   31.1316   49.5253 H   0  0  0  0  0  0  0  0  0  0  0  0
   61.8890   31.2017   50.6025 H   0  0  0  0  0  0  0  0  0  0  0  0
   61.6006   27.2405   50.6402 H   0  0  0  0  0  0  0  0  0  0  0  0
   61.4187   25.8202   48.5969 H   0  0  0  0  0  0  0  0  0  0  0  0
   59.8066   26.4217   46.7927 H   0  0  0  0  0  0  0  0  0  0  0  0
   60.7235   29.9379   47.1088 H   0  0  0  0  0  0  0  0  0  0  0  0
   62.1200   32.4559   48.2296 H   0  0  0  0  0  0  0  0  0  0  0  0
   62.8243   31.7206   46.7498 H   0  0  0  0  0  0  0  0  0  0  0  0
   62.3392   33.4501   46.7498 H   0  0  0  0  0  0  0  0  0  0  0  0
   60.8073   34.8229   46.1829 H   0  0  0  0  0  0  0  0  0  0  0  0
   58.7795   36.0022   45.2629 H   0  0  0  0  0  0  0  0  0  0  0  0
   56.6828   34.7188   44.7898 H   0  0  0  0  0  0  0  0  0  0  0  0
   56.5947   32.2359   45.2125 H   0  0  0  0  0  0  0  0  0  0  0  0
   58.5342   29.8707   49.0879 H   0  0  0  0  0  0  0  0  0  0  0  0
  1  2  1  0
  2  3  1  0
  2  4  1  0
  4  5  1  0
  5  6  1  0
  6  7  1  0
  7  8  2  0
  8  9  1  0
  9 10  2  0
 10 11  1  0
 11 12  1  0
 12 13  2  0
 13 14  1  0
 14 15  2  0
 15 16  1  0
 16 17  1  0
 16 18  1  0
 18 19  2  0
 19 20  1  0
 20 21  2  0
 21 22  1  0
 22 23  2  0
 13 24  1  0
 24 25  2  0
 24 26  1  0
 26 27  1  0
 27 28  2  0
 11 29  2  0
 29  7  1  0
 27 12  1  0
 23 14  1  0
 23 18  1  0
  1 30  1  0
  1 31  1  0
  1 32  1  0
  3 33  1  0
  3 34  1  0
  3 35  1  0
  4 36  1  0
  4 37  1  0
  5 38  1  0
  5 39  1  0
  8 40  1  0
  9 41  1  0
 10 42  1  0
 15 43  1  0
 17 44  1  0
 17 45  1  0
 17 46  1  0
 19 47  1  0
 20 48  1  0
 21 49  1  0
 22 50  1  0
 29 51  1  0
M  CHG  1  26  -1
M  END
>  <UniqueID>  (83) 
75

>  <SMILES>  (83) 
CN(C)CCSc1cccc(C2=C(c3cn(C)c4ccccc34)C(=O)[N-]C2=O)c1

>  <Energy>  (83) 
116.22511650761923

>  <Genealogy>  (83) 
CN(C)CCSc1cccc(C2=C(c3cn(C)c4ccccc34)C(=O)[N-]C2=O)c1 (protonated)
CN(C)CCSc1cccc(C2=C(c3cn(C)c4ccccc34)C(=O)[N-]C2=O)c1 (3D coordinates assigned)
CN(C)CCSc1cccc(C2=C(c3cn(C)c4ccccc34)C(=O)[N-]C2=O)c1 (nonaromatic ring conformer: 116.22511650761923 kcal/mol)

>  <smiles>  (83) 
CN(C)CCSc1cccc(C2=C(c3cn(C)c4ccccc34)C(=O)NC2=O)c1

>  <score_type>  (83) 
oracle

>  <origin>  (83) 
adg

>  <m_score__min__energy>  (83) 
-9.9600000000000009

>  <m_primary>  (83) 
energy

$$$$
83:0
     RDKit          3D

 86 90  0  0  0  0  0  0  0  0999 V2000
   65.3472   34.7801   52.1516 H   0  0  0  0  0  0  0  0  0  0  0  0
   64.6640   34.2010   51.5130 C   0  0  0  0  0  0  0  0  0  0  0  0
   63.3200   34.2360   51.5710 N   0  0  0  0  0  0  0  0  0  0  0  0
   62.8150   33.3850   50.6830 N   0  0  0  0  0  0  0  0  0  0  0  0
   61.3850   33.4380   50.3410 C   0  0  0  0  0  0  0  0  0  0  0  0
   61.1821   32.6530   49.5976 H   0  0  0  0  0  0  0  0  0  0  0  0
   61.1954   34.4539   49.9643 H   0  0  0  0  0  0  0  0  0  0  0  0
   60.4370   33.2340   51.5150 C   0  0  0  0  0  0  0  0  0  0  0  0
   59.2570   34.0050   51.5190 C   0  0  0  0  0  0  0  0  0  0  0  0
   59.0746   34.7143   50.6982 H   0  0  0  0  0  0  0  0  0  0  0  0
   58.3180   33.8880   52.5390 C   0  0  0  0  0  0  0  0  0  0  0  0
   57.3772   34.4558   52.4891 H   0  0  0  0  0  0  0  0  0  0  0  0
   58.5700   33.0530   53.6210 C   0  0  0  0  0  0  0  0  0  0  0  0
   57.8171   32.9387   54.4148 H   0  0  0  0  0  0  0  0  0  0  0  0
   59.7760   32.3610   53.7000 C   0  0  0  0  0  0  0  0  0  0  0  0
   59.9852   31.7393   54.5830 H   0  0  0  0  0  0  0  0  0  0  0  0
   60.7340   32.4430   52.6680 C   0  0  0  0  0  0  0  0  0  0  0  0
   62.1060   31.8530   52.9300 C   0  0  0  0  0  0  0  0  0  0  0  0
   62.1804   31.5888   53.9952 H   0  0  0  0  0  0  0  0  0  0  0  0
   62.8566   32.6072   52.6510 H   0  0  0  0  0  0  0  0  0  0  0  0
   62.3570   30.6440   52.1220 N   0  0  0  0  0  0  0  0  0  0  0  0
   61.3040   29.6660   51.9710 C   0  0  0  0  0  0  0  0  0  0  0  0
   61.0990   28.8210   52.8820 O   0  0  0  0  0  0  0  0  0  0  0  0
   60.4610   29.6400   50.7620 C   0  0  0  0  0  0  0  0  0  0  0  0
   61.0250   29.3370   49.2110 S   0  0  0  0  0  0  0  0  0  0  0  0
   59.5370   29.4140   48.4240 C   0  0  0  0  0  0  0  0  0  0  0  0
   59.3130   29.1580   46.9770 C   0  0  0  0  0  0  0  0  0  0  0  0
   60.2930   28.4910   46.2150 C   0  0  0  0  0  0  0  0  0  0  0  0
   61.2320   28.1743   46.6924 H   0  0  0  0  0  0  0  0  0  0  0  0
   60.0830   28.2280   44.8580 C   0  0  0  0  0  0  0  0  0  0  0  0
   60.8567   27.7085   44.2736 H   0  0  0  0  0  0  0  0  0  0  0  0
   58.8940   28.6230   44.2430 C   0  0  0  0  0  0  0  0  0  0  0  0
   58.7289   28.4102   43.1765 H   0  0  0  0  0  0  0  0  0  0  0  0
   57.9150   29.2880   44.9820 C   0  0  0  0  0  0  0  0  0  0  0  0
   56.9784   29.5994   44.4964 H   0  0  0  0  0  0  0  0  0  0  0  0
   58.1210   29.5600   46.3390 C   0  0  0  0  0  0  0  0  0  0  0  0
   57.3474   30.0914   46.9127 H   0  0  0  0  0  0  0  0  0  0  0  0
   58.5660   29.7030   49.3860 C   0  0  0  0  0  0  0  0  0  0  0  0
   57.4990   29.8204   49.1459 H   0  0  0  0  0  0  0  0  0  0  0  0
   59.0780   29.8300   50.6890 C   0  0  0  0  0  0  0  0  0  0  0  0
   58.2010   30.1030   51.8750 C   0  0  0  0  0  0  0  0  0  0  0  0
   58.7695   29.9260   52.7999 H   0  0  0  0  0  0  0  0  0  0  0  0
   57.8621   31.1491   51.8474 H   0  0  0  0  0  0  0  0  0  0  0  0
   57.3282   29.4340   51.8474 H   0  0  0  0  0  0  0  0  0  0  0  0
   63.7450   30.2280   51.8430 C   0  0  0  0  0  0  0  0  0  0  0  0
   63.7790   29.7577   50.8492 H   0  0  0  0  0  0  0  0  0  0  0  0
   64.3780   31.1265   51.8879 H   0  0  0  0  0  0  0  0  0  0  0  0
   64.2840   29.2220   52.8860 C   0  0  0  0  0  0  0  0  0  0  0  0
   65.3315   29.4734   53.1085 H   0  0  0  0  0  0  0  0  0  0  0  0
   63.6480   29.2984   53.7802 H   0  0  0  0  0  0  0  0  0  0  0  0
   64.2210   27.7590   52.3930 C   0  0  0  0  0  0  0  0  0  0  0  0
   64.1100   27.7616   51.2986 H   0  0  0  0  0  0  0  0  0  0  0  0
   65.1511   27.2635   52.7083 H   0  0  0  0  0  0  0  0  0  0  0  0
   63.0920   27.0020   52.9810 N   0  0  0  0  0  0  0  0  0  0  0  0
   62.3180   27.6690   53.2180 H   0  0  0  0  0  0  0  0  0  0  0  0
   62.5700   26.0420   51.9910 C   0  0  0  0  0  0  0  0  0  0  0  0
   62.1076   25.1916   52.5134 H   0  0  0  0  0  0  0  0  0  0  0  0
   61.8175   26.5382   51.3605 H   0  0  0  0  0  0  0  0  0  0  0  0
   63.3955   25.6801   51.3605 H   0  0  0  0  0  0  0  0  0  0  0  0
   63.4890   26.2850   54.2090 C   0  0  0  0  0  0  0  0  0  0  0  0
   63.1697   26.8616   55.0897 H   0  0  0  0  0  0  0  0  0  0  0  0
   63.0108   25.2945   54.2261 H   0  0  0  0  0  0  0  0  0  0  0  0
   64.5823   26.1647   54.2261 H   0  0  0  0  0  0  0  0  0  0  0  0
   63.8650   32.8310   50.0090 C   0  0  0  0  0  0  0  0  0  0  0  0
   63.8320   32.0320   48.9790 N   0  0  0  0  0  0  0  0  0  0  0  0
   63.4060   32.3000   47.6490 C   0  0  0  0  0  0  0  0  0  0  0  0
   64.0350   33.1510   46.9620 O   0  0  0  0  0  0  0  0  0  0  0  0
   62.1130   31.7060   47.1600 C   0  0  0  0  0  0  0  0  0  0  0  0
   62.2710   31.3071   46.1471 H   0  0  0  0  0  0  0  0  0  0  0  0
   61.8228   30.9176   47.8701 H   0  0  0  0  0  0  0  0  0  0  0  0
   60.9850   32.7100   47.1120 C   0  0  0  0  0  0  0  0  0  0  0  0
   59.7830   32.4690   47.8000 C   0  0  0  0  0  0  0  0  0  0  0  0
   59.6606   31.5437   48.3821 H   0  0  0  0  0  0  0  0  0  0  0  0
   58.7430   33.4010   47.7470 C   0  0  0  0  0  0  0  0  0  0  0  0
   57.8042   33.2076   48.2867 H   0  0  0  0  0  0  0  0  0  0  0  0
   58.8940   34.5790   47.0090 C   0  0  0  0  0  0  0  0  0  0  0  0
   58.0727   35.3095   46.9654 H   0  0  0  0  0  0  0  0  0  0  0  0
   60.0890   34.8290   46.3260 C   0  0  0  0  0  0  0  0  0  0  0  0
   60.2071   35.7559   45.7456 H   0  0  0  0  0  0  0  0  0  0  0  0
   61.1330   33.9010   46.3810 C   0  0  0  0  0  0  0  0  0  0  0  0
   62.0746   34.1040   45.8497 H   0  0  0  0  0  0  0  0  0  0  0  0
   65.0440   33.3230   50.5250 C   0  0  0  0  0  0  0  0  0  0  0  0
   66.4360   33.0140   50.0790 C   0  0  0  0  0  0  0  0  0  0  0  0
   67.0799   32.8711   50.9593 H   0  0  0  0  0  0  0  0  0  0  0  0
   66.4319   32.0949   49.4746 H   0  0  0  0  0  0  0  0  0  0  0  0
   66.8211   33.8485   49.4746 H   0  0  0  0  0  0  0  0  0  0  0  0
  1  2  1  0
  2  3  1  0
  3  4  1  0
  4  5  1  0
  5  6  1  0
  5  7  1  0
  5  8  1  0
  8  9  2  0
  9 10  1  0
  9 11  1  0
 11 12  1  0
 11 13  2  0
 13 14  1  0
 13 15  1  0
 15 16  1  0
 15 17  2  0
 17 18  1  0
 18 19  1  0
 18 20  1  0
 18 21  1  0
 21 22  1  0
 22 23  2  0
 22 24  1  0
 24 25  1  0
 25 26  1  0
 26 27  1  0
 27 28  2  0
 28 29  1  0
 28 30  1  0
 30 31  1  0
 30 32  2  0
 32 33  1  0
 32 34  1  0
 34 35  1  0
 34 36  2  0
 36 37  1  0
 26 38  2  0
 38 39  1  0
 38 40  1  0
 40 41  1  0
 41 42  1  0
 41 43  1  0
 41 44  1  0
 21 45  1  0
 45 46  1  0
 45 47  1  0
 45 48  1  0
 48 49  1  0
 48 50  1  0
 48 51  1  0
 51 52  1  0
 51 53  1  0
 51 54  1  0
 54 55  1  0
 54 56  1  0
 56 57  1  0
 56 58  1  0
 56 59  1  0
 54 60  1  0
 60 61  1  0
 60 62  1  0
 60 63  1  0
  4 64  1  0
 64 65  2  0
 65 66  1  0
 66 67  2  0
 66 68  1  0
 68 69  1  0
 68 70  1  0
 68 71  1  0
 71 72  2  0
 72 73  1  0
 72 74  1  0
 74 75  1  0
 74 76  2  0
 76 77  1  0
 76 78  1  0
 78 79  1  0
 78 80  2  0
 80 81  1  0
 64 82  1  0
 82 83  1  0
 83 84  1  0
 83 85  1  0
 83 86  1  0
 82  2  2  0
 17  8  1  0
 40 24  2  0
 80 71  1  0
 36 27  1  0
M  CHG  2   3  -1  54   1
M  END
>  <UniqueID>  (84) 
76

>  <SMILES>  (84) 
Cc1cc(-c2ccccc2)sc1C(=O)N(CCC[NH+](C)C)Cc1ccccc1Cn1[n-]cc(C)/c1=N/C(=O)Cc1ccccc1

>  <Energy>  (84) 
173.51403270052327

>  <Genealogy>  (84) 
Cc1cc(-c2ccccc2)sc1C(=O)N(CCC[NH+](C)C)Cc1ccccc1Cn1[n-]cc(C)c1=NC(=O)Cc1ccccc1 (protonated)
Cc1cc(-c2ccccc2)sc1C(=O)N(CCC[NH+](C)C)Cc1ccccc1Cn1[n-]cc(C)/c1=N/C(=O)Cc1ccccc1 (cis-trans isomerization)
Cc1cc(-c2ccccc2)sc1C(=O)N(CCC[NH+](C)C)Cc1ccccc1Cn1[n-]cc(C)/c1=N/C(=O)Cc1ccccc1 (3D coordinates assigned)
Cc1cc(-c2ccccc2)sc1C(=O)N(CCC[NH+](C)C)Cc1ccccc1Cn1[n-]cc(C)/c1=N/C(=O)Cc1ccccc1 (optimized conformer: 173.51403270052327 kcal/mol)

>  <smiles>  (84) 
Cc1cc(-c2ccccc2)sc1C(=O)N(CCCN(C)C)Cc1ccccc1Cn1[nH]cc(C)c1=NC(=O)Cc1ccccc1

>  <score_type>  (84) 
oracle

>  <origin>  (84) 
adg

>  <m_score__min__energy>  (84) 
-9.5199999999999996

>  <m_primary>  (84) 
energy

$$$$
84:0
     RDKit          3D

 67 71  0  0  0  0  0  0  0  0999 V2000
   56.5230   29.7610   42.6190 C   0  0  0  0  0  0  0  0  0  0  0  0
   56.4690   29.8710   44.3950 S   0  0  0  0  0  0  0  0  0  0  0  0
   57.5790   29.0370   44.9700 O   0  0  0  0  0  0  0  0  0  0  0  0
   55.1570   29.3350   44.8980 O   0  0  0  0  0  0  0  0  0  0  0  0
   56.6840   31.5150   44.9080 N   0  0  0  0  0  0  0  0  0  0  0  0
   57.7470   32.3730   44.4780 C   0  0  0  0  0  0  0  0  0  0  0  0
   58.0050   32.4580   43.2480 O   0  0  0  0  0  0  0  0  0  0  0  0
   58.5490   33.1560   45.4340 C   0  0  0  0  0  0  0  0  0  0  0  0
   58.6700   34.5420   45.2600 C   0  0  0  0  0  0  0  0  0  0  0  0
   59.4040   35.3020   46.1710 C   0  0  0  0  0  0  0  0  0  0  0  0
   60.0390   34.6820   47.2490 C   0  0  0  0  0  0  0  0  0  0  0  0
   59.9440   33.2990   47.4170 C   0  0  0  0  0  0  0  0  0  0  0  0
   59.2090   32.5260   46.5070 C   0  0  0  0  0  0  0  0  0  0  0  0
   59.0320   31.1270   46.7340 N   0  0  0  0  0  0  0  0  0  0  0  0
   60.2910   30.0980   47.3280 S   0  0  0  0  0  0  0  0  0  0  0  0
   61.6180   30.7710   47.1190 O   0  0  0  0  0  0  0  0  0  0  0  0
   60.2780   28.8180   46.5410 O   0  0  0  0  0  0  0  0  0  0  0  0
   60.0930   29.7260   49.0390 C   0  0  0  0  0  0  0  0  0  0  0  0
   58.8670   29.9410   49.6810 C   0  0  0  0  0  0  0  0  0  0  0  0
   58.6940   29.5540   51.0140 C   0  0  0  0  0  0  0  0  0  0  0  0
   59.7430   28.9520   51.7180 C   0  0  0  0  0  0  0  0  0  0  0  0
   59.4890   28.4520   53.0390 N   0  0  0  0  0  0  0  0  0  0  0  0
   58.8250   29.1610   54.0900 C   0  0  0  0  0  0  0  0  0  0  0  0
   57.9830   28.5580   54.8030 O   0  0  0  0  0  0  0  0  0  0  0  0
   59.0870   30.5460   54.3430 N   0  0  0  0  0  0  0  0  0  0  0  0
   58.9950   31.6070   53.3850 C   0  0  0  0  0  0  0  0  0  0  0  0
   57.7540   32.1110   52.9560 C   0  0  0  0  0  0  0  0  0  0  0  0
   57.7010   33.1970   52.0780 C   0  0  0  0  0  0  0  0  0  0  0  0
   58.8800   33.7890   51.6240 C   0  0  0  0  0  0  0  0  0  0  0  0
   60.1260   33.2940   52.0320 C   0  0  0  0  0  0  0  0  0  0  0  0
   61.3130   33.9440   51.5440 N   0  0  0  0  0  0  0  0  0  0  0  0
   62.2200   33.4370   50.7610 C   0  0  0  0  0  0  0  0  0  0  0  0
   63.0860   32.4850   51.2070 N   0  0  0  0  0  0  0  0  0  0  0  0
   64.0060   31.9040   50.3890 C   0  0  0  0  0  0  0  0  0  0  0  0
   64.9330   30.8840   50.9560 C   0  0  0  0  0  0  0  0  0  0  0  0
   66.3250   31.0520   50.8330 C   0  0  0  0  0  0  0  0  0  0  0  0
   67.2010   30.0840   51.3290 C   0  0  0  0  0  0  0  0  0  0  0  0
   66.6850   28.9490   51.9510 C   0  0  0  0  0  0  0  0  0  0  0  0
   65.3400   28.7860   52.0610 N   0  0  0  0  0  0  0  0  0  0  0  0
   64.4640   29.7100   51.5840 C   0  0  0  0  0  0  0  0  0  0  0  0
   64.0340   32.2840   49.0360 C   0  0  0  0  0  0  0  0  0  0  0  0
   63.1430   33.2610   48.5940 C   0  0  0  0  0  0  0  0  0  0  0  0
   62.2570   33.8160   49.4590 N   0  0  0  0  0  0  0  0  0  0  0  0
   60.1750   32.2180   52.9390 C   0  0  0  0  0  0  0  0  0  0  0  0
   60.9820   28.7610   51.0810 C   0  0  0  0  0  0  0  0  0  0  0  0
   61.1540   29.1540   49.7510 C   0  0  0  0  0  0  0  0  0  0  0  0
   56.9900   28.8096   42.3246 H   0  0  0  0  0  0  0  0  0  0  0  0
   55.4999   29.8070   42.2175 H   0  0  0  0  0  0  0  0  0  0  0  0
   57.1124   30.5985   42.2175 H   0  0  0  0  0  0  0  0  0  0  0  0
   58.1848   35.0315   44.4027 H   0  0  0  0  0  0  0  0  0  0  0  0
   59.4826   36.3913   46.0399 H   0  0  0  0  0  0  0  0  0  0  0  0
   60.6151   35.2840   47.9671 H   0  0  0  0  0  0  0  0  0  0  0  0
   60.4476   32.8143   48.2663 H   0  0  0  0  0  0  0  0  0  0  0  0
   58.0379   30.4155   49.1355 H   0  0  0  0  0  0  0  0  0  0  0  0
   57.7279   29.7238   51.5118 H   0  0  0  0  0  0  0  0  0  0  0  0
   56.8218   31.6487   53.3128 H   0  0  0  0  0  0  0  0  0  0  0  0
   56.7277   33.5859   51.7442 H   0  0  0  0  0  0  0  0  0  0  0  0
   58.8312   34.6501   50.9412 H   0  0  0  0  0  0  0  0  0  0  0  0
   66.7256   31.9517   50.3430 H   0  0  0  0  0  0  0  0  0  0  0  0
   68.2885   30.2164   51.2295 H   0  0  0  0  0  0  0  0  0  0  0  0
   67.3662   28.1847   52.3531 H   0  0  0  0  0  0  0  0  0  0  0  0
   63.3820   29.5415   51.6882 H   0  0  0  0  0  0  0  0  0  0  0  0
   64.7461   31.8189   48.3384 H   0  0  0  0  0  0  0  0  0  0  0  0
   63.1583   33.5825   47.5421 H   0  0  0  0  0  0  0  0  0  0  0  0
   61.1479   31.8537   53.3007 H   0  0  0  0  0  0  0  0  0  0  0  0
   61.8170   28.3016   51.6303 H   0  0  0  0  0  0  0  0  0  0  0  0
   62.1286   29.0131   49.2608 H   0  0  0  0  0  0  0  0  0  0  0  0
  1  2  1  0
  2  3  2  0
  2  4  2  0
  2  5  1  0
  5  6  1  0
  6  7  2  0
  6  8  1  0
  8  9  2  0
  9 10  1  0
 10 11  2  0
 11 12  1  0
 12 13  2  0
 13 14  1  0
 14 15  1  0
 15 16  2  0
 15 17  2  0
 15 18  1  0
 18 19  2  0
 19 20  1  0
 20 21  2  0
 21 22  1  0
 22 23  1  0
 23 24  2  0
 23 25  1  0
 25 26  1  0
 26 27  2  0
 27 28  1  0
 28 29  2  0
 29 30  1  0
 30 31  1  0
 31 32  2  3
 32 33  1  0
 33 34  2  0
 34 35  1  0
 35 36  2  0
 36 37  1  0
 37 38  2  0
 38 39  1  0
 39 40  2  0
 34 41  1  0
 41 42  2  0
 42 43  1  0
 30 44  2  0
 21 45  1  0
 45 46  2  0
 13  8  1  0
 46 18  1  0
 44 26  1  0
 43 32  1  0
 40 35  1  0
  1 47  1  0
  1 48  1  0
  1 49  1  0
  9 50  1  0
 10 51  1  0
 11 52  1  0
 12 53  1  0
 19 54  1  0
 20 55  1  0
 27 56  1  0
 28 57  1  0
 29 58  1  0
 36 59  1  0
 37 60  1  0
 38 61  1  0
 40 62  1  0
 41 63  1  0
 42 64  1  0
 44 65  1  0
 45 66  1  0
 46 67  1  0
M  CHG  5   5  -1  14  -1  22  -1  25  -1  43  -1
M  END
>  <UniqueID>  (85) 
77

>  <SMILES>  (85) 
CS(=O)(=O)[N-]C(=O)c1ccccc1[N-]S(=O)(=O)c1ccc([N-]C(=O)[N-]c2cccc(N=c3nc(-c4cccnc4)cc[n-]3)c2)cc1

>  <Energy>  (85) 
99.5824691394564

>  <Genealogy>  (85) 
CS(=O)(=O)[N-]C(=O)c1ccccc1[N-]S(=O)(=O)c1ccc([N-]C(=O)[N-]c2cccc(N=c3nc(-c4cccnc4)cc[n-]3)c2)cc1 (protonated)
CS(=O)(=O)[N-]C(=O)c1ccccc1[N-]S(=O)(=O)c1ccc([N-]C(=O)[N-]c2cccc(N=c3nc(-c4cccnc4)cc[n-]3)c2)cc1 (3D coordinates assigned)
CS(=O)(=O)[N-]C(=O)c1ccccc1[N-]S(=O)(=O)c1ccc([N-]C(=O)[N-]c2cccc(N=c3nc(-c4cccnc4)cc[n-]3)c2)cc1 (optimized conformer: 99.5824691394564 kcal/mol)

>  <smiles>  (85) 
CS(=O)(=O)NC(=O)c1ccccc1NS(=O)(=O)c1ccc(NC(=O)Nc2cccc(N=c3nc(-c4cccnc4)cc[nH]3)c2)cc1

>  <score_type>  (85) 
oracle

>  <origin>  (85) 
adg

>  <m_score__min__energy>  (85) 
-17.34

>  <m_primary>  (85) 
energy

$$$$
85:0
     RDKit          3D

 41 43  0  0  0  0  0  0  0  0999 V2000
   63.3975   31.5034   47.2449 H   0  0  0  0  0  0  0  0  0  0  0  0
   62.6710   32.2940   47.4840 C   0  0  0  0  0  0  0  0  0  0  0  0
   61.5080   32.3830   46.7850 N   0  0  0  0  0  0  0  0  0  0  0  0
   60.5820   33.3510   47.0430 C   0  0  0  0  0  0  0  0  0  0  0  0
   59.4630   33.4110   46.3790 N   0  0  0  0  0  0  0  0  0  0  0  0
   58.6490   32.3020   45.9690 C   0  0  0  0  0  0  0  0  0  0  0  0
   57.4620   32.5240   45.6100 O   0  0  0  0  0  0  0  0  0  0  0  0
   59.1910   30.9750   45.8700 N   0  0  0  0  0  0  0  0  0  0  0  0
   60.2100   30.8810   45.6580 H   0  0  0  0  0  0  0  0  0  0  0  0
   58.3890   29.7800   45.8910 C   0  0  0  0  0  0  0  0  0  0  0  0
   57.1760   29.7010   45.1900 C   0  0  0  0  0  0  0  0  0  0  0  0
   56.8315   30.5594   44.5946 H   0  0  0  0  0  0  0  0  0  0  0  0
   56.4040   28.5390   45.2440 C   0  0  0  0  0  0  0  0  0  0  0  0
   55.4570   28.4904   44.6865 H   0  0  0  0  0  0  0  0  0  0  0  0
   56.8210   27.4290   46.0020 C   0  0  0  0  0  0  0  0  0  0  0  0
   55.9720   26.2120   46.0030 C   0  0  0  0  0  0  0  0  0  0  0  0
   54.7570   26.3050   45.6800 O   0  0  0  0  0  0  0  0  0  0  0  0
   56.5220   24.9400   46.3710 N   0  0  0  0  0  0  0  0  0  0  0  0
   57.0150   23.9280   45.4810 C   0  0  0  0  0  0  0  0  0  0  0  0
   56.1520   23.4210   44.5010 C   0  0  0  0  0  0  0  0  0  0  0  0
   55.1271   23.8120   44.4195 H   0  0  0  0  0  0  0  0  0  0  0  0
   56.5860   22.4210   43.6260 C   0  0  0  0  0  0  0  0  0  0  0  0
   55.9065   22.0372   42.8508 H   0  0  0  0  0  0  0  0  0  0  0  0
   57.8810   21.9080   43.7340 C   0  0  0  0  0  0  0  0  0  0  0  0
   58.2217   21.1272   43.0381 H   0  0  0  0  0  0  0  0  0  0  0  0
   58.7470   22.3860   44.7270 C   0  0  0  0  0  0  0  0  0  0  0  0
   60.0650   21.8450   44.8520 N   0  0  0  0  0  0  0  0  0  0  0  0
   60.2110   20.8650   45.1820 H   0  0  0  0  0  0  0  0  0  0  0  0
   60.9040   22.4210   44.6170 H   0  0  0  0  0  0  0  0  0  0  0  0
   58.3100   23.3920   45.6040 C   0  0  0  0  0  0  0  0  0  0  0  0
   58.9834   23.7627   46.3909 H   0  0  0  0  0  0  0  0  0  0  0  0
   58.0270   27.5220   46.7380 C   0  0  0  0  0  0  0  0  0  0  0  0
   58.5930   26.2440   47.8100 Cl  0  0  0  0  0  0  0  0  0  0  0  0
   58.7930   28.6940   46.6770 C   0  0  0  0  0  0  0  0  0  0  0  0
   59.7261   28.7618   47.2556 H   0  0  0  0  0  0  0  0  0  0  0  0
   60.8190   34.2740   48.0680 C   0  0  0  0  0  0  0  0  0  0  0  0
   60.0745   35.0508   48.2969 H   0  0  0  0  0  0  0  0  0  0  0  0
   62.0070   34.2020   48.7980 C   0  0  0  0  0  0  0  0  0  0  0  0
   62.2051   34.9272   49.6010 H   0  0  0  0  0  0  0  0  0  0  0  0
   62.9430   33.2080   48.5070 C   0  0  0  0  0  0  0  0  0  0  0  0
   64.5710   33.0930   49.4960 Br  0  0  0  0  0  0  0  0  0  0  0  0
  1  2  1  0
  2  3  1  0
  3  4  1  0
  4  5  2  0
  5  6  1  0
  6  7  2  0
  6  8  1  0
  8  9  1  0
  8 10  1  0
 10 11  2  0
 11 12  1  0
 11 13  1  0
 13 14  1  0
 13 15  2  0
 15 16  1  0
 16 17  2  0
 16 18  1  0
 18 19  1  0
 19 20  2  0
 20 21  1  0
 20 22  1  0
 22 23  1  0
 22 24  2  0
 24 25  1  0
 24 26  1  0
 26 27  1  0
 27 28  1  0
 27 29  1  0
 26 30  2  0
 30 31  1  0
 15 32  1  0
 32 33  1  0
 32 34  2  0
 34 35  1  0
  4 36  1  0
 36 37  1  0
 36 38  2  0
 38 39  1  0
 38 40  1  0
 40 41  1  0
 40  2  2  0
 34 10  1  0
 30 19  1  0
M  CHG  2   3  -1  18  -1
M  END
>  <UniqueID>  (86) 
78

>  <SMILES>  (86) 
Nc1cccc([N-]C(=O)c2ccc(NC(=O)/N=c3/ccc(Br)c[n-]3)cc2Cl)c1

>  <Energy>  (86) 
59.62704083685813

>  <Genealogy>  (86) 
Nc1cccc([N-]C(=O)c2ccc(NC(=O)N=c3ccc(Br)c[n-]3)cc2Cl)c1 (protonated)
Nc1cccc([N-]C(=O)c2ccc(NC(=O)/N=c3/ccc(Br)c[n-]3)cc2Cl)c1 (cis-trans isomerization)
Nc1cccc([N-]C(=O)c2ccc(NC(=O)/N=c3/ccc(Br)c[n-]3)cc2Cl)c1 (3D coordinates assigned)
Nc1cccc([N-]C(=O)c2ccc(NC(=O)/N=c3/ccc(Br)c[n-]3)cc2Cl)c1 (optimized conformer: 59.62704083685813 kcal/mol)

>  <smiles>  (86) 
Nc1cccc(NC(=O)c2ccc(NC(=O)N=c3ccc(Br)c[nH]3)cc2Cl)c1

>  <score_type>  (86) 
oracle

>  <origin>  (86) 
adg

>  <m_score__min__energy>  (86) 
-11.49

>  <m_primary>  (86) 
energy

$$$$
86:0
     RDKit          3D

 30 32  0  0  0  0  0  0  0  0999 V2000
   61.2720   30.4580   48.8360 C   0  0  0  0  0  0  0  0  0  0  0  0
   60.2260   29.8910   47.9220 C   0  0  0  0  0  0  0  0  0  0  0  0
   59.8370   30.5940   46.7720 C   0  0  0  0  0  0  0  0  0  0  0  0
   58.8390   30.0830   45.9370 C   0  0  0  0  0  0  0  0  0  0  0  0
   58.2080   28.8710   46.2530 C   0  0  0  0  0  0  0  0  0  0  0  0
   56.9760   28.2230   45.1750 S   0  0  0  0  0  0  0  0  0  0  0  0
   57.5780   28.0080   43.8150 O   0  0  0  0  0  0  0  0  0  0  0  0
   55.8250   29.1810   45.0430 O   0  0  0  0  0  0  0  0  0  0  0  0
   56.3970   26.7090   45.7890 N   0  0  0  0  0  0  0  0  0  0  0  0
   56.9440   25.5700   45.4950 C   0  0  0  0  0  0  0  0  0  0  0  0
   56.4020   24.6740   44.6330 N   0  0  0  0  0  0  0  0  0  0  0  0
   57.1600   23.5880   44.5160 N   0  0  0  0  0  0  0  0  0  0  0  0
   56.8730   22.5180   43.7310 C   0  0  0  0  0  0  0  0  0  0  0  0
   55.8240   22.4890   43.0330 O   0  0  0  0  0  0  0  0  0  0  0  0
   57.7740   21.4460   43.7190 C   0  0  0  0  0  0  0  0  0  0  0  0
   58.8980   21.5130   44.4920 N   0  0  0  0  0  0  0  0  0  0  0  0
   59.1530   22.5810   45.2570 N   0  0  0  0  0  0  0  0  0  0  0  0
   58.2800   23.6160   45.2650 C   0  0  0  0  0  0  0  0  0  0  0  0
   58.4130   25.0370   46.1540 S   0  0  0  0  0  0  0  0  0  0  0  0
   58.5860   28.1740   47.4090 C   0  0  0  0  0  0  0  0  0  0  0  0
   59.5860   28.6850   48.2430 C   0  0  0  0  0  0  0  0  0  0  0  0
   60.9722   30.2955   49.8818 H   0  0  0  0  0  0  0  0  0  0  0  0
   62.2334   29.9575   48.6482 H   0  0  0  0  0  0  0  0  0  0  0  0
   61.3773   31.5367   48.6482 H   0  0  0  0  0  0  0  0  0  0  0  0
   60.3194   31.5515   46.5262 H   0  0  0  0  0  0  0  0  0  0  0  0
   58.5479   30.6329   45.0299 H   0  0  0  0  0  0  0  0  0  0  0  0
   57.5790   20.5613   43.0950 H   0  0  0  0  0  0  0  0  0  0  0  0
   59.5730   20.7170   44.4860 H   0  0  0  0  0  0  0  0  0  0  0  0
   58.0949   27.2225   47.6610 H   0  0  0  0  0  0  0  0  0  0  0  0
   59.8715   28.1388   49.1541 H   0  0  0  0  0  0  0  0  0  0  0  0
  1  2  1  0
  2  3  2  0
  3  4  1  0
  4  5  2  0
  5  6  1  0
  6  7  2  0
  6  8  2  0
  6  9  1  0
  9 10  2  3
 10 11  1  0
 11 12  1  0
 12 13  1  0
 13 14  2  0
 13 15  1  0
 15 16  2  0
 16 17  1  0
 17 18  2  0
 18 19  1  0
  5 20  1  0
 20 21  2  0
 21  2  1  0
 19 10  1  0
 18 12  1  0
  1 22  1  0
  1 23  1  0
  1 24  1  0
  3 25  1  0
  4 26  1  0
 15 27  1  0
 16 28  1  0
 20 29  1  0
 21 30  1  0
M  CHG  2  11  -1  16   1
M  END
>  <UniqueID>  (87) 
79

>  <SMILES>  (87) 
Cc1ccc(S(=O)(=O)N=c2[n-]n3c(=O)c[nH+]nc3s2)cc1

>  <Energy>  (87) 
73.61322574635334

>  <Genealogy>  (87) 
Cc1ccc(S(=O)(=O)N=c2[n-]n3c(=O)c[nH+]nc3s2)cc1 (protonated)
Cc1ccc(S(=O)(=O)N=c2[n-]n3c(=O)c[nH+]nc3s2)cc1 (3D coordinates assigned)
Cc1ccc(S(=O)(=O)N=c2[n-]n3c(=O)c[nH+]nc3s2)cc1 (optimized conformer: 73.61322574635334 kcal/mol)

>  <smiles>  (87) 
Cc1ccc(S(=O)(=O)N=c2[nH]n3c(=O)cnnc3s2)cc1

>  <score_type>  (87) 
oracle

>  <origin>  (87) 
adg

>  <m_score__min__energy>  (87) 
-8.1300000000000008

>  <m_primary>  (87) 
energy

$$$$
87:0
     RDKit          3D

 59 62  0  0  0  0  0  0  0  0999 V2000
   56.9614   29.7730   42.4126 H   0  0  0  0  0  0  0  0  0  0  0  0
   57.0110   29.4050   43.4480 C   0  0  0  0  0  0  0  0  0  0  0  0
   56.1080   30.0330   44.4330 C   0  0  0  0  0  0  0  0  0  0  0  0
   55.4380   29.3320   45.2390 O   0  0  0  0  0  0  0  0  0  0  0  0
   56.0810   31.4620   44.5280 N   0  0  0  0  0  0  0  0  0  0  0  0
   57.1670   32.2970   44.9570 C   0  0  0  0  0  0  0  0  0  0  0  0
   58.0370   32.9100   44.0400 C   0  0  0  0  0  0  0  0  0  0  0  0
   57.8853   32.7670   42.9599 H   0  0  0  0  0  0  0  0  0  0  0  0
   59.0960   33.7020   44.4970 C   0  0  0  0  0  0  0  0  0  0  0  0
   59.7761   34.1756   43.7738 H   0  0  0  0  0  0  0  0  0  0  0  0
   59.2960   33.8960   45.8740 C   0  0  0  0  0  0  0  0  0  0  0  0
   60.3920   34.6860   46.3670 N   0  0  0  0  0  0  0  0  0  0  0  0
   60.3780   35.7120   46.1700 H   0  0  0  0  0  0  0  0  0  0  0  0
   61.5050   34.1620   47.1130 C   0  0  0  0  0  0  0  0  0  0  0  0
   61.4710   34.1970   48.5160 C   0  0  0  0  0  0  0  0  0  0  0  0
   60.5874   34.6012   49.0316 H   0  0  0  0  0  0  0  0  0  0  0  0
   62.5540   33.7210   49.2620 C   0  0  0  0  0  0  0  0  0  0  0  0
   62.5151   33.7412   50.3611 H   0  0  0  0  0  0  0  0  0  0  0  0
   63.6850   33.2200   48.6130 C   0  0  0  0  0  0  0  0  0  0  0  0
   64.5337   32.8405   49.2009 H   0  0  0  0  0  0  0  0  0  0  0  0
   63.7380   33.2010   47.2180 C   0  0  0  0  0  0  0  0  0  0  0  0
   64.6305   32.8095   46.7080 H   0  0  0  0  0  0  0  0  0  0  0  0
   62.6580   33.6790   46.4670 C   0  0  0  0  0  0  0  0  0  0  0  0
   62.7107   33.6771   45.3683 H   0  0  0  0  0  0  0  0  0  0  0  0
   58.4530   33.2440   46.7850 C   0  0  0  0  0  0  0  0  0  0  0  0
   58.6234   33.3584   47.8657 H   0  0  0  0  0  0  0  0  0  0  0  0
   57.3980   32.4500   46.3290 C   0  0  0  0  0  0  0  0  0  0  0  0
   56.7444   31.9416   47.0531 H   0  0  0  0  0  0  0  0  0  0  0  0
   57.8870   28.4230   43.7100 C   0  0  0  0  0  0  0  0  0  0  0  0
   58.5582   28.1106   42.8964 H   0  0  0  0  0  0  0  0  0  0  0  0
   58.0190   27.7290   45.0080 C   0  0  0  0  0  0  0  0  0  0  0  0
   57.0870   26.7430   45.3750 C   0  0  0  0  0  0  0  0  0  0  0  0
   56.2408   26.5159   44.7099 H   0  0  0  0  0  0  0  0  0  0  0  0
   57.2290   26.0500   46.5790 C   0  0  0  0  0  0  0  0  0  0  0  0
   56.4904   25.2863   46.8642 H   0  0  0  0  0  0  0  0  0  0  0  0
   58.3080   26.3260   47.4210 C   0  0  0  0  0  0  0  0  0  0  0  0
   58.4165   25.7820   48.3709 H   0  0  0  0  0  0  0  0  0  0  0  0
   59.2500   27.2920   47.0590 C   0  0  0  0  0  0  0  0  0  0  0  0
   60.0968   27.5076   47.7271 H   0  0  0  0  0  0  0  0  0  0  0  0
   59.1220   27.9880   45.8490 C   0  0  0  0  0  0  0  0  0  0  0  0
   60.0950   28.9880   45.5040 N   0  0  0  0  0  0  0  0  0  0  0  0
   61.3370   28.5890   44.8420 C   0  0  0  0  0  0  0  0  0  0  0  0
   62.0951   28.3454   45.6009 H   0  0  0  0  0  0  0  0  0  0  0  0
   61.1502   27.7057   44.2137 H   0  0  0  0  0  0  0  0  0  0  0  0
   61.6996   29.4159   44.2137 H   0  0  0  0  0  0  0  0  0  0  0  0
   59.9440   30.3530   46.0150 C   0  0  0  0  0  0  0  0  0  0  0  0
   60.7193   30.9945   45.5707 H   0  0  0  0  0  0  0  0  0  0  0  0
   58.9452   30.7271   45.7459 H   0  0  0  0  0  0  0  0  0  0  0  0
   60.0850   30.3690   47.5120 C   0  0  0  0  0  0  0  0  0  0  0  0
   58.9470   30.3340   48.3350 C   0  0  0  0  0  0  0  0  0  0  0  0
   57.9464   30.2560   47.8847 H   0  0  0  0  0  0  0  0  0  0  0  0
   59.0830   30.3980   49.7250 C   0  0  0  0  0  0  0  0  0  0  0  0
   58.1898   30.3664   50.3662 H   0  0  0  0  0  0  0  0  0  0  0  0
   60.3520   30.5020   50.3010 C   0  0  0  0  0  0  0  0  0  0  0  0
   60.4566   30.5509   51.3949 H   0  0  0  0  0  0  0  0  0  0  0  0
   61.4890   30.5440   49.4880 C   0  0  0  0  0  0  0  0  0  0  0  0
   62.4873   30.6274   49.9424 H   0  0  0  0  0  0  0  0  0  0  0  0
   61.3570   30.4800   48.0980 C   0  0  0  0  0  0  0  0  0  0  0  0
   62.2526   30.5167   47.4604 H   0  0  0  0  0  0  0  0  0  0  0  0
  1  2  1  0
  2  3  1  0
  3  4  2  0
  3  5  1  0
  5  6  1  0
  6  7  2  0
  7  8  1  0
  7  9  1  0
  9 10  1  0
  9 11  2  0
 11 12  1  0
 12 13  1  0
 12 14  1  0
 14 15  2  0
 15 16  1  0
 15 17  1  0
 17 18  1  0
 17 19  2  0
 19 20  1  0
 19 21  1  0
 21 22  1  0
 21 23  2  0
 23 24  1  0
 11 25  1  0
 25 26  1  0
 25 27  2  0
 27 28  1  0
  2 29  2  0
 29 30  1  0
 29 31  1  0
 31 32  2  0
 32 33  1  0
 32 34  1  0
 34 35  1  0
 34 36  2  0
 36 37  1  0
 36 38  1  0
 38 39  1  0
 38 40  2  0
 40 41  1  0
 41 42  1  0
 42 43  1  0
 42 44  1  0
 42 45  1  0
 41 46  1  0
 46 47  1  0
 46 48  1  0
 46 49  1  0
 49 50  2  0
 50 51  1  0
 50 52  1  0
 52 53  1  0
 52 54  2  0
 54 55  1  0
 54 56  1  0
 56 57  1  0
 56 58  2  0
 58 59  1  0
 27  6  1  0
 40 31  1  0
 58 49  1  0
 23 14  1  0
M  CHG  1   5  -1
M  END
>  <UniqueID>  (88) 
80

>  <SMILES>  (88) 
CN(Cc1ccccc1)c1ccccc1/C=C\C(=O)[N-]c1ccc(Nc2ccccc2)cc1

>  <Energy>  (88) 
82.57562562654356

>  <Genealogy>  (88) 
CN(Cc1ccccc1)c1ccccc1C=CC(=O)[N-]c1ccc(Nc2ccccc2)cc1 (protonated)
CN(Cc1ccccc1)c1ccccc1/C=C\C(=O)[N-]c1ccc(Nc2ccccc2)cc1 (cis-trans isomerization)
CN(Cc1ccccc1)c1ccccc1/C=C\C(=O)[N-]c1ccc(Nc2ccccc2)cc1 (3D coordinates assigned)
CN(Cc1ccccc1)c1ccccc1/C=C\C(=O)[N-]c1ccc(Nc2ccccc2)cc1 (optimized conformer: 82.57562562654356 kcal/mol)

>  <smiles>  (88) 
CN(Cc1ccccc1)c1ccccc1C=CC(=O)Nc1ccc(Nc2ccccc2)cc1

>  <score_type>  (88) 
oracle

>  <origin>  (88) 
adg

>  <m_score__min__energy>  (88) 
-11.720000000000001

>  <m_primary>  (88) 
energy

$$$$
88:0
     RDKit          3D

 47 49  0  0  0  0  0  0  0  0999 V2000
   54.7620   26.3390   45.9680 O   0  0  0  0  0  0  0  0  0  0  0  0
   55.8740   25.8220   46.2490 C   0  0  0  0  0  0  0  0  0  0  0  0
   55.9180   24.5410   46.7840 O   0  0  0  0  0  0  0  0  0  0  0  0
   57.1380   26.5690   45.9690 C   0  0  0  0  0  0  0  0  0  0  0  0
   56.9390   27.9580   46.2150 O   0  0  0  0  0  0  0  0  0  0  0  0
   57.1210   28.9690   45.2590 C   0  0  0  0  0  0  0  0  0  0  0  0
   56.0440   29.5040   44.5230 C   0  0  0  0  0  0  0  0  0  0  0  0
   56.2660   30.5150   43.5830 C   0  0  0  0  0  0  0  0  0  0  0  0
   57.5520   31.0060   43.3740 C   0  0  0  0  0  0  0  0  0  0  0  0
   58.6240   30.4890   44.1040 C   0  0  0  0  0  0  0  0  0  0  0  0
   58.4210   29.4530   45.0340 C   0  0  0  0  0  0  0  0  0  0  0  0
   59.5060   28.9340   45.8210 N   0  0  0  0  0  0  0  0  0  0  0  0
   59.8600   29.3470   47.1460 C   0  0  0  0  0  0  0  0  0  0  0  0
   60.5020   28.5480   47.8790 O   0  0  0  0  0  0  0  0  0  0  0  0
   59.5750   30.6790   47.6020 N   0  0  0  0  0  0  0  0  0  0  0  0
   59.6150   31.0780   48.9830 C   0  0  0  0  0  0  0  0  0  0  0  0
   60.1470   30.2180   49.9620 C   0  0  0  0  0  0  0  0  0  0  0  0
   60.1220   30.5780   51.3110 C   0  0  0  0  0  0  0  0  0  0  0  0
   59.5470   31.7870   51.7020 C   0  0  0  0  0  0  0  0  0  0  0  0
   58.9980   32.6410   50.7430 C   0  0  0  0  0  0  0  0  0  0  0  0
   59.0340   32.2990   49.3870 C   0  0  0  0  0  0  0  0  0  0  0  0
   58.5110   33.2250   48.4310 N   0  0  0  0  0  0  0  0  0  0  0  0
   59.5190   33.9340   47.2150 S   0  0  0  0  0  0  0  0  0  0  0  0
   59.2400   33.3060   45.8790 O   0  0  0  0  0  0  0  0  0  0  0  0
   59.2270   35.4030   47.1290 O   0  0  0  0  0  0  0  0  0  0  0  0
   61.2100   33.7150   47.6570 C   0  0  0  0  0  0  0  0  0  0  0  0
   61.6620   34.1460   48.9110 C   0  0  0  0  0  0  0  0  0  0  0  0
   62.9950   33.9440   49.2810 C   0  0  0  0  0  0  0  0  0  0  0  0
   63.8770   33.3020   48.4080 C   0  0  0  0  0  0  0  0  0  0  0  0
   63.4290   32.8610   47.1630 C   0  0  0  0  0  0  0  0  0  0  0  0
   62.0980   33.0690   46.7850 C   0  0  0  0  0  0  0  0  0  0  0  0
   57.9379   26.1926   46.6236 H   0  0  0  0  0  0  0  0  0  0  0  0
   57.4225   26.4224   44.9166 H   0  0  0  0  0  0  0  0  0  0  0  0
   55.0250   29.1245   44.6890 H   0  0  0  0  0  0  0  0  0  0  0  0
   55.4225   30.9235   43.0071 H   0  0  0  0  0  0  0  0  0  0  0  0
   57.7234   31.8013   42.6337 H   0  0  0  0  0  0  0  0  0  0  0  0
   59.6349   30.8947   43.9509 H   0  0  0  0  0  0  0  0  0  0  0  0
   59.3830   31.4090   46.8820 H   0  0  0  0  0  0  0  0  0  0  0  0
   60.5858   29.2549   49.6622 H   0  0  0  0  0  0  0  0  0  0  0  0
   60.5565   29.9069   52.0665 H   0  0  0  0  0  0  0  0  0  0  0  0
   59.5259   32.0678   52.7653 H   0  0  0  0  0  0  0  0  0  0  0  0
   58.5345   33.5883   51.0558 H   0  0  0  0  0  0  0  0  0  0  0  0
   60.9681   34.6434   49.6046 H   0  0  0  0  0  0  0  0  0  0  0  0
   63.3505   34.2915   50.2623 H   0  0  0  0  0  0  0  0  0  0  0  0
   64.9250   33.1443   48.7027 H   0  0  0  0  0  0  0  0  0  0  0  0
   64.1219   32.3498   46.4784 H   0  0  0  0  0  0  0  0  0  0  0  0
   61.7472   32.7248   45.8009 H   0  0  0  0  0  0  0  0  0  0  0  0
  1  2  2  0
  2  3  1  0
  2  4  1  0
  4  5  1  0
  5  6  1  0
  6  7  2  0
  7  8  1  0
  8  9  2  0
  9 10  1  0
 10 11  2  0
 11 12  1  0
 12 13  1  0
 13 14  2  0
 13 15  1  0
 15 16  1  0
 16 17  2  0
 17 18  1  0
 18 19  2  0
 19 20  1  0
 20 21  2  0
 21 22  1  0
 22 23  1  0
 23 24  2  0
 23 25  2  0
 23 26  1  0
 26 27  2  0
 27 28  1  0
 28 29  2  0
 29 30  1  0
 30 31  2  0
 11  6  1  0
 21 16  1  0
 31 26  1  0
  4 32  1  0
  4 33  1  0
  7 34  1  0
  8 35  1  0
  9 36  1  0
 10 37  1  0
 15 38  1  0
 17 39  1  0
 18 40  1  0
 19 41  1  0
 20 42  1  0
 27 43  1  0
 28 44  1  0
 29 45  1  0
 30 46  1  0
 31 47  1  0
M  CHG  3   3  -1  12  -1  22  -1
M  END
>  <UniqueID>  (89) 
81

>  <SMILES>  (89) 
O=C([O-])COc1ccccc1[N-]C(=O)Nc1ccccc1[N-]S(=O)(=O)c1ccccc1

>  <Energy>  (89) 
63.47539744124936

>  <Genealogy>  (89) 
O=C([O-])COc1ccccc1[N-]C(=O)Nc1ccccc1[N-]S(=O)(=O)c1ccccc1 (protonated)
O=C([O-])COc1ccccc1[N-]C(=O)Nc1ccccc1[N-]S(=O)(=O)c1ccccc1 (3D coordinates assigned)
O=C([O-])COc1ccccc1[N-]C(=O)Nc1ccccc1[N-]S(=O)(=O)c1ccccc1 (optimized conformer: 63.47539744124936 kcal/mol)

>  <smiles>  (89) 
O=C(O)COc1ccccc1NC(=O)Nc1ccccc1NS(=O)(=O)c1ccccc1

>  <score_type>  (89) 
oracle

>  <origin>  (89) 
adg

>  <m_score__min__energy>  (89) 
-14.68

>  <m_primary>  (89) 
energy

$$$$
89:0
     RDKit          3D

 45 48  0  0  0  0  0  0  0  0999 V2000
   55.8470   24.4650   45.1390 C   0  0  0  0  0  0  0  0  0  0  0  0
   55.9290   25.2160   46.3460 O   0  0  0  0  0  0  0  0  0  0  0  0
   56.9900   26.0720   46.6770 C   0  0  0  0  0  0  0  0  0  0  0  0
   58.0560   25.6680   47.4960 C   0  0  0  0  0  0  0  0  0  0  0  0
   59.0800   26.5600   47.8120 C   0  0  0  0  0  0  0  0  0  0  0  0
   59.0670   27.8680   47.3050 C   0  0  0  0  0  0  0  0  0  0  0  0
   60.0620   28.7400   47.6420 N   0  0  0  0  0  0  0  0  0  0  0  0
   60.0810   30.0250   47.1830 C   0  0  0  0  0  0  0  0  0  0  0  0
   61.1740   30.9450   47.5870 C   0  0  0  0  0  0  0  0  0  0  0  0
   61.8940   30.7130   48.7730 C   0  0  0  0  0  0  0  0  0  0  0  0
   62.9250   31.5770   49.1550 C   0  0  0  0  0  0  0  0  0  0  0  0
   63.2480   32.6780   48.3580 C   0  0  0  0  0  0  0  0  0  0  0  0
   62.5420   32.9170   47.1770 C   0  0  0  0  0  0  0  0  0  0  0  0
   61.5090   32.0570   46.7920 C   0  0  0  0  0  0  0  0  0  0  0  0
   59.0660   30.4650   46.3210 C   0  0  0  0  0  0  0  0  0  0  0  0
   58.0460   29.5940   45.9230 C   0  0  0  0  0  0  0  0  0  0  0  0
   57.0560   30.0900   44.9360 C   0  0  0  0  0  0  0  0  0  0  0  0
   56.5650   29.2830   44.1040 O   0  0  0  0  0  0  0  0  0  0  0  0
   56.6430   31.4640   44.8920 N   0  0  0  0  0  0  0  0  0  0  0  0
   57.4660   32.6070   45.1660 C   0  0  0  0  0  0  0  0  0  0  0  0
   57.3940   33.2050   46.4310 C   0  0  0  0  0  0  0  0  0  0  0  0
   58.1770   34.3240   46.7300 C   0  0  0  0  0  0  0  0  0  0  0  0
   59.0520   34.8420   45.7700 C   0  0  0  0  0  0  0  0  0  0  0  0
   59.1510   34.2350   44.5150 C   0  0  0  0  0  0  0  0  0  0  0  0
   58.3680   33.1170   44.2140 C   0  0  0  0  0  0  0  0  0  0  0  0
   58.0170   28.2800   46.4480 C   0  0  0  0  0  0  0  0  0  0  0  0
   56.9710   27.3750   46.1680 C   0  0  0  0  0  0  0  0  0  0  0  0
   55.7305   23.3977   45.3784 H   0  0  0  0  0  0  0  0  0  0  0  0
   54.9808   24.8061   44.5531 H   0  0  0  0  0  0  0  0  0  0  0  0
   56.7664   24.6111   44.5531 H   0  0  0  0  0  0  0  0  0  0  0  0
   58.0837   24.6417   47.8908 H   0  0  0  0  0  0  0  0  0  0  0  0
   59.9045   26.2356   48.4639 H   0  0  0  0  0  0  0  0  0  0  0  0
   60.8370   28.4090   48.2610 H   0  0  0  0  0  0  0  0  0  0  0  0
   61.6445   29.8469   49.4036 H   0  0  0  0  0  0  0  0  0  0  0  0
   63.4826   31.3895   50.0845 H   0  0  0  0  0  0  0  0  0  0  0  0
   64.0588   33.3569   48.6608 H   0  0  0  0  0  0  0  0  0  0  0  0
   62.7989   33.7828   46.5490 H   0  0  0  0  0  0  0  0  0  0  0  0
   60.9546   32.2507   45.8619 H   0  0  0  0  0  0  0  0  0  0  0  0
   59.0719   31.5024   45.9552 H   0  0  0  0  0  0  0  0  0  0  0  0
   56.7174   32.7916   47.1934 H   0  0  0  0  0  0  0  0  0  0  0  0
   58.1048   34.7970   47.7205 H   0  0  0  0  0  0  0  0  0  0  0  0
   59.6623   35.7271   46.0026 H   0  0  0  0  0  0  0  0  0  0  0  0
   59.8459   34.6376   43.7633 H   0  0  0  0  0  0  0  0  0  0  0  0
   58.4572   32.6342   43.2296 H   0  0  0  0  0  0  0  0  0  0  0  0
   56.1280   27.6990   45.5400 H   0  0  0  0  0  0  0  0  0  0  0  0
  1  2  1  0
  2  3  1  0
  3  4  2  0
  4  5  1  0
  5  6  2  0
  6  7  1  0
  7  8  2  0
  8  9  1  0
  9 10  2  0
 10 11  1  0
 11 12  2  0
 12 13  1  0
 13 14  2  0
  8 15  1  0
 15 16  2  0
 16 17  1  0
 17 18  2  0
 17 19  1  0
 19 20  1  0
 20 21  2  0
 21 22  1  0
 22 23  2  0
 23 24  1  0
 24 25  2  0
 16 26  1  0
 26 27  2  0
 27  3  1  0
 26  6  1  0
 14  9  1  0
 25 20  1  0
  1 28  1  0
  1 29  1  0
  1 30  1  0
  4 31  1  0
  5 32  1  0
  7 33  1  0
 10 34  1  0
 11 35  1  0
 12 36  1  0
 13 37  1  0
 14 38  1  0
 15 39  1  0
 21 40  1  0
 22 41  1  0
 23 42  1  0
 24 43  1  0
 25 44  1  0
 27 45  1  0
M  CHG  2   7   1  19  -1
M  END
>  <UniqueID>  (90) 
82

>  <SMILES>  (90) 
COc1ccc2[nH+]c(-c3ccccc3)cc(C(=O)[N-]c3ccccc3)c2c1

>  <Energy>  (90) 
67.47306665369936

>  <Genealogy>  (90) 
COc1ccc2[nH+]c(-c3ccccc3)cc(C(=O)[N-]c3ccccc3)c2c1 (protonated)
COc1ccc2[nH+]c(-c3ccccc3)cc(C(=O)[N-]c3ccccc3)c2c1 (3D coordinates assigned)
COc1ccc2[nH+]c(-c3ccccc3)cc(C(=O)[N-]c3ccccc3)c2c1 (optimized conformer: 67.47306665369936 kcal/mol)

>  <smiles>  (90) 
COc1ccc2nc(-c3ccccc3)cc(C(=O)Nc3ccccc3)c2c1

>  <score_type>  (90) 
oracle

>  <origin>  (90) 
adg

>  <m_score__min__energy>  (90) 
-8.5199999999999996

>  <m_primary>  (90) 
energy

$$$$
90:0
     RDKit          3D

 35 37  0  0  0  0  0  0  0  0999 V2000
   59.5828   27.9998   47.7821 H   0  0  0  0  0  0  0  0  0  0  0  0
   58.7320   27.9070   47.0910 C   0  0  0  0  0  0  0  0  0  0  0  0
   58.1900   29.0180   46.5280 N   0  0  0  0  0  0  0  0  0  0  0  0
   57.1400   28.9270   45.6650 C   0  0  0  0  0  0  0  0  0  0  0  0
   56.6010   29.9900   45.1410 N   0  0  0  0  0  0  0  0  0  0  0  0
   57.2640   31.2250   44.8160 C   0  0  0  0  0  0  0  0  0  0  0  0
   57.4790   31.5370   43.4680 C   0  0  0  0  0  0  0  0  0  0  0  0
   57.1194   30.8534   42.6848 H   0  0  0  0  0  0  0  0  0  0  0  0
   58.1480   32.7120   43.1110 C   0  0  0  0  0  0  0  0  0  0  0  0
   58.2973   32.9587   42.0495 H   0  0  0  0  0  0  0  0  0  0  0  0
   58.6270   33.5730   44.1020 C   0  0  0  0  0  0  0  0  0  0  0  0
   59.1452   34.5015   43.8201 H   0  0  0  0  0  0  0  0  0  0  0  0
   58.4480   33.2550   45.4510 C   0  0  0  0  0  0  0  0  0  0  0  0
   59.1350   34.4150   46.8040 Br  0  0  0  0  0  0  0  0  0  0  0  0
   57.7780   32.0800   45.8100 C   0  0  0  0  0  0  0  0  0  0  0  0
   57.6524   31.8234   46.8722 H   0  0  0  0  0  0  0  0  0  0  0  0
   56.6140   27.7090   45.3750 N   0  0  0  0  0  0  0  0  0  0  0  0
   57.1230   26.5670   45.9130 C   0  0  0  0  0  0  0  0  0  0  0  0
   56.5250   25.2660   45.5660 C   0  0  0  0  0  0  0  0  0  0  0  0
   55.3060   24.8560   45.9740 N   0  0  0  0  0  0  0  0  0  0  0  0
   55.0970   23.6490   45.4710 N   0  0  0  0  0  0  0  0  0  0  0  0
   53.8510   22.9190   45.6740 C   0  0  0  0  0  0  0  0  0  0  0  0
   53.6623   22.8084   46.7520 H   0  0  0  0  0  0  0  0  0  0  0  0
   53.0214   23.4739   45.2115 H   0  0  0  0  0  0  0  0  0  0  0  0
   53.9294   21.9240   45.2115 H   0  0  0  0  0  0  0  0  0  0  0  0
   56.1790   23.2680   44.7530 C   0  0  0  0  0  0  0  0  0  0  0  0
   56.3490   21.9990   44.0150 C   0  0  0  0  0  0  0  0  0  0  0  0
   55.9020   21.9050   42.8410 O   0  0  0  0  0  0  0  0  0  0  0  0
   57.0530   20.8930   44.5820 N   0  0  0  0  0  0  0  0  0  0  0  0
   57.0990   19.9850   44.0670 H   0  0  0  0  0  0  0  0  0  0  0  0
   57.6240   20.9990   45.4470 H   0  0  0  0  0  0  0  0  0  0  0  0
   57.1080   24.2910   44.7770 C   0  0  0  0  0  0  0  0  0  0  0  0
   58.0892   24.3226   44.2808 H   0  0  0  0  0  0  0  0  0  0  0  0
   58.2100   26.6490   46.7930 C   0  0  0  0  0  0  0  0  0  0  0  0
   58.6421   25.7410   47.2389 H   0  0  0  0  0  0  0  0  0  0  0  0
  1  2  1  0
  2  3  1  0
  3  4  1  0
  4  5  2  0
  5  6  1  0
  6  7  2  0
  7  8  1  0
  7  9  1  0
  9 10  1  0
  9 11  2  0
 11 12  1  0
 11 13  1  0
 13 14  1  0
 13 15  2  0
 15 16  1  0
  4 17  1  0
 17 18  2  0
 18 19  1  0
 19 20  2  0
 20 21  1  0
 21 22  1  0
 22 23  1  0
 22 24  1  0
 22 25  1  0
 21 26  1  0
 26 27  1  0
 27 28  2  0
 27 29  1  0
 29 30  1  0
 29 31  1  0
 26 32  2  0
 32 33  1  0
 18 34  1  0
 34 35  1  0
 34  2  2  0
 15  6  1  0
 32 19  1  0
M  CHG  1   3  -1
M  END
>  <UniqueID>  (91) 
83

>  <SMILES>  (91) 
Cn1nc(-c2cc[n-]/c(=N\c3cccc(Br)c3)n2)cc1C(N)=O

>  <Energy>  (91) 
76.14606396687502

>  <Genealogy>  (91) 
Cn1nc(-c2cc[n-]c(=Nc3cccc(Br)c3)n2)cc1C(N)=O (protonated)
Cn1nc(-c2cc[n-]/c(=N\c3cccc(Br)c3)n2)cc1C(N)=O (cis-trans isomerization)
Cn1nc(-c2cc[n-]/c(=N\c3cccc(Br)c3)n2)cc1C(N)=O (3D coordinates assigned)
Cn1nc(-c2cc[n-]/c(=N\c3cccc(Br)c3)n2)cc1C(N)=O (optimized conformer: 76.14606396687502 kcal/mol)

>  <smiles>  (91) 
Cn1nc(-c2cc[nH]c(=Nc3cccc(Br)c3)n2)cc1C(N)=O

>  <score_type>  (91) 
oracle

>  <origin>  (91) 
adg

>  <m_score__min__energy>  (91) 
-10.449999999999999

>  <m_primary>  (91) 
energy

$$$$
91:0
     RDKit          3D

 46 48  0  0  0  0  0  0  0  0999 V2000
   56.2700   29.7220   54.3640 C   0  0  0  0  0  0  0  0  0  0  0  0
   56.4630   30.2950   52.6890 S   0  0  0  0  0  0  0  0  0  0  0  0
   55.1320   30.3000   51.9860 O   0  0  0  0  0  0  0  0  0  0  0  0
   57.3840   29.3590   51.9580 O   0  0  0  0  0  0  0  0  0  0  0  0
   57.1500   31.8880   52.6720 N   0  0  0  0  0  0  0  0  0  0  0  0
   57.9540   32.4020   51.5960 C   0  0  0  0  0  0  0  0  0  0  0  0
   57.7970   31.9540   50.2720 C   0  0  0  0  0  0  0  0  0  0  0  0
   58.5960   32.4730   49.2490 C   0  0  0  0  0  0  0  0  0  0  0  0
   59.5670   33.4420   49.5350 C   0  0  0  0  0  0  0  0  0  0  0  0
   60.6030   34.0830   48.2630 S   0  0  0  0  0  0  0  0  0  0  0  0
   59.9570   35.2600   47.5860 O   0  0  0  0  0  0  0  0  0  0  0  0
   61.8970   34.5370   48.8760 O   0  0  0  0  0  0  0  0  0  0  0  0
   60.9320   32.8530   47.0870 N   0  0  0  0  0  0  0  0  0  0  0  0
   59.9920   31.8750   46.6210 C   0  0  0  0  0  0  0  0  0  0  0  0
   58.9430   32.2930   45.7930 C   0  0  0  0  0  0  0  0  0  0  0  0
   58.0030   31.3730   45.3160 C   0  0  0  0  0  0  0  0  0  0  0  0
   58.1060   30.0180   45.6600 C   0  0  0  0  0  0  0  0  0  0  0  0
   56.9360   28.8410   45.0630 S   0  0  0  0  0  0  0  0  0  0  0  0
   55.5890   29.4910   44.9150 O   0  0  0  0  0  0  0  0  0  0  0  0
   57.3810   28.3440   43.7150 O   0  0  0  0  0  0  0  0  0  0  0  0
   56.8300   27.4740   46.1290 N   0  0  0  0  0  0  0  0  0  0  0  0
   56.3940   26.3010   45.7850 C   0  0  0  0  0  0  0  0  0  0  0  0
   55.0860   25.9920   45.9880 N   0  0  0  0  0  0  0  0  0  0  0  0
   54.5910   24.7770   45.6360 C   0  0  0  0  0  0  0  0  0  0  0  0
   55.4290   23.8240   45.0580 C   0  0  0  0  0  0  0  0  0  0  0  0
   56.7670   24.1540   44.8560 C   0  0  0  0  0  0  0  0  0  0  0  0
   57.2250   25.3800   45.2190 N   0  0  0  0  0  0  0  0  0  0  0  0
   59.1560   29.5950   46.4860 C   0  0  0  0  0  0  0  0  0  0  0  0
   60.0880   30.5170   46.9720 C   0  0  0  0  0  0  0  0  0  0  0  0
   59.7220   33.8990   50.8490 C   0  0  0  0  0  0  0  0  0  0  0  0
   58.9130   33.3890   51.8700 C   0  0  0  0  0  0  0  0  0  0  0  0
   56.5416   30.5285   55.0610 H   0  0  0  0  0  0  0  0  0  0  0  0
   55.2234   29.4285   54.5328 H   0  0  0  0  0  0  0  0  0  0  0  0
   56.9257   28.8551   54.5328 H   0  0  0  0  0  0  0  0  0  0  0  0
   57.0730   32.4440   53.5550 H   0  0  0  0  0  0  0  0  0  0  0  0
   57.0404   31.1900   50.0399 H   0  0  0  0  0  0  0  0  0  0  0  0
   58.4620   32.1195   48.2160 H   0  0  0  0  0  0  0  0  0  0  0  0
   58.8572   33.3539   45.5152 H   0  0  0  0  0  0  0  0  0  0  0  0
   57.1810   31.7139   44.6694 H   0  0  0  0  0  0  0  0  0  0  0  0
   53.5294   24.5449   45.8069 H   0  0  0  0  0  0  0  0  0  0  0  0
   55.0427   22.8356   44.7686 H   0  0  0  0  0  0  0  0  0  0  0  0
   57.4521   23.4224   44.4029 H   0  0  0  0  0  0  0  0  0  0  0  0
   59.2475   28.5319   46.7535 H   0  0  0  0  0  0  0  0  0  0  0  0
   60.9001   30.1783   47.6321 H   0  0  0  0  0  0  0  0  0  0  0  0
   60.4815   34.6607   51.0792 H   0  0  0  0  0  0  0  0  0  0  0  0
   59.0297   33.7652   52.8971 H   0  0  0  0  0  0  0  0  0  0  0  0
  1  2  1  0
  2  3  2  0
  2  4  2  0
  2  5  1  0
  5  6  1  0
  6  7  2  0
  7  8  1  0
  8  9  2  0
  9 10  1  0
 10 11  2  0
 10 12  2  0
 10 13  1  0
 13 14  1  0
 14 15  2  0
 15 16  1  0
 16 17  2  0
 17 18  1  0
 18 19  2  0
 18 20  2  0
 18 21  1  0
 21 22  2  3
 22 23  1  0
 23 24  2  0
 24 25  1  0
 25 26  2  0
 26 27  1  0
 17 28  1  0
 28 29  2  0
  9 30  1  0
 30 31  2  0
 31  6  1  0
 29 14  1  0
 27 22  1  0
  1 32  1  0
  1 33  1  0
  1 34  1  0
  5 35  1  0
  7 36  1  0
  8 37  1  0
 15 38  1  0
 16 39  1  0
 24 40  1  0
 25 41  1  0
 26 42  1  0
 28 43  1  0
 29 44  1  0
 30 45  1  0
 31 46  1  0
M  CHG  2  13  -1  27  -1
M  END
>  <UniqueID>  (92) 
84

>  <SMILES>  (92) 
CS(=O)(=O)Nc1ccc(S(=O)(=O)[N-]c2ccc(S(=O)(=O)N=c3nccc[n-]3)cc2)cc1

>  <Energy>  (92) 
56.124039969463304

>  <Genealogy>  (92) 
CS(=O)(=O)Nc1ccc(S(=O)(=O)[N-]c2ccc(S(=O)(=O)N=c3nccc[n-]3)cc2)cc1 (protonated)
CS(=O)(=O)Nc1ccc(S(=O)(=O)[N-]c2ccc(S(=O)(=O)N=c3nccc[n-]3)cc2)cc1 (3D coordinates assigned)
CS(=O)(=O)Nc1ccc(S(=O)(=O)[N-]c2ccc(S(=O)(=O)N=c3nccc[n-]3)cc2)cc1 (optimized conformer: 56.124039969463304 kcal/mol)

>  <smiles>  (92) 
CS(=O)(=O)Nc1ccc(S(=O)(=O)Nc2ccc(S(=O)(=O)N=c3nccc[nH]3)cc2)cc1

>  <score_type>  (92) 
oracle

>  <origin>  (92) 
adg

>  <m_score__min__energy>  (92) 
-11.48

>  <m_primary>  (92) 
energy

$$$$
92:0
     RDKit          3D

 37 39  0  0  0  0  0  0  0  0999 V2000
   55.5900   25.0850   46.7470 O   0  0  0  0  0  0  0  0  0  0  0  0
   56.8210   24.8780   46.5720 C   0  0  0  0  0  0  0  0  0  0  0  0
   57.7540   25.8970   46.9540 N   0  0  0  0  0  0  0  0  0  0  0  0
   58.1260   27.0390   46.1720 C   0  0  0  0  0  0  0  0  0  0  0  0
   59.4830   27.3560   46.0350 C   0  0  0  0  0  0  0  0  0  0  0  0
   59.8750   28.4730   45.2920 C   0  0  0  0  0  0  0  0  0  0  0  0
   58.9140   29.2870   44.6890 C   0  0  0  0  0  0  0  0  0  0  0  0
   57.5520   28.9940   44.8370 C   0  0  0  0  0  0  0  0  0  0  0  0
   56.3450   30.0160   44.0640 S   0  0  0  0  0  0  0  0  0  0  0  0
   56.6700   30.2180   42.6090 O   0  0  0  0  0  0  0  0  0  0  0  0
   55.0010   29.3540   44.1770 O   0  0  0  0  0  0  0  0  0  0  0  0
   56.2870   31.5610   44.8490 N   0  0  0  0  0  0  0  0  0  0  0  0
   57.4320   32.3120   45.2780 C   0  0  0  0  0  0  0  0  0  0  0  0
   58.1500   31.9830   46.4430 C   0  0  0  0  0  0  0  0  0  0  0  0
   59.2530   32.7510   46.8290 C   0  0  0  0  0  0  0  0  0  0  0  0
   59.6530   33.8480   46.0550 C   0  0  0  0  0  0  0  0  0  0  0  0
   60.7500   34.6200   46.4310 O   0  0  0  0  0  0  0  0  0  0  0  0
   58.9450   34.1730   44.8950 C   0  0  0  0  0  0  0  0  0  0  0  0
   57.8400   33.4080   44.5080 C   0  0  0  0  0  0  0  0  0  0  0  0
   57.1590   27.8820   45.5940 C   0  0  0  0  0  0  0  0  0  0  0  0
   57.2660   23.5740   46.0500 C   0  0  0  0  0  0  0  0  0  0  0  0
   57.5940   23.3000   44.7360 C   0  0  0  0  0  0  0  0  0  0  0  0
   57.9430   21.9680   44.7100 C   0  0  0  0  0  0  0  0  0  0  0  0
   57.8030   21.5090   46.0030 C   0  0  0  0  0  0  0  0  0  0  0  0
   57.3970   22.4880   46.7780 O   0  0  0  0  0  0  0  0  0  0  0  0
   60.2441   26.7229   46.5144 H   0  0  0  0  0  0  0  0  0  0  0  0
   60.9432   28.7115   45.1820 H   0  0  0  0  0  0  0  0  0  0  0  0
   59.2268   30.1596   44.0969 H   0  0  0  0  0  0  0  0  0  0  0  0
   57.8427   31.1196   47.0514 H   0  0  0  0  0  0  0  0  0  0  0  0
   59.8081   32.4930   47.7429 H   0  0  0  0  0  0  0  0  0  0  0  0
   61.1440   34.5620   47.3630 H   0  0  0  0  0  0  0  0  0  0  0  0
   59.2576   35.0330   44.2845 H   0  0  0  0  0  0  0  0  0  0  0  0
   57.2880   33.6690   43.5930 H   0  0  0  0  0  0  0  0  0  0  0  0
   56.0897   27.6672   45.7370 H   0  0  0  0  0  0  0  0  0  0  0  0
   57.5794   23.9999   43.8875 H   0  0  0  0  0  0  0  0  0  0  0  0
   58.2680   21.3871   43.8342 H   0  0  0  0  0  0  0  0  0  0  0  0
   58.0014   20.4791   46.3346 H   0  0  0  0  0  0  0  0  0  0  0  0
  1  2  2  0
  2  3  1  0
  3  4  1  0
  4  5  2  0
  5  6  1  0
  6  7  2  0
  7  8  1  0
  8  9  1  0
  9 10  2  0
  9 11  2  0
  9 12  1  0
 12 13  1  0
 13 14  2  0
 14 15  1  0
 15 16  2  0
 16 17  1  0
 16 18  1  0
 18 19  2  0
  8 20  2  0
  2 21  1  0
 21 22  2  0
 22 23  1  0
 23 24  2  0
 24 25  1  0
 20  4  1  0
 25 21  1  0
 19 13  1  0
  5 26  1  0
  6 27  1  0
  7 28  1  0
 14 29  1  0
 15 30  1  0
 17 31  1  0
 18 32  1  0
 19 33  1  0
 20 34  1  0
 22 35  1  0
 23 36  1  0
 24 37  1  0
M  CHG  2   3  -1  12  -1
M  END
>  <UniqueID>  (93) 
85

>  <SMILES>  (93) 
O=C([N-]c1cccc(S(=O)(=O)[N-]c2ccc(O)cc2)c1)c1ccco1

>  <Energy>  (93) 
71.00248087301597

>  <Genealogy>  (93) 
O=C([N-]c1cccc(S(=O)(=O)[N-]c2ccc(O)cc2)c1)c1ccco1 (protonated)
O=C([N-]c1cccc(S(=O)(=O)[N-]c2ccc(O)cc2)c1)c1ccco1 (3D coordinates assigned)
O=C([N-]c1cccc(S(=O)(=O)[N-]c2ccc(O)cc2)c1)c1ccco1 (optimized conformer: 71.00248087301597 kcal/mol)

>  <smiles>  (93) 
O=C(Nc1cccc(S(=O)(=O)Nc2ccc(O)cc2)c1)c1ccco1

>  <score_type>  (93) 
oracle

>  <origin>  (93) 
adg

>  <m_score__min__energy>  (93) 
-11.050000000000001

>  <m_primary>  (93) 
energy

$$$$
93:0
     RDKit          3D

 78 83  0  0  0  0  0  0  0  0999 V2000
   55.8950   29.2110   45.1520 O   0  0  0  0  0  0  0  0  0  0  0  0
   57.0890   29.0730   45.5250 C   0  0  0  0  0  0  0  0  0  0  0  0
   57.9260   30.2740   45.6830 C   0  0  0  0  0  0  0  0  0  0  0  0
   57.6760   31.5320   45.1840 C   0  0  0  0  0  0  0  0  0  0  0  0
   58.6680   32.3560   45.5640 N   0  0  0  0  0  0  0  0  0  0  0  0
   59.4900   31.5710   46.2950 C   0  0  0  0  0  0  0  0  0  0  0  0
   60.7430   32.0570   46.9140 C   0  0  0  0  0  0  0  0  0  0  0  0
   61.8000   31.1640   47.1630 C   0  0  0  0  0  0  0  0  0  0  0  0
   62.9940   31.6200   47.7270 C   0  0  0  0  0  0  0  0  0  0  0  0
   63.1590   32.9780   48.0360 C   0  0  0  0  0  0  0  0  0  0  0  0
   64.4430   33.4620   48.6460 C   0  0  0  0  0  0  0  0  0  0  0  0
   64.6910   32.7340   49.9000 N   0  0  0  0  0  0  0  0  0  0  0  0
   64.7340   33.6120   51.0810 C   0  0  0  0  0  0  0  0  0  0  0  0
   63.4310   33.5890   51.8910 C   0  0  0  0  0  0  0  0  0  0  0  0
   62.6940   32.4020   51.6080 O   0  0  0  0  0  0  0  0  0  0  0  0
   61.4040   32.3810   51.0520 C   0  0  0  0  0  0  0  0  0  0  0  0
   60.6060   33.5410   50.9930 C   0  0  0  0  0  0  0  0  0  0  0  0
   59.3310   33.4990   50.4280 C   0  0  0  0  0  0  0  0  0  0  0  0
   58.8270   32.3060   49.9120 C   0  0  0  0  0  0  0  0  0  0  0  0
   59.5970   31.1370   49.9620 C   0  0  0  0  0  0  0  0  0  0  0  0
   59.0910   29.9350   49.4450 C   0  0  0  0  0  0  0  0  0  0  0  0
   59.8570   28.7680   49.5010 C   0  0  0  0  0  0  0  0  0  0  0  0
   61.1330   28.7920   50.0680 C   0  0  0  0  0  0  0  0  0  0  0  0
   61.6510   29.9830   50.5840 C   0  0  0  0  0  0  0  0  0  0  0  0
   60.8930   31.1690   50.5380 C   0  0  0  0  0  0  0  0  0  0  0  0
   62.0980   33.8680   47.8110 C   0  0  0  0  0  0  0  0  0  0  0  0
   60.9000   33.4120   47.2520 C   0  0  0  0  0  0  0  0  0  0  0  0
   59.0640   30.2940   46.3960 N   0  0  0  0  0  0  0  0  0  0  0  0
   57.6000   27.7550   45.7990 N   0  0  0  0  0  0  0  0  0  0  0  0
   58.2000   27.4770   47.1150 C   0  0  0  0  0  0  0  0  0  0  0  0
   58.5830   25.9980   47.2610 C   0  0  0  0  0  0  0  0  0  0  0  0
   57.3880   25.0580   46.9270 C   0  0  0  0  0  0  0  0  0  0  0  0
   57.7930   23.6360   46.7460 N   0  0  0  0  0  0  0  0  0  0  0  0
   56.6900   22.6390   46.8240 C   0  0  0  0  0  0  0  0  0  0  0  0
   57.1540   21.2580   46.3550 C   0  0  0  0  0  0  0  0  0  0  0  0
   57.6020   21.2880   44.8860 C   0  0  0  0  0  0  0  0  0  0  0  0
   58.1180   22.6690   44.4470 C   0  0  0  0  0  0  0  0  0  0  0  0
   58.7470   23.4280   45.6240 C   0  0  0  0  0  0  0  0  0  0  0  0
   56.5140   25.5660   45.7440 C   0  0  0  0  0  0  0  0  0  0  0  0
   57.2290   26.6380   44.9210 C   0  0  0  0  0  0  0  0  0  0  0  0
   56.8063   31.8169   44.5737 H   0  0  0  0  0  0  0  0  0  0  0  0
   61.6861   30.0991   46.9120 H   0  0  0  0  0  0  0  0  0  0  0  0
   63.8093   30.9100   47.9299 H   0  0  0  0  0  0  0  0  0  0  0  0
   65.2727   33.2821   47.9466 H   0  0  0  0  0  0  0  0  0  0  0  0
   64.3685   34.5395   48.8543 H   0  0  0  0  0  0  0  0  0  0  0  0
   63.9590   31.9970   50.0330 H   0  0  0  0  0  0  0  0  0  0  0  0
   65.5577   33.2841   51.7321 H   0  0  0  0  0  0  0  0  0  0  0  0
   64.8806   34.6412   50.7215 H   0  0  0  0  0  0  0  0  0  0  0  0
   63.6702   33.6206   52.9642 H   0  0  0  0  0  0  0  0  0  0  0  0
   62.8224   34.4627   51.6150 H   0  0  0  0  0  0  0  0  0  0  0  0
   60.9921   34.4888   51.3963 H   0  0  0  0  0  0  0  0  0  0  0  0
   58.7198   34.4127   50.3895 H   0  0  0  0  0  0  0  0  0  0  0  0
   57.8224   32.2827   49.4646 H   0  0  0  0  0  0  0  0  0  0  0  0
   58.0879   29.9113   48.9941 H   0  0  0  0  0  0  0  0  0  0  0  0
   59.4539   27.8275   49.0973 H   0  0  0  0  0  0  0  0  0  0  0  0
   61.7323   27.8705   50.1086 H   0  0  0  0  0  0  0  0  0  0  0  0
   62.6570   29.9941   51.0288 H   0  0  0  0  0  0  0  0  0  0  0  0
   62.2091   34.9299   48.0757 H   0  0  0  0  0  0  0  0  0  0  0  0
   60.0754   34.1184   47.0758 H   0  0  0  0  0  0  0  0  0  0  0  0
   59.1038   28.0929   47.2324 H   0  0  0  0  0  0  0  0  0  0  0  0
   57.4568   27.7177   47.8894 H   0  0  0  0  0  0  0  0  0  0  0  0
   59.4139   25.7756   46.5754 H   0  0  0  0  0  0  0  0  0  0  0  0
   58.8764   25.8214   48.3063 H   0  0  0  0  0  0  0  0  0  0  0  0
   56.7477   25.0906   47.8209 H   0  0  0  0  0  0  0  0  0  0  0  0
   56.3457   22.5664   47.8662 H   0  0  0  0  0  0  0  0  0  0  0  0
   55.8736   22.9726   46.1666 H   0  0  0  0  0  0  0  0  0  0  0  0
   57.9983   20.9323   46.9804 H   0  0  0  0  0  0  0  0  0  0  0  0
   56.3095   20.5590   46.4459 H   0  0  0  0  0  0  0  0  0  0  0  0
   58.4082   20.5522   44.7496 H   0  0  0  0  0  0  0  0  0  0  0  0
   56.7237   21.0513   44.2675 H   0  0  0  0  0  0  0  0  0  0  0  0
   58.8755   22.5354   43.6606 H   0  0  0  0  0  0  0  0  0  0  0  0
   57.2665   23.2549   44.0706 H   0  0  0  0  0  0  0  0  0  0  0  0
   59.6073   22.8518   45.9953 H   0  0  0  0  0  0  0  0  0  0  0  0
   59.0507   24.4195   45.2568 H   0  0  0  0  0  0  0  0  0  0  0  0
   56.2753   24.7156   45.0883 H   0  0  0  0  0  0  0  0  0  0  0  0
   55.6013   26.0136   46.1643 H   0  0  0  0  0  0  0  0  0  0  0  0
   58.1353   26.2100   44.4677 H   0  0  0  0  0  0  0  0  0  0  0  0
   56.5605   26.9999   44.1259 H   0  0  0  0  0  0  0  0  0  0  0  0
  1  2  2  0
  2  3  1  0
  3  4  2  0
  4  5  1  0
  5  6  1  0
  6  7  1  0
  7  8  2  0
  8  9  1  0
  9 10  2  0
 10 11  1  0
 11 12  1  0
 12 13  1  0
 13 14  1  0
 14 15  1  0
 15 16  1  0
 16 17  2  0
 17 18  1  0
 18 19  2  0
 19 20  1  0
 20 21  2  0
 21 22  1  0
 22 23  2  0
 23 24  1  0
 24 25  2  0
 10 26  1  0
 26 27  2  0
  6 28  2  0
  2 29  1  0
 29 30  1  0
 30 31  1  0
 31 32  1  0
 32 33  1  0
 33 34  1  0
 34 35  1  0
 35 36  1  0
 36 37  1  0
 37 38  1  0
 32 39  1  0
 39 40  1  0
 28  3  1  0
 40 29  1  0
 27  7  1  0
 38 33  1  0
 25 16  1  0
 25 20  1  0
  4 41  1  0
  8 42  1  0
  9 43  1  0
 11 44  1  0
 11 45  1  0
 12 46  1  0
 13 47  1  0
 13 48  1  0
 14 49  1  0
 14 50  1  0
 17 51  1  0
 18 52  1  0
 19 53  1  0
 21 54  1  0
 22 55  1  0
 23 56  1  0
 24 57  1  0
 26 58  1  0
 27 59  1  0
 30 60  1  0
 30 61  1  0
 31 62  1  0
 31 63  1  0
 32 64  1  0
 34 65  1  0
 34 66  1  0
 35 67  1  0
 35 68  1  0
 36 69  1  0
 36 70  1  0
 37 71  1  0
 37 72  1  0
 38 73  1  0
 38 74  1  0
 39 75  1  0
 39 76  1  0
 40 77  1  0
 40 78  1  0
M  CHG  1   5  -1
M  END
>  <UniqueID>  (94) 
86

>  <SMILES>  (94) 
O=C(c1c[n-]c(-c2ccc(CNCCOc3cccc4ccccc34)cc2)n1)N1CCC(N2CCCCC2)CC1

>  <Energy>  (94) 
134.46912554501762

>  <Genealogy>  (94) 
O=C(c1c[n-]c(-c2ccc(CNCCOc3cccc4ccccc34)cc2)n1)N1CCC(N2CCCCC2)CC1 (protonated)
O=C(c1c[n-]c(-c2ccc(CNCCOc3cccc4ccccc34)cc2)n1)N1CCC(N2CCCCC2)CC1 (3D coordinates assigned)
O=C(c1c[n-]c(-c2ccc(CNCCOc3cccc4ccccc34)cc2)n1)N1CCC(N2CCCCC2)CC1 (nonaromatic ring conformer: 134.46912554501762 kcal/mol)

>  <smiles>  (94) 
O=C(c1c[nH]c(-c2ccc(CNCCOc3cccc4ccccc34)cc2)n1)N1CCC(N2CCCCC2)CC1

>  <score_type>  (94) 
oracle

>  <origin>  (94) 
adg

>  <m_score__min__energy>  (94) 
-11.029999999999999

>  <m_primary>  (94) 
energy

$$$$
94:0
     RDKit          3D

 44 46  0  0  0  0  0  0  0  0999 V2000
   55.3480   26.6760   45.9690 N   0  0  0  0  0  0  0  0  0  0  0  0
   56.5740   26.3790   46.2110 C   0  0  0  0  0  0  0  0  0  0  0  0
   57.2930   27.2560   46.9160 N   0  0  0  0  0  0  0  0  0  0  0  0
   58.5740   27.0840   47.2440 C   0  0  0  0  0  0  0  0  0  0  0  0
   59.4720   28.2820   48.1940 S   0  0  0  0  0  0  0  0  0  0  0  0
   60.7440   29.0550   47.1730 C   0  0  0  0  0  0  0  0  0  0  0  0
   60.2330   30.1440   46.2960 C   0  0  0  0  0  0  0  0  0  0  0  0
   58.8150   30.1440   45.8910 C   0  0  0  0  0  0  0  0  0  0  0  0
   58.4210   30.7620   44.6780 N   0  0  0  0  0  0  0  0  0  0  0  0
   58.0560   29.6800   43.7410 C   0  0  0  0  0  0  0  0  0  0  0  0
   57.1310   28.7030   44.4020 C   0  0  0  0  0  0  0  0  0  0  0  0
   55.9890   29.3940   44.7960 O   0  0  0  0  0  0  0  0  0  0  0  0
   55.9760   30.6770   44.2740 C   0  0  0  0  0  0  0  0  0  0  0  0
   57.1510   31.4970   44.8360 C   0  0  0  0  0  0  0  0  0  0  0  0
   59.1630   25.9490   46.8280 N   0  0  0  0  0  0  0  0  0  0  0  0
   58.4670   25.0270   46.1060 C   0  0  0  0  0  0  0  0  0  0  0  0
   58.9910   23.4700   45.4470 S   0  0  0  0  0  0  0  0  0  0  0  0
   57.3130   23.1000   44.7000 C   0  0  0  0  0  0  0  0  0  0  0  0
   57.0570   21.9060   43.9790 C   0  0  0  0  0  0  0  0  0  0  0  0
   57.7790   20.7140   44.2430 N   0  0  0  0  0  0  0  0  0  0  0  0
   56.1880   21.8810   43.0940 O   0  0  0  0  0  0  0  0  0  0  0  0
   56.5710   24.1970   45.0420 C   0  0  0  0  0  0  0  0  0  0  0  0
   55.1700   24.2370   44.6040 N   0  0  0  0  0  0  0  0  0  0  0  0
   57.1560   25.1720   45.7540 C   0  0  0  0  0  0  0  0  0  0  0  0
   55.1530   27.4860   45.3490 H   0  0  0  0  0  0  0  0  0  0  0  0
   61.5125   29.4769   47.8373 H   0  0  0  0  0  0  0  0  0  0  0  0
   61.1423   28.2719   46.5111 H   0  0  0  0  0  0  0  0  0  0  0  0
   60.4153   31.0919   46.8235 H   0  0  0  0  0  0  0  0  0  0  0  0
   60.7723   29.9888   45.3499 H   0  0  0  0  0  0  0  0  0  0  0  0
   58.5043   29.0908   45.8255 H   0  0  0  0  0  0  0  0  0  0  0  0
   58.3346   30.7685   46.6586 H   0  0  0  0  0  0  0  0  0  0  0  0
   57.5560   30.1148   42.8630 H   0  0  0  0  0  0  0  0  0  0  0  0
   58.9707   29.1519   43.4336 H   0  0  0  0  0  0  0  0  0  0  0  0
   56.8600   27.9067   43.6932 H   0  0  0  0  0  0  0  0  0  0  0  0
   57.6195   28.2422   45.2732 H   0  0  0  0  0  0  0  0  0  0  0  0
   56.0625   30.6235   43.1787 H   0  0  0  0  0  0  0  0  0  0  0  0
   55.0322   31.1670   44.5553 H   0  0  0  0  0  0  0  0  0  0  0  0
   57.2166   32.4523   44.2946 H   0  0  0  0  0  0  0  0  0  0  0  0
   56.9769   31.6773   45.9071 H   0  0  0  0  0  0  0  0  0  0  0  0
   60.1610   25.7330   47.0390 H   0  0  0  0  0  0  0  0  0  0  0  0
   58.7530   20.8240   44.6190 H   0  0  0  0  0  0  0  0  0  0  0  0
   57.3320   19.7910   44.0610 H   0  0  0  0  0  0  0  0  0  0  0  0
   54.5630   25.0120   44.9040 H   0  0  0  0  0  0  0  0  0  0  0  0
   54.8650   23.4420   43.9900 H   0  0  0  0  0  0  0  0  0  0  0  0
  1  2  2  3
  2  3  1  0
  3  4  2  0
  4  5  1  0
  5  6  1  0
  6  7  1  0
  7  8  1  0
  8  9  1  0
  9 10  1  0
 10 11  1  0
 11 12  1  0
 12 13  1  0
 13 14  1  0
  4 15  1  0
 15 16  1  0
 16 17  1  0
 17 18  1  0
 18 19  1  0
 19 20  1  0
 19 21  2  0
 18 22  2  0
 22 23  1  0
 22 24  1  0
 24  2  1  0
 14  9  1  0
 24 16  2  0
  1 25  1  0
  6 26  1  0
  6 27  1  0
  7 28  1  0
  7 29  1  0
  8 30  1  0
  8 31  1  0
 10 32  1  0
 10 33  1  0
 11 34  1  0
 11 35  1  0
 13 36  1  0
 13 37  1  0
 14 38  1  0
 14 39  1  0
 15 40  1  0
 20 41  1  0
 20 42  1  0
 23 43  1  0
 23 44  1  0
M  END
>  <smiles>  (95) 
N=c1nc(SCCCN2CCOCC2)[nH]c2sc(C(N)=O)c(N)c12

>  <score_type>  (95) 
oracle

>  <origin>  (95) 
adg

>  <m_score__min__energy>  (95) 
-7.6399999999999997

>  <m_primary>  (95) 
energy

$$$$
