0:0
     RDKit          3D

 34 35  0  0  1  0  0  0  0  0999 V2000
   65.2200   32.7620   49.7290 C   0  0  0  0  0  0  0  0  0  0  0  0
   64.0900   33.1660   48.8290 C   0  0  0  0  0  0  0  0  0  0  0  0
   62.8400   33.3590   49.3800 C   0  0  0  0  0  0  0  0  0  0  0  0
   61.8190   33.7310   48.5260 C   0  0  0  0  0  0  0  0  0  0  0  0
   60.6500   33.9190   48.9930 N   0  0  0  0  0  0  0  0  0  0  0  0
   59.4360   33.7650   48.2370 C   0  0  0  0  0  0  0  0  0  0  0  0
   58.5080   33.1350   48.8030 O   0  0  0  0  0  0  0  0  0  0  0  0
   59.3000   34.2890   46.9440 N   0  0  0  0  0  0  0  0  0  0  0  0
   58.1300   34.1830   46.1160 C   0  0  0  0  0  0  0  0  0  0  0  0
   58.0170   32.7300   45.7300 C   0  0  0  0  0  0  0  0  0  0  0  0
   57.2110   31.9840   45.2760 N   0  0  0  0  0  0  0  0  0  0  0  0
   57.3550   30.7050   45.0310 C   0  0  0  0  0  0  0  0  0  0  0  0
   56.2750   29.8640   44.4600 C   0  0  0  0  0  0  0  0  0  0  0  0
   56.3400   29.4130   43.2830 O   0  0  0  0  0  0  0  0  0  0  0  0
   55.1530   29.5410   45.1900 O   0  0  0  0  0  0  0  0  0  0  0  0
   58.5770   30.1930   45.3400 C   0  0  0  0  0  0  0  0  0  0  0  0
   59.1010   28.7930   45.2020 C   0  0  0  0  0  0  0  0  0  0  0  0
   59.4740   31.5880   45.9760 S   0  0  0  0  0  0  0  0  0  0  0  0
   62.0240   33.9040   47.2060 N   0  0  0  0  0  0  0  0  0  0  0  0
   63.2700   33.6990   46.7350 C   0  0  0  0  0  0  0  0  0  0  0  0
   64.3050   33.3360   47.5100 N   0  0  0  0  0  0  0  0  0  0  0  0
   64.9103   32.8727   50.7787 H   0  0  0  0  0  0  0  0  0  0  0  0
   65.4868   31.7128   49.5342 H   0  0  0  0  0  0  0  0  0  0  0  0
   66.0915   33.4042   49.5342 H   0  0  0  0  0  0  0  0  0  0  0  0
   62.6629   33.2222   50.4570 H   0  0  0  0  0  0  0  0  0  0  0  0
   60.1210   34.8030   46.5430 H   0  0  0  0  0  0  0  0  0  0  0  0
   57.2372   34.4993   46.6754 H   0  0  0  0  0  0  0  0  0  0  0  0
   58.2077   34.8282   45.2285 H   0  0  0  0  0  0  0  0  0  0  0  0
   54.8750   30.0900   45.9750 H   0  0  0  0  0  0  0  0  0  0  0  0
   59.2624   28.3618   46.2010 H   0  0  0  0  0  0  0  0  0  0  0  0
   58.3711   28.1809   44.6519 H   0  0  0  0  0  0  0  0  0  0  0  0
   60.0534   28.8105   44.6519 H   0  0  0  0  0  0  0  0  0  0  0  0
   63.4488   33.8363   45.6583 H   0  0  0  0  0  0  0  0  0  0  0  0
   65.2720   33.1770   47.1440 H   0  0  0  0  0  0  0  0  0  0  0  0
  1  2  1  0
  2  3  2  0
  3  4  1  0
  4  5  2  0
  5  6  1  0
  6  7  2  0
  6  8  1  0
  8  9  1  0
  9 10  1  0
 10 11  2  0
 11 12  1  0
 12 13  1  0
 13 14  2  0
 13 15  1  0
 12 16  2  0
 16 17  1  0
 16 18  1  0
  4 19  1  0
 19 20  2  0
 20 21  1  0
 21  2  1  0
 18 10  1  0
  1 22  1  0
  1 23  1  0
  1 24  1  0
  3 25  1  0
  8 26  1  0
  9 27  1  0
  9 28  1  0
 15 29  1  0
 17 30  1  0
 17 31  1  0
 17 32  1  0
 20 33  1  0
 21 34  1  0
M  END
>  <smiles>  (1) 
Cc1cc(=NC(=O)NCc2nc(C(=O)O)c(C)s2)nc[nH]1

>  <score_type>  (1) 
oracle

>  <origin>  (1) 
adg

>  <m_score__min__energy>  (1) 
-8.3499999999999996

>  <m_primary>  (1) 
energy

$$$$
1:0
     RDKit          3D

 43 45  0  0  0  0  0  0  0  0999 V2000
   54.9450   26.2310   45.9990 N   0  0  0  0  0  0  0  0  0  0  0  0
   56.6410   25.9080   46.0550 S   0  0  0  0  0  0  0  0  0  0  0  0
   57.0460   25.5840   47.4650 O   0  0  0  0  0  0  0  0  0  0  0  0
   56.9510   24.7290   45.1780 O   0  0  0  0  0  0  0  0  0  0  0  0
   57.5270   27.3210   45.4930 C   0  0  0  0  0  0  0  0  0  0  0  0
   58.8290   27.1860   44.9960 C   0  0  0  0  0  0  0  0  0  0  0  0
   59.5190   28.3090   44.5300 C   0  0  0  0  0  0  0  0  0  0  0  0
   58.9170   29.5690   44.5660 C   0  0  0  0  0  0  0  0  0  0  0  0
   57.6120   29.7190   45.0680 C   0  0  0  0  0  0  0  0  0  0  0  0
   56.9400   30.9880   45.1200 N   0  0  0  0  0  0  0  0  0  0  0  0
   57.6340   32.5630   44.8810 S   0  0  0  0  0  0  0  0  0  0  0  0
   58.0590   32.7540   43.4520 O   0  0  0  0  0  0  0  0  0  0  0  0
   56.5780   33.5890   45.1830 O   0  0  0  0  0  0  0  0  0  0  0  0
   59.0030   32.7980   45.9690 C   0  0  0  0  0  0  0  0  0  0  0  0
   59.2840   31.8570   46.9680 C   0  0  0  0  0  0  0  0  0  0  0  0
   60.3670   32.0440   47.8300 C   0  0  0  0  0  0  0  0  0  0  0  0
   61.1900   33.1740   47.7000 C   0  0  0  0  0  0  0  0  0  0  0  0
   62.3090   33.3610   48.5880 N   0  0  0  0  0  0  0  0  0  0  0  0
   62.1040   33.8730   49.9200 C   0  0  0  0  0  0  0  0  0  0  0  0
   60.9440   34.1660   50.3220 O   0  0  0  0  0  0  0  0  0  0  0  0
   63.2690   34.0970   50.8370 C   0  0  0  0  0  0  0  0  0  0  0  0
   64.3670   33.0700   50.5590 C   0  0  0  0  0  0  0  0  0  0  0  0
   64.8110   33.1230   49.0960 C   0  0  0  0  0  0  0  0  0  0  0  0
   63.6400   32.9990   48.1620 C   0  0  0  0  0  0  0  0  0  0  0  0
   63.8500   32.6430   46.9710 O   0  0  0  0  0  0  0  0  0  0  0  0
   60.9090   34.1150   46.6980 C   0  0  0  0  0  0  0  0  0  0  0  0
   59.8200   33.9300   45.8420 C   0  0  0  0  0  0  0  0  0  0  0  0
   56.9230   28.5870   45.5210 C   0  0  0  0  0  0  0  0  0  0  0  0
   54.7580   26.7230   45.0970 H   0  0  0  0  0  0  0  0  0  0  0  0
   59.3089   26.1965   44.9722 H   0  0  0  0  0  0  0  0  0  0  0  0
   60.5393   28.2001   44.1337 H   0  0  0  0  0  0  0  0  0  0  0  0
   59.4667   30.4486   44.1997 H   0  0  0  0  0  0  0  0  0  0  0  0
   58.6481   30.9657   47.0742 H   0  0  0  0  0  0  0  0  0  0  0  0
   60.5762   31.3021   48.6148 H   0  0  0  0  0  0  0  0  0  0  0  0
   63.6690   35.1089   50.6753 H   0  0  0  0  0  0  0  0  0  0  0  0
   62.9315   33.9876   51.8782 H   0  0  0  0  0  0  0  0  0  0  0  0
   65.2313   33.2839   51.2050 H   0  0  0  0  0  0  0  0  0  0  0  0
   63.9683   32.0662   50.7676 H   0  0  0  0  0  0  0  0  0  0  0  0
   65.3169   34.0819   48.9102 H   0  0  0  0  0  0  0  0  0  0  0  0
   65.4922   32.2795   48.9105 H   0  0  0  0  0  0  0  0  0  0  0  0
   61.5489   35.0026   46.5857 H   0  0  0  0  0  0  0  0  0  0  0  0
   59.6027   34.6768   45.0642 H   0  0  0  0  0  0  0  0  0  0  0  0
   55.8968   28.6916   45.9030 H   0  0  0  0  0  0  0  0  0  0  0  0
  1  2  1  0
  2  3  2  0
  2  4  2  0
  2  5  1  0
  5  6  2  0
  6  7  1  0
  7  8  2  0
  8  9  1  0
  9 10  1  0
 10 11  1  0
 11 12  2  0
 11 13  2  0
 11 14  1  0
 14 15  2  0
 15 16  1  0
 16 17  2  0
 17 18  1  0
 18 19  1  0
 19 20  2  0
 19 21  1  0
 21 22  1  0
 22 23  1  0
 23 24  1  0
 24 25  2  0
 17 26  1  0
 26 27  2  0
  9 28  2  0
 28  5  1  0
 27 14  1  0
 24 18  1  0
  1 29  1  0
  6 30  1  0
  7 31  1  0
  8 32  1  0
 15 33  1  0
 16 34  1  0
 21 35  1  0
 21 36  1  0
 22 37  1  0
 22 38  1  0
 23 39  1  0
 23 40  1  0
 26 41  1  0
 27 42  1  0
 28 43  1  0
M  CHG  2   1  -1  10  -1
M  END
>  <UniqueID>  (2) 
1

>  <SMILES>  (2) 
[NH-]S(=O)(=O)c1cccc([N-]S(=O)(=O)c2ccc(N3C(=O)CCCC3=O)cc2)c1

>  <Energy>  (2) 
53.88909786786279

>  <Genealogy>  (2) 
[NH-]S(=O)(=O)c1cccc([N-]S(=O)(=O)c2ccc(N3C(=O)CCCC3=O)cc2)c1 (protonated)
[NH-]S(=O)(=O)c1cccc([N-]S(=O)(=O)c2ccc(N3C(=O)CCCC3=O)cc2)c1 (3D coordinates assigned)
[NH-]S(=O)(=O)c1cccc([N-]S(=O)(=O)c2ccc(N3C(=O)CCCC3=O)cc2)c1 (nonaromatic ring conformer: 53.88909786786279 kcal/mol)

>  <smiles>  (2) 
NS(=O)(=O)c1cccc(NS(=O)(=O)c2ccc(N3C(=O)CCCC3=O)cc2)c1

>  <score_type>  (2) 
oracle

>  <origin>  (2) 
adg

>  <m_score__min__energy>  (2) 
-14.06

>  <m_primary>  (2) 
energy

$$$$
2:0
     RDKit          3D

 31 34  0  0  0  0  0  0  0  0999 V2000
   57.3500   22.7430   47.9310 O   0  0  0  0  0  0  0  0  0  0  0  0
   57.3420   23.7030   47.1150 C   0  0  0  0  0  0  0  0  0  0  0  0
   57.5660   24.9670   47.5740 N   0  0  0  0  0  0  0  0  0  0  0  0
   57.5600   26.0050   46.7050 C   0  0  0  0  0  0  0  0  0  0  0  0
   57.7690   27.3300   47.0090 C   0  0  0  0  0  0  0  0  0  0  0  0
   57.6630   28.0050   45.7940 C   0  0  0  0  0  0  0  0  0  0  0  0
   57.8090   29.4680   45.5830 C   0  0  0  0  0  0  0  0  0  0  0  0
   57.2310   30.0930   44.4610 C   0  0  0  0  0  0  0  0  0  0  0  0
   57.3690   31.4700   44.2640 C   0  0  0  0  0  0  0  0  0  0  0  0
   58.0860   32.2410   45.1810 C   0  0  0  0  0  0  0  0  0  0  0  0
   58.2600   33.9690   44.9300 Cl  0  0  0  0  0  0  0  0  0  0  0  0
   58.6670   31.6350   46.2980 C   0  0  0  0  0  0  0  0  0  0  0  0
   58.5310   30.2590   46.5000 C   0  0  0  0  0  0  0  0  0  0  0  0
   57.3970   27.0460   44.8170 C   0  0  0  0  0  0  0  0  0  0  0  0
   57.3370   25.8270   45.3930 N   0  0  0  0  0  0  0  0  0  0  0  0
   57.1080   24.5940   44.8590 C   0  0  0  0  0  0  0  0  0  0  0  0
   56.8740   24.3990   43.4850 C   0  0  0  0  0  0  0  0  0  0  0  0
   56.6430   23.1130   42.9900 C   0  0  0  0  0  0  0  0  0  0  0  0
   56.6420   22.0140   43.8530 C   0  0  0  0  0  0  0  0  0  0  0  0
   56.8710   22.1910   45.2200 C   0  0  0  0  0  0  0  0  0  0  0  0
   57.1050   23.4780   45.7360 C   0  0  0  0  0  0  0  0  0  0  0  0
   57.9755   27.7639   47.9985 H   0  0  0  0  0  0  0  0  0  0  0  0
   56.6659   29.4922   43.7332 H   0  0  0  0  0  0  0  0  0  0  0  0
   56.9117   31.9472   43.3847 H   0  0  0  0  0  0  0  0  0  0  0  0
   59.2326   32.2424   47.0199 H   0  0  0  0  0  0  0  0  0  0  0  0
   58.9911   29.7891   47.3818 H   0  0  0  0  0  0  0  0  0  0  0  0
   57.2579   27.2510   43.7453 H   0  0  0  0  0  0  0  0  0  0  0  0
   56.8730   25.2598   42.8002 H   0  0  0  0  0  0  0  0  0  0  0  0
   56.4610   22.9649   41.9153 H   0  0  0  0  0  0  0  0  0  0  0  0
   56.4601   21.0050   43.4544 H   0  0  0  0  0  0  0  0  0  0  0  0
   56.8682   21.3217   45.8940 H   0  0  0  0  0  0  0  0  0  0  0  0
  1  2  2  0
  2  3  1  0
  3  4  1  0
  4  5  2  0
  5  6  1  0
  6  7  1  0
  7  8  2  0
  8  9  1  0
  9 10  2  0
 10 11  1  0
 10 12  1  0
 12 13  2  0
  6 14  2  0
 14 15  1  0
 15 16  1  0
 16 17  2  0
 17 18  1  0
 18 19  2  0
 19 20  1  0
 20 21  2  0
 21  2  1  0
 15  4  1  0
 21 16  1  0
 13  7  1  0
  5 22  1  0
  8 23  1  0
  9 24  1  0
 12 25  1  0
 13 26  1  0
 14 27  1  0
 17 28  1  0
 18 29  1  0
 19 30  1  0
 20 31  1  0
M  CHG  1   3  -1
M  END
>  <UniqueID>  (3) 
2

>  <SMILES>  (3) 
O=c1[n-]c2cc(-c3ccc(Cl)cc3)cn2c2ccccc12

>  <Energy>  (3) 
76.3057193581671

>  <Genealogy>  (3) 
O=c1[n-]c2cc(-c3ccc(Cl)cc3)cn2c2ccccc12 (protonated)
O=c1[n-]c2cc(-c3ccc(Cl)cc3)cn2c2ccccc12 (3D coordinates assigned)
O=c1[n-]c2cc(-c3ccc(Cl)cc3)cn2c2ccccc12 (optimized conformer: 76.3057193581671 kcal/mol)

>  <smiles>  (3) 
O=c1[nH]c2cc(-c3ccc(Cl)cc3)cn2c2ccccc12

>  <score_type>  (3) 
oracle

>  <origin>  (3) 
adg

>  <m_score__min__energy>  (3) 
-8.5999999999999996

>  <m_primary>  (3) 
energy

$$$$
3:0
     RDKit          3D

 58 60  0  0  0  0  0  0  0  0999 V2000
   59.6040   34.9510   45.8080 C   0  0  0  0  0  0  0  0  0  0  0  0
   59.0130   34.6740   47.0610 O   0  0  0  0  0  0  0  0  0  0  0  0
   60.0170   34.4350   48.0330 C   0  0  0  0  0  0  0  0  0  0  0  0
   59.5350   33.5210   49.1510 C   0  0  0  0  0  0  0  0  0  0  0  0
   59.7920   33.8690   50.4960 C   0  0  0  0  0  0  0  0  0  0  0  0
   59.3950   33.0350   51.5420 C   0  0  0  0  0  0  0  0  0  0  0  0
   58.7550   31.8280   51.2730 C   0  0  0  0  0  0  0  0  0  0  0  0
   58.5190   31.4460   49.9530 C   0  0  0  0  0  0  0  0  0  0  0  0
   58.9080   32.2680   48.8800 C   0  0  0  0  0  0  0  0  0  0  0  0
   58.6340   31.7540   47.4810 C   0  0  0  0  0  0  0  0  0  0  0  0
   59.4540   30.5600   47.2080 N   0  0  0  0  0  0  0  0  0  0  0  0
   60.7740   30.7550   46.5930 C   0  0  0  0  0  0  0  0  0  0  0  0
   61.7160   31.3360   47.6000 C   0  0  0  0  0  0  0  0  0  0  0  0
   62.6030   32.3750   47.3730 C   0  0  0  0  0  0  0  0  0  0  0  0
   63.2270   32.6020   48.5810 C   0  0  0  0  0  0  0  0  0  0  0  0
   62.6850   31.6840   49.4640 C   0  0  0  0  0  0  0  0  0  0  0  0
   63.0210   31.5660   50.9130 C   0  0  0  0  0  0  0  0  0  0  0  0
   61.7850   30.9480   48.8530 O   0  0  0  0  0  0  0  0  0  0  0  0
   59.0280   29.2230   47.5670 C   0  0  0  0  0  0  0  0  0  0  0  0
   58.9250   28.9150   48.7910 O   0  0  0  0  0  0  0  0  0  0  0  0
   58.6030   28.2040   46.5350 C   0  0  0  0  0  0  0  0  0  0  0  0
   57.8260   28.8470   45.4820 N   0  0  0  0  0  0  0  0  0  0  0  0
   56.4390   28.5960   45.2380 C   0  0  0  0  0  0  0  0  0  0  0  0
   55.9020   27.5210   45.6210 O   0  0  0  0  0  0  0  0  0  0  0  0
   55.6120   29.6340   44.5500 C   0  0  0  0  0  0  0  0  0  0  0  0
   56.4960   30.7060   43.9670 C   0  0  0  0  0  0  0  0  0  0  0  0
   57.0140   31.7240   44.7850 C   0  0  0  0  0  0  0  0  0  0  0  0
   57.8400   32.7130   44.2400 C   0  0  0  0  0  0  0  0  0  0  0  0
   58.1650   32.6840   42.8790 C   0  0  0  0  0  0  0  0  0  0  0  0
   57.6700   31.6630   42.0630 C   0  0  0  0  0  0  0  0  0  0  0  0
   56.8370   30.6790   42.6020 C   0  0  0  0  0  0  0  0  0  0  0  0
   60.5902   35.4132   45.9619 H   0  0  0  0  0  0  0  0  0  0  0  0
   59.7221   34.0145   45.2432 H   0  0  0  0  0  0  0  0  0  0  0  0
   58.9598   35.6410   45.2432 H   0  0  0  0  0  0  0  0  0  0  0  0
   60.8812   33.9655   47.5404 H   0  0  0  0  0  0  0  0  0  0  0  0
   60.2863   35.4022   48.4825 H   0  0  0  0  0  0  0  0  0  0  0  0
   60.3127   34.8112   50.7220 H   0  0  0  0  0  0  0  0  0  0  0  0
   59.5884   33.3323   52.5832 H   0  0  0  0  0  0  0  0  0  0  0  0
   58.4362   31.1770   52.1004 H   0  0  0  0  0  0  0  0  0  0  0  0
   58.0209   30.4870   49.7476 H   0  0  0  0  0  0  0  0  0  0  0  0
   57.5694   31.4918   47.3922 H   0  0  0  0  0  0  0  0  0  0  0  0
   58.8893   32.5388   46.7537 H   0  0  0  0  0  0  0  0  0  0  0  0
   61.1622   29.7865   46.2446 H   0  0  0  0  0  0  0  0  0  0  0  0
   60.6814   31.4431   45.7398 H   0  0  0  0  0  0  0  0  0  0  0  0
   62.7740   32.9080   46.4261 H   0  0  0  0  0  0  0  0  0  0  0  0
   63.9969   33.3570   48.7985 H   0  0  0  0  0  0  0  0  0  0  0  0
   62.1533   31.8707   51.5166 H   0  0  0  0  0  0  0  0  0  0  0  0
   63.2811   30.5227   51.1453 H   0  0  0  0  0  0  0  0  0  0  0  0
   63.8763   32.2176   51.1453 H   0  0  0  0  0  0  0  0  0  0  0  0
   59.4970   27.7388   46.0942 H   0  0  0  0  0  0  0  0  0  0  0  0
   57.9820   27.4377   47.0220 H   0  0  0  0  0  0  0  0  0  0  0  0
   55.0346   29.1609   43.7421 H   0  0  0  0  0  0  0  0  0  0  0  0
   54.9307   30.0916   45.2824 H   0  0  0  0  0  0  0  0  0  0  0  0
   56.7694   31.7435   45.8573 H   0  0  0  0  0  0  0  0  0  0  0  0
   58.2345   33.5144   44.8820 H   0  0  0  0  0  0  0  0  0  0  0  0
   58.8105   33.4653   42.4513 H   0  0  0  0  0  0  0  0  0  0  0  0
   57.9362   31.6340   40.9961 H   0  0  0  0  0  0  0  0  0  0  0  0
   56.4458   29.8792   41.9560 H   0  0  0  0  0  0  0  0  0  0  0  0
  1  2  1  0
  2  3  1  0
  3  4  1  0
  4  5  2  0
  5  6  1  0
  6  7  2  0
  7  8  1  0
  8  9  2  0
  9 10  1  0
 10 11  1  0
 11 12  1  0
 12 13  1  0
 13 14  2  0
 14 15  1  0
 15 16  2  0
 16 17  1  0
 16 18  1  0
 11 19  1  0
 19 20  2  0
 19 21  1  0
 21 22  1  0
 22 23  1  0
 23 24  2  0
 23 25  1  0
 25 26  1  0
 26 27  2  0
 27 28  1  0
 28 29  2  0
 29 30  1  0
 30 31  2  0
  9  4  1  0
 18 13  1  0
 31 26  1  0
  1 32  1  0
  1 33  1  0
  1 34  1  0
  3 35  1  0
  3 36  1  0
  5 37  1  0
  6 38  1  0
  7 39  1  0
  8 40  1  0
 10 41  1  0
 10 42  1  0
 12 43  1  0
 12 44  1  0
 14 45  1  0
 15 46  1  0
 17 47  1  0
 17 48  1  0
 17 49  1  0
 21 50  1  0
 21 51  1  0
 25 52  1  0
 25 53  1  0
 27 54  1  0
 28 55  1  0
 29 56  1  0
 30 57  1  0
 31 58  1  0
M  CHG  1  22  -1
M  END
>  <UniqueID>  (4) 
3

>  <SMILES>  (4) 
COCc1ccccc1CN(Cc1ccc(C)o1)C(=O)C[N-]C(=O)Cc1ccccc1

>  <Energy>  (4) 
86.91742272355167

>  <Genealogy>  (4) 
COCc1ccccc1CN(Cc1ccc(C)o1)C(=O)C[N-]C(=O)Cc1ccccc1 (protonated)
COCc1ccccc1CN(Cc1ccc(C)o1)C(=O)C[N-]C(=O)Cc1ccccc1 (3D coordinates assigned)
COCc1ccccc1CN(Cc1ccc(C)o1)C(=O)C[N-]C(=O)Cc1ccccc1 (optimized conformer: 86.91742272355167 kcal/mol)

>  <smiles>  (4) 
COCc1ccccc1CN(Cc1ccc(C)o1)C(=O)CNC(=O)Cc1ccccc1

>  <score_type>  (4) 
oracle

>  <origin>  (4) 
adg

>  <m_score__min__energy>  (4) 
-11.140000000000001

>  <m_primary>  (4) 
energy

$$$$
4:0
     RDKit          3D

 41 42  0  0  0  0  0  0  0  0999 V2000
   54.7220   30.8760   44.3880 H   0  0  0  0  0  0  0  0  0  0  0  0
   55.7620   30.7880   44.3270 N   0  0  0  0  0  0  0  0  0  0  0  0
   56.3670   29.6970   44.6650 C   0  0  0  0  0  0  0  0  0  0  0  0
   57.6970   29.5510   44.4350 N   0  0  0  0  0  0  0  0  0  0  0  0
   58.3280   28.4020   44.7890 C   0  0  0  0  0  0  0  0  0  0  0  0
   59.7950   28.2430   44.5400 C   0  0  0  0  0  0  0  0  0  0  0  0
   60.0374   28.6561   43.5497 H   0  0  0  0  0  0  0  0  0  0  0  0
   60.0411   27.1718   44.5853 H   0  0  0  0  0  0  0  0  0  0  0  0
   60.7810   29.1160   45.8070 S   0  0  0  0  0  0  0  0  0  0  0  0
   60.0990   28.2920   47.2980 C   0  0  0  0  0  0  0  0  0  0  0  0
   60.9185   28.1126   48.0095 H   0  0  0  0  0  0  0  0  0  0  0  0
   59.6321   27.3486   46.9784 H   0  0  0  0  0  0  0  0  0  0  0  0
   59.0210   29.1410   47.9890 C   0  0  0  0  0  0  0  0  0  0  0  0
   59.5104   29.8437   48.6794 H   0  0  0  0  0  0  0  0  0  0  0  0
   58.3453   28.4605   48.5278 H   0  0  0  0  0  0  0  0  0  0  0  0
   58.2230   29.9030   47.0250 N   0  0  0  0  0  0  0  0  0  0  0  0
   57.4530   29.4290   46.5030 H   0  0  0  0  0  0  0  0  0  0  0  0
   58.4700   31.2870   46.7240 C   0  0  0  0  0  0  0  0  0  0  0  0
   59.7680   32.0720   47.3650 S   0  0  0  0  0  0  0  0  0  0  0  0
   57.6370   31.9620   45.7650 N   0  0  0  0  0  0  0  0  0  0  0  0
   56.6300   31.8710   46.0310 H   0  0  0  0  0  0  0  0  0  0  0  0
   57.7710   31.5260   44.8230 H   0  0  0  0  0  0  0  0  0  0  0  0
   57.9940   33.3790   45.6960 C   0  0  0  0  0  0  0  0  0  0  0  0
   58.0954   33.7816   46.7146 H   0  0  0  0  0  0  0  0  0  0  0  0
   58.9484   33.4910   45.1607 H   0  0  0  0  0  0  0  0  0  0  0  0
   57.2066   33.9299   45.1607 H   0  0  0  0  0  0  0  0  0  0  0  0
   57.6240   27.3980   45.3710 N   0  0  0  0  0  0  0  0  0  0  0  0
   56.2960   27.5410   45.6150 C   0  0  0  0  0  0  0  0  0  0  0  0
   55.6420   26.5550   46.1570 N   0  0  0  0  0  0  0  0  0  0  0  0
   55.5900   25.1950   45.6940 C   0  0  0  0  0  0  0  0  0  0  0  0
   56.7920   24.5430   45.3860 C   0  0  0  0  0  0  0  0  0  0  0  0
   57.7454   25.0840   45.4770 H   0  0  0  0  0  0  0  0  0  0  0  0
   56.7880   23.2100   44.9640 C   0  0  0  0  0  0  0  0  0  0  0  0
   57.7347   22.7116   44.7082 H   0  0  0  0  0  0  0  0  0  0  0  0
   55.5830   22.5110   44.8670 C   0  0  0  0  0  0  0  0  0  0  0  0
   55.5796   21.4652   44.5260 H   0  0  0  0  0  0  0  0  0  0  0  0
   54.3820   23.1400   45.2030 C   0  0  0  0  0  0  0  0  0  0  0  0
   53.4346   22.5850   45.1364 H   0  0  0  0  0  0  0  0  0  0  0  0
   54.3810   24.4740   45.6240 C   0  0  0  0  0  0  0  0  0  0  0  0
   53.4346   24.9613   45.9010 H   0  0  0  0  0  0  0  0  0  0  0  0
   55.6700   28.6920   45.2500 N   0  0  0  0  0  0  0  0  0  0  0  0
  1  2  1  0
  2  3  2  3
  3  4  1  0
  4  5  2  0
  5  6  1  0
  6  7  1  0
  6  8  1  0
  6  9  1  0
  9 10  1  0
 10 11  1  0
 10 12  1  0
 10 13  1  0
 13 14  1  0
 13 15  1  0
 13 16  1  0
 16 17  1  0
 16 18  1  0
 18 19  2  0
 18 20  1  0
 20 21  1  0
 20 22  1  0
 20 23  1  0
 23 24  1  0
 23 25  1  0
 23 26  1  0
  5 27  1  0
 27 28  1  0
 28 29  2  0
 29 30  1  0
 30 31  2  0
 31 32  1  0
 31 33  1  0
 33 34  1  0
 33 35  2  0
 35 36  1  0
 35 37  1  0
 37 38  1  0
 37 39  2  0
 39 40  1  0
 28 41  1  0
 41  3  1  0
 39 30  1  0
M  CHG  3  20   1  27  -1  41  -1
M  END
>  <UniqueID>  (5) 
4

>  <SMILES>  (5) 
C[NH2+]C(=S)NCCSCc1nc(=N)[n-]/c(=N\c2ccccc2)[n-]1

>  <Energy>  (5) 
41.17583858708588

>  <Genealogy>  (5) 
C[NH2+]C(=S)NCCSCc1nc(=N)[n-]c(=Nc2ccccc2)[n-]1 (protonated)
C[NH2+]C(=S)NCCSCc1nc(=N)[n-]/c(=N\c2ccccc2)[n-]1 (cis-trans isomerization)
C[NH2+]C(=S)NCCSCc1nc(=N)[n-]/c(=N\c2ccccc2)[n-]1 (3D coordinates assigned)
C[NH2+]C(=S)NCCSCc1nc(=N)[n-]/c(=N\c2ccccc2)[n-]1 (optimized conformer: 41.17583858708588 kcal/mol)

>  <smiles>  (5) 
CNC(=S)NCCSCc1nc(=N)[nH]c(=Nc2ccccc2)[nH]1

>  <score_type>  (5) 
oracle

>  <origin>  (5) 
adg

>  <m_score__min__energy>  (5) 
-7.5499999999999998

>  <m_primary>  (5) 
energy

$$$$
5:0
     RDKit          3D

 64 67  0  0  0  0  0  0  0  0999 V2000
   53.5920   23.4220   44.7920 N   0  0  0  0  0  0  0  0  0  0  0  0
   54.8500   24.0120   45.8210 S   0  0  0  0  0  0  0  0  0  0  0  0
   54.4890   23.7150   47.2480 O   0  0  0  0  0  0  0  0  0  0  0  0
   54.9620   25.4990   45.6280 O   0  0  0  0  0  0  0  0  0  0  0  0
   56.3890   23.2280   45.4180 C   0  0  0  0  0  0  0  0  0  0  0  0
   56.4070   21.8330   45.2580 C   0  0  0  0  0  0  0  0  0  0  0  0
   57.5830   21.1730   44.8920 C   0  0  0  0  0  0  0  0  0  0  0  0
   58.7550   21.8980   44.6800 C   0  0  0  0  0  0  0  0  0  0  0  0
   58.7590   23.2840   44.8470 C   0  0  0  0  0  0  0  0  0  0  0  0
   57.5890   23.9620   45.2280 C   0  0  0  0  0  0  0  0  0  0  0  0
   57.6480   25.4290   45.3970 C   0  0  0  0  0  0  0  0  0  0  0  0
   57.7600   26.2610   44.2730 C   0  0  0  0  0  0  0  0  0  0  0  0
   57.7400   27.6490   44.4220 C   0  0  0  0  0  0  0  0  0  0  0  0
   57.5900   28.2260   45.6890 C   0  0  0  0  0  0  0  0  0  0  0  0
   57.4210   29.6490   45.7770 N   0  0  0  0  0  0  0  0  0  0  0  0
   56.7080   30.4690   44.8410 C   0  0  0  0  0  0  0  0  0  0  0  0
   55.5310   30.1830   44.4930 O   0  0  0  0  0  0  0  0  0  0  0  0
   57.4100   31.6200   44.1750 C   0  0  0  0  0  0  0  0  0  0  0  0
   57.0700   32.9780   44.8200 C   0  0  0  0  0  0  0  0  0  0  0  0
   58.0830   33.3980   45.8600 C   0  0  0  0  0  0  0  0  0  0  0  0
   59.2710   34.0410   45.4820 C   0  0  0  0  0  0  0  0  0  0  0  0
   60.2660   34.3000   46.4310 C   0  0  0  0  0  0  0  0  0  0  0  0
   60.0950   33.9050   47.7710 C   0  0  0  0  0  0  0  0  0  0  0  0
   61.1650   34.1170   48.7680 C   0  0  0  0  0  0  0  0  0  0  0  0
   60.8870   34.1800   49.9950 O   0  0  0  0  0  0  0  0  0  0  0  0
   62.5200   34.2670   48.3330 N   0  0  0  0  0  0  0  0  0  0  0  0
   63.4760   33.1700   48.2680 C   0  0  0  0  0  0  0  0  0  0  0  0
   63.0690   32.1770   47.1770 C   0  0  0  0  0  0  0  0  0  0  0  0
   62.0160   31.2150   47.6620 C   0  0  0  0  0  0  0  0  0  0  0  0
   61.9000   30.9250   49.0320 C   0  0  0  0  0  0  0  0  0  0  0  0
   60.8980   30.0630   49.4860 C   0  0  0  0  0  0  0  0  0  0  0  0
   59.9980   29.4940   48.5790 C   0  0  0  0  0  0  0  0  0  0  0  0
   60.1010   29.7870   47.2160 C   0  0  0  0  0  0  0  0  0  0  0  0
   61.1050   30.6440   46.7570 C   0  0  0  0  0  0  0  0  0  0  0  0
   58.8920   33.2840   48.1480 C   0  0  0  0  0  0  0  0  0  0  0  0
   57.8910   33.0460   47.2040 C   0  0  0  0  0  0  0  0  0  0  0  0
   57.5670   27.3950   46.8220 C   0  0  0  0  0  0  0  0  0  0  0  0
   57.6010   26.0050   46.6750 C   0  0  0  0  0  0  0  0  0  0  0  0
   54.0080   22.6640   44.2050 H   0  0  0  0  0  0  0  0  0  0  0  0
   55.4862   21.2541   45.4224 H   0  0  0  0  0  0  0  0  0  0  0  0
   57.5842   20.0797   44.7709 H   0  0  0  0  0  0  0  0  0  0  0  0
   59.6769   21.3776   44.3810 H   0  0  0  0  0  0  0  0  0  0  0  0
   59.6868   23.8505   44.6787 H   0  0  0  0  0  0  0  0  0  0  0  0
   57.8639   25.8184   43.2713 H   0  0  0  0  0  0  0  0  0  0  0  0
   57.8429   28.2944   43.5372 H   0  0  0  0  0  0  0  0  0  0  0  0
   58.4958   31.4587   44.2462 H   0  0  0  0  0  0  0  0  0  0  0  0
   57.0715   31.6551   43.1290 H   0  0  0  0  0  0  0  0  0  0  0  0
   57.0367   33.7440   44.0313 H   0  0  0  0  0  0  0  0  0  0  0  0
   56.0985   32.8727   45.3250 H   0  0  0  0  0  0  0  0  0  0  0  0
   59.4210   34.3429   44.4349 H   0  0  0  0  0  0  0  0  0  0  0  0
   61.1887   34.8162   46.1275 H   0  0  0  0  0  0  0  0  0  0  0  0
   64.4744   33.5714   48.0397 H   0  0  0  0  0  0  0  0  0  0  0  0
   63.4922   32.6507   49.2375 H   0  0  0  0  0  0  0  0  0  0  0  0
   62.6719   32.7359   46.3168 H   0  0  0  0  0  0  0  0  0  0  0  0
   63.9590   31.5960   46.8936 H   0  0  0  0  0  0  0  0  0  0  0  0
   62.6001   31.3779   49.7494 H   0  0  0  0  0  0  0  0  0  0  0  0
   60.8170   29.8316   50.5583 H   0  0  0  0  0  0  0  0  0  0  0  0
   59.2095   28.8163   48.9381 H   0  0  0  0  0  0  0  0  0  0  0  0
   59.3906   29.3423   46.5036 H   0  0  0  0  0  0  0  0  0  0  0  0
   61.1824   30.8724   45.6838 H   0  0  0  0  0  0  0  0  0  0  0  0
   58.7378   32.9831   49.1947 H   0  0  0  0  0  0  0  0  0  0  0  0
   56.9453   32.5792   47.5166 H   0  0  0  0  0  0  0  0  0  0  0  0
   57.5221   27.8393   47.8273 H   0  0  0  0  0  0  0  0  0  0  0  0
   57.5908   25.3600   47.5660 H   0  0  0  0  0  0  0  0  0  0  0  0
  1  2  1  0
  2  3  2  0
  2  4  2  0
  2  5  1  0
  5  6  2  0
  6  7  1  0
  7  8  2  0
  8  9  1  0
  9 10  2  0
 10 11  1  0
 11 12  2  0
 12 13  1  0
 13 14  2  0
 14 15  1  0
 15 16  1  0
 16 17  2  0
 16 18  1  0
 18 19  1  0
 19 20  1  0
 20 21  2  0
 21 22  1  0
 22 23  2  0
 23 24  1  0
 24 25  2  0
 24 26  1  0
 26 27  1  0
 27 28  1  0
 28 29  1  0
 29 30  2  0
 30 31  1  0
 31 32  2  0
 32 33  1  0
 33 34  2  0
 23 35  1  0
 35 36  2  0
 14 37  1  0
 37 38  2  0
 10  5  1  0
 38 11  1  0
 36 20  1  0
 34 29  1  0
  1 39  1  0
  6 40  1  0
  7 41  1  0
  8 42  1  0
  9 43  1  0
 12 44  1  0
 13 45  1  0
 18 46  1  0
 18 47  1  0
 19 48  1  0
 19 49  1  0
 21 50  1  0
 22 51  1  0
 27 52  1  0
 27 53  1  0
 28 54  1  0
 28 55  1  0
 30 56  1  0
 31 57  1  0
 32 58  1  0
 33 59  1  0
 34 60  1  0
 35 61  1  0
 36 62  1  0
 37 63  1  0
 38 64  1  0
M  CHG  3   1  -1  15  -1  26  -1
M  END
>  <UniqueID>  (6) 
5

>  <SMILES>  (6) 
[NH-]S(=O)(=O)c1ccccc1-c1ccc([N-]C(=O)CCc2ccc(C(=O)[N-]CCc3ccccc3)cc2)cc1

>  <Energy>  (6) 
70.63702403520536

>  <Genealogy>  (6) 
[NH-]S(=O)(=O)c1ccccc1-c1ccc([N-]C(=O)CCc2ccc(C(=O)[N-]CCc3ccccc3)cc2)cc1 (protonated)
[NH-]S(=O)(=O)c1ccccc1-c1ccc([N-]C(=O)CCc2ccc(C(=O)[N-]CCc3ccccc3)cc2)cc1 (3D coordinates assigned)
[NH-]S(=O)(=O)c1ccccc1-c1ccc([N-]C(=O)CCc2ccc(C(=O)[N-]CCc3ccccc3)cc2)cc1 (optimized conformer: 70.63702403520536 kcal/mol)

>  <smiles>  (6) 
NS(=O)(=O)c1ccccc1-c1ccc(NC(=O)CCc2ccc(C(=O)NCCc3ccccc3)cc2)cc1

>  <score_type>  (6) 
oracle

>  <origin>  (6) 
adg

>  <m_score__min__energy>  (6) 
-15.640000000000001

>  <m_primary>  (6) 
energy

$$$$
6:0
     RDKit          3D

 51 54  0  0  0  0  0  0  0  0999 V2000
   59.8910   29.2220   46.5120 C   0  0  0  0  0  0  0  0  0  0  0  0
   61.0740   30.1800   46.4980 C   0  0  0  0  0  0  0  0  0  0  0  0
   61.5210   30.4850   47.8970 C   0  0  0  0  0  0  0  0  0  0  0  0
   61.0650   29.8510   48.9950 N   0  0  0  0  0  0  0  0  0  0  0  0
   61.6610   30.3790   50.0560 N   0  0  0  0  0  0  0  0  0  0  0  0
   62.4870   31.3290   49.5740 C   0  0  0  0  0  0  0  0  0  0  0  0
   62.4430   31.4060   48.2350 N   0  0  0  0  0  0  0  0  0  0  0  0
   63.1500   32.3800   47.4060 C   0  0  0  0  0  0  0  0  0  0  0  0
   64.1170   33.2300   48.2590 C   0  0  0  0  0  0  0  0  0  0  0  0
   63.6230   33.4920   49.6350 N   0  0  0  0  0  0  0  0  0  0  0  0
   62.6030   34.5660   49.7420 C   0  0  0  0  0  0  0  0  0  0  0  0
   61.2590   34.1800   49.1910 C   0  0  0  0  0  0  0  0  0  0  0  0
   60.2100   33.8280   49.9660 N   0  0  0  0  0  0  0  0  0  0  0  0
   59.2630   33.4800   49.0740 C   0  0  0  0  0  0  0  0  0  0  0  0
   59.7750   33.6260   47.7990 C   0  0  0  0  0  0  0  0  0  0  0  0
   59.1290   33.3000   46.5090 C   0  0  0  0  0  0  0  0  0  0  0  0
   59.4450   34.0570   45.3710 C   0  0  0  0  0  0  0  0  0  0  0  0
   58.8760   33.7500   44.1340 C   0  0  0  0  0  0  0  0  0  0  0  0
   57.9790   32.6740   44.0090 C   0  0  0  0  0  0  0  0  0  0  0  0
   57.3910   32.3340   42.7810 O   0  0  0  0  0  0  0  0  0  0  0  0
   58.0700   32.3450   41.5280 C   0  0  0  0  0  0  0  0  0  0  0  0
   57.6580   31.9060   45.1390 C   0  0  0  0  0  0  0  0  0  0  0  0
   56.7620   30.8350   44.9810 O   0  0  0  0  0  0  0  0  0  0  0  0
   56.9430   29.7600   44.0650 C   0  0  0  0  0  0  0  0  0  0  0  0
   58.2350   32.2240   46.3860 C   0  0  0  0  0  0  0  0  0  0  0  0
   61.0000   34.0760   47.9100 O   0  0  0  0  0  0  0  0  0  0  0  0
   63.3220   32.2580   50.3960 C   0  0  0  0  0  0  0  0  0  0  0  0
   59.6135   28.9973   47.5524 H   0  0  0  0  0  0  0  0  0  0  0  0
   59.0371   29.6862   45.9968 H   0  0  0  0  0  0  0  0  0  0  0  0
   60.1676   28.2903   45.9968 H   0  0  0  0  0  0  0  0  0  0  0  0
   61.9058   29.7196   45.9447 H   0  0  0  0  0  0  0  0  0  0  0  0
   60.7665   31.1172   46.0110 H   0  0  0  0  0  0  0  0  0  0  0  0
   60.3530   29.0890   49.0310 H   0  0  0  0  0  0  0  0  0  0  0  0
   63.7243   31.8467   46.6341 H   0  0  0  0  0  0  0  0  0  0  0  0
   62.4106   33.0487   46.9410 H   0  0  0  0  0  0  0  0  0  0  0  0
   65.0773   32.6983   48.3297 H   0  0  0  0  0  0  0  0  0  0  0  0
   64.2145   34.2055   47.7602 H   0  0  0  0  0  0  0  0  0  0  0  0
   62.4815   34.8250   50.8042 H   0  0  0  0  0  0  0  0  0  0  0  0
   62.9649   35.4139   49.1420 H   0  0  0  0  0  0  0  0  0  0  0  0
   58.2477   33.1357   49.3202 H   0  0  0  0  0  0  0  0  0  0  0  0
   60.1471   34.8997   45.4542 H   0  0  0  0  0  0  0  0  0  0  0  0
   59.1309   34.3539   43.2506 H   0  0  0  0  0  0  0  0  0  0  0  0
   59.1564   32.3626   41.6998 H   0  0  0  0  0  0  0  0  0  0  0  0
   57.8034   31.4424   40.9586 H   0  0  0  0  0  0  0  0  0  0  0  0
   57.7743   33.2385   40.9586 H   0  0  0  0  0  0  0  0  0  0  0  0
   57.1004   28.8253   44.6231 H   0  0  0  0  0  0  0  0  0  0  0  0
   56.0485   29.6630   43.4321 H   0  0  0  0  0  0  0  0  0  0  0  0
   57.8199   29.9613   43.4321 H   0  0  0  0  0  0  0  0  0  0  0  0
   57.9821   31.6228   47.2717 H   0  0  0  0  0  0  0  0  0  0  0  0
   64.2646   31.7578   50.6630 H   0  0  0  0  0  0  0  0  0  0  0  0
   62.7657   32.5269   51.3061 H   0  0  0  0  0  0  0  0  0  0  0  0
  1  2  1  0
  2  3  1  0
  3  4  2  0
  4  5  1  0
  5  6  2  0
  6  7  1  0
  7  8  1  0
  8  9  1  0
  9 10  1  0
 10 11  1  0
 11 12  1  0
 12 13  2  0
 13 14  1  0
 14 15  2  0
 15 16  1  0
 16 17  2  0
 17 18  1  0
 18 19  2  0
 19 20  1  0
 20 21  1  0
 19 22  1  0
 22 23  1  0
 23 24  1  0
 22 25  2  0
 15 26  1  0
 10 27  1  0
  7  3  1  0
 26 12  1  0
 27  6  1  0
 25 16  1  0
  1 28  1  0
  1 29  1  0
  1 30  1  0
  2 31  1  0
  2 32  1  0
  4 33  1  0
  8 34  1  0
  8 35  1  0
  9 36  1  0
  9 37  1  0
 11 38  1  0
 11 39  1  0
 14 40  1  0
 17 41  1  0
 18 42  1  0
 21 43  1  0
 21 44  1  0
 21 45  1  0
 24 46  1  0
 24 47  1  0
 24 48  1  0
 25 49  1  0
 27 50  1  0
 27 51  1  0
M  CHG  1   4   1
M  END
>  <UniqueID>  (7) 
6

>  <SMILES>  (7) 
CCc1[nH+]nc2n1CCN(Cc1ncc(-c3ccc(OC)c(OC)c3)o1)C2

>  <Energy>  (7) 
121.20856246008218

>  <Genealogy>  (7) 
CCc1[nH+]nc2n1CCN(Cc1ncc(-c3ccc(OC)c(OC)c3)o1)C2 (protonated)
CCc1[nH+]nc2n1CCN(Cc1ncc(-c3ccc(OC)c(OC)c3)o1)C2 (3D coordinates assigned)
CCc1[nH+]nc2n1CCN(Cc1ncc(-c3ccc(OC)c(OC)c3)o1)C2 (nonaromatic ring conformer: 121.20856246008218 kcal/mol)

>  <smiles>  (7) 
CCc1nnc2n1CCN(Cc1ncc(-c3ccc(OC)c(OC)c3)o1)C2

>  <score_type>  (7) 
oracle

>  <origin>  (7) 
adg

>  <m_score__min__energy>  (7) 
-6.2400000000000002

>  <m_primary>  (7) 
energy

$$$$
7:0
     RDKit          3D

 34 35  0  0  0  0  0  0  0  0999 V2000
   57.1410   29.0910   43.2890 N   0  0  0  0  0  0  0  0  0  0  0  0
   56.6440   30.0140   44.2620 C   0  0  0  0  0  0  0  0  0  0  0  0
   55.6140   29.7110   44.9200 O   0  0  0  0  0  0  0  0  0  0  0  0
   57.3100   31.3170   44.4790 C   0  0  0  0  0  0  0  0  0  0  0  0
   57.5910   31.8230   45.7600 C   0  0  0  0  0  0  0  0  0  0  0  0
   58.2610   33.0410   45.7430 C   0  0  0  0  0  0  0  0  0  0  0  0
   58.6370   33.8470   46.9460 C   0  0  0  0  0  0  0  0  0  0  0  0
   59.8130   34.7720   46.6250 C   0  0  0  0  0  0  0  0  0  0  0  0
   61.0880   34.2300   47.2120 C   0  0  0  0  0  0  0  0  0  0  0  0
   62.1370   33.8260   46.3710 C   0  0  0  0  0  0  0  0  0  0  0  0
   63.3380   33.3680   46.9170 C   0  0  0  0  0  0  0  0  0  0  0  0
   63.5040   33.3090   48.3030 C   0  0  0  0  0  0  0  0  0  0  0  0
   62.4600   33.6970   49.1610 C   0  0  0  0  0  0  0  0  0  0  0  0
   62.6580   33.6900   50.6560 C   0  0  0  0  0  0  0  0  0  0  0  0
   61.4450   33.8200   51.3110 F   0  0  0  0  0  0  0  0  0  0  0  0
   63.4740   34.7370   51.0450 F   0  0  0  0  0  0  0  0  0  0  0  0
   63.2460   32.4960   51.0320 F   0  0  0  0  0  0  0  0  0  0  0  0
   61.2630   34.1830   48.6050 C   0  0  0  0  0  0  0  0  0  0  0  0
   58.4870   33.5230   44.1480 S   0  0  0  0  0  0  0  0  0  0  0  0
   57.7610   32.1710   43.4640 C   0  0  0  0  0  0  0  0  0  0  0  0
   57.5740   32.0010   42.0580 N   0  0  0  0  0  0  0  0  0  0  0  0
   56.6350   28.1950   43.1130 H   0  0  0  0  0  0  0  0  0  0  0  0
   58.0370   29.2650   42.7810 H   0  0  0  0  0  0  0  0  0  0  0  0
   57.3077   31.3045   46.6878 H   0  0  0  0  0  0  0  0  0  0  0  0
   57.7745   34.4535   47.2595 H   0  0  0  0  0  0  0  0  0  0  0  0
   58.9331   33.1625   47.7546 H   0  0  0  0  0  0  0  0  0  0  0  0
   59.9228   34.8518   45.5334 H   0  0  0  0  0  0  0  0  0  0  0  0
   59.6147   35.7624   47.0607 H   0  0  0  0  0  0  0  0  0  0  0  0
   62.0126   33.8703   45.2790 H   0  0  0  0  0  0  0  0  0  0  0  0
   64.1565   33.0525   46.2533 H   0  0  0  0  0  0  0  0  0  0  0  0
   64.4568   32.9570   48.7253 H   0  0  0  0  0  0  0  0  0  0  0  0
   60.4561   34.5296   49.2674 H   0  0  0  0  0  0  0  0  0  0  0  0
   57.0470   32.6920   41.4820 H   0  0  0  0  0  0  0  0  0  0  0  0
   58.0320   31.2000   41.5680 H   0  0  0  0  0  0  0  0  0  0  0  0
  1  2  1  0
  2  3  2  0
  2  4  1  0
  4  5  1  0
  5  6  2  0
  6  7  1  0
  7  8  1  0
  8  9  1  0
  9 10  2  0
 10 11  1  0
 11 12  2  0
 12 13  1  0
 13 14  1  0
 14 15  1  0
 14 16  1  0
 14 17  1  0
 13 18  2  0
  6 19  1  0
 19 20  1  0
 20 21  1  0
 20  4  2  0
 18  9  1  0
  1 22  1  0
  1 23  1  0
  5 24  1  0
  7 25  1  0
  7 26  1  0
  8 27  1  0
  8 28  1  0
 10 29  1  0
 11 30  1  0
 12 31  1  0
 18 32  1  0
 21 33  1  0
 21 34  1  0
M  END
>  <UniqueID>  (8) 
7

>  <SMILES>  (8) 
NC(=O)c1cc(CCc2cccc(C(F)(F)F)c2)sc1N

>  <Energy>  (8) 
58.04009020962542

>  <Genealogy>  (8) 
NC(=O)c1cc(CCc2cccc(C(F)(F)F)c2)sc1N (3D coordinates assigned)
NC(=O)c1cc(CCc2cccc(C(F)(F)F)c2)sc1N (optimized conformer: 58.04009020962542 kcal/mol)

>  <smiles>  (8) 
NC(=O)c1cc(CCc2cccc(C(F)(F)F)c2)sc1N

>  <score_type>  (8) 
oracle

>  <origin>  (8) 
adg

>  <m_score__min__energy>  (8) 
-7.5

>  <m_primary>  (8) 
energy

$$$$
8:0
     RDKit          3D

 59 63  0  0  0  0  0  0  0  0999 V2000
   56.3010   23.6900   43.1620 C   0  0  0  0  0  0  0  0  0  0  0  0
   55.1050   23.0510   43.5880 O   0  0  0  0  0  0  0  0  0  0  0  0
   54.8320   22.7850   44.9330 C   0  0  0  0  0  0  0  0  0  0  0  0
   53.8670   23.3530   45.5170 O   0  0  0  0  0  0  0  0  0  0  0  0
   55.7070   21.8250   45.6870 C   0  0  1  0  0  0  0  0  0  0  0  0
   55.9840   20.5570   44.8760 C   0  0  0  0  0  0  0  0  0  0  0  0
   57.4020   20.7100   44.3350 C   0  0  0  0  0  0  0  0  0  0  0  0
   58.0860   21.7310   45.2360 C   0  0  0  0  0  0  0  0  0  0  0  0
   57.0110   22.4240   45.9320 N   0  0  0  0  0  0  0  0  0  0  0  0
   57.2380   23.4040   46.9630 C   0  0  0  0  0  0  0  0  0  0  0  0
   57.3850   23.0250   48.1570 O   0  0  0  0  0  0  0  0  0  0  0  0
   57.3020   24.8460   46.6560 C   0  0  0  0  0  0  0  0  0  0  0  0
   56.1390   25.5400   46.2850 C   0  0  0  0  0  0  0  0  0  0  0  0
   56.1970   26.9020   45.9770 C   0  0  0  0  0  0  0  0  0  0  0  0
   57.4210   27.5900   46.0150 C   0  0  0  0  0  0  0  0  0  0  0  0
   57.4750   29.0390   45.6950 C   0  0  0  0  0  0  0  0  0  0  0  0
   56.5730   29.5830   44.7660 C   0  0  0  0  0  0  0  0  0  0  0  0
   56.5990   30.8770   44.4680 O   0  0  0  0  0  0  0  0  0  0  0  0
   57.4630   31.7230   45.0180 C   0  0  0  0  0  0  0  0  0  0  0  0
   57.4350   33.0720   44.6560 C   0  0  0  0  0  0  0  0  0  0  0  0
   58.3360   33.9750   45.2250 C   0  0  0  0  0  0  0  0  0  0  0  0
   59.2750   33.5420   46.1770 C   0  0  0  0  0  0  0  0  0  0  0  0
   60.2330   34.5100   46.7630 C   0  0  0  0  0  0  0  0  0  0  0  0
   59.9660   35.7420   46.7010 O   0  0  0  0  0  0  0  0  0  0  0  0
   61.4910   34.0810   47.4200 C   0  0  0  0  0  0  0  0  0  0  0  0
   61.6590   34.1970   48.8130 C   0  0  0  0  0  0  0  0  0  0  0  0
   62.8570   33.8050   49.4170 C   0  0  0  0  0  0  0  0  0  0  0  0
   63.9030   33.3050   48.6380 C   0  0  0  0  0  0  0  0  0  0  0  0
   63.7550   33.2010   47.2540 C   0  0  0  0  0  0  0  0  0  0  0  0
   62.5580   33.5920   46.6440 C   0  0  0  0  0  0  0  0  0  0  0  0
   59.3160   32.1800   46.5290 C   0  0  0  0  0  0  0  0  0  0  0  0
   58.4090   31.2670   45.9610 C   0  0  0  0  0  0  0  0  0  0  0  0
   58.4150   29.9010   46.2930 C   0  0  0  0  0  0  0  0  0  0  0  0
   59.2650   29.4460   47.1070 O   0  0  0  0  0  0  0  0  0  0  0  0
   58.5860   26.8900   46.3700 C   0  0  0  0  0  0  0  0  0  0  0  0
   58.5290   25.5280   46.6800 C   0  0  0  0  0  0  0  0  0  0  0  0
   56.8837   24.0013   44.0415 H   0  0  0  0  0  0  0  0  0  0  0  0
   56.8957   22.9894   42.5574 H   0  0  0  0  0  0  0  0  0  0  0  0
   56.0492   24.5738   42.5574 H   0  0  0  0  0  0  0  0  0  0  0  0
   55.1738   21.5853   46.6188 H   0  0  0  0  0  0  0  0  0  0  0  0
   55.9137   19.6678   45.5197 H   0  0  0  0  0  0  0  0  0  0  0  0
   55.2530   20.4284   44.0641 H   0  0  0  0  0  0  0  0  0  0  0  0
   57.9329   19.7475   44.3759 H   0  0  0  0  0  0  0  0  0  0  0  0
   57.4000   21.0362   43.2845 H   0  0  0  0  0  0  0  0  0  0  0  0
   58.7463   21.2257   45.9562 H   0  0  0  0  0  0  0  0  0  0  0  0
   58.7117   22.4276   44.6587 H   0  0  0  0  0  0  0  0  0  0  0  0
   55.1770   25.0087   46.2365 H   0  0  0  0  0  0  0  0  0  0  0  0
   55.2771   27.4393   45.7028 H   0  0  0  0  0  0  0  0  0  0  0  0
   55.8352   28.9286   44.2787 H   0  0  0  0  0  0  0  0  0  0  0  0
   56.6991   33.4251   43.9186 H   0  0  0  0  0  0  0  0  0  0  0  0
   58.3105   35.0332   44.9257 H   0  0  0  0  0  0  0  0  0  0  0  0
   60.8419   34.5988   49.4302 H   0  0  0  0  0  0  0  0  0  0  0  0
   62.9762   33.8904   50.5072 H   0  0  0  0  0  0  0  0  0  0  0  0
   64.8437   32.9931   49.1154 H   0  0  0  0  0  0  0  0  0  0  0  0
   64.5812   32.8108   46.6415 H   0  0  0  0  0  0  0  0  0  0  0  0
   62.4505   33.5167   45.5519 H   0  0  0  0  0  0  0  0  0  0  0  0
   60.0636   31.8264   47.2544 H   0  0  0  0  0  0  0  0  0  0  0  0
   59.5506   27.4176   46.4043 H   0  0  0  0  0  0  0  0  0  0  0  0
   59.4502   24.9879   46.9441 H   0  0  0  0  0  0  0  0  0  0  0  0
  1  2  1  0
  2  3  1  0
  3  4  2  0
  3  5  1  0
  5  6  1  0
  6  7  1  0
  7  8  1  0
  8  9  1  0
  9 10  1  0
 10 11  2  0
 10 12  1  0
 12 13  2  0
 13 14  1  0
 14 15  2  0
 15 16  1  0
 16 17  2  0
 17 18  1  0
 18 19  1  0
 19 20  2  0
 20 21  1  0
 21 22  2  0
 22 23  1  0
 23 24  2  0
 23 25  1  0
 25 26  2  0
 26 27  1  0
 27 28  2  0
 28 29  1  0
 29 30  2  0
 22 31  1  0
 31 32  2  0
 32 33  1  0
 33 34  2  0
 15 35  1  0
 35 36  2  0
  9  5  1  0
 36 12  1  0
 33 16  1  0
 32 19  1  0
 30 25  1  0
  1 37  1  0
  1 38  1  0
  1 39  1  0
  5 40  1  1
  6 41  1  0
  6 42  1  0
  7 43  1  0
  7 44  1  0
  8 45  1  0
  8 46  1  0
 13 47  1  0
 14 48  1  0
 17 49  1  0
 20 50  1  0
 21 51  1  0
 26 52  1  0
 27 53  1  0
 28 54  1  0
 29 55  1  0
 30 56  1  0
 31 57  1  0
 35 58  1  0
 36 59  1  0
M  END
>  <UniqueID>  (9) 
8

>  <SMILES>  (9) 
COC(=O)[C@H]1CCCN1C(=O)c1ccc(-c2coc3ccc(C(=O)c4ccccc4)cc3c2=O)cc1

>  <Energy>  (9) 
85.41936448745301

>  <Genealogy>  (9) 
COC(=O)[C@H]1CCCN1C(=O)c1ccc(-c2coc3ccc(C(=O)c4ccccc4)cc3c2=O)cc1 (chirality)
COC(=O)[C@H]1CCCN1C(=O)c1ccc(-c2coc3ccc(C(=O)c4ccccc4)cc3c2=O)cc1 (3D coordinates assigned)
COC(=O)[C@H]1CCCN1C(=O)c1ccc(-c2coc3ccc(C(=O)c4ccccc4)cc3c2=O)cc1 (nonaromatic ring conformer: 85.41936448745301 kcal/mol)

>  <smiles>  (9) 
COC(=O)C1CCCN1C(=O)c1ccc(-c2coc3ccc(C(=O)c4ccccc4)cc3c2=O)cc1

>  <score_type>  (9) 
oracle

>  <origin>  (9) 
adg

>  <m_score__min__energy>  (9) 
-10.66

>  <m_primary>  (9) 
energy

$$$$
9:0
     RDKit          3D

 48 51  0  0  0  0  0  0  0  0999 V2000
   63.9570   34.2180   51.3720 C   0  0  0  0  0  0  0  0  0  0  0  0
   63.5680   33.8890   49.9220 C   0  0  1  0  0  0  0  0  0  0  0  0
   64.4040   32.8200   49.2990 C   0  0  0  0  0  0  0  0  0  0  0  0
   65.3220   32.2460   49.9410 O   0  0  0  0  0  0  0  0  0  0  0  0
   64.0950   32.4030   47.9690 N   0  0  0  0  0  0  0  0  0  0  0  0
   63.4850   33.3260   47.0130 C   0  0  0  0  0  0  0  0  0  0  0  0
   62.0130   33.6070   47.2790 C   0  0  0  0  0  0  0  0  0  0  0  0
   61.2040   33.8420   46.1500 C   0  0  0  0  0  0  0  0  0  0  0  0
   59.8620   34.2200   46.2780 C   0  0  0  0  0  0  0  0  0  0  0  0
   59.0040   34.4280   45.0560 C   0  0  0  0  0  0  0  0  0  0  0  0
   57.7800   33.6290   45.1230 N   0  0  0  0  0  0  0  0  0  0  0  0
   56.5830   34.2630   45.0840 O   0  0  0  0  0  0  0  0  0  0  0  0
   57.8110   32.1930   45.0910 C   0  0  0  0  0  0  0  0  0  0  0  0
   56.6870   31.4800   44.8140 N   0  0  0  0  0  0  0  0  0  0  0  0
   56.6930   30.1210   44.7960 C   0  0  0  0  0  0  0  0  0  0  0  0
   55.6280   29.5040   44.5250 O   0  0  0  0  0  0  0  0  0  0  0  0
   57.8830   29.4260   45.0760 C   0  0  0  0  0  0  0  0  0  0  0  0
   57.9560   28.0200   45.0760 C   0  0  0  0  0  0  0  0  0  0  0  0
   59.1700   27.3860   45.3560 C   0  0  0  0  0  0  0  0  0  0  0  0
   60.3150   28.1410   45.6320 C   0  0  0  0  0  0  0  0  0  0  0  0
   60.2490   29.5380   45.6340 C   0  0  0  0  0  0  0  0  0  0  0  0
   59.0390   30.1840   45.3550 C   0  0  0  0  0  0  0  0  0  0  0  0
   58.9740   31.5410   45.3570 N   0  0  0  0  0  0  0  0  0  0  0  0
   59.3140   34.3730   47.5540 C   0  0  0  0  0  0  0  0  0  0  0  0
   60.0920   34.1520   48.6840 C   0  0  0  0  0  0  0  0  0  0  0  0
   61.4390   33.7700   48.5760 C   0  0  0  0  0  0  0  0  0  0  0  0
   62.1630   33.4820   49.7920 N   0  0  0  0  0  0  0  0  0  0  0  0
   61.5670   32.5050   50.7170 C   0  0  0  0  0  0  0  0  0  0  0  0
   63.3027   33.6646   52.0617 H   0  0  0  0  0  0  0  0  0  0  0  0
   65.0033   33.9266   51.5460 H   0  0  0  0  0  0  0  0  0  0  0  0
   63.8434   35.2982   51.5460 H   0  0  0  0  0  0  0  0  0  0  0  0
   63.7428   34.8358   49.3900 H   0  0  0  0  0  0  0  0  0  0  0  0
   64.5150   31.5180   47.6090 H   0  0  0  0  0  0  0  0  0  0  0  0
   64.0324   34.2792   47.0545 H   0  0  0  0  0  0  0  0  0  0  0  0
   63.5447   32.8469   46.0246 H   0  0  0  0  0  0  0  0  0  0  0  0
   61.6364   33.7259   45.1452 H   0  0  0  0  0  0  0  0  0  0  0  0
   58.7339   35.4919   44.9848 H   0  0  0  0  0  0  0  0  0  0  0  0
   59.5769   34.1117   44.1718 H   0  0  0  0  0  0  0  0  0  0  0  0
   55.9150   33.5440   44.9390 H   0  0  0  0  0  0  0  0  0  0  0  0
   57.0596   27.4216   44.8561 H   0  0  0  0  0  0  0  0  0  0  0  0
   59.2253   26.2874   45.3593 H   0  0  0  0  0  0  0  0  0  0  0  0
   61.2679   27.6355   45.8476 H   0  0  0  0  0  0  0  0  0  0  0  0
   61.1493   30.1300   45.8552 H   0  0  0  0  0  0  0  0  0  0  0  0
   58.2607   34.6701   47.6648 H   0  0  0  0  0  0  0  0  0  0  0  0
   59.6447   34.2786   49.6810 H   0  0  0  0  0  0  0  0  0  0  0  0
   61.7580   32.8181   51.7541 H   0  0  0  0  0  0  0  0  0  0  0  0
   60.4820   32.4510   50.5442 H   0  0  0  0  0  0  0  0  0  0  0  0
   62.0155   31.5156   50.5442 H   0  0  0  0  0  0  0  0  0  0  0  0
  1  2  1  0
  2  3  1  0
  3  4  2  0
  3  5  1  0
  5  6  1  0
  6  7  1  0
  7  8  2  0
  8  9  1  0
  9 10  1  0
 10 11  1  0
 11 12  1  0
 11 13  1  0
 13 14  2  0
 14 15  1  0
 15 16  2  0
 15 17  1  0
 17 18  2  0
 18 19  1  0
 19 20  2  0
 20 21  1  0
 21 22  2  0
 22 23  1  0
  9 24  2  0
 24 25  1  0
 25 26  2  0
 26 27  1  0
 27 28  1  0
 27  2  1  0
 26  7  1  0
 23 13  1  0
 22 17  1  0
  1 29  1  0
  1 30  1  0
  1 31  1  0
  2 32  1  6
  5 33  1  0
  6 34  1  0
  6 35  1  0
  8 36  1  0
 10 37  1  0
 10 38  1  0
 12 39  1  0
 18 40  1  0
 19 41  1  0
 20 42  1  0
 21 43  1  0
 24 44  1  0
 25 45  1  0
 28 46  1  0
 28 47  1  0
 28 48  1  0
M  CHG  1  23  -1
M  END
>  <UniqueID>  (10) 
9

>  <SMILES>  (10) 
C[C@H]1C(=O)NCc2cc(CN(O)c3nc(=O)c4ccccc4[n-]3)ccc2N1C

>  <Energy>  (10) 
64.67423869371518

>  <Genealogy>  (10) 
CC1C(=O)NCc2cc(CN(O)c3nc(=O)c4ccccc4[n-]3)ccc2N1C (protonated)
C[C@H]1C(=O)NCc2cc(CN(O)c3nc(=O)c4ccccc4[n-]3)ccc2N1C (chirality)
C[C@H]1C(=O)NCc2cc(CN(O)c3nc(=O)c4ccccc4[n-]3)ccc2N1C (3D coordinates assigned)
C[C@H]1C(=O)NCc2cc(CN(O)c3nc(=O)c4ccccc4[n-]3)ccc2N1C (nonaromatic ring conformer: 64.67423869371518 kcal/mol)

>  <smiles>  (10) 
CC1C(=O)NCc2cc(CN(O)c3nc(=O)c4ccccc4[nH]3)ccc2N1C

>  <score_type>  (10) 
oracle

>  <origin>  (10) 
adg

>  <m_score__min__energy>  (10) 
-9.5199999999999996

>  <m_primary>  (10) 
energy

$$$$
10:0
     RDKit          3D

 55 57  0  0  0  0  0  0  0  0999 V2000
   57.0790   23.5650   44.3320 C   0  0  0  0  0  0  0  0  0  0  0  0
   55.9240   24.4610   44.3710 N   0  0  0  0  0  0  0  0  0  0  0  0
   55.5790   24.9340   46.0060 S   0  0  0  0  0  0  0  0  0  0  0  0
   54.9130   23.8010   46.7330 O   0  0  0  0  0  0  0  0  0  0  0  0
   54.6710   26.1330   45.9920 O   0  0  0  0  0  0  0  0  0  0  0  0
   57.0720   25.3350   46.7940 N   0  0  0  0  0  0  0  0  0  0  0  0
   57.8770   26.4820   46.4930 C   0  0  0  0  0  0  0  0  0  0  0  0
   58.8310   26.7690   47.2640 O   0  0  0  0  0  0  0  0  0  0  0  0
   57.6280   27.3340   45.3130 C   0  0  0  0  0  0  0  0  0  0  0  0
   58.0490   26.9300   44.0370 C   0  0  0  0  0  0  0  0  0  0  0  0
   57.7880   27.7300   42.9220 C   0  0  0  0  0  0  0  0  0  0  0  0
   57.0980   28.9360   43.0700 C   0  0  0  0  0  0  0  0  0  0  0  0
   56.6660   29.3510   44.3390 C   0  0  0  0  0  0  0  0  0  0  0  0
   55.8810   30.6200   44.4910 C   0  0  0  0  0  0  0  0  0  0  0  0
   56.7510   31.7340   44.3060 O   0  0  0  0  0  0  0  0  0  0  0  0
   57.8020   32.0740   45.1700 C   0  0  0  0  0  0  0  0  0  0  0  0
   58.4490   31.1250   45.9790 C   0  0  0  0  0  0  0  0  0  0  0  0
   59.4990   31.5110   46.8150 C   0  0  0  0  0  0  0  0  0  0  0  0
   59.9250   32.8470   46.8600 C   0  0  0  0  0  0  0  0  0  0  0  0
   61.0610   33.2010   47.7410 C   0  0  0  0  0  0  0  0  0  0  0  0
   62.3810   33.1160   47.2710 C   0  0  0  0  0  0  0  0  0  0  0  0
   63.4520   33.4400   48.1090 C   0  0  0  0  0  0  0  0  0  0  0  0
   63.2160   33.8460   49.4360 C   0  0  0  0  0  0  0  0  0  0  0  0
   64.2570   34.1830   50.3150 O   0  0  0  0  0  0  0  0  0  0  0  0
   64.0690   34.5720   51.6710 C   0  0  0  0  0  0  0  0  0  0  0  0
   61.9000   33.9170   49.9040 C   0  0  0  0  0  0  0  0  0  0  0  0
   60.8290   33.5930   49.0670 C   0  0  0  0  0  0  0  0  0  0  0  0
   59.2550   33.8160   46.0700 C   0  0  0  0  0  0  0  0  0  0  0  0
   59.6410   35.2720   46.1030 C   0  0  0  0  0  0  0  0  0  0  0  0
   58.2140   33.4090   45.2200 C   0  0  0  0  0  0  0  0  0  0  0  0
   56.9140   28.5340   45.4540 C   0  0  0  0  0  0  0  0  0  0  0  0
   57.3905   23.3234   45.3589 H   0  0  0  0  0  0  0  0  0  0  0  0
   56.8072   22.6392   43.8039 H   0  0  0  0  0  0  0  0  0  0  0  0
   57.9082   24.0585   43.8039 H   0  0  0  0  0  0  0  0  0  0  0  0
   56.1270   25.3170   43.8060 H   0  0  0  0  0  0  0  0  0  0  0  0
   55.0880   23.9710   43.9760 H   0  0  0  0  0  0  0  0  0  0  0  0
   58.5873   25.9786   43.9140 H   0  0  0  0  0  0  0  0  0  0  0  0
   58.1263   27.4099   41.9255 H   0  0  0  0  0  0  0  0  0  0  0  0
   56.8928   29.5620   42.1891 H   0  0  0  0  0  0  0  0  0  0  0  0
   55.0800   30.6496   43.7377 H   0  0  0  0  0  0  0  0  0  0  0  0
   55.4361   30.6613   45.4961 H   0  0  0  0  0  0  0  0  0  0  0  0
   58.1272   30.0734   45.9539 H   0  0  0  0  0  0  0  0  0  0  0  0
   59.9974   30.7595   47.4450 H   0  0  0  0  0  0  0  0  0  0  0  0
   62.5737   32.7926   46.2374 H   0  0  0  0  0  0  0  0  0  0  0  0
   64.4828   33.3775   47.7301 H   0  0  0  0  0  0  0  0  0  0  0  0
   64.4505   33.7825   52.3352 H   0  0  0  0  0  0  0  0  0  0  0  0
   64.6142   35.5079   51.8629 H   0  0  0  0  0  0  0  0  0  0  0  0
   62.9969   34.7262   51.8629 H   0  0  0  0  0  0  0  0  0  0  0  0
   61.7063   34.2307   50.9404 H   0  0  0  0  0  0  0  0  0  0  0  0
   59.7992   33.6457   49.4502 H   0  0  0  0  0  0  0  0  0  0  0  0
   59.7291   35.6044   47.1479 H   0  0  0  0  0  0  0  0  0  0  0  0
   60.6060   35.4072   45.5926 H   0  0  0  0  0  0  0  0  0  0  0  0
   58.8697   35.8675   45.5926 H   0  0  0  0  0  0  0  0  0  0  0  0
   57.7142   34.1533   44.5826 H   0  0  0  0  0  0  0  0  0  0  0  0
   56.5459   28.8369   46.4453 H   0  0  0  0  0  0  0  0  0  0  0  0
  1  2  1  0
  2  3  1  0
  3  4  2  0
  3  5  2  0
  3  6  1  0
  6  7  1  0
  7  8  2  0
  7  9  1  0
  9 10  2  0
 10 11  1  0
 11 12  2  0
 12 13  1  0
 13 14  1  0
 14 15  1  0
 15 16  1  0
 16 17  2  0
 17 18  1  0
 18 19  2  0
 19 20  1  0
 20 21  2  0
 21 22  1  0
 22 23  2  0
 23 24  1  0
 24 25  1  0
 23 26  1  0
 26 27  2  0
 19 28  1  0
 28 29  1  0
 28 30  2  0
 13 31  2  0
 31  9  1  0
 30 16  1  0
 27 20  1  0
  1 32  1  0
  1 33  1  0
  1 34  1  0
  2 35  1  0
  2 36  1  0
 10 37  1  0
 11 38  1  0
 12 39  1  0
 14 40  1  0
 14 41  1  0
 17 42  1  0
 18 43  1  0
 21 44  1  0
 22 45  1  0
 25 46  1  0
 25 47  1  0
 25 48  1  0
 26 49  1  0
 27 50  1  0
 29 51  1  0
 29 52  1  0
 29 53  1  0
 30 54  1  0
 31 55  1  0
M  CHG  2   2   1   6  -1
M  END
>  <UniqueID>  (11) 
10

>  <SMILES>  (11) 
C[NH2+]S(=O)(=O)[N-]C(=O)c1cccc(COc2ccc(-c3ccc(OC)cc3)c(C)c2)c1

>  <Energy>  (11) 
66.15907060066246

>  <Genealogy>  (11) 
C[NH2+]S(=O)(=O)[N-]C(=O)c1cccc(COc2ccc(-c3ccc(OC)cc3)c(C)c2)c1 (protonated)
C[NH2+]S(=O)(=O)[N-]C(=O)c1cccc(COc2ccc(-c3ccc(OC)cc3)c(C)c2)c1 (3D coordinates assigned)
C[NH2+]S(=O)(=O)[N-]C(=O)c1cccc(COc2ccc(-c3ccc(OC)cc3)c(C)c2)c1 (optimized conformer: 66.15907060066246 kcal/mol)

>  <smiles>  (11) 
CNS(=O)(=O)NC(=O)c1cccc(COc2ccc(-c3ccc(OC)cc3)c(C)c2)c1

>  <score_type>  (11) 
oracle

>  <origin>  (11) 
adg

>  <m_score__min__energy>  (11) 
-9.4800000000000004

>  <m_primary>  (11) 
energy

$$$$
11:0
     RDKit          3D

 33 34  0  0  0  0  0  0  0  0999 V2000
   60.5680   30.4580   46.7450 C   0  0  0  0  0  0  0  0  0  0  0  0
   58.9930   30.1400   47.5990 S   0  0  0  0  0  0  0  0  0  0  0  0
   58.6820   28.6100   46.7080 C   0  0  0  0  0  0  0  0  0  0  0  0
   59.5220   27.5110   46.9260 C   0  0  0  0  0  0  0  0  0  0  0  0
   59.3070   26.3140   46.2390 C   0  0  0  0  0  0  0  0  0  0  0  0
   58.2560   26.2120   45.3270 C   0  0  0  0  0  0  0  0  0  0  0  0
   57.4090   27.3010   45.1060 C   0  0  0  0  0  0  0  0  0  0  0  0
   57.6020   28.5050   45.8110 C   0  0  0  0  0  0  0  0  0  0  0  0
   56.7690   29.6520   45.5800 N   0  0  0  0  0  0  0  0  0  0  0  0
   55.9350   29.8840   44.4390 C   0  0  0  0  0  0  0  0  0  0  0  0
   54.7920   29.3580   44.3580 O   0  0  0  0  0  0  0  0  0  0  0  0
   56.4000   30.8120   43.3610 C   0  0  0  0  0  0  0  0  0  0  0  0
   58.2100   31.0480   43.4270 S   0  0  0  0  0  0  0  0  0  0  0  0
   58.1540   32.3390   44.6750 C   0  0  0  0  0  0  0  0  0  0  0  0
   58.7820   33.5670   44.4410 C   0  0  0  0  0  0  0  0  0  0  0  0
   58.7400   34.5560   45.4250 C   0  0  0  0  0  0  0  0  0  0  0  0
   58.0700   34.3100   46.6250 C   0  0  0  0  0  0  0  0  0  0  0  0
   57.4480   33.0760   46.8220 C   0  0  0  0  0  0  0  0  0  0  0  0
   57.4970   32.1230   45.8500 N   0  0  0  0  0  0  0  0  0  0  0  0
   61.3625   30.6184   47.4887 H   0  0  0  0  0  0  0  0  0  0  0  0
   60.8246   29.5935   46.1150 H   0  0  0  0  0  0  0  0  0  0  0  0
   60.4691   31.3543   46.1150 H   0  0  0  0  0  0  0  0  0  0  0  0
   60.3542   27.5907   47.6409 H   0  0  0  0  0  0  0  0  0  0  0  0
   59.9663   25.4517   46.4170 H   0  0  0  0  0  0  0  0  0  0  0  0
   58.0937   25.2714   44.7803 H   0  0  0  0  0  0  0  0  0  0  0  0
   56.5881   27.2177   44.3785 H   0  0  0  0  0  0  0  0  0  0  0  0
   56.1288   30.3894   42.3823 H   0  0  0  0  0  0  0  0  0  0  0  0
   55.9160   31.7885   43.5097 H   0  0  0  0  0  0  0  0  0  0  0  0
   59.3040   33.7514   43.4905 H   0  0  0  0  0  0  0  0  0  0  0  0
   59.2326   35.5249   45.2558 H   0  0  0  0  0  0  0  0  0  0  0  0
   58.0326   35.0816   47.4081 H   0  0  0  0  0  0  0  0  0  0  0  0
   56.9173   32.8728   47.7639 H   0  0  0  0  0  0  0  0  0  0  0  0
   57.0200   31.2090   46.0150 H   0  0  0  0  0  0  0  0  0  0  0  0
  1  2  1  0
  2  3  1  0
  3  4  2  0
  4  5  1  0
  5  6  2  0
  6  7  1  0
  7  8  2  0
  8  9  1  0
  9 10  1  0
 10 11  2  0
 10 12  1  0
 12 13  1  0
 13 14  1  0
 14 15  2  0
 15 16  1  0
 16 17  2  0
 17 18  1  0
 18 19  2  0
  8  3  1  0
 19 14  1  0
  1 20  1  0
  1 21  1  0
  1 22  1  0
  4 23  1  0
  5 24  1  0
  6 25  1  0
  7 26  1  0
 12 27  1  0
 12 28  1  0
 15 29  1  0
 16 30  1  0
 17 31  1  0
 18 32  1  0
 19 33  1  0
M  CHG  2   9  -1  19   1
M  END
>  <UniqueID>  (12) 
11

>  <SMILES>  (12) 
CSc1ccccc1[N-]C(=O)CSc1cccc[nH+]1

>  <Energy>  (12) 
26.881964220215483

>  <Genealogy>  (12) 
CSc1ccccc1[N-]C(=O)CSc1cccc[nH+]1 (protonated)
CSc1ccccc1[N-]C(=O)CSc1cccc[nH+]1 (3D coordinates assigned)
CSc1ccccc1[N-]C(=O)CSc1cccc[nH+]1 (optimized conformer: 26.881964220215483 kcal/mol)

>  <smiles>  (12) 
CSc1ccccc1NC(=O)CSc1ccccn1

>  <score_type>  (12) 
oracle

>  <origin>  (12) 
adg

>  <m_score__min__energy>  (12) 
-6.5999999999999996

>  <m_primary>  (12) 
energy

$$$$
12:0
     RDKit          3D

 29 30  0  0  0  0  0  0  0  0999 V2000
   63.5324   34.5986   46.7861 H   0  0  0  0  0  0  0  0  0  0  0  0
   62.7460   33.8320   46.8480 C   0  0  0  0  0  0  0  0  0  0  0  0
   61.5080   34.0870   46.3470 N   0  0  0  0  0  0  0  0  0  0  0  0
   60.5030   33.1700   46.3990 C   0  0  0  0  0  0  0  0  0  0  0  0
   59.1830   33.5090   45.8370 C   0  0  0  0  0  0  0  0  0  0  0  0
   59.0330   34.5770   45.1800 O   0  0  0  0  0  0  0  0  0  0  0  0
   58.0800   32.6100   46.0470 N   0  0  0  0  0  0  0  0  0  0  0  0
   57.6060   31.7400   45.2010 C   0  0  0  0  0  0  0  0  0  0  0  0
   57.0370   30.5760   45.6260 N   0  0  0  0  0  0  0  0  0  0  0  0
   56.5370   29.6530   44.7570 C   0  0  0  0  0  0  0  0  0  0  0  0
   55.9590   28.4690   45.2240 O   0  0  0  0  0  0  0  0  0  0  0  0
   56.7320   27.3500   45.6450 C   0  0  0  0  0  0  0  0  0  0  0  0
   57.4632   27.6720   46.4011 H   0  0  0  0  0  0  0  0  0  0  0  0
   57.2641   26.9238   44.7817 H   0  0  0  0  0  0  0  0  0  0  0  0
   55.8280   26.3200   46.2330 C   0  0  0  0  0  0  0  0  0  0  0  0
   54.5970   26.3330   45.9680 O   0  0  0  0  0  0  0  0  0  0  0  0
   56.3320   25.3750   47.1170 O   0  0  0  0  0  0  0  0  0  0  0  0
   56.6000   29.8920   43.3820 C   0  0  0  0  0  0  0  0  0  0  0  0
   56.1986   29.1547   42.6712 H   0  0  0  0  0  0  0  0  0  0  0  0
   57.1770   31.0750   42.9190 C   0  0  0  0  0  0  0  0  0  0  0  0
   57.2335   31.2744   41.8387 H   0  0  0  0  0  0  0  0  0  0  0  0
   57.6830   32.0060   43.8300 C   0  0  0  0  0  0  0  0  0  0  0  0
   58.1384   32.9410   43.4716 H   0  0  0  0  0  0  0  0  0  0  0  0
   60.7450   31.9180   46.9890 C   0  0  0  0  0  0  0  0  0  0  0  0
   59.9446   31.1652   47.0402 H   0  0  0  0  0  0  0  0  0  0  0  0
   62.0100   31.6370   47.5100 C   0  0  0  0  0  0  0  0  0  0  0  0
   62.2101   30.6599   47.9740 H   0  0  0  0  0  0  0  0  0  0  0  0
   63.0200   32.5980   47.4410 C   0  0  0  0  0  0  0  0  0  0  0  0
   64.0194   32.3858   47.8487 H   0  0  0  0  0  0  0  0  0  0  0  0
  1  2  1  0
  2  3  2  0
  3  4  1  0
  4  5  1  0
  5  6  2  0
  5  7  1  0
  7  8  2  0
  8  9  1  0
  9 10  1  0
 10 11  1  0
 11 12  1  0
 12 13  1  0
 12 14  1  0
 12 15  1  0
 15 16  2  0
 15 17  1  0
 10 18  2  0
 18 19  1  0
 18 20  1  0
 20 21  1  0
 20 22  2  0
 22 23  1  0
  4 24  2  0
 24 25  1  0
 24 26  1  0
 26 27  1  0
 26 28  2  0
 28 29  1  0
 28  2  1  0
 22  8  1  0
M  CHG  2   9  -1  17  -1
M  END
>  <UniqueID>  (13) 
12

>  <SMILES>  (13) 
O=C([O-])COc1ccc/c(=N/C(=O)c2ccccn2)[n-]1

>  <Energy>  (13) 
30.051321500816897

>  <Genealogy>  (13) 
O=C([O-])COc1cccc(=NC(=O)c2ccccn2)[n-]1 (protonated)
O=C([O-])COc1ccc/c(=N/C(=O)c2ccccn2)[n-]1 (cis-trans isomerization)
O=C([O-])COc1ccc/c(=N/C(=O)c2ccccn2)[n-]1 (3D coordinates assigned)
O=C([O-])COc1ccc/c(=N/C(=O)c2ccccn2)[n-]1 (optimized conformer: 30.051321500816897 kcal/mol)

>  <smiles>  (13) 
O=C(O)COc1cccc(=NC(=O)c2ccccn2)[nH]1

>  <score_type>  (13) 
oracle

>  <origin>  (13) 
adg

>  <m_score__min__energy>  (13) 
-11.65

>  <m_primary>  (13) 
energy

$$$$
13:0
     RDKit          3D

 51 53  0  0  0  0  0  0  0  0999 V2000
   55.1430   29.0830   44.8690 O   0  0  0  0  0  0  0  0  0  0  0  0
   56.0840   29.7150   44.3230 C   0  0  0  0  0  0  0  0  0  0  0  0
   56.2300   31.0760   44.5610 O   0  0  0  0  0  0  0  0  0  0  0  0
   57.0540   29.0030   43.4280 C   0  0  0  0  0  0  0  0  0  0  0  0
   58.4540   29.3070   43.7710 N   0  0  0  0  0  0  0  0  0  0  0  0
   58.6330   29.5050   45.1950 C   0  0  0  0  0  0  0  0  0  0  0  0
   59.0680   30.7560   45.6740 C   0  0  0  0  0  0  0  0  0  0  0  0
   59.2340   30.9840   47.0470 C   0  0  0  0  0  0  0  0  0  0  0  0
   59.8400   32.5410   47.6290 S   0  0  0  0  0  0  0  0  0  0  0  0
   60.0210   32.4520   49.1190 O   0  0  0  0  0  0  0  0  0  0  0  0
   61.1900   32.8000   47.0200 O   0  0  0  0  0  0  0  0  0  0  0  0
   58.7710   33.8820   47.2720 N   0  0  0  0  0  0  0  0  0  0  0  0
   57.4040   33.4590   46.8830 C   0  0  0  0  0  0  0  0  0  0  0  0
   56.9770   33.9380   45.4870 C   0  0  0  0  0  0  0  0  0  0  0  0
   58.1190   33.7670   44.4910 C   0  0  0  0  0  0  0  0  0  0  0  0
   59.3640   34.5600   44.9170 C   0  0  0  0  0  0  0  0  0  0  0  0
   59.3880   34.9130   46.4150 C   0  0  0  0  0  0  0  0  0  0  0  0
   58.9770   29.9490   47.9520 C   0  0  0  0  0  0  0  0  0  0  0  0
   58.5360   28.7070   47.4960 C   0  0  0  0  0  0  0  0  0  0  0  0
   58.3640   28.4710   46.1240 C   0  0  0  0  0  0  0  0  0  0  0  0
   57.9440   27.1680   45.6880 N   0  0  0  0  0  0  0  0  0  0  0  0
   58.9290   26.1910   45.2250 C   0  0  0  0  0  0  0  0  0  0  0  0
   58.8970   24.9750   46.1570 C   0  0  0  0  0  0  0  0  0  0  0  0
   57.5810   24.4600   46.2670 O   0  0  0  0  0  0  0  0  0  0  0  0
   56.7330   25.4180   46.8810 C   0  0  0  0  0  0  0  0  0  0  0  0
   56.6060   26.6710   46.0080 C   0  0  0  0  0  0  0  0  0  0  0  0
   56.8934   27.9189   43.5229 H   0  0  0  0  0  0  0  0  0  0  0  0
   56.8768   29.3454   42.3978 H   0  0  0  0  0  0  0  0  0  0  0  0
   59.0580   28.5180   43.4500 H   0  0  0  0  0  0  0  0  0  0  0  0
   58.7680   30.1510   43.2380 H   0  0  0  0  0  0  0  0  0  0  0  0
   59.2805   31.5657   44.9604 H   0  0  0  0  0  0  0  0  0  0  0  0
   57.3640   32.3598   46.8991 H   0  0  0  0  0  0  0  0  0  0  0  0
   56.7109   33.9178   47.6035 H   0  0  0  0  0  0  0  0  0  0  0  0
   56.1119   33.3476   45.1507 H   0  0  0  0  0  0  0  0  0  0  0  0
   56.7103   35.0037   45.5428 H   0  0  0  0  0  0  0  0  0  0  0  0
   58.3799   32.7003   44.4266 H   0  0  0  0  0  0  0  0  0  0  0  0
   57.7848   34.1491   43.5152 H   0  0  0  0  0  0  0  0  0  0  0  0
   60.2552   33.9575   44.6875 H   0  0  0  0  0  0  0  0  0  0  0  0
   59.3464   35.5098   44.3624 H   0  0  0  0  0  0  0  0  0  0  0  0
   60.4352   35.0430   46.7255 H   0  0  0  0  0  0  0  0  0  0  0  0
   58.7988   35.8334   46.5403 H   0  0  0  0  0  0  0  0  0  0  0  0
   59.1235   30.1156   49.0294 H   0  0  0  0  0  0  0  0  0  0  0  0
   58.3212   27.9057   48.2183 H   0  0  0  0  0  0  0  0  0  0  0  0
   58.6840   25.8770   44.1996 H   0  0  0  0  0  0  0  0  0  0  0  0
   59.9328   26.6408   45.2331 H   0  0  0  0  0  0  0  0  0  0  0  0
   59.5575   24.1936   45.7532 H   0  0  0  0  0  0  0  0  0  0  0  0
   59.2384   25.2866   47.1552 H   0  0  0  0  0  0  0  0  0  0  0  0
   55.7358   24.9768   47.0258 H   0  0  0  0  0  0  0  0  0  0  0  0
   57.1687   25.7055   47.8492 H   0  0  0  0  0  0  0  0  0  0  0  0
   56.0740   26.4201   45.0785 H   0  0  0  0  0  0  0  0  0  0  0  0
   56.0425   27.4450   46.5497 H   0  0  0  0  0  0  0  0  0  0  0  0
  1  2  2  0
  2  3  1  0
  2  4  1  0
  4  5  1  0
  5  6  1  0
  6  7  2  0
  7  8  1  0
  8  9  1  0
  9 10  2  0
  9 11  2  0
  9 12  1  0
 12 13  1  0
 13 14  1  0
 14 15  1  0
 15 16  1  0
 16 17  1  0
  8 18  2  0
 18 19  1  0
 19 20  2  0
 20 21  1  0
 21 22  1  0
 22 23  1  0
 23 24  1  0
 24 25  1  0
 25 26  1  0
 20  6  1  0
 26 21  1  0
 17 12  1  0
  4 27  1  0
  4 28  1  0
  5 29  1  0
  5 30  1  0
  7 31  1  0
 13 32  1  0
 13 33  1  0
 14 34  1  0
 14 35  1  0
 15 36  1  0
 15 37  1  0
 16 38  1  0
 16 39  1  0
 17 40  1  0
 17 41  1  0
 18 42  1  0
 19 43  1  0
 22 44  1  0
 22 45  1  0
 23 46  1  0
 23 47  1  0
 25 48  1  0
 25 49  1  0
 26 50  1  0
 26 51  1  0
M  CHG  2   3  -1   5   1
M  END
>  <UniqueID>  (14) 
13

>  <SMILES>  (14) 
O=C([O-])C[NH2+]c1cc(S(=O)(=O)N2CCCCC2)ccc1N1CCOCC1

>  <Energy>  (14) 
65.45900079412982

>  <Genealogy>  (14) 
O=C([O-])C[NH2+]c1cc(S(=O)(=O)N2CCCCC2)ccc1N1CCOCC1 (protonated)
O=C([O-])C[NH2+]c1cc(S(=O)(=O)N2CCCCC2)ccc1N1CCOCC1 (3D coordinates assigned)
O=C([O-])C[NH2+]c1cc(S(=O)(=O)N2CCCCC2)ccc1N1CCOCC1 (nonaromatic ring conformer: 65.45900079412982 kcal/mol)

>  <smiles>  (14) 
O=C(O)CNc1cc(S(=O)(=O)N2CCCCC2)ccc1N1CCOCC1

>  <score_type>  (14) 
oracle

>  <origin>  (14) 
adg

>  <m_score__min__energy>  (14) 
-9.5800000000000001

>  <m_primary>  (14) 
energy

$$$$
14:0
     RDKit          3D

 43 45  0  0  0  0  0  0  0  0999 V2000
   50.8870   20.6820   45.2330 C   0  0  0  0  0  0  0  0  0  0  0  0
   51.7660   21.8460   45.2300 N   0  0  0  0  0  0  0  0  0  0  0  0
   53.0960   21.5800   46.3150 S   0  0  0  0  0  0  0  0  0  0  0  0
   52.6740   21.8970   47.7230 O   0  0  0  0  0  0  0  0  0  0  0  0
   53.5000   20.1340   46.2550 O   0  0  0  0  0  0  0  0  0  0  0  0
   54.4710   22.5790   45.8520 C   0  0  0  0  0  0  0  0  0  0  0  0
   54.3940   23.9780   45.9230 C   0  0  0  0  0  0  0  0  0  0  0  0
   55.4860   24.7620   45.5380 C   0  0  0  0  0  0  0  0  0  0  0  0
   56.6520   24.1610   45.0510 C   0  0  0  0  0  0  0  0  0  0  0  0
   57.7770   24.9880   44.7120 N   0  0  0  0  0  0  0  0  0  0  0  0
   57.8590   26.2880   44.7850 C   0  0  0  0  0  0  0  0  0  0  0  0
   58.1470   27.0960   43.6670 C   0  0  0  0  0  0  0  0  0  0  0  0
   58.2070   28.4830   43.8160 C   0  0  0  0  0  0  0  0  0  0  0  0
   57.9790   29.0720   45.0690 C   0  0  0  0  0  0  0  0  0  0  0  0
   58.0300   30.5410   45.2640 C   0  0  0  0  0  0  0  0  0  0  0  0
   57.0180   31.2310   44.9590 O   0  0  0  0  0  0  0  0  0  0  0  0
   59.2090   31.1870   45.7820 N   0  0  0  0  0  0  0  0  0  0  0  0
   59.2830   32.5890   46.0920 C   0  0  0  0  0  0  0  0  0  0  0  0
   59.5620   33.0410   47.3950 C   0  0  0  0  0  0  0  0  0  0  0  0
   59.6550   34.4120   47.6600 C   0  0  0  0  0  0  0  0  0  0  0  0
   59.4850   35.3390   46.6290 C   0  0  0  0  0  0  0  0  0  0  0  0
   59.2310   34.8990   45.3280 C   0  0  0  0  0  0  0  0  0  0  0  0
   59.1390   33.5300   45.0580 C   0  0  0  0  0  0  0  0  0  0  0  0
   57.6630   28.2320   46.1490 C   0  0  0  0  0  0  0  0  0  0  0  0
   57.6130   26.8850   45.9810 N   0  0  0  0  0  0  0  0  0  0  0  0
   56.7400   22.7600   45.0080 C   0  0  0  0  0  0  0  0  0  0  0  0
   55.6490   21.9740   45.3940 C   0  0  0  0  0  0  0  0  0  0  0  0
   50.6673   20.3911   46.2708 H   0  0  0  0  0  0  0  0  0  0  0  0
   49.9487   20.9298   44.7152 H   0  0  0  0  0  0  0  0  0  0  0  0
   51.3821   19.8473   44.7152 H   0  0  0  0  0  0  0  0  0  0  0  0
   53.4725   24.4593   46.2824 H   0  0  0  0  0  0  0  0  0  0  0  0
   55.4281   25.8575   45.6184 H   0  0  0  0  0  0  0  0  0  0  0  0
   58.3234   26.6369   42.6831 H   0  0  0  0  0  0  0  0  0  0  0  0
   58.4342   29.1173   42.9465 H   0  0  0  0  0  0  0  0  0  0  0  0
   60.0850   30.6330   45.9000 H   0  0  0  0  0  0  0  0  0  0  0  0
   59.7075   32.3144   48.2079 H   0  0  0  0  0  0  0  0  0  0  0  0
   59.8624   34.7604   48.6825 H   0  0  0  0  0  0  0  0  0  0  0  0
   59.5512   36.4162   46.8419 H   0  0  0  0  0  0  0  0  0  0  0  0
   59.1033   35.6295   44.5156 H   0  0  0  0  0  0  0  0  0  0  0  0
   58.9527   33.1873   44.0295 H   0  0  0  0  0  0  0  0  0  0  0  0
   57.4546   28.6676   47.1374 H   0  0  0  0  0  0  0  0  0  0  0  0
   57.6697   22.2792   44.6697 H   0  0  0  0  0  0  0  0  0  0  0  0
   55.7161   20.8775   45.3378 H   0  0  0  0  0  0  0  0  0  0  0  0
  1  2  1  0
  2  3  1  0
  3  4  2  0
  3  5  2  0
  3  6  1  0
  6  7  2  0
  7  8  1  0
  8  9  2  0
  9 10  1  0
 10 11  2  3
 11 12  1  0
 12 13  2  0
 13 14  1  0
 14 15  1  0
 15 16  2  0
 15 17  1  0
 17 18  1  0
 18 19  2  0
 19 20  1  0
 20 21  2  0
 21 22  1  0
 22 23  2  0
 14 24  2  0
 24 25  1  0
  9 26  1  0
 26 27  2  0
 27  6  1  0
 25 11  1  0
 23 18  1  0
  1 28  1  0
  1 29  1  0
  1 30  1  0
  7 31  1  0
  8 32  1  0
 12 33  1  0
 13 34  1  0
 17 35  1  0
 19 36  1  0
 20 37  1  0
 21 38  1  0
 22 39  1  0
 23 40  1  0
 24 41  1  0
 26 42  1  0
 27 43  1  0
M  CHG  2   2  -1  25  -1
M  END
>  <UniqueID>  (15) 
14

>  <SMILES>  (15) 
C[N-]S(=O)(=O)c1ccc(N=c2ccc(C(=O)Nc3ccccc3)c[n-]2)cc1

>  <Energy>  (15) 
60.85874172359397

>  <Genealogy>  (15) 
C[N-]S(=O)(=O)c1ccc(N=c2ccc(C(=O)Nc3ccccc3)c[n-]2)cc1 (protonated)
C[N-]S(=O)(=O)c1ccc(N=c2ccc(C(=O)Nc3ccccc3)c[n-]2)cc1 (3D coordinates assigned)
C[N-]S(=O)(=O)c1ccc(N=c2ccc(C(=O)Nc3ccccc3)c[n-]2)cc1 (optimized conformer: 60.85874172359397 kcal/mol)

>  <smiles>  (15) 
CNS(=O)(=O)c1ccc(N=c2ccc(C(=O)Nc3ccccc3)c[nH]2)cc1

>  <score_type>  (15) 
oracle

>  <origin>  (15) 
adg

>  <m_score__min__energy>  (15) 
-10.550000000000001

>  <m_primary>  (15) 
energy

$$$$
15:0
     RDKit          3D

 48 50  0  0  0  0  0  0  0  0999 V2000
   56.5124   31.0576   53.0810 H   0  0  0  0  0  0  0  0  0  0  0  0
   57.1570   31.1350   52.1930 C   0  0  0  0  0  0  0  0  0  0  0  0
   57.3880   30.0820   51.3660 N   0  0  0  0  0  0  0  0  0  0  0  0
   58.2140   30.4240   50.3510 C   0  0  0  0  0  0  0  0  0  0  0  0
   58.5620   29.6250   49.3880 N   0  0  0  0  0  0  0  0  0  0  0  0
   59.7830   29.7000   48.6370 C   0  0  0  0  0  0  0  0  0  0  0  0
   60.7490   28.9300   48.8940 O   0  0  0  0  0  0  0  0  0  0  0  0
   59.8880   30.6930   47.5120 C   0  0  2  0  0  0  0  0  0  0  0  0
   59.4963   31.6489   47.8900 H   0  0  0  0  0  0  0  0  0  0  0  0
   59.0770   30.2750   46.3680 N   0  0  0  0  0  0  0  0  0  0  0  0
   59.2320   29.0470   45.6400 C   0  0  0  0  0  0  0  0  0  0  0  0
   60.1110   28.9750   44.7420 O   0  0  0  0  0  0  0  0  0  0  0  0
   58.4150   27.8510   45.9470 C   0  0  0  0  0  0  0  0  0  0  0  0
   59.0350   26.6940   46.4710 C   0  0  0  0  0  0  0  0  0  0  0  0
   60.5220   26.6020   46.6480 C   0  0  0  0  0  0  0  0  0  0  0  0
   60.7633   26.5871   47.7211 H   0  0  0  0  0  0  0  0  0  0  0  0
   60.8910   25.6793   46.1763 H   0  0  0  0  0  0  0  0  0  0  0  0
   61.0019   27.4722   46.1763 H   0  0  0  0  0  0  0  0  0  0  0  0
   58.2770   25.6240   46.8250 N   0  0  0  0  0  0  0  0  0  0  0  0
   56.9260   25.6110   46.6990 C   0  0  0  0  0  0  0  0  0  0  0  0
   56.1610   24.3960   47.1260 C   0  0  0  0  0  0  0  0  0  0  0  0
   56.1313   24.3488   48.2246 H   0  0  0  0  0  0  0  0  0  0  0  0
   55.1349   24.4520   46.7335 H   0  0  0  0  0  0  0  0  0  0  0  0
   56.6550   23.4950   46.7335 H   0  0  0  0  0  0  0  0  0  0  0  0
   56.2690   26.7190   46.1480 C   0  0  0  0  0  0  0  0  0  0  0  0
   54.8840   26.6990   45.9910 O   0  0  0  0  0  0  0  0  0  0  0  0
   57.0110   27.8460   45.7530 C   0  0  0  0  0  0  0  0  0  0  0  0
   56.2780   29.0050   45.1200 C   0  0  0  0  0  0  0  0  0  0  0  0
   55.8677   29.6537   45.9079 H   0  0  0  0  0  0  0  0  0  0  0  0
   56.9753   29.5828   44.4955 H   0  0  0  0  0  0  0  0  0  0  0  0
   55.4571   28.6226   44.4955 H   0  0  0  0  0  0  0  0  0  0  0  0
   61.3480   30.9330   47.0830 C   0  0  0  0  0  0  0  0  0  0  0  0
   61.9234   30.0161   47.2787 H   0  0  0  0  0  0  0  0  0  0  0  0
   61.3318   31.1961   46.0151 H   0  0  0  0  0  0  0  0  0  0  0  0
   62.0110   32.0780   47.8120 C   0  0  0  0  0  0  0  0  0  0  0  0
   63.4110   32.1370   47.9200 C   0  0  0  0  0  0  0  0  0  0  0  0
   64.0294   31.3528   47.4588 H   0  0  0  0  0  0  0  0  0  0  0  0
   64.0210   33.1880   48.6110 C   0  0  0  0  0  0  0  0  0  0  0  0
   65.1171   33.2275   48.6941 H   0  0  0  0  0  0  0  0  0  0  0  0
   63.2410   34.1880   49.1960 C   0  0  0  0  0  0  0  0  0  0  0  0
   63.7232   35.0138   49.7397 H   0  0  0  0  0  0  0  0  0  0  0  0
   61.8480   34.1400   49.0910 C   0  0  0  0  0  0  0  0  0  0  0  0
   61.2346   34.9289   49.5508 H   0  0  0  0  0  0  0  0  0  0  0  0
   61.2340   33.0900   48.4020 C   0  0  0  0  0  0  0  0  0  0  0  0
   60.1375   33.0555   48.3211 H   0  0  0  0  0  0  0  0  0  0  0  0
   58.6810   32.0330   50.4330 S   0  0  0  0  0  0  0  0  0  0  0  0
   57.7950   32.3180   51.8350 C   0  0  0  0  0  0  0  0  0  0  0  0
   57.7314   33.2743   52.3749 H   0  0  0  0  0  0  0  0  0  0  0  0
  1  2  1  0
  2  3  1  0
  3  4  1  0
  4  5  2  0
  5  6  1  0
  6  7  2  0
  6  8  1  0
  8  9  1  1
  8 10  1  0
 10 11  1  0
 11 12  2  0
 11 13  1  0
 13 14  2  0
 14 15  1  0
 15 16  1  0
 15 17  1  0
 15 18  1  0
 14 19  1  0
 19 20  2  0
 20 21  1  0
 21 22  1  0
 21 23  1  0
 21 24  1  0
 20 25  1  0
 25 26  1  0
 25 27  2  0
 27 28  1  0
 28 29  1  0
 28 30  1  0
 28 31  1  0
  8 32  1  0
 32 33  1  0
 32 34  1  0
 32 35  1  0
 35 36  2  0
 36 37  1  0
 36 38  1  0
 38 39  1  0
 38 40  2  0
 40 41  1  0
 40 42  1  0
 42 43  1  0
 42 44  2  0
 44 45  1  0
  4 46  1  0
 46 47  1  0
 47 48  1  0
 47  2  2  0
 27 13  1  0
 44 35  1  0
M  CHG  3   3  -1  10  -1  26  -1
M  END
>  <UniqueID>  (16) 
15

>  <SMILES>  (16) 
Cc1nc(C)c(C(=O)[N-][C@H](Cc2ccccc2)C(=O)/N=c2\[n-]ccs2)c(C)c1[O-]

>  <Energy>  (16) 
83.59232329493365

>  <Genealogy>  (16) 
Cc1nc(C)c(C(=O)[N-]C(Cc2ccccc2)C(=O)N=c2[n-]ccs2)c(C)c1[O-] (protonated)
Cc1nc(C)c(C(=O)[N-][C@H](Cc2ccccc2)C(=O)N=c2[n-]ccs2)c(C)c1[O-] (chirality)
Cc1nc(C)c(C(=O)[N-][C@H](Cc2ccccc2)C(=O)/N=c2\[n-]ccs2)c(C)c1[O-] (cis-trans isomerization)
Cc1nc(C)c(C(=O)[N-][C@H](Cc2ccccc2)C(=O)/N=c2\[n-]ccs2)c(C)c1[O-] (3D coordinates assigned)
Cc1nc(C)c(C(=O)[N-][C@H](Cc2ccccc2)C(=O)/N=c2\[n-]ccs2)c(C)c1[O-] (optimized conformer: 83.59232329493365 kcal/mol)

>  <smiles>  (16) 
Cc1nc(C)c(C(=O)NC(Cc2ccccc2)C(=O)N=c2[nH]ccs2)c(C)c1O

>  <score_type>  (16) 
oracle

>  <origin>  (16) 
adg

>  <m_score__min__energy>  (16) 
-13.949999999999999

>  <m_primary>  (16) 
energy

$$$$
16:0
     RDKit          3D

 45 47  0  0  0  0  0  0  0  0999 V2000
   55.1260   26.7150   45.9480 O   0  0  0  0  0  0  0  0  0  0  0  0
   55.2580   25.3690   45.6200 C   0  0  0  0  0  0  0  0  0  0  0  0
   54.1510   24.5230   45.7450 C   0  0  0  0  0  0  0  0  0  0  0  0
   54.2620   23.1670   45.4300 C   0  0  0  0  0  0  0  0  0  0  0  0
   55.4830   22.6510   44.9920 C   0  0  0  0  0  0  0  0  0  0  0  0
   56.5940   23.4890   44.8640 C   0  0  0  0  0  0  0  0  0  0  0  0
   56.4920   24.8570   45.1700 C   0  0  0  0  0  0  0  0  0  0  0  0
   57.6960   25.7600   45.0110 C   0  0  0  0  0  0  0  0  0  0  0  0
   57.4090   26.9190   44.1430 N   0  0  0  0  0  0  0  0  0  0  0  0
   58.5710   27.8050   43.9470 C   0  0  0  0  0  0  0  0  0  0  0  0
   58.3090   29.2090   44.4450 C   0  0  0  0  0  0  0  0  0  0  0  0
   59.1060   29.7680   45.4560 C   0  0  0  0  0  0  0  0  0  0  0  0
   58.8540   31.0610   45.9220 C   0  0  0  0  0  0  0  0  0  0  0  0
   57.8030   31.8210   45.3750 C   0  0  0  0  0  0  0  0  0  0  0  0
   57.5080   33.1260   45.8010 O   0  0  0  0  0  0  0  0  0  0  0  0
   58.3990   34.2400   45.7220 C   0  0  0  0  0  0  0  0  0  0  0  0
   59.5010   34.1180   46.7420 C   0  0  0  0  0  0  0  0  0  0  0  0
   59.2280   34.2750   48.1110 C   0  0  0  0  0  0  0  0  0  0  0  0
   60.2580   34.1700   49.0500 C   0  0  0  0  0  0  0  0  0  0  0  0
   61.5660   33.9150   48.6310 C   0  0  0  0  0  0  0  0  0  0  0  0
   61.8490   33.7710   47.2700 C   0  0  0  0  0  0  0  0  0  0  0  0
   63.4940   33.4580   46.7440 Cl  0  0  0  0  0  0  0  0  0  0  0  0
   60.8210   33.8760   46.3260 C   0  0  0  0  0  0  0  0  0  0  0  0
   57.0120   31.2620   44.3650 C   0  0  0  0  0  0  0  0  0  0  0  0
   57.2620   29.9680   43.8990 C   0  0  0  0  0  0  0  0  0  0  0  0
   53.1890   24.9275   46.0929 H   0  0  0  0  0  0  0  0  0  0  0  0
   53.3881   22.5060   45.5269 H   0  0  0  0  0  0  0  0  0  0  0  0
   55.5708   21.5822   44.7470 H   0  0  0  0  0  0  0  0  0  0  0  0
   57.5541   23.0755   44.5217 H   0  0  0  0  0  0  0  0  0  0  0  0
   57.9985   26.1260   46.0032 H   0  0  0  0  0  0  0  0  0  0  0  0
   58.4993   25.1744   44.5401 H   0  0  0  0  0  0  0  0  0  0  0  0
   57.0830   26.5850   43.2060 H   0  0  0  0  0  0  0  0  0  0  0  0
   56.6190   27.4640   44.5610 H   0  0  0  0  0  0  0  0  0  0  0  0
   59.4298   27.3894   44.4945 H   0  0  0  0  0  0  0  0  0  0  0  0
   58.7742   27.8619   42.8674 H   0  0  0  0  0  0  0  0  0  0  0  0
   59.9343   29.1845   45.8843 H   0  0  0  0  0  0  0  0  0  0  0  0
   59.4799   31.4870   46.7200 H   0  0  0  0  0  0  0  0  0  0  0  0
   58.8417   34.2769   44.7157 H   0  0  0  0  0  0  0  0  0  0  0  0
   57.8314   35.1601   45.9250 H   0  0  0  0  0  0  0  0  0  0  0  0
   58.2004   34.4812   48.4451 H   0  0  0  0  0  0  0  0  0  0  0  0
   60.0382   34.2884   50.1213 H   0  0  0  0  0  0  0  0  0  0  0  0
   62.3736   33.8275   49.3727 H   0  0  0  0  0  0  0  0  0  0  0  0
   61.0473   33.7687   45.2549 H   0  0  0  0  0  0  0  0  0  0  0  0
   56.1858   31.8463   43.9338 H   0  0  0  0  0  0  0  0  0  0  0  0
   56.6356   29.5427   43.1010 H   0  0  0  0  0  0  0  0  0  0  0  0
  1  2  1  0
  2  3  2  0
  3  4  1  0
  4  5  2  0
  5  6  1  0
  6  7  2  0
  7  8  1  0
  8  9  1  0
  9 10  1  0
 10 11  1  0
 11 12  2  0
 12 13  1  0
 13 14  2  0
 14 15  1  0
 15 16  1  0
 16 17  1  0
 17 18  2  0
 18 19  1  0
 19 20  2  0
 20 21  1  0
 21 22  1  0
 21 23  2  0
 14 24  1  0
 24 25  2  0
  7  2  1  0
 25 11  1  0
 23 17  1  0
  3 26  1  0
  4 27  1  0
  5 28  1  0
  6 29  1  0
  8 30  1  0
  8 31  1  0
  9 32  1  0
  9 33  1  0
 10 34  1  0
 10 35  1  0
 12 36  1  0
 13 37  1  0
 16 38  1  0
 16 39  1  0
 18 40  1  0
 19 41  1  0
 20 42  1  0
 23 43  1  0
 24 44  1  0
 25 45  1  0
M  CHG  2   1  -1   9   1
M  END
>  <UniqueID>  (17) 
16

>  <SMILES>  (17) 
[O-]c1ccccc1C[NH2+]Cc1ccc(OCc2cccc(Cl)c2)cc1

>  <Energy>  (17) 
48.053833890581544

>  <Genealogy>  (17) 
[O-]c1ccccc1C[NH2+]Cc1ccc(OCc2cccc(Cl)c2)cc1 (protonated)
[O-]c1ccccc1C[NH2+]Cc1ccc(OCc2cccc(Cl)c2)cc1 (3D coordinates assigned)
[O-]c1ccccc1C[NH2+]Cc1ccc(OCc2cccc(Cl)c2)cc1 (optimized conformer: 48.053833890581544 kcal/mol)

>  <smiles>  (17) 
Oc1ccccc1CNCc1ccc(OCc2cccc(Cl)c2)cc1

>  <score_type>  (17) 
oracle

>  <origin>  (17) 
adg

>  <m_score__min__energy>  (17) 
-10.880000000000001

>  <m_primary>  (17) 
energy

$$$$
17:0
     RDKit          3D

 38 39  0  0  1  0  0  0  0  0999 V2000
   63.1590   30.8990   50.4770 C   0  0  0  0  0  0  0  0  0  0  0  0
   61.9710   30.2400   50.1460 O   0  0  0  0  0  0  0  0  0  0  0  0
   60.7820   30.9680   50.0850 C   0  0  0  0  0  0  0  0  0  0  0  0
   60.7060   32.2110   49.5050 C   0  0  0  0  0  0  0  0  0  0  0  0
   59.4790   32.8680   49.4870 C   0  0  0  0  0  0  0  0  0  0  0  0
   59.4440   34.0160   48.9440 N   0  0  0  0  0  0  0  0  0  0  0  0
   59.8280   34.2990   47.2800 S   0  0  0  0  0  0  0  0  0  0  0  0
   61.3040   34.1350   47.0560 O   0  0  0  0  0  0  0  0  0  0  0  0
   59.3530   35.6350   46.8170 O   0  0  0  0  0  0  0  0  0  0  0  0
   58.9470   33.0640   46.3750 C   0  0  0  0  0  0  0  0  0  0  0  0
   59.4160   31.7470   46.3780 C   0  0  0  0  0  0  0  0  0  0  0  0
   58.7150   30.7940   45.6640 C   0  0  0  0  0  0  0  0  0  0  0  0
   57.5680   31.0860   44.9470 C   0  0  0  0  0  0  0  0  0  0  0  0
   56.6730   29.9020   44.0450 S   0  0  0  0  0  0  0  0  0  0  0  0
   57.5980   28.4880   43.7250 N   0  0  0  0  0  0  0  0  0  0  0  0
   56.2020   30.4600   42.7310 O   0  0  0  0  0  0  0  0  0  0  0  0
   55.4370   29.4770   44.7870 O   0  0  0  0  0  0  0  0  0  0  0  0
   57.1350   32.3940   44.9670 C   0  0  0  0  0  0  0  0  0  0  0  0
   57.8040   33.3760   45.6650 C   0  0  0  0  0  0  0  0  0  0  0  0
   58.3650   32.3460   50.0100 N   0  0  0  0  0  0  0  0  0  0  0  0
   58.4720   31.1200   50.5740 C   0  0  0  0  0  0  0  0  0  0  0  0
   57.3880   30.4670   51.1510 O   0  0  0  0  0  0  0  0  0  0  0  0
   56.5320   31.1560   52.0330 C   0  0  0  0  0  0  0  0  0  0  0  0
   59.6540   30.4550   50.6050 N   0  0  0  0  0  0  0  0  0  0  0  0
   63.2558   30.9527   51.5714 H   0  0  0  0  0  0  0  0  0  0  0  0
   64.0135   30.3460   50.0600 H   0  0  0  0  0  0  0  0  0  0  0  0
   63.1422   31.9168   50.0600 H   0  0  0  0  0  0  0  0  0  0  0  0
   61.5983   32.6784   49.0630 H   0  0  0  0  0  0  0  0  0  0  0  0
   60.3237   31.4752   46.9368 H   0  0  0  0  0  0  0  0  0  0  0  0
   59.0849   29.7580   45.6656 H   0  0  0  0  0  0  0  0  0  0  0  0
   56.9840   27.7200   43.3240 H   0  0  0  0  0  0  0  0  0  0  0  0
   58.3200   28.6440   42.9810 H   0  0  0  0  0  0  0  0  0  0  0  0
   56.2265   32.6628   44.4081 H   0  0  0  0  0  0  0  0  0  0  0  0
   57.4273   34.4095   45.6567 H   0  0  0  0  0  0  0  0  0  0  0  0
   56.8150   30.9282   53.0713 H   0  0  0  0  0  0  0  0  0  0  0  0
   56.6196   32.2385   51.8581 H   0  0  0  0  0  0  0  0  0  0  0  0
   55.4932   30.8392   51.8581 H   0  0  0  0  0  0  0  0  0  0  0  0
   59.7250   29.5060   51.0450 H   0  0  0  0  0  0  0  0  0  0  0  0
  1  2  1  0
  2  3  1  0
  3  4  2  0
  4  5  1  0
  5  6  2  0
  6  7  1  0
  7  8  2  0
  7  9  2  0
  7 10  1  0
 10 11  2  0
 11 12  1  0
 12 13  2  0
 13 14  1  0
 14 15  1  0
 14 16  2  0
 14 17  2  0
 13 18  1  0
 18 19  2  0
  5 20  1  0
 20 21  2  0
 21 22  1  0
 22 23  1  0
 21 24  1  0
 24  3  1  0
 19 10  1  0
  1 25  1  0
  1 26  1  0
  1 27  1  0
  4 28  1  0
 11 29  1  0
 12 30  1  0
 15 31  1  0
 15 32  1  0
 18 33  1  0
 19 34  1  0
 23 35  1  0
 23 36  1  0
 23 37  1  0
 24 38  1  0
M  END
>  <smiles>  (18) 
COc1cc(=NS(=O)(=O)c2ccc(S(N)(=O)=O)cc2)nc(OC)[nH]1

>  <score_type>  (18) 
oracle

>  <origin>  (18) 
adg

>  <m_score__min__energy>  (18) 
-8.0899999999999999

>  <m_primary>  (18) 
energy

$$$$
18:0
     RDKit          3D

 96101  0  0  0  0  0  0  0  0999 V2000
   56.3321   27.4075   45.3644 H   0  0  0  0  0  0  0  0  0  0  0  0
   56.8210   28.3460   45.0640 C   0  0  0  0  0  0  0  0  0  0  0  0
   56.2400   29.5620   45.2510 N   0  0  0  0  0  0  0  0  0  0  0  0
   57.0280   30.5630   44.8060 C   0  0  0  0  0  0  0  0  0  0  0  0
   56.6580   31.8070   44.8520 N   0  0  0  0  0  0  0  0  0  0  0  0
   57.7410   33.1610   44.7530 S   0  0  0  0  0  0  0  0  0  0  0  0
   58.4200   33.1340   43.4130 O   0  0  0  0  0  0  0  0  0  0  0  0
   56.9600   34.4340   44.8710 O   0  0  0  0  0  0  0  0  0  0  0  0
   58.9680   33.0880   46.0140 C   0  0  0  0  0  0  0  0  0  0  0  0
   59.6250   34.2620   46.4000 C   0  0  0  0  0  0  0  0  0  0  0  0
   59.3809   35.2132   45.9045 H   0  0  0  0  0  0  0  0  0  0  0  0
   60.5910   34.2330   47.4130 C   0  0  0  0  0  0  0  0  0  0  0  0
   61.1034   35.1612   47.7061 H   0  0  0  0  0  0  0  0  0  0  0  0
   60.9090   33.0310   48.0550 C   0  0  0  0  0  0  0  0  0  0  0  0
   61.8440   33.0480   49.1470 N   0  0  0  0  0  0  0  0  0  0  0  0
   61.5530   33.2860   50.5100 C   0  0  0  0  0  0  0  0  0  0  0  0
   60.3120   33.6560   51.0470 C   0  0  0  0  0  0  0  0  0  0  0  0
   59.1820   33.8160   50.2430 O   0  0  0  0  0  0  0  0  0  0  0  0
   60.2090   33.8470   52.4250 C   0  0  0  0  0  0  0  0  0  0  0  0
   59.2522   34.1677   52.8628 H   0  0  0  0  0  0  0  0  0  0  0  0
   61.3210   33.6320   53.2570 C   0  0  0  0  0  0  0  0  0  0  0  0
   61.2233   33.7718   54.3437 H   0  0  0  0  0  0  0  0  0  0  0  0
   62.5570   33.2400   52.7140 C   0  0  0  0  0  0  0  0  0  0  0  0
   63.6510   32.9570   53.6440 C   0  0  0  0  0  0  0  0  0  0  0  0
   64.6620   33.7090   53.6540 O   0  0  0  0  0  0  0  0  0  0  0  0
   63.6730   31.6930   54.4370 C   0  0  0  0  0  0  0  0  0  0  0  0
   63.6688   31.9334   55.5104 H   0  0  0  0  0  0  0  0  0  0  0  0
   62.7852   31.0913   54.1926 H   0  0  0  0  0  0  0  0  0  0  0  0
   64.5812   31.1226   54.1926 H   0  0  0  0  0  0  0  0  0  0  0  0
   62.6610   33.0810   51.3100 C   0  0  0  0  0  0  0  0  0  0  0  0
   63.8420   32.6220   50.4600 C   0  0  0  0  0  0  0  0  0  0  0  0
   63.2360   32.6530   49.0030 C   0  0  0  0  0  0  0  0  0  0  0  0
   63.7763   33.3822   48.3814 H   0  0  0  0  0  0  0  0  0  0  0  0
   63.3241   31.6721   48.5129 H   0  0  0  0  0  0  0  0  0  0  0  0
   65.0300   33.6110   50.5540 C   0  0  0  0  0  0  0  0  0  0  0  0
   64.7741   34.5392   50.0220 H   0  0  0  0  0  0  0  0  0  0  0  0
   65.2333   33.8311   51.6124 H   0  0  0  0  0  0  0  0  0  0  0  0
   66.2870   32.9880   49.9170 C   0  0  0  0  0  0  0  0  0  0  0  0
   66.0679   32.7610   48.8632 H   0  0  0  0  0  0  0  0  0  0  0  0
   67.1018   33.7192   50.0240 H   0  0  0  0  0  0  0  0  0  0  0  0
   66.7310   31.7320   50.5890 N   0  0  0  0  0  0  0  0  0  0  0  0
   68.0140   31.9350   51.3130 C   0  0  0  0  0  0  0  0  0  0  0  0
   67.9941   31.3395   52.2376 H   0  0  0  0  0  0  0  0  0  0  0  0
   68.8269   31.6193   50.6426 H   0  0  0  0  0  0  0  0  0  0  0  0
   68.2650   33.4250   51.6860 C   0  0  0  0  0  0  0  0  0  0  0  0
   67.3124   33.9541   51.5358 H   0  0  0  0  0  0  0  0  0  0  0  0
   69.3380   34.0600   50.7800 C   0  0  0  0  0  0  0  0  0  0  0  0
   70.1179   34.5216   51.4034 H   0  0  0  0  0  0  0  0  0  0  0  0
   69.7884   33.2829   50.1450 H   0  0  0  0  0  0  0  0  0  0  0  0
   68.8735   34.8288   50.1450 H   0  0  0  0  0  0  0  0  0  0  0  0
   68.6950   33.5690   53.1600 C   0  0  0  0  0  0  0  0  0  0  0  0
   67.8573   33.2885   53.8154 H   0  0  0  0  0  0  0  0  0  0  0  0
   69.5524   32.9090   53.3580 H   0  0  0  0  0  0  0  0  0  0  0  0
   68.9820   34.6123   53.3580 H   0  0  0  0  0  0  0  0  0  0  0  0
   65.7000   31.1190   51.4640 C   0  0  0  0  0  0  0  0  0  0  0  0
   65.9671   30.0664   51.6393 H   0  0  0  0  0  0  0  0  0  0  0  0
   65.6751   31.6926   52.4023 H   0  0  0  0  0  0  0  0  0  0  0  0
   64.2890   31.1740   50.8450 C   0  0  0  0  0  0  0  0  0  0  0  0
   64.2808   30.5525   49.9374 H   0  0  0  0  0  0  0  0  0  0  0  0
   63.5840   30.8050   51.6045 H   0  0  0  0  0  0  0  0  0  0  0  0
   60.2660   31.8280   47.6600 C   0  0  0  0  0  0  0  0  0  0  0  0
   60.6130   30.5520   48.2550 N   0  0  0  0  0  0  0  0  0  0  0  0
   61.2490   30.7160   49.0720 H   0  0  0  0  0  0  0  0  0  0  0  0
   61.1350   29.9600   47.5690 H   0  0  0  0  0  0  0  0  0  0  0  0
   59.3970   29.8570   48.7210 C   0  0  0  0  0  0  0  0  0  0  0  0
   58.6039   30.5999   48.8916 H   0  0  0  0  0  0  0  0  0  0  0  0
   59.0960   29.1331   47.9494 H   0  0  0  0  0  0  0  0  0  0  0  0
   59.6520   29.0920   50.0250 C   0  0  0  0  0  0  0  0  0  0  0  0
   58.7062   28.9705   50.5734 H   0  0  0  0  0  0  0  0  0  0  0  0
   60.0664   28.0981   49.8004 H   0  0  0  0  0  0  0  0  0  0  0  0
   60.6090   29.8610   50.8490 N   0  0  0  0  0  0  0  0  0  0  0  0
   61.7610   29.0260   51.2440 C   0  0  0  0  0  0  0  0  0  0  0  0
   61.8224   28.9815   52.3414 H   0  0  0  0  0  0  0  0  0  0  0  0
   61.6323   28.0100   50.8424 H   0  0  0  0  0  0  0  0  0  0  0  0
   62.6865   29.4645   50.8424 H   0  0  0  0  0  0  0  0  0  0  0  0
   59.9750   30.4880   52.0290 C   0  0  0  0  0  0  0  0  0  0  0  0
   60.5197   30.1909   52.9373 H   0  0  0  0  0  0  0  0  0  0  0  0
   60.0059   31.5821   51.9196 H   0  0  0  0  0  0  0  0  0  0  0  0
   58.5470   30.0410   52.1360 C   0  0  0  0  0  0  0  0  0  0  0  0
   58.0240   28.9550   52.8150 C   0  0  0  0  0  0  0  0  0  0  0  0
   58.7870   27.9190   53.5700 C   0  0  0  0  0  0  0  0  0  0  0  0
   58.6633   28.0870   54.6500 H   0  0  0  0  0  0  0  0  0  0  0  0
   58.4070   26.9204   53.3083 H   0  0  0  0  0  0  0  0  0  0  0  0
   59.8533   27.9857   53.3083 H   0  0  0  0  0  0  0  0  0  0  0  0
   56.6820   28.9610   52.6910 N   0  0  0  0  0  0  0  0  0  0  0  0
   56.3640   30.0080   51.9850 O   0  0  0  0  0  0  0  0  0  0  0  0
   57.4320   30.6830   51.6310 C   0  0  0  0  0  0  0  0  0  0  0  0
   57.4020   31.9550   50.8490 C   0  0  0  0  0  0  0  0  0  0  0  0
   57.3818   32.8102   51.5406 H   0  0  0  0  0  0  0  0  0  0  0  0
   58.2989   32.0170   50.2152 H   0  0  0  0  0  0  0  0  0  0  0  0
   56.5031   31.9747   50.2152 H   0  0  0  0  0  0  0  0  0  0  0  0
   59.3050   31.8740   46.6270 C   0  0  0  0  0  0  0  0  0  0  0  0
   58.8147   30.9454   46.2993 H   0  0  0  0  0  0  0  0  0  0  0  0
   58.4760   29.9820   44.1700 S   0  0  0  0  0  0  0  0  0  0  0  0
   58.0750   28.3730   44.4670 C   0  0  0  0  0  0  0  0  0  0  0  0
   58.6971   27.4973   44.2298 H   0  0  0  0  0  0  0  0  0  0  0  0
  1  2  1  0
  2  3  1  0
  3  4  1  0
  4  5  2  0
  5  6  1  0
  6  7  2  0
  6  8  2  0
  6  9  1  0
  9 10  2  0
 10 11  1  0
 10 12  1  0
 12 13  1  0
 12 14  2  0
 14 15  1  0
 15 16  1  0
 16 17  2  0
 17 18  1  0
 17 19  1  0
 19 20  1  0
 19 21  2  0
 21 22  1  0
 21 23  1  0
 23 24  1  0
 24 25  2  0
 24 26  1  0
 26 27  1  0
 26 28  1  0
 26 29  1  0
 23 30  2  0
 30 31  1  0
 31 32  1  0
 32 33  1  0
 32 34  1  0
 31 35  1  0
 35 36  1  0
 35 37  1  0
 35 38  1  0
 38 39  1  0
 38 40  1  0
 38 41  1  0
 41 42  1  0
 42 43  1  0
 42 44  1  0
 42 45  1  0
 45 46  1  0
 45 47  1  0
 47 48  1  0
 47 49  1  0
 47 50  1  0
 45 51  1  0
 51 52  1  0
 51 53  1  0
 51 54  1  0
 41 55  1  0
 55 56  1  0
 55 57  1  0
 55 58  1  0
 58 59  1  0
 58 60  1  0
 14 61  1  0
 61 62  1  0
 62 63  1  0
 62 64  1  0
 62 65  1  0
 65 66  1  0
 65 67  1  0
 65 68  1  0
 68 69  1  0
 68 70  1  0
 68 71  1  0
 71 72  1  0
 72 73  1  0
 72 74  1  0
 72 75  1  0
 71 76  1  0
 76 77  1  0
 76 78  1  0
 76 79  1  0
 79 80  1  0
 80 81  1  0
 81 82  1  0
 81 83  1  0
 81 84  1  0
 80 85  2  0
 85 86  1  0
 86 87  1  0
 87 88  1  0
 88 89  1  0
 88 90  1  0
 88 91  1  0
 61 92  2  0
 92 93  1  0
  4 94  1  0
 94 95  1  0
 95 96  1  0
 95  2  2  0
 92  9  1  0
 32 15  1  0
 87 79  2  0
 30 16  1  0
 58 31  1  0
M  CHG  3   3  -1  18  -1  62   1
M  END
>  <UniqueID>  (19) 
17

>  <SMILES>  (19) 
CC(=O)c1ccc([O-])c2c1C1(CCN(CC(C)C)CC1)CN2c1ccc(S(=O)(=O)/N=c2/[n-]ccs2)cc1[NH2+]CCN(C)Cc1c(C)noc1C

>  <Energy>  (19) 
205.89557210944218

>  <Genealogy>  (19) 
CC(=O)c1ccc([O-])c2c1C1(CCN(CC(C)C)CC1)CN2c1ccc(S(=O)(=O)N=c2[n-]ccs2)cc1[NH2+]CCN(C)Cc1c(C)noc1C (protonated)
CC(=O)c1ccc([O-])c2c1C1(CCN(CC(C)C)CC1)CN2c1ccc(S(=O)(=O)/N=c2/[n-]ccs2)cc1[NH2+]CCN(C)Cc1c(C)noc1C (cis-trans isomerization)
CC(=O)c1ccc([O-])c2c1C1(CCN(CC(C)C)CC1)CN2c1ccc(S(=O)(=O)/N=c2/[n-]ccs2)cc1[NH2+]CCN(C)Cc1c(C)noc1C (3D coordinates assigned)
CC(=O)c1ccc([O-])c2c1C1(CCN(CC(C)C)CC1)CN2c1ccc(S(=O)(=O)/N=c2/[n-]ccs2)cc1[NH2+]CCN(C)Cc1c(C)noc1C (nonaromatic ring conformer: 205.89557210944218 kcal/mol)

>  <smiles>  (19) 
CC(=O)c1ccc(O)c2c1C1(CCN(CC(C)C)CC1)CN2c1ccc(S(=O)(=O)N=c2[nH]ccs2)cc1NCCN(C)Cc1c(C)noc1C

>  <score_type>  (19) 
oracle

>  <origin>  (19) 
adg

>  <m_score__min__energy>  (19) 
-12.52

>  <m_primary>  (19) 
energy

$$$$
19:0
     RDKit          3D

 56 58  0  0  0  0  0  0  0  0999 V2000
   55.5570   27.9230   45.0850 H   0  0  0  0  0  0  0  0  0  0  0  0
   55.5120   28.9600   44.9730 N   0  0  0  0  0  0  0  0  0  0  0  0
   56.6500   29.3830   43.7400 S   0  0  0  0  0  0  0  0  0  0  0  0
   57.6460   28.2700   43.5740 O   0  0  0  0  0  0  0  0  0  0  0  0
   55.9250   29.5800   42.4360 O   0  0  0  0  0  0  0  0  0  0  0  0
   57.4850   30.8660   44.1930 C   0  0  0  0  0  0  0  0  0  0  0  0
   57.6100   31.9160   43.2730 C   0  0  0  0  0  0  0  0  0  0  0  0
   57.1977   31.8083   42.2589 H   0  0  0  0  0  0  0  0  0  0  0  0
   58.2570   33.1000   43.6400 C   0  0  0  0  0  0  0  0  0  0  0  0
   58.3491   33.9218   42.9146 H   0  0  0  0  0  0  0  0  0  0  0  0
   58.7870   33.2430   44.9250 C   0  0  0  0  0  0  0  0  0  0  0  0
   59.2888   34.1792   45.2107 H   0  0  0  0  0  0  0  0  0  0  0  0
   58.6800   32.1910   45.8550 C   0  0  0  0  0  0  0  0  0  0  0  0
   59.1890   32.3210   47.1940 N   0  0  0  0  0  0  0  0  0  0  0  0
   59.4660   31.4470   47.6970 H   0  0  0  0  0  0  0  0  0  0  0  0
   59.4700   33.5830   47.8260 C   0  0  0  0  0  0  0  0  0  0  0  0
   59.4430   34.6550   47.1640 O   0  0  0  0  0  0  0  0  0  0  0  0
   59.8030   33.6350   49.2840 C   0  0  0  0  0  0  0  0  0  0  0  0
   60.6748   34.2876   49.4387 H   0  0  0  0  0  0  0  0  0  0  0  0
   58.9446   34.0344   49.8440 H   0  0  0  0  0  0  0  0  0  0  0  0
   60.1040   32.3220   49.7450 O   0  0  0  0  0  0  0  0  0  0  0  0
   61.2350   31.6160   49.3220 C   0  0  0  0  0  0  0  0  0  0  0  0
   62.3670   32.1730   49.3230 O   0  0  0  0  0  0  0  0  0  0  0  0
   61.0830   30.1970   48.9450 C   0  0  0  0  0  0  0  0  0  0  0  0
   61.0336   29.4616   49.7616 H   0  0  0  0  0  0  0  0  0  0  0  0
   61.0000   29.7280   47.6900 C   0  0  0  0  0  0  0  0  0  0  0  0
   61.7503   30.0811   46.9672 H   0  0  0  0  0  0  0  0  0  0  0  0
   59.9820   28.7760   47.2020 C   0  0  0  0  0  0  0  0  0  0  0  0
   58.7950   28.5530   47.9210 C   0  0  0  0  0  0  0  0  0  0  0  0
   58.5985   29.1196   48.8431 H   0  0  0  0  0  0  0  0  0  0  0  0
   57.8630   27.6140   47.4690 C   0  0  0  0  0  0  0  0  0  0  0  0
   56.9284   27.4570   48.0275 H   0  0  0  0  0  0  0  0  0  0  0  0
   58.1150   26.8720   46.3070 C   0  0  0  0  0  0  0  0  0  0  0  0
   56.9350   25.6890   45.7380 S   0  0  0  0  0  0  0  0  0  0  0  0
   55.5490   26.2090   46.0050 O   0  0  0  0  0  0  0  0  0  0  0  0
   57.0870   25.5170   44.2510 O   0  0  0  0  0  0  0  0  0  0  0  0
   57.1300   24.1410   46.5240 N   0  0  0  0  0  0  0  0  0  0  0  0
   57.2460   23.0660   45.5270 C   0  0  0  0  0  0  0  0  0  0  0  0
   56.3582   23.0755   44.8776 H   0  0  0  0  0  0  0  0  0  0  0  0
   58.1528   23.2303   44.9264 H   0  0  0  0  0  0  0  0  0  0  0  0
   57.3490   21.6960   46.2290 C   0  0  0  0  0  0  0  0  0  0  0  0
   56.4994   21.0709   45.9168 H   0  0  0  0  0  0  0  0  0  0  0  0
   58.3053   21.2348   45.9412 H   0  0  0  0  0  0  0  0  0  0  0  0
   57.3290   21.8260   47.6390 O   0  0  0  0  0  0  0  0  0  0  0  0
   56.1320   22.4640   48.0450 C   0  0  0  0  0  0  0  0  0  0  0  0
   55.2755   21.8523   47.7254 H   0  0  0  0  0  0  0  0  0  0  0  0
   56.1530   22.5697   49.1397 H   0  0  0  0  0  0  0  0  0  0  0  0
   56.0000   23.8720   47.4270 C   0  0  0  0  0  0  0  0  0  0  0  0
   55.0596   23.9326   46.8596 H   0  0  0  0  0  0  0  0  0  0  0  0
   56.0015   24.6189   48.2345 H   0  0  0  0  0  0  0  0  0  0  0  0
   59.3120   27.0740   45.6040 C   0  0  0  0  0  0  0  0  0  0  0  0
   59.5174   26.4920   44.6934 H   0  0  0  0  0  0  0  0  0  0  0  0
   60.2450   28.0120   46.0560 C   0  0  0  0  0  0  0  0  0  0  0  0
   61.1898   28.1513   45.5101 H   0  0  0  0  0  0  0  0  0  0  0  0
   58.0080   31.0140   45.4860 C   0  0  0  0  0  0  0  0  0  0  0  0
   57.8909   30.2010   46.2177 H   0  0  0  0  0  0  0  0  0  0  0  0
  1  2  1  0
  2  3  1  0
  3  4  2  0
  3  5  2  0
  3  6  1  0
  6  7  2  0
  7  8  1  0
  7  9  1  0
  9 10  1  0
  9 11  2  0
 11 12  1  0
 11 13  1  0
 13 14  1  0
 14 15  1  0
 14 16  1  0
 16 17  2  0
 16 18  1  0
 18 19  1  0
 18 20  1  0
 18 21  1  0
 21 22  1  0
 22 23  2  0
 22 24  1  0
 24 25  1  0
 24 26  2  0
 26 27  1  0
 26 28  1  0
 28 29  2  0
 29 30  1  0
 29 31  1  0
 31 32  1  0
 31 33  2  0
 33 34  1  0
 34 35  2  0
 34 36  2  0
 34 37  1  0
 37 38  1  0
 38 39  1  0
 38 40  1  0
 38 41  1  0
 41 42  1  0
 41 43  1  0
 41 44  1  0
 44 45  1  0
 45 46  1  0
 45 47  1  0
 45 48  1  0
 48 49  1  0
 48 50  1  0
 33 51  1  0
 51 52  1  0
 51 53  2  0
 53 54  1  0
 13 55  2  0
 55 56  1  0
 55  6  1  0
 53 28  1  0
 48 37  1  0
M  CHG  1   2  -1
M  END
>  <UniqueID>  (20) 
18

>  <SMILES>  (20) 
[NH-]S(=O)(=O)c1cccc(NC(=O)COC(=O)/C=C\c2ccc(S(=O)(=O)N3CCOCC3)cc2)c1

>  <Energy>  (20) 
71.83692668944245

>  <Genealogy>  (20) 
[NH-]S(=O)(=O)c1cccc(NC(=O)COC(=O)C=Cc2ccc(S(=O)(=O)N3CCOCC3)cc2)c1 (protonated)
[NH-]S(=O)(=O)c1cccc(NC(=O)COC(=O)/C=C\c2ccc(S(=O)(=O)N3CCOCC3)cc2)c1 (cis-trans isomerization)
[NH-]S(=O)(=O)c1cccc(NC(=O)COC(=O)/C=C\c2ccc(S(=O)(=O)N3CCOCC3)cc2)c1 (3D coordinates assigned)
[NH-]S(=O)(=O)c1cccc(NC(=O)COC(=O)/C=C\c2ccc(S(=O)(=O)N3CCOCC3)cc2)c1 (nonaromatic ring conformer: 71.83692668944245 kcal/mol)

>  <smiles>  (20) 
NS(=O)(=O)c1cccc(NC(=O)COC(=O)C=Cc2ccc(S(=O)(=O)N3CCOCC3)cc2)c1

>  <score_type>  (20) 
oracle

>  <origin>  (20) 
adg

>  <m_score__min__energy>  (20) 
-13.390000000000001

>  <m_primary>  (20) 
energy

$$$$
20:0
     RDKit          3D

 31 32  0  0  0  0  0  0  0  0999 V2000
   54.0160   22.5970   45.1090 N   0  0  0  0  0  0  0  0  0  0  0  0
   55.4800   22.7220   44.1980 S   0  0  0  0  0  0  0  0  0  0  0  0
   55.1470   22.9730   42.7530 O   0  0  0  0  0  0  0  0  0  0  0  0
   56.2510   21.4330   44.2960 O   0  0  0  0  0  0  0  0  0  0  0  0
   56.4550   24.0480   44.8290 C   0  0  0  0  0  0  0  0  0  0  0  0
   56.5930   24.2240   46.2150 C   0  0  0  0  0  0  0  0  0  0  0  0
   57.3690   25.2750   46.7190 C   0  0  0  0  0  0  0  0  0  0  0  0
   58.0000   26.1760   45.8420 C   0  0  0  0  0  0  0  0  0  0  0  0
   58.8880   27.2670   46.3930 C   0  0  0  0  0  0  0  0  0  0  0  0
   58.1460   28.5190   46.5830 N   0  0  0  0  0  0  0  0  0  0  0  0
   57.7540   29.4530   45.5500 C   0  0  0  0  0  0  0  0  0  0  0  0
   58.6750   30.4540   45.1840 C   0  0  0  0  0  0  0  0  0  0  0  0
   58.3670   31.3920   44.1930 C   0  0  0  0  0  0  0  0  0  0  0  0
   57.1330   31.3490   43.5500 C   0  0  0  0  0  0  0  0  0  0  0  0
   56.1970   30.3780   43.9090 C   0  0  0  0  0  0  0  0  0  0  0  0
   56.4940   29.4290   44.8990 C   0  0  0  0  0  0  0  0  0  0  0  0
   55.5220   28.4840   45.2130 O   0  0  0  0  0  0  0  0  0  0  0  0
   57.8690   25.9860   44.4530 C   0  0  0  0  0  0  0  0  0  0  0  0
   57.0930   24.9350   43.9510 C   0  0  0  0  0  0  0  0  0  0  0  0
   53.8270   21.5780   45.2410 H   0  0  0  0  0  0  0  0  0  0  0  0
   56.0896   23.5336   46.9077 H   0  0  0  0  0  0  0  0  0  0  0  0
   57.4858   25.3967   47.8060 H   0  0  0  0  0  0  0  0  0  0  0  0
   59.2946   26.9418   47.3620 H   0  0  0  0  0  0  0  0  0  0  0  0
   59.6972   27.4512   45.6711 H   0  0  0  0  0  0  0  0  0  0  0  0
   57.8790   28.7440   47.5670 H   0  0  0  0  0  0  0  0  0  0  0  0
   59.6528   30.4988   45.6859 H   0  0  0  0  0  0  0  0  0  0  0  0
   59.1011   32.1649   43.9213 H   0  0  0  0  0  0  0  0  0  0  0  0
   56.8964   32.0783   42.7612 H   0  0  0  0  0  0  0  0  0  0  0  0
   55.2165   30.3564   43.4108 H   0  0  0  0  0  0  0  0  0  0  0  0
   58.3800   26.6682   43.7577 H   0  0  0  0  0  0  0  0  0  0  0  0
   56.9835   24.8047   42.8643 H   0  0  0  0  0  0  0  0  0  0  0  0
  1  2  1  0
  2  3  2  0
  2  4  2  0
  2  5  1  0
  5  6  2  0
  6  7  1  0
  7  8  2  0
  8  9  1  0
  9 10  1  0
 10 11  1  0
 11 12  2  0
 12 13  1  0
 13 14  2  0
 14 15  1  0
 15 16  2  0
 16 17  1  0
  8 18  1  0
 18 19  2  0
 19  5  1  0
 16 11  1  0
  1 20  1  0
  6 21  1  0
  7 22  1  0
  9 23  1  0
  9 24  1  0
 10 25  1  0
 12 26  1  0
 13 27  1  0
 14 28  1  0
 15 29  1  0
 18 30  1  0
 19 31  1  0
M  CHG  2   1  -1  17  -1
M  END
>  <UniqueID>  (21) 
19

>  <SMILES>  (21) 
[NH-]S(=O)(=O)c1ccc(CNc2ccccc2[O-])cc1

>  <Energy>  (21) 
34.70307699283644

>  <Genealogy>  (21) 
[NH-]S(=O)(=O)c1ccc(CNc2ccccc2[O-])cc1 (protonated)
[NH-]S(=O)(=O)c1ccc(CNc2ccccc2[O-])cc1 (3D coordinates assigned)
[NH-]S(=O)(=O)c1ccc(CNc2ccccc2[O-])cc1 (optimized conformer: 34.70307699283644 kcal/mol)

>  <smiles>  (21) 
NS(=O)(=O)c1ccc(CNc2ccccc2O)cc1

>  <score_type>  (21) 
oracle

>  <origin>  (21) 
adg

>  <m_score__min__energy>  (21) 
-11.85

>  <m_primary>  (21) 
energy

$$$$
21:0
     RDKit          3D

 48 50  0  0  0  0  0  0  0  0999 V2000
   56.4081   31.3305   42.4012 H   0  0  0  0  0  0  0  0  0  0  0  0
   57.0740   31.4120   43.2730 C   0  0  0  0  0  0  0  0  0  0  0  0
   57.1730   30.2700   44.2030 C   0  0  0  0  0  0  0  0  0  0  0  0
   56.2640   30.0620   45.0540 O   0  0  0  0  0  0  0  0  0  0  0  0
   58.2900   29.3730   44.1010 N   0  0  0  0  0  0  0  0  0  0  0  0
   58.8570   29.3970   43.2230 H   0  0  0  0  0  0  0  0  0  0  0  0
   58.6080   28.3670   45.0790 C   0  0  0  0  0  0  0  0  0  0  0  0
   57.6000   27.4960   45.5230 C   0  0  0  0  0  0  0  0  0  0  0  0
   56.5764   27.6013   45.1341 H   0  0  0  0  0  0  0  0  0  0  0  0
   57.8890   26.4960   46.4560 C   0  0  0  0  0  0  0  0  0  0  0  0
   57.0909   25.8254   46.8073 H   0  0  0  0  0  0  0  0  0  0  0  0
   59.1900   26.3470   46.9430 C   0  0  0  0  0  0  0  0  0  0  0  0
   59.4148   25.5642   47.6824 H   0  0  0  0  0  0  0  0  0  0  0  0
   60.2050   27.1930   46.4900 C   0  0  0  0  0  0  0  0  0  0  0  0
   61.2307   27.0702   46.8680 H   0  0  0  0  0  0  0  0  0  0  0  0
   59.9210   28.1960   45.5570 C   0  0  0  0  0  0  0  0  0  0  0  0
   60.7260   28.8529   45.1959 H   0  0  0  0  0  0  0  0  0  0  0  0
   57.7680   32.5460   43.4540 C   0  0  0  0  0  0  0  0  0  0  0  0
   58.0462   33.1323   42.5658 H   0  0  0  0  0  0  0  0  0  0  0  0
   58.1810   33.0530   44.7860 C   0  0  0  0  0  0  0  0  0  0  0  0
   57.2440   33.0390   45.8280 C   0  0  0  0  0  0  0  0  0  0  0  0
   56.2309   32.6520   45.6439 H   0  0  0  0  0  0  0  0  0  0  0  0
   57.5830   33.5110   47.0970 C   0  0  0  0  0  0  0  0  0  0  0  0
   56.8380   33.4871   47.9060 H   0  0  0  0  0  0  0  0  0  0  0  0
   58.8710   34.0170   47.3480 C   0  0  0  0  0  0  0  0  0  0  0  0
   59.2560   34.4940   48.6130 O   0  0  0  0  0  0  0  0  0  0  0  0
   59.9880   33.7530   49.5900 C   0  0  0  0  0  0  0  0  0  0  0  0
   61.0462   34.0506   49.5499 H   0  0  0  0  0  0  0  0  0  0  0  0
   59.5672   33.9677   50.5834 H   0  0  0  0  0  0  0  0  0  0  0  0
   59.8810   32.2740   49.3300 C   0  0  0  0  0  0  0  0  0  0  0  0
   58.8010   31.5430   49.8550 C   0  0  0  0  0  0  0  0  0  0  0  0
   58.0382   32.0522   50.4623 H   0  0  0  0  0  0  0  0  0  0  0  0
   58.6930   30.1710   49.6080 C   0  0  0  0  0  0  0  0  0  0  0  0
   57.8492   29.6025   50.0262 H   0  0  0  0  0  0  0  0  0  0  0  0
   59.6550   29.5210   48.8310 C   0  0  0  0  0  0  0  0  0  0  0  0
   59.5694   28.4411   48.6402 H   0  0  0  0  0  0  0  0  0  0  0  0
   60.7260   30.2420   48.2960 C   0  0  0  0  0  0  0  0  0  0  0  0
   61.4816   29.7295   47.6825 H   0  0  0  0  0  0  0  0  0  0  0  0
   60.8380   31.6150   48.5400 C   0  0  0  0  0  0  0  0  0  0  0  0
   61.6785   32.1808   48.1117 H   0  0  0  0  0  0  0  0  0  0  0  0
   59.8120   34.0580   46.3090 C   0  0  0  0  0  0  0  0  0  0  0  0
   61.0850   34.5830   46.5870 O   0  0  0  0  0  0  0  0  0  0  0  0
   62.2920   33.8270   46.5780 C   0  0  0  0  0  0  0  0  0  0  0  0
   62.6083   33.6289   47.6128 H   0  0  0  0  0  0  0  0  0  0  0  0
   62.1232   32.8729   46.0571 H   0  0  0  0  0  0  0  0  0  0  0  0
   63.0767   34.3953   46.0571 H   0  0  0  0  0  0  0  0  0  0  0  0
   59.4630   33.5810   45.0300 C   0  0  0  0  0  0  0  0  0  0  0  0
   60.1996   33.6216   44.2140 H   0  0  0  0  0  0  0  0  0  0  0  0
  1  2  1  0
  2  3  1  0
  3  4  2  0
  3  5  1  0
  5  6  1  0
  5  7  1  0
  7  8  2  0
  8  9  1  0
  8 10  1  0
 10 11  1  0
 10 12  2  0
 12 13  1  0
 12 14  1  0
 14 15  1  0
 14 16  2  0
 16 17  1  0
  2 18  2  0
 18 19  1  0
 18 20  1  0
 20 21  2  0
 21 22  1  0
 21 23  1  0
 23 24  1  0
 23 25  2  0
 25 26  1  0
 26 27  1  0
 27 28  1  0
 27 29  1  0
 27 30  1  0
 30 31  2  0
 31 32  1  0
 31 33  1  0
 33 34  1  0
 33 35  2  0
 35 36  1  0
 35 37  1  0
 37 38  1  0
 37 39  2  0
 39 40  1  0
 25 41  1  0
 41 42  1  0
 42 43  1  0
 43 44  1  0
 43 45  1  0
 43 46  1  0
 41 47  2  0
 47 48  1  0
 16  7  1  0
 47 20  1  0
 39 30  1  0
M  END
>  <UniqueID>  (22) 
20

>  <SMILES>  (22) 
COc1cc(/C=C/C(=O)Nc2ccccc2)ccc1OCc1ccccc1

>  <Energy>  (22) 
54.82261081666634

>  <Genealogy>  (22) 
COc1cc(/C=C/C(=O)Nc2ccccc2)ccc1OCc1ccccc1 (cis-trans isomerization)
COc1cc(/C=C/C(=O)Nc2ccccc2)ccc1OCc1ccccc1 (3D coordinates assigned)
COc1cc(/C=C/C(=O)Nc2ccccc2)ccc1OCc1ccccc1 (optimized conformer: 54.82261081666634 kcal/mol)

>  <smiles>  (22) 
COc1cc(C=CC(=O)Nc2ccccc2)ccc1OCc1ccccc1

>  <score_type>  (22) 
oracle

>  <origin>  (22) 
adg

>  <m_score__min__energy>  (22) 
-8.6400000000000006

>  <m_primary>  (22) 
energy

$$$$
22:0
     RDKit          3D

 47 49  0  0  0  0  0  0  0  0999 V2000
   58.1828   30.0586   43.3088 H   0  0  0  0  0  0  0  0  0  0  0  0
   57.4030   30.6640   43.7940 C   0  0  0  0  0  0  0  0  0  0  0  0
   56.3090   29.9780   44.5020 C   0  0  0  0  0  0  0  0  0  0  0  0
   55.1440   30.4580   44.5010 O   0  0  0  0  0  0  0  0  0  0  0  0
   56.5810   28.7270   45.1450 N   0  0  0  0  0  0  0  0  0  0  0  0
   57.6140   28.4740   46.1090 C   0  0  0  0  0  0  0  0  0  0  0  0
   58.5680   29.4480   46.4500 C   0  0  0  0  0  0  0  0  0  0  0  0
   58.5242   30.4447   45.9868 H   0  0  0  0  0  0  0  0  0  0  0  0
   59.5730   29.1530   47.3770 C   0  0  0  0  0  0  0  0  0  0  0  0
   60.3139   29.9219   47.6413 H   0  0  0  0  0  0  0  0  0  0  0  0
   59.6440   27.8880   47.9710 C   0  0  0  0  0  0  0  0  0  0  0  0
   60.6740   27.6390   48.9360 N   0  0  0  0  0  0  0  0  0  0  0  0
   60.8010   28.4120   50.4830 S   0  0  0  0  0  0  0  0  0  0  0  0
   60.4020   27.4340   51.5510 O   0  0  0  0  0  0  0  0  0  0  0  0
   62.2290   28.8250   50.7100 O   0  0  0  0  0  0  0  0  0  0  0  0
   59.7810   29.8530   50.5380 C   0  0  0  0  0  0  0  0  0  0  0  0
   58.5500   29.8040   51.2100 C   0  0  0  0  0  0  0  0  0  0  0  0
   58.2357   28.8747   51.7077 H   0  0  0  0  0  0  0  0  0  0  0  0
   57.7210   30.9280   51.2510 C   0  0  0  0  0  0  0  0  0  0  0  0
   56.0450   30.8470   52.1610 Br  0  0  0  0  0  0  0  0  0  0  0  0
   58.1220   32.1110   50.6250 C   0  0  0  0  0  0  0  0  0  0  0  0
   57.4716   32.9974   50.6603 H   0  0  0  0  0  0  0  0  0  0  0  0
   59.3450   32.1720   49.9550 C   0  0  0  0  0  0  0  0  0  0  0  0
   59.6540   33.1076   49.4659 H   0  0  0  0  0  0  0  0  0  0  0  0
   60.1870   31.0420   49.9010 C   0  0  0  0  0  0  0  0  0  0  0  0
   61.4240   31.0650   49.2350 O   0  0  0  0  0  0  0  0  0  0  0  0
   62.0550   32.2210   48.6870 C   0  0  0  0  0  0  0  0  0  0  0  0
   63.1374   32.1637   48.8743 H   0  0  0  0  0  0  0  0  0  0  0  0
   61.6296   33.1149   49.1665 H   0  0  0  0  0  0  0  0  0  0  0  0
   61.8120   32.3110   47.1840 C   0  0  0  0  0  0  0  0  0  0  0  0
   60.7952   32.6876   46.9989 H   0  0  0  0  0  0  0  0  0  0  0  0
   62.5447   32.9974   46.7346 H   0  0  0  0  0  0  0  0  0  0  0  0
   61.9208   31.3129   46.7346 H   0  0  0  0  0  0  0  0  0  0  0  0
   58.7120   26.9030   47.6000 C   0  0  0  0  0  0  0  0  0  0  0  0
   58.7735   25.8970   48.0406 H   0  0  0  0  0  0  0  0  0  0  0  0
   57.7070   27.1970   46.6730 C   0  0  0  0  0  0  0  0  0  0  0  0
   56.9847   26.4189   46.3853 H   0  0  0  0  0  0  0  0  0  0  0  0
   57.4820   31.9990   43.7200 C   0  0  0  0  0  0  0  0  0  0  0  0
   57.1771   32.4966   42.7875 H   0  0  0  0  0  0  0  0  0  0  0  0
   57.9620   32.8260   44.8410 C   0  0  0  0  0  0  0  0  0  0  0  0
   58.9310   34.2020   44.7440 S   0  0  0  0  0  0  0  0  0  0  0  0
   58.9890   34.5070   46.3950 C   0  0  0  0  0  0  0  0  0  0  0  0
   59.5245   35.3371   46.8789 H   0  0  0  0  0  0  0  0  0  0  0  0
   58.2440   33.5300   47.0440 C   0  0  0  0  0  0  0  0  0  0  0  0
   58.1173   33.4971   48.1362 H   0  0  0  0  0  0  0  0  0  0  0  0
   57.6700   32.5920   46.1790 C   0  0  0  0  0  0  0  0  0  0  0  0
   57.0489   31.7523   46.5242 H   0  0  0  0  0  0  0  0  0  0  0  0
  1  2  1  0
  2  3  1  0
  3  4  2  0
  3  5  1  0
  5  6  1  0
  6  7  2  0
  7  8  1  0
  7  9  1  0
  9 10  1  0
  9 11  2  0
 11 12  1  0
 12 13  1  0
 13 14  2  0
 13 15  2  0
 13 16  1  0
 16 17  2  0
 17 18  1  0
 17 19  1  0
 19 20  1  0
 19 21  2  0
 21 22  1  0
 21 23  1  0
 23 24  1  0
 23 25  2  0
 25 26  1  0
 26 27  1  0
 27 28  1  0
 27 29  1  0
 27 30  1  0
 30 31  1  0
 30 32  1  0
 30 33  1  0
 11 34  1  0
 34 35  1  0
 34 36  2  0
 36 37  1  0
  2 38  2  0
 38 39  1  0
 38 40  1  0
 40 41  1  0
 41 42  1  0
 42 43  1  0
 42 44  2  0
 44 45  1  0
 44 46  1  0
 46 47  1  0
 36  6  1  0
 46 40  2  0
 25 16  1  0
M  CHG  2   5  -1  12  -1
M  END
>  <UniqueID>  (23) 
21

>  <SMILES>  (23) 
CCOc1ccc(Br)cc1S(=O)(=O)[N-]c1ccc([N-]C(=O)/C=C/c2cccs2)cc1

>  <Energy>  (23) 
76.97843256021487

>  <Genealogy>  (23) 
CCOc1ccc(Br)cc1S(=O)(=O)[N-]c1ccc([N-]C(=O)C=Cc2cccs2)cc1 (protonated)
CCOc1ccc(Br)cc1S(=O)(=O)[N-]c1ccc([N-]C(=O)/C=C/c2cccs2)cc1 (cis-trans isomerization)
CCOc1ccc(Br)cc1S(=O)(=O)[N-]c1ccc([N-]C(=O)/C=C/c2cccs2)cc1 (3D coordinates assigned)
CCOc1ccc(Br)cc1S(=O)(=O)[N-]c1ccc([N-]C(=O)/C=C/c2cccs2)cc1 (optimized conformer: 76.97843256021487 kcal/mol)

>  <smiles>  (23) 
CCOc1ccc(Br)cc1S(=O)(=O)Nc1ccc(NC(=O)C=Cc2cccs2)cc1

>  <score_type>  (23) 
oracle

>  <origin>  (23) 
adg

>  <m_score__min__energy>  (23) 
-11.44

>  <m_primary>  (23) 
energy

$$$$
23:0
     RDKit          3D

 55 58  0  0  0  0  0  0  0  0999 V2000
   59.4110   34.8710   48.3740 H   0  0  0  0  0  0  0  0  0  0  0  0
   58.9260   35.2780   47.5830 O   0  0  0  0  0  0  0  0  0  0  0  0
   58.6380   34.5310   46.4420 C   0  0  0  0  0  0  0  0  0  0  0  0
   59.4930   34.5980   45.3380 C   0  0  0  0  0  0  0  0  0  0  0  0
   60.3854   35.2400   45.3748 H   0  0  0  0  0  0  0  0  0  0  0  0
   59.2190   33.8530   44.1880 C   0  0  0  0  0  0  0  0  0  0  0  0
   59.8933   33.9175   43.3213 H   0  0  0  0  0  0  0  0  0  0  0  0
   58.0860   33.0210   44.1320 C   0  0  0  0  0  0  0  0  0  0  0  0
   57.7950   32.2390   42.9060 C   0  0  0  0  0  0  0  0  0  0  0  0
   58.4310   32.4900   41.8480 O   0  0  0  0  0  0  0  0  0  0  0  0
   56.7610   31.2460   42.8640 N   0  0  0  0  0  0  0  0  0  0  0  0
   56.6220   30.2580   43.6990 C   0  0  0  0  0  0  0  0  0  0  0  0
   55.5360   30.1340   44.4910 N   0  0  0  0  0  0  0  0  0  0  0  0
   55.5610   29.0360   45.2450 N   0  0  0  0  0  0  0  0  0  0  0  0
   56.6690   28.2820   45.0580 C   0  0  0  0  0  0  0  0  0  0  0  0
   56.9020   26.9720   45.7400 C   0  0  0  0  0  0  0  0  0  0  0  0
   56.2043   26.2242   45.3350 H   0  0  0  0  0  0  0  0  0  0  0  0
   56.7372   27.0996   46.8201 H   0  0  0  0  0  0  0  0  0  0  0  0
   58.3340   26.4970   45.5130 C   0  0  0  0  0  0  0  0  0  0  0  0
   58.8605   27.2172   44.8694 H   0  0  0  0  0  0  0  0  0  0  0  0
   58.3179   25.5104   45.0269 H   0  0  0  0  0  0  0  0  0  0  0  0
   59.2000   26.3680   47.1140 S   0  0  0  0  0  0  0  0  0  0  0  0
   60.7090   27.2680   46.5970 C   0  0  0  0  0  0  0  0  0  0  0  0
   61.3513   26.5838   46.0232 H   0  0  0  0  0  0  0  0  0  0  0  0
   61.2182   27.6258   47.5040 H   0  0  0  0  0  0  0  0  0  0  0  0
   60.3820   28.4870   45.7260 C   0  0  0  0  0  0  0  0  0  0  0  0
   59.5359   28.2389   45.0683 H   0  0  0  0  0  0  0  0  0  0  0  0
   61.2768   28.7390   45.1379 H   0  0  0  0  0  0  0  0  0  0  0  0
   60.0180   29.6780   46.5570 C   0  0  0  0  0  0  0  0  0  0  0  0
   58.7470   30.0190   46.8610 N   0  0  0  0  0  0  0  0  0  0  0  0
   58.6580   31.1370   47.5800 N   0  0  0  0  0  0  0  0  0  0  0  0
   59.8560   31.7040   47.8420 C   0  0  0  0  0  0  0  0  0  0  0  0
   59.9560   32.7870   48.5570 N   0  0  0  0  0  0  0  0  0  0  0  0
   59.3040   33.1380   49.7920 C   0  0  0  0  0  0  0  0  0  0  0  0
   59.6770   34.1950   50.3700 O   0  0  0  0  0  0  0  0  0  0  0  0
   58.2330   32.2750   50.4420 C   0  0  1  0  0  0  0  0  0  0  0  0
   57.3888   32.3563   49.7414 H   0  0  0  0  0  0  0  0  0  0  0  0
   58.6180   30.8560   50.5700 N   0  0  0  0  0  0  0  0  0  0  0  0
   59.9520   30.6470   51.1570 C   0  0  0  0  0  0  0  0  0  0  0  0
   59.8757   30.6590   52.2543 H   0  0  0  0  0  0  0  0  0  0  0  0
   60.3494   29.6756   50.8276 H   0  0  0  0  0  0  0  0  0  0  0  0
   60.6275   31.4503   50.8276 H   0  0  0  0  0  0  0  0  0  0  0  0
   57.4300   30.0950   51.6530 S   0  0  0  0  0  0  0  0  0  0  0  0
   56.9340   31.6760   52.4110 C   0  0  0  0  0  0  0  0  0  0  0  0
   55.8715   31.8709   52.2036 H   0  0  0  0  0  0  0  0  0  0  0  0
   57.0787   31.6361   53.5007 H   0  0  0  0  0  0  0  0  0  0  0  0
   57.7840   32.7780   51.8110 C   0  0  0  0  0  0  0  0  0  0  0  0
   57.1927   33.6993   51.7032 H   0  0  0  0  0  0  0  0  0  0  0  0
   58.6457   33.0129   52.4531 H   0  0  0  0  0  0  0  0  0  0  0  0
   61.1160   30.7920   47.1820 S   0  0  0  0  0  0  0  0  0  0  0  0
   57.6820   28.9540   43.8900 S   0  0  0  0  0  0  0  0  0  0  0  0
   57.2210   32.9690   45.2410 C   0  0  0  0  0  0  0  0  0  0  0  0
   56.3210   32.3377   45.2039 H   0  0  0  0  0  0  0  0  0  0  0  0
   57.5000   33.7160   46.3900 C   0  0  0  0  0  0  0  0  0  0  0  0
   56.8235   33.6633   47.2558 H   0  0  0  0  0  0  0  0  0  0  0  0
  1  2  1  0
  2  3  1  0
  3  4  2  0
  4  5  1  0
  4  6  1  0
  6  7  1  0
  6  8  2  0
  8  9  1  0
  9 10  2  0
  9 11  1  0
 11 12  2  0
 12 13  1  0
 13 14  1  0
 14 15  2  0
 15 16  1  0
 16 17  1  0
 16 18  1  0
 16 19  1  0
 19 20  1  0
 19 21  1  0
 19 22  1  0
 22 23  1  0
 23 24  1  0
 23 25  1  0
 23 26  1  0
 26 27  1  0
 26 28  1  0
 26 29  1  0
 29 30  2  0
 30 31  1  0
 31 32  1  0
 32 33  2  0
 33 34  1  0
 34 35  2  0
 34 36  1  0
 36 37  1  6
 36 38  1  0
 38 39  1  0
 39 40  1  0
 39 41  1  0
 39 42  1  0
 38 43  1  0
 43 44  1  0
 44 45  1  0
 44 46  1  0
 44 47  1  0
 47 48  1  0
 47 49  1  0
 32 50  1  0
 15 51  1  0
  8 52  1  0
 52 53  1  0
 52 54  2  0
 54 55  1  0
 54  3  1  0
 51 12  1  0
 50 29  1  0
 47 36  1  0
M  CHG  2  13  -1  31  -1
M  END
>  <UniqueID>  (24) 
22

>  <SMILES>  (24) 
CN1SCC[C@H]1C(=O)/N=c1/[n-]nc(CCSCCc2n[n-]/c(=N/C(=O)c3ccc(O)cc3)s2)s1

>  <Energy>  (24) 
132.58030132500505

>  <Genealogy>  (24) 
CN1SCCC1C(=O)N=c1[n-]nc(CCSCCc2n[n-]c(=NC(=O)c3ccc(O)cc3)s2)s1 (protonated)
CN1SCC[C@H]1C(=O)N=c1[n-]nc(CCSCCc2n[n-]c(=NC(=O)c3ccc(O)cc3)s2)s1 (chirality)
CN1SCC[C@H]1C(=O)/N=c1/[n-]nc(CCSCCc2n[n-]/c(=N/C(=O)c3ccc(O)cc3)s2)s1 (cis-trans isomerization)
CN1SCC[C@H]1C(=O)/N=c1/[n-]nc(CCSCCc2n[n-]/c(=N/C(=O)c3ccc(O)cc3)s2)s1 (3D coordinates assigned)
CN1SCC[C@H]1C(=O)/N=c1/[n-]nc(CCSCCc2n[n-]/c(=N/C(=O)c3ccc(O)cc3)s2)s1 (nonaromatic ring conformer: 132.58030132500505 kcal/mol)

>  <smiles>  (24) 
CN1SCCC1C(=O)N=c1[nH]nc(CCSCCc2n[nH]c(=NC(=O)c3ccc(O)cc3)s2)s1

>  <score_type>  (24) 
oracle

>  <origin>  (24) 
adg

>  <m_score__min__energy>  (24) 
-13.640000000000001

>  <m_primary>  (24) 
energy

$$$$
24:0
     RDKit          3D

 36 36  0  0  0  0  0  0  0  0999 V2000
   55.7370   28.9640   45.1380 N   0  0  0  0  0  0  0  0  0  0  0  0
   56.9210   29.6510   44.0840 S   0  0  0  0  0  0  0  0  0  0  0  0
   56.2710   29.9250   42.7580 O   0  0  0  0  0  0  0  0  0  0  0  0
   58.0390   28.6710   43.8710 O   0  0  0  0  0  0  0  0  0  0  0  0
   57.5690   31.1540   44.7700 C   0  0  0  0  0  0  0  0  0  0  0  0
   57.3830   32.3460   44.0490 C   0  0  0  0  0  0  0  0  0  0  0  0
   57.9160   33.5500   44.5090 C   0  0  0  0  0  0  0  0  0  0  0  0
   58.6440   33.5840   45.6950 C   0  0  0  0  0  0  0  0  0  0  0  0
   58.8350   32.4150   46.4300 C   0  0  0  0  0  0  0  0  0  0  0  0
   58.3040   31.1890   45.9890 C   0  0  0  0  0  0  0  0  0  0  0  0
   58.5250   29.9670   46.8590 C   0  0  0  0  0  0  0  0  0  0  0  0
   59.9750   29.4630   46.8090 C   0  0  0  0  0  0  0  0  0  0  0  0
   60.1010   28.1600   46.0640 C   0  0  0  0  0  0  0  0  0  0  0  0
   61.1760   27.9050   45.4600 O   0  0  0  0  0  0  0  0  0  0  0  0
   59.0510   27.1860   46.0460 N   0  0  0  0  0  0  0  0  0  0  0  0
   58.8240   26.1810   47.0800 C   0  0  0  0  0  0  0  0  0  0  0  0
   57.3280   26.0280   47.3480 C   0  0  0  0  0  0  0  0  0  0  0  0
   56.4190   25.6550   45.8550 S   0  0  0  0  0  0  0  0  0  0  0  0
   57.1790   26.3920   44.4870 N   0  0  0  0  0  0  0  0  0  0  0  0
   56.3680   24.1660   45.6580 O   0  0  0  0  0  0  0  0  0  0  0  0
   55.0180   26.1820   45.9890 O   0  0  0  0  0  0  0  0  0  0  0  0
   55.6610   27.9520   44.8910 H   0  0  0  0  0  0  0  0  0  0  0  0
   56.8099   32.3292   43.1102 H   0  0  0  0  0  0  0  0  0  0  0  0
   57.7608   34.4745   43.9335 H   0  0  0  0  0  0  0  0  0  0  0  0
   59.0687   34.5337   46.0524 H   0  0  0  0  0  0  0  0  0  0  0  0
   59.4088   32.4516   47.3678 H   0  0  0  0  0  0  0  0  0  0  0  0
   58.2771   30.2251   47.8991 H   0  0  0  0  0  0  0  0  0  0  0  0
   57.8787   29.1633   46.4763 H   0  0  0  0  0  0  0  0  0  0  0  0
   60.5955   30.2195   46.3063 H   0  0  0  0  0  0  0  0  0  0  0  0
   60.3085   29.2933   47.8434 H   0  0  0  0  0  0  0  0  0  0  0  0
   59.2336   25.2165   46.7454 H   0  0  0  0  0  0  0  0  0  0  0  0
   59.3237   26.5003   48.0065 H   0  0  0  0  0  0  0  0  0  0  0  0
   57.1775   25.2114   48.0695 H   0  0  0  0  0  0  0  0  0  0  0  0
   56.9533   26.9825   47.7461 H   0  0  0  0  0  0  0  0  0  0  0  0
   58.1330   26.6870   44.7900 H   0  0  0  0  0  0  0  0  0  0  0  0
   56.6450   27.2650   44.2740 H   0  0  0  0  0  0  0  0  0  0  0  0
  1  2  1  0
  2  3  2  0
  2  4  2  0
  2  5  1  0
  5  6  2  0
  6  7  1  0
  7  8  2  0
  8  9  1  0
  9 10  2  0
 10 11  1  0
 11 12  1  0
 12 13  1  0
 13 14  2  0
 13 15  1  0
 15 16  1  0
 16 17  1  0
 17 18  1  0
 18 19  1  0
 18 20  2  0
 18 21  2  0
 10  5  1  0
  1 22  1  0
  6 23  1  0
  7 24  1  0
  8 25  1  0
  9 26  1  0
 11 27  1  0
 11 28  1  0
 12 29  1  0
 12 30  1  0
 16 31  1  0
 16 32  1  0
 17 33  1  0
 17 34  1  0
 19 35  1  0
 19 36  1  0
M  CHG  2   1  -1  15  -1
M  END
>  <UniqueID>  (25) 
23

>  <SMILES>  (25) 
[NH-]S(=O)(=O)c1ccccc1CCC(=O)[N-]CCS(N)(=O)=O

>  <Energy>  (25) 
21.05623625650884

>  <Genealogy>  (25) 
[NH-]S(=O)(=O)c1ccccc1CCC(=O)[N-]CCS(N)(=O)=O (protonated)
[NH-]S(=O)(=O)c1ccccc1CCC(=O)[N-]CCS(N)(=O)=O (3D coordinates assigned)
[NH-]S(=O)(=O)c1ccccc1CCC(=O)[N-]CCS(N)(=O)=O (optimized conformer: 21.05623625650884 kcal/mol)

>  <smiles>  (25) 
NS(=O)(=O)CCNC(=O)CCc1ccccc1S(N)(=O)=O

>  <score_type>  (25) 
oracle

>  <origin>  (25) 
adg

>  <m_score__min__energy>  (25) 
-11.5

>  <m_primary>  (25) 
energy

$$$$
25:0
     RDKit          3D

 44 46  0  0  0  0  0  0  0  0999 V2000
   55.5490   28.9720   44.8600 O   0  0  0  0  0  0  0  0  0  0  0  0
   56.5690   29.6570   44.5800 C   0  0  0  0  0  0  0  0  0  0  0  0
   56.4020   31.0880   44.1570 C   0  0  0  0  0  0  0  0  0  0  0  0
   57.7260   31.7860   43.9600 C   0  0  0  0  0  0  0  0  0  0  0  0
   58.4740   31.4400   43.0040 O   0  0  0  0  0  0  0  0  0  0  0  0
   58.1870   32.8490   44.8940 C   0  0  0  0  0  0  0  0  0  0  0  0
   57.7410   32.8520   46.2310 C   0  0  0  0  0  0  0  0  0  0  0  0
   58.1640   33.8460   47.1190 C   0  0  0  0  0  0  0  0  0  0  0  0
   59.0340   34.8490   46.6880 C   0  0  0  0  0  0  0  0  0  0  0  0
   59.4800   34.8620   45.3640 C   0  0  0  0  0  0  0  0  0  0  0  0
   59.0600   33.8710   44.4710 C   0  0  0  0  0  0  0  0  0  0  0  0
   57.8740   29.0580   44.5870 N   0  0  0  0  0  0  0  0  0  0  0  0
   58.1460   27.7690   45.1570 C   0  0  0  0  0  0  0  0  0  0  0  0
   57.7750   26.6180   44.4470 C   0  0  0  0  0  0  0  0  0  0  0  0
   58.0370   25.3500   44.9660 C   0  0  0  0  0  0  0  0  0  0  0  0
   58.6950   25.2180   46.1900 C   0  0  0  0  0  0  0  0  0  0  0  0
   59.0950   26.3550   46.8950 C   0  0  0  0  0  0  0  0  0  0  0  0
   58.8230   27.6400   46.3900 C   0  0  0  0  0  0  0  0  0  0  0  0
   59.2690   28.7980   47.0460 O   0  0  0  0  0  0  0  0  0  0  0  0
   60.0770   29.7980   46.4870 C   0  0  0  0  0  0  0  0  0  0  0  0
   60.3960   29.7570   45.2670 O   0  0  0  0  0  0  0  0  0  0  0  0
   60.6120   30.8690   47.3550 C   0  0  0  0  0  0  0  0  0  0  0  0
   59.8350   31.3790   48.4130 C   0  0  0  0  0  0  0  0  0  0  0  0
   60.3410   32.3880   49.2380 C   0  0  0  0  0  0  0  0  0  0  0  0
   61.6220   32.8990   49.0190 C   0  0  0  0  0  0  0  0  0  0  0  0
   62.4010   32.4010   47.9710 C   0  0  0  0  0  0  0  0  0  0  0  0
   61.9020   31.3920   47.1430 C   0  0  0  0  0  0  0  0  0  0  0  0
   55.8442   31.1138   43.2093 H   0  0  0  0  0  0  0  0  0  0  0  0
   55.8602   31.6141   44.9569 H   0  0  0  0  0  0  0  0  0  0  0  0
   57.0545   32.0660   46.5788 H   0  0  0  0  0  0  0  0  0  0  0  0
   57.8101   33.8375   48.1605 H   0  0  0  0  0  0  0  0  0  0  0  0
   59.3678   35.6277   47.3895 H   0  0  0  0  0  0  0  0  0  0  0  0
   60.1633   35.6538   45.0231 H   0  0  0  0  0  0  0  0  0  0  0  0
   59.4141   33.8895   43.4297 H   0  0  0  0  0  0  0  0  0  0  0  0
   58.6320   29.5280   44.0420 H   0  0  0  0  0  0  0  0  0  0  0  0
   57.2733   26.7158   43.4730 H   0  0  0  0  0  0  0  0  0  0  0  0
   57.7249   24.4535   44.4103 H   0  0  0  0  0  0  0  0  0  0  0  0
   58.8986   24.2175   46.5995 H   0  0  0  0  0  0  0  0  0  0  0  0
   59.6265   26.2455   47.8518 H   0  0  0  0  0  0  0  0  0  0  0  0
   58.8249   30.9815   48.5912 H   0  0  0  0  0  0  0  0  0  0  0  0
   59.7279   32.7807   50.0625 H   0  0  0  0  0  0  0  0  0  0  0  0
   62.0173   33.6923   49.6704 H   0  0  0  0  0  0  0  0  0  0  0  0
   63.4096   32.8043   47.7975 H   0  0  0  0  0  0  0  0  0  0  0  0
   62.5208   31.0039   46.3205 H   0  0  0  0  0  0  0  0  0  0  0  0
  1  2  2  0
  2  3  1  0
  3  4  1  0
  4  5  2  0
  4  6  1  0
  6  7  2  0
  7  8  1  0
  8  9  2  0
  9 10  1  0
 10 11  2  0
  2 12  1  0
 12 13  1  0
 13 14  2  0
 14 15  1  0
 15 16  2  0
 16 17  1  0
 17 18  2  0
 18 19  1  0
 19 20  1  0
 20 21  2  0
 20 22  1  0
 22 23  2  0
 23 24  1  0
 24 25  2  0
 25 26  1  0
 26 27  2  0
 11  6  1  0
 18 13  1  0
 27 22  1  0
  3 28  1  0
  3 29  1  0
  7 30  1  0
  8 31  1  0
  9 32  1  0
 10 33  1  0
 11 34  1  0
 12 35  1  0
 14 36  1  0
 15 37  1  0
 16 38  1  0
 17 39  1  0
 23 40  1  0
 24 41  1  0
 25 42  1  0
 26 43  1  0
 27 44  1  0
M  END
>  <UniqueID>  (26) 
24

>  <SMILES>  (26) 
O=C(CC(=O)c1ccccc1)Nc1ccccc1OC(=O)c1ccccc1

>  <Energy>  (26) 
57.0442959888486

>  <Genealogy>  (26) 
O=C(CC(=O)c1ccccc1)Nc1ccccc1OC(=O)c1ccccc1 (3D coordinates assigned)
O=C(CC(=O)c1ccccc1)Nc1ccccc1OC(=O)c1ccccc1 (optimized conformer: 57.0442959888486 kcal/mol)

>  <smiles>  (26) 
O=C(CC(=O)c1ccccc1)Nc1ccccc1OC(=O)c1ccccc1

>  <score_type>  (26) 
oracle

>  <origin>  (26) 
adg

>  <m_score__min__energy>  (26) 
-8.8499999999999996

>  <m_primary>  (26) 
energy

$$$$
26:0
     RDKit          3D

 27 28  0  0  0  0  0  0  0  0999 V2000
   57.2000   34.3710   44.9210 C   0  0  0  0  0  0  0  0  0  0  0  0
   57.5180   32.9740   44.5130 C   0  0  0  0  0  0  0  0  0  0  0  0
   57.3920   31.9060   45.3230 N   0  0  0  0  0  0  0  0  0  0  0  0
   57.7650   30.9010   44.5000 C   0  0  0  0  0  0  0  0  0  0  0  0
   57.8070   29.4790   44.9040 C   0  0  0  0  0  0  0  0  0  0  0  0
   59.0300   28.7880   44.9480 C   0  0  0  0  0  0  0  0  0  0  0  0
   59.0680   27.4460   45.3300 C   0  0  0  0  0  0  0  0  0  0  0  0
   57.8900   26.7790   45.6700 C   0  0  0  0  0  0  0  0  0  0  0  0
   56.6590   27.4470   45.6310 C   0  0  0  0  0  0  0  0  0  0  0  0
   55.4770   26.7170   45.9870 N   0  0  0  0  0  0  0  0  0  0  0  0
   55.2980   24.9920   45.9530 S   0  0  0  0  0  0  0  0  0  0  0  0
   56.1610   24.3140   44.5520 C   0  0  0  0  0  0  0  0  0  0  0  0
   53.8420   24.6250   45.9020 O   0  0  0  0  0  0  0  0  0  0  0  0
   55.8950   24.4210   47.2080 O   0  0  0  0  0  0  0  0  0  0  0  0
   56.6230   28.8000   45.2490 C   0  0  0  0  0  0  0  0  0  0  0  0
   58.0890   31.3420   43.2680 N   0  0  0  0  0  0  0  0  0  0  0  0
   57.9210   32.6280   43.3160 O   0  0  0  0  0  0  0  0  0  0  0  0
   57.1848   34.4379   46.0189 H   0  0  0  0  0  0  0  0  0  0  0  0
   57.9660   35.0527   44.5227 H   0  0  0  0  0  0  0  0  0  0  0  0
   56.2145   34.6540   44.5227 H   0  0  0  0  0  0  0  0  0  0  0  0
   59.9619   29.3073   44.6801 H   0  0  0  0  0  0  0  0  0  0  0  0
   60.0293   26.9124   45.3632 H   0  0  0  0  0  0  0  0  0  0  0  0
   57.9283   25.7216   45.9706 H   0  0  0  0  0  0  0  0  0  0  0  0
   56.9808   23.6699   44.9029 H   0  0  0  0  0  0  0  0  0  0  0  0
   55.4629   23.7202   43.9436 H   0  0  0  0  0  0  0  0  0  0  0  0
   56.5727   25.1328   43.9436 H   0  0  0  0  0  0  0  0  0  0  0  0
   55.6610   29.3326   45.2195 H   0  0  0  0  0  0  0  0  0  0  0  0
  1  2  1  0
  2  3  2  0
  3  4  1  0
  4  5  1  0
  5  6  2  0
  6  7  1  0
  7  8  2  0
  8  9  1  0
  9 10  1  0
 10 11  1  0
 11 12  1  0
 11 13  2  0
 11 14  2  0
  9 15  2  0
  4 16  2  0
 16 17  1  0
 17  2  1  0
 15  5  1  0
  1 18  1  0
  1 19  1  0
  1 20  1  0
  6 21  1  0
  7 22  1  0
  8 23  1  0
 12 24  1  0
 12 25  1  0
 12 26  1  0
 15 27  1  0
M  CHG  1  10  -1
M  END
>  <UniqueID>  (27) 
25

>  <SMILES>  (27) 
Cc1nc(-c2cccc([N-]S(C)(=O)=O)c2)no1

>  <Energy>  (27) 
58.018271251731555

>  <Genealogy>  (27) 
Cc1nc(-c2cccc([N-]S(C)(=O)=O)c2)no1 (protonated)
Cc1nc(-c2cccc([N-]S(C)(=O)=O)c2)no1 (3D coordinates assigned)
Cc1nc(-c2cccc([N-]S(C)(=O)=O)c2)no1 (optimized conformer: 58.018271251731555 kcal/mol)

>  <smiles>  (27) 
Cc1nc(-c2cccc(NS(C)(=O)=O)c2)no1

>  <score_type>  (27) 
oracle

>  <origin>  (27) 
adg

>  <m_score__min__energy>  (27) 
-8.9299999999999997

>  <m_primary>  (27) 
energy

$$$$
27:0
     RDKit          3D

 37 39  0  0  0  0  0  0  0  0999 V2000
   58.4610   32.7590   48.6350 C   0  0  0  0  0  0  0  0  0  0  0  0
   59.3620   33.9950   48.5480 C   0  0  1  0  0  0  0  0  0  0  0  0
   60.4750   33.9610   49.6340 C   0  0  0  0  0  0  0  0  0  0  0  0
   61.7210   33.7980   48.8400 C   0  0  0  0  0  0  0  0  0  0  0  0
   63.0160   33.5860   49.3170 C   0  0  0  0  0  0  0  0  0  0  0  0
   64.0490   33.3950   48.3860 C   0  0  0  0  0  0  0  0  0  0  0  0
   63.7690   33.4020   47.0080 C   0  0  0  0  0  0  0  0  0  0  0  0
   62.4580   33.6140   46.5530 C   0  0  0  0  0  0  0  0  0  0  0  0
   61.4500   33.8440   47.4990 C   0  0  0  0  0  0  0  0  0  0  0  0
   60.0610   34.0290   47.2550 N   0  0  0  0  0  0  0  0  0  0  0  0
   59.4540   34.5400   46.0530 C   0  0  0  0  0  0  0  0  0  0  0  0
   59.6270   35.7490   45.7430 O   0  0  0  0  0  0  0  0  0  0  0  0
   58.6480   33.6550   45.1390 C   0  0  0  0  0  0  0  0  0  0  0  0
   58.2900   32.4350   45.7880 O   0  0  0  0  0  0  0  0  0  0  0  0
   58.2280   31.1660   45.1830 C   0  0  0  0  0  0  0  0  0  0  0  0
   57.2500   30.8330   44.2230 C   0  0  0  0  0  0  0  0  0  0  0  0
   57.2280   29.5580   43.6510 C   0  0  0  0  0  0  0  0  0  0  0  0
   58.1750   28.6020   44.0290 C   0  0  0  0  0  0  0  0  0  0  0  0
   58.1410   26.8610   43.2440 Br  0  0  0  0  0  0  0  0  0  0  0  0
   59.1470   28.9230   44.9790 C   0  0  0  0  0  0  0  0  0  0  0  0
   59.1750   30.1990   45.5550 C   0  0  0  0  0  0  0  0  0  0  0  0
   60.5220   30.6040   46.8530 Br  0  0  0  0  0  0  0  0  0  0  0  0
   58.2801   32.5108   49.6912 H   0  0  0  0  0  0  0  0  0  0  0  0
   57.5022   32.9684   48.1381 H   0  0  0  0  0  0  0  0  0  0  0  0
   58.9538   31.9103   48.1381 H   0  0  0  0  0  0  0  0  0  0  0  0
   58.7079   34.8690   48.6830 H   0  0  0  0  0  0  0  0  0  0  0  0
   60.4937   34.8986   50.2089 H   0  0  0  0  0  0  0  0  0  0  0  0
   60.3291   33.1619   50.3757 H   0  0  0  0  0  0  0  0  0  0  0  0
   63.2220   33.5690   50.3974 H   0  0  0  0  0  0  0  0  0  0  0  0
   65.0804   33.2394   48.7353 H   0  0  0  0  0  0  0  0  0  0  0  0
   64.5808   33.2407   46.2834 H   0  0  0  0  0  0  0  0  0  0  0  0
   62.2270   33.5999   45.4776 H   0  0  0  0  0  0  0  0  0  0  0  0
   57.7316   34.1858   44.8414 H   0  0  0  0  0  0  0  0  0  0  0  0
   59.2598   33.4147   44.2570 H   0  0  0  0  0  0  0  0  0  0  0  0
   56.5008   31.5805   43.9229 H   0  0  0  0  0  0  0  0  0  0  0  0
   56.4634   29.3062   42.9014 H   0  0  0  0  0  0  0  0  0  0  0  0
   59.8930   28.1710   45.2757 H   0  0  0  0  0  0  0  0  0  0  0  0
  1  2  1  0
  2  3  1  0
  3  4  1  0
  4  5  2  0
  5  6  1  0
  6  7  2  0
  7  8  1  0
  8  9  2  0
  9 10  1  0
 10 11  1  0
 11 12  2  0
 11 13  1  0
 13 14  1  0
 14 15  1  0
 15 16  2  0
 16 17  1  0
 17 18  2  0
 18 19  1  0
 18 20  1  0
 20 21  2  0
 21 22  1  0
 10  2  1  0
 21 15  1  0
  9  4  1  0
  1 23  1  0
  1 24  1  0
  1 25  1  0
  2 26  1  1
  3 27  1  0
  3 28  1  0
  5 29  1  0
  6 30  1  0
  7 31  1  0
  8 32  1  0
 13 33  1  0
 13 34  1  0
 16 35  1  0
 17 36  1  0
 20 37  1  0
M  END
>  <UniqueID>  (28) 
26

>  <SMILES>  (28) 
C[C@H]1Cc2ccccc2N1C(=O)COc1ccc(Br)cc1Br

>  <Energy>  (28) 
56.99295692646664

>  <Genealogy>  (28) 
C[C@H]1Cc2ccccc2N1C(=O)COc1ccc(Br)cc1Br (chirality)
C[C@H]1Cc2ccccc2N1C(=O)COc1ccc(Br)cc1Br (3D coordinates assigned)
C[C@H]1Cc2ccccc2N1C(=O)COc1ccc(Br)cc1Br (nonaromatic ring conformer: 56.99295692646664 kcal/mol)

>  <smiles>  (28) 
CC1Cc2ccccc2N1C(=O)COc1ccc(Br)cc1Br

>  <score_type>  (28) 
oracle

>  <origin>  (28) 
adg

>  <m_score__min__energy>  (28) 
-7.8899999999999997

>  <m_primary>  (28) 
energy

$$$$
28:0
     RDKit          3D

 73 77  0  0  0  0  0  0  0  0999 V2000
   55.0772   19.8999   51.9003 H   0  0  0  0  0  0  0  0  0  0  0  0
   55.0550   20.3320   50.8890 C   0  0  0  0  0  0  0  0  0  0  0  0
   56.2370   20.4330   50.1470 C   0  0  0  0  0  0  0  0  0  0  0  0
   57.1835   20.0677   50.5722 H   0  0  0  0  0  0  0  0  0  0  0  0
   56.2200   21.0000   48.8590 C   0  0  0  0  0  0  0  0  0  0  0  0
   57.3820   21.1450   48.0860 O   0  0  0  0  0  0  0  0  0  0  0  0
   57.4840   20.7800   46.7140 C   0  0  0  0  0  0  0  0  0  0  0  0
   57.7793   19.7232   46.6367 H   0  0  0  0  0  0  0  0  0  0  0  0
   56.5107   20.9256   46.2225 H   0  0  0  0  0  0  0  0  0  0  0  0
   58.2408   21.4091   46.2225 H   0  0  0  0  0  0  0  0  0  0  0  0
   55.0040   21.4460   48.3250 C   0  0  0  0  0  0  0  0  0  0  0  0
   54.9840   21.8980   47.3224 H   0  0  0  0  0  0  0  0  0  0  0  0
   53.8110   21.3230   49.0540 C   0  0  0  0  0  0  0  0  0  0  0  0
   52.5190   21.8210   48.4720 C   0  0  0  0  0  0  0  0  0  0  0  0
   51.9063   20.9641   48.1552 H   0  0  0  0  0  0  0  0  0  0  0  0
   51.9766   22.4017   49.2326 H   0  0  0  0  0  0  0  0  0  0  0  0
   52.7950   22.6730   47.3190 N   0  0  0  0  0  0  0  0  0  0  0  0
   52.9510   23.6890   47.5030 H   0  0  0  0  0  0  0  0  0  0  0  0
   52.6730   22.2160   45.9630 C   0  0  0  0  0  0  0  0  0  0  0  0
   52.1390   21.1010   45.7110 O   0  0  0  0  0  0  0  0  0  0  0  0
   53.0880   23.0470   44.8720 N   0  0  0  0  0  0  0  0  0  0  0  0
   54.3800   23.6530   44.7330 C   0  0  0  0  0  0  0  0  0  0  0  0
   55.1650   23.3310   43.6060 C   0  0  0  0  0  0  0  0  0  0  0  0
   54.7897   22.6030   42.8718 H   0  0  0  0  0  0  0  0  0  0  0  0
   56.4210   23.9300   43.4110 C   0  0  0  0  0  0  0  0  0  0  0  0
   57.0303   23.6791   42.5302 H   0  0  0  0  0  0  0  0  0  0  0  0
   56.8810   24.8480   44.3540 C   0  0  0  0  0  0  0  0  0  0  0  0
   58.0630   25.5080   44.2640 N   0  0  0  0  0  0  0  0  0  0  0  0
   58.2210   26.3330   45.3270 C   0  0  0  0  0  0  0  0  0  0  0  0
   59.3690   27.1690   45.4880 N   0  0  0  0  0  0  0  0  0  0  0  0
   59.4150   28.1760   46.3060 C   0  0  0  0  0  0  0  0  0  0  0  0
   59.7730   28.0040   47.6070 N   0  0  0  0  0  0  0  0  0  0  0  0
   59.7730   29.0550   48.4640 C   0  0  0  0  0  0  0  0  0  0  0  0
   60.1300   28.8710   49.8470 N   0  0  0  0  0  0  0  0  0  0  0  0
   60.8030   27.6360   50.2580 C   0  0  0  0  0  0  0  0  0  0  0  0
   60.8322   27.5824   51.3563 H   0  0  0  0  0  0  0  0  0  0  0  0
   60.2524   26.7695   49.8631 H   0  0  0  0  0  0  0  0  0  0  0  0
   61.8297   27.6290   49.8631 H   0  0  0  0  0  0  0  0  0  0  0  0
   59.6490   29.7900   50.8860 C   0  0  0  0  0  0  0  0  0  0  0  0
   59.8692   29.3693   51.8782 H   0  0  0  0  0  0  0  0  0  0  0  0
   60.1544   30.7611   50.7791 H   0  0  0  0  0  0  0  0  0  0  0  0
   58.5630   29.9282   50.7791 H   0  0  0  0  0  0  0  0  0  0  0  0
   59.4120   30.2840   48.0110 N   0  0  0  0  0  0  0  0  0  0  0  0
   59.0620   30.4730   46.7130 C   0  0  0  0  0  0  0  0  0  0  0  0
   58.6890   31.7800   46.2340 N   0  0  0  0  0  0  0  0  0  0  0  0
   57.4150   31.9980   45.5280 C   0  0  0  0  0  0  0  0  0  0  0  0
   57.0213   31.0292   45.1866 H   0  0  0  0  0  0  0  0  0  0  0  0
   56.7059   32.4769   46.2192 H   0  0  0  0  0  0  0  0  0  0  0  0
   57.6170   32.9220   44.3060 C   0  0  2  0  0  0  0  0  0  0  0  0
   56.6278   33.3321   44.0546 H   0  0  0  0  0  0  0  0  0  0  0  0
   58.1500   32.1210   43.1100 C   0  0  0  0  0  0  0  0  0  0  0  0
   58.7250   31.2569   43.4744 H   0  0  0  0  0  0  0  0  0  0  0  0
   57.3058   31.7685   42.4993 H   0  0  0  0  0  0  0  0  0  0  0  0
   58.8012   32.7636   42.4993 H   0  0  0  0  0  0  0  0  0  0  0  0
   58.5310   34.1490   44.6060 C   0  0  0  0  0  0  0  0  0  0  0  0
   59.4477   34.0581   44.0048 H   0  0  0  0  0  0  0  0  0  0  0  0
   57.9599   35.0539   44.3512 H   0  0  0  0  0  0  0  0  0  0  0  0
   58.9270   34.2580   46.0910 C   0  0  2  0  0  0  0  0  0  0  0  0
   58.0206   34.4620   46.6800 H   0  0  0  0  0  0  0  0  0  0  0  0
   59.9010   35.4190   46.3190 C   0  0  0  0  0  0  0  0  0  0  0  0
   60.0349   35.5786   47.3991 H   0  0  0  0  0  0  0  0  0  0  0  0
   60.8717   35.1786   45.8608 H   0  0  0  0  0  0  0  0  0  0  0  0
   59.4955   36.3331   45.8608 H   0  0  0  0  0  0  0  0  0  0  0  0
   59.5450   32.9310   46.5650 C   0  0  0  0  0  0  0  0  0  0  0  0
   60.5225   32.7994   46.0779 H   0  0  0  0  0  0  0  0  0  0  0  0
   59.6510   32.9748   47.6590 H   0  0  0  0  0  0  0  0  0  0  0  0
   59.0630   29.4100   45.8660 N   0  0  0  0  0  0  0  0  0  0  0  0
   56.9270   26.2720   46.4200 S   0  0  0  0  0  0  0  0  0  0  0  0
   56.1220   25.1360   45.4810 C   0  0  0  0  0  0  0  0  0  0  0  0
   54.8830   24.5460   45.7070 C   0  0  0  0  0  0  0  0  0  0  0  0
   54.3097   24.7682   46.6191 H   0  0  0  0  0  0  0  0  0  0  0  0
   53.8460   20.7790   50.3480 C   0  0  0  0  0  0  0  0  0  0  0  0
   52.9201   20.7044   50.9372 H   0  0  0  0  0  0  0  0  0  0  0  0
  1  2  1  0
  2  3  2  0
  3  4  1  0
  3  5  1  0
  5  6  1  0
  6  7  1  0
  7  8  1  0
  7  9  1  0
  7 10  1  0
  5 11  2  0
 11 12  1  0
 11 13  1  0
 13 14  1  0
 14 15  1  0
 14 16  1  0
 14 17  1  0
 17 18  1  0
 17 19  1  0
 19 20  2  0
 19 21  1  0
 21 22  1  0
 22 23  2  0
 23 24  1  0
 23 25  1  0
 25 26  1  0
 25 27  2  0
 27 28  1  0
 28 29  2  0
 29 30  1  0
 30 31  2  0
 31 32  1  0
 32 33  2  0
 33 34  1  0
 34 35  1  0
 35 36  1  0
 35 37  1  0
 35 38  1  0
 34 39  1  0
 39 40  1  0
 39 41  1  0
 39 42  1  0
 33 43  1  0
 43 44  1  0
 44 45  1  0
 45 46  1  0
 46 47  1  0
 46 48  1  0
 46 49  1  0
 49 50  1  6
 49 51  1  0
 51 52  1  0
 51 53  1  0
 51 54  1  0
 49 55  1  0
 55 56  1  0
 55 57  1  0
 55 58  1  0
 58 59  1  1
 58 60  1  0
 60 61  1  0
 60 62  1  0
 60 63  1  0
 58 64  1  0
 64 65  1  0
 64 66  1  0
 44 67  2  0
 29 68  1  0
 68 69  1  0
 69 70  2  0
 70 71  1  0
 13 72  2  0
 72 73  1  0
 72  2  1  0
 70 22  1  0
 69 27  1  0
 67 31  1  0
 64 45  1  0
M  CHG  2  21  -1  43  -1
M  END
>  <UniqueID>  (29) 
27

>  <SMILES>  (29) 
COc1cccc(CNC(=O)[N-]c2ccc3nc(/N=c4\nc(N(C)C)[n-]c(N5C[C@H](C)C[C@H](C)C5)n4)sc3c2)c1

>  <Energy>  (29) 
120.48050458697703

>  <Genealogy>  (29) 
COc1cccc(CNC(=O)[N-]c2ccc3nc(N=c4nc(N(C)C)[n-]c(N5CC(C)CC(C)C5)n4)sc3c2)c1 (protonated)
COc1cccc(CNC(=O)[N-]c2ccc3nc(N=c4nc(N(C)C)[n-]c(N5C[C@H](C)C[C@H](C)C5)n4)sc3c2)c1 (chirality)
COc1cccc(CNC(=O)[N-]c2ccc3nc(/N=c4\nc(N(C)C)[n-]c(N5C[C@H](C)C[C@H](C)C5)n4)sc3c2)c1 (cis-trans isomerization)
COc1cccc(CNC(=O)[N-]c2ccc3nc(/N=c4\nc(N(C)C)[n-]c(N5C[C@H](C)C[C@H](C)C5)n4)sc3c2)c1 (3D coordinates assigned)
COc1cccc(CNC(=O)[N-]c2ccc3nc(/N=c4\nc(N(C)C)[n-]c(N5C[C@H](C)C[C@H](C)C5)n4)sc3c2)c1 (nonaromatic ring conformer: 120.48050458697703 kcal/mol)

>  <smiles>  (29) 
COc1cccc(CNC(=O)Nc2ccc3nc(N=c4nc(N(C)C)[nH]c(N5CC(C)CC(C)C5)n4)sc3c2)c1

>  <score_type>  (29) 
oracle

>  <origin>  (29) 
adg

>  <m_score__min__energy>  (29) 
-12.359999999999999

>  <m_primary>  (29) 
energy

$$$$
29:0
     RDKit          3D

 59 63  0  0  1  0  0  0  0  0999 V2000
   61.6330   29.0470   50.1280 N   0  0  0  0  0  0  0  0  0  0  0  0
   61.8460   30.1050   49.7150 C   0  0  0  0  0  0  0  0  0  0  0  0
   62.1280   31.4210   49.2220 C   0  0  0  0  0  0  0  0  0  0  0  0
   62.7380   31.5150   47.9920 C   0  0  0  0  0  0  0  0  0  0  0  0
   63.0500   32.7320   47.4320 C   0  0  0  0  0  0  0  0  0  0  0  0
   62.7380   33.8600   48.1330 C   0  0  0  0  0  0  0  0  0  0  0  0
   62.1320   33.7570   49.3560 C   0  0  0  0  0  0  0  0  0  0  0  0
   61.7970   32.5690   49.9650 C   0  0  0  0  0  0  0  0  0  0  0  0
   61.1770   32.4020   51.2040 N   0  0  0  0  0  0  0  0  0  0  0  0
   59.8550   32.6980   51.5910 C   0  0  0  0  0  0  0  0  0  0  0  0
   59.7200   33.8770   52.3420 C   0  0  0  0  0  0  0  0  0  0  0  0
   58.5300   34.3070   52.8610 C   0  0  0  0  0  0  0  0  0  0  0  0
   57.4200   33.5350   52.6270 C   0  0  0  0  0  0  0  0  0  0  0  0
   57.5470   32.3920   51.9010 C   0  0  0  0  0  0  0  0  0  0  0  0
   58.7540   31.9200   51.3550 C   0  0  0  0  0  0  0  0  0  0  0  0
   58.6680   30.7750   50.5240 C   0  0  0  0  0  0  0  0  0  0  0  0
   58.2920   29.7030   51.1390 O   0  0  0  0  0  0  0  0  0  0  0  0
   58.9290   30.5580   49.1630 N   0  0  0  0  0  0  0  0  0  0  0  0
   59.3750   29.3670   48.7190 N   0  0  0  0  0  0  0  0  0  0  0  0
   59.5060   29.3500   47.3970 C   0  0  0  0  0  0  0  0  0  0  0  0
   60.0800   27.9770   46.4310 S   0  0  0  0  0  0  0  0  0  0  0  0
   58.9170   27.6080   45.1040 C   0  0  0  0  0  0  0  0  0  0  0  0
   58.0840   28.7480   44.6870 C   0  0  0  0  0  0  0  0  0  0  0  0
   58.5470   29.9130   44.1320 C   0  0  0  0  0  0  0  0  0  0  0  0
   57.7100   30.9650   43.7700 C   0  0  0  0  0  0  0  0  0  0  0  0
   56.3500   30.8410   43.9710 C   0  0  0  0  0  0  0  0  0  0  0  0
   55.8960   29.6770   44.5240 C   0  0  0  0  0  0  0  0  0  0  0  0
   56.7060   28.6240   44.8910 C   0  0  0  0  0  0  0  0  0  0  0  0
   59.1390   30.5410   46.9480 N   0  0  0  0  0  0  0  0  0  0  0  0
   58.7670   31.2870   48.0710 C   0  0  0  0  0  0  0  0  0  0  0  0
   58.0470   32.3140   47.8040 N   0  0  0  0  0  0  0  0  0  0  0  0
   58.4660   33.3650   47.0140 C   0  0  0  0  0  0  0  0  0  0  0  0
   59.4750   34.2750   47.3170 C   0  0  0  0  0  0  0  0  0  0  0  0
   59.9080   35.2340   46.4450 C   0  0  0  0  0  0  0  0  0  0  0  0
   59.3430   35.3390   45.1880 C   0  0  0  0  0  0  0  0  0  0  0  0
   58.3410   34.4530   44.8530 C   0  0  0  0  0  0  0  0  0  0  0  0
   57.8940   33.4790   45.7300 C   0  0  0  0  0  0  0  0  0  0  0  0
   62.9822   30.5937   47.4428 H   0  0  0  0  0  0  0  0  0  0  0  0
   63.5369   32.7939   46.4476 H   0  0  0  0  0  0  0  0  0  0  0  0
   62.9730   34.8505   47.7162 H   0  0  0  0  0  0  0  0  0  0  0  0
   61.8961   34.6894   49.8898 H   0  0  0  0  0  0  0  0  0  0  0  0
   61.7820   31.9900   51.9890 H   0  0  0  0  0  0  0  0  0  0  0  0
   60.6180   34.4862   52.5221 H   0  0  0  0  0  0  0  0  0  0  0  0
   58.4651   35.2373   53.4444 H   0  0  0  0  0  0  0  0  0  0  0  0
   56.4388   33.8371   53.0220 H   0  0  0  0  0  0  0  0  0  0  0  0
   56.6403   31.7936   51.7284 H   0  0  0  0  0  0  0  0  0  0  0  0
   59.6140   28.5140   49.3010 H   0  0  0  0  0  0  0  0  0  0  0  0
   59.4904   27.2639   44.2306 H   0  0  0  0  0  0  0  0  0  0  0  0
   58.2286   26.8443   45.4950 H   0  0  0  0  0  0  0  0  0  0  0  0
   59.6289   30.0215   43.9652 H   0  0  0  0  0  0  0  0  0  0  0  0
   58.1269   31.8828   43.3297 H   0  0  0  0  0  0  0  0  0  0  0  0
   55.6570   31.6498   43.6960 H   0  0  0  0  0  0  0  0  0  0  0  0
   54.8131   29.5735   44.6870 H   0  0  0  0  0  0  0  0  0  0  0  0
   56.2802   27.7108   45.3324 H   0  0  0  0  0  0  0  0  0  0  0  0
   59.9477   34.2193   48.3087 H   0  0  0  0  0  0  0  0  0  0  0  0
   60.7095   35.9252   46.7447 H   0  0  0  0  0  0  0  0  0  0  0  0
   59.6824   36.1061   44.4764 H   0  0  0  0  0  0  0  0  0  0  0  0
   57.8814   34.5222   43.8560 H   0  0  0  0  0  0  0  0  0  0  0  0
   57.0907   32.7925   45.4243 H   0  0  0  0  0  0  0  0  0  0  0  0
  1  2  3  0
  2  3  1  0
  3  4  2  0
  4  5  1  0
  5  6  2  0
  6  7  1  0
  7  8  2  0
  8  9  1  0
  9 10  1  0
 10 11  2  0
 11 12  1  0
 12 13  2  0
 13 14  1  0
 14 15  2  0
 15 16  1  0
 16 17  2  0
 16 18  1  0
 18 19  1  0
 19 20  1  0
 20 21  1  0
 21 22  1  0
 22 23  1  0
 23 24  2  0
 24 25  1  0
 25 26  2  0
 26 27  1  0
 27 28  2  0
 20 29  2  0
 29 30  1  0
 30 31  2  0
 31 32  1  0
 32 33  2  0
 33 34  1  0
 34 35  2  0
 35 36  1  0
 36 37  2  0
  8  3  1  0
 15 10  1  0
 30 18  1  0
 37 32  1  0
 28 23  1  0
  4 38  1  0
  5 39  1  0
  6 40  1  0
  7 41  1  0
  9 42  1  0
 11 43  1  0
 12 44  1  0
 13 45  1  0
 14 46  1  0
 19 47  1  0
 22 48  1  0
 22 49  1  0
 24 50  1  0
 25 51  1  0
 26 52  1  0
 27 53  1  0
 28 54  1  0
 33 55  1  0
 34 56  1  0
 35 57  1  0
 36 58  1  0
 37 59  1  0
M  END
>  <smiles>  (30) 
N#Cc1ccccc1Nc1ccccc1C(=O)n1[nH]c(SCc2ccccc2)nc1=Nc1ccccc1

>  <score_type>  (30) 
oracle

>  <origin>  (30) 
adg

>  <m_score__min__energy>  (30) 
-9.9600000000000009

>  <m_primary>  (30) 
energy

$$$$
30:0
     RDKit          3D

 36 38  0  0  0  0  0  0  0  0999 V2000
   56.7810   19.6010   43.1680 H   0  0  0  0  0  0  0  0  0  0  0  0
   56.2710   20.4950   42.9820 N   0  0  0  0  0  0  0  0  0  0  0  0
   56.6070   21.6140   43.5410 C   0  0  0  0  0  0  0  0  0  0  0  0
   55.7410   22.6600   43.5240 N   0  0  0  0  0  0  0  0  0  0  0  0
   56.0550   23.8520   44.0970 C   0  0  0  0  0  0  0  0  0  0  0  0
   55.3356   24.6838   44.0729 H   0  0  0  0  0  0  0  0  0  0  0  0
   57.3050   24.0160   44.7210 C   0  0  0  0  0  0  0  0  0  0  0  0
   57.6990   25.2920   45.3690 C   0  0  0  0  0  0  0  0  0  0  0  0
   57.6690   25.4020   46.7710 C   0  0  0  0  0  0  0  0  0  0  0  0
   57.3518   24.5421   47.3792 H   0  0  0  0  0  0  0  0  0  0  0  0
   58.0390   26.5950   47.3970 C   0  0  0  0  0  0  0  0  0  0  0  0
   58.0101   26.6704   48.4940 H   0  0  0  0  0  0  0  0  0  0  0  0
   58.4450   27.6910   46.6350 C   0  0  0  0  0  0  0  0  0  0  0  0
   58.7326   28.6283   47.1338 H   0  0  0  0  0  0  0  0  0  0  0  0
   58.4880   27.6030   45.2360 C   0  0  0  0  0  0  0  0  0  0  0  0
   58.9390   28.7870   44.4230 C   0  0  0  0  0  0  0  0  0  0  0  0
   59.8256   28.5051   43.8360 H   0  0  0  0  0  0  0  0  0  0  0  0
   58.1191   29.0899   43.7552 H   0  0  0  0  0  0  0  0  0  0  0  0
   59.2690   29.8860   45.2710 O   0  0  0  0  0  0  0  0  0  0  0  0
   58.5970   31.1200   45.3120 C   0  0  0  0  0  0  0  0  0  0  0  0
   57.2570   31.2050   44.8620 C   0  0  0  0  0  0  0  0  0  0  0  0
   56.5460   30.0640   44.3500 N   0  0  0  0  0  0  0  0  0  0  0  0
   56.5990   29.7450   43.1440 O   0  0  0  0  0  0  0  0  0  0  0  0
   55.7790   29.3050   45.2040 O   0  0  0  0  0  0  0  0  0  0  0  0
   56.6140   32.4060   44.9040 N   0  0  0  0  0  0  0  0  0  0  0  0
   57.2080   33.5370   45.3650 C   0  0  0  0  0  0  0  0  0  0  0  0
   56.6504   34.4851   45.3781 H   0  0  0  0  0  0  0  0  0  0  0  0
   58.5230   33.4960   45.8210 C   0  0  0  0  0  0  0  0  0  0  0  0
   59.0091   34.4082   46.1972 H   0  0  0  0  0  0  0  0  0  0  0  0
   59.2170   32.2880   45.7960 C   0  0  0  0  0  0  0  0  0  0  0  0
   60.2554   32.2465   46.1565 H   0  0  0  0  0  0  0  0  0  0  0  0
   58.1280   26.3980   44.6090 C   0  0  0  0  0  0  0  0  0  0  0  0
   58.1817   26.3174   43.5133 H   0  0  0  0  0  0  0  0  0  0  0  0
   58.1630   22.9580   44.7440 N   0  0  0  0  0  0  0  0  0  0  0  0
   57.8480   21.7670   44.1710 C   0  0  0  0  0  0  0  0  0  0  0  0
   58.5616   20.9304   44.2018 H   0  0  0  0  0  0  0  0  0  0  0  0
  1  2  1  0
  2  3  2  0
  3  4  1  0
  4  5  1  0
  5  6  1  0
  5  7  2  0
  7  8  1  0
  8  9  2  0
  9 10  1  0
  9 11  1  0
 11 12  1  0
 11 13  2  0
 13 14  1  0
 13 15  1  0
 15 16  1  0
 16 17  1  0
 16 18  1  0
 16 19  1  0
 19 20  1  0
 20 21  2  0
 21 22  1  0
 22 23  2  0
 22 24  1  0
 21 25  1  0
 25 26  2  0
 26 27  1  0
 26 28  1  0
 28 29  1  0
 28 30  2  0
 30 31  1  0
 15 32  2  0
 32 33  1  0
  7 34  1  0
 34 35  2  0
 35 36  1  0
 35  3  1  0
 32  8  1  0
 30 20  1  0
M  CHG  3   4  -1  22   1  24  -1
M  END
>  <UniqueID>  (31) 
28

>  <SMILES>  (31) 
[H]/N=c1\cnc(-c2cccc(COc3cccnc3[N+](=O)[O-])c2)c[n-]1

>  <Energy>  (31) 
47.15596099273856

>  <Genealogy>  (31) 
N=c1cnc(-c2cccc(COc3cccnc3[N+](=O)[O-])c2)c[n-]1 (protonated)
[H]/N=c1\cnc(-c2cccc(COc3cccnc3[N+](=O)[O-])c2)c[n-]1 (cis-trans isomerization)
[H]/N=c1\cnc(-c2cccc(COc3cccnc3[N+](=O)[O-])c2)c[n-]1 (3D coordinates assigned)
[H]/N=c1\cnc(-c2cccc(COc3cccnc3[N+](=O)[O-])c2)c[n-]1 (optimized conformer: 47.15596099273856 kcal/mol)

>  <smiles>  (31) 
N=c1cnc(-c2cccc(COc3cccnc3[N+](=O)[O-])c2)c[nH]1

>  <score_type>  (31) 
oracle

>  <origin>  (31) 
adg

>  <m_score__min__energy>  (31) 
-9.8200000000000003

>  <m_primary>  (31) 
energy

$$$$
31:0
     RDKit          3D

 45 49  0  0  0  0  0  0  0  0999 V2000
   59.7580   27.8880   45.1770 O   0  0  0  0  0  0  0  0  0  0  0  0
   59.1090   28.4540   46.0920 C   0  0  0  0  0  0  0  0  0  0  0  0
   58.8680   27.7890   47.3430 N   0  0  0  0  0  0  0  0  0  0  0  0
   59.5180   27.9900   48.6100 C   0  0  0  0  0  0  0  0  0  0  0  0
   60.4960   27.1060   49.1200 C   0  0  0  0  0  0  0  0  0  0  0  0
   61.1050   27.3710   50.3500 C   0  0  0  0  0  0  0  0  0  0  0  0
   60.7520   28.5150   51.0800 C   0  0  0  0  0  0  0  0  0  0  0  0
   59.8000   29.4050   50.5740 C   0  0  0  0  0  0  0  0  0  0  0  0
   59.1920   29.1460   49.3410 C   0  0  0  0  0  0  0  0  0  0  0  0
   58.5680   29.8110   45.8940 C   0  0  0  0  0  0  0  0  0  0  0  0
   57.3660   30.0350   45.3190 N   0  0  0  0  0  0  0  0  0  0  0  0
   57.0650   31.3190   45.4390 N   0  0  0  0  0  0  0  0  0  0  0  0
   58.0780   31.9250   46.0820 C   0  0  0  0  0  0  0  0  0  0  0  0
   59.0540   31.0140   46.3940 C   0  0  0  0  0  0  0  0  0  0  0  0
   60.2590   31.3250   47.1950 C   0  0  0  0  0  0  0  0  0  0  0  0
   61.5140   30.8810   46.7430 C   0  0  0  0  0  0  0  0  0  0  0  0
   62.6790   31.2000   47.4450 C   0  0  0  0  0  0  0  0  0  0  0  0
   62.6080   31.9990   48.5880 C   0  0  0  0  0  0  0  0  0  0  0  0
   64.0760   32.4110   49.4610 Cl  0  0  0  0  0  0  0  0  0  0  0  0
   61.3750   32.4920   49.0220 C   0  0  0  0  0  0  0  0  0  0  0  0
   60.1860   32.1690   48.3380 C   0  0  0  0  0  0  0  0  0  0  0  0
   58.8900   32.7240   48.8640 C   0  0  0  0  0  0  0  0  0  0  0  0
   58.6090   32.7080   50.3270 C   0  0  0  0  0  0  0  0  0  0  0  0
   59.2690   33.6080   51.1850 C   0  0  0  0  0  0  0  0  0  0  0  0
   58.9920   33.6150   52.5560 C   0  0  0  0  0  0  0  0  0  0  0  0
   58.0500   32.7320   53.0880 C   0  0  0  0  0  0  0  0  0  0  0  0
   57.3820   31.8390   52.2480 C   0  0  0  0  0  0  0  0  0  0  0  0
   57.6530   31.8280   50.8760 C   0  0  0  0  0  0  0  0  0  0  0  0
   57.9860   33.2460   48.0770 N   0  0  0  0  0  0  0  0  0  0  0  0
   58.0450   33.3140   46.6190 C   0  0  0  0  0  0  0  0  0  0  0  0
   60.7779   26.2092   48.5488 H   0  0  0  0  0  0  0  0  0  0  0  0
   61.8635   26.6800   50.7465 H   0  0  0  0  0  0  0  0  0  0  0  0
   61.2253   28.7126   52.0531 H   0  0  0  0  0  0  0  0  0  0  0  0
   59.5298   30.3063   51.1437 H   0  0  0  0  0  0  0  0  0  0  0  0
   58.4517   29.8536   48.9395 H   0  0  0  0  0  0  0  0  0  0  0  0
   61.5794   30.2759   45.8267 H   0  0  0  0  0  0  0  0  0  0  0  0
   63.6518   30.8219   47.0975 H   0  0  0  0  0  0  0  0  0  0  0  0
   61.3317   33.1408   49.9092 H   0  0  0  0  0  0  0  0  0  0  0  0
   60.0083   34.3112   50.7740 H   0  0  0  0  0  0  0  0  0  0  0  0
   59.5182   34.3188   53.2177 H   0  0  0  0  0  0  0  0  0  0  0  0
   57.8347   32.7400   54.1667 H   0  0  0  0  0  0  0  0  0  0  0  0
   56.6407   31.1423   52.6664 H   0  0  0  0  0  0  0  0  0  0  0  0
   57.1162   31.1273   50.2196 H   0  0  0  0  0  0  0  0  0  0  0  0
   57.1575   33.8390   46.2358 H   0  0  0  0  0  0  0  0  0  0  0  0
   58.9453   33.8616   46.3034 H   0  0  0  0  0  0  0  0  0  0  0  0
  1  2  2  0
  2  3  1  0
  3  4  1  0
  4  5  2  0
  5  6  1  0
  6  7  2  0
  7  8  1  0
  8  9  2  0
  2 10  1  0
 10 11  2  0
 11 12  1  0
 12 13  1  0
 13 14  2  0
 14 15  1  0
 15 16  2  0
 16 17  1  0
 17 18  2  0
 18 19  1  0
 18 20  1  0
 20 21  2  0
 21 22  1  0
 22 23  1  0
 23 24  2  0
 24 25  1  0
 25 26  2  0
 26 27  1  0
 27 28  2  0
 22 29  2  0
 29 30  1  0
  9  4  1  0
 14 10  1  0
 21 15  1  0
 28 23  1  0
 30 13  1  0
  5 31  1  0
  6 32  1  0
  7 33  1  0
  8 34  1  0
  9 35  1  0
 16 36  1  0
 17 37  1  0
 20 38  1  0
 24 39  1  0
 25 40  1  0
 26 41  1  0
 27 42  1  0
 28 43  1  0
 30 44  1  0
 30 45  1  0
M  CHG  2   3  -1  12  -1
M  END
>  <UniqueID>  (32) 
29

>  <SMILES>  (32) 
O=C([N-]c1ccccc1)c1n[n-]c2c1-c1ccc(Cl)cc1C(c1ccccc1)=NC2

>  <Energy>  (32) 
105.39030860563348

>  <Genealogy>  (32) 
O=C([N-]c1ccccc1)c1n[n-]c2c1-c1ccc(Cl)cc1C(c1ccccc1)=NC2 (protonated)
O=C([N-]c1ccccc1)c1n[n-]c2c1-c1ccc(Cl)cc1C(c1ccccc1)=NC2 (3D coordinates assigned)
O=C([N-]c1ccccc1)c1n[n-]c2c1-c1ccc(Cl)cc1C(c1ccccc1)=NC2 (nonaromatic ring conformer: 105.39030860563348 kcal/mol)

>  <smiles>  (32) 
O=C(Nc1ccccc1)c1n[nH]c2c1-c1ccc(Cl)cc1C(c1ccccc1)=NC2

>  <score_type>  (32) 
oracle

>  <origin>  (32) 
adg

>  <m_score__min__energy>  (32) 
-10.6

>  <m_primary>  (32) 
energy

$$$$
32:0
     RDKit          3D

 40 42  0  0  0  0  0  0  0  0999 V2000
   59.1700   27.1120   47.5370 C   0  0  0  0  0  0  0  0  0  0  0  0
   59.4390   28.3950   46.8650 N   0  0  0  0  0  0  0  0  0  0  0  0
   58.8490   28.6560   45.6510 C   0  0  0  0  0  0  0  0  0  0  0  0
   57.7620   27.4730   44.9020 Cl  0  0  0  0  0  0  0  0  0  0  0  0
   59.0950   29.8870   45.0060 C   0  0  0  0  0  0  0  0  0  0  0  0
   58.4770   30.2280   43.7490 N   0  0  0  0  0  0  0  0  0  0  0  0
   57.3210   31.1050   43.9740 C   0  0  0  0  0  0  0  0  0  0  0  0
   57.7360   32.3390   44.7320 C   0  0  0  0  0  0  0  0  0  0  0  0
   58.5220   33.3210   44.1080 C   0  0  0  0  0  0  0  0  0  0  0  0
   58.9370   34.4490   44.8230 C   0  0  0  0  0  0  0  0  0  0  0  0
   58.5800   34.5970   46.1660 C   0  0  0  0  0  0  0  0  0  0  0  0
   57.8100   33.6160   46.7980 C   0  0  0  0  0  0  0  0  0  0  0  0
   57.3930   32.4870   46.0860 C   0  0  0  0  0  0  0  0  0  0  0  0
   59.8980   30.7970   45.6120 N   0  0  0  0  0  0  0  0  0  0  0  0
   60.4880   30.5630   46.8100 C   0  0  0  0  0  0  0  0  0  0  0  0
   61.3490   31.6200   47.3940 C   0  0  0  0  0  0  0  0  0  0  0  0
   60.7650   32.6700   48.1250 C   0  0  0  0  0  0  0  0  0  0  0  0
   61.5610   33.6850   48.6650 C   0  0  0  0  0  0  0  0  0  0  0  0
   62.9440   33.6680   48.4710 C   0  0  0  0  0  0  0  0  0  0  0  0
   63.5330   32.6400   47.7320 C   0  0  0  0  0  0  0  0  0  0  0  0
   62.7420   31.6220   47.1910 C   0  0  0  0  0  0  0  0  0  0  0  0
   60.2350   29.3420   47.4640 C   0  0  0  0  0  0  0  0  0  0  0  0
   60.7170   29.1370   48.6120 O   0  0  0  0  0  0  0  0  0  0  0  0
   59.2001   27.2557   48.6272 H   0  0  0  0  0  0  0  0  0  0  0  0
   58.1755   26.7454   47.2428 H   0  0  0  0  0  0  0  0  0  0  0  0
   59.9335   26.3768   47.2428 H   0  0  0  0  0  0  0  0  0  0  0  0
   58.1910   29.3630   43.2330 H   0  0  0  0  0  0  0  0  0  0  0  0
   59.1790   30.7300   43.1550 H   0  0  0  0  0  0  0  0  0  0  0  0
   56.8970   31.4016   43.0033 H   0  0  0  0  0  0  0  0  0  0  0  0
   56.5699   30.5599   44.5645 H   0  0  0  0  0  0  0  0  0  0  0  0
   58.8122   33.2027   43.0536 H   0  0  0  0  0  0  0  0  0  0  0  0
   59.5450   35.2205   44.3278 H   0  0  0  0  0  0  0  0  0  0  0  0
   58.9051   35.4860   46.7263 H   0  0  0  0  0  0  0  0  0  0  0  0
   57.5320   33.7323   47.8559 H   0  0  0  0  0  0  0  0  0  0  0  0
   56.7945   31.7124   46.5878 H   0  0  0  0  0  0  0  0  0  0  0  0
   59.6752   32.6930   48.2729 H   0  0  0  0  0  0  0  0  0  0  0  0
   61.0973   34.4978   49.2433 H   0  0  0  0  0  0  0  0  0  0  0  0
   63.5694   34.4646   48.9004 H   0  0  0  0  0  0  0  0  0  0  0  0
   64.6217   32.6311   47.5751 H   0  0  0  0  0  0  0  0  0  0  0  0
   63.2105   30.8185   46.6037 H   0  0  0  0  0  0  0  0  0  0  0  0
  1  2  1  0
  2  3  1  0
  3  4  1  0
  3  5  2  0
  5  6  1  0
  6  7  1  0
  7  8  1  0
  8  9  2  0
  9 10  1  0
 10 11  2  0
 11 12  1  0
 12 13  2  0
  5 14  1  0
 14 15  2  0
 15 16  1  0
 16 17  2  0
 17 18  1  0
 18 19  2  0
 19 20  1  0
 20 21  2  0
 15 22  1  0
 22 23  2  0
 22  2  1  0
 13  8  1  0
 21 16  1  0
  1 24  1  0
  1 25  1  0
  1 26  1  0
  6 27  1  0
  6 28  1  0
  7 29  1  0
  7 30  1  0
  9 31  1  0
 10 32  1  0
 11 33  1  0
 12 34  1  0
 13 35  1  0
 17 36  1  0
 18 37  1  0
 19 38  1  0
 20 39  1  0
 21 40  1  0
M  CHG  1   6   1
M  END
>  <UniqueID>  (33) 
30

>  <SMILES>  (33) 
Cn1c(Cl)c([NH2+]Cc2ccccc2)nc(-c2ccccc2)c1=O

>  <Energy>  (33) 
54.852472988987294

>  <Genealogy>  (33) 
Cn1c(Cl)c([NH2+]Cc2ccccc2)nc(-c2ccccc2)c1=O (protonated)
Cn1c(Cl)c([NH2+]Cc2ccccc2)nc(-c2ccccc2)c1=O (3D coordinates assigned)
Cn1c(Cl)c([NH2+]Cc2ccccc2)nc(-c2ccccc2)c1=O (optimized conformer: 54.852472988987294 kcal/mol)

>  <smiles>  (33) 
Cn1c(Cl)c(NCc2ccccc2)nc(-c2ccccc2)c1=O

>  <score_type>  (33) 
oracle

>  <origin>  (33) 
adg

>  <m_score__min__energy>  (33) 
-5.9900000000000002

>  <m_primary>  (33) 
energy

$$$$
33:0
     RDKit          3D

 61 64  0  0  1  0  0  0  0  0999 V2000
   60.9600   31.2280   47.4770 N   0  0  0  0  0  0  0  0  0  0  0  0
   59.8690   30.3230   47.5250 C   0  0  0  0  0  0  0  0  0  0  0  0
   58.6980   30.7760   47.7210 O   0  0  0  0  0  0  0  0  0  0  0  0
   60.0060   28.8850   47.3630 C   0  0  0  0  0  0  0  0  0  0  0  0
   60.1820   28.1010   48.4770 C   0  0  0  0  0  0  0  0  0  0  0  0
   60.3190   26.7170   48.3780 C   0  0  0  0  0  0  0  0  0  0  0  0
   60.2690   26.1580   47.0960 C   0  0  0  0  0  0  0  0  0  0  0  0
   58.2010   34.2590   44.5650 C   0  0  0  0  0  0  0  0  0  0  0  0
   57.7350   33.4270   45.5840 C   0  0  0  0  0  0  0  0  0  0  0  0
   59.7770   29.0890   44.9190 N   0  0  0  0  0  0  0  0  0  0  0  0
   58.6210   29.6160   44.6880 C   0  0  0  0  0  0  0  0  0  0  0  0
   58.2530   30.8320   45.1040 N   0  0  0  0  0  0  0  0  0  0  0  0
   57.0140   31.3280   44.8300 C   0  0  0  0  0  0  0  0  0  0  0  0
   56.6860   32.5260   45.2530 N   0  0  0  0  0  0  0  0  0  0  0  0
   59.9590   28.3440   46.1210 C   0  0  0  0  0  0  0  0  0  0  0  0
   60.0900   26.9720   45.9740 C   0  0  0  0  0  0  0  0  0  0  0  0
   59.2170   35.1150   44.9050 C   0  0  0  0  0  0  0  0  0  0  0  0
   59.7380   35.1330   46.2000 C   0  0  0  0  0  0  0  0  0  0  0  0
   59.2760   34.3120   47.1970 C   0  0  0  0  0  0  0  0  0  0  0  0
   59.7660   34.2670   48.5170 N   0  0  0  0  0  0  0  0  0  0  0  0
   61.0370   33.8190   48.9190 C   0  0  0  0  0  0  0  0  0  0  0  0
   61.9040   33.3950   48.1300 O   0  0  0  0  0  0  0  0  0  0  0  0
   61.3970   33.8380   50.3730 C   0  0  0  0  0  0  0  0  0  0  0  0
   60.4530   32.9370   51.1300 C   0  0  0  0  0  0  0  0  0  0  0  0
   59.0680   33.2570   50.9760 N   0  0  0  0  0  0  0  0  0  0  0  0
   58.2660   32.2310   50.3760 C   0  0  0  0  0  0  0  0  0  0  0  0
   57.5170   31.4770   51.4770 C   0  0  0  0  0  0  0  0  0  0  0  0
   58.2460   31.4720   52.6640 O   0  0  0  0  0  0  0  0  0  0  0  0
   58.2500   32.7500   53.2270 C   0  0  0  0  0  0  0  0  0  0  0  0
   58.5290   33.8110   52.1830 C   0  0  0  0  0  0  0  0  0  0  0  0
   58.2500   33.4480   46.8570 C   0  0  0  0  0  0  0  0  0  0  0  0
   56.1530   30.5790   44.1290 N   0  0  0  0  0  0  0  0  0  0  0  0
   56.4790   29.3360   43.6820 C   0  0  0  0  0  0  0  0  0  0  0  0
   57.7360   28.8240   43.9570 C   0  0  0  0  0  0  0  0  0  0  0  0
   58.1420   27.2390   43.3850 Cl  0  0  0  0  0  0  0  0  0  0  0  0
   61.6330   31.2030   48.2830 H   0  0  0  0  0  0  0  0  0  0  0  0
   61.1100   31.9080   46.6760 H   0  0  0  0  0  0  0  0  0  0  0  0
   60.2156   28.5754   49.4689 H   0  0  0  0  0  0  0  0  0  0  0  0
   60.4606   26.0903   49.2708 H   0  0  0  0  0  0  0  0  0  0  0  0
   60.3713   25.0700   46.9704 H   0  0  0  0  0  0  0  0  0  0  0  0
   57.7786   34.2299   43.5498 H   0  0  0  0  0  0  0  0  0  0  0  0
   58.9500   31.3940   45.6500 H   0  0  0  0  0  0  0  0  0  0  0  0
   60.0530   26.5222   44.9708 H   0  0  0  0  0  0  0  0  0  0  0  0
   59.6274   35.7974   44.1462 H   0  0  0  0  0  0  0  0  0  0  0  0
   60.5530   35.8349   46.4305 H   0  0  0  0  0  0  0  0  0  0  0  0
   59.1270   34.6020   49.2930 H   0  0  0  0  0  0  0  0  0  0  0  0
   62.4292   33.4800   50.5011 H   0  0  0  0  0  0  0  0  0  0  0  0
   61.3176   34.8647   50.7598 H   0  0  0  0  0  0  0  0  0  0  0  0
   60.6075   31.9062   50.7783 H   0  0  0  0  0  0  0  0  0  0  0  0
   60.6855   33.0702   52.1969 H   0  0  0  0  0  0  0  0  0  0  0  0
   57.5430   32.6859   49.6830 H   0  0  0  0  0  0  0  0  0  0  0  0
   58.9096   31.5337   49.8195 H   0  0  0  0  0  0  0  0  0  0  0  0
   56.5476   31.9663   51.6524 H   0  0  0  0  0  0  0  0  0  0  0  0
   57.3705   30.4365   51.1516 H   0  0  0  0  0  0  0  0  0  0  0  0
   57.2673   32.9443   53.6815 H   0  0  0  0  0  0  0  0  0  0  0  0
   59.0453   32.7923   53.9858 H   0  0  0  0  0  0  0  0  0  0  0  0
   57.5884   34.3295   51.9452 H   0  0  0  0  0  0  0  0  0  0  0  0
   59.2755   34.5041   52.5982 H   0  0  0  0  0  0  0  0  0  0  0  0
   57.8405   32.7675   47.6181 H   0  0  0  0  0  0  0  0  0  0  0  0
   55.2020   30.9270   43.9020 H   0  0  0  0  0  0  0  0  0  0  0  0
   55.7514   28.7436   43.1079 H   0  0  0  0  0  0  0  0  0  0  0  0
  1  2  1  0
  2  3  2  0
  2  4  1  0
  4  5  2  0
  5  6  1  0
  6  7  2  0
  7  8  1  0
  8  9  2  0
  9 10  1  0
 10 11  2  0
 11 12  1  0
 12 13  1  0
 13 14  2  0
 14 15  1  0
 15 16  2  0
 16 17  1  0
 17 18  2  0
 18 19  1  0
 19 20  1  0
 20 21  1  0
 21 22  2  0
 21 23  1  0
 23 24  1  0
 24 25  1  0
 25 26  1  0
 26 27  1  0
 27 28  1  0
 28 29  1  0
 29 30  1  0
 19 31  2  0
 13 32  1  0
 32 33  1  0
 33 34  2  0
 34 35  1  0
  9  4  1  0
 34 11  1  0
 31 15  1  0
 30 25  1  0
  1 36  1  0
  1 37  1  0
  5 38  1  0
  6 39  1  0
  7 40  1  0
  8 41  1  0
 12 42  1  0
 16 43  1  0
 17 44  1  0
 18 45  1  0
 20 46  1  0
 23 47  1  0
 23 48  1  0
 24 49  1  0
 24 50  1  0
 26 51  1  0
 26 52  1  0
 27 53  1  0
 27 54  1  0
 29 55  1  0
 29 56  1  0
 30 57  1  0
 30 58  1  0
 31 59  1  0
 32 60  1  0
 33 61  1  0
M  END
>  <smiles>  (34) 
NC(=O)c1ccccc1N=c1[nH]c(=Nc2cccc(NC(=O)CCN3CCOCC3)c2)[nH]cc1Cl

>  <score_type>  (34) 
oracle

>  <origin>  (34) 
adg

>  <m_score__min__energy>  (34) 
-10.609999999999999

>  <m_primary>  (34) 
energy

$$$$
34:0
     RDKit          3D

 34 36  0  0  0  0  0  0  0  0999 V2000
   57.3876   34.5681   44.4966 H   0  0  0  0  0  0  0  0  0  0  0  0
   58.2150   34.1260   45.0710 C   0  0  0  0  0  0  0  0  0  0  0  0
   59.3580   34.9670   45.9700 S   0  0  0  0  0  0  0  0  0  0  0  0
   60.1780   33.5790   46.4610 C   0  0  0  0  0  0  0  0  0  0  0  0
   61.3770   33.5410   47.3300 C   0  0  0  0  0  0  0  0  0  0  0  0
   62.6330   33.2180   46.7840 C   0  0  0  0  0  0  0  0  0  0  0  0
   62.7210   32.9939   45.7107 H   0  0  0  0  0  0  0  0  0  0  0  0
   63.7700   33.1800   47.5970 C   0  0  0  0  0  0  0  0  0  0  0  0
   64.7489   32.9391   47.1569 H   0  0  0  0  0  0  0  0  0  0  0  0
   63.6700   33.4470   48.9690 C   0  0  0  0  0  0  0  0  0  0  0  0
   64.8970   33.4440   49.8320 C   0  0  0  0  0  0  0  0  0  0  0  0
   64.6003   33.4447   50.8912 H   0  0  0  0  0  0  0  0  0  0  0  0
   65.4930   32.5444   49.6188 H   0  0  0  0  0  0  0  0  0  0  0  0
   65.4974   34.3407   49.6188 H   0  0  0  0  0  0  0  0  0  0  0  0
   62.4240   33.7860   49.5140 C   0  0  0  0  0  0  0  0  0  0  0  0
   62.3413   34.0211   50.5854 H   0  0  0  0  0  0  0  0  0  0  0  0
   61.2850   33.8270   48.7030 C   0  0  0  0  0  0  0  0  0  0  0  0
   60.3104   34.0849   49.1430 H   0  0  0  0  0  0  0  0  0  0  0  0
   59.5930   32.4730   45.9470 N   0  0  0  0  0  0  0  0  0  0  0  0
   58.5040   32.7670   45.1840 C   0  0  0  0  0  0  0  0  0  0  0  0
   57.7250   31.7060   44.5170 C   0  0  0  0  0  0  0  0  0  0  0  0
   57.4550   31.8180   43.2910 O   0  0  0  0  0  0  0  0  0  0  0  0
   57.2000   30.5850   45.2430 N   0  0  0  0  0  0  0  0  0  0  0  0
   57.4140   29.3210   44.9970 C   0  0  0  0  0  0  0  0  0  0  0  0
   57.3360   28.3340   46.0020 C   0  0  0  0  0  0  0  0  0  0  0  0
   57.0835   28.6152   47.0351 H   0  0  0  0  0  0  0  0  0  0  0  0
   57.5810   26.9990   45.6780 C   0  0  0  0  0  0  0  0  0  0  0  0
   57.5161   26.2227   46.4546 H   0  0  0  0  0  0  0  0  0  0  0  0
   57.9080   26.6510   44.3690 C   0  0  0  0  0  0  0  0  0  0  0  0
   58.1480   25.3570   44.0450 F   0  0  0  0  0  0  0  0  0  0  0  0
   57.9930   27.6480   43.3980 C   0  0  0  0  0  0  0  0  0  0  0  0
   58.2547   27.3840   42.3627 H   0  0  0  0  0  0  0  0  0  0  0  0
   57.7530   28.9480   43.7270 N   0  0  0  0  0  0  0  0  0  0  0  0
   57.8250   29.6720   42.9770 H   0  0  0  0  0  0  0  0  0  0  0  0
  1  2  1  0
  2  3  1  0
  3  4  1  0
  4  5  1  0
  5  6  2  0
  6  7  1  0
  6  8  1  0
  8  9  1  0
  8 10  2  0
 10 11  1  0
 11 12  1  0
 11 13  1  0
 11 14  1  0
 10 15  1  0
 15 16  1  0
 15 17  2  0
 17 18  1  0
  4 19  2  0
 19 20  1  0
 20 21  1  0
 21 22  2  0
 21 23  1  0
 23 24  2  0
 24 25  1  0
 25 26  1  0
 25 27  2  0
 27 28  1  0
 27 29  1  0
 29 30  1  0
 29 31  2  0
 31 32  1  0
 31 33  1  0
 33 34  1  0
 20  2  2  0
 33 24  1  0
 17  5  1  0
M  END
>  <UniqueID>  (35) 
31

>  <SMILES>  (35) 
Cc1ccc(-c2nc(C(=O)/N=c3\ccc(F)c[nH]3)cs2)cc1

>  <Energy>  (35) 
75.7177143166184

>  <Genealogy>  (35) 
Cc1ccc(-c2nc(C(=O)/N=c3\ccc(F)c[nH]3)cs2)cc1 (cis-trans isomerization)
Cc1ccc(-c2nc(C(=O)/N=c3\ccc(F)c[nH]3)cs2)cc1 (3D coordinates assigned)
Cc1ccc(-c2nc(C(=O)/N=c3\ccc(F)c[nH]3)cs2)cc1 (optimized conformer: 75.7177143166184 kcal/mol)

>  <smiles>  (35) 
Cc1ccc(-c2nc(C(=O)N=c3ccc(F)c[nH]3)cs2)cc1

>  <score_type>  (35) 
oracle

>  <origin>  (35) 
adg

>  <m_score__min__energy>  (35) 
-7.6299999999999999

>  <m_primary>  (35) 
energy

$$$$
35:0
     RDKit          3D

 59 61  0  0  0  0  0  0  0  0999 V2000
   56.4320   22.2160   43.2590 C   0  0  0  0  0  0  0  0  0  0  0  0
   55.8210   23.2390   44.0370 O   0  0  0  0  0  0  0  0  0  0  0  0
   56.4470   24.4410   44.4040 C   0  0  0  0  0  0  0  0  0  0  0  0
   57.4370   25.0420   43.6040 C   0  0  0  0  0  0  0  0  0  0  0  0
   58.0320   26.2410   43.9990 C   0  0  0  0  0  0  0  0  0  0  0  0
   57.6590   26.8510   45.2000 C   0  0  0  0  0  0  0  0  0  0  0  0
   58.3370   28.4200   45.6380 S   0  0  0  0  0  0  0  0  0  0  0  0
   59.2890   28.8710   44.5660 O   0  0  0  0  0  0  0  0  0  0  0  0
   59.0790   28.3350   46.9430 O   0  0  0  0  0  0  0  0  0  0  0  0
   57.0380   29.5550   45.7730 N   0  0  0  0  0  0  0  0  0  0  0  0
   56.3290   29.9910   44.6140 C   0  0  0  0  0  0  0  0  0  0  0  0
   55.1440   29.6110   44.4180 O   0  0  0  0  0  0  0  0  0  0  0  0
   57.0050   30.8260   43.6140 C   0  0  0  0  0  0  0  0  0  0  0  0
   56.6880   30.8850   42.2700 C   0  0  0  0  0  0  0  0  0  0  0  0
   57.4480   31.9290   41.7760 C   0  0  0  0  0  0  0  0  0  0  0  0
   58.1570   32.4690   42.7850 N   0  0  0  0  0  0  0  0  0  0  0  0
   57.9000   31.7990   43.8960 N   0  0  0  0  0  0  0  0  0  0  0  0
   58.2960   32.2400   45.2020 C   0  0  0  0  0  0  0  0  0  0  0  0
   59.2790   31.5360   45.9070 C   0  0  0  0  0  0  0  0  0  0  0  0
   59.7170   31.9930   47.1530 C   0  0  0  0  0  0  0  0  0  0  0  0
   59.1710   33.1610   47.7150 C   0  0  0  0  0  0  0  0  0  0  0  0
   59.6420   33.6590   49.0260 C   0  0  0  0  0  0  0  0  0  0  0  0
   58.9510   33.4500   50.0600 O   0  0  0  0  0  0  0  0  0  0  0  0
   60.8580   34.3560   49.1050 O   0  0  0  0  0  0  0  0  0  0  0  0
   62.1720   33.7760   49.1140 C   0  0  0  0  0  0  0  0  0  0  0  0
   62.0140   32.3000   49.5060 C   0  0  0  0  0  0  0  0  0  0  0  0
   63.0640   34.4770   50.1570 C   0  0  0  0  0  0  0  0  0  0  0  0
   62.8090   33.8510   47.7130 C   0  0  0  0  0  0  0  0  0  0  0  0
   58.1730   33.8550   47.0090 C   0  0  0  0  0  0  0  0  0  0  0  0
   57.7350   33.3940   45.7650 C   0  0  0  0  0  0  0  0  0  0  0  0
   56.6730   26.2600   45.9990 C   0  0  0  0  0  0  0  0  0  0  0  0
   56.0570   25.0570   45.6020 C   0  0  0  0  0  0  0  0  0  0  0  0
   55.0480   24.4500   46.3650 O   0  0  0  0  0  0  0  0  0  0  0  0
   55.2300   23.2810   47.1570 C   0  0  0  0  0  0  0  0  0  0  0  0
   56.8802   21.4656   43.9269 H   0  0  0  0  0  0  0  0  0  0  0  0
   55.6730   21.7353   42.6243 H   0  0  0  0  0  0  0  0  0  0  0  0
   57.2151   22.6563   42.6243 H   0  0  0  0  0  0  0  0  0  0  0  0
   57.7435   24.5638   42.6620 H   0  0  0  0  0  0  0  0  0  0  0  0
   58.7979   26.7080   43.3624 H   0  0  0  0  0  0  0  0  0  0  0  0
   55.9866   30.2436   41.7162 H   0  0  0  0  0  0  0  0  0  0  0  0
   57.4698   32.2640   40.7285 H   0  0  0  0  0  0  0  0  0  0  0  0
   58.7740   33.3100   42.7220 H   0  0  0  0  0  0  0  0  0  0  0  0
   59.7089   30.6187   45.4784 H   0  0  0  0  0  0  0  0  0  0  0  0
   60.4935   31.4358   47.6975 H   0  0  0  0  0  0  0  0  0  0  0  0
   62.0045   32.2108   50.6023 H   0  0  0  0  0  0  0  0  0  0  0  0
   61.0691   31.9115   49.0983 H   0  0  0  0  0  0  0  0  0  0  0  0
   62.8552   31.7203   49.0983 H   0  0  0  0  0  0  0  0  0  0  0  0
   62.7244   34.2101   51.1686 H   0  0  0  0  0  0  0  0  0  0  0  0
   64.1071   34.1545   50.0234 H   0  0  0  0  0  0  0  0  0  0  0  0
   62.9972   35.5668   50.0234 H   0  0  0  0  0  0  0  0  0  0  0  0
   63.8971   33.9791   47.8113 H   0  0  0  0  0  0  0  0  0  0  0  0
   62.5974   32.9217   47.1638 H   0  0  0  0  0  0  0  0  0  0  0  0
   62.3873   34.7057   47.1638 H   0  0  0  0  0  0  0  0  0  0  0  0
   57.7339   34.7673   47.4390 H   0  0  0  0  0  0  0  0  0  0  0  0
   56.9466   33.9391   45.2254 H   0  0  0  0  0  0  0  0  0  0  0  0
   56.3770   26.7387   46.9441 H   0  0  0  0  0  0  0  0  0  0  0  0
   55.1881   23.5500   48.2228 H   0  0  0  0  0  0  0  0  0  0  0  0
   54.4338   22.5567   46.9301 H   0  0  0  0  0  0  0  0  0  0  0  0
   56.2087   22.8331   46.9301 H   0  0  0  0  0  0  0  0  0  0  0  0
  1  2  1  0
  2  3  1  0
  3  4  2  0
  4  5  1  0
  5  6  2  0
  6  7  1  0
  7  8  2  0
  7  9  2  0
  7 10  1  0
 10 11  1  0
 11 12  2  0
 11 13  1  0
 13 14  2  0
 14 15  1  0
 15 16  2  0
 16 17  1  0
 17 18  1  0
 18 19  2  0
 19 20  1  0
 20 21  2  0
 21 22  1  0
 22 23  2  0
 22 24  1  0
 24 25  1  0
 25 26  1  0
 25 27  1  0
 25 28  1  0
 21 29  1  0
 29 30  2  0
  6 31  1  0
 31 32  2  0
 32 33  1  0
 33 34  1  0
 32  3  1  0
 17 13  1  0
 30 18  1  0
  1 35  1  0
  1 36  1  0
  1 37  1  0
  4 38  1  0
  5 39  1  0
 14 40  1  0
 15 41  1  0
 16 42  1  0
 19 43  1  0
 20 44  1  0
 26 45  1  0
 26 46  1  0
 26 47  1  0
 27 48  1  0
 27 49  1  0
 27 50  1  0
 28 51  1  0
 28 52  1  0
 28 53  1  0
 29 54  1  0
 30 55  1  0
 31 56  1  0
 34 57  1  0
 34 58  1  0
 34 59  1  0
M  CHG  2  10  -1  16   1
M  END
>  <UniqueID>  (36) 
32

>  <SMILES>  (36) 
COc1ccc(S(=O)(=O)[N-]C(=O)c2cc[nH+]n2-c2ccc(C(=O)OC(C)(C)C)cc2)cc1OC

>  <Energy>  (36) 
92.53447894867483

>  <Genealogy>  (36) 
COc1ccc(S(=O)(=O)[N-]C(=O)c2cc[nH+]n2-c2ccc(C(=O)OC(C)(C)C)cc2)cc1OC (protonated)
COc1ccc(S(=O)(=O)[N-]C(=O)c2cc[nH+]n2-c2ccc(C(=O)OC(C)(C)C)cc2)cc1OC (3D coordinates assigned)
COc1ccc(S(=O)(=O)[N-]C(=O)c2cc[nH+]n2-c2ccc(C(=O)OC(C)(C)C)cc2)cc1OC (optimized conformer: 92.53447894867483 kcal/mol)

>  <smiles>  (36) 
COc1ccc(S(=O)(=O)NC(=O)c2ccnn2-c2ccc(C(=O)OC(C)(C)C)cc2)cc1OC

>  <score_type>  (36) 
oracle

>  <origin>  (36) 
adg

>  <m_score__min__energy>  (36) 
-9.2599999999999998

>  <m_primary>  (36) 
energy

$$$$
36:0
     RDKit          3D

 56 59  0  0  0  0  0  0  0  0999 V2000
   51.0210   32.7390   51.5280 N   0  0  0  0  0  0  0  0  0  0  0  0
   51.2670   31.6240   52.8270 S   0  0  0  0  0  0  0  0  0  0  0  0
   50.2220   30.5470   52.7670 O   0  0  0  0  0  0  0  0  0  0  0  0
   51.1380   32.3550   54.1350 O   0  0  0  0  0  0  0  0  0  0  0  0
   52.8650   30.9000   52.6920 C   0  0  0  0  0  0  0  0  0  0  0  0
   53.2220   29.8010   53.4850 C   0  0  0  0  0  0  0  0  0  0  0  0
   54.4990   29.2420   53.3790 C   0  0  0  0  0  0  0  0  0  0  0  0
   55.4380   29.7850   52.4940 C   0  0  0  0  0  0  0  0  0  0  0  0
   56.7290   29.1660   52.3890 N   0  0  0  0  0  0  0  0  0  0  0  0
   57.8960   29.6880   52.6360 C   0  0  0  0  0  0  0  0  0  0  0  0
   58.5650   30.7000   51.7870 C   0  0  0  0  0  0  0  0  0  0  0  0
   58.1850   30.9110   50.4500 C   0  0  0  0  0  0  0  0  0  0  0  0
   58.7880   31.9200   49.6960 C   0  0  0  0  0  0  0  0  0  0  0  0
   59.7540   32.7600   50.2750 C   0  0  0  0  0  0  0  0  0  0  0  0
   60.3540   33.8770   49.5200 C   0  0  0  0  0  0  0  0  0  0  0  0
   59.6180   34.6440   48.7730 N   0  0  0  0  0  0  0  0  0  0  0  0
   59.1160   34.2860   47.4780 C   0  0  0  0  0  0  0  0  0  0  0  0
   59.8850   34.5910   46.3530 C   0  0  0  0  0  0  0  0  0  0  0  0
   59.4410   34.2460   45.0740 C   0  0  0  0  0  0  0  0  0  0  0  0
   58.2410   33.5270   44.9030 C   0  0  0  0  0  0  0  0  0  0  0  0
   57.7300   33.1340   43.6140 N   0  0  0  0  0  0  0  0  0  0  0  0
   57.6360   31.9440   43.0850 C   0  0  0  0  0  0  0  0  0  0  0  0
   58.2320   30.7390   43.7340 C   0  0  0  0  0  0  0  0  0  0  0  0
   58.8010   29.5830   44.3600 C   0  0  0  0  0  0  0  0  0  0  0  0
   58.1940   28.8640   45.4040 C   0  0  0  0  0  0  0  0  0  0  0  0
   56.8210   28.9390   45.5290 C   0  0  0  0  0  0  0  0  0  0  0  0
   56.1380   29.5470   44.4910 C   0  0  0  0  0  0  0  0  0  0  0  0
   56.8880   30.1600   43.4680 C   0  0  0  0  0  0  0  0  0  0  0  0
   56.3120   30.0540   42.1780 O   0  0  0  0  0  0  0  0  0  0  0  0
   57.4700   33.2320   46.0340 C   0  0  0  0  0  0  0  0  0  0  0  0
   57.8990   33.6050   47.3110 C   0  0  0  0  0  0  0  0  0  0  0  0
   60.1140   32.5620   51.6170 C   0  0  0  0  0  0  0  0  0  0  0  0
   59.5220   31.5430   52.3650 C   0  0  0  0  0  0  0  0  0  0  0  0
   55.0670   30.8640   51.6720 C   0  0  0  0  0  0  0  0  0  0  0  0
   53.7930   31.4240   51.7830 C   0  0  0  0  0  0  0  0  0  0  0  0
   50.2770   32.3360   50.9110 H   0  0  0  0  0  0  0  0  0  0  0  0
   52.4950   29.3768   54.1932 H   0  0  0  0  0  0  0  0  0  0  0  0
   54.7674   28.3707   53.9944 H   0  0  0  0  0  0  0  0  0  0  0  0
   58.4233   29.3528   53.5413 H   0  0  0  0  0  0  0  0  0  0  0  0
   57.4087   30.2780   49.9954 H   0  0  0  0  0  0  0  0  0  0  0  0
   58.5049   32.0580   48.6421 H   0  0  0  0  0  0  0  0  0  0  0  0
   61.4360   34.0622   49.5904 H   0  0  0  0  0  0  0  0  0  0  0  0
   60.8486   35.1073   46.4748 H   0  0  0  0  0  0  0  0  0  0  0  0
   60.0326   34.5378   44.1937 H   0  0  0  0  0  0  0  0  0  0  0  0
   57.1009   31.8257   42.1312 H   0  0  0  0  0  0  0  0  0  0  0  0
   59.7798   29.2342   43.9990 H   0  0  0  0  0  0  0  0  0  0  0  0
   58.7944   28.2600   46.1002 H   0  0  0  0  0  0  0  0  0  0  0  0
   56.2974   28.5361   46.4085 H   0  0  0  0  0  0  0  0  0  0  0  0
   55.0383   29.5517   44.4650 H   0  0  0  0  0  0  0  0  0  0  0  0
   55.7680   29.2550   41.8760 H   0  0  0  0  0  0  0  0  0  0  0  0
   56.5145   32.6999   45.9161 H   0  0  0  0  0  0  0  0  0  0  0  0
   57.2810   33.3642   48.1886 H   0  0  0  0  0  0  0  0  0  0  0  0
   60.8677   33.2142   52.0824 H   0  0  0  0  0  0  0  0  0  0  0  0
   59.8096   31.4011   53.4172 H   0  0  0  0  0  0  0  0  0  0  0  0
   55.7821   31.2676   50.9401 H   0  0  0  0  0  0  0  0  0  0  0  0
   53.5162   32.2820   51.1527 H   0  0  0  0  0  0  0  0  0  0  0  0
  1  2  1  0
  2  3  2  0
  2  4  2  0
  2  5  1  0
  5  6  2  0
  6  7  1  0
  7  8  2  0
  8  9  1  0
  9 10  2  3
 10 11  1  0
 11 12  2  0
 12 13  1  0
 13 14  2  0
 14 15  1  0
 15 16  2  3
 16 17  1  0
 17 18  2  0
 18 19  1  0
 19 20  2  0
 20 21  1  0
 21 22  2  3
 22 23  1  0
 23 24  2  0
 24 25  1  0
 25 26  2  0
 26 27  1  0
 27 28  2  0
 28 29  1  0
 20 30  1  0
 30 31  2  0
 14 32  1  0
 32 33  2  0
  8 34  1  0
 34 35  2  0
 35  5  1  0
 33 11  1  0
 31 17  1  0
 28 23  1  0
  1 36  1  0
  6 37  1  0
  7 38  1  0
 10 39  1  0
 12 40  1  0
 13 41  1  0
 15 42  1  0
 18 43  1  0
 19 44  1  0
 22 45  1  0
 24 46  1  0
 25 47  1  0
 26 48  1  0
 27 49  1  0
 29 50  1  0
 30 51  1  0
 31 52  1  0
 32 53  1  0
 33 54  1  0
 34 55  1  0
 35 56  1  0
M  CHG  1   1  -1
M  END
>  <UniqueID>  (37) 
33

>  <SMILES>  (37) 
[NH-]S(=O)(=O)c1ccc(N=Cc2ccc(C=Nc3ccc(N=Cc4ccccc4O)cc3)cc2)cc1

>  <Energy>  (37) 
239.8486544324562

>  <Genealogy>  (37) 
[NH-]S(=O)(=O)c1ccc(N=Cc2ccc(C=Nc3ccc(N=Cc4ccccc4O)cc3)cc2)cc1 (protonated)
[NH-]S(=O)(=O)c1ccc(N=Cc2ccc(C=Nc3ccc(N=Cc4ccccc4O)cc3)cc2)cc1 (3D coordinates assigned)
[NH-]S(=O)(=O)c1ccc(N=Cc2ccc(C=Nc3ccc(N=Cc4ccccc4O)cc3)cc2)cc1 (optimized conformer: 239.8486544324562 kcal/mol)

>  <smiles>  (37) 
NS(=O)(=O)c1ccc(N=Cc2ccc(C=Nc3ccc(N=Cc4ccccc4O)cc3)cc2)cc1

>  <score_type>  (37) 
oracle

>  <origin>  (37) 
adg

>  <m_score__min__energy>  (37) 
-14.33

>  <m_primary>  (37) 
energy

$$$$
37:0
     RDKit          3D

 32 33  0  0  0  0  0  0  0  0999 V2000
   56.6360   24.9010   44.6060 C   0  0  0  0  0  0  0  0  0  0  0  0
   56.1610   25.8150   46.0580 S   0  0  0  0  0  0  0  0  0  0  0  0
   54.7670   26.3400   45.8620 O   0  0  0  0  0  0  0  0  0  0  0  0
   56.1770   24.9240   47.2680 O   0  0  0  0  0  0  0  0  0  0  0  0
   57.2320   27.1580   46.2950 N   0  0  0  0  0  0  0  0  0  0  0  0
   57.2840   28.3430   45.4900 C   0  0  0  0  0  0  0  0  0  0  0  0
   56.1360   28.9080   44.9080 C   0  0  0  0  0  0  0  0  0  0  0  0
   56.2350   30.0680   44.1320 C   0  0  0  0  0  0  0  0  0  0  0  0
   57.4800   30.6870   43.9330 C   0  0  0  0  0  0  0  0  0  0  0  0
   57.5750   31.9170   43.1090 C   0  0  0  0  0  0  0  0  0  0  0  0
   57.5120   31.8250   41.8540 O   0  0  0  0  0  0  0  0  0  0  0  0
   57.7890   33.2080   43.6920 N   0  0  0  0  0  0  0  0  0  0  0  0
   58.3340   33.4710   44.9940 C   0  0  0  0  0  0  0  0  0  0  0  0
   57.6860   32.9430   46.1180 C   0  0  0  0  0  0  0  0  0  0  0  0
   58.1980   33.1690   47.4000 C   0  0  0  0  0  0  0  0  0  0  0  0
   59.3720   33.9120   47.5650 C   0  0  0  0  0  0  0  0  0  0  0  0
   60.0710   34.2190   49.3160 Br  0  0  0  0  0  0  0  0  0  0  0  0
   60.0370   34.4210   46.4460 C   0  0  0  0  0  0  0  0  0  0  0  0
   59.5270   34.1970   45.1630 C   0  0  0  0  0  0  0  0  0  0  0  0
   58.6270   30.1100   44.5000 C   0  0  0  0  0  0  0  0  0  0  0  0
   58.5270   28.9510   45.2740 C   0  0  0  0  0  0  0  0  0  0  0  0
   57.1239   23.9622   44.9070 H   0  0  0  0  0  0  0  0  0  0  0  0
   55.7419   24.6739   44.0069 H   0  0  0  0  0  0  0  0  0  0  0  0
   57.3358   25.5022   44.0069 H   0  0  0  0  0  0  0  0  0  0  0  0
   55.1548   28.4357   45.0634 H   0  0  0  0  0  0  0  0  0  0  0  0
   55.3317   30.4981   43.6747 H   0  0  0  0  0  0  0  0  0  0  0  0
   56.7697   32.3475   45.9919 H   0  0  0  0  0  0  0  0  0  0  0  0
   57.6771   32.7622   48.2793 H   0  0  0  0  0  0  0  0  0  0  0  0
   60.9639   34.9993   46.5747 H   0  0  0  0  0  0  0  0  0  0  0  0
   60.0599   34.5893   44.2843 H   0  0  0  0  0  0  0  0  0  0  0  0
   59.6108   30.5731   44.3340 H   0  0  0  0  0  0  0  0  0  0  0  0
   59.4328   28.5121   45.7177 H   0  0  0  0  0  0  0  0  0  0  0  0
  1  2  1  0
  2  3  2  0
  2  4  2  0
  2  5  1  0
  5  6  1  0
  6  7  2  0
  7  8  1  0
  8  9  2  0
  9 10  1  0
 10 11  2  0
 10 12  1  0
 12 13  1  0
 13 14  2  0
 14 15  1  0
 15 16  2  0
 16 17  1  0
 16 18  1  0
 18 19  2  0
  9 20  1  0
 20 21  2  0
 21  6  1  0
 19 13  1  0
  1 22  1  0
  1 23  1  0
  1 24  1  0
  7 25  1  0
  8 26  1  0
 14 27  1  0
 15 28  1  0
 18 29  1  0
 19 30  1  0
 20 31  1  0
 21 32  1  0
M  CHG  2   5  -1  12  -1
M  END
>  <UniqueID>  (38) 
34

>  <SMILES>  (38) 
CS(=O)(=O)[N-]c1ccc(C(=O)[N-]c2ccc(Br)cc2)cc1

>  <Energy>  (38) 
38.268397998215384

>  <Genealogy>  (38) 
CS(=O)(=O)[N-]c1ccc(C(=O)[N-]c2ccc(Br)cc2)cc1 (protonated)
CS(=O)(=O)[N-]c1ccc(C(=O)[N-]c2ccc(Br)cc2)cc1 (3D coordinates assigned)
CS(=O)(=O)[N-]c1ccc(C(=O)[N-]c2ccc(Br)cc2)cc1 (optimized conformer: 38.268397998215384 kcal/mol)

>  <smiles>  (38) 
CS(=O)(=O)Nc1ccc(C(=O)Nc2ccc(Br)cc2)cc1

>  <score_type>  (38) 
oracle

>  <origin>  (38) 
adg

>  <m_score__min__energy>  (38) 
-10.609999999999999

>  <m_primary>  (38) 
energy

$$$$
38:0
     RDKit          3D

 34 36  0  0  0  0  0  0  0  0999 V2000
   57.8450   31.7230   43.0670 N   0  0  0  0  0  0  0  0  0  0  0  0
   58.0720   31.9160   44.4660 C   0  0  0  0  0  0  0  0  0  0  0  0
   57.8450   33.1680   45.0530 C   0  0  0  0  0  0  0  0  0  0  0  0
   58.0680   33.3560   46.4200 C   0  0  0  0  0  0  0  0  0  0  0  0
   58.5050   32.2880   47.2210 C   0  0  0  0  0  0  0  0  0  0  0  0
   58.7520   32.4720   48.6250 N   0  0  0  0  0  0  0  0  0  0  0  0
   57.8020   32.3380   49.5380 N   0  0  0  0  0  0  0  0  0  0  0  0
   58.3710   32.4950   50.7490 C   0  0  0  0  0  0  0  0  0  0  0  0
   57.6360   32.3570   52.0440 C   0  0  0  0  0  0  0  0  0  0  0  0
   56.6710   31.3730   51.9390 F   0  0  0  0  0  0  0  0  0  0  0  0
   58.5280   32.0140   53.0430 F   0  0  0  0  0  0  0  0  0  0  0  0
   57.0250   33.5550   52.3690 F   0  0  0  0  0  0  0  0  0  0  0  0
   59.7280   32.7110   50.6090 C   0  0  0  0  0  0  0  0  0  0  0  0
   59.9360   32.7100   49.2430 C   0  0  0  0  0  0  0  0  0  0  0  0
   61.2260   33.0140   48.5840 C   0  0  0  0  0  0  0  0  0  0  0  0
   61.2610   33.5420   47.2820 C   0  0  0  0  0  0  0  0  0  0  0  0
   62.4840   33.8370   46.6720 C   0  0  0  0  0  0  0  0  0  0  0  0
   63.6800   33.6190   47.3600 C   0  0  0  0  0  0  0  0  0  0  0  0
   63.6560   33.1120   48.6630 C   0  0  0  0  0  0  0  0  0  0  0  0
   65.1580   32.8460   49.5290 Cl  0  0  0  0  0  0  0  0  0  0  0  0
   62.4330   32.8150   49.2760 C   0  0  0  0  0  0  0  0  0  0  0  0
   58.7520   31.0410   46.6260 C   0  0  0  0  0  0  0  0  0  0  0  0
   58.5300   30.8540   45.2590 C   0  0  0  0  0  0  0  0  0  0  0  0
   57.3720   32.4580   42.4960 H   0  0  0  0  0  0  0  0  0  0  0  0
   58.1490   30.8440   42.5930 H   0  0  0  0  0  0  0  0  0  0  0  0
   57.4899   34.0062   44.4355 H   0  0  0  0  0  0  0  0  0  0  0  0
   57.9004   34.3453   46.8708 H   0  0  0  0  0  0  0  0  0  0  0  0
   60.4742   32.8519   51.4048 H   0  0  0  0  0  0  0  0  0  0  0  0
   60.3213   33.7241   46.7400 H   0  0  0  0  0  0  0  0  0  0  0  0
   62.5044   34.2412   45.6492 H   0  0  0  0  0  0  0  0  0  0  0  0
   64.6415   33.8463   46.8764 H   0  0  0  0  0  0  0  0  0  0  0  0
   62.4166   32.4241   50.3041 H   0  0  0  0  0  0  0  0  0  0  0  0
   59.1224   30.2062   47.2391 H   0  0  0  0  0  0  0  0  0  0  0  0
   58.7152   29.8701   44.8033 H   0  0  0  0  0  0  0  0  0  0  0  0
  1  2  1  0
  2  3  2  0
  3  4  1  0
  4  5  2  0
  5  6  1  0
  6  7  1  0
  7  8  2  0
  8  9  1  0
  9 10  1  0
  9 11  1  0
  9 12  1  0
  8 13  1  0
 13 14  2  0
 14 15  1  0
 15 16  2  0
 16 17  1  0
 17 18  2  0
 18 19  1  0
 19 20  1  0
 19 21  2  0
  5 22  1  0
 22 23  2  0
 23  2  1  0
 14  6  1  0
 21 15  1  0
  1 24  1  0
  1 25  1  0
  3 26  1  0
  4 27  1  0
 13 28  1  0
 16 29  1  0
 17 30  1  0
 18 31  1  0
 21 32  1  0
 22 33  1  0
 23 34  1  0
M  END
>  <UniqueID>  (39) 
35

>  <SMILES>  (39) 
Nc1ccc(-n2nc(C(F)(F)F)cc2-c2cccc(Cl)c2)cc1

>  <Energy>  (39) 
73.43605968610815

>  <Genealogy>  (39) 
Nc1ccc(-n2nc(C(F)(F)F)cc2-c2cccc(Cl)c2)cc1 (3D coordinates assigned)
Nc1ccc(-n2nc(C(F)(F)F)cc2-c2cccc(Cl)c2)cc1 (optimized conformer: 73.43605968610815 kcal/mol)

>  <smiles>  (39) 
Nc1ccc(-n2nc(C(F)(F)F)cc2-c2cccc(Cl)c2)cc1

>  <score_type>  (39) 
oracle

>  <origin>  (39) 
adg

>  <m_score__min__energy>  (39) 
-6.2800000000000002

>  <m_primary>  (39) 
energy

$$$$
39:0
     RDKit          3D

 52 55  0  0  0  0  0  0  0  0999 V2000
   58.1760   31.9170   47.5950 C   0  0  0  0  0  0  0  0  0  0  0  0
   58.6260   33.1630   46.8800 C   0  0  0  0  0  0  0  0  0  0  0  0
   59.2320   34.1840   47.6370 C   0  0  0  0  0  0  0  0  0  0  0  0
   59.7170   35.3380   47.0190 C   0  0  0  0  0  0  0  0  0  0  0  0
   59.6030   35.4910   45.6380 C   0  0  0  0  0  0  0  0  0  0  0  0
   58.9860   34.5000   44.8730 C   0  0  0  0  0  0  0  0  0  0  0  0
   58.4690   33.3400   45.4780 C   0  0  0  0  0  0  0  0  0  0  0  0
   57.8000   32.3510   44.6020 C   0  0  0  0  0  0  0  0  0  0  0  0
   57.9330   32.2240   43.2270 C   0  0  0  0  0  0  0  0  0  0  0  0
   57.1640   31.1360   42.8730 C   0  0  0  0  0  0  0  0  0  0  0  0
   56.6210   30.6550   44.0510 C   0  0  0  0  0  0  0  0  0  0  0  0
   55.7240   29.4990   44.2060 C   0  0  0  0  0  0  0  0  0  0  0  0
   54.7480   29.3850   43.4200 O   0  0  0  0  0  0  0  0  0  0  0  0
   55.8880   28.5240   45.2460 N   0  0  0  0  0  0  0  0  0  0  0  0
   56.8740   27.4450   45.2750 C   0  0  0  0  0  0  0  0  0  0  0  0
   56.5120   26.4030   46.3380 C   0  0  0  0  0  0  0  0  0  0  0  0
   57.7180   25.8340   46.9290 N   0  0  0  0  0  0  0  0  0  0  0  0
   59.0460   26.1780   46.5130 C   0  0  0  0  0  0  0  0  0  0  0  0
   59.7170   25.3620   45.8210 O   0  0  0  0  0  0  0  0  0  0  0  0
   59.6270   27.4880   46.8870 C   0  0  0  0  0  0  0  0  0  0  0  0
   60.0370   28.3960   45.8950 C   0  0  0  0  0  0  0  0  0  0  0  0
   60.5990   29.6270   46.2480 C   0  0  0  0  0  0  0  0  0  0  0  0
   60.7580   29.9780   47.6000 C   0  0  0  0  0  0  0  0  0  0  0  0
   61.3560   31.2780   47.9960 C   0  0  0  0  0  0  0  0  0  0  0  0
   62.2930   31.9410   47.1840 C   0  0  0  0  0  0  0  0  0  0  0  0
   62.8440   33.1440   47.6190 C   0  0  0  0  0  0  0  0  0  0  0  0
   62.4530   33.6650   48.8510 C   0  0  0  0  0  0  0  0  0  0  0  0
   62.9370   34.7510   49.2670 O   0  0  0  0  0  0  0  0  0  0  0  0
   61.5480   32.9900   49.6060 N   0  0  0  0  0  0  0  0  0  0  0  0
   61.0210   31.8350   49.1940 N   0  0  0  0  0  0  0  0  0  0  0  0
   60.3210   29.0810   48.5900 C   0  0  0  0  0  0  0  0  0  0  0  0
   59.7720   27.8460   48.2380 C   0  0  0  0  0  0  0  0  0  0  0  0
   57.0120   31.4020   45.0590 O   0  0  0  0  0  0  0  0  0  0  0  0
   58.2337   32.0768   48.6818 H   0  0  0  0  0  0  0  0  0  0  0  0
   57.1380   31.6870   47.3128 H   0  0  0  0  0  0  0  0  0  0  0  0
   58.8275   31.0768   47.3128 H   0  0  0  0  0  0  0  0  0  0  0  0
   59.3243   34.0711   48.7273 H   0  0  0  0  0  0  0  0  0  0  0  0
   60.1895   36.1272   47.6222 H   0  0  0  0  0  0  0  0  0  0  0  0
   59.9998   36.3938   45.1507 H   0  0  0  0  0  0  0  0  0  0  0  0
   58.9030   34.6276   43.7836 H   0  0  0  0  0  0  0  0  0  0  0  0
   58.5295   32.8606   42.5569 H   0  0  0  0  0  0  0  0  0  0  0  0
   57.0130   30.7327   41.8608 H   0  0  0  0  0  0  0  0  0  0  0  0
   56.9045   26.9582   44.2890 H   0  0  0  0  0  0  0  0  0  0  0  0
   57.8567   27.8730   45.5223 H   0  0  0  0  0  0  0  0  0  0  0  0
   55.9146   26.8835   47.1268 H   0  0  0  0  0  0  0  0  0  0  0  0
   55.9348   25.5963   45.8625 H   0  0  0  0  0  0  0  0  0  0  0  0
   59.9148   28.1362   44.8331 H   0  0  0  0  0  0  0  0  0  0  0  0
   60.9192   30.3262   45.4615 H   0  0  0  0  0  0  0  0  0  0  0  0
   62.5881   31.5137   46.2143 H   0  0  0  0  0  0  0  0  0  0  0  0
   63.5790   33.6765   46.9975 H   0  0  0  0  0  0  0  0  0  0  0  0
   60.4122   29.3542   49.6516 H   0  0  0  0  0  0  0  0  0  0  0  0
   59.4505   27.1478   49.0249 H   0  0  0  0  0  0  0  0  0  0  0  0
  1  2  1  0
  2  3  2  0
  3  4  1  0
  4  5  2  0
  5  6  1  0
  6  7  2  0
  7  8  1  0
  8  9  2  0
  9 10  1  0
 10 11  2  0
 11 12  1  0
 12 13  2  0
 12 14  1  0
 14 15  1  0
 15 16  1  0
 16 17  1  0
 17 18  1  0
 18 19  2  0
 18 20  1  0
 20 21  2  0
 21 22  1  0
 22 23  2  0
 23 24  1  0
 24 25  1  0
 25 26  2  0
 26 27  1  0
 27 28  2  0
 27 29  1  0
 29 30  1  0
 23 31  1  0
 31 32  2  0
 11 33  1  0
  7  2  1  0
 33  8  1  0
 32 20  1  0
 30 24  2  0
  1 34  1  0
  1 35  1  0
  1 36  1  0
  3 37  1  0
  4 38  1  0
  5 39  1  0
  6 40  1  0
  9 41  1  0
 10 42  1  0
 15 43  1  0
 15 44  1  0
 16 45  1  0
 16 46  1  0
 21 47  1  0
 22 48  1  0
 25 49  1  0
 26 50  1  0
 31 51  1  0
 32 52  1  0
M  CHG  3  14  -1  17  -1  29  -1
M  END
>  <UniqueID>  (40) 
36

>  <SMILES>  (40) 
Cc1ccccc1-c1ccc(C(=O)[N-]CC[N-]C(=O)c2ccc(-c3ccc(=O)[n-]n3)cc2)o1

>  <Energy>  (40) 
93.16644641477055

>  <Genealogy>  (40) 
Cc1ccccc1-c1ccc(C(=O)[N-]CC[N-]C(=O)c2ccc(-c3ccc(=O)[n-]n3)cc2)o1 (protonated)
Cc1ccccc1-c1ccc(C(=O)[N-]CC[N-]C(=O)c2ccc(-c3ccc(=O)[n-]n3)cc2)o1 (3D coordinates assigned)
Cc1ccccc1-c1ccc(C(=O)[N-]CC[N-]C(=O)c2ccc(-c3ccc(=O)[n-]n3)cc2)o1 (optimized conformer: 93.16644641477055 kcal/mol)

>  <smiles>  (40) 
Cc1ccccc1-c1ccc(C(=O)NCCNC(=O)c2ccc(-c3ccc(=O)[nH]n3)cc2)o1

>  <score_type>  (40) 
oracle

>  <origin>  (40) 
adg

>  <m_score__min__energy>  (40) 
-13.789999999999999

>  <m_primary>  (40) 
energy

$$$$
40:0
     RDKit          3D

 40 40  0  0  0  0  0  0  0  0999 V2000
   63.1060   33.8460   48.5960 C   0  0  0  0  0  0  0  0  0  0  0  0
   61.6920   33.2660   48.7330 C   0  0  0  0  0  0  0  0  0  0  0  0
   60.6080   34.2350   48.4590 N   0  0  0  0  0  0  0  0  0  0  0  0
   59.3430   33.8830   49.1370 C   0  0  0  0  0  0  0  0  0  0  0  0
   59.3720   32.4350   49.6130 C   0  0  0  0  0  0  0  0  0  0  0  0
   60.3790   34.5160   46.7420 S   0  0  0  0  0  0  0  0  0  0  0  0
   61.6500   34.2000   46.0040 O   0  0  0  0  0  0  0  0  0  0  0  0
   60.0310   35.9580   46.4880 O   0  0  0  0  0  0  0  0  0  0  0  0
   59.1120   33.4710   46.1010 C   0  0  0  0  0  0  0  0  0  0  0  0
   59.1940   32.0770   46.2310 C   0  0  0  0  0  0  0  0  0  0  0  0
   58.1880   31.2620   45.7050 C   0  0  0  0  0  0  0  0  0  0  0  0
   57.0820   31.8290   45.0620 C   0  0  0  0  0  0  0  0  0  0  0  0
   56.0800   30.9690   44.5060 N   0  0  0  0  0  0  0  0  0  0  0  0
   56.2240   29.5680   44.2440 C   0  0  0  0  0  0  0  0  0  0  0  0
   55.5450   28.7520   44.9200 O   0  0  0  0  0  0  0  0  0  0  0  0
   57.0430   29.0520   43.0940 C   0  0  0  0  0  0  0  0  0  0  0  0
   58.0100   27.6420   43.6030 S   0  0  0  0  0  0  0  0  0  0  0  0
   57.2710   26.8630   44.9580 N   0  0  0  0  0  0  0  0  0  0  0  0
   59.3970   28.0840   43.9750 O   0  0  0  0  0  0  0  0  0  0  0  0
   58.0940   26.6680   42.4620 O   0  0  0  0  0  0  0  0  0  0  0  0
   57.0160   33.2230   44.9030 C   0  0  0  0  0  0  0  0  0  0  0  0
   58.0210   34.0390   45.4290 C   0  0  0  0  0  0  0  0  0  0  0  0
   63.5295   34.0197   49.5962 H   0  0  0  0  0  0  0  0  0  0  0  0
   63.7419   33.1361   48.0468 H   0  0  0  0  0  0  0  0  0  0  0  0
   63.0602   34.7980   48.0468 H   0  0  0  0  0  0  0  0  0  0  0  0
   61.5929   32.4290   48.0262 H   0  0  0  0  0  0  0  0  0  0  0  0
   61.5791   32.9549   49.7820 H   0  0  0  0  0  0  0  0  0  0  0  0
   59.2013   34.5453   50.0037 H   0  0  0  0  0  0  0  0  0  0  0  0
   58.5139   34.0047   48.4244 H   0  0  0  0  0  0  0  0  0  0  0  0
   59.3725   32.4105   50.7127 H   0  0  0  0  0  0  0  0  0  0  0  0
   58.4843   31.9069   49.2349 H   0  0  0  0  0  0  0  0  0  0  0  0
   60.2802   31.9428   49.2349 H   0  0  0  0  0  0  0  0  0  0  0  0
   60.0525   31.6239   46.7484 H   0  0  0  0  0  0  0  0  0  0  0  0
   58.2660   30.1686   45.7969 H   0  0  0  0  0  0  0  0  0  0  0  0
   56.3713   28.7544   42.2753 H   0  0  0  0  0  0  0  0  0  0  0  0
   57.7229   29.8474   42.7547 H   0  0  0  0  0  0  0  0  0  0  0  0
   57.2440   27.5560   45.7380 H   0  0  0  0  0  0  0  0  0  0  0  0
   56.2800   26.6600   44.6940 H   0  0  0  0  0  0  0  0  0  0  0  0
   56.1705   33.6738   44.3627 H   0  0  0  0  0  0  0  0  0  0  0  0
   57.9557   35.1312   45.3153 H   0  0  0  0  0  0  0  0  0  0  0  0
  1  2  1  0
  2  3  1  0
  3  4  1  0
  4  5  1  0
  3  6  1  0
  6  7  2  0
  6  8  2  0
  6  9  1  0
  9 10  2  0
 10 11  1  0
 11 12  2  0
 12 13  1  0
 13 14  1  0
 14 15  2  0
 14 16  1  0
 16 17  1  0
 17 18  1  0
 17 19  2  0
 17 20  2  0
 12 21  1  0
 21 22  2  0
 22  9  1  0
  1 23  1  0
  1 24  1  0
  1 25  1  0
  2 26  1  0
  2 27  1  0
  4 28  1  0
  4 29  1  0
  5 30  1  0
  5 31  1  0
  5 32  1  0
 10 33  1  0
 11 34  1  0
 16 35  1  0
 16 36  1  0
 18 37  1  0
 18 38  1  0
 21 39  1  0
 22 40  1  0
M  CHG  1  13  -1
M  END
>  <UniqueID>  (41) 
37

>  <SMILES>  (41) 
CCN(CC)S(=O)(=O)c1ccc([N-]C(=O)CS(N)(=O)=O)cc1

>  <Energy>  (41) 
34.798607122123535

>  <Genealogy>  (41) 
CCN(CC)S(=O)(=O)c1ccc([N-]C(=O)CS(N)(=O)=O)cc1 (protonated)
CCN(CC)S(=O)(=O)c1ccc([N-]C(=O)CS(N)(=O)=O)cc1 (3D coordinates assigned)
CCN(CC)S(=O)(=O)c1ccc([N-]C(=O)CS(N)(=O)=O)cc1 (optimized conformer: 34.798607122123535 kcal/mol)

>  <smiles>  (41) 
CCN(CC)S(=O)(=O)c1ccc(NC(=O)CS(N)(=O)=O)cc1

>  <score_type>  (41) 
oracle

>  <origin>  (41) 
adg

>  <m_score__min__energy>  (41) 
-8.8000000000000007

>  <m_primary>  (41) 
energy

$$$$
41:0
     RDKit          3D

 47 50  0  0  0  0  0  0  0  0999 V2000
   56.3289   20.5676   42.3132 H   0  0  0  0  0  0  0  0  0  0  0  0
   56.6930   21.3640   42.9790 C   0  0  0  0  0  0  0  0  0  0  0  0
   57.8920   21.2310   43.6030 N   0  0  0  0  0  0  0  0  0  0  0  0
   58.3680   22.2090   44.4170 C   0  0  0  0  0  0  0  0  0  0  0  0
   59.3318   22.0766   44.9303 H   0  0  0  0  0  0  0  0  0  0  0  0
   57.6340   23.3820   44.6020 C   0  0  0  0  0  0  0  0  0  0  0  0
   58.1020   24.3820   45.5180 N   0  0  0  0  0  0  0  0  0  0  0  0
   58.0090   25.6830   45.4430 C   0  0  0  0  0  0  0  0  0  0  0  0
   59.0290   26.3500   44.8420 N   0  0  0  0  0  0  0  0  0  0  0  0
   59.0950   27.7040   44.8080 C   0  0  0  0  0  0  0  0  0  0  0  0
   59.9347   28.2052   44.3043 H   0  0  0  0  0  0  0  0  0  0  0  0
   58.0860   28.4600   45.4190 C   0  0  0  0  0  0  0  0  0  0  0  0
   58.1160   29.9460   45.4400 C   0  0  0  0  0  0  0  0  0  0  0  0
   57.7320   30.6710   44.2970 C   0  0  0  0  0  0  0  0  0  0  0  0
   57.4177   30.1327   43.3907 H   0  0  0  0  0  0  0  0  0  0  0  0
   57.7460   32.0680   44.3020 C   0  0  0  0  0  0  0  0  0  0  0  0
   57.4385   32.6213   43.4024 H   0  0  0  0  0  0  0  0  0  0  0  0
   58.1500   32.7690   45.4480 C   0  0  0  0  0  0  0  0  0  0  0  0
   58.1290   34.2690   45.4640 C   0  0  0  0  0  0  0  0  0  0  0  0
   57.3392   34.6185   46.1453 H   0  0  0  0  0  0  0  0  0  0  0  0
   57.9283   34.6462   44.4504 H   0  0  0  0  0  0  0  0  0  0  0  0
   59.4230   34.7630   45.9230 N   0  0  0  0  0  0  0  0  0  0  0  0
   59.9270   34.6200   47.2580 C   0  0  0  0  0  0  0  0  0  0  0  0
   59.2000   34.9800   48.2200 O   0  0  0  0  0  0  0  0  0  0  0  0
   61.2810   34.1030   47.5360 C   0  0  0  0  0  0  0  0  0  0  0  0
   61.7270   33.9240   48.8570 C   0  0  0  0  0  0  0  0  0  0  0  0
   61.0583   34.1599   49.6979 H   0  0  0  0  0  0  0  0  0  0  0  0
   63.0180   33.4470   49.1060 C   0  0  0  0  0  0  0  0  0  0  0  0
   63.3582   33.2984   50.1414 H   0  0  0  0  0  0  0  0  0  0  0  0
   63.8760   33.1590   48.0420 C   0  0  0  0  0  0  0  0  0  0  0  0
   64.8885   32.7772   48.2397 H   0  0  0  0  0  0  0  0  0  0  0  0
   63.4480   33.3560   46.7260 C   0  0  0  0  0  0  0  0  0  0  0  0
   64.1265   33.1356   45.8887 H   0  0  0  0  0  0  0  0  0  0  0  0
   62.1580   33.8330   46.4730 C   0  0  0  0  0  0  0  0  0  0  0  0
   61.8287   33.9975   45.4364 H   0  0  0  0  0  0  0  0  0  0  0  0
   58.5080   32.0530   46.5990 C   0  0  0  0  0  0  0  0  0  0  0  0
   58.8018   32.5946   47.5102 H   0  0  0  0  0  0  0  0  0  0  0  0
   58.4940   30.6550   46.5960 C   0  0  0  0  0  0  0  0  0  0  0  0
   58.7807   30.1046   47.5042 H   0  0  0  0  0  0  0  0  0  0  0  0
   57.0250   27.8030   45.9580 N   0  0  0  0  0  0  0  0  0  0  0  0
   56.9320   26.4450   45.9750 C   0  0  0  0  0  0  0  0  0  0  0  0
   55.6880   25.8600   46.3760 N   0  0  0  0  0  0  0  0  0  0  0  0
   54.6210   26.3290   45.9310 O   0  0  0  0  0  0  0  0  0  0  0  0
   55.6770   24.6020   46.9320 O   0  0  0  0  0  0  0  0  0  0  0  0
   56.3810   23.4800   43.9820 C   0  0  0  0  0  0  0  0  0  0  0  0
   55.7527   24.3674   44.1483 H   0  0  0  0  0  0  0  0  0  0  0  0
   55.9430   22.4790   43.1760 N   0  0  0  0  0  0  0  0  0  0  0  0
  1  2  1  0
  2  3  2  0
  3  4  1  0
  4  5  1  0
  4  6  2  0
  6  7  1  0
  7  8  2  0
  8  9  1  0
  9 10  1  0
 10 11  1  0
 10 12  2  0
 12 13  1  0
 13 14  2  0
 14 15  1  0
 14 16  1  0
 16 17  1  0
 16 18  2  0
 18 19  1  0
 19 20  1  0
 19 21  1  0
 19 22  1  0
 22 23  1  0
 23 24  2  0
 23 25  1  0
 25 26  2  0
 26 27  1  0
 26 28  1  0
 28 29  1  0
 28 30  2  0
 30 31  1  0
 30 32  1  0
 32 33  1  0
 32 34  2  0
 34 35  1  0
 18 36  1  0
 36 37  1  0
 36 38  2  0
 38 39  1  0
 12 40  1  0
 40 41  2  0
 41 42  1  0
 42 43  2  0
 42 44  1  0
  6 45  1  0
 45 46  1  0
 45 47  2  0
 47  2  1  0
 41  8  1  0
 38 13  1  0
 34 25  1  0
M  CHG  4   9  -1  22  -1  42   1  44  -1
M  END
>  <UniqueID>  (42) 
38

>  <SMILES>  (42) 
O=C([N-]Cc1ccc(-c2c[n-]/c(=N/c3cncnc3)c([N+](=O)[O-])n2)cc1)c1ccccc1

>  <Energy>  (42) 
81.75284429734964

>  <Genealogy>  (42) 
O=C([N-]Cc1ccc(-c2c[n-]c(=Nc3cncnc3)c([N+](=O)[O-])n2)cc1)c1ccccc1 (protonated)
O=C([N-]Cc1ccc(-c2c[n-]/c(=N/c3cncnc3)c([N+](=O)[O-])n2)cc1)c1ccccc1 (cis-trans isomerization)
O=C([N-]Cc1ccc(-c2c[n-]/c(=N/c3cncnc3)c([N+](=O)[O-])n2)cc1)c1ccccc1 (3D coordinates assigned)
O=C([N-]Cc1ccc(-c2c[n-]/c(=N/c3cncnc3)c([N+](=O)[O-])n2)cc1)c1ccccc1 (optimized conformer: 81.75284429734964 kcal/mol)

>  <smiles>  (42) 
O=C(NCc1ccc(-c2c[nH]c(=Nc3cncnc3)c([N+](=O)[O-])n2)cc1)c1ccccc1

>  <score_type>  (42) 
oracle

>  <origin>  (42) 
adg

>  <m_score__min__energy>  (42) 
-12.59

>  <m_primary>  (42) 
energy

$$$$
42:0
     RDKit          3D

 60 63  0  0  0  0  0  0  0  0999 V2000
   61.9030   33.8500   50.5610 C   0  0  0  0  0  0  0  0  0  0  0  0
   61.5260   34.4440   49.3220 O   0  0  0  0  0  0  0  0  0  0  0  0
   60.6420   33.8660   48.3970 C   0  0  0  0  0  0  0  0  0  0  0  0
   59.2970   33.6000   48.7200 C   0  0  0  0  0  0  0  0  0  0  0  0
   58.4430   33.0290   47.7750 C   0  0  0  0  0  0  0  0  0  0  0  0
   58.9130   32.7110   46.4990 C   0  0  0  0  0  0  0  0  0  0  0  0
   57.8110   32.0150   45.3130 S   0  0  0  0  0  0  0  0  0  0  0  0
   58.3390   32.3070   43.9360 O   0  0  0  0  0  0  0  0  0  0  0  0
   56.4470   32.6350   45.4470 O   0  0  0  0  0  0  0  0  0  0  0  0
   57.7080   30.2900   45.5560 N   0  0  0  0  0  0  0  0  0  0  0  0
   58.1310   29.5840   44.3380 C   0  0  0  0  0  0  0  0  0  0  0  0
   57.7720   28.1020   44.4750 C   0  0  0  0  0  0  0  0  0  0  0  0
   57.9950   27.6340   45.8490 N   0  0  0  0  0  0  0  0  0  0  0  0
   57.5030   26.3400   46.2440 C   0  0  0  0  0  0  0  0  0  0  0  0
   58.2780   25.2280   46.5360 C   0  0  0  0  0  0  0  0  0  0  0  0
   57.3800   24.2110   46.7930 C   0  0  0  0  0  0  0  0  0  0  0  0
   57.7320   22.9050   47.1150 O   0  0  0  0  0  0  0  0  0  0  0  0
   56.1060   24.6410   46.6730 N   0  0  0  0  0  0  0  0  0  0  0  0
   54.8950   23.8270   46.7740 C   0  0  0  0  0  0  0  0  0  0  0  0
   54.1720   23.7880   45.4260 C   0  0  0  0  0  0  0  0  0  0  0  0
   52.7180   23.4530   45.6130 C   0  0  0  0  0  0  0  0  0  0  0  0
   51.7490   23.9950   44.7510 C   0  0  0  0  0  0  0  0  0  0  0  0
   50.3950   23.7060   44.9450 C   0  0  0  0  0  0  0  0  0  0  0  0
   49.9980   22.8830   46.0030 C   0  0  0  0  0  0  0  0  0  0  0  0
   50.9540   22.3530   46.8730 C   0  0  0  0  0  0  0  0  0  0  0  0
   52.3100   22.6380   46.6830 C   0  0  0  0  0  0  0  0  0  0  0  0
   56.1800   25.9360   46.3120 C   0  0  0  0  0  0  0  0  0  0  0  0
   55.0720   26.7160   45.9990 O   0  0  0  0  0  0  0  0  0  0  0  0
   58.8950   28.3970   46.7220 C   0  0  0  0  0  0  0  0  0  0  0  0
   58.5300   29.8970   46.7230 C   0  0  0  0  0  0  0  0  0  0  0  0
   60.2480   32.9750   46.1660 C   0  0  0  0  0  0  0  0  0  0  0  0
   61.1180   33.5440   47.1110 C   0  0  0  0  0  0  0  0  0  0  0  0
   62.5460   33.8330   46.7400 C   0  0  0  0  0  0  0  0  0  0  0  0
   61.5168   34.4586   51.3919 H   0  0  0  0  0  0  0  0  0  0  0  0
   61.4833   32.8351   50.6238 H   0  0  0  0  0  0  0  0  0  0  0  0
   63.0000   33.7977   50.6238 H   0  0  0  0  0  0  0  0  0  0  0  0
   58.9173   33.8438   49.7232 H   0  0  0  0  0  0  0  0  0  0  0  0
   57.3937   32.8283   48.0369 H   0  0  0  0  0  0  0  0  0  0  0  0
   57.6141   30.0102   43.4656 H   0  0  0  0  0  0  0  0  0  0  0  0
   59.2169   29.6937   44.2013 H   0  0  0  0  0  0  0  0  0  0  0  0
   56.7125   27.9625   44.2144 H   0  0  0  0  0  0  0  0  0  0  0  0
   58.4140   27.5206   43.7970 H   0  0  0  0  0  0  0  0  0  0  0  0
   59.3762   25.1685   46.5582 H   0  0  0  0  0  0  0  0  0  0  0  0
   55.1686   22.8034   47.0696 H   0  0  0  0  0  0  0  0  0  0  0  0
   54.2267   24.2689   47.5277 H   0  0  0  0  0  0  0  0  0  0  0  0
   54.2566   24.7722   44.9421 H   0  0  0  0  0  0  0  0  0  0  0  0
   54.6358   23.0132   44.7979 H   0  0  0  0  0  0  0  0  0  0  0  0
   52.0569   24.6484   43.9214 H   0  0  0  0  0  0  0  0  0  0  0  0
   49.6407   24.1269   44.2639 H   0  0  0  0  0  0  0  0  0  0  0  0
   48.9326   22.6527   46.1505 H   0  0  0  0  0  0  0  0  0  0  0  0
   50.6397   21.7105   47.7088 H   0  0  0  0  0  0  0  0  0  0  0  0
   53.0595   22.2231   47.3730 H   0  0  0  0  0  0  0  0  0  0  0  0
   58.8160   28.0075   47.7477 H   0  0  0  0  0  0  0  0  0  0  0  0
   59.9225   28.2880   46.3448 H   0  0  0  0  0  0  0  0  0  0  0  0
   57.9664   30.1206   47.6408 H   0  0  0  0  0  0  0  0  0  0  0  0
   59.4701   30.4658   46.6716 H   0  0  0  0  0  0  0  0  0  0  0  0
   60.6174   32.7352   45.1580 H   0  0  0  0  0  0  0  0  0  0  0  0
   63.1451   33.9542   47.6545 H   0  0  0  0  0  0  0  0  0  0  0  0
   62.9470   32.9978   46.1470 H   0  0  0  0  0  0  0  0  0  0  0  0
   62.5907   34.7584   46.1470 H   0  0  0  0  0  0  0  0  0  0  0  0
  1  2  1  0
  2  3  1  0
  3  4  2  0
  4  5  1  0
  5  6  2  0
  6  7  1  0
  7  8  2  0
  7  9  2  0
  7 10  1  0
 10 11  1  0
 11 12  1  0
 12 13  1  0
 13 14  1  0
 14 15  1  0
 15 16  2  0
 16 17  1  0
 16 18  1  0
 18 19  1  0
 19 20  1  0
 20 21  1  0
 21 22  2  0
 22 23  1  0
 23 24  2  0
 24 25  1  0
 25 26  2  0
 18 27  1  0
 27 28  1  0
 13 29  1  0
 29 30  1  0
  6 31  1  0
 31 32  2  0
 32 33  1  0
 32  3  1  0
 30 10  1  0
 27 14  2  0
 26 21  1  0
  1 34  1  0
  1 35  1  0
  1 36  1  0
  4 37  1  0
  5 38  1  0
 11 39  1  0
 11 40  1  0
 12 41  1  0
 12 42  1  0
 15 43  1  0
 19 44  1  0
 19 45  1  0
 20 46  1  0
 20 47  1  0
 22 48  1  0
 23 49  1  0
 24 50  1  0
 25 51  1  0
 26 52  1  0
 29 53  1  0
 29 54  1  0
 30 55  1  0
 30 56  1  0
 31 57  1  0
 33 58  1  0
 33 59  1  0
 33 60  1  0
M  CHG  2  17  -1  28  -1
M  END
>  <UniqueID>  (43) 
39

>  <SMILES>  (43) 
COc1ccc(S(=O)(=O)N2CCN(c3cc([O-])n(CCc4ccccc4)c3[O-])CC2)cc1C

>  <Energy>  (43) 
94.62359283794339

>  <Genealogy>  (43) 
COc1ccc(S(=O)(=O)N2CCN(c3cc([O-])n(CCc4ccccc4)c3[O-])CC2)cc1C (protonated)
COc1ccc(S(=O)(=O)N2CCN(c3cc([O-])n(CCc4ccccc4)c3[O-])CC2)cc1C (3D coordinates assigned)
COc1ccc(S(=O)(=O)N2CCN(c3cc([O-])n(CCc4ccccc4)c3[O-])CC2)cc1C (nonaromatic ring conformer: 94.62359283794339 kcal/mol)

>  <smiles>  (43) 
COc1ccc(S(=O)(=O)N2CCN(c3cc(O)n(CCc4ccccc4)c3O)CC2)cc1C

>  <score_type>  (43) 
oracle

>  <origin>  (43) 
adg

>  <m_score__min__energy>  (43) 
-15.06

>  <m_primary>  (43) 
energy

$$$$
43:0
     RDKit          3D

 47 51  0  0  0  0  0  0  0  0999 V2000
   58.8650   33.8380   44.1180 C   0  0  0  0  0  0  0  0  0  0  0  0
   58.2920   33.3200   45.4450 C   0  0  2  0  0  0  0  0  0  0  0  0
   59.2910   33.4640   46.5750 C   0  0  0  0  0  0  0  0  0  0  0  0
   58.8410   33.7550   47.8750 C   0  0  0  0  0  0  0  0  0  0  0  0
   59.7480   33.8830   48.9300 C   0  0  0  0  0  0  0  0  0  0  0  0
   61.1220   33.7220   48.7040 C   0  0  0  0  0  0  0  0  0  0  0  0
   62.0400   33.8470   49.7590 C   0  0  0  0  0  0  0  0  0  0  0  0
   63.4130   33.6860   49.5250 C   0  0  0  0  0  0  0  0  0  0  0  0
   64.3450   33.8130   50.6020 N   0  0  0  0  0  0  0  0  0  0  0  0
   63.8680   33.3990   48.2310 C   0  0  0  0  0  0  0  0  0  0  0  0
   62.9620   33.2720   47.1740 C   0  0  0  0  0  0  0  0  0  0  0  0
   61.5870   33.4320   47.4010 C   0  0  0  0  0  0  0  0  0  0  0  0
   60.6700   33.3050   46.3460 C   0  0  0  0  0  0  0  0  0  0  0  0
   57.8330   31.9300   45.3400 N   0  0  0  0  0  0  0  0  0  0  0  0
   58.3310   30.8380   45.9520 C   0  0  0  0  0  0  0  0  0  0  0  0
   57.5040   29.7860   45.6070 C   0  0  0  0  0  0  0  0  0  0  0  0
   57.6130   28.3690   46.0290 C   0  0  0  0  0  0  0  0  0  0  0  0
   58.7000   27.9560   46.8200 C   0  0  0  0  0  0  0  0  0  0  0  0
   58.8270   26.6190   47.2100 C   0  0  0  0  0  0  0  0  0  0  0  0
   57.8690   25.6780   46.8230 C   0  0  0  0  0  0  0  0  0  0  0  0
   56.7520   26.0900   46.0740 C   0  0  0  0  0  0  0  0  0  0  0  0
   56.6390   27.4220   45.6620 C   0  0  0  0  0  0  0  0  0  0  0  0
   55.4190   24.9340   45.7120 S   0  0  0  0  0  0  0  0  0  0  0  0
   56.5330   23.5780   45.2370 C   0  0  0  0  0  0  0  0  0  0  0  0
   57.4200   23.2480   46.4000 C   0  0  0  0  0  0  0  0  0  0  0  0
   57.6200   22.0470   46.7210 O   0  0  0  0  0  0  0  0  0  0  0  0
   58.0850   24.2930   47.1150 N   0  0  0  0  0  0  0  0  0  0  0  0
   56.5290   30.2690   44.8110 N   0  0  0  0  0  0  0  0  0  0  0  0
   56.7500   31.5690   44.6710 N   0  0  0  0  0  0  0  0  0  0  0  0
   59.6667   34.5628   44.3228 H   0  0  0  0  0  0  0  0  0  0  0  0
   59.2717   32.9949   43.5402 H   0  0  0  0  0  0  0  0  0  0  0  0
   58.0671   34.3274   43.5402 H   0  0  0  0  0  0  0  0  0  0  0  0
   57.4172   33.9456   45.6759 H   0  0  0  0  0  0  0  0  0  0  0  0
   57.7648   33.8831   48.0631 H   0  0  0  0  0  0  0  0  0  0  0  0
   59.3824   34.1110   49.9421 H   0  0  0  0  0  0  0  0  0  0  0  0
   61.6803   34.0723   50.7738 H   0  0  0  0  0  0  0  0  0  0  0  0
   65.3130   33.4290   50.5200 H   0  0  0  0  0  0  0  0  0  0  0  0
   64.0760   34.2930   51.4890 H   0  0  0  0  0  0  0  0  0  0  0  0
   64.9449   33.2728   48.0458 H   0  0  0  0  0  0  0  0  0  0  0  0
   63.3283   33.0460   46.1617 H   0  0  0  0  0  0  0  0  0  0  0  0
   61.0324   33.0794   45.3322 H   0  0  0  0  0  0  0  0  0  0  0  0
   59.2199   30.7927   46.5984 H   0  0  0  0  0  0  0  0  0  0  0  0
   59.4562   28.6903   47.1344 H   0  0  0  0  0  0  0  0  0  0  0  0
   59.6846   26.3067   47.8240 H   0  0  0  0  0  0  0  0  0  0  0  0
   55.7818   27.7317   45.0461 H   0  0  0  0  0  0  0  0  0  0  0  0
   55.9408   22.6929   44.9615 H   0  0  0  0  0  0  0  0  0  0  0  0
   57.1457   23.8833   44.3759 H   0  0  0  0  0  0  0  0  0  0  0  0
  1  2  1  0
  2  3  1  0
  3  4  2  0
  4  5  1  0
  5  6  2  0
  6  7  1  0
  7  8  2  0
  8  9  1  0
  8 10  1  0
 10 11  2  0
 11 12  1  0
 12 13  2  0
  2 14  1  0
 14 15  1  0
 15 16  2  0
 16 17  1  0
 17 18  2  0
 18 19  1  0
 19 20  2  0
 20 21  1  0
 21 22  2  0
 21 23  1  0
 23 24  1  0
 24 25  1  0
 25 26  2  0
 25 27  1  0
 16 28  1  0
 28 29  2  0
 13  3  1  0
 29 14  1  0
 12  6  1  0
 22 17  1  0
 27 20  1  0
  1 30  1  0
  1 31  1  0
  1 32  1  0
  2 33  1  1
  4 34  1  0
  5 35  1  0
  7 36  1  0
  9 37  1  0
  9 38  1  0
 10 39  1  0
 11 40  1  0
 13 41  1  0
 15 42  1  0
 18 43  1  0
 19 44  1  0
 22 45  1  0
 24 46  1  0
 24 47  1  0
M  CHG  1  27  -1
M  END
>  <UniqueID>  (44) 
40

>  <SMILES>  (44) 
C[C@H](c1ccc2cc(N)ccc2c1)n1cc(-c2ccc3c(c2)SCC(=O)[N-]3)nn1

>  <Energy>  (44) 
94.34657052847831

>  <Genealogy>  (44) 
CC(c1ccc2cc(N)ccc2c1)n1cc(-c2ccc3c(c2)SCC(=O)[N-]3)nn1 (protonated)
C[C@H](c1ccc2cc(N)ccc2c1)n1cc(-c2ccc3c(c2)SCC(=O)[N-]3)nn1 (chirality)
C[C@H](c1ccc2cc(N)ccc2c1)n1cc(-c2ccc3c(c2)SCC(=O)[N-]3)nn1 (3D coordinates assigned)
C[C@H](c1ccc2cc(N)ccc2c1)n1cc(-c2ccc3c(c2)SCC(=O)[N-]3)nn1 (nonaromatic ring conformer: 94.34657052847831 kcal/mol)

>  <smiles>  (44) 
CC(c1ccc2cc(N)ccc2c1)n1cc(-c2ccc3c(c2)SCC(=O)N3)nn1

>  <score_type>  (44) 
oracle

>  <origin>  (44) 
adg

>  <m_score__min__energy>  (44) 
-11.529999999999999

>  <m_primary>  (44) 
energy

$$$$
44:0
     RDKit          3D

 19 19  0  0  0  0  0  0  0  0999 V2000
   54.0220   26.3560   53.1690 N   0  0  0  0  0  0  0  0  0  0  0  0
   54.5820   27.8750   53.7760 S   0  0  0  0  0  0  0  0  0  0  0  0
   56.0220   28.0720   53.3940 O   0  0  0  0  0  0  0  0  0  0  0  0
   54.4760   27.8840   55.2750 O   0  0  0  0  0  0  0  0  0  0  0  0
   53.6030   29.1720   53.0990 C   0  0  0  0  0  0  0  0  0  0  0  0
   52.2100   29.1540   53.2430 C   0  0  0  0  0  0  0  0  0  0  0  0
   51.4320   30.1780   52.6950 C   0  0  0  0  0  0  0  0  0  0  0  0
   52.0380   31.2340   51.9890 C   0  0  0  0  0  0  0  0  0  0  0  0
   51.2190   32.3200   51.4080 C   0  0  0  0  0  0  0  0  0  0  0  0
   50.3560   32.9170   52.1050 O   0  0  0  0  0  0  0  0  0  0  0  0
   51.3930   32.6990   50.0810 O   0  0  0  0  0  0  0  0  0  0  0  0
   53.4360   31.2410   51.8430 C   0  0  0  0  0  0  0  0  0  0  0  0
   54.2120   30.2160   52.3920 C   0  0  0  0  0  0  0  0  0  0  0  0
   53.3940   26.5610   52.3620 H   0  0  0  0  0  0  0  0  0  0  0  0
   53.4260   25.9300   53.9150 H   0  0  0  0  0  0  0  0  0  0  0  0
   51.7263   28.3309   53.7894 H   0  0  0  0  0  0  0  0  0  0  0  0
   50.3389   30.1583   52.8164 H   0  0  0  0  0  0  0  0  0  0  0  0
   53.9232   32.0593   51.2925 H   0  0  0  0  0  0  0  0  0  0  0  0
   55.3049   30.2296   52.2681 H   0  0  0  0  0  0  0  0  0  0  0  0
  1  2  1  0
  2  3  2  0
  2  4  2  0
  2  5  1  0
  5  6  2  0
  6  7  1  0
  7  8  2  0
  8  9  1  0
  9 10  2  0
  9 11  1  0
  8 12  1  0
 12 13  2  0
 13  5  1  0
  1 14  1  0
  1 15  1  0
  6 16  1  0
  7 17  1  0
 12 18  1  0
 13 19  1  0
M  CHG  1  11  -1
M  END
>  <UniqueID>  (45) 
41

>  <SMILES>  (45) 
NS(=O)(=O)c1ccc(C(=O)[O-])cc1

>  <Energy>  (45) 
16.914703516956248

>  <Genealogy>  (45) 
NS(=O)(=O)c1ccc(C(=O)[O-])cc1 (protonated)
NS(=O)(=O)c1ccc(C(=O)[O-])cc1 (3D coordinates assigned)
NS(=O)(=O)c1ccc(C(=O)[O-])cc1 (optimized conformer: 16.914703516956248 kcal/mol)

>  <smiles>  (45) 
NS(=O)(=O)c1ccc(C(=O)O)cc1

>  <score_type>  (45) 
oracle

>  <origin>  (45) 
adg

>  <m_score__min__energy>  (45) 
-8.5700000000000003

>  <m_primary>  (45) 
energy

$$$$
45:0
     RDKit          3D

 36 38  0  0  0  0  0  0  0  0999 V2000
   59.4020   35.6690   46.7230 N   0  0  0  0  0  0  0  0  0  0  0  0
   59.0720   34.5270   47.5720 C   0  0  0  0  0  0  0  0  0  0  0  0
   58.7600   33.3070   46.7440 C   0  0  0  0  0  0  0  0  0  0  0  0
   59.0720   32.0270   47.2240 C   0  0  0  0  0  0  0  0  0  0  0  0
   58.8130   30.8970   46.4430 C   0  0  0  0  0  0  0  0  0  0  0  0
   58.2340   31.0300   45.1710 C   0  0  0  0  0  0  0  0  0  0  0  0
   57.9690   29.8150   44.3200 C   0  0  0  0  0  0  0  0  0  0  0  0
   58.5030   28.6060   44.9530 N   0  0  0  0  0  0  0  0  0  0  0  0
   59.8160   28.2830   45.0310 C   0  0  0  0  0  0  0  0  0  0  0  0
   59.9840   27.0470   45.6420 C   0  0  0  0  0  0  0  0  0  0  0  0
   58.7110   26.6140   45.9390 C   0  0  0  0  0  0  0  0  0  0  0  0
   58.2910   25.4350   46.5480 C   0  0  0  0  0  0  0  0  0  0  0  0
   56.9050   25.2310   46.7300 C   0  0  0  0  0  0  0  0  0  0  0  0
   56.4070   23.9950   47.3710 C   0  0  0  0  0  0  0  0  0  0  0  0
   55.1710   23.7640   47.4440 O   0  0  0  0  0  0  0  0  0  0  0  0
   57.2970   23.0690   47.9030 O   0  0  0  0  0  0  0  0  0  0  0  0
   55.9910   26.2240   46.2920 C   0  0  0  0  0  0  0  0  0  0  0  0
   56.4470   27.4060   45.6800 C   0  0  0  0  0  0  0  0  0  0  0  0
   55.5350   28.3680   45.2670 O   0  0  0  0  0  0  0  0  0  0  0  0
   57.8280   27.5740   45.5120 C   0  0  0  0  0  0  0  0  0  0  0  0
   57.9530   32.3160   44.6780 C   0  0  0  0  0  0  0  0  0  0  0  0
   58.2130   33.4450   45.4590 C   0  0  0  0  0  0  0  0  0  0  0  0
   60.4400   35.7910   46.7100 H   0  0  0  0  0  0  0  0  0  0  0  0
   58.9870   36.5330   47.1450 H   0  0  0  0  0  0  0  0  0  0  0  0
   59.9279   34.3072   48.2271 H   0  0  0  0  0  0  0  0  0  0  0  0
   58.1834   34.7807   48.1686 H   0  0  0  0  0  0  0  0  0  0  0  0
   59.5230   31.9115   48.2206 H   0  0  0  0  0  0  0  0  0  0  0  0
   59.0644   29.8975   46.8274 H   0  0  0  0  0  0  0  0  0  0  0  0
   56.8835   29.7006   44.1838 H   0  0  0  0  0  0  0  0  0  0  0  0
   58.4662   29.9516   43.3483 H   0  0  0  0  0  0  0  0  0  0  0  0
   60.6376   28.9138   44.6608 H   0  0  0  0  0  0  0  0  0  0  0  0
   60.9311   26.5257   45.8451 H   0  0  0  0  0  0  0  0  0  0  0  0
   59.0201   24.6809   46.8793 H   0  0  0  0  0  0  0  0  0  0  0  0
   54.9113   26.0676   46.4328 H   0  0  0  0  0  0  0  0  0  0  0  0
   57.5258   32.4343   43.6713 H   0  0  0  0  0  0  0  0  0  0  0  0
   57.9878   34.4469   45.0647 H   0  0  0  0  0  0  0  0  0  0  0  0
  1  2  1  0
  2  3  1  0
  3  4  2  0
  4  5  1  0
  5  6  2  0
  6  7  1  0
  7  8  1  0
  8  9  1  0
  9 10  2  0
 10 11  1  0
 11 12  2  0
 12 13  1  0
 13 14  1  0
 14 15  2  0
 14 16  1  0
 13 17  2  0
 17 18  1  0
 18 19  1  0
 18 20  2  0
  6 21  1  0
 21 22  2  0
 22  3  1  0
 20  8  1  0
 20 11  1  0
  1 23  1  0
  1 24  1  0
  2 25  1  0
  2 26  1  0
  4 27  1  0
  5 28  1  0
  7 29  1  0
  7 30  1  0
  9 31  1  0
 10 32  1  0
 12 33  1  0
 17 34  1  0
 21 35  1  0
 22 36  1  0
M  CHG  2  16  -1  19  -1
M  END
>  <UniqueID>  (46) 
42

>  <SMILES>  (46) 
NCc1ccc(Cn2ccc3cc(C(=O)[O-])cc([O-])c32)cc1

>  <Energy>  (46) 
71.30992545970938

>  <Genealogy>  (46) 
NCc1ccc(Cn2ccc3cc(C(=O)[O-])cc([O-])c32)cc1 (protonated)
NCc1ccc(Cn2ccc3cc(C(=O)[O-])cc([O-])c32)cc1 (3D coordinates assigned)
NCc1ccc(Cn2ccc3cc(C(=O)[O-])cc([O-])c32)cc1 (optimized conformer: 71.30992545970938 kcal/mol)

>  <smiles>  (46) 
NCc1ccc(Cn2ccc3cc(C(=O)O)cc(O)c32)cc1

>  <score_type>  (46) 
oracle

>  <origin>  (46) 
adg

>  <m_score__min__energy>  (46) 
-12.18

>  <m_primary>  (46) 
energy

$$$$
46:0
     RDKit          3D

 50 53  0  0  1  0  0  0  0  0999 V2000
   54.8910   30.0640   54.3120 N   0  0  0  0  0  0  0  0  0  0  0  0
   53.8600   29.8740   53.3470 C   0  0  0  0  0  0  0  0  0  0  0  0
   52.7610   29.0600   53.6320 C   0  0  0  0  0  0  0  0  0  0  0  0
   51.7720   28.8850   52.6870 C   0  0  0  0  0  0  0  0  0  0  0  0
   51.8450   29.5040   51.4500 C   0  0  0  0  0  0  0  0  0  0  0  0
   52.9210   30.3050   51.1620 C   0  0  0  0  0  0  0  0  0  0  0  0
   53.9210   30.4930   52.0940 C   0  0  0  0  0  0  0  0  0  0  0  0
   55.0580   31.3070   51.8580 N   0  0  0  0  0  0  0  0  0  0  0  0
   56.3760   30.7810   51.8560 C   0  0  0  0  0  0  0  0  0  0  0  0
   56.5490   29.5530   52.0670 O   0  0  0  0  0  0  0  0  0  0  0  0
   57.5650   31.5930   51.6170 C   0  0  0  0  0  0  0  0  0  0  0  0
   58.4400   31.1760   50.6360 C   0  0  0  0  0  0  0  0  0  0  0  0
   59.5860   31.9310   50.3840 C   0  0  0  0  0  0  0  0  0  0  0  0
   59.8720   33.0850   51.0870 C   0  0  0  0  0  0  0  0  0  0  0  0
   61.0350   33.8670   50.8440 N   0  0  0  0  0  0  0  0  0  0  0  0
   61.7830   33.6590   49.8110 C   0  0  0  0  0  0  0  0  0  0  0  0
   63.0130   33.1030   49.9240 N   0  0  0  0  0  0  0  0  0  0  0  0
   63.7170   32.9240   48.7910 C   0  0  0  0  0  0  0  0  0  0  0  0
   63.2460   33.2780   47.5420 C   0  0  0  0  0  0  0  0  0  0  0  0
   63.9500   33.1020   46.4030 F   0  0  0  0  0  0  0  0  0  0  0  0
   61.9870   33.8410   47.4810 C   0  0  0  0  0  0  0  0  0  0  0  0
   61.4460   34.2100   46.3680 N   0  0  0  0  0  0  0  0  0  0  0  0
   60.1060   33.8370   46.0680 C   0  0  0  0  0  0  0  0  0  0  0  0
   59.2420   34.6880   45.3700 C   0  0  0  0  0  0  0  0  0  0  0  0
   57.9520   34.2790   45.1040 C   0  0  0  0  0  0  0  0  0  0  0  0
   57.5370   33.0400   45.5310 C   0  0  0  0  0  0  0  0  0  0  0  0
   56.2630   32.6810   45.2470 F   0  0  0  0  0  0  0  0  0  0  0  0
   58.3500   32.1760   46.2160 C   0  0  0  0  0  0  0  0  0  0  0  0
   59.6580   32.5800   46.4900 C   0  0  0  0  0  0  0  0  0  0  0  0
   61.2680   34.0260   48.6140 N   0  0  0  0  0  0  0  0  0  0  0  0
   58.9890   33.4900   52.0650 C   0  0  0  0  0  0  0  0  0  0  0  0
   57.8480   32.7450   52.3210 C   0  0  0  0  0  0  0  0  0  0  0  0
   55.8890   29.8300   54.1010 H   0  0  0  0  0  0  0  0  0  0  0  0
   54.6970   30.4450   55.2670 H   0  0  0  0  0  0  0  0  0  0  0  0
   52.6847   28.5595   54.6086 H   0  0  0  0  0  0  0  0  0  0  0  0
   50.9100   28.2425   52.9197 H   0  0  0  0  0  0  0  0  0  0  0  0
   51.0484   29.3549   50.7062 H   0  0  0  0  0  0  0  0  0  0  0  0
   52.9869   30.8004   50.1821 H   0  0  0  0  0  0  0  0  0  0  0  0
   54.9040   32.3230   51.6840 H   0  0  0  0  0  0  0  0  0  0  0  0
   58.2373   30.2609   50.0602 H   0  0  0  0  0  0  0  0  0  0  0  0
   60.2831   31.5969   49.6014 H   0  0  0  0  0  0  0  0  0  0  0  0
   63.3560   32.8410   50.8570 H   0  0  0  0  0  0  0  0  0  0  0  0
   64.7177   32.4731   48.8635 H   0  0  0  0  0  0  0  0  0  0  0  0
   59.5894   35.6767   45.0356 H   0  0  0  0  0  0  0  0  0  0  0  0
   57.2622   34.9375   44.5558 H   0  0  0  0  0  0  0  0  0  0  0  0
   57.9825   31.1915   46.5411 H   0  0  0  0  0  0  0  0  0  0  0  0
   60.3369   31.9100   47.0379 H   0  0  0  0  0  0  0  0  0  0  0  0
   60.3060   34.4580   48.5450 H   0  0  0  0  0  0  0  0  0  0  0  0
   59.1896   34.4045   52.6425 H   0  0  0  0  0  0  0  0  0  0  0  0
   57.1520   33.0805   53.1040 H   0  0  0  0  0  0  0  0  0  0  0  0
  1  2  1  0
  2  3  2  0
  3  4  1  0
  4  5  2  0
  5  6  1  0
  6  7  2  0
  7  8  1  0
  8  9  1  0
  9 10  2  0
  9 11  1  0
 11 12  2  0
 12 13  1  0
 13 14  2  0
 14 15  1  0
 15 16  2  0
 16 17  1  0
 17 18  1  0
 18 19  2  0
 19 20  1  0
 19 21  1  0
 21 22  2  0
 22 23  1  0
 23 24  2  0
 24 25  1  0
 25 26  2  0
 26 27  1  0
 26 28  1  0
 28 29  2  0
 21 30  1  0
 14 31  1  0
 31 32  2  0
  7  2  1  0
 32 11  1  0
 30 16  1  0
 29 23  1  0
  1 33  1  0
  1 34  1  0
  3 35  1  0
  4 36  1  0
  5 37  1  0
  6 38  1  0
  8 39  1  0
 12 40  1  0
 13 41  1  0
 17 42  1  0
 18 43  1  0
 24 44  1  0
 25 45  1  0
 28 46  1  0
 29 47  1  0
 30 48  1  0
 31 49  1  0
 32 50  1  0
M  END
>  <smiles>  (47) 
Nc1ccccc1NC(=O)c1ccc(N=c2[nH]cc(F)c(=Nc3ccc(F)cc3)[nH]2)cc1

>  <score_type>  (47) 
oracle

>  <origin>  (47) 
adg

>  <m_score__min__energy>  (47) 
-8.7899999999999991

>  <m_primary>  (47) 
energy

$$$$
47:0
     RDKit          3D

 41 44  0  0  0  0  0  0  0  0999 V2000
   55.1870   23.9930   44.7920 C   0  0  0  0  0  0  0  0  0  0  0  0
   55.8020   25.2540   45.8870 S   0  0  0  0  0  0  0  0  0  0  0  0
   54.7720   26.3400   46.0010 O   0  0  0  0  0  0  0  0  0  0  0  0
   56.0560   24.6830   47.2550 O   0  0  0  0  0  0  0  0  0  0  0  0
   57.2630   25.9380   45.2490 N   0  0  0  0  0  0  0  0  0  0  0  0
   57.9550   27.0790   45.7740 C   0  0  0  0  0  0  0  0  0  0  0  0
   57.8330   27.3630   47.1410 C   0  0  0  0  0  0  0  0  0  0  0  0
   58.4890   28.4620   47.7000 C   0  0  0  0  0  0  0  0  0  0  0  0
   59.3000   29.2780   46.9030 C   0  0  0  0  0  0  0  0  0  0  0  0
   59.9200   30.4340   47.4830 N   0  0  0  0  0  0  0  0  0  0  0  0
   60.1740   31.6120   46.9650 C   0  0  0  0  0  0  0  0  0  0  0  0
   61.4710   32.1460   47.1660 C   0  0  0  0  0  0  0  0  0  0  0  0
   62.5120   31.3860   47.7470 C   0  0  0  0  0  0  0  0  0  0  0  0
   63.7670   31.9570   47.9750 C   0  0  0  0  0  0  0  0  0  0  0  0
   64.0020   33.2920   47.6420 C   0  0  0  0  0  0  0  0  0  0  0  0
   62.9850   34.0610   47.0780 C   0  0  0  0  0  0  0  0  0  0  0  0
   61.7260   33.4980   46.8360 C   0  0  0  0  0  0  0  0  0  0  0  0
   60.7490   34.2630   46.2950 N   0  0  0  0  0  0  0  0  0  0  0  0
   59.5230   33.7670   45.9970 C   0  0  0  0  0  0  0  0  0  0  0  0
   58.5920   34.6030   45.3700 C   0  0  0  0  0  0  0  0  0  0  0  0
   57.3730   34.0910   44.9300 C   0  0  0  0  0  0  0  0  0  0  0  0
   57.0960   32.7350   45.0770 C   0  0  0  0  0  0  0  0  0  0  0  0
   58.0130   31.8930   45.7110 C   0  0  0  0  0  0  0  0  0  0  0  0
   59.2120   32.4070   46.2610 C   0  0  0  0  0  0  0  0  0  0  0  0
   59.3940   29.0230   45.5260 C   0  0  0  0  0  0  0  0  0  0  0  0
   58.7390   27.9230   44.9660 C   0  0  0  0  0  0  0  0  0  0  0  0
   54.7806   23.1597   45.3840 H   0  0  0  0  0  0  0  0  0  0  0  0
   54.3929   24.4137   44.1576 H   0  0  0  0  0  0  0  0  0  0  0  0
   56.0074   23.6263   44.1576 H   0  0  0  0  0  0  0  0  0  0  0  0
   57.2150   26.7145   47.7794 H   0  0  0  0  0  0  0  0  0  0  0  0
   58.3679   28.6869   48.7699 H   0  0  0  0  0  0  0  0  0  0  0  0
   62.3326   30.3361   48.0220 H   0  0  0  0  0  0  0  0  0  0  0  0
   64.5721   31.3525   48.4182 H   0  0  0  0  0  0  0  0  0  0  0  0
   64.9908   33.7379   47.8248 H   0  0  0  0  0  0  0  0  0  0  0  0
   63.1724   35.1143   46.8221 H   0  0  0  0  0  0  0  0  0  0  0  0
   58.8235   35.6684   45.2240 H   0  0  0  0  0  0  0  0  0  0  0  0
   56.6306   34.7577   44.4671 H   0  0  0  0  0  0  0  0  0  0  0  0
   56.1508   32.3244   44.6923 H   0  0  0  0  0  0  0  0  0  0  0  0
   57.8005   30.8162   45.7838 H   0  0  0  0  0  0  0  0  0  0  0  0
   59.9861   29.6923   44.8846 H   0  0  0  0  0  0  0  0  0  0  0  0
   58.8366   27.7162   43.8900 H   0  0  0  0  0  0  0  0  0  0  0  0
  1  2  1  0
  2  3  2  0
  2  4  2  0
  2  5  1  0
  5  6  1  0
  6  7  2  0
  7  8  1  0
  8  9  2  0
  9 10  1  0
 10 11  2  3
 11 12  1  0
 12 13  2  0
 13 14  1  0
 14 15  2  0
 15 16  1  0
 16 17  2  0
 17 18  1  0
 18 19  1  0
 19 20  2  0
 20 21  1  0
 21 22  2  0
 22 23  1  0
 23 24  2  0
  9 25  1  0
 25 26  2  0
 26  6  1  0
 24 11  1  0
 17 12  1  0
 24 19  1  0
  1 27  1  0
  1 28  1  0
  1 29  1  0
  7 30  1  0
  8 31  1  0
 13 32  1  0
 14 33  1  0
 15 34  1  0
 16 35  1  0
 20 36  1  0
 21 37  1  0
 22 38  1  0
 23 39  1  0
 25 40  1  0
 26 41  1  0
M  CHG  2   5  -1  18  -1
M  END
>  <UniqueID>  (48) 
43

>  <SMILES>  (48) 
CS(=O)(=O)[N-]c1ccc(N=c2c3ccccc3[n-]c3ccccc23)cc1

>  <Energy>  (48) 
72.96590224735311

>  <Genealogy>  (48) 
CS(=O)(=O)[N-]c1ccc(N=c2c3ccccc3[n-]c3ccccc23)cc1 (protonated)
CS(=O)(=O)[N-]c1ccc(N=c2c3ccccc3[n-]c3ccccc23)cc1 (3D coordinates assigned)
CS(=O)(=O)[N-]c1ccc(N=c2c3ccccc3[n-]c3ccccc23)cc1 (optimized conformer: 72.96590224735311 kcal/mol)

>  <smiles>  (48) 
CS(=O)(=O)Nc1ccc(N=c2c3ccccc3[nH]c3ccccc23)cc1

>  <score_type>  (48) 
oracle

>  <origin>  (48) 
adg

>  <m_score__min__energy>  (48) 
-11.140000000000001

>  <m_primary>  (48) 
energy

$$$$
48:0
     RDKit          3D

 34 35  0  0  0  0  0  0  0  0999 V2000
   62.7550   33.4800   46.7370 C   0  0  0  0  0  0  0  0  0  0  0  0
   61.6090   33.7990   46.9300 C   0  0  0  0  0  0  0  0  0  0  0  0
   60.2230   34.1950   47.1630 C   0  0  0  0  0  0  0  0  0  0  0  0
   59.4760   34.1680   45.8260 C   0  0  0  0  0  0  0  0  0  0  0  0
   58.0050   34.1930   46.0550 C   0  0  0  0  0  0  0  0  0  0  0  0
   57.1770   33.5050   45.0070 C   0  0  0  0  0  0  0  0  0  0  0  0
   57.2930   32.1710   44.7490 N   0  0  0  0  0  0  0  0  0  0  0  0
   57.4080   30.8380   44.4930 C   0  0  0  0  0  0  0  0  0  0  0  0
   56.7620   30.0440   43.5660 C   0  0  0  0  0  0  0  0  0  0  0  0
   57.0190   28.7480   43.3360 N   0  0  0  0  0  0  0  0  0  0  0  0
   57.9710   28.1580   44.0460 C   0  0  0  0  0  0  0  0  0  0  0  0
   58.6900   28.8160   44.9950 C   0  0  0  0  0  0  0  0  0  0  0  0
   59.6590   28.1620   45.7260 C   0  0  0  0  0  0  0  0  0  0  0  0
   60.3730   28.8240   46.7020 C   0  0  0  0  0  0  0  0  0  0  0  0
   60.1130   30.1570   46.9500 C   0  0  0  0  0  0  0  0  0  0  0  0
   59.1370   30.7680   46.1950 C   0  0  0  0  0  0  0  0  0  0  0  0
   58.4120   30.1410   45.2190 C   0  0  0  0  0  0  0  0  0  0  0  0
   63.8010   33.1888   46.5608 H   0  0  0  0  0  0  0  0  0  0  0  0
   59.7502   33.4933   47.8659 H   0  0  0  0  0  0  0  0  0  0  0  0
   60.1883   35.2070   47.5926 H   0  0  0  0  0  0  0  0  0  0  0  0
   59.7655   35.0466   45.2308 H   0  0  0  0  0  0  0  0  0  0  0  0
   59.7386   33.2451   45.2881 H   0  0  0  0  0  0  0  0  0  0  0  0
   57.8037   33.7056   47.0203 H   0  0  0  0  0  0  0  0  0  0  0  0
   57.7119   35.2528   46.0247 H   0  0  0  0  0  0  0  0  0  0  0  0
   56.1265   33.6733   45.2866 H   0  0  0  0  0  0  0  0  0  0  0  0
   57.5647   33.9518   44.0796 H   0  0  0  0  0  0  0  0  0  0  0  0
   56.2680   31.9430   45.5860 H   0  0  0  0  0  0  0  0  0  0  0  0
   55.9695   30.5144   42.9654 H   0  0  0  0  0  0  0  0  0  0  0  0
   56.4940   28.2050   42.6190 H   0  0  0  0  0  0  0  0  0  0  0  0
   58.1876   27.0956   43.8604 H   0  0  0  0  0  0  0  0  0  0  0  0
   59.8648   27.0997   45.5282 H   0  0  0  0  0  0  0  0  0  0  0  0
   61.1447   28.2937   47.2793 H   0  0  0  0  0  0  0  0  0  0  0  0
   60.6657   30.7111   47.7230 H   0  0  0  0  0  0  0  0  0  0  0  0
   58.9265   31.8300   46.3894 H   0  0  0  0  0  0  0  0  0  0  0  0
  1  2  3  0
  2  3  1  0
  3  4  1  0
  4  5  1  0
  5  6  1  0
  6  7  1  0
  7  8  1  0
  8  9  2  0
  9 10  1  0
 10 11  2  0
 11 12  1  0
 12 13  2  0
 13 14  1  0
 14 15  2  0
 15 16  1  0
 16 17  2  0
 17  8  1  0
 17 12  1  0
  1 18  1  0
  3 19  1  0
  3 20  1  0
  4 21  1  0
  4 22  1  0
  5 23  1  0
  5 24  1  0
  6 25  1  0
  6 26  1  0
  7 27  1  0
  9 28  1  0
 10 29  1  0
 11 30  1  0
 13 31  1  0
 14 32  1  0
 15 33  1  0
 16 34  1  0
M  CHG  1  10   1
M  END
>  <UniqueID>  (49) 
44

>  <SMILES>  (49) 
C#CCCCCNc1c[nH+]cc2ccccc12

>  <Energy>  (49) 
200.66923200035924

>  <Genealogy>  (49) 
C#CCCCCNc1c[nH+]cc2ccccc12 (protonated)
C#CCCCCNc1c[nH+]cc2ccccc12 (3D coordinates assigned)
C#CCCCCNc1c[nH+]cc2ccccc12 (optimized conformer: 200.66923200035924 kcal/mol)

>  <smiles>  (49) 
C#CCCCCNc1cncc2ccccc12

>  <score_type>  (49) 
oracle

>  <origin>  (49) 
adg

>  <m_score__min__energy>  (49) 
-4.6299999999999999

>  <m_primary>  (49) 
energy

$$$$
49:0
     RDKit          3D

 67 70  0  0  0  0  0  0  0  0999 V2000
   50.5130   24.8470   43.8350 C   0  0  0  0  0  0  0  0  0  0  0  0
   50.9370   23.6130   44.6140 C   0  0  0  0  0  0  0  0  0  0  0  0
   52.0640   23.9290   45.4280 O   0  0  0  0  0  0  0  0  0  0  0  0
   53.3520   23.4080   45.2390 C   0  0  0  0  0  0  0  0  0  0  0  0
   54.1230   23.7120   44.0990 C   0  0  0  0  0  0  0  0  0  0  0  0
   55.4050   23.1820   43.9490 C   0  0  0  0  0  0  0  0  0  0  0  0
   55.9380   22.3370   44.9310 C   0  0  0  0  0  0  0  0  0  0  0  0
   57.3170   21.7580   44.7670 C   0  0  0  0  0  0  0  0  0  0  0  0
   58.3830   22.6950   45.3470 C   0  0  0  0  0  0  0  0  0  0  0  0
   58.0500   23.0450   46.7250 N   0  0  0  0  0  0  0  0  0  0  0  0
   57.3240   24.2230   47.0960 C   0  0  0  0  0  0  0  0  0  0  0  0
   56.3960   24.1330   47.9430 O   0  0  0  0  0  0  0  0  0  0  0  0
   57.6380   25.5360   46.5050 C   0  0  0  0  0  0  0  0  0  0  0  0
   58.9710   25.9250   46.3120 C   0  0  0  0  0  0  0  0  0  0  0  0
   59.2670   27.1580   45.7240 C   0  0  0  0  0  0  0  0  0  0  0  0
   58.2280   28.0290   45.3440 C   0  0  0  0  0  0  0  0  0  0  0  0
   58.4720   29.2860   44.7610 C   0  0  0  0  0  0  0  0  0  0  0  0
   59.6620   29.6470   44.5360 O   0  0  0  0  0  0  0  0  0  0  0  0
   57.4210   30.1150   44.4410 N   0  0  0  0  0  0  0  0  0  0  0  0
   57.6600   31.4410   43.8330 C   0  0  0  0  0  0  0  0  0  0  0  0
   58.0870   32.4410   44.8790 C   0  0  0  0  0  0  0  0  0  0  0  0
   58.5600   33.7030   44.4910 C   0  0  0  0  0  0  0  0  0  0  0  0
   58.9410   34.6390   45.4540 C   0  0  0  0  0  0  0  0  0  0  0  0
   58.8640   34.3190   46.8120 C   0  0  0  0  0  0  0  0  0  0  0  0
   58.4030   33.0610   47.2210 C   0  0  0  0  0  0  0  0  0  0  0  0
   58.3490   32.7860   48.5950 O   0  0  0  0  0  0  0  0  0  0  0  0
   59.3880   33.0920   49.5200 C   0  0  0  0  0  0  0  0  0  0  0  0
   58.0140   32.1200   46.2460 C   0  0  0  0  0  0  0  0  0  0  0  0
   56.1320   29.7030   44.6760 C   0  0  0  0  0  0  0  0  0  0  0  0
   55.1560   30.4460   44.3870 O   0  0  0  0  0  0  0  0  0  0  0  0
   55.8880   28.4860   45.2230 N   0  0  0  0  0  0  0  0  0  0  0  0
   56.8930   27.6460   45.5610 C   0  0  0  0  0  0  0  0  0  0  0  0
   56.6020   26.4030   46.1320 C   0  0  0  0  0  0  0  0  0  0  0  0
   55.1650   22.0080   46.0550 C   0  0  0  0  0  0  0  0  0  0  0  0
   53.8800   22.5590   46.2250 C   0  0  0  0  0  0  0  0  0  0  0  0
   53.1010   22.2940   47.3630 O   0  0  0  0  0  0  0  0  0  0  0  0
   51.9260   21.4880   47.3700 C   0  0  0  0  0  0  0  0  0  0  0  0
   52.2600   20.1030   46.8410 C   0  0  0  0  0  0  0  0  0  0  0  0
   50.2379   25.6475   44.5375 H   0  0  0  0  0  0  0  0  0  0  0  0
   51.3465   25.1852   43.2018 H   0  0  0  0  0  0  0  0  0  0  0  0
   49.6477   24.6015   43.2018 H   0  0  0  0  0  0  0  0  0  0  0  0
   50.1058   23.2788   45.2523 H   0  0  0  0  0  0  0  0  0  0  0  0
   51.2055   22.8102   43.9116 H   0  0  0  0  0  0  0  0  0  0  0  0
   53.7109   24.3721   43.3216 H   0  0  0  0  0  0  0  0  0  0  0  0
   55.9991   23.4285   43.0567 H   0  0  0  0  0  0  0  0  0  0  0  0
   57.3652   20.7917   45.2904 H   0  0  0  0  0  0  0  0  0  0  0  0
   57.5149   21.6270   43.6929 H   0  0  0  0  0  0  0  0  0  0  0  0
   59.3604   22.1907   45.3261 H   0  0  0  0  0  0  0  0  0  0  0  0
   58.4215   23.6132   44.7425 H   0  0  0  0  0  0  0  0  0  0  0  0
   59.7873   25.2572   46.6246 H   0  0  0  0  0  0  0  0  0  0  0  0
   60.3147   27.4488   45.5576 H   0  0  0  0  0  0  0  0  0  0  0  0
   58.4516   31.3525   43.0743 H   0  0  0  0  0  0  0  0  0  0  0  0
   56.7248   31.7910   43.3716 H   0  0  0  0  0  0  0  0  0  0  0  0
   58.6311   33.9564   43.4230 H   0  0  0  0  0  0  0  0  0  0  0  0
   59.3025   35.6303   45.1432 H   0  0  0  0  0  0  0  0  0  0  0  0
   59.1677   35.0605   47.5656 H   0  0  0  0  0  0  0  0  0  0  0  0
   59.0094   32.9805   50.5468 H   0  0  0  0  0  0  0  0  0  0  0  0
   60.2322   32.4044   49.3638 H   0  0  0  0  0  0  0  0  0  0  0  0
   59.7248   34.1275   49.3638 H   0  0  0  0  0  0  0  0  0  0  0  0
   57.6513   31.1290   46.5564 H   0  0  0  0  0  0  0  0  0  0  0  0
   55.5550   26.1044   46.2891 H   0  0  0  0  0  0  0  0  0  0  0  0
   55.5657   21.3145   46.8090 H   0  0  0  0  0  0  0  0  0  0  0  0
   51.5437   21.4057   48.3981 H   0  0  0  0  0  0  0  0  0  0  0  0
   51.1598   21.9504   46.7304 H   0  0  0  0  0  0  0  0  0  0  0  0
   52.4252   19.4179   47.6856 H   0  0  0  0  0  0  0  0  0  0  0  0
   51.4252   19.7338   46.2273 H   0  0  0  0  0  0  0  0  0  0  0  0
   53.1714   20.1549   46.2273 H   0  0  0  0  0  0  0  0  0  0  0  0
  1  2  1  0
  2  3  1  0
  3  4  1  0
  4  5  2  0
  5  6  1  0
  6  7  2  0
  7  8  1  0
  8  9  1  0
  9 10  1  0
 10 11  1  0
 11 12  2  0
 11 13  1  0
 13 14  2  0
 14 15  1  0
 15 16  2  0
 16 17  1  0
 17 18  2  0
 17 19  1  0
 19 20  1  0
 20 21  1  0
 21 22  2  0
 22 23  1  0
 23 24  2  0
 24 25  1  0
 25 26  1  0
 26 27  1  0
 25 28  2  0
 19 29  1  0
 29 30  2  0
 29 31  1  0
 31 32  1  0
 32 33  2  0
  7 34  1  0
 34 35  2  0
 35 36  1  0
 36 37  1  0
 37 38  1  0
 35  4  1  0
 33 13  1  0
 32 16  1  0
 28 21  1  0
  1 39  1  0
  1 40  1  0
  1 41  1  0
  2 42  1  0
  2 43  1  0
  5 44  1  0
  6 45  1  0
  8 46  1  0
  8 47  1  0
  9 48  1  0
  9 49  1  0
 14 50  1  0
 15 51  1  0
 20 52  1  0
 20 53  1  0
 22 54  1  0
 23 55  1  0
 24 56  1  0
 27 57  1  0
 27 58  1  0
 27 59  1  0
 28 60  1  0
 33 61  1  0
 34 62  1  0
 37 63  1  0
 37 64  1  0
 38 65  1  0
 38 66  1  0
 38 67  1  0
M  CHG  2  10  -1  31  -1
M  END
>  <UniqueID>  (50) 
45

>  <SMILES>  (50) 
CCOc1ccc(CC[N-]C(=O)c2ccc3c(=O)n(Cc4cccc(OC)c4)c(=O)[n-]c3c2)cc1OCC

>  <Energy>  (50) 
69.95377397706478

>  <Genealogy>  (50) 
CCOc1ccc(CC[N-]C(=O)c2ccc3c(=O)n(Cc4cccc(OC)c4)c(=O)[n-]c3c2)cc1OCC (protonated)
CCOc1ccc(CC[N-]C(=O)c2ccc3c(=O)n(Cc4cccc(OC)c4)c(=O)[n-]c3c2)cc1OCC (3D coordinates assigned)
CCOc1ccc(CC[N-]C(=O)c2ccc3c(=O)n(Cc4cccc(OC)c4)c(=O)[n-]c3c2)cc1OCC (optimized conformer: 69.95377397706478 kcal/mol)

>  <smiles>  (50) 
CCOc1ccc(CCNC(=O)c2ccc3c(=O)n(Cc4cccc(OC)c4)c(=O)[nH]c3c2)cc1OCC

>  <score_type>  (50) 
oracle

>  <origin>  (50) 
adg

>  <m_score__min__energy>  (50) 
-11.93

>  <m_primary>  (50) 
energy

$$$$
50:0
     RDKit          3D

 57 60  0  0  0  0  0  0  0  0999 V2000
   56.1576   25.5689   46.5519 H   0  0  0  0  0  0  0  0  0  0  0  0
   56.6080   26.5660   46.4380 C   0  0  0  0  0  0  0  0  0  0  0  0
   56.0320   27.4820   45.6170 N   0  0  0  0  0  0  0  0  0  0  0  0
   56.5770   28.7140   45.4470 C   0  0  0  0  0  0  0  0  0  0  0  0
   55.9680   29.5810   44.6950 N   0  0  0  0  0  0  0  0  0  0  0  0
   56.6160   30.5490   43.8580 C   0  0  0  0  0  0  0  0  0  0  0  0
   56.5950   30.3810   42.6110 O   0  0  0  0  0  0  0  0  0  0  0  0
   57.3600   31.6960   44.4270 C   0  0  0  0  0  0  0  0  0  0  0  0
   58.0870   32.5560   43.5870 C   0  0  0  0  0  0  0  0  0  0  0  0
   58.0777   32.3941   42.4990 H   0  0  0  0  0  0  0  0  0  0  0  0
   58.8220   33.6160   44.1250 C   0  0  0  0  0  0  0  0  0  0  0  0
   59.3788   34.2904   43.4578 H   0  0  0  0  0  0  0  0  0  0  0  0
   58.8530   33.8240   45.5130 C   0  0  0  0  0  0  0  0  0  0  0  0
   59.6870   34.9350   46.0990 C   0  0  0  0  0  0  0  0  0  0  0  0
   59.8858   35.6820   45.3164 H   0  0  0  0  0  0  0  0  0  0  0  0
   59.1271   35.3788   46.9354 H   0  0  0  0  0  0  0  0  0  0  0  0
   61.0250   34.4160   46.6420 C   0  0  0  0  0  0  0  0  0  0  0  0
   61.2763   33.4750   46.1308 H   0  0  0  0  0  0  0  0  0  0  0  0
   61.7914   35.1828   46.4555 H   0  0  0  0  0  0  0  0  0  0  0  0
   60.9640   34.1640   48.1270 C   0  0  0  0  0  0  0  0  0  0  0  0
   62.1440   33.9190   48.8500 C   0  0  0  0  0  0  0  0  0  0  0  0
   63.1170   33.9485   48.3378 H   0  0  0  0  0  0  0  0  0  0  0  0
   62.0850   33.6380   50.2180 C   0  0  0  0  0  0  0  0  0  0  0  0
   63.0121   33.4550   50.7811 H   0  0  0  0  0  0  0  0  0  0  0  0
   60.8510   33.5890   50.8720 C   0  0  0  0  0  0  0  0  0  0  0  0
   60.7950   33.3110   52.1970 F   0  0  0  0  0  0  0  0  0  0  0  0
   59.6720   33.8220   50.1560 C   0  0  0  0  0  0  0  0  0  0  0  0
   58.7002   33.7808   50.6698 H   0  0  0  0  0  0  0  0  0  0  0  0
   59.7270   34.1070   48.7890 C   0  0  0  0  0  0  0  0  0  0  0  0
   58.7974   34.2874   48.2293 H   0  0  0  0  0  0  0  0  0  0  0  0
   58.1420   32.9560   46.3540 C   0  0  0  0  0  0  0  0  0  0  0  0
   58.1720   33.1037   47.4436 H   0  0  0  0  0  0  0  0  0  0  0  0
   57.3960   31.9050   45.8160 C   0  0  0  0  0  0  0  0  0  0  0  0
   56.8330   31.2365   46.4840 H   0  0  0  0  0  0  0  0  0  0  0  0
   57.7200   29.0420   46.1150 N   0  0  0  0  0  0  0  0  0  0  0  0
   58.3230   28.1620   46.9600 C   0  0  0  0  0  0  0  0  0  0  0  0
   59.5110   28.5480   47.6730 N   0  0  0  0  0  0  0  0  0  0  0  0
   60.1660   27.7030   48.5990 C   0  0  0  0  0  0  0  0  0  0  0  0
   60.0810   26.4460   48.5880 O   0  0  0  0  0  0  0  0  0  0  0  0
   60.8660   28.3980   49.5530 O   0  0  0  0  0  0  0  0  0  0  0  0
   60.6930   29.7930   49.3470 C   0  0  0  0  0  0  0  0  0  0  0  0
   61.6688   30.2874   49.2316 H   0  0  0  0  0  0  0  0  0  0  0  0
   60.1882   30.2694   50.2003 H   0  0  0  0  0  0  0  0  0  0  0  0
   59.8570   29.9270   48.0360 C   0  0  1  0  0  0  0  0  0  0  0  0
   58.9652   30.5546   48.1805 H   0  0  0  0  0  0  0  0  0  0  0  0
   60.6710   30.6220   46.9060 C   0  0  0  0  0  0  0  0  0  0  0  0
   60.1229   31.5391   46.6442 H   0  0  0  0  0  0  0  0  0  0  0  0
   60.7780   29.7110   45.6730 C   0  0  0  0  0  0  0  0  0  0  0  0
   60.9006   28.6672   45.9978 H   0  0  0  0  0  0  0  0  0  0  0  0
   59.8630   29.8021   45.0693 H   0  0  0  0  0  0  0  0  0  0  0  0
   61.6470   30.0116   45.0693 H   0  0  0  0  0  0  0  0  0  0  0  0
   62.0810   31.0250   47.3640 C   0  0  0  0  0  0  0  0  0  0  0  0
   62.1202   31.0362   48.4632 H   0  0  0  0  0  0  0  0  0  0  0  0
   62.8130   30.3001   46.9783 H   0  0  0  0  0  0  0  0  0  0  0  0
   62.3193   32.0272   46.9783 H   0  0  0  0  0  0  0  0  0  0  0  0
   57.7700   26.8900   47.1360 C   0  0  0  0  0  0  0  0  0  0  0  0
   58.2419   26.1607   47.8108 H   0  0  0  0  0  0  0  0  0  0  0  0
  1  2  1  0
  2  3  1  0
  3  4  1  0
  4  5  2  0
  5  6  1  0
  6  7  2  0
  6  8  1  0
  8  9  2  0
  9 10  1  0
  9 11  1  0
 11 12  1  0
 11 13  2  0
 13 14  1  0
 14 15  1  0
 14 16  1  0
 14 17  1  0
 17 18  1  0
 17 19  1  0
 17 20  1  0
 20 21  2  0
 21 22  1  0
 21 23  1  0
 23 24  1  0
 23 25  2  0
 25 26  1  0
 25 27  1  0
 27 28  1  0
 27 29  2  0
 29 30  1  0
 13 31  1  0
 31 32  1  0
 31 33  2  0
 33 34  1  0
  4 35  1  0
 35 36  2  0
 36 37  1  0
 37 38  1  0
 38 39  2  0
 38 40  1  0
 40 41  1  0
 41 42  1  0
 41 43  1  0
 41 44  1  0
 44 45  1  1
 44 46  1  0
 46 47  1  0
 46 48  1  0
 48 49  1  0
 48 50  1  0
 48 51  1  0
 46 52  1  0
 52 53  1  0
 52 54  1  0
 52 55  1  0
 36 56  1  0
 56 57  1  0
 56  2  2  0
 33  8  1  0
 44 37  1  0
 29 20  1  0
M  CHG  1   3  -1
M  END
>  <UniqueID>  (51) 
46

>  <SMILES>  (51) 
CC(C)[C@@H]1COC(=O)N1c1cc[n-]/c(=N/C(=O)c2ccc(CCc3ccc(F)cc3)cc2)n1

>  <Energy>  (51) 
78.0703173268535

>  <Genealogy>  (51) 
CC(C)C1COC(=O)N1c1cc[n-]c(=NC(=O)c2ccc(CCc3ccc(F)cc3)cc2)n1 (protonated)
CC(C)[C@@H]1COC(=O)N1c1cc[n-]c(=NC(=O)c2ccc(CCc3ccc(F)cc3)cc2)n1 (chirality)
CC(C)[C@@H]1COC(=O)N1c1cc[n-]/c(=N/C(=O)c2ccc(CCc3ccc(F)cc3)cc2)n1 (cis-trans isomerization)
CC(C)[C@@H]1COC(=O)N1c1cc[n-]/c(=N/C(=O)c2ccc(CCc3ccc(F)cc3)cc2)n1 (3D coordinates assigned)
CC(C)[C@@H]1COC(=O)N1c1cc[n-]/c(=N/C(=O)c2ccc(CCc3ccc(F)cc3)cc2)n1 (nonaromatic ring conformer: 78.0703173268535 kcal/mol)

>  <smiles>  (51) 
CC(C)C1COC(=O)N1c1cc[nH]c(=NC(=O)c2ccc(CCc3ccc(F)cc3)cc2)n1

>  <score_type>  (51) 
oracle

>  <origin>  (51) 
adg

>  <m_score__min__energy>  (51) 
-11.68

>  <m_primary>  (51) 
energy

$$$$
51:0
     RDKit          3D

 56 59  0  0  0  0  0  0  0  0999 V2000
   54.4090   28.6420   44.4980 H   0  0  0  0  0  0  0  0  0  0  0  0
   55.2900   29.1330   44.5880 O   0  0  0  0  0  0  0  0  0  0  0  0
   56.4020   28.5670   45.2150 C   0  0  0  0  0  0  0  0  0  0  0  0
   56.2870   27.3440   45.8970 C   0  0  0  0  0  0  0  0  0  0  0  0
   55.0720   26.6700   45.9340 O   0  0  0  0  0  0  0  0  0  0  0  0
   57.3950   26.7920   46.5440 C   0  0  0  0  0  0  0  0  0  0  0  0
   57.2984   25.8307   47.0698 H   0  0  0  0  0  0  0  0  0  0  0  0
   58.6310   27.4570   46.5270 C   0  0  0  0  0  0  0  0  0  0  0  0
   59.8220   26.8900   47.1950 C   0  0  0  0  0  0  0  0  0  0  0  0
   60.4308   26.1554   46.6475 H   0  0  0  0  0  0  0  0  0  0  0  0
   60.1820   27.2190   48.3970 N   0  0  0  0  0  0  0  0  0  0  0  0
   60.1590   26.3300   49.4490 O   0  0  0  0  0  0  0  0  0  0  0  0
   60.9460   26.5520   50.6120 C   0  0  0  0  0  0  0  0  0  0  0  0
   60.5436   25.9491   51.4394 H   0  0  0  0  0  0  0  0  0  0  0  0
   61.9843   26.2617   50.3938 H   0  0  0  0  0  0  0  0  0  0  0  0
   60.9260   28.0260   51.0120 C   0  0  0  0  0  0  0  0  0  0  0  0
   61.1677   28.1156   52.0814 H   0  0  0  0  0  0  0  0  0  0  0  0
   61.6697   28.5709   50.4120 H   0  0  0  0  0  0  0  0  0  0  0  0
   59.6070   28.5960   50.7670 N   0  0  0  0  0  0  0  0  0  0  0  0
   59.3300   29.8010   50.0400 C   0  0  0  0  0  0  0  0  0  0  0  0
   58.2840   30.4420   50.3240 O   0  0  0  0  0  0  0  0  0  0  0  0
   60.2230   30.3310   48.9900 C   0  0  0  0  0  0  0  0  0  0  0  0
   59.8850   30.4700   47.6880 N   0  0  0  0  0  0  0  0  0  0  0  0
   60.8990   30.9870   46.9440 C   0  0  0  0  0  0  0  0  0  0  0  0
   60.8052   31.1801   45.8651 H   0  0  0  0  0  0  0  0  0  0  0  0
   62.0630   31.2520   47.6550 C   0  0  0  0  0  0  0  0  0  0  0  0
   63.3200   31.8540   47.1070 C   0  0  0  0  0  0  0  0  0  0  0  0
   63.9955   31.0477   46.7852 H   0  0  0  0  0  0  0  0  0  0  0  0
   63.0597   32.4986   46.2545 H   0  0  0  0  0  0  0  0  0  0  0  0
   64.0230   32.7040   48.1680 C   0  0  0  0  0  0  0  0  0  0  0  0
   63.7995   32.2943   49.1641 H   0  0  0  0  0  0  0  0  0  0  0  0
   65.1061   32.6798   47.9775 H   0  0  0  0  0  0  0  0  0  0  0  0
   63.5460   34.1600   48.1050 C   0  0  0  0  0  0  0  0  0  0  0  0
   64.2318   34.7898   48.6908 H   0  0  0  0  0  0  0  0  0  0  0  0
   63.5344   34.4819   47.0532 H   0  0  0  0  0  0  0  0  0  0  0  0
   62.1950   34.2880   48.6490 N   0  0  0  0  0  0  0  0  0  0  0  0
   61.1070   34.1660   47.9470 C   0  0  0  0  0  0  0  0  0  0  0  0
   61.0350   34.4920   46.6270 N   0  0  0  0  0  0  0  0  0  0  0  0
   59.7580   34.2050   46.3360 C   0  0  0  0  0  0  0  0  0  0  0  0
   59.1110   34.3500   45.1120 C   0  0  0  0  0  0  0  0  0  0  0  0
   59.6423   34.7350   44.2291 H   0  0  0  0  0  0  0  0  0  0  0  0
   57.7510   33.9860   45.0440 C   0  0  0  0  0  0  0  0  0  0  0  0
   57.2039   34.0890   44.0953 H   0  0  0  0  0  0  0  0  0  0  0  0
   57.0860   33.4890   46.1890 C   0  0  0  0  0  0  0  0  0  0  0  0
   56.0256   33.2038   46.1245 H   0  0  0  0  0  0  0  0  0  0  0  0
   57.7730   33.3570   47.4110 C   0  0  0  0  0  0  0  0  0  0  0  0
   57.2684   32.9735   48.3101 H   0  0  0  0  0  0  0  0  0  0  0  0
   59.1160   33.7300   47.4400 C   0  0  0  0  0  0  0  0  0  0  0  0
   59.9550   33.6930   48.4860 N   0  0  0  0  0  0  0  0  0  0  0  0
   61.8000   30.8590   49.2690 S   0  0  0  0  0  0  0  0  0  0  0  0
   58.7550   28.6580   45.8170 C   0  0  0  0  0  0  0  0  0  0  0  0
   59.7312   29.1628   45.7689 H   0  0  0  0  0  0  0  0  0  0  0  0
   57.6460   29.2260   45.1650 C   0  0  0  0  0  0  0  0  0  0  0  0
   57.7820   30.5100   44.4420 C   0  0  0  0  0  0  0  0  0  0  0  0
   58.7211   30.7367   43.9160 H   0  0  0  0  0  0  0  0  0  0  0  0
   56.8420   31.3480   44.4180 O   0  0  0  0  0  0  0  0  0  0  0  0
  1  2  1  0
  2  3  1  0
  3  4  2  0
  4  5  1  0
  4  6  1  0
  6  7  1  0
  6  8  2  0
  8  9  1  0
  9 10  1  0
  9 11  2  0
 11 12  1  0
 12 13  1  0
 13 14  1  0
 13 15  1  0
 13 16  1  0
 16 17  1  0
 16 18  1  0
 16 19  1  0
 19 20  1  0
 20 21  2  0
 20 22  1  0
 22 23  2  0
 23 24  1  0
 24 25  1  0
 24 26  2  0
 26 27  1  0
 27 28  1  0
 27 29  1  0
 27 30  1  0
 30 31  1  0
 30 32  1  0
 30 33  1  0
 33 34  1  0
 33 35  1  0
 33 36  1  0
 36 37  2  3
 37 38  1  0
 38 39  1  0
 39 40  2  0
 40 41  1  0
 40 42  1  0
 42 43  1  0
 42 44  2  0
 44 45  1  0
 44 46  1  0
 46 47  1  0
 46 48  2  0
 48 49  1  0
 26 50  1  0
  8 51  1  0
 51 52  1  0
 51 53  2  0
 53 54  1  0
 54 55  1  0
 54 56  2  0
 53  3  1  0
 50 22  1  0
 49 37  1  0
 48 39  1  0
M  CHG  4   5  -1  19  -1  38  -1  49  -1
M  END
>  <UniqueID>  (52) 
47

>  <SMILES>  (52) 
O=Cc1cc(/C=N\OCC[N-]C(=O)c2ncc(CCCN=c3[n-]c4ccccc4[n-]3)s2)cc([O-])c1O

>  <Energy>  (52) 
119.14070847617552

>  <Genealogy>  (52) 
O=Cc1cc(C=NOCC[N-]C(=O)c2ncc(CCCN=c3[n-]c4ccccc4[n-]3)s2)cc([O-])c1O (protonated)
O=Cc1cc(/C=N\OCC[N-]C(=O)c2ncc(CCCN=c3[n-]c4ccccc4[n-]3)s2)cc([O-])c1O (cis-trans isomerization)
O=Cc1cc(/C=N\OCC[N-]C(=O)c2ncc(CCCN=c3[n-]c4ccccc4[n-]3)s2)cc([O-])c1O (3D coordinates assigned)
O=Cc1cc(/C=N\OCC[N-]C(=O)c2ncc(CCCN=c3[n-]c4ccccc4[n-]3)s2)cc([O-])c1O (optimized conformer: 119.14070847617552 kcal/mol)

>  <smiles>  (52) 
O=Cc1cc(C=NOCCNC(=O)c2ncc(CCCN=c3[nH]c4ccccc4[nH]3)s2)cc(O)c1O

>  <score_type>  (52) 
oracle

>  <origin>  (52) 
adg

>  <m_score__min__energy>  (52) 
-18.260000000000002

>  <m_primary>  (52) 
energy

$$$$
52:0
     RDKit          3D

 41 43  0  0  0  0  0  0  0  0999 V2000
   61.3660   33.8370   46.3910 C   0  0  0  0  0  0  0  0  0  0  0  0
   60.2740   34.0270   47.4380 C   0  0  0  0  0  0  0  0  0  0  0  0
   59.0610   34.5970   46.8090 N   0  0  0  0  0  0  0  0  0  0  0  0
   57.8470   33.8130   47.1100 C   0  0  0  0  0  0  0  0  0  0  0  0
   57.8300   32.4530   46.3760 C   0  0  0  0  0  0  0  0  0  0  0  0
   58.5050   32.4960   45.0530 N   0  0  0  0  0  0  0  0  0  0  0  0
   57.9060   31.5260   44.1530 C   0  0  0  0  0  0  0  0  0  0  0  0
   57.6780   31.8510   42.9530 O   0  0  0  0  0  0  0  0  0  0  0  0
   57.5170   30.1610   44.6020 C   0  0  0  0  0  0  0  0  0  0  0  0
   58.4300   29.2820   45.0620 C   0  0  0  0  0  0  0  0  0  0  0  0
   58.0350   27.9360   45.5070 C   0  0  0  0  0  0  0  0  0  0  0  0
   58.9920   26.9870   45.8950 C   0  0  0  0  0  0  0  0  0  0  0  0
   58.5820   25.7330   46.3630 C   0  0  0  0  0  0  0  0  0  0  0  0
   57.2190   25.4300   46.4520 C   0  0  0  0  0  0  0  0  0  0  0  0
   56.2640   26.3780   46.0720 C   0  0  0  0  0  0  0  0  0  0  0  0
   56.6720   27.6270   45.5930 C   0  0  0  0  0  0  0  0  0  0  0  0
   55.7290   28.5850   45.2220 O   0  0  0  0  0  0  0  0  0  0  0  0
   56.0680   29.7350   44.4400 C   0  0  0  0  0  0  0  0  0  0  0  0
   58.4670   33.8480   44.4620 C   0  0  0  0  0  0  0  0  0  0  0  0
   59.2220   34.8570   45.3550 C   0  0  0  0  0  0  0  0  0  0  0  0
   62.3302   33.6692   46.8931 H   0  0  0  0  0  0  0  0  0  0  0  0
   61.1238   32.9675   45.7623 H   0  0  0  0  0  0  0  0  0  0  0  0
   61.4318   34.7372   45.7623 H   0  0  0  0  0  0  0  0  0  0  0  0
   60.0277   33.0539   47.8878 H   0  0  0  0  0  0  0  0  0  0  0  0
   60.6354   34.7171   48.2146 H   0  0  0  0  0  0  0  0  0  0  0  0
   57.8035   33.6305   48.1939 H   0  0  0  0  0  0  0  0  0  0  0  0
   56.9780   34.3925   46.7649 H   0  0  0  0  0  0  0  0  0  0  0  0
   58.3404   31.7091   47.0054 H   0  0  0  0  0  0  0  0  0  0  0  0
   56.7769   32.1894   46.1984 H   0  0  0  0  0  0  0  0  0  0  0  0
   59.5160   32.2570   45.1730 H   0  0  0  0  0  0  0  0  0  0  0  0
   59.4890   29.5762   45.1055 H   0  0  0  0  0  0  0  0  0  0  0  0
   60.0635   27.2278   45.8316 H   0  0  0  0  0  0  0  0  0  0  0  0
   59.3319   24.9854   46.6609 H   0  0  0  0  0  0  0  0  0  0  0  0
   56.8983   24.4448   46.8214 H   0  0  0  0  0  0  0  0  0  0  0  0
   55.1925   26.1416   46.1498 H   0  0  0  0  0  0  0  0  0  0  0  0
   55.8880   29.5027   43.3800 H   0  0  0  0  0  0  0  0  0  0  0  0
   55.4406   30.5671   44.7922 H   0  0  0  0  0  0  0  0  0  0  0  0
   58.9393   33.8211   43.4689 H   0  0  0  0  0  0  0  0  0  0  0  0
   57.4177   34.1672   44.3778 H   0  0  0  0  0  0  0  0  0  0  0  0
   60.2929   34.8068   45.1087 H   0  0  0  0  0  0  0  0  0  0  0  0
   58.7942   35.8503   45.1544 H   0  0  0  0  0  0  0  0  0  0  0  0
  1  2  1  0
  2  3  1  0
  3  4  1  0
  4  5  1  0
  5  6  1  0
  6  7  1  0
  7  8  2  0
  7  9  1  0
  9 10  2  0
 10 11  1  0
 11 12  2  0
 12 13  1  0
 13 14  2  0
 14 15  1  0
 15 16  2  0
 16 17  1  0
 17 18  1  0
  6 19  1  0
 19 20  1  0
 20  3  1  0
 18  9  1  0
 16 11  1  0
  1 21  1  0
  1 22  1  0
  1 23  1  0
  2 24  1  0
  2 25  1  0
  4 26  1  0
  4 27  1  0
  5 28  1  0
  5 29  1  0
  6 30  1  0
 10 31  1  0
 12 32  1  0
 13 33  1  0
 14 34  1  0
 15 35  1  0
 18 36  1  0
 18 37  1  0
 19 38  1  0
 19 39  1  0
 20 40  1  0
 20 41  1  0
M  CHG  1   6   1
M  END
>  <UniqueID>  (53) 
48

>  <SMILES>  (53) 
CCN1CC[NH+](C(=O)C2=Cc3ccccc3OC2)CC1

>  <Energy>  (53) 
59.91198501885536

>  <Genealogy>  (53) 
CCN1CC[NH+](C(=O)C2=Cc3ccccc3OC2)CC1 (protonated)
CCN1CC[NH+](C(=O)C2=Cc3ccccc3OC2)CC1 (3D coordinates assigned)
CCN1CC[NH+](C(=O)C2=Cc3ccccc3OC2)CC1 (nonaromatic ring conformer: 59.91198501885536 kcal/mol)

>  <smiles>  (53) 
CCN1CCN(C(=O)C2=Cc3ccccc3OC2)CC1

>  <score_type>  (53) 
oracle

>  <origin>  (53) 
adg

>  <m_score__min__energy>  (53) 
-6.1100000000000003

>  <m_primary>  (53) 
energy

$$$$
53:0
     RDKit          3D

 54 57  0  0  0  0  0  0  0  0999 V2000
   55.5400   26.6620   46.0200 O   0  0  0  0  0  0  0  0  0  0  0  0
   56.2940   27.5830   45.6170 C   0  0  0  0  0  0  0  0  0  0  0  0
   57.7090   27.4570   45.8090 N   0  0  0  0  0  0  0  0  0  0  0  0
   58.4480   27.8850   46.9630 C   0  0  0  0  0  0  0  0  0  0  0  0
   58.3270   29.2110   47.3890 C   0  0  0  0  0  0  0  0  0  0  0  0
   59.0560   29.6710   48.4900 C   0  0  0  0  0  0  0  0  0  0  0  0
   59.9410   28.8150   49.1630 C   0  0  0  0  0  0  0  0  0  0  0  0
   60.7910   29.3300   50.3040 C   0  0  0  0  0  0  0  0  0  0  0  0
   60.1010   30.3550   51.1090 N   0  0  0  0  0  0  0  0  0  0  0  0
   59.4450   29.8290   52.3190 C   0  0  0  0  0  0  0  0  0  0  0  0
   57.9390   29.9490   52.2660 C   0  0  0  0  0  0  0  0  0  0  0  0
   57.3340   31.1120   51.7620 C   0  0  0  0  0  0  0  0  0  0  0  0
   55.9470   31.2670   51.8180 C   0  0  0  0  0  0  0  0  0  0  0  0
   55.1360   30.2530   52.3580 C   0  0  0  0  0  0  0  0  0  0  0  0
   53.6690   30.4480   52.4880 C   0  0  0  0  0  0  0  0  0  0  0  0
   52.9060   29.6190   53.3320 C   0  0  0  0  0  0  0  0  0  0  0  0
   51.5300   29.8210   53.4670 C   0  0  0  0  0  0  0  0  0  0  0  0
   50.8990   30.8500   52.7650 C   0  0  0  0  0  0  0  0  0  0  0  0
   51.6450   31.6800   51.9240 C   0  0  0  0  0  0  0  0  0  0  0  0
   51.0170   32.7070   51.2290 O   0  0  0  0  0  0  0  0  0  0  0  0
   53.0220   31.4800   51.7830 C   0  0  0  0  0  0  0  0  0  0  0  0
   55.7400   29.0630   52.8010 C   0  0  0  0  0  0  0  0  0  0  0  0
   57.1280   28.9110   52.7500 C   0  0  0  0  0  0  0  0  0  0  0  0
   60.0460   27.4770   48.7490 C   0  0  0  0  0  0  0  0  0  0  0  0
   59.3220   27.0210   47.6430 C   0  0  0  0  0  0  0  0  0  0  0  0
   55.7130   28.7270   44.9770 N   0  0  0  0  0  0  0  0  0  0  0  0
   56.4290   29.7490   44.2690 C   0  0  0  0  0  0  0  0  0  0  0  0
   56.2860   29.9260   42.8810 C   0  0  0  0  0  0  0  0  0  0  0  0
   57.0040   30.9280   42.2220 C   0  0  0  0  0  0  0  0  0  0  0  0
   57.8540   31.7710   42.9440 C   0  0  0  0  0  0  0  0  0  0  0  0
   57.9800   31.6170   44.3280 C   0  0  0  0  0  0  0  0  0  0  0  0
   58.7980   32.4400   45.0300 F   0  0  0  0  0  0  0  0  0  0  0  0
   57.2630   30.6150   44.9890 C   0  0  0  0  0  0  0  0  0  0  0  0
   57.6537   29.8972   46.8544 H   0  0  0  0  0  0  0  0  0  0  0  0
   58.9350   30.7099   48.8305 H   0  0  0  0  0  0  0  0  0  0  0  0
   61.0515   28.4850   50.9583 H   0  0  0  0  0  0  0  0  0  0  0  0
   61.6862   29.7969   49.8675 H   0  0  0  0  0  0  0  0  0  0  0  0
   60.7380   31.1500   51.3430 H   0  0  0  0  0  0  0  0  0  0  0  0
   59.7096   28.7670   52.4292 H   0  0  0  0  0  0  0  0  0  0  0  0
   59.7958   30.4267   53.1732 H   0  0  0  0  0  0  0  0  0  0  0  0
   57.9558   31.9050   51.3208 H   0  0  0  0  0  0  0  0  0  0  0  0
   55.4853   32.1897   51.4366 H   0  0  0  0  0  0  0  0  0  0  0  0
   53.3963   28.8069   53.8889 H   0  0  0  0  0  0  0  0  0  0  0  0
   50.9421   29.1675   54.1283 H   0  0  0  0  0  0  0  0  0  0  0  0
   49.8157   31.0071   52.8739 H   0  0  0  0  0  0  0  0  0  0  0  0
   53.6034   32.1339   51.1164 H   0  0  0  0  0  0  0  0  0  0  0  0
   55.1152   28.2458   53.1906 H   0  0  0  0  0  0  0  0  0  0  0  0
   57.5879   27.9719   53.0914 H   0  0  0  0  0  0  0  0  0  0  0  0
   60.7011   26.7843   49.2976 H   0  0  0  0  0  0  0  0  0  0  0  0
   59.4375   25.9809   47.3040 H   0  0  0  0  0  0  0  0  0  0  0  0
   55.6069   29.2738   42.3123 H   0  0  0  0  0  0  0  0  0  0  0  0
   56.9001   31.0534   41.1341 H   0  0  0  0  0  0  0  0  0  0  0  0
   58.4234   32.5551   42.4235 H   0  0  0  0  0  0  0  0  0  0  0  0
   57.3540   30.5059   46.0798 H   0  0  0  0  0  0  0  0  0  0  0  0
  1  2  2  0
  2  3  1  0
  3  4  1  0
  4  5  2  0
  5  6  1  0
  6  7  2  0
  7  8  1  0
  8  9  1  0
  9 10  1  0
 10 11  1  0
 11 12  2  0
 12 13  1  0
 13 14  2  0
 14 15  1  0
 15 16  2  0
 16 17  1  0
 17 18  2  0
 18 19  1  0
 19 20  1  0
 19 21  2  0
 14 22  1  0
 22 23  2  0
  7 24  1  0
 24 25  2  0
  2 26  1  0
 26 27  1  0
 27 28  2  0
 28 29  1  0
 29 30  2  0
 30 31  1  0
 31 32  1  0
 31 33  2  0
 25  4  1  0
 33 27  1  0
 23 11  1  0
 21 15  1  0
  5 34  1  0
  6 35  1  0
  8 36  1  0
  8 37  1  0
  9 38  1  0
 10 39  1  0
 10 40  1  0
 12 41  1  0
 13 42  1  0
 16 43  1  0
 17 44  1  0
 18 45  1  0
 21 46  1  0
 22 47  1  0
 23 48  1  0
 24 49  1  0
 25 50  1  0
 28 51  1  0
 29 52  1  0
 30 53  1  0
 33 54  1  0
M  CHG  3   3  -1  20  -1  26  -1
M  END
>  <UniqueID>  (54) 
49

>  <SMILES>  (54) 
O=C([N-]c1ccc(CNCc2ccc(-c3cccc([O-])c3)cc2)cc1)[N-]c1cccc(F)c1

>  <Energy>  (54) 
68.3619084762653

>  <Genealogy>  (54) 
O=C([N-]c1ccc(CNCc2ccc(-c3cccc([O-])c3)cc2)cc1)[N-]c1cccc(F)c1 (protonated)
O=C([N-]c1ccc(CNCc2ccc(-c3cccc([O-])c3)cc2)cc1)[N-]c1cccc(F)c1 (3D coordinates assigned)
O=C([N-]c1ccc(CNCc2ccc(-c3cccc([O-])c3)cc2)cc1)[N-]c1cccc(F)c1 (optimized conformer: 68.3619084762653 kcal/mol)

>  <smiles>  (54) 
O=C(Nc1ccc(CNCc2ccc(-c3cccc(O)c3)cc2)cc1)Nc1cccc(F)c1

>  <score_type>  (54) 
oracle

>  <origin>  (54) 
adg

>  <m_score__min__energy>  (54) 
-16.670000000000002

>  <m_primary>  (54) 
energy

$$$$
54:0
     RDKit          3D

 53 55  0  0  0  0  0  0  0  0999 V2000
   59.6330   34.8850   47.5880 C   0  0  0  0  0  0  0  0  0  0  0  0
   60.3220   33.5820   47.9960 C   0  0  1  0  0  0  0  0  0  0  0  0
   60.7910   32.7910   46.7460 C   0  0  0  0  0  0  0  0  0  0  0  0
   61.8680   31.8310   47.0660 N   0  0  0  0  0  0  0  0  0  0  0  0
   61.3990   30.6730   47.8600 C   0  0  0  0  0  0  0  0  0  0  0  0
   60.2560   29.9710   47.1720 C   0  0  0  0  0  0  0  0  0  0  0  0
   60.1460   30.0110   45.7750 C   0  0  0  0  0  0  0  0  0  0  0  0
   59.0770   29.3820   45.1320 C   0  0  0  0  0  0  0  0  0  0  0  0
   58.0940   28.7080   45.8770 C   0  0  0  0  0  0  0  0  0  0  0  0
   56.9400   28.0120   45.1730 C   0  0  1  0  0  0  0  0  0  0  0  0
   56.5180   26.7700   45.9780 C   0  0  0  0  0  0  0  0  0  0  0  0
   55.1200   26.6620   45.9970 O   0  0  0  0  0  0  0  0  0  0  0  0
   55.7970   28.9390   45.0230 N   0  0  0  0  0  0  0  0  0  0  0  0
   55.8610   29.6870   43.7600 C   0  0  0  0  0  0  0  0  0  0  0  0
   56.6330   30.9550   43.9650 C   0  0  0  0  0  0  0  0  0  0  0  0
   57.3720   31.5230   42.9150 C   0  0  0  0  0  0  0  0  0  0  0  0
   58.1110   32.6840   43.1480 C   0  0  0  0  0  0  0  0  0  0  0  0
   58.1160   33.2610   44.4180 C   0  0  0  0  0  0  0  0  0  0  0  0
   57.3810   32.6630   45.4430 C   0  0  0  0  0  0  0  0  0  0  0  0
   56.6660   31.5310   45.1980 N   0  0  0  0  0  0  0  0  0  0  0  0
   58.2110   28.6660   47.2780 C   0  0  0  0  0  0  0  0  0  0  0  0
   59.2800   29.2950   47.9210 C   0  0  0  0  0  0  0  0  0  0  0  0
   63.0490   32.4950   47.6770 C   0  0  0  0  0  0  0  0  0  0  0  0
   62.7350   33.8750   48.2900 C   0  0  0  0  0  0  0  0  0  0  0  0
   61.4200   33.8800   48.9380 N   0  0  0  0  0  0  0  0  0  0  0  0
   59.3385   35.4420   48.4897 H   0  0  0  0  0  0  0  0  0  0  0  0
   60.3265   35.4949   46.9904 H   0  0  0  0  0  0  0  0  0  0  0  0
   58.7385   34.6553   46.9904 H   0  0  0  0  0  0  0  0  0  0  0  0
   59.6073   32.9286   48.5179 H   0  0  0  0  0  0  0  0  0  0  0  0
   59.9339   32.2379   46.3344 H   0  0  0  0  0  0  0  0  0  0  0  0
   61.1875   33.5136   46.0176 H   0  0  0  0  0  0  0  0  0  0  0  0
   62.2308   29.9647   47.9882 H   0  0  0  0  0  0  0  0  0  0  0  0
   61.0481   31.0379   48.8366 H   0  0  0  0  0  0  0  0  0  0  0  0
   60.9058   30.5407   45.1816 H   0  0  0  0  0  0  0  0  0  0  0  0
   59.0041   29.4145   44.0349 H   0  0  0  0  0  0  0  0  0  0  0  0
   57.2662   27.6977   44.1706 H   0  0  0  0  0  0  0  0  0  0  0  0
   56.9464   25.8707   45.5113 H   0  0  0  0  0  0  0  0  0  0  0  0
   56.8864   26.8667   47.0100 H   0  0  0  0  0  0  0  0  0  0  0  0
   54.7980   27.0930   45.1630 H   0  0  0  0  0  0  0  0  0  0  0  0
   55.8350   29.6510   45.7920 H   0  0  0  0  0  0  0  0  0  0  0  0
   56.3610   29.0734   42.9961 H   0  0  0  0  0  0  0  0  0  0  0  0
   54.8410   29.9301   43.4274 H   0  0  0  0  0  0  0  0  0  0  0  0
   57.3686   31.0576   41.9183 H   0  0  0  0  0  0  0  0  0  0  0  0
   58.6882   33.1430   42.3318 H   0  0  0  0  0  0  0  0  0  0  0  0
   58.6931   34.1776   44.6097 H   0  0  0  0  0  0  0  0  0  0  0  0
   57.3796   33.1069   46.4495 H   0  0  0  0  0  0  0  0  0  0  0  0
   57.4542   28.1333   47.8726 H   0  0  0  0  0  0  0  0  0  0  0  0
   59.3571   29.2604   49.0177 H   0  0  0  0  0  0  0  0  0  0  0  0
   63.4418   31.8432   48.4713 H   0  0  0  0  0  0  0  0  0  0  0  0
   63.7788   32.6595   46.8706 H   0  0  0  0  0  0  0  0  0  0  0  0
   63.5043   34.1192   49.0374 H   0  0  0  0  0  0  0  0  0  0  0  0
   62.7284   34.6217   47.4823 H   0  0  0  0  0  0  0  0  0  0  0  0
   61.4270   33.1640   49.7030 H   0  0  0  0  0  0  0  0  0  0  0  0
  1  2  1  0
  2  3  1  0
  3  4  1  0
  4  5  1  0
  5  6  1  0
  6  7  2  0
  7  8  1  0
  8  9  2  0
  9 10  1  0
 10 11  1  0
 11 12  1  0
 10 13  1  0
 13 14  1  0
 14 15  1  0
 15 16  2  0
 16 17  1  0
 17 18  2  0
 18 19  1  0
 19 20  2  0
  9 21  1  0
 21 22  2  0
  4 23  1  0
 23 24  1  0
 24 25  1  0
 25  2  1  0
 22  6  1  0
 20 15  1  0
  1 26  1  0
  1 27  1  0
  1 28  1  0
  2 29  1  1
  3 30  1  0
  3 31  1  0
  5 32  1  0
  5 33  1  0
  7 34  1  0
  8 35  1  0
 10 36  1  6
 11 37  1  0
 11 38  1  0
 12 39  1  0
 13 40  1  0
 14 41  1  0
 14 42  1  0
 16 43  1  0
 17 44  1  0
 18 45  1  0
 19 46  1  0
 21 47  1  0
 22 48  1  0
 23 49  1  0
 23 50  1  0
 24 51  1  0
 24 52  1  0
 25 53  1  0
M  END
>  <UniqueID>  (55) 
50

>  <SMILES>  (55) 
C[C@H]1CN(Cc2ccc([C@@H](CO)NCc3ccccn3)cc2)CCN1

>  <Energy>  (55) 
62.424269078339364

>  <Genealogy>  (55) 
C[C@H]1CN(Cc2ccc([C@@H](CO)NCc3ccccn3)cc2)CCN1 (chirality)
C[C@H]1CN(Cc2ccc([C@@H](CO)NCc3ccccn3)cc2)CCN1 (3D coordinates assigned)
C[C@H]1CN(Cc2ccc([C@@H](CO)NCc3ccccn3)cc2)CCN1 (nonaromatic ring conformer: 62.424269078339364 kcal/mol)

>  <smiles>  (55) 
CC1CN(Cc2ccc(C(CO)NCc3ccccn3)cc2)CCN1

>  <score_type>  (55) 
oracle

>  <origin>  (55) 
adg

>  <m_score__min__energy>  (55) 
-10.130000000000001

>  <m_primary>  (55) 
energy

$$$$
55:0
     RDKit          3D

 64 67  0  0  0  0  0  0  0  0999 V2000
   56.6560   23.8780   44.4090 C   0  0  0  0  0  0  0  0  0  0  0  0
   55.9920   23.3880   45.6910 C   0  0  0  0  0  0  0  0  0  0  0  0
   55.8930   24.4480   46.6380 O   0  0  0  0  0  0  0  0  0  0  0  0
   55.9240   25.8010   46.2810 C   0  0  0  0  0  0  0  0  0  0  0  0
   54.9460   26.3130   45.6650 O   0  0  0  0  0  0  0  0  0  0  0  0
   57.0600   26.6140   46.6290 N   0  0  0  0  0  0  0  0  0  0  0  0
   58.1380   26.1060   47.4810 C   0  0  0  0  0  0  0  0  0  0  0  0
   59.4590   26.0930   46.6910 C   0  0  0  0  0  0  0  0  0  0  0  0
   59.7370   27.3700   45.9820 N   0  0  0  0  0  0  0  0  0  0  0  0
   60.2350   28.4080   46.8790 C   0  0  0  0  0  0  0  0  0  0  0  0
   60.7310   28.1120   47.9550 O   0  0  0  0  0  0  0  0  0  0  0  0
   60.1600   29.8810   46.5150 C   0  0  2  0  0  0  0  0  0  0  0  0
   61.2840   30.6950   47.1740 C   0  0  0  0  0  0  0  0  0  0  0  0
   61.1800   32.1620   46.7370 C   0  0  2  0  0  0  0  0  0  0  0  0
   62.2960   33.0290   47.3390 C   0  0  0  0  0  0  0  0  0  0  0  0
   62.1110   33.2650   48.8170 C   0  0  0  0  0  0  0  0  0  0  0  0
   60.8140   33.3090   49.3820 C   0  0  0  0  0  0  0  0  0  0  0  0
   60.6710   33.5750   50.7530 C   0  0  0  0  0  0  0  0  0  0  0  0
   61.7930   33.7790   51.5600 C   0  0  0  0  0  0  0  0  0  0  0  0
   63.0680   33.7320   51.0060 C   0  0  0  0  0  0  0  0  0  0  0  0
   63.2350   33.4970   49.6340 C   0  0  0  0  0  0  0  0  0  0  0  0
   64.5150   33.5230   49.0700 O   0  0  0  0  0  0  0  0  0  0  0  0
   65.6420   32.9690   49.7410 C   0  0  0  0  0  0  0  0  0  0  0  0
   59.5640   33.0110   48.5850 C   0  0  0  0  0  0  0  0  0  0  0  0
   59.7880   32.7550   47.0700 C   0  0  2  0  0  0  0  0  0  0  0  0
   58.6790   31.9210   46.5300 N   0  0  0  0  0  0  0  0  0  0  0  0
   58.4570   32.1470   45.0890 C   0  0  0  0  0  0  0  0  0  0  0  0
   58.7830   30.4760   46.8610 C   0  0  0  0  0  0  0  0  0  0  0  0
   58.5820   27.8480   45.1830 C   0  0  0  0  0  0  0  0  0  0  0  0
   57.2870   27.9140   45.9930 C   0  0  0  0  0  0  0  0  0  0  0  0
   57.5174   24.5136   44.6620 H   0  0  0  0  0  0  0  0  0  0  0  0
   56.9982   23.0143   43.8200 H   0  0  0  0  0  0  0  0  0  0  0  0
   55.9316   24.4596   43.8200 H   0  0  0  0  0  0  0  0  0  0  0  0
   54.9835   23.0161   45.4571 H   0  0  0  0  0  0  0  0  0  0  0  0
   56.6029   22.5813   46.1223 H   0  0  0  0  0  0  0  0  0  0  0  0
   58.2450   26.7556   48.3622 H   0  0  0  0  0  0  0  0  0  0  0  0
   57.8961   25.0829   47.8045 H   0  0  0  0  0  0  0  0  0  0  0  0
   60.2830   25.8977   47.3931 H   0  0  0  0  0  0  0  0  0  0  0  0
   59.3706   25.3091   45.9244 H   0  0  0  0  0  0  0  0  0  0  0  0
   60.4930   27.1470   45.2950 H   0  0  0  0  0  0  0  0  0  0  0  0
   60.2984   29.9460   45.4257 H   0  0  0  0  0  0  0  0  0  0  0  0
   61.1894   30.6312   48.2681 H   0  0  0  0  0  0  0  0  0  0  0  0
   62.2587   30.2896   46.8649 H   0  0  0  0  0  0  0  0  0  0  0  0
   61.3076   32.1730   45.6445 H   0  0  0  0  0  0  0  0  0  0  0  0
   63.2599   32.5232   47.1806 H   0  0  0  0  0  0  0  0  0  0  0  0
   62.2655   34.0078   46.8381 H   0  0  0  0  0  0  0  0  0  0  0  0
   59.6654   33.6233   51.1963 H   0  0  0  0  0  0  0  0  0  0  0  0
   61.6680   33.9770   52.6348 H   0  0  0  0  0  0  0  0  0  0  0  0
   63.9494   33.8799   51.6474 H   0  0  0  0  0  0  0  0  0  0  0  0
   65.4936   33.0419   50.8285 H   0  0  0  0  0  0  0  0  0  0  0  0
   65.7553   31.9125   49.4564 H   0  0  0  0  0  0  0  0  0  0  0  0
   66.5478   33.5246   49.4564 H   0  0  0  0  0  0  0  0  0  0  0  0
   59.0924   32.1150   49.0149 H   0  0  0  0  0  0  0  0  0  0  0  0
   58.9385   33.9134   48.6517 H   0  0  0  0  0  0  0  0  0  0  0  0
   59.7761   33.7342   46.5690 H   0  0  0  0  0  0  0  0  0  0  0  0
   57.6920   32.9258   44.9536 H   0  0  0  0  0  0  0  0  0  0  0  0
   59.3975   32.4713   44.6195 H   0  0  0  0  0  0  0  0  0  0  0  0
   58.1160   31.2125   44.6195 H   0  0  0  0  0  0  0  0  0  0  0  0
   58.6065   30.3491   47.9393 H   0  0  0  0  0  0  0  0  0  0  0  0
   58.0321   29.9439   46.2585 H   0  0  0  0  0  0  0  0  0  0  0  0
   58.8103   28.8547   44.8029 H   0  0  0  0  0  0  0  0  0  0  0  0
   58.4248   27.1287   44.3657 H   0  0  0  0  0  0  0  0  0  0  0  0
   57.3732   28.6930   46.7649 H   0  0  0  0  0  0  0  0  0  0  0  0
   56.4439   28.1574   45.3298 H   0  0  0  0  0  0  0  0  0  0  0  0
  1  2  1  0
  2  3  1  0
  3  4  1  0
  4  5  2  0
  4  6  1  0
  6  7  1  0
  7  8  1  0
  8  9  1  0
  9 10  1  0
 10 11  2  0
 10 12  1  0
 12 13  1  0
 13 14  1  0
 14 15  1  0
 15 16  1  0
 16 17  2  0
 17 18  1  0
 18 19  2  0
 19 20  1  0
 20 21  2  0
 21 22  1  0
 22 23  1  0
 17 24  1  0
 24 25  1  0
 25 26  1  0
 26 27  1  0
 26 28  1  0
  9 29  1  0
 29 30  1  0
 30  6  1  0
 28 12  1  0
 25 14  1  0
 21 16  1  0
  1 31  1  0
  1 32  1  0
  1 33  1  0
  2 34  1  0
  2 35  1  0
  7 36  1  0
  7 37  1  0
  8 38  1  0
  8 39  1  0
  9 40  1  0
 12 41  1  6
 13 42  1  0
 13 43  1  0
 14 44  1  6
 15 45  1  0
 15 46  1  0
 18 47  1  0
 19 48  1  0
 20 49  1  0
 23 50  1  0
 23 51  1  0
 23 52  1  0
 24 53  1  0
 24 54  1  0
 25 55  1  6
 27 56  1  0
 27 57  1  0
 27 58  1  0
 28 59  1  0
 28 60  1  0
 29 61  1  0
 29 62  1  0
 30 63  1  0
 30 64  1  0
M  CHG  1   9   1
M  END
>  <UniqueID>  (56) 
51

>  <SMILES>  (56) 
CCOC(=O)N1CC[NH+](C(=O)[C@@H]2C[C@@H]3Cc4c(cccc4OC)CC3N(C)C2)CC1

>  <Energy>  (56) 
79.51129099353007

>  <Genealogy>  (56) 
CCOC(=O)N1CC[NH+](C(=O)C2CC3Cc4c(cccc4OC)CC3N(C)C2)CC1 (protonated)
CCOC(=O)N1CC[NH+](C(=O)[C@@H]2C[C@@H]3Cc4c(cccc4OC)CC3N(C)C2)CC1 (chirality)
CCOC(=O)N1CC[NH+](C(=O)[C@@H]2C[C@@H]3Cc4c(cccc4OC)CC3N(C)C2)CC1 (3D coordinates assigned)
CCOC(=O)N1CC[NH+](C(=O)[C@@H]2C[C@@H]3Cc4c(cccc4OC)CC3N(C)C2)CC1 (nonaromatic ring conformer: 79.51129099353007 kcal/mol)

>  <smiles>  (56) 
CCOC(=O)N1CCN(C(=O)C2CC3Cc4c(cccc4OC)CC3N(C)C2)CC1

>  <score_type>  (56) 
oracle

>  <origin>  (56) 
adg

>  <m_score__min__energy>  (56) 
-6.7599999999999998

>  <m_primary>  (56) 
energy

$$$$
56:0
     RDKit          3D

 29 30  0  0  0  0  0  0  0  0999 V2000
   58.4804   33.7475   43.1281 H   0  0  0  0  0  0  0  0  0  0  0  0
   58.4450   33.2630   44.1150 C   0  0  0  0  0  0  0  0  0  0  0  0
   58.0890   31.9150   44.2130 C   0  0  0  0  0  0  0  0  0  0  0  0
   57.8463   31.3449   43.3041 H   0  0  0  0  0  0  0  0  0  0  0  0
   58.0400   31.2860   45.4670 C   0  0  0  0  0  0  0  0  0  0  0  0
   57.6710   29.8950   45.5690 N   0  0  0  0  0  0  0  0  0  0  0  0
   58.5530   28.9790   46.0770 C   0  0  0  0  0  0  0  0  0  0  0  0
   59.6950   29.3350   46.4770 O   0  0  0  0  0  0  0  0  0  0  0  0
   58.2010   27.6740   46.1700 N   0  0  0  0  0  0  0  0  0  0  0  0
   56.9740   27.2570   45.7640 C   0  0  0  0  0  0  0  0  0  0  0  0
   56.6350   26.0040   45.8520 N   0  0  0  0  0  0  0  0  0  0  0  0
   56.9690   24.9950   44.8530 C   0  0  0  0  0  0  0  0  0  0  0  0
   57.2762   24.0671   45.3576 H   0  0  0  0  0  0  0  0  0  0  0  0
   56.0887   24.7963   44.2240 H   0  0  0  0  0  0  0  0  0  0  0  0
   57.7940   25.3608   44.2240 H   0  0  0  0  0  0  0  0  0  0  0  0
   56.0930   28.1590   45.2620 N   0  0  0  0  0  0  0  0  0  0  0  0
   55.1460   27.8450   44.9460 H   0  0  0  0  0  0  0  0  0  0  0  0
   56.4340   29.4710   45.1600 C   0  0  0  0  0  0  0  0  0  0  0  0
   55.6040   30.2890   44.6740 O   0  0  0  0  0  0  0  0  0  0  0  0
   58.3520   32.0240   46.6190 C   0  0  0  0  0  0  0  0  0  0  0  0
   58.3162   31.5385   47.6054 H   0  0  0  0  0  0  0  0  0  0  0  0
   58.7080   33.3720   46.5210 C   0  0  0  0  0  0  0  0  0  0  0  0
   58.9507   33.9425   47.4297 H   0  0  0  0  0  0  0  0  0  0  0  0
   58.7570   34.0020   45.2630 C   0  0  0  0  0  0  0  0  0  0  0  0
   59.1100   35.3520   45.1100 O   0  0  0  0  0  0  0  0  0  0  0  0
   60.0030   36.0510   45.9710 C   0  0  0  0  0  0  0  0  0  0  0  0
   59.7391   35.8445   47.0187 H   0  0  0  0  0  0  0  0  0  0  0  0
   61.0335   35.7170   45.7797 H   0  0  0  0  0  0  0  0  0  0  0  0
   59.9263   37.1315   45.7797 H   0  0  0  0  0  0  0  0  0  0  0  0
  1  2  1  0
  2  3  2  0
  3  4  1  0
  3  5  1  0
  5  6  1  0
  6  7  1  0
  7  8  2  0
  7  9  1  0
  9 10  1  0
 10 11  2  0
 11 12  1  0
 12 13  1  0
 12 14  1  0
 12 15  1  0
 10 16  1  0
 16 17  1  0
 16 18  1  0
 18 19  2  0
  5 20  2  0
 20 21  1  0
 20 22  1  0
 22 23  1  0
 22 24  2  0
 24 25  1  0
 25 26  1  0
 26 27  1  0
 26 28  1  0
 26 29  1  0
 24  2  1  0
 18  6  1  0
M  CHG  1   9  -1
M  END
>  <UniqueID>  (57) 
52

>  <SMILES>  (57) 
C/N=c1\[n-]c(=O)n(-c2ccc(OC)cc2)c(=O)[nH]1

>  <Energy>  (57) 
37.96076235153919

>  <Genealogy>  (57) 
CN=c1[n-]c(=O)n(-c2ccc(OC)cc2)c(=O)[nH]1 (protonated)
C/N=c1\[n-]c(=O)n(-c2ccc(OC)cc2)c(=O)[nH]1 (cis-trans isomerization)
C/N=c1\[n-]c(=O)n(-c2ccc(OC)cc2)c(=O)[nH]1 (3D coordinates assigned)
C/N=c1\[n-]c(=O)n(-c2ccc(OC)cc2)c(=O)[nH]1 (optimized conformer: 37.96076235153919 kcal/mol)

>  <smiles>  (57) 
CN=c1[nH]c(=O)n(-c2ccc(OC)cc2)c(=O)[nH]1

>  <score_type>  (57) 
oracle

>  <origin>  (57) 
adg

>  <m_score__min__energy>  (57) 
-7.2199999999999998

>  <m_primary>  (57) 
energy

$$$$
57:0
     RDKit          3D

 52 55  0  0  0  0  0  0  0  0999 V2000
   58.0860   27.0350   42.7340 C   0  0  0  0  0  0  0  0  0  0  0  0
   57.9550   26.5740   44.0760 O   0  0  0  0  0  0  0  0  0  0  0  0
   58.3910   27.2770   45.2110 C   0  0  0  0  0  0  0  0  0  0  0  0
   59.5280   28.1080   45.1620 C   0  0  0  0  0  0  0  0  0  0  0  0
   59.9590   28.7920   46.2990 C   0  0  0  0  0  0  0  0  0  0  0  0
   59.2680   28.6570   47.5050 C   0  0  0  0  0  0  0  0  0  0  0  0
   59.7560   29.5920   48.9140 S   0  0  0  0  0  0  0  0  0  0  0  0
   61.1190   29.1580   49.3750 O   0  0  0  0  0  0  0  0  0  0  0  0
   58.7840   29.3480   50.0350 O   0  0  0  0  0  0  0  0  0  0  0  0
   59.7940   31.2840   48.5140 N   0  0  0  0  0  0  0  0  0  0  0  0
   58.5400   31.9510   48.1370 C   0  0  0  0  0  0  0  0  0  0  0  0
   58.6890   32.7270   46.8410 C   0  0  0  0  0  0  0  0  0  0  0  0
   59.2280   34.0250   46.8980 C   0  0  0  0  0  0  0  0  0  0  0  0
   59.3330   34.8100   45.7520 C   0  0  0  0  0  0  0  0  0  0  0  0
   58.9000   34.3190   44.5220 C   0  0  0  0  0  0  0  0  0  0  0  0
   58.3590   33.0310   44.4260 C   0  0  0  0  0  0  0  0  0  0  0  0
   57.9180   32.5460   43.1850 C   0  0  0  0  0  0  0  0  0  0  0  0
   57.3770   31.2640   43.0820 C   0  0  0  0  0  0  0  0  0  0  0  0
   57.2760   30.4530   44.2120 C   0  0  0  0  0  0  0  0  0  0  0  0
   57.7130   30.9210   45.4530 C   0  0  0  0  0  0  0  0  0  0  0  0
   58.2540   32.2160   45.5870 C   0  0  0  0  0  0  0  0  0  0  0  0
   61.0660   31.9160   48.2970 C   0  0  0  0  0  0  0  0  0  0  0  0
   61.4060   33.0710   49.0160 C   0  0  0  0  0  0  0  0  0  0  0  0
   62.6320   33.7040   48.7920 C   0  0  0  0  0  0  0  0  0  0  0  0
   63.5260   33.1860   47.8510 C   0  0  0  0  0  0  0  0  0  0  0  0
   63.1930   32.0350   47.1310 C   0  0  0  0  0  0  0  0  0  0  0  0
   61.9670   31.4000   47.3520 C   0  0  0  0  0  0  0  0  0  0  0  0
   58.1410   27.8310   47.5680 C   0  0  0  0  0  0  0  0  0  0  0  0
   57.6830   27.1400   46.4290 C   0  0  0  0  0  0  0  0  0  0  0  0
   56.5010   26.3170   46.5230 N   0  0  0  0  0  0  0  0  0  0  0  0
   56.5290   25.2430   47.1610 O   0  0  0  0  0  0  0  0  0  0  0  0
   55.3080   26.7170   45.9690 O   0  0  0  0  0  0  0  0  0  0  0  0
   58.3867   28.0931   42.7375 H   0  0  0  0  0  0  0  0  0  0  0  0
   58.8502   26.4384   42.2143 H   0  0  0  0  0  0  0  0  0  0  0  0
   57.1223   26.9294   42.2143 H   0  0  0  0  0  0  0  0  0  0  0  0
   60.0813   28.2185   44.2177 H   0  0  0  0  0  0  0  0  0  0  0  0
   60.8463   29.4400   46.2453 H   0  0  0  0  0  0  0  0  0  0  0  0
   57.7552   31.1907   48.0099 H   0  0  0  0  0  0  0  0  0  0  0  0
   58.2736   32.6602   48.9346 H   0  0  0  0  0  0  0  0  0  0  0  0
   59.5720   34.4265   47.8626 H   0  0  0  0  0  0  0  0  0  0  0  0
   59.7595   35.8218   45.8184 H   0  0  0  0  0  0  0  0  0  0  0  0
   58.9835   34.9461   43.6221 H   0  0  0  0  0  0  0  0  0  0  0  0
   57.9992   33.1795   42.2894 H   0  0  0  0  0  0  0  0  0  0  0  0
   57.0293   30.8920   42.1070 H   0  0  0  0  0  0  0  0  0  0  0  0
   56.8510   29.4421   44.1255 H   0  0  0  0  0  0  0  0  0  0  0  0
   57.6341   30.2712   46.3370 H   0  0  0  0  0  0  0  0  0  0  0  0
   60.7055   33.4803   49.7588 H   0  0  0  0  0  0  0  0  0  0  0  0
   62.8934   34.6109   49.3570 H   0  0  0  0  0  0  0  0  0  0  0  0
   64.4913   33.6838   47.6770 H   0  0  0  0  0  0  0  0  0  0  0  0
   63.8964   31.6283   46.3895 H   0  0  0  0  0  0  0  0  0  0  0  0
   61.7079   30.4942   46.7842 H   0  0  0  0  0  0  0  0  0  0  0  0
   57.6041   27.7192   48.5215 H   0  0  0  0  0  0  0  0  0  0  0  0
  1  2  1  0
  2  3  1  0
  3  4  2  0
  4  5  1  0
  5  6  2  0
  6  7  1  0
  7  8  2  0
  7  9  2  0
  7 10  1  0
 10 11  1  0
 11 12  1  0
 12 13  2  0
 13 14  1  0
 14 15  2  0
 15 16  1  0
 16 17  2  0
 17 18  1  0
 18 19  2  0
 19 20  1  0
 20 21  2  0
 10 22  1  0
 22 23  2  0
 23 24  1  0
 24 25  2  0
 25 26  1  0
 26 27  2  0
  6 28  1  0
 28 29  2  0
 29 30  1  0
 30 31  2  0
 30 32  1  0
 29  3  1  0
 21 12  1  0
 27 22  1  0
 21 16  1  0
  1 33  1  0
  1 34  1  0
  1 35  1  0
  4 36  1  0
  5 37  1  0
 11 38  1  0
 11 39  1  0
 13 40  1  0
 14 41  1  0
 15 42  1  0
 17 43  1  0
 18 44  1  0
 19 45  1  0
 20 46  1  0
 23 47  1  0
 24 48  1  0
 25 49  1  0
 26 50  1  0
 27 51  1  0
 28 52  1  0
M  CHG  2  30   1  32  -1
M  END
>  <UniqueID>  (58) 
53

>  <SMILES>  (58) 
COc1ccc(S(=O)(=O)N(Cc2cccc3ccccc23)c2ccccc2)cc1[N+](=O)[O-]

>  <Energy>  (58) 
67.16218557958071

>  <Genealogy>  (58) 
COc1ccc(S(=O)(=O)N(Cc2cccc3ccccc23)c2ccccc2)cc1[N+](=O)[O-] (3D coordinates assigned)
COc1ccc(S(=O)(=O)N(Cc2cccc3ccccc23)c2ccccc2)cc1[N+](=O)[O-] (optimized conformer: 67.16218557958071 kcal/mol)

>  <smiles>  (58) 
COc1ccc(S(=O)(=O)N(Cc2cccc3ccccc23)c2ccccc2)cc1[N+](=O)[O-]

>  <score_type>  (58) 
oracle

>  <origin>  (58) 
adg

>  <m_score__min__energy>  (58) 
-10.24

>  <m_primary>  (58) 
energy

$$$$
58:0
     RDKit          3D

 67 70  0  0  0  0  0  0  0  0999 V2000
   59.3230   26.5820   55.0990 C   0  0  0  0  0  0  0  0  0  0  0  0
   60.1380   27.5920   54.5150 O   0  0  0  0  0  0  0  0  0  0  0  0
   60.3290   27.7640   53.1350 C   0  0  0  0  0  0  0  0  0  0  0  0
   59.7530   28.8410   52.4310 C   0  0  0  0  0  0  0  0  0  0  0  0
   59.9570   28.9870   51.0480 C   0  0  0  0  0  0  0  0  0  0  0  0
   59.3960   30.0890   50.3160 N   0  0  0  0  0  0  0  0  0  0  0  0
   60.1090   31.3030   50.0260 C   0  0  0  0  0  0  0  0  0  0  0  0
   60.9920   31.7120   50.8290 O   0  0  0  0  0  0  0  0  0  0  0  0
   59.7970   32.0980   48.8130 C   0  0  0  0  0  0  0  0  0  0  0  0
   59.9220   33.5000   48.8310 C   0  0  0  0  0  0  0  0  0  0  0  0
   59.6630   34.2490   47.6810 C   0  0  0  0  0  0  0  0  0  0  0  0
   59.2670   33.6160   46.5000 C   0  0  0  0  0  0  0  0  0  0  0  0
   58.9830   34.5870   45.0620 Cl  0  0  0  0  0  0  0  0  0  0  0  0
   59.1140   32.2180   46.4750 C   0  0  0  0  0  0  0  0  0  0  0  0
   58.7100   31.5370   45.2780 N   0  0  0  0  0  0  0  0  0  0  0  0
   57.7020   30.7190   45.1470 C   0  0  0  0  0  0  0  0  0  0  0  0
   56.5950   31.1400   44.4720 N   0  0  0  0  0  0  0  0  0  0  0  0
   55.5140   30.3260   44.2830 C   0  0  0  0  0  0  0  0  0  0  0  0
   55.5240   29.0600   44.7820 N   0  0  0  0  0  0  0  0  0  0  0  0
   56.5910   28.6520   45.4600 N   0  0  0  0  0  0  0  0  0  0  0  0
   56.8690   27.4520   45.9900 C   0  0  0  0  0  0  0  0  0  0  0  0
   56.0370   26.2860   45.9570 N   0  0  0  0  0  0  0  0  0  0  0  0
   56.3700   25.0010   46.4910 C   0  0  0  0  0  0  0  0  0  0  0  0
   55.5020   24.3030   47.0800 O   0  0  0  0  0  0  0  0  0  0  0  0
   57.7770   24.5030   46.3910 C   0  0  0  0  0  0  0  0  0  0  0  0
   58.1050   24.1430   44.9680 C   0  0  0  0  0  0  0  0  0  0  0  0
   58.0400   22.8990   44.4770 C   0  0  0  0  0  0  0  0  0  0  0  0
   57.0420   22.4970   43.5320 N   0  0  0  0  0  0  0  0  0  0  0  0
   57.0320   21.1120   43.0620 C   0  0  0  0  0  0  0  0  0  0  0  0
   55.9450   23.4190   43.2300 C   0  0  0  0  0  0  0  0  0  0  0  0
   58.1660   27.4940   46.4650 C   0  0  0  0  0  0  0  0  0  0  0  0
   58.6880   28.7280   46.2520 N   0  0  0  0  0  0  0  0  0  0  0  0
   57.6860   29.4020   45.6400 C   0  0  0  0  0  0  0  0  0  0  0  0
   59.4040   31.4670   47.6190 C   0  0  0  0  0  0  0  0  0  0  0  0
   60.7740   28.0670   50.3810 C   0  0  0  0  0  0  0  0  0  0  0  0
   61.3500   26.9960   51.0700 C   0  0  0  0  0  0  0  0  0  0  0  0
   61.1250   26.8330   52.4470 C   0  0  0  0  0  0  0  0  0  0  0  0
   61.6940   25.7400   53.1840 N   0  0  0  0  0  0  0  0  0  0  0  0
   62.9920   24.7190   52.6580 S   0  0  0  0  0  0  0  0  0  0  0  0
   64.0530   24.3030   54.0270 C   0  0  0  0  0  0  0  0  0  0  0  0
   63.8000   25.4610   51.6310 O   0  0  0  0  0  0  0  0  0  0  0  0
   62.4410   23.4720   52.0260 O   0  0  0  0  0  0  0  0  0  0  0  0
   59.3803   26.6530   56.1952 H   0  0  0  0  0  0  0  0  0  0  0  0
   58.2804   26.7202   54.7766 H   0  0  0  0  0  0  0  0  0  0  0  0
   59.6784   25.5922   54.7766 H   0  0  0  0  0  0  0  0  0  0  0  0
   59.1368   29.5756   52.9702 H   0  0  0  0  0  0  0  0  0  0  0  0
   58.3890   30.0380   50.0450 H   0  0  0  0  0  0  0  0  0  0  0  0
   60.2258   34.0093   49.7574 H   0  0  0  0  0  0  0  0  0  0  0  0
   59.7714   35.3434   47.7051 H   0  0  0  0  0  0  0  0  0  0  0  0
   54.6376   30.6932   43.7288 H   0  0  0  0  0  0  0  0  0  0  0  0
   58.4653   25.2896   46.7339 H   0  0  0  0  0  0  0  0  0  0  0  0
   57.8843   23.6069   47.0199 H   0  0  0  0  0  0  0  0  0  0  0  0
   58.4172   24.9506   44.2895 H   0  0  0  0  0  0  0  0  0  0  0  0
   58.7809   22.1582   44.8120 H   0  0  0  0  0  0  0  0  0  0  0  0
   57.0271   20.4315   43.9263 H   0  0  0  0  0  0  0  0  0  0  0  0
   56.1326   20.9379   42.4531 H   0  0  0  0  0  0  0  0  0  0  0  0
   57.9288   20.9249   42.4531 H   0  0  0  0  0  0  0  0  0  0  0  0
   55.5066   23.7874   44.1692 H   0  0  0  0  0  0  0  0  0  0  0  0
   56.3301   24.2686   42.6470 H   0  0  0  0  0  0  0  0  0  0  0  0
   55.1743   22.8935   42.6470 H   0  0  0  0  0  0  0  0  0  0  0  0
   58.6942   26.6555   46.9425 H   0  0  0  0  0  0  0  0  0  0  0  0
   59.3238   30.3705   47.5844 H   0  0  0  0  0  0  0  0  0  0  0  0
   60.9646   28.1879   49.3044 H   0  0  0  0  0  0  0  0  0  0  0  0
   61.9834   26.2763   50.5307 H   0  0  0  0  0  0  0  0  0  0  0  0
   63.5293   24.5083   54.9723 H   0  0  0  0  0  0  0  0  0  0  0  0
   64.3146   23.2357   53.9770 H   0  0  0  0  0  0  0  0  0  0  0  0
   64.9703   24.9081   53.9770 H   0  0  0  0  0  0  0  0  0  0  0  0
  1  2  1  0
  2  3  1  0
  3  4  2  0
  4  5  1  0
  5  6  1  0
  6  7  1  0
  7  8  2  0
  7  9  1  0
  9 10  2  0
 10 11  1  0
 11 12  2  0
 12 13  1  0
 12 14  1  0
 14 15  1  0
 15 16  2  3
 16 17  1  0
 17 18  1  0
 18 19  2  0
 19 20  1  0
 20 21  1  0
 21 22  1  0
 22 23  1  0
 23 24  2  0
 23 25  1  0
 25 26  1  0
 26 27  2  3
 27 28  1  0
 28 29  1  0
 28 30  1  0
 21 31  2  0
 31 32  1  0
 32 33  2  0
 14 34  2  0
  5 35  2  0
 35 36  1  0
 36 37  2  0
 37 38  1  0
 38 39  1  0
 39 40  1  0
 39 41  2  0
 39 42  2  0
 37  3  1  0
 34  9  1  0
 33 16  1  0
 33 20  1  0
  1 43  1  0
  1 44  1  0
  1 45  1  0
  4 46  1  0
  6 47  1  0
 10 48  1  0
 11 49  1  0
 18 50  1  0
 25 51  1  0
 25 52  1  0
 26 53  1  0
 27 54  1  0
 29 55  1  0
 29 56  1  0
 29 57  1  0
 30 58  1  0
 30 59  1  0
 30 60  1  0
 31 61  1  0
 34 62  1  0
 35 63  1  0
 36 64  1  0
 40 65  1  0
 40 66  1  0
 40 67  1  0
M  CHG  3  17  -1  22  -1  38  -1
M  END
>  <UniqueID>  (59) 
54

>  <SMILES>  (59) 
COc1cc(NC(=O)c2ccc(Cl)c(N=c3[n-]cnn4c([N-]C(=O)CC=CN(C)C)cnc34)c2)ccc1[N-]S(C)(=O)=O

>  <Energy>  (59) 
131.4489984334251

>  <Genealogy>  (59) 
COc1cc(NC(=O)c2ccc(Cl)c(N=c3[n-]cnn4c([N-]C(=O)CC=CN(C)C)cnc34)c2)ccc1[N-]S(C)(=O)=O (protonated)
COc1cc(NC(=O)c2ccc(Cl)c(N=c3[n-]cnn4c([N-]C(=O)CC=CN(C)C)cnc34)c2)ccc1[N-]S(C)(=O)=O (3D coordinates assigned)
COc1cc(NC(=O)c2ccc(Cl)c(N=c3[n-]cnn4c([N-]C(=O)CC=CN(C)C)cnc34)c2)ccc1[N-]S(C)(=O)=O (optimized conformer: 131.4489984334251 kcal/mol)

>  <smiles>  (59) 
COc1cc(NC(=O)c2ccc(Cl)c(N=c3[nH]cnn4c(NC(=O)CC=CN(C)C)cnc34)c2)ccc1NS(C)(=O)=O

>  <score_type>  (59) 
oracle

>  <origin>  (59) 
adg

>  <m_score__min__energy>  (59) 
-13.75

>  <m_primary>  (59) 
energy

$$$$
59:0
     RDKit          3D

 36 37  0  0  0  0  0  0  0  0999 V2000
   58.0140   22.0010   45.6320 C   0  0  0  0  0  0  0  0  0  0  0  0
   57.2680   23.2610   45.7480 N   0  0  0  0  0  0  0  0  0  0  0  0
   57.8660   24.4410   45.4060 C   0  0  0  0  0  0  0  0  0  0  0  0
   57.1680   25.6540   45.4950 C   0  0  0  0  0  0  0  0  0  0  0  0
   57.8220   26.9330   45.1160 C   0  0  0  0  0  0  0  0  0  0  0  0
   59.0820   27.0140   45.1250 O   0  0  0  0  0  0  0  0  0  0  0  0
   57.0390   28.0750   44.7310 N   0  0  0  0  0  0  0  0  0  0  0  0
   57.6400   29.3710   44.4180 C   0  0  0  0  0  0  0  0  0  0  0  0
   56.6060   30.4610   44.4990 C   0  0  0  0  0  0  0  0  0  0  0  0
   55.3840   30.1550   44.4980 O   0  0  0  0  0  0  0  0  0  0  0  0
   56.9700   31.8430   44.6100 N   0  0  0  0  0  0  0  0  0  0  0  0
   57.7500   32.4410   45.6550 C   0  0  0  0  0  0  0  0  0  0  0  0
   58.3310   31.6680   46.6740 C   0  0  0  0  0  0  0  0  0  0  0  0
   59.1130   32.2750   47.6610 C   0  0  0  0  0  0  0  0  0  0  0  0
   59.3420   33.6620   47.6370 C   0  0  0  0  0  0  0  0  0  0  0  0
   60.1460   34.2860   48.6560 N   0  0  0  0  0  0  0  0  0  0  0  0
   59.6530   34.5860   49.7620 O   0  0  0  0  0  0  0  0  0  0  0  0
   61.4740   34.5640   48.4250 O   0  0  0  0  0  0  0  0  0  0  0  0
   58.7810   34.4260   46.5970 C   0  0  0  0  0  0  0  0  0  0  0  0
   58.0010   33.8160   45.6110 C   0  0  0  0  0  0  0  0  0  0  0  0
   55.8320   25.6060   45.9280 C   0  0  0  0  0  0  0  0  0  0  0  0
   55.1460   26.6570   46.0400 O   0  0  0  0  0  0  0  0  0  0  0  0
   55.2670   24.4140   46.2460 N   0  0  0  0  0  0  0  0  0  0  0  0
   55.9630   23.2530   46.1600 C   0  0  0  0  0  0  0  0  0  0  0  0
   55.3900   22.1710   46.4630 O   0  0  0  0  0  0  0  0  0  0  0  0
   58.2419   21.6160   46.6369 H   0  0  0  0  0  0  0  0  0  0  0  0
   57.4065   21.2641   45.0861 H   0  0  0  0  0  0  0  0  0  0  0  0
   58.9522   22.1793   45.0861 H   0  0  0  0  0  0  0  0  0  0  0  0
   58.9089   24.4394   45.0562 H   0  0  0  0  0  0  0  0  0  0  0  0
   56.0210   27.9550   44.5300 H   0  0  0  0  0  0  0  0  0  0  0  0
   58.4450   29.5807   45.1377 H   0  0  0  0  0  0  0  0  0  0  0  0
   58.0459   29.3390   43.3961 H   0  0  0  0  0  0  0  0  0  0  0  0
   58.1699   30.5801   46.6953 H   0  0  0  0  0  0  0  0  0  0  0  0
   59.5525   31.6629   48.4624 H   0  0  0  0  0  0  0  0  0  0  0  0
   58.9577   35.5111   46.5599 H   0  0  0  0  0  0  0  0  0  0  0  0
   57.5814   34.4218   44.7943 H   0  0  0  0  0  0  0  0  0  0  0  0
  1  2  1  0
  2  3  1  0
  3  4  2  0
  4  5  1  0
  5  6  2  0
  5  7  1  0
  7  8  1  0
  8  9  1  0
  9 10  2  0
  9 11  1  0
 11 12  1  0
 12 13  2  0
 13 14  1  0
 14 15  2  0
 15 16  1  0
 16 17  2  0
 16 18  1  0
 15 19  1  0
 19 20  2  0
  4 21  1  0
 21 22  2  0
 21 23  1  0
 23 24  1  0
 24 25  2  0
 24  2  1  0
 20 12  1  0
  1 26  1  0
  1 27  1  0
  1 28  1  0
  3 29  1  0
  7 30  1  0
  8 31  1  0
  8 32  1  0
 13 33  1  0
 14 34  1  0
 19 35  1  0
 20 36  1  0
M  CHG  4  11  -1  16   1  18  -1  23  -1
M  END
>  <UniqueID>  (60) 
55

>  <SMILES>  (60) 
Cn1cc(C(=O)NCC(=O)[N-]c2ccc([N+](=O)[O-])cc2)c(=O)[n-]c1=O

>  <Energy>  (60) 
46.951855170103016

>  <Genealogy>  (60) 
Cn1cc(C(=O)NCC(=O)[N-]c2ccc([N+](=O)[O-])cc2)c(=O)[n-]c1=O (protonated)
Cn1cc(C(=O)NCC(=O)[N-]c2ccc([N+](=O)[O-])cc2)c(=O)[n-]c1=O (3D coordinates assigned)
Cn1cc(C(=O)NCC(=O)[N-]c2ccc([N+](=O)[O-])cc2)c(=O)[n-]c1=O (optimized conformer: 46.951855170103016 kcal/mol)

>  <smiles>  (60) 
Cn1cc(C(=O)NCC(=O)Nc2ccc([N+](=O)[O-])cc2)c(=O)[nH]c1=O

>  <score_type>  (60) 
oracle

>  <origin>  (60) 
adg

>  <m_score__min__energy>  (60) 
-10.699999999999999

>  <m_primary>  (60) 
energy

$$$$
60:0
     RDKit          3D

 29 30  0  0  0  0  0  0  0  0999 V2000
   58.2900   32.7140   47.5710 C   0  0  0  0  0  0  0  0  0  0  0  0
   58.0940   32.5720   46.0960 C   0  0  0  0  0  0  0  0  0  0  0  0
   58.7350   33.4440   45.2100 C   0  0  0  0  0  0  0  0  0  0  0  0
   58.5370   33.2940   43.8360 C   0  0  0  0  0  0  0  0  0  0  0  0
   57.7040   32.2770   43.3560 C   0  0  0  0  0  0  0  0  0  0  0  0
   57.5090   32.1300   41.9350 C   0  0  0  0  0  0  0  0  0  0  0  0
   57.3520   32.0130   40.7950 N   0  0  0  0  0  0  0  0  0  0  0  0
   57.0780   31.4180   44.2770 C   0  0  0  0  0  0  0  0  0  0  0  0
   55.9940   30.0900   43.7380 S   0  0  0  0  0  0  0  0  0  0  0  0
   57.3720   28.9540   43.3740 C   0  0  0  0  0  0  0  0  0  0  0  0
   58.2380   28.8130   44.5910 C   0  0  0  0  0  0  0  0  0  0  0  0
   59.6080   29.1160   44.5240 C   0  0  0  0  0  0  0  0  0  0  0  0
   60.4220   28.9520   45.6490 C   0  0  0  0  0  0  0  0  0  0  0  0
   59.8750   28.4780   46.8450 C   0  0  0  0  0  0  0  0  0  0  0  0
   58.5160   28.1610   46.9160 C   0  0  0  0  0  0  0  0  0  0  0  0
   57.6990   28.3220   45.7920 C   0  0  0  0  0  0  0  0  0  0  0  0
   57.2870   31.5890   45.6100 N   0  0  0  0  0  0  0  0  0  0  0  0
   57.5093   32.1484   48.1008 H   0  0  0  0  0  0  0  0  0  0  0  0
   59.2794   32.3217   47.8489 H   0  0  0  0  0  0  0  0  0  0  0  0
   58.2255   33.7764   47.8489 H   0  0  0  0  0  0  0  0  0  0  0  0
   59.3895   34.2411   45.5924 H   0  0  0  0  0  0  0  0  0  0  0  0
   59.0357   33.9752   43.1308 H   0  0  0  0  0  0  0  0  0  0  0  0
   56.9709   27.9690   43.0932 H   0  0  0  0  0  0  0  0  0  0  0  0
   57.9697   29.3567   42.5430 H   0  0  0  0  0  0  0  0  0  0  0  0
   60.0422   29.4838   43.5826 H   0  0  0  0  0  0  0  0  0  0  0  0
   61.4931   29.1960   45.5929 H   0  0  0  0  0  0  0  0  0  0  0  0
   60.5151   28.3545   47.7310 H   0  0  0  0  0  0  0  0  0  0  0  0
   58.0881   27.7844   47.8568 H   0  0  0  0  0  0  0  0  0  0  0  0
   56.6313   28.0634   45.8486 H   0  0  0  0  0  0  0  0  0  0  0  0
  1  2  1  0
  2  3  2  0
  3  4  1  0
  4  5  2  0
  5  6  1  0
  6  7  3  0
  5  8  1  0
  8  9  1  0
  9 10  1  0
 10 11  1  0
 11 12  2  0
 12 13  1  0
 13 14  2  0
 14 15  1  0
 15 16  2  0
  8 17  2  0
 17  2  1  0
 16 11  1  0
  1 18  1  0
  1 19  1  0
  1 20  1  0
  3 21  1  0
  4 22  1  0
 10 23  1  0
 10 24  1  0
 12 25  1  0
 13 26  1  0
 14 27  1  0
 15 28  1  0
 16 29  1  0
M  END
>  <UniqueID>  (61) 
56

>  <SMILES>  (61) 
Cc1ccc(C#N)c(SCc2ccccc2)n1

>  <Energy>  (61) 
24.23521377193123

>  <Genealogy>  (61) 
Cc1ccc(C#N)c(SCc2ccccc2)n1 (3D coordinates assigned)
Cc1ccc(C#N)c(SCc2ccccc2)n1 (optimized conformer: 24.23521377193123 kcal/mol)

>  <smiles>  (61) 
Cc1ccc(C#N)c(SCc2ccccc2)n1

>  <score_type>  (61) 
oracle

>  <origin>  (61) 
adg

>  <m_score__min__energy>  (61) 
-6.71

>  <m_primary>  (61) 
energy

$$$$
61:0
     RDKit          3D

 62 64  0  0  0  0  0  0  0  0999 V2000
   61.6146   29.7498   47.3797 H   0  0  0  0  0  0  0  0  0  0  0  0
   60.7010   29.2730   46.9950 C   0  0  0  0  0  0  0  0  0  0  0  0
   60.5610   29.0340   45.6250 C   0  0  0  0  0  0  0  0  0  0  0  0
   61.3718   29.3092   44.9345 H   0  0  0  0  0  0  0  0  0  0  0  0
   59.3930   28.4460   45.1300 C   0  0  0  0  0  0  0  0  0  0  0  0
   59.2910   28.2535   44.0518 H   0  0  0  0  0  0  0  0  0  0  0  0
   58.3460   28.0990   46.0070 C   0  0  0  0  0  0  0  0  0  0  0  0
   57.0460   27.5430   45.4530 C   0  0  2  0  0  0  0  0  0  0  0  0
   57.2614   27.0565   44.4902 H   0  0  0  0  0  0  0  0  0  0  0  0
   56.0760   28.6270   45.2380 N   0  0  0  0  0  0  0  0  0  0  0  0
   56.4330   29.5380   43.7930 S   0  0  0  0  0  0  0  0  0  0  0  0
   57.2890   28.7010   42.8810 O   0  0  0  0  0  0  0  0  0  0  0  0
   55.1440   29.8490   43.0810 O   0  0  0  0  0  0  0  0  0  0  0  0
   57.2100   31.0710   44.2450 C   0  0  0  0  0  0  0  0  0  0  0  0
   57.6840   32.0350   43.2960 C   0  0  0  0  0  0  0  0  0  0  0  0
   57.4430   31.8960   41.8180 C   0  0  0  0  0  0  0  0  0  0  0  0
   56.5014   31.3529   41.6495 H   0  0  0  0  0  0  0  0  0  0  0  0
   57.3769   32.8947   41.3617 H   0  0  0  0  0  0  0  0  0  0  0  0
   58.2744   31.3387   41.3617 H   0  0  0  0  0  0  0  0  0  0  0  0
   58.4260   33.1520   43.7500 C   0  0  0  0  0  0  0  0  0  0  0  0
   58.8302   33.8870   43.0384 H   0  0  0  0  0  0  0  0  0  0  0  0
   58.6310   33.2970   45.1160 C   0  0  0  0  0  0  0  0  0  0  0  0
   59.3240   34.2600   45.7430 N   0  0  0  0  0  0  0  0  0  0  0  0
   59.2080   33.8980   47.0460 C   0  0  0  0  0  0  0  0  0  0  0  0
   59.7610   34.5890   47.9990 N   0  0  0  0  0  0  0  0  0  0  0  0
   60.8050   34.1480   48.8750 C   0  0  0  0  0  0  0  0  0  0  0  0
   60.5400   33.6860   50.0200 O   0  0  0  0  0  0  0  0  0  0  0  0
   62.1300   34.2620   48.4350 O   0  0  0  0  0  0  0  0  0  0  0  0
   62.9050   33.2430   47.7810 C   0  0  0  0  0  0  0  0  0  0  0  0
   64.1400   32.8760   48.6260 C   0  0  0  0  0  0  0  0  0  0  0  0
   63.8887   32.9507   49.6943 H   0  0  0  0  0  0  0  0  0  0  0  0
   64.4507   31.8467   48.3935 H   0  0  0  0  0  0  0  0  0  0  0  0
   64.9623   33.5686   48.3935 H   0  0  0  0  0  0  0  0  0  0  0  0
   62.0400   31.9930   47.5040 C   0  0  0  0  0  0  0  0  0  0  0  0
   61.7289   31.5435   48.4586 H   0  0  0  0  0  0  0  0  0  0  0  0
   61.1491   32.2839   46.9281 H   0  0  0  0  0  0  0  0  0  0  0  0
   62.6262   31.2617   46.9281 H   0  0  0  0  0  0  0  0  0  0  0  0
   63.3810   33.8250   46.4390 C   0  0  0  0  0  0  0  0  0  0  0  0
   64.0673   34.6641   46.6260 H   0  0  0  0  0  0  0  0  0  0  0  0
   63.9033   33.0449   45.8657 H   0  0  0  0  0  0  0  0  0  0  0  0
   62.5128   34.1822   45.8657 H   0  0  0  0  0  0  0  0  0  0  0  0
   58.4870   32.7640   47.2610 N   0  0  0  0  0  0  0  0  0  0  0  0
   58.1350   32.4110   46.0160 C   0  0  0  0  0  0  0  0  0  0  0  0
   57.4110   31.2950   45.6250 C   0  0  0  0  0  0  0  0  0  0  0  0
   57.0023   30.5996   46.3729 H   0  0  0  0  0  0  0  0  0  0  0  0
   56.4510   26.5020   46.4220 C   0  0  0  0  0  0  0  0  0  0  0  0
   55.5943   26.9503   46.9465 H   0  0  0  0  0  0  0  0  0  0  0  0
   57.2347   26.2059   47.1349 H   0  0  0  0  0  0  0  0  0  0  0  0
   55.9780   25.2460   45.6760 C   0  0  0  0  0  0  0  0  0  0  0  0
   56.5652   24.3798   46.0151 H   0  0  0  0  0  0  0  0  0  0  0  0
   56.1190   25.3971   44.5956 H   0  0  0  0  0  0  0  0  0  0  0  0
   54.5620   25.0020   45.9410 N   0  0  0  0  0  0  0  0  0  0  0  0
   53.9380   23.7100   45.9600 C   0  0  0  0  0  0  0  0  0  0  0  0
   53.2880   23.3300   44.9480 O   0  0  0  0  0  0  0  0  0  0  0  0
   54.0250   22.8020   47.1510 C   0  0  0  0  0  0  0  0  0  0  0  0
   53.9677   23.3997   48.0727 H   0  0  0  0  0  0  0  0  0  0  0  0
   53.1915   22.0846   47.1268 H   0  0  0  0  0  0  0  0  0  0  0  0
   54.9796   22.2559   47.1268 H   0  0  0  0  0  0  0  0  0  0  0  0
   58.5080   28.3200   47.3870 C   0  0  0  0  0  0  0  0  0  0  0  0
   57.7087   28.0304   48.0850 H   0  0  0  0  0  0  0  0  0  0  0  0
   59.6800   28.9060   47.8760 C   0  0  0  0  0  0  0  0  0  0  0  0
   59.7984   29.0783   48.9559 H   0  0  0  0  0  0  0  0  0  0  0  0
  1  2  1  0
  2  3  2  0
  3  4  1  0
  3  5  1  0
  5  6  1  0
  5  7  2  0
  7  8  1  0
  8  9  1  6
  8 10  1  0
 10 11  1  0
 11 12  2  0
 11 13  2  0
 11 14  1  0
 14 15  2  0
 15 16  1  0
 16 17  1  0
 16 18  1  0
 16 19  1  0
 15 20  1  0
 20 21  1  0
 20 22  2  0
 22 23  1  0
 23 24  1  0
 24 25  2  0
 25 26  1  0
 26 27  2  0
 26 28  1  0
 28 29  1  0
 29 30  1  0
 30 31  1  0
 30 32  1  0
 30 33  1  0
 29 34  1  0
 34 35  1  0
 34 36  1  0
 34 37  1  0
 29 38  1  0
 38 39  1  0
 38 40  1  0
 38 41  1  0
 24 42  1  0
 42 43  1  0
 43 44  2  0
 44 45  1  0
  8 46  1  0
 46 47  1  0
 46 48  1  0
 46 49  1  0
 49 50  1  0
 49 51  1  0
 49 52  1  0
 52 53  1  0
 53 54  2  0
 53 55  1  0
 55 56  1  0
 55 57  1  0
 55 58  1  0
  7 59  1  0
 59 60  1  0
 59 61  2  0
 61 62  1  0
 61  2  1  0
 44 14  1  0
 43 22  1  0
M  CHG  4  10  -1  23  -1  42  -1  52  -1
M  END
>  <UniqueID>  (62) 
57

>  <SMILES>  (62) 
CC(=O)[N-]CC[C@@H]([N-]S(=O)(=O)c1cc2[n-]/c(=N\C(=O)OC(C)(C)C)[n-]c2cc1C)c1ccccc1

>  <Energy>  (62) 
88.59666048946599

>  <Genealogy>  (62) 
CC(=O)[N-]CCC([N-]S(=O)(=O)c1cc2[n-]c(=NC(=O)OC(C)(C)C)[n-]c2cc1C)c1ccccc1 (protonated)
CC(=O)[N-]CC[C@@H]([N-]S(=O)(=O)c1cc2[n-]c(=NC(=O)OC(C)(C)C)[n-]c2cc1C)c1ccccc1 (chirality)
CC(=O)[N-]CC[C@@H]([N-]S(=O)(=O)c1cc2[n-]/c(=N\C(=O)OC(C)(C)C)[n-]c2cc1C)c1ccccc1 (cis-trans isomerization)
CC(=O)[N-]CC[C@@H]([N-]S(=O)(=O)c1cc2[n-]/c(=N\C(=O)OC(C)(C)C)[n-]c2cc1C)c1ccccc1 (3D coordinates assigned)
CC(=O)[N-]CC[C@@H]([N-]S(=O)(=O)c1cc2[n-]/c(=N\C(=O)OC(C)(C)C)[n-]c2cc1C)c1ccccc1 (optimized conformer: 88.59666048946599 kcal/mol)

>  <smiles>  (62) 
CC(=O)NCCC(NS(=O)(=O)c1cc2[nH]c(=NC(=O)OC(C)(C)C)[nH]c2cc1C)c1ccccc1

>  <score_type>  (62) 
oracle

>  <origin>  (62) 
adg

>  <m_score__min__energy>  (62) 
-15.109999999999999

>  <m_primary>  (62) 
energy

$$$$
62:0
     RDKit          3D

 50 53  0  0  0  0  0  0  0  0999 V2000
   60.7400   28.9240   52.4610 O   0  0  0  0  0  0  0  0  0  0  0  0
   59.5980   28.9380   52.9960 C   0  0  0  0  0  0  0  0  0  0  0  0
   59.3100   28.0170   54.1400 C   0  0  0  0  0  0  0  0  0  0  0  0
   57.7910   27.0560   53.8210 S   0  0  0  0  0  0  0  0  0  0  0  0
   56.7040   28.4760   53.9200 C   0  0  0  0  0  0  0  0  0  0  0  0
   56.8410   29.4690   54.8160 N   0  0  0  0  0  0  0  0  0  0  0  0
   55.8630   30.3270   54.5670 N   0  0  0  0  0  0  0  0  0  0  0  0
   55.1690   29.8200   53.5290 C   0  0  0  0  0  0  0  0  0  0  0  0
   53.9910   30.4660   52.9160 C   0  0  0  0  0  0  0  0  0  0  0  0
   52.8340   30.7150   53.6760 C   0  0  0  0  0  0  0  0  0  0  0  0
   51.7260   31.3360   53.0900 C   0  0  0  0  0  0  0  0  0  0  0  0
   51.7630   31.7120   51.7440 C   0  0  0  0  0  0  0  0  0  0  0  0
   50.6630   32.3330   51.1650 O   0  0  0  0  0  0  0  0  0  0  0  0
   52.9080   31.4650   50.9810 C   0  0  0  0  0  0  0  0  0  0  0  0
   54.0180   30.8450   51.5640 C   0  0  0  0  0  0  0  0  0  0  0  0
   55.6790   28.6800   53.1290 O   0  0  0  0  0  0  0  0  0  0  0  0
   58.5840   29.8400   52.5260 N   0  0  0  0  0  0  0  0  0  0  0  0
   58.6470   30.5310   51.2680 C   0  0  0  0  0  0  0  0  0  0  0  0
   58.4760   31.9240   51.1890 C   0  0  0  0  0  0  0  0  0  0  0  0
   58.5690   32.5790   49.9580 C   0  0  0  0  0  0  0  0  0  0  0  0
   58.8470   31.8550   48.7870 C   0  0  0  0  0  0  0  0  0  0  0  0
   58.9300   32.5290   47.5170 N   0  0  0  0  0  0  0  0  0  0  0  0
   60.1960   32.5710   46.7720 C   0  0  0  0  0  0  0  0  0  0  0  0
   60.5860   34.0230   46.4560 C   0  0  0  0  0  0  0  0  0  0  0  0
   59.3780   34.9260   46.1190 C   0  0  0  0  0  0  0  0  0  0  0  0
   58.1090   34.1250   45.7980 C   0  0  0  0  0  0  0  0  0  0  0  0
   57.7430   33.2070   46.9720 C   0  0  0  0  0  0  0  0  0  0  0  0
   59.0310   30.4660   48.8680 C   0  0  0  0  0  0  0  0  0  0  0  0
   58.9420   29.8120   50.1010 C   0  0  0  0  0  0  0  0  0  0  0  0
   60.1554   27.3252   54.2694 H   0  0  0  0  0  0  0  0  0  0  0  0
   59.1670   28.6160   55.0514 H   0  0  0  0  0  0  0  0  0  0  0  0
   52.8003   30.4203   54.7352 H   0  0  0  0  0  0  0  0  0  0  0  0
   50.8240   31.5288   53.6893 H   0  0  0  0  0  0  0  0  0  0  0  0
   52.9361   31.7585   49.9212 H   0  0  0  0  0  0  0  0  0  0  0  0
   54.9172   30.6532   50.9601 H   0  0  0  0  0  0  0  0  0  0  0  0
   57.7820   30.0460   53.1640 H   0  0  0  0  0  0  0  0  0  0  0  0
   58.2678   32.5019   52.1015 H   0  0  0  0  0  0  0  0  0  0  0  0
   58.4236   33.6681   49.9059 H   0  0  0  0  0  0  0  0  0  0  0  0
   60.9882   32.1070   47.3779 H   0  0  0  0  0  0  0  0  0  0  0  0
   60.0712   32.0223   45.8269 H   0  0  0  0  0  0  0  0  0  0  0  0
   61.1015   34.4436   47.3320 H   0  0  0  0  0  0  0  0  0  0  0  0
   61.2304   33.9985   45.5648 H   0  0  0  0  0  0  0  0  0  0  0  0
   59.1740   35.5769   46.9820 H   0  0  0  0  0  0  0  0  0  0  0  0
   59.6387   35.5075   45.2224 H   0  0  0  0  0  0  0  0  0  0  0  0
   57.2787   34.8217   45.6104 H   0  0  0  0  0  0  0  0  0  0  0  0
   58.2936   33.5072   44.9068 H   0  0  0  0  0  0  0  0  0  0  0  0
   57.2797   33.8104   47.7666 H   0  0  0  0  0  0  0  0  0  0  0  0
   57.0452   32.4397   46.6055 H   0  0  0  0  0  0  0  0  0  0  0  0
   59.2464   29.8886   47.9568 H   0  0  0  0  0  0  0  0  0  0  0  0
   59.1046   28.7255   50.1556 H   0  0  0  0  0  0  0  0  0  0  0  0
  1  2  2  0
  2  3  1  0
  3  4  1  0
  4  5  1  0
  5  6  2  0
  6  7  1  0
  7  8  2  0
  8  9  1  0
  9 10  2  0
 10 11  1  0
 11 12  2  0
 12 13  1  0
 12 14  1  0
 14 15  2  0
  8 16  1  0
  2 17  1  0
 17 18  1  0
 18 19  2  0
 19 20  1  0
 20 21  2  0
 21 22  1  0
 22 23  1  0
 23 24  1  0
 24 25  1  0
 25 26  1  0
 26 27  1  0
 21 28  1  0
 28 29  2  0
 16  5  1  0
 29 18  1  0
 15  9  1  0
 27 22  1  0
  3 30  1  0
  3 31  1  0
 10 32  1  0
 11 33  1  0
 14 34  1  0
 15 35  1  0
 17 36  1  0
 19 37  1  0
 20 38  1  0
 23 39  1  0
 23 40  1  0
 24 41  1  0
 24 42  1  0
 25 43  1  0
 25 44  1  0
 26 45  1  0
 26 46  1  0
 27 47  1  0
 27 48  1  0
 28 49  1  0
 29 50  1  0
M  CHG  1  13  -1
M  END
>  <UniqueID>  (63) 
58

>  <SMILES>  (63) 
O=C(CSc1nnc(-c2ccc([O-])cc2)o1)Nc1ccc(N2CCCCC2)cc1

>  <Energy>  (63) 
91.41410551732478

>  <Genealogy>  (63) 
O=C(CSc1nnc(-c2ccc([O-])cc2)o1)Nc1ccc(N2CCCCC2)cc1 (protonated)
O=C(CSc1nnc(-c2ccc([O-])cc2)o1)Nc1ccc(N2CCCCC2)cc1 (3D coordinates assigned)
O=C(CSc1nnc(-c2ccc([O-])cc2)o1)Nc1ccc(N2CCCCC2)cc1 (nonaromatic ring conformer: 91.41410551732478 kcal/mol)

>  <smiles>  (63) 
O=C(CSc1nnc(-c2ccc(O)cc2)o1)Nc1ccc(N2CCCCC2)cc1

>  <score_type>  (63) 
oracle

>  <origin>  (63) 
adg

>  <m_score__min__energy>  (63) 
-11.470000000000001

>  <m_primary>  (63) 
energy

$$$$
63:0
     RDKit          3D

 38 39  0  0  0  0  0  0  0  0999 V2000
   56.6480   33.7330   45.6140 C   0  0  0  0  0  0  0  0  0  0  0  0
   57.8590   32.9960   45.2250 N   0  0  0  0  0  0  0  0  0  0  0  0
   58.0770   33.1080   43.7740 C   0  0  0  0  0  0  0  0  0  0  0  0
   59.2410   33.6280   46.0920 S   0  0  0  0  0  0  0  0  0  0  0  0
   58.7910   34.7160   47.0290 O   0  0  0  0  0  0  0  0  0  0  0  0
   60.2070   34.2100   45.0950 O   0  0  0  0  0  0  0  0  0  0  0  0
   60.0500   32.3710   47.0530 C   0  0  0  0  0  0  0  0  0  0  0  0
   61.3460   32.6040   47.5440 C   0  0  0  0  0  0  0  0  0  0  0  0
   62.0030   31.6370   48.3070 C   0  0  0  0  0  0  0  0  0  0  0  0
   63.6120   31.9520   48.9290 Cl  0  0  0  0  0  0  0  0  0  0  0  0
   61.3780   30.4200   48.5760 C   0  0  0  0  0  0  0  0  0  0  0  0
   60.1050   30.1590   48.0700 C   0  0  0  0  0  0  0  0  0  0  0  0
   59.4310   31.1230   47.2960 C   0  0  0  0  0  0  0  0  0  0  0  0
   58.1340   30.8560   46.7420 N   0  0  0  0  0  0  0  0  0  0  0  0
   57.8210   29.9960   45.2680 S   0  0  0  0  0  0  0  0  0  0  0  0
   58.7380   30.5250   44.2000 O   0  0  0  0  0  0  0  0  0  0  0  0
   56.3960   30.2470   44.8590 O   0  0  0  0  0  0  0  0  0  0  0  0
   58.0520   28.2570   45.4890 C   0  0  0  0  0  0  0  0  0  0  0  0
   56.9280   27.4240   45.6230 C   0  0  0  0  0  0  0  0  0  0  0  0
   57.0820   26.0470   45.8050 C   0  0  0  0  0  0  0  0  0  0  0  0
   55.5440   24.9320   46.0030 Br  0  0  0  0  0  0  0  0  0  0  0  0
   58.3610   25.4860   45.8420 C   0  0  0  0  0  0  0  0  0  0  0  0
   59.4850   26.3000   45.6880 C   0  0  0  0  0  0  0  0  0  0  0  0
   59.3420   27.6810   45.5090 C   0  0  0  0  0  0  0  0  0  0  0  0
   60.7990   28.6460   45.2950 Cl  0  0  0  0  0  0  0  0  0  0  0  0
   56.5804   33.7742   46.7111 H   0  0  0  0  0  0  0  0  0  0  0  0
   56.6957   34.7554   45.2110 H   0  0  0  0  0  0  0  0  0  0  0  0
   55.7618   33.2209   45.2110 H   0  0  0  0  0  0  0  0  0  0  0  0
   57.7250   31.9900   45.4770 H   0  0  0  0  0  0  0  0  0  0  0  0
   59.0409   33.6032   43.5852 H   0  0  0  0  0  0  0  0  0  0  0  0
   58.0870   32.1034   43.3261 H   0  0  0  0  0  0  0  0  0  0  0  0
   57.2661   33.7011   43.3261 H   0  0  0  0  0  0  0  0  0  0  0  0
   61.8478   33.5580   47.3249 H   0  0  0  0  0  0  0  0  0  0  0  0
   61.8904   29.6638   49.1889 H   0  0  0  0  0  0  0  0  0  0  0  0
   59.6234   29.1920   48.2772 H   0  0  0  0  0  0  0  0  0  0  0  0
   55.9186   27.8595   45.5843 H   0  0  0  0  0  0  0  0  0  0  0  0
   58.4825   24.4031   45.9924 H   0  0  0  0  0  0  0  0  0  0  0  0
   60.4899   25.8530   45.7075 H   0  0  0  0  0  0  0  0  0  0  0  0
  1  2  1  0
  2  3  1  0
  2  4  1  0
  4  5  2  0
  4  6  2  0
  4  7  1  0
  7  8  2  0
  8  9  1  0
  9 10  1  0
  9 11  2  0
 11 12  1  0
 12 13  2  0
 13 14  1  0
 14 15  1  0
 15 16  2  0
 15 17  2  0
 15 18  1  0
 18 19  2  0
 19 20  1  0
 20 21  1  0
 20 22  2  0
 22 23  1  0
 23 24  2  0
 24 25  1  0
 13  7  1  0
 24 18  1  0
  1 26  1  0
  1 27  1  0
  1 28  1  0
  2 29  1  0
  3 30  1  0
  3 31  1  0
  3 32  1  0
  8 33  1  0
 11 34  1  0
 12 35  1  0
 19 36  1  0
 22 37  1  0
 23 38  1  0
M  CHG  2   2   1  14  -1
M  END
>  <UniqueID>  (64) 
59

>  <SMILES>  (64) 
C[NH+](C)S(=O)(=O)c1cc(Cl)ccc1[N-]S(=O)(=O)c1cc(Br)ccc1Cl

>  <Energy>  (64) 
42.3910672145392

>  <Genealogy>  (64) 
C[NH+](C)S(=O)(=O)c1cc(Cl)ccc1[N-]S(=O)(=O)c1cc(Br)ccc1Cl (protonated)
C[NH+](C)S(=O)(=O)c1cc(Cl)ccc1[N-]S(=O)(=O)c1cc(Br)ccc1Cl (3D coordinates assigned)
C[NH+](C)S(=O)(=O)c1cc(Cl)ccc1[N-]S(=O)(=O)c1cc(Br)ccc1Cl (optimized conformer: 42.3910672145392 kcal/mol)

>  <smiles>  (64) 
CN(C)S(=O)(=O)c1cc(Cl)ccc1NS(=O)(=O)c1cc(Br)ccc1Cl

>  <score_type>  (64) 
oracle

>  <origin>  (64) 
adg

>  <m_score__min__energy>  (64) 
-8.3900000000000006

>  <m_primary>  (64) 
energy

$$$$
64:0
     RDKit          3D

 46 48  0  0  0  0  0  0  0  0999 V2000
   56.2530   25.3880   46.9730 O   0  0  0  0  0  0  0  0  0  0  0  0
   55.8630   26.2930   46.1880 C   0  0  0  0  0  0  0  0  0  0  0  0
   54.5400   26.3150   45.7670 O   0  0  0  0  0  0  0  0  0  0  0  0
   56.8020   27.3690   45.7590 C   0  0  0  0  0  0  0  0  0  0  0  0
   56.0390   28.4990   45.2500 N   0  0  0  0  0  0  0  0  0  0  0  0
   56.6040   29.4960   44.3910 C   0  0  0  0  0  0  0  0  0  0  0  0
   56.4590   29.4000   43.1420 O   0  0  0  0  0  0  0  0  0  0  0  0
   57.3560   30.6360   44.9670 C   0  0  0  0  0  0  0  0  0  0  0  0
   58.3840   30.4170   45.9010 C   0  0  0  0  0  0  0  0  0  0  0  0
   59.0940   31.4940   46.4400 C   0  0  0  0  0  0  0  0  0  0  0  0
   58.7940   32.8110   46.0480 C   0  0  0  0  0  0  0  0  0  0  0  0
   59.4820   33.9190   46.5640 O   0  0  0  0  0  0  0  0  0  0  0  0
   60.7660   33.8690   47.1200 C   0  0  0  0  0  0  0  0  0  0  0  0
   61.8660   33.8220   46.2540 C   0  0  0  0  0  0  0  0  0  0  0  0
   63.1670   33.8000   46.7650 C   0  0  0  0  0  0  0  0  0  0  0  0
   63.3760   33.8180   48.1450 C   0  0  0  0  0  0  0  0  0  0  0  0
   62.2850   33.8380   49.0170 C   0  0  0  0  0  0  0  0  0  0  0  0
   60.9770   33.8380   48.5160 C   0  0  0  0  0  0  0  0  0  0  0  0
   59.6040   33.7750   49.6780 S   0  0  0  0  0  0  0  0  0  0  0  0
   59.5900   31.9750   49.7680 C   0  0  0  0  0  0  0  0  0  0  0  0
   60.6170   31.2760   49.1150 C   0  0  0  0  0  0  0  0  0  0  0  0
   60.6650   29.8820   49.1570 C   0  0  0  0  0  0  0  0  0  0  0  0
   59.6830   29.1700   49.8430 C   0  0  0  0  0  0  0  0  0  0  0  0
   58.6420   29.8490   50.4780 C   0  0  0  0  0  0  0  0  0  0  0  0
   58.5710   31.2520   50.4390 C   0  0  0  0  0  0  0  0  0  0  0  0
   57.4250   31.9270   51.1470 C   0  0  0  0  0  0  0  0  0  0  0  0
   56.3500   31.0350   51.2430 O   0  0  0  0  0  0  0  0  0  0  0  0
   57.7610   33.0310   45.1310 C   0  0  0  0  0  0  0  0  0  0  0  0
   57.0510   31.9560   44.5900 C   0  0  0  0  0  0  0  0  0  0  0  0
   57.4079   27.6920   46.6184 H   0  0  0  0  0  0  0  0  0  0  0  0
   57.4646   26.9861   44.9689 H   0  0  0  0  0  0  0  0  0  0  0  0
   58.6314   29.3907   46.2099 H   0  0  0  0  0  0  0  0  0  0  0  0
   59.8917   31.3103   47.1748 H   0  0  0  0  0  0  0  0  0  0  0  0
   61.7052   33.8023   45.1660 H   0  0  0  0  0  0  0  0  0  0  0  0
   64.0265   33.7685   46.0792 H   0  0  0  0  0  0  0  0  0  0  0  0
   64.4003   33.8164   48.5460 H   0  0  0  0  0  0  0  0  0  0  0  0
   62.4541   33.8538   50.1038 H   0  0  0  0  0  0  0  0  0  0  0  0
   61.3909   31.8318   48.5653 H   0  0  0  0  0  0  0  0  0  0  0  0
   61.4788   29.3447   48.6481 H   0  0  0  0  0  0  0  0  0  0  0  0
   59.7283   28.0717   49.8841 H   0  0  0  0  0  0  0  0  0  0  0  0
   57.8688   29.2798   51.0148 H   0  0  0  0  0  0  0  0  0  0  0  0
   57.7431   32.2289   52.1558 H   0  0  0  0  0  0  0  0  0  0  0  0
   57.1152   32.8175   50.5804 H   0  0  0  0  0  0  0  0  0  0  0  0
   55.5450   31.5420   50.9640 H   0  0  0  0  0  0  0  0  0  0  0  0
   57.5055   34.0587   44.8333 H   0  0  0  0  0  0  0  0  0  0  0  0
   56.2469   32.1438   43.8633 H   0  0  0  0  0  0  0  0  0  0  0  0
  1  2  2  0
  2  3  1  0
  2  4  1  0
  4  5  1  0
  5  6  1  0
  6  7  2  0
  6  8  1  0
  8  9  2  0
  9 10  1  0
 10 11  2  0
 11 12  1  0
 12 13  1  0
 13 14  2  0
 14 15  1  0
 15 16  2  0
 16 17  1  0
 17 18  2  0
 18 19  1  0
 19 20  1  0
 20 21  2  0
 21 22  1  0
 22 23  2  0
 23 24  1  0
 24 25  2  0
 25 26  1  0
 26 27  1  0
 11 28  1  0
 28 29  2  0
 29  8  1  0
 18 13  1  0
 25 20  1  0
  4 30  1  0
  4 31  1  0
  9 32  1  0
 10 33  1  0
 14 34  1  0
 15 35  1  0
 16 36  1  0
 17 37  1  0
 21 38  1  0
 22 39  1  0
 23 40  1  0
 24 41  1  0
 26 42  1  0
 26 43  1  0
 27 44  1  0
 28 45  1  0
 29 46  1  0
M  CHG  2   3  -1   5  -1
M  END
>  <UniqueID>  (65) 
60

>  <SMILES>  (65) 
O=C([O-])C[N-]C(=O)c1ccc(Oc2ccccc2Sc2ccccc2CO)cc1

>  <Energy>  (65) 
49.90707300032009

>  <Genealogy>  (65) 
O=C([O-])C[N-]C(=O)c1ccc(Oc2ccccc2Sc2ccccc2CO)cc1 (protonated)
O=C([O-])C[N-]C(=O)c1ccc(Oc2ccccc2Sc2ccccc2CO)cc1 (3D coordinates assigned)
O=C([O-])C[N-]C(=O)c1ccc(Oc2ccccc2Sc2ccccc2CO)cc1 (optimized conformer: 49.90707300032009 kcal/mol)

>  <smiles>  (65) 
O=C(O)CNC(=O)c1ccc(Oc2ccccc2Sc2ccccc2CO)cc1

>  <score_type>  (65) 
oracle

>  <origin>  (65) 
adg

>  <m_score__min__energy>  (65) 
-13.51

>  <m_primary>  (65) 
energy

$$$$
65:0
     RDKit          3D

 42 44  0  0  1  0  0  0  0  0999 V2000
   62.9740   31.6780   47.4960 C   0  0  0  0  0  0  0  0  0  0  0  0
   63.3640   33.3970   47.7450 S   0  0  0  0  0  0  0  0  0  0  0  0
   64.6560   33.4820   48.4730 O   0  0  0  0  0  0  0  0  0  0  0  0
   63.4780   34.0170   46.3840 O   0  0  0  0  0  0  0  0  0  0  0  0
   62.1200   34.2060   48.6180 N   0  0  0  0  0  0  0  0  0  0  0  0
   60.7530   33.7750   48.4600 C   0  0  0  0  0  0  0  0  0  0  0  0
   60.1470   33.1630   49.5590 C   0  0  0  0  0  0  0  0  0  0  0  0
   58.8470   32.7210   49.5020 C   0  0  0  0  0  0  0  0  0  0  0  0
   58.1710   32.9080   48.3130 C   0  0  0  0  0  0  0  0  0  0  0  0
   58.7440   33.5090   47.2080 C   0  0  0  0  0  0  0  0  0  0  0  0
   58.0010   33.6870   45.9800 N   0  0  0  0  0  0  0  0  0  0  0  0
   57.9380   32.7280   45.1120 C   0  0  0  0  0  0  0  0  0  0  0  0
   58.0220   31.3940   45.5430 C   0  0  0  0  0  0  0  0  0  0  0  0
   57.9580   30.3440   44.6390 C   0  0  0  0  0  0  0  0  0  0  0  0
   58.0480   28.9740   45.1110 C   0  0  0  0  0  0  0  0  0  0  0  0
   59.2950   28.3890   45.3050 C   0  0  0  0  0  0  0  0  0  0  0  0
   59.4180   27.0700   45.7580 C   0  0  0  0  0  0  0  0  0  0  0  0
   58.3100   26.3000   46.0300 C   0  0  0  0  0  0  0  0  0  0  0  0
   57.0880   26.8640   45.8440 C   0  0  0  0  0  0  0  0  0  0  0  0
   56.9640   28.1720   45.3940 C   0  0  0  0  0  0  0  0  0  0  0  0
   55.6960   28.6130   45.2510 F   0  0  0  0  0  0  0  0  0  0  0  0
   57.8110   30.7040   43.3520 N   0  0  0  0  0  0  0  0  0  0  0  0
   57.7310   32.0010   42.9550 C   0  0  0  0  0  0  0  0  0  0  0  0
   57.5890   32.2970   41.6930 N   0  0  0  0  0  0  0  0  0  0  0  0
   57.7910   33.0290   43.8100 N   0  0  0  0  0  0  0  0  0  0  0  0
   60.0680   33.9520   47.2900 C   0  0  0  0  0  0  0  0  0  0  0  0
   62.8616   31.1825   48.4716 H   0  0  0  0  0  0  0  0  0  0  0  0
   62.0338   31.5934   46.9313 H   0  0  0  0  0  0  0  0  0  0  0  0
   63.7856   31.1959   46.9313 H   0  0  0  0  0  0  0  0  0  0  0  0
   62.2720   34.9920   49.2610 H   0  0  0  0  0  0  0  0  0  0  0  0
   60.7211   33.0321   50.4881 H   0  0  0  0  0  0  0  0  0  0  0  0
   58.3661   32.2392   50.3661 H   0  0  0  0  0  0  0  0  0  0  0  0
   57.1289   32.5630   48.2417 H   0  0  0  0  0  0  0  0  0  0  0  0
   58.1405   31.1783   46.6151 H   0  0  0  0  0  0  0  0  0  0  0  0
   60.2029   28.9746   45.0983 H   0  0  0  0  0  0  0  0  0  0  0  0
   60.4206   26.6402   45.8994 H   0  0  0  0  0  0  0  0  0  0  0  0
   58.4104   25.2639   46.3856 H   0  0  0  0  0  0  0  0  0  0  0  0
   56.1826   26.2753   46.0531 H   0  0  0  0  0  0  0  0  0  0  0  0
   57.7510   30.0090   42.5890 H   0  0  0  0  0  0  0  0  0  0  0  0
   57.2070   31.5850   41.0340 H   0  0  0  0  0  0  0  0  0  0  0  0
   57.7260   34.0020   43.4640 H   0  0  0  0  0  0  0  0  0  0  0  0
   60.5504   34.4349   46.4274 H   0  0  0  0  0  0  0  0  0  0  0  0
  1  2  1  0
  2  3  2  0
  2  4  2  0
  2  5  1  0
  5  6  1  0
  6  7  2  0
  7  8  1  0
  8  9  2  0
  9 10  1  0
 10 11  1  0
 11 12  2  0
 12 13  1  0
 13 14  2  0
 14 15  1  0
 15 16  2  0
 16 17  1  0
 17 18  2  0
 18 19  1  0
 19 20  2  0
 20 21  1  0
 14 22  1  0
 22 23  1  0
 23 24  2  3
 23 25  1  0
 10 26  2  0
 26  6  1  0
 25 12  1  0
 20 15  1  0
  1 27  1  0
  1 28  1  0
  1 29  1  0
  5 30  1  0
  7 31  1  0
  8 32  1  0
  9 33  1  0
 13 34  1  0
 16 35  1  0
 17 36  1  0
 18 37  1  0
 19 38  1  0
 22 39  1  0
 24 40  1  0
 25 41  1  0
 26 42  1  0
M  END
>  <smiles>  (66) 
CS(=O)(=O)Nc1cccc(N=c2cc(-c3ccccc3F)[nH]c(=N)[nH]2)c1

>  <score_type>  (66) 
oracle

>  <origin>  (66) 
adg

>  <m_score__min__energy>  (66) 
-9.0399999999999991

>  <m_primary>  (66) 
energy

$$$$
66:0
     RDKit          3D

 30 31  0  0  0  0  0  0  0  0999 V2000
   56.1900   30.9630   44.5590 O   0  0  0  0  0  0  0  0  0  0  0  0
   57.3960   31.3280   44.5980 C   0  0  0  0  0  0  0  0  0  0  0  0
   57.7060   32.7600   44.2550 C   0  0  0  0  0  0  0  0  0  0  0  0
   57.3510   33.8520   45.6770 S   0  0  0  0  0  0  0  0  0  0  0  0
   58.9890   34.5960   45.7250 C   0  0  0  0  0  0  0  0  0  0  0  0
   59.2700   35.4690   44.8620 O   0  0  0  0  0  0  0  0  0  0  0  0
   59.9940   34.2080   46.7440 C   0  0  0  0  0  0  0  0  0  0  0  0
   59.6560   34.2250   48.1110 C   0  0  0  0  0  0  0  0  0  0  0  0
   60.6070   33.8980   49.0810 C   0  0  0  0  0  0  0  0  0  0  0  0
   61.9020   33.5430   48.7030 C   0  0  0  0  0  0  0  0  0  0  0  0
   62.2480   33.5100   47.3500 C   0  0  0  0  0  0  0  0  0  0  0  0
   61.3020   33.8380   46.3740 C   0  0  0  0  0  0  0  0  0  0  0  0
   58.4270   30.3580   45.0590 C   0  0  0  0  0  0  0  0  0  0  0  0
   58.5500   29.0700   44.4990 C   0  0  0  0  0  0  0  0  0  0  0  0
   59.5560   28.2000   44.9320 C   0  0  0  0  0  0  0  0  0  0  0  0
   60.4470   28.5980   45.9310 C   0  0  0  0  0  0  0  0  0  0  0  0
   60.3280   29.8630   46.5060 C   0  0  0  0  0  0  0  0  0  0  0  0
   59.3230   30.7360   46.0800 C   0  0  0  0  0  0  0  0  0  0  0  0
   58.7700   32.8462   43.9895 H   0  0  0  0  0  0  0  0  0  0  0  0
   57.0767   33.0661   43.4064 H   0  0  0  0  0  0  0  0  0  0  0  0
   58.6354   34.4978   48.4175 H   0  0  0  0  0  0  0  0  0  0  0  0
   60.3336   33.9206   50.1463 H   0  0  0  0  0  0  0  0  0  0  0  0
   62.6495   33.2895   49.4691 H   0  0  0  0  0  0  0  0  0  0  0  0
   63.2677   33.2251   47.0515 H   0  0  0  0  0  0  0  0  0  0  0  0
   61.5809   33.8069   45.3104 H   0  0  0  0  0  0  0  0  0  0  0  0
   57.8492   28.7467   43.7152 H   0  0  0  0  0  0  0  0  0  0  0  0
   59.6456   27.1992   44.4843 H   0  0  0  0  0  0  0  0  0  0  0  0
   61.2419   27.9144   46.2640 H   0  0  0  0  0  0  0  0  0  0  0  0
   61.0266   30.1744   47.2965 H   0  0  0  0  0  0  0  0  0  0  0  0
   59.2301   31.7281   46.5460 H   0  0  0  0  0  0  0  0  0  0  0  0
  1  2  2  0
  2  3  1  0
  3  4  1  0
  4  5  1  0
  5  6  2  0
  5  7  1  0
  7  8  2  0
  8  9  1  0
  9 10  2  0
 10 11  1  0
 11 12  2  0
  2 13  1  0
 13 14  2  0
 14 15  1  0
 15 16  2  0
 16 17  1  0
 17 18  2  0
 12  7  1  0
 18 13  1  0
  3 19  1  0
  3 20  1  0
  8 21  1  0
  9 22  1  0
 10 23  1  0
 11 24  1  0
 12 25  1  0
 14 26  1  0
 15 27  1  0
 16 28  1  0
 17 29  1  0
 18 30  1  0
M  END
>  <UniqueID>  (67) 
61

>  <SMILES>  (67) 
O=C(CSC(=O)c1ccccc1)c1ccccc1

>  <Energy>  (67) 
27.563974617321826

>  <Genealogy>  (67) 
O=C(CSC(=O)c1ccccc1)c1ccccc1 (3D coordinates assigned)
O=C(CSC(=O)c1ccccc1)c1ccccc1 (optimized conformer: 27.563974617321826 kcal/mol)

>  <smiles>  (67) 
O=C(CSC(=O)c1ccccc1)c1ccccc1

>  <score_type>  (67) 
oracle

>  <origin>  (67) 
adg

>  <m_score__min__energy>  (67) 
-7.6799999999999997

>  <m_primary>  (67) 
energy

$$$$
67:0
     RDKit          3D

 44 46  0  0  0  0  0  0  0  0999 V2000
   58.9810   26.7860   45.5010 C   0  0  0  0  0  0  0  0  0  0  0  0
   57.9170   26.9690   46.4270 O   0  0  0  0  0  0  0  0  0  0  0  0
   56.5730   26.8070   46.0760 C   0  0  0  0  0  0  0  0  0  0  0  0
   55.9260   25.8040   46.4810 O   0  0  0  0  0  0  0  0  0  0  0  0
   55.9000   27.8020   45.3010 N   0  0  0  0  0  0  0  0  0  0  0  0
   56.4630   29.0370   44.8370 C   0  0  0  0  0  0  0  0  0  0  0  0
   56.2100   29.4410   43.5210 C   0  0  0  0  0  0  0  0  0  0  0  0
   56.7560   30.6290   43.0250 C   0  0  0  0  0  0  0  0  0  0  0  0
   57.5720   31.4270   43.8420 C   0  0  0  0  0  0  0  0  0  0  0  0
   58.1900   32.6860   43.2970 C   0  0  0  0  0  0  0  0  0  0  0  0
   58.0510   33.8360   44.3000 C   0  0  0  0  0  0  0  0  0  0  0  0
   59.0910   33.7640   45.3260 N   0  0  0  0  0  0  0  0  0  0  0  0
   58.7590   33.7260   46.7220 C   0  0  0  0  0  0  0  0  0  0  0  0
   57.5480   33.7550   47.0760 O   0  0  0  0  0  0  0  0  0  0  0  0
   59.8240   33.6540   47.7480 C   0  0  0  0  0  0  0  0  0  0  0  0
   59.5210   33.7760   49.1140 C   0  0  0  0  0  0  0  0  0  0  0  0
   60.5450   33.7040   50.0640 C   0  0  0  0  0  0  0  0  0  0  0  0
   60.2620   33.8160   51.2880 O   0  0  0  0  0  0  0  0  0  0  0  0
   61.8740   33.5080   49.6440 C   0  0  0  0  0  0  0  0  0  0  0  0
   62.9410   33.4290   50.5580 C   0  0  0  0  0  0  0  0  0  0  0  0
   64.2470   33.2340   50.0960 C   0  0  0  0  0  0  0  0  0  0  0  0
   64.4990   33.1170   48.7250 C   0  0  0  0  0  0  0  0  0  0  0  0
   63.4470   33.1950   47.8090 C   0  0  0  0  0  0  0  0  0  0  0  0
   62.1360   33.3900   48.2600 C   0  0  0  0  0  0  0  0  0  0  0  0
   61.1160   33.4650   47.3650 N   0  0  0  0  0  0  0  0  0  0  0  0
   57.8600   31.0040   45.1480 C   0  0  0  0  0  0  0  0  0  0  0  0
   57.3120   29.8170   45.6440 C   0  0  0  0  0  0  0  0  0  0  0  0
   59.9207   26.6244   46.0495 H   0  0  0  0  0  0  0  0  0  0  0  0
   58.7703   25.9109   44.8687 H   0  0  0  0  0  0  0  0  0  0  0  0
   59.0748   27.6812   44.8687 H   0  0  0  0  0  0  0  0  0  0  0  0
   55.5765   28.8189   42.8716 H   0  0  0  0  0  0  0  0  0  0  0  0
   56.5453   30.9392   41.9909 H   0  0  0  0  0  0  0  0  0  0  0  0
   59.2570   32.5076   43.0979 H   0  0  0  0  0  0  0  0  0  0  0  0
   57.6693   32.9621   42.3682 H   0  0  0  0  0  0  0  0  0  0  0  0
   58.1391   34.7930   43.7648 H   0  0  0  0  0  0  0  0  0  0  0  0
   57.0691   33.7578   44.7896 H   0  0  0  0  0  0  0  0  0  0  0  0
   60.0960   33.7390   45.0380 H   0  0  0  0  0  0  0  0  0  0  0  0
   58.4802   33.9279   49.4361 H   0  0  0  0  0  0  0  0  0  0  0  0
   62.7480   33.5207   51.6370 H   0  0  0  0  0  0  0  0  0  0  0  0
   65.0787   33.1725   50.8133 H   0  0  0  0  0  0  0  0  0  0  0  0
   65.5278   32.9632   48.3673 H   0  0  0  0  0  0  0  0  0  0  0  0
   63.6491   33.1031   46.7316 H   0  0  0  0  0  0  0  0  0  0  0  0
   58.5208   31.6096   45.7857 H   0  0  0  0  0  0  0  0  0  0  0  0
   57.5454   29.4918   46.6686 H   0  0  0  0  0  0  0  0  0  0  0  0
  1  2  1  0
  2  3  1  0
  3  4  2  0
  3  5  1  0
  5  6  1  0
  6  7  2  0
  7  8  1  0
  8  9  2  0
  9 10  1  0
 10 11  1  0
 11 12  1  0
 12 13  1  0
 13 14  2  0
 13 15  1  0
 15 16  2  0
 16 17  1  0
 17 18  2  0
 17 19  1  0
 19 20  2  0
 20 21  1  0
 21 22  2  0
 22 23  1  0
 23 24  2  0
 24 25  1  0
  9 26  1  0
 26 27  2  0
 27  6  1  0
 25 15  1  0
 24 19  1  0
  1 28  1  0
  1 29  1  0
  1 30  1  0
  7 31  1  0
  8 32  1  0
 10 33  1  0
 10 34  1  0
 11 35  1  0
 11 36  1  0
 12 37  1  0
 16 38  1  0
 20 39  1  0
 21 40  1  0
 22 41  1  0
 23 42  1  0
 26 43  1  0
 27 44  1  0
M  CHG  2   5  -1  25  -1
M  END
>  <UniqueID>  (68) 
62

>  <SMILES>  (68) 
COC(=O)[N-]c1ccc(CCNC(=O)c2cc(=O)c3ccccc3[n-]2)cc1

>  <Energy>  (68) 
47.0419208885157

>  <Genealogy>  (68) 
COC(=O)[N-]c1ccc(CCNC(=O)c2cc(=O)c3ccccc3[n-]2)cc1 (protonated)
COC(=O)[N-]c1ccc(CCNC(=O)c2cc(=O)c3ccccc3[n-]2)cc1 (3D coordinates assigned)
COC(=O)[N-]c1ccc(CCNC(=O)c2cc(=O)c3ccccc3[n-]2)cc1 (optimized conformer: 47.0419208885157 kcal/mol)

>  <smiles>  (68) 
COC(=O)Nc1ccc(CCNC(=O)c2cc(=O)c3ccccc3[nH]2)cc1

>  <score_type>  (68) 
oracle

>  <origin>  (68) 
adg

>  <m_score__min__energy>  (68) 
-10.41

>  <m_primary>  (68) 
energy

$$$$
68:0
     RDKit          3D

 39 41  0  0  0  0  0  0  0  0999 V2000
   55.0310   29.3820   44.3910 N   0  0  0  0  0  0  0  0  0  0  0  0
   56.5310   29.7980   43.6420 S   0  0  0  0  0  0  0  0  0  0  0  0
   57.2960   28.5450   43.3220 O   0  0  0  0  0  0  0  0  0  0  0  0
   56.2600   30.5400   42.3630 O   0  0  0  0  0  0  0  0  0  0  0  0
   57.4740   30.8010   44.7400 C   0  0  0  0  0  0  0  0  0  0  0  0
   57.8270   32.1100   44.3840 C   0  0  0  0  0  0  0  0  0  0  0  0
   58.5780   32.8950   45.2620 C   0  0  0  0  0  0  0  0  0  0  0  0
   58.9650   32.3850   46.5040 C   0  0  0  0  0  0  0  0  0  0  0  0
   58.5870   31.0920   46.8870 C   0  0  0  0  0  0  0  0  0  0  0  0
   59.0100   30.5930   48.1630 N   0  0  0  0  0  0  0  0  0  0  0  0
   58.8890   29.2450   48.6380 C   0  0  0  0  0  0  0  0  0  0  0  0
   58.6590   29.0500   49.8600 O   0  0  0  0  0  0  0  0  0  0  0  0
   59.0020   28.0650   47.7180 C   0  0  0  0  0  0  0  0  0  0  0  0
   57.7030   27.5860   47.3890 O   0  0  0  0  0  0  0  0  0  0  0  0
   57.4850   26.4800   46.5850 N   0  0  0  0  0  0  0  0  0  0  0  0
   58.4200   25.5570   46.2910 C   0  0  0  0  0  0  0  0  0  0  0  0
   59.7280   25.5940   46.7570 O   0  0  0  0  0  0  0  0  0  0  0  0
   57.8880   24.5830   45.4690 C   0  0  0  0  0  0  0  0  0  0  0  0
   56.5750   24.9260   45.2540 C   0  0  0  0  0  0  0  0  0  0  0  0
   56.3510   26.0980   45.9510 C   0  0  0  0  0  0  0  0  0  0  0  0
   55.1430   26.7820   45.9930 O   0  0  0  0  0  0  0  0  0  0  0  0
   55.6290   24.1370   44.4090 C   0  0  0  0  0  0  0  0  0  0  0  0
   56.2920   22.9020   43.8270 C   0  0  0  0  0  0  0  0  0  0  0  0
   57.5840   22.5660   44.0370 C   0  0  0  0  0  0  0  0  0  0  0  0
   58.5460   23.3760   44.8850 C   0  0  0  0  0  0  0  0  0  0  0  0
   57.8610   30.2920   45.9860 C   0  0  0  0  0  0  0  0  0  0  0  0
   55.2610   28.9600   45.3180 H   0  0  0  0  0  0  0  0  0  0  0  0
   57.5124   32.5193   43.4126 H   0  0  0  0  0  0  0  0  0  0  0  0
   58.8655   33.9172   44.9750 H   0  0  0  0  0  0  0  0  0  0  0  0
   59.5698   33.0023   47.1845 H   0  0  0  0  0  0  0  0  0  0  0  0
   59.5238   28.3675   46.7981 H   0  0  0  0  0  0  0  0  0  0  0  0
   59.5684   27.2660   48.2189 H   0  0  0  0  0  0  0  0  0  0  0  0
   54.7743   23.8249   45.0272 H   0  0  0  0  0  0  0  0  0  0  0  0
   55.3005   24.7749   43.5752 H   0  0  0  0  0  0  0  0  0  0  0  0
   55.6829   22.2391   43.1949 H   0  0  0  0  0  0  0  0  0  0  0  0
   57.9616   21.6478   43.5634 H   0  0  0  0  0  0  0  0  0  0  0  0
   58.9195   22.7428   45.7033 H   0  0  0  0  0  0  0  0  0  0  0  0
   59.3701   23.7140   44.2396 H   0  0  0  0  0  0  0  0  0  0  0  0
   57.5957   29.2607   46.2617 H   0  0  0  0  0  0  0  0  0  0  0  0
  1  2  1  0
  2  3  2  0
  2  4  2  0
  2  5  1  0
  5  6  2  0
  6  7  1  0
  7  8  2  0
  8  9  1  0
  9 10  1  0
 10 11  1  0
 11 12  2  0
 11 13  1  0
 13 14  1  0
 14 15  1  0
 15 16  1  0
 16 17  1  0
 16 18  2  0
 18 19  1  0
 19 20  2  0
 20 21  1  0
 19 22  1  0
 22 23  1  0
 23 24  2  0
 24 25  1  0
  9 26  2  0
 26  5  1  0
 20 15  1  0
 25 18  1  0
  1 27  1  0
  6 28  1  0
  7 29  1  0
  8 30  1  0
 13 31  1  0
 13 32  1  0
 22 33  1  0
 22 34  1  0
 23 35  1  0
 24 36  1  0
 25 37  1  0
 25 38  1  0
 26 39  1  0
M  CHG  4   1  -1  10  -1  17  -1  21  -1
M  END
>  <UniqueID>  (69) 
63

>  <SMILES>  (69) 
[NH-]S(=O)(=O)c1cccc([N-]C(=O)COn2c([O-])c3c(c2[O-])CC=CC3)c1

>  <Energy>  (69) 
77.35747972568913

>  <Genealogy>  (69) 
[NH-]S(=O)(=O)c1cccc([N-]C(=O)COn2c([O-])c3c(c2[O-])CC=CC3)c1 (protonated)
[NH-]S(=O)(=O)c1cccc([N-]C(=O)COn2c([O-])c3c(c2[O-])CC=CC3)c1 (3D coordinates assigned)
[NH-]S(=O)(=O)c1cccc([N-]C(=O)COn2c([O-])c3c(c2[O-])CC=CC3)c1 (nonaromatic ring conformer: 77.35747972568913 kcal/mol)

>  <smiles>  (69) 
NS(=O)(=O)c1cccc(NC(=O)COn2c(O)c3c(c2O)CC=CC3)c1

>  <score_type>  (69) 
oracle

>  <origin>  (69) 
adg

>  <m_score__min__energy>  (69) 
-15.91

>  <m_primary>  (69) 
energy

$$$$
69:0
     RDKit          3D

 34 35  0  0  0  0  0  0  0  0999 V2000
   55.9780   28.2020   45.2410 N   0  0  0  0  0  0  0  0  0  0  0  0
   56.9400   29.5150   44.6640 S   0  0  0  0  0  0  0  0  0  0  0  0
   57.5450   29.1370   43.3410 O   0  0  0  0  0  0  0  0  0  0  0  0
   56.0760   30.7300   44.4710 O   0  0  0  0  0  0  0  0  0  0  0  0
   58.2070   29.8770   45.8320 C   0  0  0  0  0  0  0  0  0  0  0  0
   59.2330   30.7690   45.4900 C   0  0  0  0  0  0  0  0  0  0  0  0
   60.2370   31.0730   46.4130 C   0  0  0  0  0  0  0  0  0  0  0  0
   60.2220   30.4910   47.6850 C   0  0  0  0  0  0  0  0  0  0  0  0
   61.5240   30.8710   48.8630 S   0  0  0  0  0  0  0  0  0  0  0  0
   60.6100   32.1990   49.7300 C   0  0  0  0  0  0  0  0  0  0  0  0
   60.7540   33.5510   49.0240 C   0  0  0  0  0  0  0  0  0  0  0  0
   59.4880   34.0730   48.6190 O   0  0  0  0  0  0  0  0  0  0  0  0
   58.9670   34.0350   47.3140 C   0  0  0  0  0  0  0  0  0  0  0  0
   59.6630   34.5420   46.1980 C   0  0  0  0  0  0  0  0  0  0  0  0
   59.0850   34.4890   44.9250 C   0  0  0  0  0  0  0  0  0  0  0  0
   57.8200   33.9230   44.7510 C   0  0  0  0  0  0  0  0  0  0  0  0
   57.1310   33.4060   45.8500 C   0  0  0  0  0  0  0  0  0  0  0  0
   57.7020   33.4610   47.1250 C   0  0  0  0  0  0  0  0  0  0  0  0
   59.2100   29.5840   48.0230 C   0  0  0  0  0  0  0  0  0  0  0  0
   58.1990   29.2860   47.1050 C   0  0  0  0  0  0  0  0  0  0  0  0
   55.1370   28.6190   45.6990 H   0  0  0  0  0  0  0  0  0  0  0  0
   59.2477   31.2310   44.4919 H   0  0  0  0  0  0  0  0  0  0  0  0
   61.0411   31.7717   46.1388 H   0  0  0  0  0  0  0  0  0  0  0  0
   59.5441   31.9300   49.7678 H   0  0  0  0  0  0  0  0  0  0  0  0
   61.0320   32.2973   50.7410 H   0  0  0  0  0  0  0  0  0  0  0  0
   61.2296   34.2642   49.7133 H   0  0  0  0  0  0  0  0  0  0  0  0
   61.3681   33.4038   48.1234 H   0  0  0  0  0  0  0  0  0  0  0  0
   60.6633   34.9805   46.3283 H   0  0  0  0  0  0  0  0  0  0  0  0
   59.6284   34.8942   44.0587 H   0  0  0  0  0  0  0  0  0  0  0  0
   57.3670   33.8846   43.7493 H   0  0  0  0  0  0  0  0  0  0  0  0
   56.1373   32.9547   45.7124 H   0  0  0  0  0  0  0  0  0  0  0  0
   57.1545   33.0508   47.9864 H   0  0  0  0  0  0  0  0  0  0  0  0
   59.2107   29.1050   49.0132 H   0  0  0  0  0  0  0  0  0  0  0  0
   57.3956   28.5870   47.3807 H   0  0  0  0  0  0  0  0  0  0  0  0
  1  2  1  0
  2  3  2  0
  2  4  2  0
  2  5  1  0
  5  6  2  0
  6  7  1  0
  7  8  2  0
  8  9  1  0
  9 10  1  0
 10 11  1  0
 11 12  1  0
 12 13  1  0
 13 14  2  0
 14 15  1  0
 15 16  2  0
 16 17  1  0
 17 18  2  0
  8 19  1  0
 19 20  2  0
 20  5  1  0
 18 13  1  0
  1 21  1  0
  6 22  1  0
  7 23  1  0
 10 24  1  0
 10 25  1  0
 11 26  1  0
 11 27  1  0
 14 28  1  0
 15 29  1  0
 16 30  1  0
 17 31  1  0
 18 32  1  0
 19 33  1  0
 20 34  1  0
M  CHG  1   1  -1
M  END
>  <UniqueID>  (70) 
64

>  <SMILES>  (70) 
[NH-]S(=O)(=O)c1ccc(SCCOc2ccccc2)cc1

>  <Energy>  (70) 
26.8037747754343

>  <Genealogy>  (70) 
[NH-]S(=O)(=O)c1ccc(SCCOc2ccccc2)cc1 (protonated)
[NH-]S(=O)(=O)c1ccc(SCCOc2ccccc2)cc1 (3D coordinates assigned)
[NH-]S(=O)(=O)c1ccc(SCCOc2ccccc2)cc1 (optimized conformer: 26.8037747754343 kcal/mol)

>  <smiles>  (70) 
NS(=O)(=O)c1ccc(SCCOc2ccccc2)cc1

>  <score_type>  (70) 
oracle

>  <origin>  (70) 
adg

>  <m_score__min__energy>  (70) 
-10.27

>  <m_primary>  (70) 
energy

$$$$
70:0
     RDKit          3D

 58 61  0  0  1  0  0  0  0  0999 V2000
   57.0080   29.4260   42.9820 C   0  0  0  0  0  0  0  0  0  0  0  0
   56.6520   29.8310   44.6780 S   0  0  0  0  0  0  0  0  0  0  0  0
   55.2920   29.3470   45.0060 O   0  0  0  0  0  0  0  0  0  0  0  0
   56.6760   31.3350   44.8390 O   0  0  0  0  0  0  0  0  0  0  0  0
   57.8210   29.1510   45.7590 C   0  0  0  0  0  0  0  0  0  0  0  0
   57.5830   27.8610   46.2450 C   0  0  0  0  0  0  0  0  0  0  0  0
   58.5080   27.2730   47.1140 C   0  0  0  0  0  0  0  0  0  0  0  0
   59.6560   27.9300   47.5100 C   0  0  0  0  0  0  0  0  0  0  0  0
   59.8860   29.2070   47.0250 C   0  0  0  0  0  0  0  0  0  0  0  0
   58.9820   29.8290   46.1520 C   0  0  0  0  0  0  0  0  0  0  0  0
   59.2540   31.1210   45.6460 N   0  0  0  0  0  0  0  0  0  0  0  0
   59.1980   32.1850   46.3460 C   0  0  0  0  0  0  0  0  0  0  0  0
   59.4690   32.0990   47.6600 N   0  0  0  0  0  0  0  0  0  0  0  0
   59.4290   33.1750   48.4580 C   0  0  0  0  0  0  0  0  0  0  0  0
   59.6970   33.0400   49.7130 N   0  0  0  0  0  0  0  0  0  0  0  0
   58.8060   32.4270   50.6370 C   0  0  0  0  0  0  0  0  0  0  0  0
   58.4540   31.1070   50.3950 C   0  0  0  0  0  0  0  0  0  0  0  0
   57.5910   30.4540   51.2560 C   0  0  0  0  0  0  0  0  0  0  0  0
   57.0480   31.0610   52.3720 C   0  0  0  0  0  0  0  0  0  0  0  0
   56.1670   30.4240   53.2700 N   0  0  0  0  0  0  0  0  0  0  0  0
   54.7890   30.1030   52.8680 C   0  0  0  0  0  0  0  0  0  0  0  0
   54.2320   28.9970   53.7430 C   0  0  0  0  0  0  0  0  0  0  0  0
   55.2940   28.0810   54.1160 N   0  0  0  0  0  0  0  0  0  0  0  0
   55.0820   26.6650   53.9520 C   0  0  0  0  0  0  0  0  0  0  0  0
   56.0860   25.7370   54.3010 N   0  0  0  0  0  0  0  0  0  0  0  0
   53.9510   26.3070   53.4810 O   0  0  0  0  0  0  0  0  0  0  0  0
   56.5580   28.5350   54.6460 C   0  0  0  0  0  0  0  0  0  0  0  0
   56.5290   30.0450   54.6220 C   0  0  0  0  0  0  0  0  0  0  0  0
   57.4070   32.3720   52.5980 C   0  0  0  0  0  0  0  0  0  0  0  0
   58.2800   33.0390   51.7320 C   0  0  0  0  0  0  0  0  0  0  0  0
   59.1130   34.3920   47.9730 N   0  0  0  0  0  0  0  0  0  0  0  0
   58.8390   34.4860   46.6480 C   0  0  0  0  0  0  0  0  0  0  0  0
   58.8710   33.4030   45.8010 C   0  0  0  0  0  0  0  0  0  0  0  0
   58.5210   33.5960   44.1230 Cl  0  0  0  0  0  0  0  0  0  0  0  0
   57.7339   28.6002   42.9468 H   0  0  0  0  0  0  0  0  0  0  0  0
   56.0805   29.1208   42.4755 H   0  0  0  0  0  0  0  0  0  0  0  0
   57.4297   30.3067   42.4755 H   0  0  0  0  0  0  0  0  0  0  0  0
   56.6766   27.3140   45.9464 H   0  0  0  0  0  0  0  0  0  0  0  0
   58.3154   26.2584   47.4927 H   0  0  0  0  0  0  0  0  0  0  0  0
   60.3712   27.4506   48.1946 H   0  0  0  0  0  0  0  0  0  0  0  0
   60.7961   29.7439   47.3308 H   0  0  0  0  0  0  0  0  0  0  0  0
   59.7190   31.1870   48.0940 H   0  0  0  0  0  0  0  0  0  0  0  0
   58.8609   30.5804   49.5192 H   0  0  0  0  0  0  0  0  0  0  0  0
   57.3259   29.4078   51.0435 H   0  0  0  0  0  0  0  0  0  0  0  0
   54.1615   31.0003   52.9732 H   0  0  0  0  0  0  0  0  0  0  0  0
   54.7901   29.7659   51.8209 H   0  0  0  0  0  0  0  0  0  0  0  0
   53.7933   29.4362   54.6511 H   0  0  0  0  0  0  0  0  0  0  0  0
   53.4591   28.4480   53.1851 H   0  0  0  0  0  0  0  0  0  0  0  0
   56.6610   25.9600   55.1570 H   0  0  0  0  0  0  0  0  0  0  0  0
   56.2990   24.8600   53.7840 H   0  0  0  0  0  0  0  0  0  0  0  0
   56.6861   28.1758   55.6778 H   0  0  0  0  0  0  0  0  0  0  0  0
   57.3965   28.1485   54.0480 H   0  0  0  0  0  0  0  0  0  0  0  0
   55.7826   30.4229   55.3362 H   0  0  0  0  0  0  0  0  0  0  0  0
   57.5032   30.4680   54.9084 H   0  0  0  0  0  0  0  0  0  0  0  0
   57.0011   32.9019   53.4723 H   0  0  0  0  0  0  0  0  0  0  0  0
   58.5479   34.0850   51.9419 H   0  0  0  0  0  0  0  0  0  0  0  0
   59.0830   35.2310   48.5990 H   0  0  0  0  0  0  0  0  0  0  0  0
   58.5800   35.4712   46.2329 H   0  0  0  0  0  0  0  0  0  0  0  0
  1  2  1  0
  2  3  2  0
  2  4  2  0
  2  5  1  0
  5  6  2  0
  6  7  1  0
  7  8  2  0
  8  9  1  0
  9 10  2  0
 10 11  1  0
 11 12  2  0
 12 13  1  0
 13 14  1  0
 14 15  2  0
 15 16  1  0
 16 17  2  0
 17 18  1  0
 18 19  2  0
 19 20  1  0
 20 21  1  0
 21 22  1  0
 22 23  1  0
 23 24  1  0
 24 25  1  0
 24 26  2  0
 23 27  1  0
 27 28  1  0
 19 29  1  0
 29 30  2  0
 14 31  1  0
 31 32  1  0
 32 33  2  0
 33 34  1  0
 10  5  1  0
 33 12  1  0
 30 16  1  0
 28 20  1  0
  1 35  1  0
  1 36  1  0
  1 37  1  0
  6 38  1  0
  7 39  1  0
  8 40  1  0
  9 41  1  0
 13 42  1  0
 17 43  1  0
 18 44  1  0
 21 45  1  0
 21 46  1  0
 22 47  1  0
 22 48  1  0
 25 49  1  0
 25 50  1  0
 27 51  1  0
 27 52  1  0
 28 53  1  0
 28 54  1  0
 29 55  1  0
 30 56  1  0
 31 57  1  0
 32 58  1  0
M  END
>  <smiles>  (71) 
CS(=O)(=O)c1ccccc1N=c1[nH]c(=Nc2ccc(N3CCN(C(N)=O)CC3)cc2)[nH]cc1Cl

>  <score_type>  (71) 
oracle

>  <origin>  (71) 
adg

>  <m_score__min__energy>  (71) 
-10.16

>  <m_primary>  (71) 
energy

$$$$
71:0
     RDKit          3D

 53 55  0  0  0  0  0  0  0  0999 V2000
   60.0300   35.5160   46.3460 C   0  0  0  0  0  0  0  0  0  0  0  0
   59.0100   35.2200   45.3960 O   0  0  0  0  0  0  0  0  0  0  0  0
   58.5680   33.9240   45.0820 C   0  0  0  0  0  0  0  0  0  0  0  0
   58.5060   33.4590   43.7540 C   0  0  0  0  0  0  0  0  0  0  0  0
   58.0590   32.1650   43.4790 C   0  0  0  0  0  0  0  0  0  0  0  0
   57.6830   31.3130   44.5210 C   0  0  0  0  0  0  0  0  0  0  0  0
   57.1230   29.6820   44.1560 S   0  0  0  0  0  0  0  0  0  0  0  0
   56.3590   29.7210   42.8620 O   0  0  0  0  0  0  0  0  0  0  0  0
   56.2050   29.1950   45.2440 O   0  0  0  0  0  0  0  0  0  0  0  0
   58.4830   28.5960   44.0080 N   0  0  0  0  0  0  0  0  0  0  0  0
   58.0200   27.2040   44.0870 C   0  0  0  0  0  0  0  0  0  0  0  0
   59.4680   28.8730   45.0620 C   0  0  0  0  0  0  0  0  0  0  0  0
   57.7520   31.7660   45.8430 C   0  0  0  0  0  0  0  0  0  0  0  0
   58.1690   33.0780   46.1290 C   0  0  0  0  0  0  0  0  0  0  0  0
   58.2310   33.5710   47.4770 N   0  0  0  0  0  0  0  0  0  0  0  0
   59.1920   33.2290   48.4880 C   0  0  0  0  0  0  0  0  0  0  0  0
   59.9760   34.1250   48.8960 O   0  0  0  0  0  0  0  0  0  0  0  0
   59.2270   31.8880   49.1210 C   0  0  0  0  0  0  0  0  0  0  0  0
   58.3100   31.5940   50.1460 C   0  0  0  0  0  0  0  0  0  0  0  0
   58.3080   30.3420   50.7660 C   0  0  0  0  0  0  0  0  0  0  0  0
   59.2350   29.3750   50.3840 C   0  0  0  0  0  0  0  0  0  0  0  0
   60.1630   29.6520   49.3800 C   0  0  0  0  0  0  0  0  0  0  0  0
   60.1650   30.8980   48.7340 C   0  0  0  0  0  0  0  0  0  0  0  0
   61.3890   31.1790   47.4390 S   0  0  0  0  0  0  0  0  0  0  0  0
   62.6600   31.7710   48.5710 C   0  0  0  0  0  0  0  0  0  0  0  0
   62.8090   31.1380   49.8130 C   0  0  0  0  0  0  0  0  0  0  0  0
   63.7920   31.5640   50.7080 C   0  0  0  0  0  0  0  0  0  0  0  0
   64.6490   32.6090   50.3620 C   0  0  0  0  0  0  0  0  0  0  0  0
   64.5220   33.2370   49.1210 C   0  0  0  0  0  0  0  0  0  0  0  0
   63.5330   32.8210   48.2180 C   0  0  0  0  0  0  0  0  0  0  0  0
   63.4470   33.4680   46.9320 C   0  0  0  0  0  0  0  0  0  0  0  0
   63.3790   33.9880   45.9000 N   0  0  0  0  0  0  0  0  0  0  0  0
   59.6284   35.3995   47.3634 H   0  0  0  0  0  0  0  0  0  0  0  0
   60.8748   34.8260   46.2040 H   0  0  0  0  0  0  0  0  0  0  0  0
   60.3742   36.5511   46.2040 H   0  0  0  0  0  0  0  0  0  0  0  0
   58.8115   34.1190   42.9287 H   0  0  0  0  0  0  0  0  0  0  0  0
   58.0026   31.8148   42.4378 H   0  0  0  0  0  0  0  0  0  0  0  0
   58.9320   28.7520   43.0760 H   0  0  0  0  0  0  0  0  0  0  0  0
   57.9220   26.9095   45.1423 H   0  0  0  0  0  0  0  0  0  0  0  0
   57.0434   27.1136   43.5889 H   0  0  0  0  0  0  0  0  0  0  0  0
   58.7479   26.5466   43.5889 H   0  0  0  0  0  0  0  0  0  0  0  0
   58.9975   28.7407   46.0475 H   0  0  0  0  0  0  0  0  0  0  0  0
   60.3152   28.1783   44.9639 H   0  0  0  0  0  0  0  0  0  0  0  0
   59.8289   29.9075   44.9639 H   0  0  0  0  0  0  0  0  0  0  0  0
   57.4776   31.0897   46.6660 H   0  0  0  0  0  0  0  0  0  0  0  0
   57.5858   32.3588   50.4633 H   0  0  0  0  0  0  0  0  0  0  0  0
   57.5748   30.1200   51.5554 H   0  0  0  0  0  0  0  0  0  0  0  0
   59.2353   28.3907   50.8751 H   0  0  0  0  0  0  0  0  0  0  0  0
   60.8995   28.8873   49.0921 H   0  0  0  0  0  0  0  0  0  0  0  0
   62.1480   30.3014   50.0836 H   0  0  0  0  0  0  0  0  0  0  0  0
   63.8910   31.0746   51.6882 H   0  0  0  0  0  0  0  0  0  0  0  0
   65.4258   32.9388   51.0675 H   0  0  0  0  0  0  0  0  0  0  0  0
   65.1997   34.0603   48.8511 H   0  0  0  0  0  0  0  0  0  0  0  0
  1  2  1  0
  2  3  1  0
  3  4  2  0
  4  5  1  0
  5  6  2  0
  6  7  1  0
  7  8  2  0
  7  9  2  0
  7 10  1  0
 10 11  1  0
 10 12  1  0
  6 13  1  0
 13 14  2  0
 14 15  1  0
 15 16  1  0
 16 17  2  0
 16 18  1  0
 18 19  2  0
 19 20  1  0
 20 21  2  0
 21 22  1  0
 22 23  2  0
 23 24  1  0
 24 25  1  0
 25 26  2  0
 26 27  1  0
 27 28  2  0
 28 29  1  0
 29 30  2  0
 30 31  1  0
 31 32  3  0
 14  3  1  0
 23 18  1  0
 30 25  1  0
  1 33  1  0
  1 34  1  0
  1 35  1  0
  4 36  1  0
  5 37  1  0
 10 38  1  0
 11 39  1  0
 11 40  1  0
 11 41  1  0
 12 42  1  0
 12 43  1  0
 12 44  1  0
 13 45  1  0
 19 46  1  0
 20 47  1  0
 21 48  1  0
 22 49  1  0
 26 50  1  0
 27 51  1  0
 28 52  1  0
 29 53  1  0
M  CHG  2  10   1  15  -1
M  END
>  <UniqueID>  (72) 
65

>  <SMILES>  (72) 
COc1ccc(S(=O)(=O)[NH+](C)C)cc1[N-]C(=O)c1ccccc1Sc1ccccc1C#N

>  <Energy>  (72) 
52.80663562797799

>  <Genealogy>  (72) 
COc1ccc(S(=O)(=O)[NH+](C)C)cc1[N-]C(=O)c1ccccc1Sc1ccccc1C#N (protonated)
COc1ccc(S(=O)(=O)[NH+](C)C)cc1[N-]C(=O)c1ccccc1Sc1ccccc1C#N (3D coordinates assigned)
COc1ccc(S(=O)(=O)[NH+](C)C)cc1[N-]C(=O)c1ccccc1Sc1ccccc1C#N (optimized conformer: 52.80663562797799 kcal/mol)

>  <smiles>  (72) 
COc1ccc(S(=O)(=O)N(C)C)cc1NC(=O)c1ccccc1Sc1ccccc1C#N

>  <score_type>  (72) 
oracle

>  <origin>  (72) 
adg

>  <m_score__min__energy>  (72) 
-8.75

>  <m_primary>  (72) 
energy

$$$$
72:0
     RDKit          3D

 36 38  0  0  0  0  0  0  0  0999 V2000
   54.7970   26.7150   45.2200 H   0  0  0  0  0  0  0  0  0  0  0  0
   54.6440   25.9940   45.9590 N   0  0  0  0  0  0  0  0  0  0  0  0
   56.1730   25.2540   46.2750 S   0  0  0  0  0  0  0  0  0  0  0  0
   56.4160   24.1880   45.2430 O   0  0  0  0  0  0  0  0  0  0  0  0
   56.1590   24.6310   47.6430 O   0  0  0  0  0  0  0  0  0  0  0  0
   57.4450   26.4680   46.1990 C   0  0  0  0  0  0  0  0  0  0  0  0
   58.7410   26.1510   46.6240 C   0  0  0  0  0  0  0  0  0  0  0  0
   58.9602   25.1442   47.0091 H   0  0  0  0  0  0  0  0  0  0  0  0
   59.7580   27.1090   46.5610 C   0  0  0  0  0  0  0  0  0  0  0  0
   60.7681   26.8590   46.9178 H   0  0  0  0  0  0  0  0  0  0  0  0
   59.4970   28.3850   46.0460 C   0  0  0  0  0  0  0  0  0  0  0  0
   60.5540   29.3570   46.0320 N   0  0  0  0  0  0  0  0  0  0  0  0
   60.6310   30.4280   46.7670 C   0  0  0  0  0  0  0  0  0  0  0  0
   61.7810   31.1230   46.9040 N   0  0  0  0  0  0  0  0  0  0  0  0
   61.6470   32.2150   47.6530 N   0  0  0  0  0  0  0  0  0  0  0  0
   60.3880   32.3990   48.1050 C   0  0  0  0  0  0  0  0  0  0  0  0
   59.8950   33.7850   49.1260 S   0  0  0  0  0  0  0  0  0  0  0  0
   59.7400   34.9560   47.7320 C   0  0  0  0  0  0  0  0  0  0  0  0
   59.2074   35.8552   48.0751 H   0  0  0  0  0  0  0  0  0  0  0  0
   60.7489   35.2166   47.3795 H   0  0  0  0  0  0  0  0  0  0  0  0
   58.9790   34.3390   46.5920 C   0  0  0  0  0  0  0  0  0  0  0  0
   59.5500   34.2840   45.3090 C   0  0  0  0  0  0  0  0  0  0  0  0
   60.5487   34.7110   45.1352 H   0  0  0  0  0  0  0  0  0  0  0  0
   58.8540   33.6890   44.2530 C   0  0  0  0  0  0  0  0  0  0  0  0
   59.3045   33.6521   43.2502 H   0  0  0  0  0  0  0  0  0  0  0  0
   57.5870   33.1410   44.4690 C   0  0  0  0  0  0  0  0  0  0  0  0
   57.0410   32.6733   43.6365 H   0  0  0  0  0  0  0  0  0  0  0  0
   57.0130   33.1870   45.7430 C   0  0  0  0  0  0  0  0  0  0  0  0
   56.0161   32.7540   45.9125 H   0  0  0  0  0  0  0  0  0  0  0  0
   57.7050   33.7830   46.8020 C   0  0  0  0  0  0  0  0  0  0  0  0
   57.2507   33.8169   47.8032 H   0  0  0  0  0  0  0  0  0  0  0  0
   59.3540   31.1780   47.5840 S   0  0  0  0  0  0  0  0  0  0  0  0
   58.1900   28.7120   45.6440 C   0  0  0  0  0  0  0  0  0  0  0  0
   57.9665   29.7244   45.2764 H   0  0  0  0  0  0  0  0  0  0  0  0
   57.1730   27.7540   45.7100 C   0  0  0  0  0  0  0  0  0  0  0  0
   56.1563   28.0101   45.3772 H   0  0  0  0  0  0  0  0  0  0  0  0
  1  2  1  0
  2  3  1  0
  3  4  2  0
  3  5  2  0
  3  6  1  0
  6  7  2  0
  7  8  1  0
  7  9  1  0
  9 10  1  0
  9 11  2  0
 11 12  1  0
 12 13  2  0
 13 14  1  0
 14 15  1  0
 15 16  2  0
 16 17  1  0
 17 18  1  0
 18 19  1  0
 18 20  1  0
 18 21  1  0
 21 22  2  0
 22 23  1  0
 22 24  1  0
 24 25  1  0
 24 26  2  0
 26 27  1  0
 26 28  1  0
 28 29  1  0
 28 30  2  0
 30 31  1  0
 16 32  1  0
 11 33  1  0
 33 34  1  0
 33 35  2  0
 35 36  1  0
 35  6  1  0
 32 13  1  0
 30 21  1  0
M  CHG  2   2  -1  14  -1
M  END
>  <UniqueID>  (73) 
66

>  <SMILES>  (73) 
[NH-]S(=O)(=O)c1ccc(/N=c2/[n-]nc(SCc3ccccc3)s2)cc1

>  <Energy>  (73) 
75.54486434654514

>  <Genealogy>  (73) 
[NH-]S(=O)(=O)c1ccc(N=c2[n-]nc(SCc3ccccc3)s2)cc1 (protonated)
[NH-]S(=O)(=O)c1ccc(/N=c2/[n-]nc(SCc3ccccc3)s2)cc1 (cis-trans isomerization)
[NH-]S(=O)(=O)c1ccc(/N=c2/[n-]nc(SCc3ccccc3)s2)cc1 (3D coordinates assigned)
[NH-]S(=O)(=O)c1ccc(/N=c2/[n-]nc(SCc3ccccc3)s2)cc1 (optimized conformer: 75.54486434654514 kcal/mol)

>  <smiles>  (73) 
NS(=O)(=O)c1ccc(N=c2[nH]nc(SCc3ccccc3)s2)cc1

>  <score_type>  (73) 
oracle

>  <origin>  (73) 
adg

>  <m_score__min__energy>  (73) 
-12.24

>  <m_primary>  (73) 
energy

$$$$
73:0
     RDKit          3D

 60 65  0  0  0  0  0  0  0  0999 V2000
   62.1497   33.0228   54.1301 H   0  0  0  0  0  0  0  0  0  0  0  0
   61.6760   32.6170   53.2240 C   0  0  0  0  0  0  0  0  0  0  0  0
   61.8160   31.2980   52.9230 N   0  0  0  0  0  0  0  0  0  0  0  0
   61.2310   30.7980   51.8090 C   0  0  0  0  0  0  0  0  0  0  0  0
   61.3220   29.1980   51.2930 S   0  0  0  0  0  0  0  0  0  0  0  0
   60.3860   29.4840   49.9200 C   0  0  0  0  0  0  0  0  0  0  0  0
   60.0100   28.5860   48.9300 C   0  0  0  0  0  0  0  0  0  0  0  0
   60.3560   27.3740   49.0130 O   0  0  0  0  0  0  0  0  0  0  0  0
   59.2520   29.0380   47.8800 N   0  0  0  0  0  0  0  0  0  0  0  0
   58.8680   28.1540   46.8080 C   0  0  0  0  0  0  0  0  0  0  0  0
   59.4040   28.3210   45.5210 C   0  0  0  0  0  0  0  0  0  0  0  0
   60.1122   29.1397   45.3258 H   0  0  0  0  0  0  0  0  0  0  0  0
   59.0430   27.4530   44.4860 C   0  0  0  0  0  0  0  0  0  0  0  0
   59.4604   27.5999   43.4789 H   0  0  0  0  0  0  0  0  0  0  0  0
   58.1510   26.3950   44.7240 C   0  0  0  0  0  0  0  0  0  0  0  0
   57.7680   25.4850   43.6190 C   0  0  0  0  0  0  0  0  0  0  0  0
   57.6880   25.9490   42.4490 O   0  0  0  0  0  0  0  0  0  0  0  0
   57.4820   24.0900   43.8440 N   0  0  0  0  0  0  0  0  0  0  0  0
   58.1730   23.3220   44.8890 C   0  0  0  0  0  0  0  0  0  0  0  0
   59.0549   23.8854   45.2279 H   0  0  0  0  0  0  0  0  0  0  0  0
   57.4789   23.1602   45.7268 H   0  0  0  0  0  0  0  0  0  0  0  0
   58.6250   21.9520   44.3480 C   0  0  0  0  0  0  0  0  0  0  0  0
   59.5707   22.0928   43.8042 H   0  0  0  0  0  0  0  0  0  0  0  0
   58.7238   21.2893   45.2204 H   0  0  0  0  0  0  0  0  0  0  0  0
   57.6580   21.3010   43.4330 N   0  0  0  0  0  0  0  0  0  0  0  0
   57.5180   20.3070   43.7350 H   0  0  0  0  0  0  0  0  0  0  0  0
   56.3400   21.9490   43.3950 C   0  0  0  0  0  0  0  0  0  0  0  0
   55.7014   21.4344   42.6620 H   0  0  0  0  0  0  0  0  0  0  0  0
   55.8796   21.8932   44.3925 H   0  0  0  0  0  0  0  0  0  0  0  0
   56.4940   23.4170   42.9920 C   0  0  0  0  0  0  0  0  0  0  0  0
   56.8249   23.4707   41.9443 H   0  0  0  0  0  0  0  0  0  0  0  0
   55.5231   23.9198   43.1128 H   0  0  0  0  0  0  0  0  0  0  0  0
   57.6020   26.2390   46.0080 C   0  0  0  0  0  0  0  0  0  0  0  0
   56.8819   25.4299   46.2000 H   0  0  0  0  0  0  0  0  0  0  0  0
   57.9650   27.1050   47.0420 C   0  0  0  0  0  0  0  0  0  0  0  0
   57.5403   26.9640   48.0468 H   0  0  0  0  0  0  0  0  0  0  0  0
   58.8590   30.3550   47.8310 C   0  0  0  0  0  0  0  0  0  0  0  0
   58.2382   30.7038   46.9926 H   0  0  0  0  0  0  0  0  0  0  0  0
   59.2270   31.2360   48.8060 N   0  0  0  0  0  0  0  0  0  0  0  0
   58.9070   32.2220   48.7160 H   0  0  0  0  0  0  0  0  0  0  0  0
   59.9930   30.8120   49.8510 C   0  0  0  0  0  0  0  0  0  0  0  0
   60.4770   31.5820   50.9360 C   0  0  0  0  0  0  0  0  0  0  0  0
   60.3150   32.9560   51.2180 C   0  0  0  0  0  0  0  0  0  0  0  0
   59.6200   33.7160   50.4180 N   0  0  0  0  0  0  0  0  0  0  0  0
   60.1090   34.4990   49.2820 C   0  0  0  0  0  0  0  0  0  0  0  0
   59.3403   34.5140   48.4953 H   0  0  0  0  0  0  0  0  0  0  0  0
   60.3242   35.5226   49.6226 H   0  0  0  0  0  0  0  0  0  0  0  0
   61.3730   33.8950   48.7280 C   0  0  0  0  0  0  0  0  0  0  0  0
   61.3330   33.0540   47.6020 C   0  0  0  0  0  0  0  0  0  0  0  0
   60.3710   32.8326   47.1168 H   0  0  0  0  0  0  0  0  0  0  0  0
   62.5130   32.4980   47.0970 C   0  0  0  0  0  0  0  0  0  0  0  0
   62.4778   31.8470   46.2110 H   0  0  0  0  0  0  0  0  0  0  0  0
   63.7370   32.7680   47.7160 C   0  0  0  0  0  0  0  0  0  0  0  0
   64.6635   32.3291   47.3171 H   0  0  0  0  0  0  0  0  0  0  0  0
   63.7840   33.5950   48.8410 C   0  0  0  0  0  0  0  0  0  0  0  0
   64.7472   33.8050   49.3291 H   0  0  0  0  0  0  0  0  0  0  0  0
   62.6070   34.1560   49.3470 C   0  0  0  0  0  0  0  0  0  0  0  0
   62.6476   34.8050   50.2342 H   0  0  0  0  0  0  0  0  0  0  0  0
   60.9320   33.4650   52.3880 C   0  0  0  0  0  0  0  0  0  0  0  0
   60.8275   34.5300   52.6425 H   0  0  0  0  0  0  0  0  0  0  0  0
  1  2  1  0
  2  3  1  0
  3  4  1  0
  4  5  1  0
  5  6  1  0
  6  7  1  0
  7  8  2  0
  7  9  1  0
  9 10  1  0
 10 11  2  0
 11 12  1  0
 11 13  1  0
 13 14  1  0
 13 15  2  0
 15 16  1  0
 16 17  2  0
 16 18  1  0
 18 19  1  0
 19 20  1  0
 19 21  1  0
 19 22  1  0
 22 23  1  0
 22 24  1  0
 22 25  1  0
 25 26  1  0
 25 27  1  0
 27 28  1  0
 27 29  1  0
 27 30  1  0
 30 31  1  0
 30 32  1  0
 15 33  1  0
 33 34  1  0
 33 35  2  0
 35 36  1  0
  9 37  1  0
 37 38  1  0
 37 39  2  0
 39 40  1  0
 39 41  1  0
 41 42  1  0
 42 43  1  0
 43 44  2  0
 44 45  1  0
 45 46  1  0
 45 47  1  0
 45 48  1  0
 48 49  2  0
 49 50  1  0
 49 51  1  0
 51 52  1  0
 51 53  2  0
 53 54  1  0
 53 55  1  0
 55 56  1  0
 55 57  2  0
 57 58  1  0
 43 59  1  0
 59 60  1  0
 59  2  2  0
 42  4  2  0
 57 48  1  0
 41  6  2  0
 35 10  1  0
 30 18  1  0
M  CHG  2   3  -1  39   1
M  END
>  <UniqueID>  (74) 
67

>  <SMILES>  (74) 
O=C(c1ccc(-n2c[nH+]c3c(sc4[n-]cc/c(=N\Cc5ccccc5)c43)c2=O)cc1)N1CCNCC1

>  <Energy>  (74) 
128.42335521700682

>  <Genealogy>  (74) 
O=C(c1ccc(-n2c[nH+]c3c(sc4[n-]ccc(=NCc5ccccc5)c43)c2=O)cc1)N1CCNCC1 (protonated)
O=C(c1ccc(-n2c[nH+]c3c(sc4[n-]cc/c(=N\Cc5ccccc5)c43)c2=O)cc1)N1CCNCC1 (cis-trans isomerization)
O=C(c1ccc(-n2c[nH+]c3c(sc4[n-]cc/c(=N\Cc5ccccc5)c43)c2=O)cc1)N1CCNCC1 (3D coordinates assigned)
O=C(c1ccc(-n2c[nH+]c3c(sc4[n-]cc/c(=N\Cc5ccccc5)c43)c2=O)cc1)N1CCNCC1 (nonaromatic ring conformer: 128.42335521700682 kcal/mol)

>  <smiles>  (74) 
O=C(c1ccc(-n2cnc3c(sc4[nH]ccc(=NCc5ccccc5)c43)c2=O)cc1)N1CCNCC1

>  <score_type>  (74) 
oracle

>  <origin>  (74) 
adg

>  <m_score__min__energy>  (74) 
-9.25

>  <m_primary>  (74) 
energy

$$$$
74:0
     RDKit          3D

 48 50  0  0  0  0  0  0  0  0999 V2000
   64.4340   31.9310   49.4960 C   0  0  0  0  0  0  0  0  0  0  0  0
   63.7140   32.3440   48.2970 N   0  0  0  0  0  0  0  0  0  0  0  0
   64.0530   33.3400   47.4600 C   0  0  0  0  0  0  0  0  0  0  0  0
   63.1010   33.5110   46.5250 N   0  0  0  0  0  0  0  0  0  0  0  0
   62.1290   32.6390   46.7540 N   0  0  0  0  0  0  0  0  0  0  0  0
   62.5130   31.9330   47.8350 C   0  0  0  0  0  0  0  0  0  0  0  0
   61.5180   30.6220   48.5570 S   0  0  0  0  0  0  0  0  0  0  0  0
   61.2910   31.4650   50.1650 C   0  0  0  0  0  0  0  0  0  0  0  0
   60.1930   32.5210   50.0720 C   0  0  0  0  0  0  0  0  0  0  0  0
   60.7040   33.7290   49.4100 N   0  0  0  0  0  0  0  0  0  0  0  0
   59.6110   34.5870   48.9220 C   0  0  0  0  0  0  0  0  0  0  0  0
   59.1710   34.2120   47.5240 C   0  0  0  0  0  0  0  0  0  0  0  0
   59.8300   34.7500   46.4070 C   0  0  0  0  0  0  0  0  0  0  0  0
   59.3810   34.4630   45.1160 C   0  0  0  0  0  0  0  0  0  0  0  0
   58.2570   33.6360   44.9210 C   0  0  0  0  0  0  0  0  0  0  0  0
   57.7600   33.3220   43.6470 O   0  0  0  0  0  0  0  0  0  0  0  0
   58.0380   32.1220   42.9250 C   0  0  0  0  0  0  0  0  0  0  0  0
   57.6330   30.9110   43.7230 C   0  0  0  0  0  0  0  0  0  0  0  0
   58.6040   30.1700   44.4160 C   0  0  0  0  0  0  0  0  0  0  0  0
   58.2380   29.0310   45.1400 C   0  0  0  0  0  0  0  0  0  0  0  0
   56.9010   28.6250   45.1780 C   0  0  0  0  0  0  0  0  0  0  0  0
   55.9290   29.3530   44.4860 C   0  0  0  0  0  0  0  0  0  0  0  0
   56.2920   30.4890   43.7560 C   0  0  0  0  0  0  0  0  0  0  0  0
   57.6060   33.0990   46.0390 C   0  0  0  0  0  0  0  0  0  0  0  0
   58.0540   33.3870   47.3310 C   0  0  0  0  0  0  0  0  0  0  0  0
   63.8754   32.2514   50.3878 H   0  0  0  0  0  0  0  0  0  0  0  0
   64.5380   30.8359   49.5023 H   0  0  0  0  0  0  0  0  0  0  0  0
   65.4317   32.3941   49.5023 H   0  0  0  0  0  0  0  0  0  0  0  0
   64.9779   33.9314   47.5298 H   0  0  0  0  0  0  0  0  0  0  0  0
   63.1010   34.2140   45.7550 H   0  0  0  0  0  0  0  0  0  0  0  0
   61.0127   30.7212   50.9262 H   0  0  0  0  0  0  0  0  0  0  0  0
   62.2341   31.9597   50.4405 H   0  0  0  0  0  0  0  0  0  0  0  0
   59.3498   32.1180   49.4918 H   0  0  0  0  0  0  0  0  0  0  0  0
   59.8601   32.7823   51.0873 H   0  0  0  0  0  0  0  0  0  0  0  0
   61.2950   33.4410   48.5950 H   0  0  0  0  0  0  0  0  0  0  0  0
   58.7522   34.4880   49.6022 H   0  0  0  0  0  0  0  0  0  0  0  0
   59.9815   35.6223   48.8932 H   0  0  0  0  0  0  0  0  0  0  0  0
   60.7050   35.4013   46.5495 H   0  0  0  0  0  0  0  0  0  0  0  0
   59.9075   34.8847   44.2471 H   0  0  0  0  0  0  0  0  0  0  0  0
   57.4786   32.1333   41.9779 H   0  0  0  0  0  0  0  0  0  0  0  0
   59.1195   32.0703   42.7307 H   0  0  0  0  0  0  0  0  0  0  0  0
   59.6570   30.4869   44.3892 H   0  0  0  0  0  0  0  0  0  0  0  0
   59.0030   28.4540   45.6802 H   0  0  0  0  0  0  0  0  0  0  0  0
   56.6137   27.7322   45.7528 H   0  0  0  0  0  0  0  0  0  0  0  0
   54.8773   29.0319   44.5157 H   0  0  0  0  0  0  0  0  0  0  0  0
   55.5258   31.0546   43.2055 H   0  0  0  0  0  0  0  0  0  0  0  0
   56.7334   32.4441   45.8986 H   0  0  0  0  0  0  0  0  0  0  0  0
   57.5282   32.9647   48.2000 H   0  0  0  0  0  0  0  0  0  0  0  0
  1  2  1  0
  2  3  1  0
  3  4  2  0
  4  5  1  0
  5  6  2  0
  6  7  1  0
  7  8  1  0
  8  9  1  0
  9 10  1  0
 10 11  1  0
 11 12  1  0
 12 13  2  0
 13 14  1  0
 14 15  2  0
 15 16  1  0
 16 17  1  0
 17 18  1  0
 18 19  2  0
 19 20  1  0
 20 21  2  0
 21 22  1  0
 22 23  2  0
 15 24  1  0
 24 25  2  0
  6  2  1  0
 25 12  1  0
 23 18  1  0
  1 26  1  0
  1 27  1  0
  1 28  1  0
  3 29  1  0
  4 30  1  0
  8 31  1  0
  8 32  1  0
  9 33  1  0
  9 34  1  0
 10 35  1  0
 11 36  1  0
 11 37  1  0
 13 38  1  0
 14 39  1  0
 17 40  1  0
 17 41  1  0
 19 42  1  0
 20 43  1  0
 21 44  1  0
 22 45  1  0
 23 46  1  0
 24 47  1  0
 25 48  1  0
M  CHG  1   4   1
M  END
>  <UniqueID>  (75) 
68

>  <SMILES>  (75) 
Cn1c[nH+]nc1SCCNCc1ccc(OCc2ccccc2)cc1

>  <Energy>  (75) 
73.88633964294482

>  <Genealogy>  (75) 
Cn1c[nH+]nc1SCCNCc1ccc(OCc2ccccc2)cc1 (protonated)
Cn1c[nH+]nc1SCCNCc1ccc(OCc2ccccc2)cc1 (3D coordinates assigned)
Cn1c[nH+]nc1SCCNCc1ccc(OCc2ccccc2)cc1 (optimized conformer: 73.88633964294482 kcal/mol)

>  <smiles>  (75) 
Cn1cnnc1SCCNCc1ccc(OCc2ccccc2)cc1

>  <score_type>  (75) 
oracle

>  <origin>  (75) 
adg

>  <m_score__min__energy>  (75) 
-6.54

>  <m_primary>  (75) 
energy

$$$$
75:0
     RDKit          3D

 39 42  0  0  0  0  0  0  0  0999 V2000
   60.8200   27.1130   46.9880 O   0  0  0  0  0  0  0  0  0  0  0  0
   59.6340   27.3510   46.6390 C   0  0  0  0  0  0  0  0  0  0  0  0
   58.7880   26.4090   45.8700 C   0  0  1  0  0  0  0  0  0  0  0  0
   58.4290   25.1120   46.6260 C   0  0  0  0  0  0  0  0  0  0  0  0
   56.9100   24.9430   46.4740 C   0  0  0  0  0  0  0  0  0  0  0  0
   56.4710   26.2870   46.0410 C   0  0  0  0  0  0  0  0  0  0  0  0
   55.2670   26.6490   45.9890 O   0  0  0  0  0  0  0  0  0  0  0  0
   57.5480   27.1470   45.7220 N   0  0  0  0  0  0  0  0  0  0  0  0
   57.6520   28.5160   46.2410 C   0  0  2  0  0  0  0  0  0  0  0  0
   57.5130   29.4980   45.0970 C   0  0  0  0  0  0  0  0  0  0  0  0
   58.6400   30.2070   44.6380 C   0  0  0  0  0  0  0  0  0  0  0  0
   58.5280   31.1080   43.5770 C   0  0  0  0  0  0  0  0  0  0  0  0
   57.2960   31.3050   42.9540 C   0  0  0  0  0  0  0  0  0  0  0  0
   56.1720   30.5990   43.3880 C   0  0  0  0  0  0  0  0  0  0  0  0
   56.2730   29.6910   44.4520 C   0  0  0  0  0  0  0  0  0  0  0  0
   55.1440   28.9850   44.8680 O   0  0  0  0  0  0  0  0  0  0  0  0
   58.9760   28.5950   46.8630 N   0  0  0  0  0  0  0  0  0  0  0  0
   59.3550   29.5740   47.8510 C   0  0  0  0  0  0  0  0  0  0  0  0
   58.9380   29.4430   49.1890 C   0  0  0  0  0  0  0  0  0  0  0  0
   59.2950   30.4020   50.1410 C   0  0  0  0  0  0  0  0  0  0  0  0
   60.0680   31.5040   49.7700 C   0  0  0  0  0  0  0  0  0  0  0  0
   60.4810   31.6510   48.4420 C   0  0  0  0  0  0  0  0  0  0  0  0
   61.4490   33.0380   47.9740 Cl  0  0  0  0  0  0  0  0  0  0  0  0
   60.1250   30.6930   47.4870 C   0  0  0  0  0  0  0  0  0  0  0  0
   59.3105   26.1010   44.9523 H   0  0  0  0  0  0  0  0  0  0  0  0
   58.9557   24.2533   46.1841 H   0  0  0  0  0  0  0  0  0  0  0  0
   58.7256   25.1659   47.6839 H   0  0  0  0  0  0  0  0  0  0  0  0
   56.6700   24.1843   45.7145 H   0  0  0  0  0  0  0  0  0  0  0  0
   56.4163   24.6000   47.3952 H   0  0  0  0  0  0  0  0  0  0  0  0
   56.8642   28.7607   46.9687 H   0  0  0  0  0  0  0  0  0  0  0  0
   59.6166   30.0497   45.1193 H   0  0  0  0  0  0  0  0  0  0  0  0
   59.4128   31.6631   43.2322 H   0  0  0  0  0  0  0  0  0  0  0  0
   57.2095   32.0171   42.1201 H   0  0  0  0  0  0  0  0  0  0  0  0
   55.2024   30.7559   42.8927 H   0  0  0  0  0  0  0  0  0  0  0  0
   55.1470   27.9750   44.9460 H   0  0  0  0  0  0  0  0  0  0  0  0
   58.3263   28.5790   49.4877 H   0  0  0  0  0  0  0  0  0  0  0  0
   58.9663   30.2884   51.1846 H   0  0  0  0  0  0  0  0  0  0  0  0
   60.3518   32.2556   50.5214 H   0  0  0  0  0  0  0  0  0  0  0  0
   60.4498   30.8159   46.4433 H   0  0  0  0  0  0  0  0  0  0  0  0
  1  2  2  0
  2  3  1  0
  3  4  1  0
  4  5  1  0
  5  6  1  0
  6  7  2  0
  6  8  1  0
  8  9  1  0
  9 10  1  0
 10 11  2  0
 11 12  1  0
 12 13  2  0
 13 14  1  0
 14 15  2  0
 15 16  1  0
  9 17  1  0
 17 18  1  0
 18 19  2  0
 19 20  1  0
 20 21  2  0
 21 22  1  0
 22 23  1  0
 22 24  2  0
 17  2  1  0
 24 18  1  0
  8  3  1  0
 15 10  1  0
  3 25  1  6
  4 26  1  0
  4 27  1  0
  5 28  1  0
  5 29  1  0
  9 30  1  1
 11 31  1  0
 12 32  1  0
 13 33  1  0
 14 34  1  0
 16 35  1  0
 19 36  1  0
 20 37  1  0
 21 38  1  0
 24 39  1  0
M  END
>  <UniqueID>  (76) 
69

>  <SMILES>  (76) 
O=C1[C@H]2CCC(=O)N2[C@H](c2ccccc2O)N1c1cccc(Cl)c1

>  <Energy>  (76) 
69.81214242402255

>  <Genealogy>  (76) 
O=C1[C@H]2CCC(=O)N2[C@H](c2ccccc2O)N1c1cccc(Cl)c1 (chirality)
O=C1[C@H]2CCC(=O)N2[C@H](c2ccccc2O)N1c1cccc(Cl)c1 (3D coordinates assigned)
O=C1[C@H]2CCC(=O)N2[C@H](c2ccccc2O)N1c1cccc(Cl)c1 (nonaromatic ring conformer: 69.81214242402255 kcal/mol)

>  <smiles>  (76) 
O=C1C2CCC(=O)N2C(c2ccccc2O)N1c1cccc(Cl)c1

>  <score_type>  (76) 
oracle

>  <origin>  (76) 
adg

>  <m_score__min__energy>  (76) 
-9.4800000000000004

>  <m_primary>  (76) 
energy

$$$$
76:0
     RDKit          3D

 58 62  0  0  0  0  0  0  0  0999 V2000
   63.0770   31.8970   48.5240 C   0  0  0  0  0  0  0  0  0  0  0  0
   62.0530   30.8390   48.4400 N   0  0  0  0  0  0  0  0  0  0  0  0
   61.2610   30.7450   47.3300 C   0  0  0  0  0  0  0  0  0  0  0  0
   61.4120   31.5590   46.3730 O   0  0  0  0  0  0  0  0  0  0  0  0
   60.2770   29.7530   47.2470 C   0  0  0  0  0  0  0  0  0  0  0  0
   59.4670   29.6240   46.1020 C   0  0  0  0  0  0  0  0  0  0  0  0
   58.4750   28.6410   46.0350 C   0  0  0  0  0  0  0  0  0  0  0  0
   57.6410   28.5060   44.8810 N   0  0  0  0  0  0  0  0  0  0  0  0
   56.7140   29.8130   44.2160 S   0  0  0  0  0  0  0  0  0  0  0  0
   56.6810   29.6750   42.7200 O   0  0  0  0  0  0  0  0  0  0  0  0
   55.3040   29.7260   44.7290 O   0  0  0  0  0  0  0  0  0  0  0  0
   57.4090   31.3770   44.6250 C   0  0  0  0  0  0  0  0  0  0  0  0
   57.4040   31.8290   45.9500 C   0  0  0  0  0  0  0  0  0  0  0  0
   58.0120   33.0420   46.2850 C   0  0  0  0  0  0  0  0  0  0  0  0
   58.6360   33.8240   45.2960 C   0  0  0  0  0  0  0  0  0  0  0  0
   59.2920   35.1050   45.6530 C   0  0  0  0  0  0  0  0  0  0  0  0
   59.6270   35.9070   44.7410 O   0  0  0  0  0  0  0  0  0  0  0  0
   59.4770   35.4490   47.0370 N   0  0  0  0  0  0  0  0  0  0  0  0
   59.7760   34.6690   48.0360 C   0  0  0  0  0  0  0  0  0  0  0  0
   58.9020   33.8940   48.7270 N   0  0  0  0  0  0  0  0  0  0  0  0
   59.5130   33.2000   49.7310 C   0  0  0  0  0  0  0  0  0  0  0  0
   58.7720   32.2870   50.6350 C   0  0  0  0  0  0  0  0  0  0  0  0
   58.2550   32.7540   51.8590 C   0  0  0  0  0  0  0  0  0  0  0  0
   57.5630   31.8890   52.7120 C   0  0  0  0  0  0  0  0  0  0  0  0
   57.3730   30.5520   52.3530 C   0  0  0  0  0  0  0  0  0  0  0  0
   57.8770   30.0790   51.1400 C   0  0  0  0  0  0  0  0  0  0  0  0
   58.5720   30.9380   50.2850 C   0  0  0  0  0  0  0  0  0  0  0  0
   60.8860   33.4330   49.8410 C   0  0  0  0  0  0  0  0  0  0  0  0
   61.3280   34.5400   48.6540 S   0  0  0  0  0  0  0  0  0  0  0  0
   58.6310   33.3680   43.9640 C   0  0  0  0  0  0  0  0  0  0  0  0
   58.0230   32.1520   43.6340 C   0  0  0  0  0  0  0  0  0  0  0  0
   58.3280   27.7440   47.0910 C   0  0  0  0  0  0  0  0  0  0  0  0
   59.1230   27.8570   48.2330 C   0  0  0  0  0  0  0  0  0  0  0  0
   60.1060   28.8720   48.3390 C   0  0  0  0  0  0  0  0  0  0  0  0
   60.8890   29.0170   49.4630 N   0  0  0  0  0  0  0  0  0  0  0  0
   60.7000   28.1220   50.6240 C   0  0  0  0  0  0  0  0  0  0  0  0
   61.8490   30.0020   49.5080 C   0  0  0  0  0  0  0  0  0  0  0  0
   62.5550   30.1460   50.5480 O   0  0  0  0  0  0  0  0  0  0  0  0
   63.2905   32.1176   49.5803 H   0  0  0  0  0  0  0  0  0  0  0  0
   63.9975   31.5566   48.0272 H   0  0  0  0  0  0  0  0  0  0  0  0
   62.7068   32.8059   48.0272 H   0  0  0  0  0  0  0  0  0  0  0  0
   59.6166   30.3044   45.2507 H   0  0  0  0  0  0  0  0  0  0  0  0
   56.9188   31.2261   46.7317 H   0  0  0  0  0  0  0  0  0  0  0  0
   58.0026   33.3876   47.3292 H   0  0  0  0  0  0  0  0  0  0  0  0
   57.8810   33.8260   48.5380 H   0  0  0  0  0  0  0  0  0  0  0  0
   58.3966   33.8065   52.1458 H   0  0  0  0  0  0  0  0  0  0  0  0
   57.1671   32.2619   53.6682 H   0  0  0  0  0  0  0  0  0  0  0  0
   56.8273   29.8733   53.0250 H   0  0  0  0  0  0  0  0  0  0  0  0
   57.7265   29.0269   50.8566 H   0  0  0  0  0  0  0  0  0  0  0  0
   58.9660   30.5575   49.3311 H   0  0  0  0  0  0  0  0  0  0  0  0
   61.5615   32.9722   50.5768 H   0  0  0  0  0  0  0  0  0  0  0  0
   59.1081   33.9716   43.1779 H   0  0  0  0  0  0  0  0  0  0  0  0
   58.0274   31.8032   42.5908 H   0  0  0  0  0  0  0  0  0  0  0  0
   57.5797   26.9405   47.0243 H   0  0  0  0  0  0  0  0  0  0  0  0
   58.9843   27.1479   49.0624 H   0  0  0  0  0  0  0  0  0  0  0  0
   60.8214   28.6970   51.5538 H   0  0  0  0  0  0  0  0  0  0  0  0
   59.6902   27.6870   50.5911 H   0  0  0  0  0  0  0  0  0  0  0  0
   61.4477   27.3159   50.5911 H   0  0  0  0  0  0  0  0  0  0  0  0
  1  2  1  0
  2  3  1  0
  3  4  2  0
  3  5  1  0
  5  6  2  0
  6  7  1  0
  7  8  1  0
  8  9  1  0
  9 10  2  0
  9 11  2  0
  9 12  1  0
 12 13  2  0
 13 14  1  0
 14 15  2  0
 15 16  1  0
 16 17  2  0
 16 18  1  0
 18 19  2  3
 19 20  1  0
 20 21  1  0
 21 22  1  0
 22 23  2  0
 23 24  1  0
 24 25  2  0
 25 26  1  0
 26 27  2  0
 21 28  2  0
 28 29  1  0
 15 30  1  0
 30 31  2  0
  7 32  2  0
 32 33  1  0
 33 34  2  0
 34 35  1  0
 35 36  1  0
 35 37  1  0
 37 38  2  0
 37  2  1  0
 34  5  1  0
 31 12  1  0
 29 19  1  0
 27 22  1  0
  1 39  1  0
  1 40  1  0
  1 41  1  0
  6 42  1  0
 13 43  1  0
 14 44  1  0
 20 45  1  0
 23 46  1  0
 24 47  1  0
 25 48  1  0
 26 49  1  0
 27 50  1  0
 28 51  1  0
 30 52  1  0
 31 53  1  0
 32 54  1  0
 33 55  1  0
 36 56  1  0
 36 57  1  0
 36 58  1  0
M  CHG  1   8  -1
M  END
>  <UniqueID>  (77) 
70

>  <SMILES>  (77) 
Cn1c(=O)c2cc([N-]S(=O)(=O)c3ccc(C(=O)N=c4[nH]c(-c5ccccc5)cs4)cc3)ccc2n(C)c1=O

>  <Energy>  (77) 
126.7910128885012

>  <Genealogy>  (77) 
Cn1c(=O)c2cc([N-]S(=O)(=O)c3ccc(C(=O)N=c4[nH]c(-c5ccccc5)cs4)cc3)ccc2n(C)c1=O (protonated)
Cn1c(=O)c2cc([N-]S(=O)(=O)c3ccc(C(=O)N=c4[nH]c(-c5ccccc5)cs4)cc3)ccc2n(C)c1=O (3D coordinates assigned)
Cn1c(=O)c2cc([N-]S(=O)(=O)c3ccc(C(=O)N=c4[nH]c(-c5ccccc5)cs4)cc3)ccc2n(C)c1=O (optimized conformer: 126.7910128885012 kcal/mol)

>  <smiles>  (77) 
Cn1c(=O)c2cc(NS(=O)(=O)c3ccc(C(=O)N=c4[nH]c(-c5ccccc5)cs4)cc3)ccc2n(C)c1=O

>  <score_type>  (77) 
oracle

>  <origin>  (77) 
adg

>  <m_score__min__energy>  (77) 
-10.779999999999999

>  <m_primary>  (77) 
energy

$$$$
77:0
     RDKit          3D

 54 57  0  0  0  0  0  0  0  0999 V2000
   55.4465   25.6215   46.8242 H   0  0  0  0  0  0  0  0  0  0  0  0
   56.2310   26.3270   46.5130 C   0  0  0  0  0  0  0  0  0  0  0  0
   55.9360   27.3180   45.6330 N   0  0  0  0  0  0  0  0  0  0  0  0
   56.8810   28.1880   45.1950 C   0  0  0  0  0  0  0  0  0  0  0  0
   56.5320   29.1880   44.2790 C   0  0  0  0  0  0  0  0  0  0  0  0
   55.4904   29.2798   43.9374 H   0  0  0  0  0  0  0  0  0  0  0  0
   57.5050   30.0710   43.7970 C   0  0  0  0  0  0  0  0  0  0  0  0
   57.0560   31.3330   42.6650 Cl  0  0  0  0  0  0  0  0  0  0  0  0
   58.8330   29.9490   44.2160 C   0  0  0  0  0  0  0  0  0  0  0  0
   59.5986   30.6322   43.8197 H   0  0  0  0  0  0  0  0  0  0  0  0
   59.1900   28.9600   45.1380 C   0  0  0  0  0  0  0  0  0  0  0  0
   60.2387   28.8607   45.4549 H   0  0  0  0  0  0  0  0  0  0  0  0
   58.2130   28.0890   45.6640 C   0  0  0  0  0  0  0  0  0  0  0  0
   58.5250   27.1160   46.6500 C   0  0  0  0  0  0  0  0  0  0  0  0
   59.7070   27.1220   47.2130 N   0  0  0  0  0  0  0  0  0  0  0  0
   60.1110   27.7380   48.4830 C   0  0  0  0  0  0  0  0  0  0  0  0
   61.1756   28.0078   48.4212 H   0  0  0  0  0  0  0  0  0  0  0  0
   59.9247   27.0066   49.2832 H   0  0  0  0  0  0  0  0  0  0  0  0
   59.2890   29.0200   48.8130 C   0  0  0  0  0  0  0  0  0  0  0  0
   59.3128   29.1592   49.9039 H   0  0  0  0  0  0  0  0  0  0  0  0
   58.2885   28.8368   48.3940 H   0  0  0  0  0  0  0  0  0  0  0  0
   59.7490   30.2930   48.1850 N   0  0  1  0  0  0  0  0  0  0  0  0
   59.8660   30.9340   49.0080 H   0  0  0  0  0  0  0  0  0  0  0  0
   61.0960   30.2430   47.5410 C   0  0  0  0  0  0  0  0  0  0  0  0
   61.6038   29.3170   47.8487 H   0  0  0  0  0  0  0  0  0  0  0  0
   60.9554   30.2725   46.4504 H   0  0  0  0  0  0  0  0  0  0  0  0
   61.9500   31.4240   47.9370 C   0  0  0  0  0  0  0  0  0  0  0  0
   62.5300   31.6840   49.4900 S   0  0  0  0  0  0  0  0  0  0  0  0
   63.4050   33.0750   49.1120 C   0  0  0  0  0  0  0  0  0  0  0  0
   63.9991   33.6694   49.8217 H   0  0  0  0  0  0  0  0  0  0  0  0
   63.2540   33.3470   47.7640 C   0  0  0  0  0  0  0  0  0  0  0  0
   63.7272   34.2044   47.2629 H   0  0  0  0  0  0  0  0  0  0  0  0
   62.4380   32.4210   47.1010 C   0  0  0  0  0  0  0  0  0  0  0  0
   62.2069   32.4775   46.0270 H   0  0  0  0  0  0  0  0  0  0  0  0
   58.7080   31.0020   47.3910 C   0  0  0  0  0  0  0  0  0  0  0  0
   57.7457   30.8766   47.9089 H   0  0  0  0  0  0  0  0  0  0  0  0
   58.7405   30.5511   46.3882 H   0  0  0  0  0  0  0  0  0  0  0  0
   58.9320   32.4880   47.1800 C   0  0  0  0  0  0  0  0  0  0  0  0
   58.8870   33.0240   45.8800 C   0  0  0  0  0  0  0  0  0  0  0  0
   58.6306   32.3706   45.0330 H   0  0  0  0  0  0  0  0  0  0  0  0
   59.1620   34.3680   45.6500 C   0  0  0  0  0  0  0  0  0  0  0  0
   59.0699   34.7844   44.6360 H   0  0  0  0  0  0  0  0  0  0  0  0
   59.5530   35.1820   46.7040 C   0  0  0  0  0  0  0  0  0  0  0  0
   59.7863   36.2408   46.5181 H   0  0  0  0  0  0  0  0  0  0  0  0
   59.6530   34.6660   48.0030 C   0  0  0  0  0  0  0  0  0  0  0  0
   59.9855   35.3165   48.8253 H   0  0  0  0  0  0  0  0  0  0  0  0
   59.3310   33.3220   48.2620 C   0  0  0  0  0  0  0  0  0  0  0  0
   59.4000   32.7810   49.5600 O   0  0  0  0  0  0  0  0  0  0  0  0
   59.5960   33.5340   50.7530 C   0  0  0  0  0  0  0  0  0  0  0  0
   59.4276   32.8872   51.6267 H   0  0  0  0  0  0  0  0  0  0  0  0
   60.6250   33.9219   50.7768 H   0  0  0  0  0  0  0  0  0  0  0  0
   58.8867   34.3744   50.7768 H   0  0  0  0  0  0  0  0  0  0  0  0
   57.5240   26.1970   47.0260 C   0  0  0  0  0  0  0  0  0  0  0  0
   57.7607   25.3789   47.7222 H   0  0  0  0  0  0  0  0  0  0  0  0
  1  2  1  0
  2  3  1  0
  3  4  1  0
  4  5  2  0
  5  6  1  0
  5  7  1  0
  7  8  1  0
  7  9  2  0
  9 10  1  0
  9 11  1  0
 11 12  1  0
 11 13  2  0
 13 14  1  0
 14 15  2  0
 15 16  1  0
 16 17  1  0
 16 18  1  0
 16 19  1  0
 19 20  1  0
 19 21  1  0
 19 22  1  0
 22 23  1  1
 22 24  1  0
 24 25  1  0
 24 26  1  0
 24 27  1  0
 27 28  1  0
 28 29  1  0
 29 30  1  0
 29 31  2  0
 31 32  1  0
 31 33  1  0
 33 34  1  0
 22 35  1  0
 35 36  1  0
 35 37  1  0
 35 38  1  0
 38 39  2  0
 39 40  1  0
 39 41  1  0
 41 42  1  0
 41 43  2  0
 43 44  1  0
 43 45  1  0
 45 46  1  0
 45 47  2  0
 47 48  1  0
 48 49  1  0
 49 50  1  0
 49 51  1  0
 49 52  1  0
 14 53  1  0
 53 54  1  0
 53  2  2  0
 13  4  1  0
 33 27  2  0
 47 38  1  0
M  CHG  2   3  -1  22   1
M  END
>  <UniqueID>  (78) 
71

>  <SMILES>  (78) 
COc1ccccc1C[N@@H+](CC/N=c1\cc[n-]c2cc(Cl)ccc12)Cc1cccs1

>  <Energy>  (78) 
105.44902594730651

>  <Genealogy>  (78) 
COc1ccccc1C[NH+](CCN=c1cc[n-]c2cc(Cl)ccc12)Cc1cccs1 (protonated)
COc1ccccc1C[N@@H+](CCN=c1cc[n-]c2cc(Cl)ccc12)Cc1cccs1 (chirality)
COc1ccccc1C[N@@H+](CC/N=c1\cc[n-]c2cc(Cl)ccc12)Cc1cccs1 (cis-trans isomerization)
COc1ccccc1C[N@@H+](CC/N=c1\cc[n-]c2cc(Cl)ccc12)Cc1cccs1 (3D coordinates assigned)
COc1ccccc1C[N@@H+](CC/N=c1\cc[n-]c2cc(Cl)ccc12)Cc1cccs1 (optimized conformer: 105.44902594730651 kcal/mol)

>  <smiles>  (78) 
COc1ccccc1CN(CCN=c1cc[nH]c2cc(Cl)ccc12)Cc1cccs1

>  <score_type>  (78) 
oracle

>  <origin>  (78) 
adg

>  <m_score__min__energy>  (78) 
-8.6500000000000004

>  <m_primary>  (78) 
energy

$$$$
78:0
     RDKit          3D

 39 40  0  0  0  0  0  0  0  0999 V2000
   55.1340   26.5940   46.1480 N   0  0  0  0  0  0  0  0  0  0  0  0
   56.2420   25.7970   46.5630 C   0  0  0  0  0  0  0  0  0  0  0  0
   56.0390   24.7280   47.1980 O   0  0  0  0  0  0  0  0  0  0  0  0
   57.6430   26.2220   46.2450 C   0  0  0  0  0  0  0  0  0  0  0  0
   57.8070   27.6960   46.3140 N   0  0  0  0  0  0  0  0  0  0  0  0
   58.8190   28.0800   47.3400 C   0  0  0  0  0  0  0  0  0  0  0  0
   58.7930   29.5850   47.6610 C   0  0  0  0  0  0  0  0  0  0  0  0
   59.7900   30.4180   46.8290 C   0  0  0  0  0  0  0  0  0  0  0  0
   59.2220   31.7560   46.4270 C   0  0  0  0  0  0  0  0  0  0  0  0
   57.9400   31.8510   45.8610 C   0  0  0  0  0  0  0  0  0  0  0  0
   57.4300   33.0930   45.4730 C   0  0  0  0  0  0  0  0  0  0  0  0
   58.1950   34.2500   45.6440 C   0  0  0  0  0  0  0  0  0  0  0  0
   59.4750   34.1640   46.1980 C   0  0  0  0  0  0  0  0  0  0  0  0
   59.9900   32.9240   46.5840 C   0  0  0  0  0  0  0  0  0  0  0  0
   58.2180   28.1940   44.9770 C   0  0  0  0  0  0  0  0  0  0  0  0
   57.1690   29.0840   44.3830 C   0  0  0  0  0  0  0  0  0  0  0  0
   57.3900   29.8580   43.3000 N   0  0  0  0  0  0  0  0  0  0  0  0
   56.2160   30.4790   43.1020 C   0  0  0  0  0  0  0  0  0  0  0  0
   55.3200   30.0720   44.0620 C   0  0  0  0  0  0  0  0  0  0  0  0
   55.9180   29.1890   44.8790 N   0  0  0  0  0  0  0  0  0  0  0  0
   55.2870   27.4680   45.5980 H   0  0  0  0  0  0  0  0  0  0  0  0
   54.1590   26.3060   46.3840 H   0  0  0  0  0  0  0  0  0  0  0  0
   58.3284   25.7544   46.9672 H   0  0  0  0  0  0  0  0  0  0  0  0
   57.8694   25.9030   45.2169 H   0  0  0  0  0  0  0  0  0  0  0  0
   58.6148   27.5189   48.2638 H   0  0  0  0  0  0  0  0  0  0  0  0
   59.8131   27.8427   46.9333 H   0  0  0  0  0  0  0  0  0  0  0  0
   57.7785   29.9633   47.4666 H   0  0  0  0  0  0  0  0  0  0  0  0
   59.0884   29.6922   48.7152 H   0  0  0  0  0  0  0  0  0  0  0  0
   60.6978   30.5844   47.4275 H   0  0  0  0  0  0  0  0  0  0  0  0
   60.0124   29.8568   45.9095 H   0  0  0  0  0  0  0  0  0  0  0  0
   57.3344   30.9433   45.7224 H   0  0  0  0  0  0  0  0  0  0  0  0
   56.4244   33.1600   45.0321 H   0  0  0  0  0  0  0  0  0  0  0  0
   57.7900   35.2274   45.3428 H   0  0  0  0  0  0  0  0  0  0  0  0
   60.0782   35.0743   46.3304 H   0  0  0  0  0  0  0  0  0  0  0  0
   61.0010   32.8607   47.0128 H   0  0  0  0  0  0  0  0  0  0  0  0
   59.1547   28.7618   45.0782 H   0  0  0  0  0  0  0  0  0  0  0  0
   58.3579   27.3293   44.3117 H   0  0  0  0  0  0  0  0  0  0  0  0
   56.0045   31.1997   42.2984 H   0  0  0  0  0  0  0  0  0  0  0  0
   54.2784   30.4150   44.1476 H   0  0  0  0  0  0  0  0  0  0  0  0
  1  2  1  0
  2  3  2  0
  2  4  1  0
  4  5  1  0
  5  6  1  0
  6  7  1  0
  7  8  1  0
  8  9  1  0
  9 10  2  0
 10 11  1  0
 11 12  2  0
 12 13  1  0
 13 14  2  0
  5 15  1  0
 15 16  1  0
 16 17  2  0
 17 18  1  0
 18 19  2  0
 19 20  1  0
 14  9  1  0
 20 16  1  0
  1 21  1  0
  1 22  1  0
  4 23  1  0
  4 24  1  0
  6 25  1  0
  6 26  1  0
  7 27  1  0
  7 28  1  0
  8 29  1  0
  8 30  1  0
 10 31  1  0
 11 32  1  0
 12 33  1  0
 13 34  1  0
 14 35  1  0
 15 36  1  0
 15 37  1  0
 18 38  1  0
 19 39  1  0
M  CHG  1  20  -1
M  END
>  <UniqueID>  (79) 
72

>  <SMILES>  (79) 
NC(=O)CN(CCCc1ccccc1)Cc1ncc[n-]1

>  <Energy>  (79) 
63.19032399109864

>  <Genealogy>  (79) 
NC(=O)CN(CCCc1ccccc1)Cc1ncc[n-]1 (protonated)
NC(=O)CN(CCCc1ccccc1)Cc1ncc[n-]1 (3D coordinates assigned)
NC(=O)CN(CCCc1ccccc1)Cc1ncc[n-]1 (optimized conformer: 63.19032399109864 kcal/mol)

>  <smiles>  (79) 
NC(=O)CN(CCCc1ccccc1)Cc1ncc[nH]1

>  <score_type>  (79) 
oracle

>  <origin>  (79) 
adg

>  <m_score__min__energy>  (79) 
-8.9299999999999997

>  <m_primary>  (79) 
energy

$$$$
79:0
     RDKit          3D

 42 43  0  0  0  0  0  0  0  0999 V2000
   59.0460   30.1100   50.6930 C   0  0  0  0  0  0  0  0  0  0  0  0
   58.5390   30.3240   49.3790 O   0  0  0  0  0  0  0  0  0  0  0  0
   59.1350   29.8380   48.2020 C   0  0  0  0  0  0  0  0  0  0  0  0
   58.8270   28.5630   47.6860 C   0  0  0  0  0  0  0  0  0  0  0  0
   59.4250   28.1120   46.5070 C   0  0  0  0  0  0  0  0  0  0  0  0
   60.3320   28.9250   45.8260 C   0  0  0  0  0  0  0  0  0  0  0  0
   60.6480   30.1910   46.3240 C   0  0  0  0  0  0  0  0  0  0  0  0
   60.0650   30.6520   47.5180 C   0  0  0  0  0  0  0  0  0  0  0  0
   60.3880   32.0400   48.0100 C   0  0  0  0  0  0  0  0  0  0  0  0
   61.4450   32.6590   47.1500 C   0  0  0  0  0  0  0  0  0  0  0  0
   62.6100   32.1800   47.1450 O   0  0  0  0  0  0  0  0  0  0  0  0
   61.1140   33.7730   46.3160 N   0  0  0  0  0  0  0  0  0  0  0  0
   59.9840   34.6630   46.5620 C   0  0  0  0  0  0  0  0  0  0  0  0
   59.1130   34.8030   45.3070 C   0  0  0  0  0  0  0  0  0  0  0  0
   58.4940   33.4850   44.9180 C   0  0  0  0  0  0  0  0  0  0  0  0
   58.4600   33.0890   43.5720 C   0  0  0  0  0  0  0  0  0  0  0  0
   57.9230   31.8480   43.2150 C   0  0  0  0  0  0  0  0  0  0  0  0
   57.4190   30.9870   44.1990 C   0  0  0  0  0  0  0  0  0  0  0  0
   56.7630   29.4150   43.7510 S   0  0  0  0  0  0  0  0  0  0  0  0
   55.5260   28.9680   44.8740 N   0  0  0  0  0  0  0  0  0  0  0  0
   56.1840   29.4810   42.3670 O   0  0  0  0  0  0  0  0  0  0  0  0
   57.8540   28.3820   43.7680 O   0  0  0  0  0  0  0  0  0  0  0  0
   57.4680   31.3720   45.5450 C   0  0  0  0  0  0  0  0  0  0  0  0
   58.0030   32.6120   45.9040 C   0  0  0  0  0  0  0  0  0  0  0  0
   58.2952   30.4269   51.4318 H   0  0  0  0  0  0  0  0  0  0  0  0
   59.2679   29.0415   50.8309 H   0  0  0  0  0  0  0  0  0  0  0  0
   59.9664   30.6964   50.8309 H   0  0  0  0  0  0  0  0  0  0  0  0
   58.1103   27.9183   48.2158 H   0  0  0  0  0  0  0  0  0  0  0  0
   59.1805   27.1139   46.1145 H   0  0  0  0  0  0  0  0  0  0  0  0
   60.7986   28.5683   44.8959 H   0  0  0  0  0  0  0  0  0  0  0  0
   61.3572   30.8314   45.7791 H   0  0  0  0  0  0  0  0  0  0  0  0
   59.4798   32.6595   47.9725 H   0  0  0  0  0  0  0  0  0  0  0  0
   60.7570   31.9779   49.0444 H   0  0  0  0  0  0  0  0  0  0  0  0
   59.3737   34.2523   47.3798 H   0  0  0  0  0  0  0  0  0  0  0  0
   60.3718   35.6561   46.8328 H   0  0  0  0  0  0  0  0  0  0  0  0
   58.3118   35.5298   45.5066 H   0  0  0  0  0  0  0  0  0  0  0  0
   59.7514   35.1438   44.4786 H   0  0  0  0  0  0  0  0  0  0  0  0
   58.8575   33.7577   42.7943 H   0  0  0  0  0  0  0  0  0  0  0  0
   57.8962   31.5466   42.1575 H   0  0  0  0  0  0  0  0  0  0  0  0
   55.5190   27.9230   44.9220 H   0  0  0  0  0  0  0  0  0  0  0  0
   57.0837   30.6954   46.3226 H   0  0  0  0  0  0  0  0  0  0  0  0
   58.0400   32.9062   46.9633 H   0  0  0  0  0  0  0  0  0  0  0  0
  1  2  1  0
  2  3  1  0
  3  4  2  0
  4  5  1  0
  5  6  2  0
  6  7  1  0
  7  8  2  0
  8  9  1  0
  9 10  1  0
 10 11  2  0
 10 12  1  0
 12 13  1  0
 13 14  1  0
 14 15  1  0
 15 16  2  0
 16 17  1  0
 17 18  2  0
 18 19  1  0
 19 20  1  0
 19 21  2  0
 19 22  2  0
 18 23  1  0
 23 24  2  0
  8  3  1  0
 24 15  1  0
  1 25  1  0
  1 26  1  0
  1 27  1  0
  4 28  1  0
  5 29  1  0
  6 30  1  0
  7 31  1  0
  9 32  1  0
  9 33  1  0
 13 34  1  0
 13 35  1  0
 14 36  1  0
 14 37  1  0
 16 38  1  0
 17 39  1  0
 20 40  1  0
 23 41  1  0
 24 42  1  0
M  CHG  2  12  -1  20  -1
M  END
>  <UniqueID>  (80) 
73

>  <SMILES>  (80) 
COc1ccccc1CC(=O)[N-]CCc1ccc(S([NH-])(=O)=O)cc1

>  <Energy>  (80) 
34.763101042771375

>  <Genealogy>  (80) 
COc1ccccc1CC(=O)[N-]CCc1ccc(S([NH-])(=O)=O)cc1 (protonated)
COc1ccccc1CC(=O)[N-]CCc1ccc(S([NH-])(=O)=O)cc1 (3D coordinates assigned)
COc1ccccc1CC(=O)[N-]CCc1ccc(S([NH-])(=O)=O)cc1 (optimized conformer: 34.763101042771375 kcal/mol)

>  <smiles>  (80) 
COc1ccccc1CC(=O)NCCc1ccc(S(N)(=O)=O)cc1

>  <score_type>  (80) 
oracle

>  <origin>  (80) 
adg

>  <m_score__min__energy>  (80) 
-11.199999999999999

>  <m_primary>  (80) 
energy

$$$$
80:0
     RDKit          3D

 60 62  0  0  0  0  0  0  0  0999 V2000
   56.8030   30.3400   52.4190 C   0  0  0  0  0  0  0  0  0  0  0  0
   57.4790   29.8580   51.2620 O   0  0  0  0  0  0  0  0  0  0  0  0
   58.2250   30.6610   50.3880 C   0  0  0  0  0  0  0  0  0  0  0  0
   59.0040   30.1250   49.3450 C   0  0  0  0  0  0  0  0  0  0  0  0
   59.7280   30.9690   48.5030 C   0  0  0  0  0  0  0  0  0  0  0  0
   59.6950   32.3650   48.6880 C   0  0  0  0  0  0  0  0  0  0  0  0
   60.4540   33.2960   47.7620 C   0  0  2  0  0  0  0  0  0  0  0  0
   61.1050   34.3880   48.5200 N   0  0  0  0  0  0  0  0  0  0  0  0
   62.5800   34.2380   48.5890 C   0  0  0  0  0  0  0  0  0  0  0  0
   63.0430   33.9730   50.0470 C   0  0  0  0  0  0  0  0  0  0  0  0
   64.4510   33.3710   50.0810 C   0  0  0  0  0  0  0  0  0  0  0  0
   64.5010   32.0000   49.3760 C   0  0  0  0  0  0  0  0  0  0  0  0
   63.3860   31.8080   48.3320 C   0  0  0  0  0  0  0  0  0  0  0  0
   63.0490   33.1200   47.6140 C   0  0  0  0  0  0  0  0  0  0  0  0
   59.5060   33.8450   46.7240 C   0  0  0  0  0  0  0  0  0  0  0  0
   58.9250   34.9500   46.9100 O   0  0  0  0  0  0  0  0  0  0  0  0
   59.2250   33.0690   45.5550 N   0  0  0  0  0  0  0  0  0  0  0  0
   57.8850   32.6340   45.1820 C   0  0  0  0  0  0  0  0  0  0  0  0
   57.7640   31.1470   45.3190 C   0  0  0  0  0  0  0  0  0  0  0  0
   56.6630   30.5960   45.0530 O   0  0  0  0  0  0  0  0  0  0  0  0
   58.9090   30.3580   45.6780 N   0  0  0  0  0  0  0  0  0  0  0  0
   58.8770   28.9360   45.8760 C   0  0  0  0  0  0  0  0  0  0  0  0
   60.0800   28.2200   45.9010 C   0  0  0  0  0  0  0  0  0  0  0  0
   60.0740   26.8400   46.1020 C   0  0  0  0  0  0  0  0  0  0  0  0
   58.8700   26.1610   46.2900 C   0  0  0  0  0  0  0  0  0  0  0  0
   57.6520   26.8600   46.2940 C   0  0  0  0  0  0  0  0  0  0  0  0
   56.3730   26.1420   46.5010 C   0  0  0  0  0  0  0  0  0  0  0  0
   55.1430   26.7020   46.0460 N   0  0  0  0  0  0  0  0  0  0  0  0
   56.3560   25.0280   47.0870 O   0  0  0  0  0  0  0  0  0  0  0  0
   57.6670   28.2540   46.0960 C   0  0  0  0  0  0  0  0  0  0  0  0
   58.9140   32.8940   49.7290 C   0  0  0  0  0  0  0  0  0  0  0  0
   58.1870   32.0480   50.5680 C   0  0  0  0  0  0  0  0  0  0  0  0
   57.3150   29.9749   53.3215 H   0  0  0  0  0  0  0  0  0  0  0  0
   56.8073   31.4400   52.4146 H   0  0  0  0  0  0  0  0  0  0  0  0
   55.7645   29.9774   52.4146 H   0  0  0  0  0  0  0  0  0  0  0  0
   59.0418   29.0361   49.1935 H   0  0  0  0  0  0  0  0  0  0  0  0
   60.3297   30.5409   47.6877 H   0  0  0  0  0  0  0  0  0  0  0  0
   61.2520   32.7309   47.2582 H   0  0  0  0  0  0  0  0  0  0  0  0
   60.8680   35.2860   48.0300 H   0  0  0  0  0  0  0  0  0  0  0  0
   63.0510   35.1799   48.2712 H   0  0  0  0  0  0  0  0  0  0  0  0
   63.0458   34.9234   50.6008 H   0  0  0  0  0  0  0  0  0  0  0  0
   62.3471   33.2569   50.5084 H   0  0  0  0  0  0  0  0  0  0  0  0
   65.1450   34.0580   49.5747 H   0  0  0  0  0  0  0  0  0  0  0  0
   64.7376   33.2268   51.1332 H   0  0  0  0  0  0  0  0  0  0  0  0
   65.4729   31.9035   48.8699 H   0  0  0  0  0  0  0  0  0  0  0  0
   64.3569   31.2316   50.1498 H   0  0  0  0  0  0  0  0  0  0  0  0
   63.7181   31.0694   47.5876 H   0  0  0  0  0  0  0  0  0  0  0  0
   62.4825   31.4617   48.8552 H   0  0  0  0  0  0  0  0  0  0  0  0
   63.9463   33.4705   47.0830 H   0  0  0  0  0  0  0  0  0  0  0  0
   62.2191   32.9148   46.9218 H   0  0  0  0  0  0  0  0  0  0  0  0
   57.1495   33.1200   45.8398 H   0  0  0  0  0  0  0  0  0  0  0  0
   57.6967   32.9133   44.1349 H   0  0  0  0  0  0  0  0  0  0  0  0
   59.8420   30.8260   45.6750 H   0  0  0  0  0  0  0  0  0  0  0  0
   61.0345   28.7486   45.7614 H   0  0  0  0  0  0  0  0  0  0  0  0
   61.0232   26.2842   46.1124 H   0  0  0  0  0  0  0  0  0  0  0  0
   58.8747   25.0708   46.4361 H   0  0  0  0  0  0  0  0  0  0  0  0
   54.4710   27.1410   46.7120 H   0  0  0  0  0  0  0  0  0  0  0  0
   56.7215   28.8159   46.1136 H   0  0  0  0  0  0  0  0  0  0  0  0
   58.8751   33.9823   49.8840 H   0  0  0  0  0  0  0  0  0  0  0  0
   57.5784   32.4758   51.3784 H   0  0  0  0  0  0  0  0  0  0  0  0
  1  2  1  0
  2  3  1  0
  3  4  2  0
  4  5  1  0
  5  6  2  0
  6  7  1  0
  7  8  1  0
  8  9  1  0
  9 10  1  0
 10 11  1  0
 11 12  1  0
 12 13  1  0
 13 14  1  0
  7 15  1  0
 15 16  2  0
 15 17  1  0
 17 18  1  0
 18 19  1  0
 19 20  2  0
 19 21  1  0
 21 22  1  0
 22 23  2  0
 23 24  1  0
 24 25  2  0
 25 26  1  0
 26 27  1  0
 27 28  1  0
 27 29  2  0
 26 30  2  0
  6 31  1  0
 31 32  2  0
 32  3  1  0
 14  9  1  0
 30 22  1  0
  1 33  1  0
  1 34  1  0
  1 35  1  0
  4 36  1  0
  5 37  1  0
  7 38  1  6
  8 39  1  0
  9 40  1  0
 10 41  1  0
 10 42  1  0
 11 43  1  0
 11 44  1  0
 12 45  1  0
 12 46  1  0
 13 47  1  0
 13 48  1  0
 14 49  1  0
 14 50  1  0
 18 51  1  0
 18 52  1  0
 21 53  1  0
 23 54  1  0
 24 55  1  0
 25 56  1  0
 28 57  1  0
 30 58  1  0
 31 59  1  0
 32 60  1  0
M  CHG  2  17  -1  28  -1
M  END
>  <UniqueID>  (81) 
74

>  <SMILES>  (81) 
COc1ccc([C@H](NC2CCCCC2)C(=O)[N-]CC(=O)Nc2cccc(C([NH-])=O)c2)cc1

>  <Energy>  (81) 
65.51047491315731

>  <Genealogy>  (81) 
COc1ccc(C(NC2CCCCC2)C(=O)[N-]CC(=O)Nc2cccc(C([NH-])=O)c2)cc1 (protonated)
COc1ccc([C@H](NC2CCCCC2)C(=O)[N-]CC(=O)Nc2cccc(C([NH-])=O)c2)cc1 (chirality)
COc1ccc([C@H](NC2CCCCC2)C(=O)[N-]CC(=O)Nc2cccc(C([NH-])=O)c2)cc1 (3D coordinates assigned)
COc1ccc([C@H](NC2CCCCC2)C(=O)[N-]CC(=O)Nc2cccc(C([NH-])=O)c2)cc1 (nonaromatic ring conformer: 65.51047491315731 kcal/mol)

>  <smiles>  (81) 
COc1ccc(C(NC2CCCCC2)C(=O)NCC(=O)Nc2cccc(C(N)=O)c2)cc1

>  <score_type>  (81) 
oracle

>  <origin>  (81) 
adg

>  <m_score__min__energy>  (81) 
-13.49

>  <m_primary>  (81) 
energy

$$$$
81:0
     RDKit          3D

 49 52  0  0  1  0  0  0  0  0999 V2000
   64.8440   32.4480   49.7520 C   0  0  0  0  0  0  0  0  0  0  0  0
   64.5070   33.4950   48.8610 O   0  0  0  0  0  0  0  0  0  0  0  0
   63.1910   33.6750   48.4500 C   0  0  0  0  0  0  0  0  0  0  0  0
   62.8500   33.5220   47.1150 C   0  0  0  0  0  0  0  0  0  0  0  0
   61.5380   33.6970   46.6700 C   0  0  0  0  0  0  0  0  0  0  0  0
   60.5850   34.0280   47.6110 C   0  0  0  0  0  0  0  0  0  0  0  0
   59.2030   34.2270   47.2500 N   0  0  0  0  0  0  0  0  0  0  0  0
   58.7000   33.5740   46.2780 C   0  0  0  0  0  0  0  0  0  0  0  0
   58.6540   32.2160   46.4280 N   0  0  0  0  0  0  0  0  0  0  0  0
   58.1360   31.4650   45.4360 C   0  0  0  0  0  0  0  0  0  0  0  0
   57.6440   31.9690   44.2700 C   0  0  0  0  0  0  0  0  0  0  0  0
   57.7070   33.3740   44.1480 C   0  0  0  0  0  0  0  0  0  0  0  0
   58.2270   34.1260   45.1450 N   0  0  0  0  0  0  0  0  0  0  0  0
   57.0850   31.2520   43.1260 C   0  0  0  0  0  0  0  0  0  0  0  0
   56.9400   29.7960   43.3630 C   0  0  0  0  0  0  0  0  0  0  0  0
   57.5150   29.2940   44.6120 C   0  0  0  0  0  0  0  0  0  0  0  0
   57.4780   27.9040   44.8050 C   0  0  0  0  0  0  0  0  0  0  0  0
   57.9820   27.3440   45.9630 C   0  0  0  0  0  0  0  0  0  0  0  0
   57.9110   25.9450   46.0850 O   0  0  0  0  0  0  0  0  0  0  0  0
   57.0520   25.2560   45.2050 C   0  0  0  0  0  0  0  0  0  0  0  0
   55.6340   25.3110   45.7030 C   0  0  0  0  0  0  0  0  0  0  0  0
   54.8680   24.0410   45.8330 C   0  0  0  0  0  0  0  0  0  0  0  0
   55.0870   26.3580   46.0040 O   0  0  0  0  0  0  0  0  0  0  0  0
   58.5310   28.1290   46.9530 C   0  0  0  0  0  0  0  0  0  0  0  0
   58.5780   29.4790   46.7880 C   0  0  0  0  0  0  0  0  0  0  0  0
   58.0710   30.0230   45.6260 C   0  0  0  0  0  0  0  0  0  0  0  0
   60.8740   34.1920   48.9540 C   0  0  0  0  0  0  0  0  0  0  0  0
   62.1860   34.0080   49.3390 C   0  0  0  0  0  0  0  0  0  0  0  0
   64.7313   32.7982   50.7887 H   0  0  0  0  0  0  0  0  0  0  0  0
   64.1764   31.5909   49.5799 H   0  0  0  0  0  0  0  0  0  0  0  0
   65.8863   32.1413   49.5799 H   0  0  0  0  0  0  0  0  0  0  0  0
   63.6320   33.2563   46.3885 H   0  0  0  0  0  0  0  0  0  0  0  0
   61.2743   33.5755   45.6090 H   0  0  0  0  0  0  0  0  0  0  0  0
   57.3307   33.8606   43.2361 H   0  0  0  0  0  0  0  0  0  0  0  0
   58.2750   35.1510   45.0600 H   0  0  0  0  0  0  0  0  0  0  0  0
   56.0925   31.6703   42.9024 H   0  0  0  0  0  0  0  0  0  0  0  0
   57.7854   31.3783   42.2873 H   0  0  0  0  0  0  0  0  0  0  0  0
   55.8656   29.5600   43.3671 H   0  0  0  0  0  0  0  0  0  0  0  0
   57.5028   29.3042   42.5559 H   0  0  0  0  0  0  0  0  0  0  0  0
   57.0447   27.2562   44.0288 H   0  0  0  0  0  0  0  0  0  0  0  0
   57.1045   25.7212   44.2096 H   0  0  0  0  0  0  0  0  0  0  0  0
   57.3690   24.2042   45.1490 H   0  0  0  0  0  0  0  0  0  0  0  0
   54.7261   23.8058   46.8981 H   0  0  0  0  0  0  0  0  0  0  0  0
   53.8869   24.1533   45.3485 H   0  0  0  0  0  0  0  0  0  0  0  0
   55.4250   23.2256   45.3485 H   0  0  0  0  0  0  0  0  0  0  0  0
   58.9282   27.6683   47.8695 H   0  0  0  0  0  0  0  0  0  0  0  0
   59.0119   30.1241   47.5662 H   0  0  0  0  0  0  0  0  0  0  0  0
   60.0931   34.4571   49.6819 H   0  0  0  0  0  0  0  0  0  0  0  0
   62.4440   34.1318   50.4011 H   0  0  0  0  0  0  0  0  0  0  0  0
  1  2  1  0
  2  3  1  0
  3  4  2  0
  4  5  1  0
  5  6  2  0
  6  7  1  0
  7  8  2  0
  8  9  1  0
  9 10  2  0
 10 11  1  0
 11 12  2  0
 12 13  1  0
 11 14  1  0
 14 15  1  0
 15 16  1  0
 16 17  2  0
 17 18  1  0
 18 19  1  0
 19 20  1  0
 20 21  1  0
 21 22  1  0
 21 23  2  0
 18 24  2  0
 24 25  1  0
 25 26  2  0
  6 27  1  0
 27 28  2  0
 28  3  1  0
 13  8  1  0
 26 16  1  0
 26 10  1  0
  1 29  1  0
  1 30  1  0
  1 31  1  0
  4 32  1  0
  5 33  1  0
 12 34  1  0
 13 35  1  0
 14 36  1  0
 14 37  1  0
 15 38  1  0
 15 39  1  0
 17 40  1  0
 20 41  1  0
 20 42  1  0
 22 43  1  0
 22 44  1  0
 22 45  1  0
 24 46  1  0
 25 47  1  0
 27 48  1  0
 28 49  1  0
M  END
>  <smiles>  (82) 
COc1ccc(N=c2nc3c(c[nH]2)CCc2cc(OCC(C)=O)ccc2-3)cc1

>  <score_type>  (82) 
oracle

>  <origin>  (82) 
adg

>  <m_score__min__energy>  (82) 
-8.9600000000000009

>  <m_primary>  (82) 
energy

$$$$
82:0
     RDKit          3D

 22 23  0  0  0  0  0  0  0  0999 V2000
   51.7100   29.4110   48.6360 C   0  0  0  0  0  0  0  0  0  0  0  0
   52.5900   30.0510   49.5530 O   0  0  0  0  0  0  0  0  0  0  0  0
   52.2420   30.5970   50.8030 C   0  0  0  0  0  0  0  0  0  0  0  0
   51.4430   31.7590   50.8090 C   0  0  0  0  0  0  0  0  0  0  0  0
   51.0180   32.3390   49.6120 O   0  0  0  0  0  0  0  0  0  0  0  0
   51.0600   32.3530   52.0170 C   0  0  0  0  0  0  0  0  0  0  0  0
   50.2730   33.4990   52.0090 O   0  0  0  0  0  0  0  0  0  0  0  0
   51.4640   31.8050   53.2330 C   0  0  0  0  0  0  0  0  0  0  0  0
   52.2570   30.6530   53.2540 C   0  0  0  0  0  0  0  0  0  0  0  0
   52.6720   30.0880   54.4640 C   0  0  0  0  0  0  0  0  0  0  0  0
   53.4600   28.9400   54.4490 C   0  0  0  0  0  0  0  0  0  0  0  0
   53.8160   28.3820   53.2200 C   0  0  0  0  0  0  0  0  0  0  0  0
   54.5290   27.3460   53.1820 O   0  0  0  0  0  0  0  0  0  0  0  0
   53.4070   28.9420   52.0850 O   0  0  0  0  0  0  0  0  0  0  0  0
   52.6530   30.0380   52.0410 C   0  0  0  0  0  0  0  0  0  0  0  0
   50.9428   28.8530   49.1928 H   0  0  0  0  0  0  0  0  0  0  0  0
   51.2252   30.1690   48.0032 H   0  0  0  0  0  0  0  0  0  0  0  0
   52.2818   28.7163   48.0032 H   0  0  0  0  0  0  0  0  0  0  0  0
   51.4380   32.1130   48.7190 H   0  0  0  0  0  0  0  0  0  0  0  0
   51.1588   32.2791   54.1775 H   0  0  0  0  0  0  0  0  0  0  0  0
   52.3784   30.5466   55.4197 H   0  0  0  0  0  0  0  0  0  0  0  0
   53.7964   28.4804   55.3901 H   0  0  0  0  0  0  0  0  0  0  0  0
  1  2  1  0
  2  3  1  0
  3  4  2  0
  4  5  1  0
  4  6  1  0
  6  7  1  0
  6  8  2  0
  8  9  1  0
  9 10  1  0
 10 11  2  0
 11 12  1  0
 12 13  2  0
 12 14  1  0
 14 15  1  0
 15  3  1  0
 15  9  2  0
  1 16  1  0
  1 17  1  0
  1 18  1  0
  5 19  1  0
  8 20  1  0
 10 21  1  0
 11 22  1  0
M  CHG  1   7  -1
M  END
>  <UniqueID>  (83) 
75

>  <SMILES>  (83) 
COc1c(O)c([O-])cc2ccc(=O)oc12

>  <Energy>  (83) 
29.190331219170744

>  <Genealogy>  (83) 
COc1c(O)c([O-])cc2ccc(=O)oc12 (protonated)
COc1c(O)c([O-])cc2ccc(=O)oc12 (3D coordinates assigned)
COc1c(O)c([O-])cc2ccc(=O)oc12 (optimized conformer: 29.190331219170744 kcal/mol)

>  <smiles>  (83) 
COc1c(O)c(O)cc2ccc(=O)oc12

>  <score_type>  (83) 
oracle

>  <origin>  (83) 
adg

>  <m_score__min__energy>  (83) 
-9.6799999999999997

>  <m_primary>  (83) 
energy

$$$$
83:0
     RDKit          3D

 39 40  0  0  0  0  0  0  0  0999 V2000
   57.8160   31.9300   43.2150 C   0  0  0  0  0  0  0  0  0  0  0  0
   57.0700   32.1040   44.5360 C   0  0  0  0  0  0  0  0  0  0  0  0
   57.7260   33.2000   45.3810 C   0  0  0  0  0  0  0  0  0  0  0  0
   57.0870   30.8630   45.2400 O   0  0  0  0  0  0  0  0  0  0  0  0
   56.5910   29.6650   44.7110 C   0  0  0  0  0  0  0  0  0  0  0  0
   55.3740   29.3570   44.8350 O   0  0  0  0  0  0  0  0  0  0  0  0
   57.5070   28.7720   43.9410 C   0  0  0  0  0  0  0  0  0  0  0  0
   59.2310   28.9850   44.5010 S   0  0  0  0  0  0  0  0  0  0  0  0
   59.2090   27.5590   45.5870 C   0  0  0  0  0  0  0  0  0  0  0  0
   60.3130   26.9860   46.0990 N   0  0  0  0  0  0  0  0  0  0  0  0
   59.8910   25.9790   46.8470 N   0  0  0  0  0  0  0  0  0  0  0  0
   58.5470   25.9810   46.7590 C   0  0  0  0  0  0  0  0  0  0  0  0
   57.6580   24.9960   47.4440 C   0  0  0  0  0  0  0  0  0  0  0  0
   56.2590   25.3480   47.2270 N   0  0  0  0  0  0  0  0  0  0  0  0
   55.5740   25.1460   45.9840 C   0  0  0  0  0  0  0  0  0  0  0  0
   54.6450   25.9290   45.6470 O   0  0  0  0  0  0  0  0  0  0  0  0
   55.9560   24.0220   45.0980 C   0  0  0  0  0  0  0  0  0  0  0  0
   55.9800   22.7010   45.5840 C   0  0  0  0  0  0  0  0  0  0  0  0
   56.3400   21.6430   44.7440 C   0  0  0  0  0  0  0  0  0  0  0  0
   56.6780   21.8890   43.4120 C   0  0  0  0  0  0  0  0  0  0  0  0
   57.0270   20.8610   42.5990 F   0  0  0  0  0  0  0  0  0  0  0  0
   56.6590   23.1950   42.9170 C   0  0  0  0  0  0  0  0  0  0  0  0
   56.3010   24.2570   43.7530 C   0  0  0  0  0  0  0  0  0  0  0  0
   58.1210   26.9470   45.9830 O   0  0  0  0  0  0  0  0  0  0  0  0
   58.8688   31.6844   43.4181 H   0  0  0  0  0  0  0  0  0  0  0  0
   57.3543   31.1154   42.6377 H   0  0  0  0  0  0  0  0  0  0  0  0
   57.7623   32.8648   42.6377 H   0  0  0  0  0  0  0  0  0  0  0  0
   56.0310   32.4039   44.3346 H   0  0  0  0  0  0  0  0  0  0  0  0
   57.5892   32.9714   46.4483 H   0  0  0  0  0  0  0  0  0  0  0  0
   58.8006   33.2466   45.1508 H   0  0  0  0  0  0  0  0  0  0  0  0
   57.2593   34.1692   45.1508 H   0  0  0  0  0  0  0  0  0  0  0  0
   57.2041   27.7255   44.0930 H   0  0  0  0  0  0  0  0  0  0  0  0
   57.4452   29.0346   42.8746 H   0  0  0  0  0  0  0  0  0  0  0  0
   57.8475   23.9912   47.0384 H   0  0  0  0  0  0  0  0  0  0  0  0
   57.8695   25.0098   48.5234 H   0  0  0  0  0  0  0  0  0  0  0  0
   55.7136   22.4998   46.6321 H   0  0  0  0  0  0  0  0  0  0  0  0
   56.3570   20.6144   45.1335 H   0  0  0  0  0  0  0  0  0  0  0  0
   56.9262   23.3883   41.8676 H   0  0  0  0  0  0  0  0  0  0  0  0
   56.2887   25.2833   43.3574 H   0  0  0  0  0  0  0  0  0  0  0  0
  1  2  1  0
  2  3  1  0
  2  4  1  0
  4  5  1  0
  5  6  2  0
  5  7  1  0
  7  8  1  0
  8  9  1  0
  9 10  2  0
 10 11  1  0
 11 12  2  0
 12 13  1  0
 13 14  1  0
 14 15  1  0
 15 16  2  0
 15 17  1  0
 17 18  2  0
 18 19  1  0
 19 20  2  0
 20 21  1  0
 20 22  1  0
 22 23  2  0
 12 24  1  0
 24  9  1  0
 23 17  1  0
  1 25  1  0
  1 26  1  0
  1 27  1  0
  2 28  1  0
  3 29  1  0
  3 30  1  0
  3 31  1  0
  7 32  1  0
  7 33  1  0
 13 34  1  0
 13 35  1  0
 18 36  1  0
 19 37  1  0
 22 38  1  0
 23 39  1  0
M  CHG  1  14  -1
M  END
>  <UniqueID>  (84) 
76

>  <SMILES>  (84) 
CC(C)OC(=O)CSc1nnc(C[N-]C(=O)c2ccc(F)cc2)o1

>  <Energy>  (84) 
59.75804830148503

>  <Genealogy>  (84) 
CC(C)OC(=O)CSc1nnc(C[N-]C(=O)c2ccc(F)cc2)o1 (protonated)
CC(C)OC(=O)CSc1nnc(C[N-]C(=O)c2ccc(F)cc2)o1 (3D coordinates assigned)
CC(C)OC(=O)CSc1nnc(C[N-]C(=O)c2ccc(F)cc2)o1 (optimized conformer: 59.75804830148503 kcal/mol)

>  <smiles>  (84) 
CC(C)OC(=O)CSc1nnc(CNC(=O)c2ccc(F)cc2)o1

>  <score_type>  (84) 
oracle

>  <origin>  (84) 
adg

>  <m_score__min__energy>  (84) 
-9.4399999999999995

>  <m_primary>  (84) 
energy

$$$$
84:0
     RDKit          3D

 50 54  0  0  0  0  0  0  0  0999 V2000
   68.1580   33.6210   50.7260 C   0  0  0  0  0  0  0  0  0  0  0  0
   67.3180   32.6100   51.2680 O   0  0  0  0  0  0  0  0  0  0  0  0
   65.9870   32.3990   50.8800 C   0  0  0  0  0  0  0  0  0  0  0  0
   65.3870   31.1250   50.8790 C   0  0  0  0  0  0  0  0  0  0  0  0
   64.0930   30.9750   50.4860 N   0  0  0  0  0  0  0  0  0  0  0  0
   63.3370   32.0330   50.0840 C   0  0  0  0  0  0  0  0  0  0  0  0
   62.0130   31.8510   49.6720 C   0  0  0  0  0  0  0  0  0  0  0  0
   61.4500   30.5660   49.7220 O   0  0  0  0  0  0  0  0  0  0  0  0
   60.6380   30.0040   48.7280 C   0  0  0  0  0  0  0  0  0  0  0  0
   59.7370   28.9970   49.0880 C   0  0  0  0  0  0  0  0  0  0  0  0
   58.9090   28.4140   48.1240 C   0  0  0  0  0  0  0  0  0  0  0  0
   58.9800   28.8100   46.7850 C   0  0  0  0  0  0  0  0  0  0  0  0
   58.1110   28.1620   45.8400 N   0  0  0  0  0  0  0  0  0  0  0  0
   56.7410   28.4600   45.5440 C   0  0  0  0  0  0  0  0  0  0  0  0
   55.8960   27.5310   45.6210 O   0  0  0  0  0  0  0  0  0  0  0  0
   56.3300   29.8030   45.2550 N   0  0  0  0  0  0  0  0  0  0  0  0
   56.8900   30.7690   44.3450 C   0  0  0  0  0  0  0  0  0  0  0  0
   56.8100   30.6160   42.9460 C   0  0  0  0  0  0  0  0  0  0  0  0
   57.3920   31.5550   42.0900 C   0  0  0  0  0  0  0  0  0  0  0  0
   58.0940   32.6400   42.6070 C   0  0  0  0  0  0  0  0  0  0  0  0
   58.2220   32.7960   43.9900 C   0  0  0  0  0  0  0  0  0  0  0  0
   58.9690   33.8480   44.5260 C   0  0  0  0  0  0  0  0  0  0  0  0
   59.1070   33.9800   45.8680 N   0  0  0  0  0  0  0  0  0  0  0  0
   58.5240   33.1150   46.7340 C   0  0  0  0  0  0  0  0  0  0  0  0
   57.7680   32.0460   46.2550 C   0  0  0  0  0  0  0  0  0  0  0  0
   57.6140   31.8650   44.8700 C   0  0  0  0  0  0  0  0  0  0  0  0
   59.9320   29.7790   46.4110 C   0  0  0  0  0  0  0  0  0  0  0  0
   60.7440   30.3830   47.3770 C   0  0  0  0  0  0  0  0  0  0  0  0
   61.6690   31.2910   46.9870 F   0  0  0  0  0  0  0  0  0  0  0  0
   61.2690   32.9710   49.2660 C   0  0  0  0  0  0  0  0  0  0  0  0
   61.8640   34.2340   49.2580 C   0  0  0  0  0  0  0  0  0  0  0  0
   63.1540   34.3840   49.6560 N   0  0  0  0  0  0  0  0  0  0  0  0
   63.8980   33.3250   50.0680 C   0  0  0  0  0  0  0  0  0  0  0  0
   65.2240   33.5010   50.4720 C   0  0  0  0  0  0  0  0  0  0  0  0
   68.6273   34.1858   51.5450 H   0  0  0  0  0  0  0  0  0  0  0  0
   68.9391   33.1557   50.1068 H   0  0  0  0  0  0  0  0  0  0  0  0
   67.5575   34.3037   50.1068 H   0  0  0  0  0  0  0  0  0  0  0  0
   65.9674   30.2466   51.1976 H   0  0  0  0  0  0  0  0  0  0  0  0
   59.6794   28.6621   50.1342 H   0  0  0  0  0  0  0  0  0  0  0  0
   58.1929   27.6342   48.4227 H   0  0  0  0  0  0  0  0  0  0  0  0
   56.2835   29.7476   42.5232 H   0  0  0  0  0  0  0  0  0  0  0  0
   57.2947   31.4358   41.0008 H   0  0  0  0  0  0  0  0  0  0  0  0
   58.5484   33.3752   41.9266 H   0  0  0  0  0  0  0  0  0  0  0  0
   59.4488   34.5747   43.8539 H   0  0  0  0  0  0  0  0  0  0  0  0
   58.6478   33.2570   47.8177 H   0  0  0  0  0  0  0  0  0  0  0  0
   57.2936   31.3465   46.9590 H   0  0  0  0  0  0  0  0  0  0  0  0
   60.0374   30.0623   45.3533 H   0  0  0  0  0  0  0  0  0  0  0  0
   60.2204   32.8534   48.9552 H   0  0  0  0  0  0  0  0  0  0  0  0
   61.2864   35.1102   48.9284 H   0  0  0  0  0  0  0  0  0  0  0  0
   65.6697   34.5067   50.4697 H   0  0  0  0  0  0  0  0  0  0  0  0
  1  2  1  0
  2  3  1  0
  3  4  2  0
  4  5  1  0
  5  6  2  0
  6  7  1  0
  7  8  1  0
  8  9  1  0
  9 10  2  0
 10 11  1  0
 11 12  2  0
 12 13  1  0
 13 14  1  0
 14 15  2  0
 14 16  1  0
 16 17  1  0
 17 18  2  0
 18 19  1  0
 19 20  2  0
 20 21  1  0
 21 22  2  0
 22 23  1  0
 23 24  2  0
 24 25  1  0
 25 26  2  0
 12 27  1  0
 27 28  2  0
 28 29  1  0
  7 30  2  0
 30 31  1  0
 31 32  2  0
 32 33  1  0
 33 34  2  0
 34  3  1  0
 33  6  1  0
 28  9  1  0
 26 17  1  0
 26 21  1  0
  1 35  1  0
  1 36  1  0
  1 37  1  0
  4 38  1  0
 10 39  1  0
 11 40  1  0
 18 41  1  0
 19 42  1  0
 20 43  1  0
 22 44  1  0
 24 45  1  0
 25 46  1  0
 27 47  1  0
 30 48  1  0
 31 49  1  0
 34 50  1  0
M  CHG  2  13  -1  16  -1
M  END
>  <UniqueID>  (85) 
77

>  <SMILES>  (85) 
COc1cnc2c(Oc3ccc([N-]C(=O)[N-]c4cccc5cnccc45)cc3F)ccnc2c1

>  <Energy>  (85) 
80.69781945381087

>  <Genealogy>  (85) 
COc1cnc2c(Oc3ccc([N-]C(=O)[N-]c4cccc5cnccc45)cc3F)ccnc2c1 (protonated)
COc1cnc2c(Oc3ccc([N-]C(=O)[N-]c4cccc5cnccc45)cc3F)ccnc2c1 (3D coordinates assigned)
COc1cnc2c(Oc3ccc([N-]C(=O)[N-]c4cccc5cnccc45)cc3F)ccnc2c1 (optimized conformer: 80.69781945381087 kcal/mol)

>  <smiles>  (85) 
COc1cnc2c(Oc3ccc(NC(=O)Nc4cccc5cnccc45)cc3F)ccnc2c1

>  <score_type>  (85) 
oracle

>  <origin>  (85) 
adg

>  <m_score__min__energy>  (85) 
-11.68

>  <m_primary>  (85) 
energy

$$$$
85:0
     RDKit          3D

 46 48  0  0  0  0  0  0  0  0999 V2000
   63.3780   34.1470   50.1420 C   0  0  0  0  0  0  0  0  0  0  0  0
   63.0030   33.2180   49.0840 N   0  0  0  0  0  0  0  0  0  0  0  0
   62.1560   32.1810   49.2120 C   0  0  0  0  0  0  0  0  0  0  0  0
   62.1330   31.5070   48.0100 C   0  0  0  0  0  0  0  0  0  0  0  0
   61.2960   30.3180   47.6500 C   0  0  0  0  0  0  0  0  0  0  0  0
   60.0910   30.7360   46.8980 N   0  0  0  0  0  0  0  0  0  0  0  0
   58.8490   30.6730   47.7070 C   0  0  0  0  0  0  0  0  0  0  0  0
   58.4210   32.0620   48.2000 C   0  0  0  0  0  0  0  0  0  0  0  0
   58.7050   33.1070   47.1550 C   0  0  0  0  0  0  0  0  0  0  0  0
   59.8600   33.9030   47.2450 C   0  0  0  0  0  0  0  0  0  0  0  0
   60.1050   34.8970   46.2940 C   0  0  0  0  0  0  0  0  0  0  0  0
   59.1980   35.1110   45.2530 C   0  0  0  0  0  0  0  0  0  0  0  0
   58.0400   34.3330   45.1650 C   0  0  0  0  0  0  0  0  0  0  0  0
   57.7910   33.3380   46.1140 C   0  0  0  0  0  0  0  0  0  0  0  0
   59.9500   30.0050   45.6150 C   0  0  0  0  0  0  0  0  0  0  0  0
   58.6200   30.2420   44.9250 C   0  0  0  0  0  0  0  0  0  0  0  0
   58.5040   31.2070   43.9100 C   0  0  0  0  0  0  0  0  0  0  0  0
   57.2800   31.4130   43.2670 C   0  0  0  0  0  0  0  0  0  0  0  0
   56.1600   30.6630   43.6350 C   0  0  0  0  0  0  0  0  0  0  0  0
   56.2610   29.7100   44.6530 C   0  0  0  0  0  0  0  0  0  0  0  0
   55.1450   28.9700   45.0230 O   0  0  0  0  0  0  0  0  0  0  0  0
   57.4840   29.5020   45.2980 C   0  0  0  0  0  0  0  0  0  0  0  0
   62.9930   32.2030   47.1820 C   0  0  0  0  0  0  0  0  0  0  0  0
   63.5240   33.2360   47.8660 N   0  0  0  0  0  0  0  0  0  0  0  0
   63.1905   33.6825   51.1213 H   0  0  0  0  0  0  0  0  0  0  0  0
   64.4462   34.3937   50.0517 H   0  0  0  0  0  0  0  0  0  0  0  0
   62.7805   35.0661   50.0517 H   0  0  0  0  0  0  0  0  0  0  0  0
   61.5842   31.9180   50.1142 H   0  0  0  0  0  0  0  0  0  0  0  0
   61.8905   29.6327   47.0279 H   0  0  0  0  0  0  0  0  0  0  0  0
   60.9791   29.8148   48.5754 H   0  0  0  0  0  0  0  0  0  0  0  0
   58.0428   30.2498   47.0898 H   0  0  0  0  0  0  0  0  0  0  0  0
   59.0447   30.0424   48.5868 H   0  0  0  0  0  0  0  0  0  0  0  0
   57.3427   32.0519   48.4171 H   0  0  0  0  0  0  0  0  0  0  0  0
   58.9905   32.3062   49.1089 H   0  0  0  0  0  0  0  0  0  0  0  0
   60.5734   33.7429   48.0668 H   0  0  0  0  0  0  0  0  0  0  0  0
   61.0140   35.5124   46.3651 H   0  0  0  0  0  0  0  0  0  0  0  0
   59.3951   35.8913   44.5031 H   0  0  0  0  0  0  0  0  0  0  0  0
   57.3239   34.5042   44.3477 H   0  0  0  0  0  0  0  0  0  0  0  0
   56.8749   32.7329   46.0454 H   0  0  0  0  0  0  0  0  0  0  0  0
   60.7552   30.3295   44.9394 H   0  0  0  0  0  0  0  0  0  0  0  0
   60.0066   28.9313   45.8472 H   0  0  0  0  0  0  0  0  0  0  0  0
   59.3814   31.8037   43.6198 H   0  0  0  0  0  0  0  0  0  0  0  0
   57.1984   32.1668   42.4700 H   0  0  0  0  0  0  0  0  0  0  0  0
   55.1991   30.8223   43.1239 H   0  0  0  0  0  0  0  0  0  0  0  0
   57.5579   28.7550   46.1021 H   0  0  0  0  0  0  0  0  0  0  0  0
   63.2096   31.9539   46.1327 H   0  0  0  0  0  0  0  0  0  0  0  0
  1  2  1  0
  2  3  1  0
  3  4  2  0
  4  5  1  0
  5  6  1  0
  6  7  1  0
  7  8  1  0
  8  9  1  0
  9 10  2  0
 10 11  1  0
 11 12  2  0
 12 13  1  0
 13 14  2  0
  6 15  1  0
 15 16  1  0
 16 17  2  0
 17 18  1  0
 18 19  2  0
 19 20  1  0
 20 21  1  0
 20 22  2  0
  4 23  1  0
 23 24  2  0
 24  2  1  0
 14  9  1  0
 22 16  1  0
  1 25  1  0
  1 26  1  0
  1 27  1  0
  3 28  1  0
  5 29  1  0
  5 30  1  0
  7 31  1  0
  7 32  1  0
  8 33  1  0
  8 34  1  0
 10 35  1  0
 11 36  1  0
 12 37  1  0
 13 38  1  0
 14 39  1  0
 15 40  1  0
 15 41  1  0
 17 42  1  0
 18 43  1  0
 19 44  1  0
 22 45  1  0
 23 46  1  0
M  CHG  1  21  -1
M  END
>  <UniqueID>  (86) 
78

>  <SMILES>  (86) 
Cn1cc(CN(CCc2ccccc2)Cc2cccc([O-])c2)cn1

>  <Energy>  (86) 
78.6484283182772

>  <Genealogy>  (86) 
Cn1cc(CN(CCc2ccccc2)Cc2cccc([O-])c2)cn1 (protonated)
Cn1cc(CN(CCc2ccccc2)Cc2cccc([O-])c2)cn1 (3D coordinates assigned)
Cn1cc(CN(CCc2ccccc2)Cc2cccc([O-])c2)cn1 (optimized conformer: 78.6484283182772 kcal/mol)

>  <smiles>  (86) 
Cn1cc(CN(CCc2ccccc2)Cc2cccc(O)c2)cn1

>  <score_type>  (86) 
oracle

>  <origin>  (86) 
adg

>  <m_score__min__energy>  (86) 
-11.58

>  <m_primary>  (86) 
energy

$$$$
86:0
     RDKit          3D

 29 30  0  0  0  0  0  0  0  0999 V2000
   55.1520   28.9740   44.6690 N   0  0  0  0  0  0  0  0  0  0  0  0
   56.1230   29.6820   43.9030 C   0  0  0  0  0  0  0  0  0  0  0  0
   56.3370   29.3550   42.7050 O   0  0  0  0  0  0  0  0  0  0  0  0
   56.8740   30.7890   44.5070 C   0  0  0  0  0  0  0  0  0  0  0  0
   56.2660   31.8290   44.8770 O   0  0  0  0  0  0  0  0  0  0  0  0
   58.2990   30.6980   44.6290 N   0  0  0  0  0  0  0  0  0  0  0  0
   59.0810   31.2780   45.6840 C   0  0  0  0  0  0  0  0  0  0  0  0
   58.9010   32.6360   45.9760 C   0  0  0  0  0  0  0  0  0  0  0  0
   59.6420   33.2470   46.9920 C   0  0  0  0  0  0  0  0  0  0  0  0
   59.3890   34.9420   47.3650 Cl  0  0  0  0  0  0  0  0  0  0  0  0
   60.5760   32.5040   47.7160 C   0  0  0  0  0  0  0  0  0  0  0  0
   60.7880   31.1570   47.4110 C   0  0  0  0  0  0  0  0  0  0  0  0
   60.0680   30.5410   46.3710 C   0  0  0  0  0  0  0  0  0  0  0  0
   60.3060   29.2020   46.0220 O   0  0  0  0  0  0  0  0  0  0  0  0
   59.3230   28.2340   45.7730 C   0  0  0  0  0  0  0  0  0  0  0  0
   59.0850   27.7270   44.4820 C   0  0  0  0  0  0  0  0  0  0  0  0
   58.0830   26.7740   44.2740 C   0  0  0  0  0  0  0  0  0  0  0  0
   57.3060   26.3300   45.3470 C   0  0  0  0  0  0  0  0  0  0  0  0
   57.5260   26.8430   46.6290 C   0  0  0  0  0  0  0  0  0  0  0  0
   58.5270   27.7970   46.8390 C   0  0  0  0  0  0  0  0  0  0  0  0
   54.6390   29.4430   45.4480 H   0  0  0  0  0  0  0  0  0  0  0  0
   58.1714   33.2260   45.4019 H   0  0  0  0  0  0  0  0  0  0  0  0
   61.1459   32.9796   48.5278 H   0  0  0  0  0  0  0  0  0  0  0  0
   61.5221   30.5748   47.9874 H   0  0  0  0  0  0  0  0  0  0  0  0
   59.6891   28.0815   43.6338 H   0  0  0  0  0  0  0  0  0  0  0  0
   57.9064   26.3736   43.2648 H   0  0  0  0  0  0  0  0  0  0  0  0
   56.5212   25.5768   45.1832 H   0  0  0  0  0  0  0  0  0  0  0  0
   56.9115   26.4961   47.4728 H   0  0  0  0  0  0  0  0  0  0  0  0
   58.6899   28.2062   47.8470 H   0  0  0  0  0  0  0  0  0  0  0  0
  1  2  1  0
  2  3  2  0
  2  4  1  0
  4  5  2  0
  4  6  1  0
  6  7  1  0
  7  8  2  0
  8  9  1  0
  9 10  1  0
  9 11  2  0
 11 12  1  0
 12 13  2  0
 13 14  1  0
 14 15  1  0
 15 16  2  0
 16 17  1  0
 17 18  2  0
 18 19  1  0
 19 20  2  0
 13  7  1  0
 20 15  1  0
  1 21  1  0
  8 22  1  0
 11 23  1  0
 12 24  1  0
 16 25  1  0
 17 26  1  0
 18 27  1  0
 19 28  1  0
 20 29  1  0
M  CHG  2   1  -1   6  -1
M  END
>  <UniqueID>  (87) 
79

>  <SMILES>  (87) 
[NH-]C(=O)C(=O)[N-]c1cc(Cl)ccc1Oc1ccccc1

>  <Energy>  (87) 
39.31867737864745

>  <Genealogy>  (87) 
[NH-]C(=O)C(=O)[N-]c1cc(Cl)ccc1Oc1ccccc1 (protonated)
[NH-]C(=O)C(=O)[N-]c1cc(Cl)ccc1Oc1ccccc1 (3D coordinates assigned)
[NH-]C(=O)C(=O)[N-]c1cc(Cl)ccc1Oc1ccccc1 (optimized conformer: 39.31867737864745 kcal/mol)

>  <smiles>  (87) 
NC(=O)C(=O)Nc1cc(Cl)ccc1Oc1ccccc1

>  <score_type>  (87) 
oracle

>  <origin>  (87) 
adg

>  <m_score__min__energy>  (87) 
-11.44

>  <m_primary>  (87) 
energy

$$$$
87:0
     RDKit          3D

 54 57  0  0  0  0  0  0  0  0999 V2000
   55.8889   28.1135   45.7589 H   0  0  0  0  0  0  0  0  0  0  0  0
   56.2700   27.0980   45.9420 C   0  0  0  0  0  0  0  0  0  0  0  0
   55.4020   26.0720   46.1340 N   0  0  0  0  0  0  0  0  0  0  0  0
   55.8430   24.8100   46.3630 C   0  0  0  0  0  0  0  0  0  0  0  0
   54.9750   23.8500   46.5060 N   0  0  0  0  0  0  0  0  0  0  0  0
   54.7240   22.7940   45.5680 C   0  0  0  0  0  0  0  0  0  0  0  0
   53.5970   22.2310   45.5780 O   0  0  0  0  0  0  0  0  0  0  0  0
   55.7480   22.3120   44.6210 C   0  0  0  0  0  0  0  0  0  0  0  0
   55.5680   22.2600   43.3220 O   0  0  0  0  0  0  0  0  0  0  0  0
   56.6500   21.7640   42.7660 C   0  0  0  0  0  0  0  0  0  0  0  0
   56.7914   21.6042   41.6869 H   0  0  0  0  0  0  0  0  0  0  0  0
   57.5820   21.4740   43.7410 C   0  0  0  0  0  0  0  0  0  0  0  0
   58.5861   21.0508   43.5905 H   0  0  0  0  0  0  0  0  0  0  0  0
   57.0020   21.8210   44.9400 C   0  0  0  0  0  0  0  0  0  0  0  0
   57.4434   21.7275   45.9432 H   0  0  0  0  0  0  0  0  0  0  0  0
   57.1800   24.5640   46.4040 N   0  0  0  0  0  0  0  0  0  0  0  0
   58.0910   25.5580   46.2410 C   0  0  0  0  0  0  0  0  0  0  0  0
   59.5520   25.2340   46.3280 C   0  0  0  0  0  0  0  0  0  0  0  0
   59.8506   25.1678   47.3846 H   0  0  0  0  0  0  0  0  0  0  0  0
   59.7443   24.2714   45.8316 H   0  0  0  0  0  0  0  0  0  0  0  0
   60.1332   26.0251   45.8316 H   0  0  0  0  0  0  0  0  0  0  0  0
   57.6520   26.8640   45.9770 C   0  0  0  0  0  0  0  0  0  0  0  0
   58.6010   27.9270   45.8010 N   0  0  0  0  0  0  0  0  0  0  0  0
   58.6830   28.7790   44.6520 C   0  0  0  0  0  0  0  0  0  0  0  0
   59.4540   29.7780   44.6530 O   0  0  0  0  0  0  0  0  0  0  0  0
   57.7780   28.5360   43.4800 C   0  0  0  0  0  0  0  0  0  0  0  0
   57.4133   27.4991   43.5223 H   0  0  0  0  0  0  0  0  0  0  0  0
   58.3559   28.7184   42.5620 H   0  0  0  0  0  0  0  0  0  0  0  0
   56.5720   29.4850   43.4760 C   0  0  0  0  0  0  0  0  0  0  0  0
   55.8602   29.1613   44.2496 H   0  0  0  0  0  0  0  0  0  0  0  0
   56.1097   29.4505   42.4785 H   0  0  0  0  0  0  0  0  0  0  0  0
   56.9830   30.8980   43.7540 C   0  0  0  0  0  0  0  0  0  0  0  0
   56.8510   31.4960   44.9550 N   0  0  0  0  0  0  0  0  0  0  0  0
   57.3950   32.7060   44.7010 C   0  0  0  0  0  0  0  0  0  0  0  0
   57.4640   33.8080   45.7090 C   0  0  0  0  0  0  0  0  0  0  0  0
   56.6664   33.6707   46.4539 H   0  0  0  0  0  0  0  0  0  0  0  0
   57.3350   34.7734   45.1979 H   0  0  0  0  0  0  0  0  0  0  0  0
   58.7990   33.7900   46.4000 C   0  0  0  0  0  0  0  0  0  0  0  0
   59.9840   33.8150   45.6490 C   0  0  0  0  0  0  0  0  0  0  0  0
   59.9351   33.8205   44.5501 H   0  0  0  0  0  0  0  0  0  0  0  0
   61.2270   33.8330   46.2900 C   0  0  0  0  0  0  0  0  0  0  0  0
   62.1508   33.8441   45.6930 H   0  0  0  0  0  0  0  0  0  0  0  0
   61.3010   33.8370   47.6960 C   0  0  0  0  0  0  0  0  0  0  0  0
   62.5220   33.8540   48.3860 O   0  0  0  0  0  0  0  0  0  0  0  0
   63.6930   33.1620   47.9650 C   0  0  0  0  0  0  0  0  0  0  0  0
   64.2585   32.8278   48.8473 H   0  0  0  0  0  0  0  0  0  0  0  0
   63.4056   32.2886   47.3612 H   0  0  0  0  0  0  0  0  0  0  0  0
   64.3195   33.8350   47.3612 H   0  0  0  0  0  0  0  0  0  0  0  0
   60.1150   33.8240   48.4410 C   0  0  0  0  0  0  0  0  0  0  0  0
   60.1623   33.8280   49.5400 H   0  0  0  0  0  0  0  0  0  0  0  0
   58.8720   33.8060   47.8020 C   0  0  0  0  0  0  0  0  0  0  0  0
   57.9483   33.8044   48.3993 H   0  0  0  0  0  0  0  0  0  0  0  0
   57.8110   32.8360   43.4260 N   0  0  0  0  0  0  0  0  0  0  0  0
   57.5440   31.6920   42.8730 O   0  0  0  0  0  0  0  0  0  0  0  0
  1  2  1  0
  2  3  1  0
  3  4  1  0
  4  5  2  0
  5  6  1  0
  6  7  2  0
  6  8  1  0
  8  9  1  0
  9 10  1  0
 10 11  1  0
 10 12  2  0
 12 13  1  0
 12 14  1  0
 14 15  1  0
  4 16  1  0
 16 17  2  0
 17 18  1  0
 18 19  1  0
 18 20  1  0
 18 21  1  0
 17 22  1  0
 22 23  1  0
 23 24  1  0
 24 25  2  0
 24 26  1  0
 26 27  1  0
 26 28  1  0
 26 29  1  0
 29 30  1  0
 29 31  1  0
 29 32  1  0
 32 33  2  0
 33 34  1  0
 34 35  1  0
 35 36  1  0
 35 37  1  0
 35 38  1  0
 38 39  2  0
 39 40  1  0
 39 41  1  0
 41 42  1  0
 41 43  2  0
 43 44  1  0
 44 45  1  0
 45 46  1  0
 45 47  1  0
 45 48  1  0
 43 49  1  0
 49 50  1  0
 49 51  2  0
 51 52  1  0
 34 53  2  0
 53 54  1  0
 22  2  2  0
 54 32  1  0
 14  8  2  0
 51 38  1  0
M  CHG  2   3  -1  23  -1
M  END
>  <UniqueID>  (88) 
80

>  <SMILES>  (88) 
COc1ccc(Cc2noc(CCC(=O)[N-]c3c[n-]/c(=N/C(=O)c4ccco4)nc3C)n2)cc1

>  <Energy>  (88) 
120.44426446205921

>  <Genealogy>  (88) 
COc1ccc(Cc2noc(CCC(=O)[N-]c3c[n-]c(=NC(=O)c4ccco4)nc3C)n2)cc1 (protonated)
COc1ccc(Cc2noc(CCC(=O)[N-]c3c[n-]/c(=N/C(=O)c4ccco4)nc3C)n2)cc1 (cis-trans isomerization)
COc1ccc(Cc2noc(CCC(=O)[N-]c3c[n-]/c(=N/C(=O)c4ccco4)nc3C)n2)cc1 (3D coordinates assigned)
COc1ccc(Cc2noc(CCC(=O)[N-]c3c[n-]/c(=N/C(=O)c4ccco4)nc3C)n2)cc1 (optimized conformer: 120.44426446205921 kcal/mol)

>  <smiles>  (88) 
COc1ccc(Cc2noc(CCC(=O)Nc3c[nH]c(=NC(=O)c4ccco4)nc3C)n2)cc1

>  <score_type>  (88) 
oracle

>  <origin>  (88) 
adg

>  <m_score__min__energy>  (88) 
-13.15

>  <m_primary>  (88) 
energy

$$$$
88:0
     RDKit          3D

 49 52  0  0  0  0  0  0  0  0999 V2000
   57.2430   28.5910   43.4110 O   0  0  0  0  0  0  0  0  0  0  0  0
   56.8160   29.1360   44.4640 C   0  0  0  0  0  0  0  0  0  0  0  0
   56.5640   30.5470   44.5000 N   0  0  0  0  0  0  0  0  0  0  0  0
   57.4630   31.5600   44.9770 C   0  0  0  0  0  0  0  0  0  0  0  0
   57.8790   31.5140   46.3140 C   0  0  0  0  0  0  0  0  0  0  0  0
   58.7600   32.4760   46.8160 C   0  0  0  0  0  0  0  0  0  0  0  0
   59.2380   33.4980   45.9890 C   0  0  0  0  0  0  0  0  0  0  0  0
   60.1220   34.4450   46.5250 O   0  0  0  0  0  0  0  0  0  0  0  0
   61.3170   34.1470   47.1980 C   0  0  0  0  0  0  0  0  0  0  0  0
   62.4420   33.7850   46.4450 C   0  0  0  0  0  0  0  0  0  0  0  0
   63.6450   33.4650   47.0830 C   0  0  0  0  0  0  0  0  0  0  0  0
   63.7290   33.4940   48.4770 C   0  0  0  0  0  0  0  0  0  0  0  0
   62.6060   33.8350   49.2370 C   0  0  0  0  0  0  0  0  0  0  0  0
   61.4010   34.1550   48.6030 C   0  0  0  0  0  0  0  0  0  0  0  0
   58.8600   33.5200   44.6350 C   0  0  0  0  0  0  0  0  0  0  0  0
   57.9810   32.5570   44.1310 C   0  0  0  0  0  0  0  0  0  0  0  0
   56.4890   28.3390   45.6100 N   0  0  0  0  0  0  0  0  0  0  0  0
   56.8680   26.9600   45.7520 C   0  0  0  0  0  0  0  0  0  0  0  0
   55.8990   25.9440   45.6510 C   0  0  0  0  0  0  0  0  0  0  0  0
   56.2720   24.6010   45.7110 C   0  0  0  0  0  0  0  0  0  0  0  0
   57.6140   24.2530   45.8600 C   0  0  0  0  0  0  0  0  0  0  0  0
   58.5880   25.2490   45.9510 C   0  0  0  0  0  0  0  0  0  0  0  0
   58.2280   26.6050   45.8960 C   0  0  0  0  0  0  0  0  0  0  0  0
   59.2390   27.6170   46.0360 N   0  0  0  0  0  0  0  0  0  0  0  0
   59.9360   28.2150   44.9070 C   0  0  0  0  0  0  0  0  0  0  0  0
   60.7230   29.4120   45.4750 C   0  0  0  0  0  0  0  0  0  0  0  0
   60.2460   29.6260   46.9180 C   0  0  0  0  0  0  0  0  0  0  0  0
   59.3940   28.4480   47.1720 C   0  0  0  0  0  0  0  0  0  0  0  0
   58.8580   28.2010   48.2850 O   0  0  0  0  0  0  0  0  0  0  0  0
   57.5096   30.7149   46.9735 H   0  0  0  0  0  0  0  0  0  0  0  0
   59.0794   32.4292   47.8676 H   0  0  0  0  0  0  0  0  0  0  0  0
   62.3788   33.7523   45.3473 H   0  0  0  0  0  0  0  0  0  0  0  0
   64.5268   33.1899   46.4857 H   0  0  0  0  0  0  0  0  0  0  0  0
   64.6779   33.2488   48.9765 H   0  0  0  0  0  0  0  0  0  0  0  0
   62.6703   33.8516   50.3350 H   0  0  0  0  0  0  0  0  0  0  0  0
   60.5167   34.4136   49.2040 H   0  0  0  0  0  0  0  0  0  0  0  0
   59.2582   34.2993   43.9686 H   0  0  0  0  0  0  0  0  0  0  0  0
   57.6936   32.5790   43.0695 H   0  0  0  0  0  0  0  0  0  0  0  0
   55.9040   28.7780   46.3580 H   0  0  0  0  0  0  0  0  0  0  0  0
   54.8395   26.2110   45.5238 H   0  0  0  0  0  0  0  0  0  0  0  0
   55.5058   23.8149   45.6406 H   0  0  0  0  0  0  0  0  0  0  0  0
   57.9053   23.1933   45.9059 H   0  0  0  0  0  0  0  0  0  0  0  0
   59.6455   24.9693   46.0667 H   0  0  0  0  0  0  0  0  0  0  0  0
   60.6242   27.4862   44.4539 H   0  0  0  0  0  0  0  0  0  0  0  0
   59.2325   28.5325   44.1232 H   0  0  0  0  0  0  0  0  0  0  0  0
   61.8011   29.1939   45.4630 H   0  0  0  0  0  0  0  0  0  0  0  0
   60.5517   30.3143   44.8695 H   0  0  0  0  0  0  0  0  0  0  0  0
   61.0971   29.6543   47.6143 H   0  0  0  0  0  0  0  0  0  0  0  0
   59.7157   30.5793   47.0592 H   0  0  0  0  0  0  0  0  0  0  0  0
  1  2  2  0
  2  3  1  0
  3  4  1  0
  4  5  2  0
  5  6  1  0
  6  7  2  0
  7  8  1  0
  8  9  1  0
  9 10  2  0
 10 11  1  0
 11 12  2  0
 12 13  1  0
 13 14  2  0
  7 15  1  0
 15 16  2  0
  2 17  1  0
 17 18  1  0
 18 19  2  0
 19 20  1  0
 20 21  2  0
 21 22  1  0
 22 23  2  0
 23 24  1  0
 24 25  1  0
 25 26  1  0
 26 27  1  0
 27 28  1  0
 28 29  2  0
 16  4  1  0
 23 18  1  0
 28 24  1  0
 14  9  1  0
  5 30  1  0
  6 31  1  0
 10 32  1  0
 11 33  1  0
 12 34  1  0
 13 35  1  0
 14 36  1  0
 15 37  1  0
 16 38  1  0
 17 39  1  0
 19 40  1  0
 20 41  1  0
 21 42  1  0
 22 43  1  0
 25 44  1  0
 25 45  1  0
 26 46  1  0
 26 47  1  0
 27 48  1  0
 27 49  1  0
M  CHG  1   3  -1
M  END
>  <UniqueID>  (89) 
81

>  <SMILES>  (89) 
O=C([N-]c1ccc(Oc2ccccc2)cc1)Nc1ccccc1N1CCCC1=O

>  <Energy>  (89) 
78.15559430247558

>  <Genealogy>  (89) 
O=C([N-]c1ccc(Oc2ccccc2)cc1)Nc1ccccc1N1CCCC1=O (protonated)
O=C([N-]c1ccc(Oc2ccccc2)cc1)Nc1ccccc1N1CCCC1=O (3D coordinates assigned)
O=C([N-]c1ccc(Oc2ccccc2)cc1)Nc1ccccc1N1CCCC1=O (nonaromatic ring conformer: 78.15559430247558 kcal/mol)

>  <smiles>  (89) 
O=C(Nc1ccc(Oc2ccccc2)cc1)Nc1ccccc1N1CCCC1=O

>  <score_type>  (89) 
oracle

>  <origin>  (89) 
adg

>  <m_score__min__energy>  (89) 
-9.9199999999999999

>  <m_primary>  (89) 
energy

$$$$
89:0
     RDKit          3D

 49 52  0  0  0  0  0  0  0  0999 V2000
   58.5290   32.9220   42.4330 O   0  0  0  0  0  0  0  0  0  0  0  0
   57.9420   32.5990   43.5010 C   0  0  0  0  0  0  0  0  0  0  0  0
   57.1020   31.3460   43.5400 C   0  0  0  0  0  0  0  0  0  0  0  0
   57.0710   30.7450   44.8880 N   0  0  0  0  0  0  0  0  0  0  0  0
   56.3970   29.4640   44.8910 C   0  0  0  0  0  0  0  0  0  0  0  0
   55.1660   29.3260   44.6570 O   0  0  0  0  0  0  0  0  0  0  0  0
   57.2860   28.3700   45.2490 C   0  0  0  0  0  0  0  0  0  0  0  0
   57.0450   27.0040   45.3920 C   0  0  0  0  0  0  0  0  0  0  0  0
   58.1210   26.1810   45.7730 C   0  0  0  0  0  0  0  0  0  0  0  0
   59.3950   26.7410   46.0110 C   0  0  0  0  0  0  0  0  0  0  0  0
   59.6010   28.1250   45.8730 C   0  0  0  0  0  0  0  0  0  0  0  0
   58.5160   28.9110   45.4870 C   0  0  0  0  0  0  0  0  0  0  0  0
   58.4000   30.3480   45.2880 C   0  0  0  0  0  0  0  0  0  0  0  0
   59.3400   31.1660   45.4790 O   0  0  0  0  0  0  0  0  0  0  0  0
   58.0850   33.4300   44.6640 N   0  0  0  0  0  0  0  0  0  0  0  0
   56.9500   33.7340   45.5360 C   0  0  0  0  0  0  0  0  0  0  0  0
   57.3710   33.4650   46.9780 C   0  0  0  0  0  0  0  0  0  0  0  0
   58.5420   34.2770   47.3810 N   0  0  0  0  0  0  0  0  0  0  0  0
   59.5020   33.4510   48.5880 S   0  0  0  0  0  0  0  0  0  0  0  0
   58.8070   32.1800   48.9920 O   0  0  0  0  0  0  0  0  0  0  0  0
   59.6150   34.3190   49.8100 O   0  0  0  0  0  0  0  0  0  0  0  0
   61.1250   33.0770   47.9950 C   0  0  0  0  0  0  0  0  0  0  0  0
   62.0870   34.0970   47.9220 C   0  0  0  0  0  0  0  0  0  0  0  0
   63.3720   33.8240   47.4430 C   0  0  0  0  0  0  0  0  0  0  0  0
   63.7090   32.5300   47.0430 C   0  0  0  0  0  0  0  0  0  0  0  0
   62.7630   31.5060   47.1250 C   0  0  0  0  0  0  0  0  0  0  0  0
   61.4760   31.7720   47.6000 C   0  0  0  0  0  0  0  0  0  0  0  0
   60.5830   30.7540   47.6800 F   0  0  0  0  0  0  0  0  0  0  0  0
   59.3730   34.8160   46.2770 C   0  0  0  0  0  0  0  0  0  0  0  0
   59.4190   33.9090   45.0340 C   0  0  0  0  0  0  0  0  0  0  0  0
   56.0743   31.5975   43.2392 H   0  0  0  0  0  0  0  0  0  0  0  0
   57.5494   30.6144   42.8511 H   0  0  0  0  0  0  0  0  0  0  0  0
   56.6610   31.3840   45.6090 H   0  0  0  0  0  0  0  0  0  0  0  0
   56.0448   26.5828   45.2125 H   0  0  0  0  0  0  0  0  0  0  0  0
   57.9689   25.0974   45.8858 H   0  0  0  0  0  0  0  0  0  0  0  0
   60.2315   26.0906   46.3062 H   0  0  0  0  0  0  0  0  0  0  0  0
   60.5871   28.5735   46.0636 H   0  0  0  0  0  0  0  0  0  0  0  0
   56.6654   34.7904   45.4221 H   0  0  0  0  0  0  0  0  0  0  0  0
   56.0869   33.1066   45.2688 H   0  0  0  0  0  0  0  0  0  0  0  0
   56.5284   33.7044   47.6433 H   0  0  0  0  0  0  0  0  0  0  0  0
   57.6536   32.4047   47.0544 H   0  0  0  0  0  0  0  0  0  0  0  0
   61.8284   35.1167   48.2434 H   0  0  0  0  0  0  0  0  0  0  0  0
   64.1181   34.6299   47.3814 H   0  0  0  0  0  0  0  0  0  0  0  0
   64.7192   32.3169   46.6634 H   0  0  0  0  0  0  0  0  0  0  0  0
   63.0321   30.4857   46.8144 H   0  0  0  0  0  0  0  0  0  0  0  0
   58.9629   35.7922   45.9790 H   0  0  0  0  0  0  0  0  0  0  0  0
   60.4024   34.8902   46.6577 H   0  0  0  0  0  0  0  0  0  0  0  0
   59.8395   34.4787   44.1922 H   0  0  0  0  0  0  0  0  0  0  0  0
   60.0443   33.0352   45.2697 H   0  0  0  0  0  0  0  0  0  0  0  0
  1  2  2  0
  2  3  1  0
  3  4  1  0
  4  5  1  0
  5  6  2  0
  5  7  1  0
  7  8  2  0
  8  9  1  0
  9 10  2  0
 10 11  1  0
 11 12  2  0
 12 13  1  0
 13 14  2  0
  2 15  1  0
 15 16  1  0
 16 17  1  0
 17 18  1  0
 18 19  1  0
 19 20  2  0
 19 21  2  0
 19 22  1  0
 22 23  2  0
 23 24  1  0
 24 25  2  0
 25 26  1  0
 26 27  2  0
 27 28  1  0
 18 29  1  0
 29 30  1  0
 13  4  1  0
 30 15  1  0
 12  7  1  0
 27 22  1  0
  3 31  1  0
  3 32  1  0
  4 33  1  0
  8 34  1  0
  9 35  1  0
 10 36  1  0
 11 37  1  0
 16 38  1  0
 16 39  1  0
 17 40  1  0
 17 41  1  0
 23 42  1  0
 24 43  1  0
 25 44  1  0
 26 45  1  0
 29 46  1  0
 29 47  1  0
 30 48  1  0
 30 49  1  0
M  CHG  1   4   1
M  END
>  <UniqueID>  (90) 
82

>  <SMILES>  (90) 
O=C(C[NH+]1C(=O)c2ccccc2C1=O)N1CCN(S(=O)(=O)c2ccccc2F)CC1

>  <Energy>  (90) 
84.825645985905

>  <Genealogy>  (90) 
O=C(C[NH+]1C(=O)c2ccccc2C1=O)N1CCN(S(=O)(=O)c2ccccc2F)CC1 (protonated)
O=C(C[NH+]1C(=O)c2ccccc2C1=O)N1CCN(S(=O)(=O)c2ccccc2F)CC1 (3D coordinates assigned)
O=C(C[NH+]1C(=O)c2ccccc2C1=O)N1CCN(S(=O)(=O)c2ccccc2F)CC1 (nonaromatic ring conformer: 84.825645985905 kcal/mol)

>  <smiles>  (90) 
O=C(CN1C(=O)c2ccccc2C1=O)N1CCN(S(=O)(=O)c2ccccc2F)CC1

>  <score_type>  (90) 
oracle

>  <origin>  (90) 
adg

>  <m_score__min__energy>  (90) 
-8.2400000000000002

>  <m_primary>  (90) 
energy

$$$$
90:0
     RDKit          3D

 35 36  0  0  0  0  0  0  0  0999 V2000
   54.3560   26.7200   45.1650 H   0  0  0  0  0  0  0  0  0  0  0  0
   54.8030   26.3340   45.9870 O   0  0  0  0  0  0  0  0  0  0  0  0
   55.9990   25.6260   45.9020 C   0  0  0  0  0  0  0  0  0  0  0  0
   56.0000   24.2620   45.5840 C   0  0  0  0  0  0  0  0  0  0  0  0
   55.0491   23.7448   45.3881 H   0  0  0  0  0  0  0  0  0  0  0  0
   57.2120   23.5500   45.5140 C   0  0  0  0  0  0  0  0  0  0  0  0
   57.2650   22.1800   45.2130 O   0  0  0  0  0  0  0  0  0  0  0  0
   57.9960   21.6240   44.1250 C   0  0  0  0  0  0  0  0  0  0  0  0
   58.8150   21.0011   44.5138 H   0  0  0  0  0  0  0  0  0  0  0  0
   57.3251   21.0058   43.5103 H   0  0  0  0  0  0  0  0  0  0  0  0
   58.4126   22.4356   43.5103 H   0  0  0  0  0  0  0  0  0  0  0  0
   58.4150   24.2230   45.7530 C   0  0  0  0  0  0  0  0  0  0  0  0
   59.3643   23.6684   45.7176 H   0  0  0  0  0  0  0  0  0  0  0  0
   58.4250   25.6000   46.0380 C   0  0  0  0  0  0  0  0  0  0  0  0
   59.6870   26.3230   46.3120 C   0  0  0  0  0  0  0  0  0  0  0  0
   60.3602   25.8952   47.0694 H   0  0  0  0  0  0  0  0  0  0  0  0
   60.0770   27.4590   45.7110 C   0  0  0  0  0  0  0  0  0  0  0  0
   61.0972   27.4892   45.3007 H   0  0  0  0  0  0  0  0  0  0  0  0
   59.2460   28.6730   45.5560 C   0  0  0  0  0  0  0  0  0  0  0  0
   59.3590   29.7600   46.4410 C   0  0  0  0  0  0  0  0  0  0  0  0
   60.0674   29.7095   47.2810 H   0  0  0  0  0  0  0  0  0  0  0  0
   58.5770   30.9040   46.2600 C   0  0  0  0  0  0  0  0  0  0  0  0
   58.6604   31.7422   46.9675 H   0  0  0  0  0  0  0  0  0  0  0  0
   57.6830   30.9880   45.1760 C   0  0  0  0  0  0  0  0  0  0  0  0
   56.8740   32.1130   44.9540 O   0  0  0  0  0  0  0  0  0  0  0  0
   57.2760   33.4550   45.2090 C   0  0  0  0  0  0  0  0  0  0  0  0
   57.3262   33.6227   46.2950 H   0  0  0  0  0  0  0  0  0  0  0  0
   58.2665   33.6318   44.7645 H   0  0  0  0  0  0  0  0  0  0  0  0
   56.5458   34.1473   44.7645 H   0  0  0  0  0  0  0  0  0  0  0  0
   57.5970   29.9180   44.2790 C   0  0  0  0  0  0  0  0  0  0  0  0
   56.9088   29.9781   43.4230 H   0  0  0  0  0  0  0  0  0  0  0  0
   58.3780   28.7730   44.4610 C   0  0  0  0  0  0  0  0  0  0  0  0
   58.3106   27.9452   43.7398 H   0  0  0  0  0  0  0  0  0  0  0  0
   57.2080   26.2880   46.1360 C   0  0  0  0  0  0  0  0  0  0  0  0
   57.2040   27.3561   46.3988 H   0  0  0  0  0  0  0  0  0  0  0  0
  1  2  1  0
  2  3  1  0
  3  4  2  0
  4  5  1  0
  4  6  1  0
  6  7  1  0
  7  8  1  0
  8  9  1  0
  8 10  1  0
  8 11  1  0
  6 12  2  0
 12 13  1  0
 12 14  1  0
 14 15  1  0
 15 16  1  0
 15 17  2  0
 17 18  1  0
 17 19  1  0
 19 20  2  0
 20 21  1  0
 20 22  1  0
 22 23  1  0
 22 24  2  0
 24 25  1  0
 25 26  1  0
 26 27  1  0
 26 28  1  0
 26 29  1  0
 24 30  1  0
 30 31  1  0
 30 32  2  0
 32 33  1  0
 14 34  2  0
 34 35  1  0
 34  3  1  0
 32 19  1  0
M  END
>  <UniqueID>  (91) 
83

>  <SMILES>  (91) 
COc1ccc(/C=C\c2cc(O)cc(OC)c2)cc1

>  <Energy>  (91) 
43.010467978186725

>  <Genealogy>  (91) 
COc1ccc(/C=C\c2cc(O)cc(OC)c2)cc1 (cis-trans isomerization)
COc1ccc(/C=C\c2cc(O)cc(OC)c2)cc1 (3D coordinates assigned)
COc1ccc(/C=C\c2cc(O)cc(OC)c2)cc1 (optimized conformer: 43.010467978186725 kcal/mol)

>  <smiles>  (91) 
COc1ccc(C=Cc2cc(O)cc(OC)c2)cc1

>  <score_type>  (91) 
oracle

>  <origin>  (91) 
adg

>  <m_score__min__energy>  (91) 
-7.5800000000000001

>  <m_primary>  (91) 
energy

$$$$
91:0
     RDKit          3D

 36 38  0  0  0  0  0  0  0  0999 V2000
   55.7390   23.0870   47.5130 C   0  0  0  0  0  0  0  0  0  0  0  0
   55.7340   23.8970   46.3420 O   0  0  0  0  0  0  0  0  0  0  0  0
   56.4750   25.0780   46.1870 C   0  0  0  0  0  0  0  0  0  0  0  0
   57.8830   25.0870   46.2310 C   0  0  0  0  0  0  0  0  0  0  0  0
   58.5980   26.2840   46.0760 C   0  0  0  0  0  0  0  0  0  0  0  0
   57.9080   27.4870   45.8170 C   0  0  0  0  0  0  0  0  0  0  0  0
   56.5020   27.4790   45.8170 C   0  0  0  0  0  0  0  0  0  0  0  0
   55.7900   26.2880   45.9870 C   0  0  0  0  0  0  0  0  0  0  0  0
   54.3960   26.3290   45.9570 O   0  0  0  0  0  0  0  0  0  0  0  0
   58.6670   28.8040   45.6860 C   0  0  2  0  0  0  0  0  0  0  0  0
   58.0790   29.7000   44.6100 C   0  0  0  0  0  0  0  0  0  0  0  0
   58.4390   31.0570   44.5420 C   0  0  0  0  0  0  0  0  0  0  0  0
   57.9080   31.8800   43.5440 C   0  0  0  0  0  0  0  0  0  0  0  0
   57.0200   31.3560   42.6010 C   0  0  0  0  0  0  0  0  0  0  0  0
   56.6630   30.0060   42.6530 C   0  0  0  0  0  0  0  0  0  0  0  0
   57.1910   29.1790   43.6480 C   0  0  0  0  0  0  0  0  0  0  0  0
   60.1040   28.6040   45.4150 N   0  0  0  0  0  0  0  0  0  0  0  0
   60.6890   27.6430   46.3550 C   0  0  0  0  0  0  0  0  0  0  0  0
   60.1030   26.2470   46.1280 C   0  0  0  0  0  0  0  0  0  0  0  0
   55.7350   23.7313   48.4045 H   0  0  0  0  0  0  0  0  0  0  0  0
   54.8448   22.4464   47.5196 H   0  0  0  0  0  0  0  0  0  0  0  0
   56.6410   22.4575   47.5196 H   0  0  0  0  0  0  0  0  0  0  0  0
   58.4281   24.1446   46.3887 H   0  0  0  0  0  0  0  0  0  0  0  0
   55.9545   28.4233   45.6813 H   0  0  0  0  0  0  0  0  0  0  0  0
   53.8250   25.6140   46.3910 H   0  0  0  0  0  0  0  0  0  0  0  0
   58.5593   29.2990   46.6624 H   0  0  0  0  0  0  0  0  0  0  0  0
   59.1423   31.4738   45.2779 H   0  0  0  0  0  0  0  0  0  0  0  0
   58.1900   32.9424   43.5012 H   0  0  0  0  0  0  0  0  0  0  0  0
   56.6021   32.0059   41.8180 H   0  0  0  0  0  0  0  0  0  0  0  0
   55.9651   29.5936   41.9094 H   0  0  0  0  0  0  0  0  0  0  0  0
   56.9119   28.1155   43.6804 H   0  0  0  0  0  0  0  0  0  0  0  0
   60.2380   28.2370   44.4430 H   0  0  0  0  0  0  0  0  0  0  0  0
   61.7782   27.6072   46.2053 H   0  0  0  0  0  0  0  0  0  0  0  0
   60.4579   27.9634   47.3816 H   0  0  0  0  0  0  0  0  0  0  0  0
   60.4843   25.8494   45.1759 H   0  0  0  0  0  0  0  0  0  0  0  0
   60.4045   25.6044   46.9683 H   0  0  0  0  0  0  0  0  0  0  0  0
  1  2  1  0
  2  3  1  0
  3  4  2  0
  4  5  1  0
  5  6  2  0
  6  7  1  0
  7  8  2  0
  8  9  1  0
  6 10  1  0
 10 11  1  0
 11 12  2  0
 12 13  1  0
 13 14  2  0
 14 15  1  0
 15 16  2  0
 10 17  1  0
 17 18  1  0
 18 19  1  0
  8  3  1  0
 16 11  1  0
 19  5  1  0
  1 20  1  0
  1 21  1  0
  1 22  1  0
  4 23  1  0
  7 24  1  0
  9 25  1  0
 10 26  1  1
 12 27  1  0
 13 28  1  0
 14 29  1  0
 15 30  1  0
 16 31  1  0
 17 32  1  0
 18 33  1  0
 18 34  1  0
 19 35  1  0
 19 36  1  0
M  END
>  <UniqueID>  (92) 
84

>  <SMILES>  (92) 
COc1cc2c(cc1O)[C@H](c1ccccc1)NCC2

>  <Energy>  (92) 
41.69558574875394

>  <Genealogy>  (92) 
COc1cc2c(cc1O)[C@H](c1ccccc1)NCC2 (chirality)
COc1cc2c(cc1O)[C@H](c1ccccc1)NCC2 (3D coordinates assigned)
COc1cc2c(cc1O)[C@H](c1ccccc1)NCC2 (nonaromatic ring conformer: 41.69558574875394 kcal/mol)

>  <smiles>  (92) 
COc1cc2c(cc1O)C(c1ccccc1)NCC2

>  <score_type>  (92) 
oracle

>  <origin>  (92) 
adg

>  <m_score__min__energy>  (92) 
-7.0599999999999996

>  <m_primary>  (92) 
energy

$$$$
92:0
     RDKit          3D

 33 34  0  0  0  0  0  0  0  0999 V2000
   55.5830   26.7610   45.9110 O   0  0  0  0  0  0  0  0  0  0  0  0
   56.2670   27.7770   45.6120 C   0  0  0  0  0  0  0  0  0  0  0  0
   57.7510   27.7620   45.8080 C   0  0  0  0  0  0  0  0  0  0  0  0
   58.3130   29.1120   45.6970 N   0  0  0  0  0  0  0  0  0  0  0  0
   59.2450   29.5370   47.1080 S   0  0  0  0  0  0  0  0  0  0  0  0
   58.5210   29.0810   48.3430 O   0  0  0  0  0  0  0  0  0  0  0  0
   60.5700   28.8300   47.0520 O   0  0  0  0  0  0  0  0  0  0  0  0
   59.5350   31.2750   47.1820 C   0  0  0  0  0  0  0  0  0  0  0  0
   60.7570   31.8150   46.7550 C   0  0  0  0  0  0  0  0  0  0  0  0
   60.9840   33.1910   46.8390 C   0  0  0  0  0  0  0  0  0  0  0  0
   59.9930   34.0350   47.3500 C   0  0  0  0  0  0  0  0  0  0  0  0
   58.7750   33.5000   47.7790 C   0  0  0  0  0  0  0  0  0  0  0  0
   58.5450   32.1230   47.6970 C   0  0  0  0  0  0  0  0  0  0  0  0
   55.6350   28.9470   45.0810 N   0  0  0  0  0  0  0  0  0  0  0  0
   55.9080   29.4720   43.7490 C   0  0  0  0  0  0  0  0  0  0  0  0
   56.6260   30.7790   43.8510 C   0  0  0  0  0  0  0  0  0  0  0  0
   57.3670   31.3740   42.8500 C   0  0  0  0  0  0  0  0  0  0  0  0
   57.8720   32.5310   43.4020 C   0  0  0  0  0  0  0  0  0  0  0  0
   57.4100   32.5700   44.7030 C   0  0  0  0  0  0  0  0  0  0  0  0
   56.6720   31.5100   44.9410 O   0  0  0  0  0  0  0  0  0  0  0  0
   57.9772   27.3599   46.8066 H   0  0  0  0  0  0  0  0  0  0  0  0
   58.1998   27.1319   45.0260 H   0  0  0  0  0  0  0  0  0  0  0  0
   57.5130   29.7830   45.6540 H   0  0  0  0  0  0  0  0  0  0  0  0
   61.5386   31.1535   46.3530 H   0  0  0  0  0  0  0  0  0  0  0  0
   61.9435   33.6110   46.5028 H   0  0  0  0  0  0  0  0  0  0  0  0
   60.1717   35.1185   47.4143 H   0  0  0  0  0  0  0  0  0  0  0  0
   57.9957   34.1635   48.1820 H   0  0  0  0  0  0  0  0  0  0  0  0
   57.5860   31.7050   48.0371 H   0  0  0  0  0  0  0  0  0  0  0  0
   56.5331   28.7553   43.1962 H   0  0  0  0  0  0  0  0  0  0  0  0
   54.9561   29.6238   43.2190 H   0  0  0  0  0  0  0  0  0  0  0  0
   57.5219   31.0024   41.8263 H   0  0  0  0  0  0  0  0  0  0  0  0
   58.5139   33.2741   42.9063 H   0  0  0  0  0  0  0  0  0  0  0  0
   57.6271   33.3673   45.4291 H   0  0  0  0  0  0  0  0  0  0  0  0
  1  2  2  0
  2  3  1  0
  3  4  1  0
  4  5  1  0
  5  6  2  0
  5  7  2  0
  5  8  1  0
  8  9  2  0
  9 10  1  0
 10 11  2  0
 11 12  1  0
 12 13  2  0
  2 14  1  0
 14 15  1  0
 15 16  1  0
 16 17  2  0
 17 18  1  0
 18 19  2  0
 19 20  1  0
 13  8  1  0
 20 16  1  0
  3 21  1  0
  3 22  1  0
  4 23  1  0
  9 24  1  0
 10 25  1  0
 11 26  1  0
 12 27  1  0
 13 28  1  0
 15 29  1  0
 15 30  1  0
 17 31  1  0
 18 32  1  0
 19 33  1  0
M  CHG  1  14  -1
M  END
>  <UniqueID>  (93) 
85

>  <SMILES>  (93) 
O=C(CNS(=O)(=O)c1ccccc1)[N-]Cc1ccco1

>  <Energy>  (93) 
51.58081799706685

>  <Genealogy>  (93) 
O=C(CNS(=O)(=O)c1ccccc1)[N-]Cc1ccco1 (protonated)
O=C(CNS(=O)(=O)c1ccccc1)[N-]Cc1ccco1 (3D coordinates assigned)
O=C(CNS(=O)(=O)c1ccccc1)[N-]Cc1ccco1 (optimized conformer: 51.58081799706685 kcal/mol)

>  <smiles>  (93) 
O=C(CNS(=O)(=O)c1ccccc1)NCc1ccco1

>  <score_type>  (93) 
oracle

>  <origin>  (93) 
adg

>  <m_score__min__energy>  (93) 
-9.5800000000000001

>  <m_primary>  (93) 
energy

$$$$
93:0
     RDKit          3D

 53 57  0  0  0  0  0  0  0  0999 V2000
   59.7030   34.5113   44.3842 H   0  0  0  0  0  0  0  0  0  0  0  0
   59.0100   33.7070   44.6720 C   0  0  0  0  0  0  0  0  0  0  0  0
   57.7740   33.0810   43.7170 S   0  0  0  0  0  0  0  0  0  0  0  0
   57.2910   31.9600   44.8790 C   0  0  0  0  0  0  0  0  0  0  0  0
   56.2930   31.1270   44.7890 N   0  0  0  0  0  0  0  0  0  0  0  0
   56.3310   29.7600   44.3550 C   0  0  0  0  0  0  0  0  0  0  0  0
   55.9260   29.4860   43.1940 O   0  0  0  0  0  0  0  0  0  0  0  0
   56.7950   28.6420   45.2520 C   0  0  0  0  0  0  0  0  0  0  0  0
   56.1513   28.6034   46.1431 H   0  0  0  0  0  0  0  0  0  0  0  0
   56.7348   27.6948   44.6959 H   0  0  0  0  0  0  0  0  0  0  0  0
   58.1850   28.8550   45.6710 N   0  0  0  0  0  0  0  0  0  0  0  0
   58.4080   29.3990   46.8710 N   0  0  0  0  0  0  0  0  0  0  0  0
   59.6600   29.6580   47.3390 C   0  0  0  0  0  0  0  0  0  0  0  0
   59.8280   30.2450   48.6480 N   0  0  0  0  0  0  0  0  0  0  0  0
   61.1620   30.2600   49.2640 C   0  0  0  0  0  0  0  0  0  0  0  0
   61.7106   29.3554   48.9628 H   0  0  0  0  0  0  0  0  0  0  0  0
   61.7007   31.1580   48.9274 H   0  0  0  0  0  0  0  0  0  0  0  0
   61.0440   30.2940   50.7910 C   0  0  0  0  0  0  0  0  0  0  0  0
   60.6403   29.3332   51.1430 H   0  0  0  0  0  0  0  0  0  0  0  0
   62.0425   30.4693   51.2179 H   0  0  0  0  0  0  0  0  0  0  0  0
   60.1850   31.3370   51.2050 O   0  0  0  0  0  0  0  0  0  0  0  0
   58.8690   31.0670   50.7640 C   0  0  0  0  0  0  0  0  0  0  0  0
   58.5677   30.0703   51.1187 H   0  0  0  0  0  0  0  0  0  0  0  0
   58.1975   31.8383   51.1691 H   0  0  0  0  0  0  0  0  0  0  0  0
   58.7870   31.1010   49.2350 C   0  0  0  0  0  0  0  0  0  0  0  0
   57.7981   30.7394   48.9167 H   0  0  0  0  0  0  0  0  0  0  0  0
   58.9392   32.1350   48.8919 H   0  0  0  0  0  0  0  0  0  0  0  0
   60.7570   29.3390   46.5270 C   0  0  0  0  0  0  0  0  0  0  0  0
   61.7818   29.5273   46.8796 H   0  0  0  0  0  0  0  0  0  0  0  0
   60.5380   28.7820   45.2710 C   0  0  0  0  0  0  0  0  0  0  0  0
   61.3884   28.5300   44.6203 H   0  0  0  0  0  0  0  0  0  0  0  0
   59.2330   28.5460   44.8440 C   0  0  0  0  0  0  0  0  0  0  0  0
   59.0320   28.0510   43.7020 O   0  0  0  0  0  0  0  0  0  0  0  0
   58.0410   32.0660   45.9950 N   0  0  0  0  0  0  0  0  0  0  0  0
   57.9040   31.4560   46.8320 H   0  0  0  0  0  0  0  0  0  0  0  0
   59.0040   33.0280   45.8950 C   0  0  0  0  0  0  0  0  0  0  0  0
   59.9520   33.3270   46.9960 C   0  0  0  0  0  0  0  0  0  0  0  0
   59.5320   34.0560   48.1240 C   0  0  0  0  0  0  0  0  0  0  0  0
   58.4911   34.4057   48.1895 H   0  0  0  0  0  0  0  0  0  0  0  0
   60.4230   34.3400   49.1610 C   0  0  0  0  0  0  0  0  0  0  0  0
   60.0802   34.9122   50.0357 H   0  0  0  0  0  0  0  0  0  0  0  0
   61.7510   33.9000   49.0930 C   0  0  0  0  0  0  0  0  0  0  0  0
   62.6530   34.1810   50.1320 C   0  0  0  0  0  0  0  0  0  0  0  0
   62.3186   34.7531   51.0100 H   0  0  0  0  0  0  0  0  0  0  0  0
   63.9740   33.7350   50.0520 C   0  0  0  0  0  0  0  0  0  0  0  0
   64.6785   33.9588   50.8666 H   0  0  0  0  0  0  0  0  0  0  0  0
   64.4040   33.0050   48.9400 C   0  0  0  0  0  0  0  0  0  0  0  0
   65.4452   32.6546   48.8833 H   0  0  0  0  0  0  0  0  0  0  0  0
   63.5150   32.7190   47.9000 C   0  0  0  0  0  0  0  0  0  0  0  0
   63.8582   32.1436   47.0276 H   0  0  0  0  0  0  0  0  0  0  0  0
   62.1860   33.1640   47.9660 C   0  0  0  0  0  0  0  0  0  0  0  0
   61.2850   32.8830   46.9280 C   0  0  0  0  0  0  0  0  0  0  0  0
   61.6242   32.3099   46.0525 H   0  0  0  0  0  0  0  0  0  0  0  0
  1  2  1  0
  2  3  1  0
  3  4  1  0
  4  5  2  0
  5  6  1  0
  6  7  2  0
  6  8  1  0
  8  9  1  0
  8 10  1  0
  8 11  1  0
 11 12  1  0
 12 13  2  0
 13 14  1  0
 14 15  1  0
 15 16  1  0
 15 17  1  0
 15 18  1  0
 18 19  1  0
 18 20  1  0
 18 21  1  0
 21 22  1  0
 22 23  1  0
 22 24  1  0
 22 25  1  0
 25 26  1  0
 25 27  1  0
 13 28  1  0
 28 29  1  0
 28 30  2  0
 30 31  1  0
 30 32  1  0
 32 33  2  0
  4 34  1  0
 34 35  1  0
 34 36  1  0
 36 37  1  0
 37 38  2  0
 38 39  1  0
 38 40  1  0
 40 41  1  0
 40 42  2  0
 42 43  1  0
 43 44  1  0
 43 45  2  0
 45 46  1  0
 45 47  1  0
 47 48  1  0
 47 49  2  0
 49 50  1  0
 49 51  1  0
 51 52  2  0
 52 53  1  0
 36  2  2  0
 52 37  1  0
 32 11  1  0
 51 42  1  0
 25 14  1  0
M  END
>  <UniqueID>  (94) 
86

>  <SMILES>  (94) 
O=C(Cn1nc(N2CCOCC2)ccc1=O)/N=c1/[nH]c(-c2ccc3ccccc3c2)cs1

>  <Energy>  (94) 
106.11250531653542

>  <Genealogy>  (94) 
O=C(Cn1nc(N2CCOCC2)ccc1=O)/N=c1/[nH]c(-c2ccc3ccccc3c2)cs1 (cis-trans isomerization)
O=C(Cn1nc(N2CCOCC2)ccc1=O)/N=c1/[nH]c(-c2ccc3ccccc3c2)cs1 (3D coordinates assigned)
O=C(Cn1nc(N2CCOCC2)ccc1=O)/N=c1/[nH]c(-c2ccc3ccccc3c2)cs1 (nonaromatic ring conformer: 106.11250531653542 kcal/mol)

>  <smiles>  (94) 
O=C(Cn1nc(N2CCOCC2)ccc1=O)N=c1[nH]c(-c2ccc3ccccc3c2)cs1

>  <score_type>  (94) 
oracle

>  <origin>  (94) 
adg

>  <m_score__min__energy>  (94) 
-8.9800000000000004

>  <m_primary>  (94) 
energy

$$$$
94:0
     RDKit          3D

 48 51  0  0  0  0  0  0  0  0999 V2000
   61.0800   26.5840   47.4470 O   0  0  0  0  0  0  0  0  0  0  0  0
   60.0300   27.2160   47.1500 C   0  0  0  0  0  0  0  0  0  0  0  0
   59.9210   28.6300   47.5590 C   0  0  0  0  0  0  0  0  0  0  0  0
   59.2720   29.0940   48.6860 C   0  0  0  0  0  0  0  0  0  0  0  0
   59.4870   30.4540   48.6440 C   0  0  0  0  0  0  0  0  0  0  0  0
   59.0110   31.4560   49.6410 C   0  0  0  0  0  0  0  0  0  0  0  0
   58.1240   32.3700   49.0050 O   0  0  0  0  0  0  0  0  0  0  0  0
   58.4420   33.1190   47.8620 C   0  0  0  0  0  0  0  0  0  0  0  0
   57.7520   32.9600   46.6420 C   0  0  0  0  0  0  0  0  0  0  0  0
   58.1080   33.7280   45.5290 C   0  0  0  0  0  0  0  0  0  0  0  0
   59.1470   34.6580   45.6210 C   0  0  0  0  0  0  0  0  0  0  0  0
   59.4890   35.4010   44.5400 F   0  0  0  0  0  0  0  0  0  0  0  0
   59.8340   34.8210   46.8260 C   0  0  0  0  0  0  0  0  0  0  0  0
   59.4830   34.0540   47.9420 C   0  0  0  0  0  0  0  0  0  0  0  0
   60.1570   34.2210   49.1080 F   0  0  0  0  0  0  0  0  0  0  0  0
   60.2150   30.7380   47.5910 O   0  0  0  0  0  0  0  0  0  0  0  0
   60.4980   29.6620   46.9150 N   0  0  0  0  0  0  0  0  0  0  0  0
   58.9800   26.5490   46.4140 N   0  0  0  0  0  0  0  0  0  0  0  0
   58.1330   25.5280   47.0520 C   0  0  0  0  0  0  0  0  0  0  0  0
   56.7450   25.5740   46.4910 C   0  0  0  0  0  0  0  0  0  0  0  0
   56.0520   24.5130   45.9480 C   0  0  0  0  0  0  0  0  0  0  0  0
   54.8180   25.0390   45.6410 C   0  0  0  0  0  0  0  0  0  0  0  0
   54.7840   26.3400   45.9940 N   0  0  0  0  0  0  0  0  0  0  0  0
   55.9570   26.6650   46.5160 N   0  0  0  0  0  0  0  0  0  0  0  0
   58.8390   26.7960   44.9710 C   0  0  0  0  0  0  0  0  0  0  0  0
   58.2130   28.1430   44.7180 C   0  0  0  0  0  0  0  0  0  0  0  0
   59.0230   29.2660   44.4920 C   0  0  0  0  0  0  0  0  0  0  0  0
   58.4300   30.5000   44.2210 C   0  0  0  0  0  0  0  0  0  0  0  0
   57.0400   30.6050   44.1760 C   0  0  0  0  0  0  0  0  0  0  0  0
   56.2610   29.4710   44.4070 C   0  0  0  0  0  0  0  0  0  0  0  0
   56.8530   28.2730   44.6670 N   0  0  0  0  0  0  0  0  0  0  0  0
   58.7158   28.5154   49.4382 H   0  0  0  0  0  0  0  0  0  0  0  0
   58.4837   30.9401   50.4570 H   0  0  0  0  0  0  0  0  0  0  0  0
   59.8719   32.0041   50.0514 H   0  0  0  0  0  0  0  0  0  0  0  0
   56.9323   32.2304   46.5660 H   0  0  0  0  0  0  0  0  0  0  0  0
   57.5689   33.5998   44.5788 H   0  0  0  0  0  0  0  0  0  0  0  0
   60.6518   35.5531   46.8976 H   0  0  0  0  0  0  0  0  0  0  0  0
   58.5649   24.5331   46.8688 H   0  0  0  0  0  0  0  0  0  0  0  0
   58.0872   25.7278   48.1327 H   0  0  0  0  0  0  0  0  0  0  0  0
   56.4046   23.4823   45.7952 H   0  0  0  0  0  0  0  0  0  0  0  0
   53.9880   24.4842   45.1792 H   0  0  0  0  0  0  0  0  0  0  0  0
   59.8331   26.7662   44.5011 H   0  0  0  0  0  0  0  0  0  0  0  0
   58.1895   26.0189   44.5418 H   0  0  0  0  0  0  0  0  0  0  0  0
   60.1186   29.1745   44.5282 H   0  0  0  0  0  0  0  0  0  0  0  0
   59.0566   31.3865   44.0436 H   0  0  0  0  0  0  0  0  0  0  0  0
   56.5627   31.5723   43.9605 H   0  0  0  0  0  0  0  0  0  0  0  0
   55.1639   29.5452   44.3789 H   0  0  0  0  0  0  0  0  0  0  0  0
   56.2430   27.4390   44.8240 H   0  0  0  0  0  0  0  0  0  0  0  0
  1  2  2  0
  2  3  1  0
  3  4  1  0
  4  5  2  0
  5  6  1  0
  6  7  1  0
  7  8  1  0
  8  9  2  0
  9 10  1  0
 10 11  2  0
 11 12  1  0
 11 13  1  0
 13 14  2  0
 14 15  1  0
  5 16  1  0
 16 17  1  0
  2 18  1  0
 18 19  1  0
 19 20  1  0
 20 21  1  0
 21 22  2  0
 22 23  1  0
 23 24  1  0
 18 25  1  0
 25 26  1  0
 26 27  2  0
 27 28  1  0
 28 29  2  0
 29 30  1  0
 30 31  2  0
 17  3  2  0
 24 20  2  0
 31 26  1  0
 14  8  1  0
  4 32  1  0
  6 33  1  0
  6 34  1  0
  9 35  1  0
 10 36  1  0
 13 37  1  0
 19 38  1  0
 19 39  1  0
 21 40  1  0
 22 41  1  0
 25 42  1  0
 25 43  1  0
 27 44  1  0
 28 45  1  0
 29 46  1  0
 30 47  1  0
 31 48  1  0
M  CHG  2  23  -1  31   1
M  END
>  <UniqueID>  (95) 
87

>  <SMILES>  (95) 
O=C(c1cc(COc2ccc(F)cc2F)on1)N(Cc1cc[n-]n1)Cc1cccc[nH+]1

>  <Energy>  (95) 
109.55974019905985

>  <Genealogy>  (95) 
O=C(c1cc(COc2ccc(F)cc2F)on1)N(Cc1cc[n-]n1)Cc1cccc[nH+]1 (protonated)
O=C(c1cc(COc2ccc(F)cc2F)on1)N(Cc1cc[n-]n1)Cc1cccc[nH+]1 (3D coordinates assigned)
O=C(c1cc(COc2ccc(F)cc2F)on1)N(Cc1cc[n-]n1)Cc1cccc[nH+]1 (optimized conformer: 109.55974019905985 kcal/mol)

>  <smiles>  (95) 
O=C(c1cc(COc2ccc(F)cc2F)on1)N(Cc1ccccn1)Cc1cc[nH]n1

>  <score_type>  (95) 
oracle

>  <origin>  (95) 
adg

>  <m_score__min__energy>  (95) 
-8.9399999999999995

>  <m_primary>  (95) 
energy

$$$$
95:0
     RDKit          3D

 39 40  0  0  0  0  0  0  0  0999 V2000
   52.9240   24.0900   45.5950 C   0  0  0  0  0  0  0  0  0  0  0  0
   54.3150   24.4730   45.1010 C   0  0  0  0  0  0  0  0  0  0  0  0
   54.7530   25.7140   45.7270 N   0  0  0  0  0  0  0  0  0  0  0  0
   56.0180   25.8710   46.3780 C   0  0  0  0  0  0  0  0  0  0  0  0
   56.2890   25.2170   47.4200 O   0  0  0  0  0  0  0  0  0  0  0  0
   57.0390   26.7870   45.7850 C   0  0  0  0  0  0  0  0  0  0  0  0
   57.5570   26.2280   44.4510 C   0  0  0  0  0  0  0  0  0  0  0  0
   58.5100   27.2060   43.7420 C   0  0  0  0  0  0  0  0  0  0  0  0
   58.3560   28.6130   44.2480 C   0  0  0  0  0  0  0  0  0  0  0  0
   59.2030   29.2400   45.1590 C   0  0  0  0  0  0  0  0  0  0  0  0
   58.8190   30.5510   45.4670 C   0  0  0  0  0  0  0  0  0  0  0  0
   57.6670   30.9480   44.8030 C   0  0  0  0  0  0  0  0  0  0  0  0
   57.0750   32.2470   44.8990 N   0  0  0  0  0  0  0  0  0  0  0  0
   58.0250   33.6950   44.9290 S   0  0  0  0  0  0  0  0  0  0  0  0
   58.8680   33.7600   43.6870 O   0  0  0  0  0  0  0  0  0  0  0  0
   57.1080   34.8840   44.9670 O   0  0  0  0  0  0  0  0  0  0  0  0
   59.0480   33.7180   46.3540 C   0  0  0  0  0  0  0  0  0  0  0  0
   58.6100   33.6820   47.6710 C   0  0  0  0  0  0  0  0  0  0  0  0
   59.6580   33.7430   48.5960 C   0  0  0  0  0  0  0  0  0  0  0  0
   60.9090   33.8310   48.0020 C   0  0  0  0  0  0  0  0  0  0  0  0
   62.5720   33.9820   48.9210 Br  0  0  0  0  0  0  0  0  0  0  0  0
   60.7260   33.8290   46.3300 S   0  0  0  0  0  0  0  0  0  0  0  0
   57.1150   29.6810   43.8430 S   0  0  0  0  0  0  0  0  0  0  0  0
   52.9135   24.0871   46.6949 H   0  0  0  0  0  0  0  0  0  0  0  0
   52.1892   24.8192   45.2232 H   0  0  0  0  0  0  0  0  0  0  0  0
   52.6660   23.0874   45.2232 H   0  0  0  0  0  0  0  0  0  0  0  0
   55.0231   23.6701   45.3537 H   0  0  0  0  0  0  0  0  0  0  0  0
   54.2794   24.6166   44.0110 H   0  0  0  0  0  0  0  0  0  0  0  0
   56.5828   27.7727   45.6112 H   0  0  0  0  0  0  0  0  0  0  0  0
   57.8837   26.8766   46.4839 H   0  0  0  0  0  0  0  0  0  0  0  0
   58.0943   25.2881   44.6455 H   0  0  0  0  0  0  0  0  0  0  0  0
   56.6901   26.0649   43.7938 H   0  0  0  0  0  0  0  0  0  0  0  0
   59.5461   26.8788   43.9137 H   0  0  0  0  0  0  0  0  0  0  0  0
   58.2626   27.2027   42.6702 H   0  0  0  0  0  0  0  0  0  0  0  0
   60.0878   28.7525   45.5943 H   0  0  0  0  0  0  0  0  0  0  0  0
   59.3728   31.1985   46.1627 H   0  0  0  0  0  0  0  0  0  0  0  0
   56.0400   32.3280   45.0150 H   0  0  0  0  0  0  0  0  0  0  0  0
   57.5501   33.6128   47.9572 H   0  0  0  0  0  0  0  0  0  0  0  0
   59.5055   33.7232   49.6852 H   0  0  0  0  0  0  0  0  0  0  0  0
  1  2  1  0
  2  3  1  0
  3  4  1  0
  4  5  2  0
  4  6  1  0
  6  7  1  0
  7  8  1  0
  8  9  1  0
  9 10  2  0
 10 11  1  0
 11 12  2  0
 12 13  1  0
 13 14  1  0
 14 15  2  0
 14 16  2  0
 14 17  1  0
 17 18  2  0
 18 19  1  0
 19 20  2  0
 20 21  1  0
 20 22  1  0
 12 23  1  0
 23  9  1  0
 22 17  1  0
  1 24  1  0
  1 25  1  0
  1 26  1  0
  2 27  1  0
  2 28  1  0
  6 29  1  0
  6 30  1  0
  7 31  1  0
  7 32  1  0
  8 33  1  0
  8 34  1  0
 10 35  1  0
 11 36  1  0
 13 37  1  0
 18 38  1  0
 19 39  1  0
M  CHG  1   3  -1
M  END
>  <UniqueID>  (96) 
88

>  <SMILES>  (96) 
CC[N-]C(=O)CCCc1ccc(NS(=O)(=O)c2ccc(Br)s2)s1

>  <Energy>  (96) 
81.80732604214363

>  <Genealogy>  (96) 
CC[N-]C(=O)CCCc1ccc(NS(=O)(=O)c2ccc(Br)s2)s1 (protonated)
CC[N-]C(=O)CCCc1ccc(NS(=O)(=O)c2ccc(Br)s2)s1 (3D coordinates assigned)
CC[N-]C(=O)CCCc1ccc(NS(=O)(=O)c2ccc(Br)s2)s1 (optimized conformer: 81.80732604214363 kcal/mol)

>  <smiles>  (96) 
CCNC(=O)CCCc1ccc(NS(=O)(=O)c2ccc(Br)s2)s1

>  <score_type>  (96) 
oracle

>  <origin>  (96) 
adg

>  <m_score__min__energy>  (96) 
-10.300000000000001

>  <m_primary>  (96) 
energy

$$$$
