0:0
     RDKit          3D

 51 53  0  0  0  0  0  0  0  0999 V2000
   54.9100   26.3170   45.9560 N   0  0  0  0  0  0  0  0  0  0  0  0
   56.3350   25.3740   46.2160 S   0  0  0  0  0  0  0  0  0  0  0  0
   56.3850   24.2540   45.2150 O   0  0  0  0  0  0  0  0  0  0  0  0
   56.2870   24.7990   47.6050 O   0  0  0  0  0  0  0  0  0  0  0  0
   57.7630   26.3870   46.0300 C   0  0  0  0  0  0  0  0  0  0  0  0
   57.9650   27.1220   44.8540 C   0  0  0  0  0  0  0  0  0  0  0  0
   59.1030   27.9210   44.7150 C   0  0  0  0  0  0  0  0  0  0  0  0
   60.0330   28.0040   45.7540 C   0  0  0  0  0  0  0  0  0  0  0  0
   59.8220   27.3050   46.9470 C   0  0  0  0  0  0  0  0  0  0  0  0
   60.7840   27.4250   48.0030 N   0  0  0  0  0  0  0  0  0  0  0  0
   60.7070   28.3010   49.1380 C   0  0  0  0  0  0  0  0  0  0  0  0
   60.3910   27.8130   50.2540 O   0  0  0  0  0  0  0  0  0  0  0  0
   61.0240   29.7740   49.0590 C   0  0  0  0  0  0  0  0  0  0  0  0
   59.8310   30.6030   49.2460 N   0  0  0  0  0  0  0  0  0  0  0  0
   59.6900   31.9490   48.7480 C   0  0  0  0  0  0  0  0  0  0  0  0
   59.0810   32.2070   47.5040 C   0  0  0  0  0  0  0  0  0  0  0  0
   58.9370   33.5190   47.0400 C   0  0  0  0  0  0  0  0  0  0  0  0
   58.1910   33.8090   45.4690 S   0  0  0  0  0  0  0  0  0  0  0  0
   56.7330   34.1100   45.6770 O   0  0  0  0  0  0  0  0  0  0  0  0
   58.8380   34.9910   44.8010 O   0  0  0  0  0  0  0  0  0  0  0  0
   58.3610   32.3910   44.4630 N   0  0  0  0  0  0  0  0  0  0  0  0
   57.8540   32.6730   43.1050 C   0  0  0  0  0  0  0  0  0  0  0  0
   57.5010   31.3680   42.3760 C   0  0  0  0  0  0  0  0  0  0  0  0
   56.5000   30.5910   43.0250 O   0  0  0  0  0  0  0  0  0  0  0  0
   56.3770   30.8620   44.4140 C   0  0  0  0  0  0  0  0  0  0  0  0
   57.7170   31.2140   45.0860 C   0  0  0  0  0  0  0  0  0  0  0  0
   59.4140   34.5850   47.8110 C   0  0  0  0  0  0  0  0  0  0  0  0
   60.0230   34.3420   49.0430 C   0  0  0  0  0  0  0  0  0  0  0  0
   60.1610   33.0300   49.5170 C   0  0  0  0  0  0  0  0  0  0  0  0
   60.7570   32.8000   50.7570 O   0  0  0  0  0  0  0  0  0  0  0  0
   58.6970   26.4730   47.0720 C   0  0  0  0  0  0  0  0  0  0  0  0
   55.1730   27.0960   45.3110 H   0  0  0  0  0  0  0  0  0  0  0  0
   57.2272   27.0699   44.0398 H   0  0  0  0  0  0  0  0  0  0  0  0
   59.2668   28.4858   43.7854 H   0  0  0  0  0  0  0  0  0  0  0  0
   60.9351   28.6217   45.6334 H   0  0  0  0  0  0  0  0  0  0  0  0
   61.7553   30.0223   49.8422 H   0  0  0  0  0  0  0  0  0  0  0  0
   61.4280   29.9813   48.0571 H   0  0  0  0  0  0  0  0  0  0  0  0
   59.0180   30.1550   49.7250 H   0  0  0  0  0  0  0  0  0  0  0  0
   58.7154   31.3693   46.8920 H   0  0  0  0  0  0  0  0  0  0  0  0
   56.9535   33.3005   43.1787 H   0  0  0  0  0  0  0  0  0  0  0  0
   58.6373   33.1953   42.5362 H   0  0  0  0  0  0  0  0  0  0  0  0
   57.1413   31.6220   41.3680 H   0  0  0  0  0  0  0  0  0  0  0  0
   58.4155   30.7568   42.3599 H   0  0  0  0  0  0  0  0  0  0  0  0
   55.6875   31.7090   44.5449 H   0  0  0  0  0  0  0  0  0  0  0  0
   56.0026   29.9454   44.8933 H   0  0  0  0  0  0  0  0  0  0  0  0
   57.5343   31.4310   46.1488 H   0  0  0  0  0  0  0  0  0  0  0  0
   58.3927   30.3546   44.9639 H   0  0  0  0  0  0  0  0  0  0  0  0
   59.3087   35.6170   47.4451 H   0  0  0  0  0  0  0  0  0  0  0  0
   60.3964   35.1837   49.6448 H   0  0  0  0  0  0  0  0  0  0  0  0
   61.0870   31.8820   51.0270 H   0  0  0  0  0  0  0  0  0  0  0  0
   58.5484   25.8868   47.9909 H   0  0  0  0  0  0  0  0  0  0  0  0
  1  2  1  0
  2  3  2  0
  2  4  2  0
  2  5  1  0
  5  6  2  0
  6  7  1  0
  7  8  2  0
  8  9  1  0
  9 10  1  0
 10 11  1  0
 11 12  2  0
 11 13  1  0
 13 14  1  0
 14 15  1  0
 15 16  2  0
 16 17  1  0
 17 18  1  0
 18 19  2  0
 18 20  2  0
 18 21  1  0
 21 22  1  0
 22 23  1  0
 23 24  1  0
 24 25  1  0
 25 26  1  0
 17 27  2  0
 27 28  1  0
 28 29  2  0
 29 30  1  0
  9 31  2  0
 31  5  1  0
 29 15  1  0
 26 21  1  0
  1 32  1  0
  6 33  1  0
  7 34  1  0
  8 35  1  0
 13 36  1  0
 13 37  1  0
 14 38  1  0
 16 39  1  0
 22 40  1  0
 22 41  1  0
 23 42  1  0
 23 43  1  0
 25 44  1  0
 25 45  1  0
 26 46  1  0
 26 47  1  0
 27 48  1  0
 28 49  1  0
 30 50  1  0
 31 51  1  0
M  CHG  2   1  -1  10  -1
M  END
>  <UniqueID>  (1) 
1

>  <SMILES>  (1) 
[NH-]S(=O)(=O)c1cccc([N-]C(=O)CNc2cc(S(=O)(=O)N3CCOCC3)ccc2O)c1

>  <Energy>  (1) 
66.62258618738288

>  <Genealogy>  (1) 
[NH-]S(=O)(=O)c1cccc([N-]C(=O)CNc2cc(S(=O)(=O)N3CCOCC3)ccc2O)c1 (protonated)
[NH-]S(=O)(=O)c1cccc([N-]C(=O)CNc2cc(S(=O)(=O)N3CCOCC3)ccc2O)c1 (3D coordinates assigned)
[NH-]S(=O)(=O)c1cccc([N-]C(=O)CNc2cc(S(=O)(=O)N3CCOCC3)ccc2O)c1 (nonaromatic ring conformer: 66.62258618738288 kcal/mol)

>  <smiles>  (1) 
NS(=O)(=O)c1cccc(NC(=O)CNc2cc(S(=O)(=O)N3CCOCC3)ccc2O)c1

>  <score_type>  (1) 
oracle

>  <origin>  (1) 
adg

>  <m_score__min__energy>  (1) 
-12.73

>  <m_primary>  (1) 
energy

$$$$
1:0
     RDKit          3D

 41 43  0  0  0  0  0  0  0  0999 V2000
   59.7944   27.1315   46.5167 H   0  0  0  0  0  0  0  0  0  0  0  0
   58.7140   26.9580   46.4040 C   0  0  0  0  0  0  0  0  0  0  0  0
   57.9390   27.8840   45.7800 N   0  0  0  0  0  0  0  0  0  0  0  0
   56.5950   27.7120   45.6170 C   0  0  0  0  0  0  0  0  0  0  0  0
   55.8660   28.6190   45.0350 N   0  0  0  0  0  0  0  0  0  0  0  0
   56.3130   29.8960   44.5530 C   0  0  0  0  0  0  0  0  0  0  0  0
   55.5480   30.8990   44.5530 O   0  0  0  0  0  0  0  0  0  0  0  0
   57.7160   30.0360   44.0420 C   0  0  0  0  0  0  0  0  0  0  0  0
   57.9066   29.2435   43.3033 H   0  0  0  0  0  0  0  0  0  0  0  0
   58.4016   29.9518   44.8981 H   0  0  0  0  0  0  0  0  0  0  0  0
   57.9470   31.3980   43.3790 C   0  0  0  0  0  0  0  0  0  0  0  0
   57.1544   31.5725   42.6365 H   0  0  0  0  0  0  0  0  0  0  0  0
   58.9375   31.3840   42.9008 H   0  0  0  0  0  0  0  0  0  0  0  0
   57.9270   32.5110   44.3820 C   0  0  0  0  0  0  0  0  0  0  0  0
   57.5320   33.7680   44.1060 N   0  0  0  0  0  0  0  0  0  0  0  0
   57.6900   34.4600   45.2230 N   0  0  0  0  0  0  0  0  0  0  0  0
   58.1720   33.5940   46.1360 C   0  0  0  0  0  0  0  0  0  0  0  0
   58.5330   33.9680   47.5350 C   0  0  0  0  0  0  0  0  0  0  0  0
   58.0029   33.3071   48.2365 H   0  0  0  0  0  0  0  0  0  0  0  0
   58.2431   35.0139   47.7141 H   0  0  0  0  0  0  0  0  0  0  0  0
   60.0160   33.8260   47.7420 C   0  0  0  0  0  0  0  0  0  0  0  0
   60.5520   33.8370   49.0400 C   0  0  0  0  0  0  0  0  0  0  0  0
   59.8844   33.9484   49.9071 H   0  0  0  0  0  0  0  0  0  0  0  0
   61.9300   33.7070   49.2350 C   0  0  0  0  0  0  0  0  0  0  0  0
   62.3416   33.7066   50.2551 H   0  0  0  0  0  0  0  0  0  0  0  0
   62.7900   33.5770   48.1340 C   0  0  0  0  0  0  0  0  0  0  0  0
   64.2640   33.3860   48.3370 C   0  0  0  0  0  0  0  0  0  0  0  0
   64.4851   33.3574   49.4142 H   0  0  0  0  0  0  0  0  0  0  0  0
   64.5785   32.4396   47.8728 H   0  0  0  0  0  0  0  0  0  0  0  0
   64.8093   34.2210   47.8728 H   0  0  0  0  0  0  0  0  0  0  0  0
   62.2560   33.5750   46.8380 C   0  0  0  0  0  0  0  0  0  0  0  0
   62.9241   33.4658   45.9710 H   0  0  0  0  0  0  0  0  0  0  0  0
   60.8790   33.7110   46.6420 C   0  0  0  0  0  0  0  0  0  0  0  0
   60.4701   33.7279   45.6209 H   0  0  0  0  0  0  0  0  0  0  0  0
   58.3220   32.3950   45.6270 O   0  0  0  0  0  0  0  0  0  0  0  0
   55.9870   26.5460   46.1060 C   0  0  0  0  0  0  0  0  0  0  0  0
   54.6210   26.3380   45.9500 O   0  0  0  0  0  0  0  0  0  0  0  0
   56.7680   25.5810   46.7480 C   0  0  0  0  0  0  0  0  0  0  0  0
   56.3024   24.6610   47.1312 H   0  0  0  0  0  0  0  0  0  0  0  0
   58.1400   25.7870   46.9020 C   0  0  0  0  0  0  0  0  0  0  0  0
   58.7618   25.0351   47.4100 H   0  0  0  0  0  0  0  0  0  0  0  0
  1  2  1  0
  2  3  1  0
  3  4  1  0
  4  5  2  0
  5  6  1  0
  6  7  2  0
  6  8  1  0
  8  9  1  0
  8 10  1  0
  8 11  1  0
 11 12  1  0
 11 13  1  0
 11 14  1  0
 14 15  2  0
 15 16  1  0
 16 17  2  0
 17 18  1  0
 18 19  1  0
 18 20  1  0
 18 21  1  0
 21 22  2  0
 22 23  1  0
 22 24  1  0
 24 25  1  0
 24 26  2  0
 26 27  1  0
 27 28  1  0
 27 29  1  0
 27 30  1  0
 26 31  1  0
 31 32  1  0
 31 33  2  0
 33 34  1  0
 17 35  1  0
  4 36  1  0
 36 37  1  0
 36 38  2  0
 38 39  1  0
 38 40  1  0
 40 41  1  0
 40  2  2  0
 35 14  1  0
 33 21  1  0
M  CHG  2   3  -1  37  -1
M  END
>  <UniqueID>  (2) 
2

>  <SMILES>  (2) 
Cc1ccc(Cc2nnc(CCC(=O)/N=c3\[n-]cccc3[O-])o2)cc1

>  <Energy>  (2) 
71.12269374680399

>  <Genealogy>  (2) 
Cc1ccc(Cc2nnc(CCC(=O)N=c3[n-]cccc3[O-])o2)cc1 (protonated)
Cc1ccc(Cc2nnc(CCC(=O)/N=c3\[n-]cccc3[O-])o2)cc1 (cis-trans isomerization)
Cc1ccc(Cc2nnc(CCC(=O)/N=c3\[n-]cccc3[O-])o2)cc1 (3D coordinates assigned)
Cc1ccc(Cc2nnc(CCC(=O)/N=c3\[n-]cccc3[O-])o2)cc1 (optimized conformer: 71.12269374680399 kcal/mol)

>  <smiles>  (2) 
Cc1ccc(Cc2nnc(CCC(=O)N=c3[nH]cccc3O)o2)cc1

>  <score_type>  (2) 
oracle

>  <origin>  (2) 
adg

>  <m_score__min__energy>  (2) 
-14.140000000000001

>  <m_primary>  (2) 
energy

$$$$
2:0
     RDKit          3D

 35 37  0  0  0  0  0  0  0  0999 V2000
   59.0260   30.2660   48.8340 O   0  0  0  0  0  0  0  0  0  0  0  0
   60.0320   30.9490   48.5030 C   0  0  0  0  0  0  0  0  0  0  0  0
   60.8120   30.6230   47.2940 C   0  0  0  0  0  0  0  0  0  0  0  0
   60.3110   30.1090   46.1600 C   0  0  0  0  0  0  0  0  0  0  0  0
   59.3900   28.9560   46.0840 C   0  0  0  0  0  0  0  0  0  0  0  0
   59.8010   27.6900   46.5530 C   0  0  0  0  0  0  0  0  0  0  0  0
   58.9150   26.5880   46.5210 C   0  0  0  0  0  0  0  0  0  0  0  0
   57.6020   26.7410   46.0410 C   0  0  0  0  0  0  0  0  0  0  0  0
   57.2170   28.0080   45.6110 C   0  0  0  0  0  0  0  0  0  0  0  0
   56.0210   28.4000   45.1550 N   0  0  0  0  0  0  0  0  0  0  0  0
   56.1920   29.7220   44.9200 C   0  0  0  0  0  0  0  0  0  0  0  0
   55.2740   30.4610   44.4780 O   0  0  0  0  0  0  0  0  0  0  0  0
   57.4340   30.1870   45.2070 N   0  0  0  0  0  0  0  0  0  0  0  0
   58.0670   29.0780   45.6370 C   0  0  0  0  0  0  0  0  0  0  0  0
   60.4000   32.0950   49.2730 N   0  0  0  0  0  0  0  0  0  0  0  0
   60.2800   33.7070   48.6520 S   0  0  0  0  0  0  0  0  0  0  0  0
   61.6590   34.2250   48.3620 O   0  0  0  0  0  0  0  0  0  0  0  0
   59.6330   34.5770   49.6940 O   0  0  0  0  0  0  0  0  0  0  0  0
   59.3340   33.7240   47.1640 C   0  0  0  0  0  0  0  0  0  0  0  0
   59.8850   34.2570   45.9880 C   0  0  0  0  0  0  0  0  0  0  0  0
   59.1400   34.2740   44.8060 C   0  0  0  0  0  0  0  0  0  0  0  0
   57.8380   33.7680   44.7910 C   0  0  0  0  0  0  0  0  0  0  0  0
   57.2770   33.2460   45.9590 C   0  0  0  0  0  0  0  0  0  0  0  0
   58.0190   33.2250   47.1460 C   0  0  0  0  0  0  0  0  0  0  0  0
   57.4520   32.7260   48.2720 F   0  0  0  0  0  0  0  0  0  0  0  0
   61.8943   30.8174   47.3245 H   0  0  0  0  0  0  0  0  0  0  0  0
   60.6093   30.5830   45.2132 H   0  0  0  0  0  0  0  0  0  0  0  0
   60.8196   27.5591   46.9470 H   0  0  0  0  0  0  0  0  0  0  0  0
   59.2556   25.6035   46.8743 H   0  0  0  0  0  0  0  0  0  0  0  0
   56.9048   25.8909   46.0066 H   0  0  0  0  0  0  0  0  0  0  0  0
   55.1590   27.8250   45.0210 H   0  0  0  0  0  0  0  0  0  0  0  0
   60.9073   34.6629   45.9970 H   0  0  0  0  0  0  0  0  0  0  0  0
   59.5795   34.6865   43.8858 H   0  0  0  0  0  0  0  0  0  0  0  0
   57.2541   33.7806   43.8588 H   0  0  0  0  0  0  0  0  0  0  0  0
   56.2505   32.8508   45.9461 H   0  0  0  0  0  0  0  0  0  0  0  0
  1  2  2  0
  2  3  1  0
  3  4  2  3
  4  5  1  0
  5  6  2  0
  6  7  1  0
  7  8  2  0
  8  9  1  0
  9 10  1  0
 10 11  1  0
 11 12  2  0
 11 13  1  0
 13 14  1  0
  2 15  1  0
 15 16  1  0
 16 17  2  0
 16 18  2  0
 16 19  1  0
 19 20  2  0
 20 21  1  0
 21 22  2  0
 22 23  1  0
 23 24  2  0
 24 25  1  0
 14  5  1  0
 24 19  1  0
 14  9  2  0
  3 26  1  0
  4 27  1  0
  6 28  1  0
  7 29  1  0
  8 30  1  0
 10 31  1  0
 20 32  1  0
 21 33  1  0
 22 34  1  0
 23 35  1  0
M  CHG  2  13  -1  15  -1
M  END
>  <UniqueID>  (3) 
3

>  <SMILES>  (3) 
O=C(C=Cc1cccc2[nH]c(=O)[n-]c12)[N-]S(=O)(=O)c1ccccc1F

>  <Energy>  (3) 
84.65202586675875

>  <Genealogy>  (3) 
O=C(C=Cc1cccc2[nH]c(=O)[n-]c12)[N-]S(=O)(=O)c1ccccc1F (protonated)
O=C(C=Cc1cccc2[nH]c(=O)[n-]c12)[N-]S(=O)(=O)c1ccccc1F (3D coordinates assigned)
O=C(C=Cc1cccc2[nH]c(=O)[n-]c12)[N-]S(=O)(=O)c1ccccc1F (optimized conformer: 84.65202586675875 kcal/mol)

>  <smiles>  (3) 
O=C(C=Cc1cccc2[nH]c(=O)[nH]c12)NS(=O)(=O)c1ccccc1F

>  <score_type>  (3) 
oracle

>  <origin>  (3) 
adg

>  <m_score__min__energy>  (3) 
-11.619999999999999

>  <m_primary>  (3) 
energy

$$$$
3:0
     RDKit          3D

 47 50  0  0  0  0  0  0  0  0999 V2000
   59.1806   33.5571   47.7143 H   0  0  0  0  0  0  0  0  0  0  0  0
   59.5530   32.5230   47.6710 C   0  0  0  0  0  0  0  0  0  0  0  0
   58.9460   31.2210   48.5460 S   0  0  0  0  0  0  0  0  0  0  0  0
   60.0070   30.0740   47.9220 C   0  0  0  0  0  0  0  0  0  0  0  0
   60.0350   28.6190   48.2840 C   0  0  0  0  0  0  0  0  0  0  0  0
   59.3206   28.4387   49.1008 H   0  0  0  0  0  0  0  0  0  0  0  0
   61.0565   28.3577   48.5973 H   0  0  0  0  0  0  0  0  0  0  0  0
   59.6730   27.7820   47.1400 N   0  0  0  0  0  0  0  0  0  0  0  0
   58.4690   27.6570   46.6610 C   0  0  0  0  0  0  0  0  0  0  0  0
   57.7880   26.4880   46.7970 N   0  0  0  0  0  0  0  0  0  0  0  0
   56.6450   28.5650   45.4710 C   0  0  0  0  0  0  0  0  0  0  0  0
   56.1000   29.5780   44.8610 N   0  0  0  0  0  0  0  0  0  0  0  0
   56.1350   24.0540   45.5600 C   0  0  0  0  0  0  0  0  0  0  0  0
   55.8340   24.0410   44.1850 C   0  0  0  0  0  0  0  0  0  0  0  0
   55.3909   24.9305   43.7134 H   0  0  0  0  0  0  0  0  0  0  0  0
   56.0950   22.9050   43.4170 C   0  0  0  0  0  0  0  0  0  0  0  0
   55.8486   22.8978   42.3450 H   0  0  0  0  0  0  0  0  0  0  0  0
   56.6680   21.7790   44.0080 C   0  0  0  0  0  0  0  0  0  0  0  0
   56.8627   20.8808   43.4036 H   0  0  0  0  0  0  0  0  0  0  0  0
   56.9950   21.7900   45.3660 C   0  0  0  0  0  0  0  0  0  0  0  0
   57.4535   20.9018   45.8252 H   0  0  0  0  0  0  0  0  0  0  0  0
   56.7410   22.9320   46.1510 C   0  0  0  0  0  0  0  0  0  0  0  0
   57.0630   22.9850   47.5170 O   0  0  0  0  0  0  0  0  0  0  0  0
   56.1810   22.6060   48.5680 C   0  0  0  0  0  0  0  0  0  0  0  0
   56.6573   22.8107   49.5382 H   0  0  0  0  0  0  0  0  0  0  0  0
   55.2474   23.1824   48.4890 H   0  0  0  0  0  0  0  0  0  0  0  0
   55.9566   21.5320   48.4890 H   0  0  0  0  0  0  0  0  0  0  0  0
   55.9760   27.3910   45.6190 N   0  0  0  0  0  0  0  0  0  0  0  0
   56.5400   26.3520   46.2810 C   0  0  0  0  0  0  0  0  0  0  0  0
   55.8970   25.2230   46.3640 N   0  0  0  0  0  0  0  0  0  0  0  0
   56.7770   30.7090   44.2850 C   0  0  0  0  0  0  0  0  0  0  0  0
   57.3520   31.6560   45.1430 C   0  0  0  0  0  0  0  0  0  0  0  0
   57.2543   31.5370   46.2322 H   0  0  0  0  0  0  0  0  0  0  0  0
   58.0490   32.7510   44.6240 C   0  0  0  0  0  0  0  0  0  0  0  0
   58.4828   33.4989   45.3040 H   0  0  0  0  0  0  0  0  0  0  0  0
   58.1950   32.8960   43.2420 C   0  0  0  0  0  0  0  0  0  0  0  0
   58.7373   33.7617   42.8340 H   0  0  0  0  0  0  0  0  0  0  0  0
   57.6520   31.9410   42.3780 C   0  0  0  0  0  0  0  0  0  0  0  0
   57.7738   32.0516   41.2904 H   0  0  0  0  0  0  0  0  0  0  0  0
   56.9540   30.8450   42.8950 C   0  0  0  0  0  0  0  0  0  0  0  0
   56.5418   30.0865   42.2132 H   0  0  0  0  0  0  0  0  0  0  0  0
   57.8920   28.6970   46.0020 N   0  0  0  0  0  0  0  0  0  0  0  0
   58.4100   29.6000   45.8980 H   0  0  0  0  0  0  0  0  0  0  0  0
   60.8640   30.7020   47.0280 C   0  0  0  0  0  0  0  0  0  0  0  0
   61.6656   30.1773   46.4875 H   0  0  0  0  0  0  0  0  0  0  0  0
   60.6050   32.0700   46.8840 C   0  0  0  0  0  0  0  0  0  0  0  0
   61.1795   32.7243   46.2118 H   0  0  0  0  0  0  0  0  0  0  0  0
  1  2  1  0
  2  3  1  0
  3  4  1  0
  4  5  1  0
  5  6  1  0
  5  7  1  0
  5  8  1  0
  8  9  2  3
  9 10  1  0
 10 11  1  0
 11 12  2  0
 12 13  1  0
 13 14  2  0
 14 15  1  0
 14 16  1  0
 16 17  1  0
 16 18  2  0
 18 19  1  0
 18 20  1  0
 20 21  1  0
 20 22  2  0
 22 23  1  0
 23 24  1  0
 24 25  1  0
 24 26  1  0
 24 27  1  0
 11 28  1  0
 28 29  1  0
 29 30  2  0
 30 31  1  0
 31 32  2  0
 32 33  1  0
 32 34  1  0
 34 35  1  0
 34 36  2  0
 36 37  1  0
 36 38  1  0
 38 39  1  0
 38 40  2  0
 40 41  1  0
 29 42  1  0
 42 43  1  0
  4 44  2  0
 44 45  1  0
 44 46  1  0
 46 47  1  0
 46  2  2  0
 42  9  1  0
 22 13  1  0
 40 31  1  0
M  CHG  2  10  -1  28  -1
M  END
>  <UniqueID>  (4) 
4

>  <SMILES>  (4) 
COc1ccccc1/N=c1\[n-]c(=NCc2cccs2)[nH]/c(=N/c2ccccc2)[n-]1

>  <Energy>  (4) 
86.46392451100974

>  <Genealogy>  (4) 
COc1ccccc1N=c1[n-]c(=NCc2cccs2)[nH]c(=Nc2ccccc2)[n-]1 (protonated)
COc1ccccc1/N=c1\[n-]c(=NCc2cccs2)[nH]/c(=N/c2ccccc2)[n-]1 (cis-trans isomerization)
COc1ccccc1/N=c1\[n-]c(=NCc2cccs2)[nH]/c(=N/c2ccccc2)[n-]1 (3D coordinates assigned)
COc1ccccc1/N=c1\[n-]c(=NCc2cccs2)[nH]/c(=N/c2ccccc2)[n-]1 (optimized conformer: 86.46392451100974 kcal/mol)

>  <smiles>  (4) 
COc1ccccc1N=c1[nH]c(=NCc2cccs2)[nH]c(=Nc2ccccc2)[nH]1

>  <score_type>  (4) 
oracle

>  <origin>  (4) 
adg

>  <m_score__min__energy>  (4) 
-11.470000000000001

>  <m_primary>  (4) 
energy

$$$$
4:0
     RDKit          3D

 29 30  0  0  0  0  0  0  0  0999 V2000
   54.7680   26.2670   45.9880 N   0  0  0  0  0  0  0  0  0  0  0  0
   56.1090   25.2030   46.2300 S   0  0  0  0  0  0  0  0  0  0  0  0
   55.8170   24.3210   47.4110 O   0  0  0  0  0  0  0  0  0  0  0  0
   56.3010   24.3530   45.0070 O   0  0  0  0  0  0  0  0  0  0  0  0
   57.5680   26.1420   46.5270 C   0  0  0  0  0  0  0  0  0  0  0  0
   58.7920   25.4990   46.7540 C   0  0  0  0  0  0  0  0  0  0  0  0
   59.9460   26.2510   46.9870 C   0  0  0  0  0  0  0  0  0  0  0  0
   59.8820   27.6480   47.0080 C   0  0  0  0  0  0  0  0  0  0  0  0
   58.6590   28.3030   46.8060 C   0  0  0  0  0  0  0  0  0  0  0  0
   58.6190   29.7820   46.8230 C   0  0  0  0  0  0  0  0  0  0  0  0
   57.6440   30.4960   46.3330 N   0  0  0  0  0  0  0  0  0  0  0  0
   57.3090   30.6780   44.9470 C   0  0  0  0  0  0  0  0  0  0  0  0
   58.1160   31.4570   44.0970 C   0  0  0  0  0  0  0  0  0  0  0  0
   57.7780   31.6090   42.7490 C   0  0  0  0  0  0  0  0  0  0  0  0
   56.6520   30.9630   42.2340 C   0  0  0  0  0  0  0  0  0  0  0  0
   55.8670   30.1570   43.0620 C   0  0  0  0  0  0  0  0  0  0  0  0
   56.1990   30.0070   44.4140 C   0  0  0  0  0  0  0  0  0  0  0  0
   55.4130   29.1980   45.2270 O   0  0  0  0  0  0  0  0  0  0  0  0
   57.5090   27.5410   46.5280 C   0  0  0  0  0  0  0  0  0  0  0  0
   55.1370   27.2430   46.0430 H   0  0  0  0  0  0  0  0  0  0  0  0
   58.8443   24.4003   46.7487 H   0  0  0  0  0  0  0  0  0  0  0  0
   60.9073   25.7432   47.1544 H   0  0  0  0  0  0  0  0  0  0  0  0
   60.7953   28.2354   47.1838 H   0  0  0  0  0  0  0  0  0  0  0  0
   59.4671   30.3140   47.2787 H   0  0  0  0  0  0  0  0  0  0  0  0
   59.0162   31.9482   44.4948 H   0  0  0  0  0  0  0  0  0  0  0  0
   58.3991   32.2375   42.0939 H   0  0  0  0  0  0  0  0  0  0  0  0
   56.3829   31.0890   41.1749 H   0  0  0  0  0  0  0  0  0  0  0  0
   54.9873   29.6397   42.6515 H   0  0  0  0  0  0  0  0  0  0  0  0
   56.5574   28.0478   46.3100 H   0  0  0  0  0  0  0  0  0  0  0  0
  1  2  1  0
  2  3  2  0
  2  4  2  0
  2  5  1  0
  5  6  2  0
  6  7  1  0
  7  8  2  0
  8  9  1  0
  9 10  1  0
 10 11  2  3
 11 12  1  0
 12 13  2  0
 13 14  1  0
 14 15  2  0
 15 16  1  0
 16 17  2  0
 17 18  1  0
  9 19  2  0
 19  5  1  0
 17 12  1  0
  1 20  1  0
  6 21  1  0
  7 22  1  0
  8 23  1  0
 10 24  1  0
 13 25  1  0
 14 26  1  0
 15 27  1  0
 16 28  1  0
 19 29  1  0
M  CHG  2   1  -1  18  -1
M  END
>  <UniqueID>  (5) 
5

>  <SMILES>  (5) 
[NH-]S(=O)(=O)c1cccc(C=Nc2ccccc2[O-])c1

>  <Energy>  (5) 
39.96578146476319

>  <Genealogy>  (5) 
[NH-]S(=O)(=O)c1cccc(C=Nc2ccccc2[O-])c1 (protonated)
[NH-]S(=O)(=O)c1cccc(C=Nc2ccccc2[O-])c1 (3D coordinates assigned)
[NH-]S(=O)(=O)c1cccc(C=Nc2ccccc2[O-])c1 (optimized conformer: 39.96578146476319 kcal/mol)

>  <smiles>  (5) 
NS(=O)(=O)c1cccc(C=Nc2ccccc2O)c1

>  <score_type>  (5) 
oracle

>  <origin>  (5) 
adg

>  <m_score__min__energy>  (5) 
-13.630000000000001

>  <m_primary>  (5) 
energy

$$$$
5:0
     RDKit          3D

 37 39  0  0  0  0  0  0  0  0999 V2000
   54.3910   29.2460   52.6420 O   0  0  0  0  0  0  0  0  0  0  0  0
   54.4300   30.3430   52.0200 C   0  0  0  0  0  0  0  0  0  0  0  0
   55.6790   31.0490   51.8860 N   0  0  0  0  0  0  0  0  0  0  0  0
   56.9020   30.6360   52.5200 C   0  0  0  0  0  0  0  0  0  0  0  0
   57.3760   29.3320   52.3140 C   0  0  0  0  0  0  0  0  0  0  0  0
   58.5750   28.9130   52.8960 C   0  0  0  0  0  0  0  0  0  0  0  0
   59.3250   29.7960   53.6880 C   0  0  0  0  0  0  0  0  0  0  0  0
   60.6350   29.3580   54.2820 C   0  0  0  0  0  0  0  0  0  0  0  0
   61.1650   28.1570   53.5460 C   0  0  0  0  0  0  0  0  0  0  0  0
   61.7970   28.3090   52.3030 C   0  0  0  0  0  0  0  0  0  0  0  0
   62.2510   27.1790   51.6190 C   0  0  0  0  0  0  0  0  0  0  0  0
   62.0700   25.9400   52.1520 N   0  0  0  0  0  0  0  0  0  0  0  0
   61.4510   25.7640   53.3500 C   0  0  0  0  0  0  0  0  0  0  0  0
   60.9830   26.8680   54.0670 C   0  0  0  0  0  0  0  0  0  0  0  0
   58.8720   31.1130   53.8650 C   0  0  0  0  0  0  0  0  0  0  0  0
   57.6720   31.5310   53.2820 C   0  0  0  0  0  0  0  0  0  0  0  0
   53.1770   30.8760   51.4320 C   0  0  0  0  0  0  0  0  0  0  0  0
   52.4900   31.9540   52.0160 C   0  0  0  0  0  0  0  0  0  0  0  0
   51.3150   32.4290   51.4250 C   0  0  0  0  0  0  0  0  0  0  0  0
   50.6290   33.4940   51.9960 O   0  0  0  0  0  0  0  0  0  0  0  0
   50.8440   31.8550   50.2870 N   0  0  0  0  0  0  0  0  0  0  0  0
   51.4900   30.8190   49.6900 C   0  0  0  0  0  0  0  0  0  0  0  0
   51.0220   30.3150   48.6360 O   0  0  0  0  0  0  0  0  0  0  0  0
   52.6680   30.3150   50.2470 C   0  0  0  0  0  0  0  0  0  0  0  0
   55.7300   31.8800   51.2590 H   0  0  0  0  0  0  0  0  0  0  0  0
   56.7993   28.6339   51.6894 H   0  0  0  0  0  0  0  0  0  0  0  0
   58.9330   27.8858   52.7326 H   0  0  0  0  0  0  0  0  0  0  0  0
   61.3614   30.1805   54.2056 H   0  0  0  0  0  0  0  0  0  0  0  0
   60.4786   29.0912   55.3376 H   0  0  0  0  0  0  0  0  0  0  0  0
   61.9341   29.3109   51.8701 H   0  0  0  0  0  0  0  0  0  0  0  0
   62.7556   27.2907   50.6480 H   0  0  0  0  0  0  0  0  0  0  0  0
   61.3185   24.7501   53.7555 H   0  0  0  0  0  0  0  0  0  0  0  0
   60.4757   26.7271   55.0328 H   0  0  0  0  0  0  0  0  0  0  0  0
   59.4641   31.8194   54.4653 H   0  0  0  0  0  0  0  0  0  0  0  0
   57.3285   32.5668   53.4206 H   0  0  0  0  0  0  0  0  0  0  0  0
   52.8749   32.4221   52.9340 H   0  0  0  0  0  0  0  0  0  0  0  0
   53.1959   29.4818   49.7601 H   0  0  0  0  0  0  0  0  0  0  0  0
  1  2  2  0
  2  3  1  0
  3  4  1  0
  4  5  2  0
  5  6  1  0
  6  7  2  0
  7  8  1  0
  8  9  1  0
  9 10  2  0
 10 11  1  0
 11 12  2  0
 12 13  1  0
 13 14  2  0
  7 15  1  0
 15 16  2  0
  2 17  1  0
 17 18  1  0
 18 19  2  0
 19 20  1  0
 19 21  1  0
 21 22  1  0
 22 23  2  0
 22 24  1  0
 16  4  1  0
 24 17  2  0
 14  9  1  0
  3 25  1  0
  5 26  1  0
  6 27  1  0
  8 28  1  0
  8 29  1  0
 10 30  1  0
 11 31  1  0
 13 32  1  0
 14 33  1  0
 15 34  1  0
 16 35  1  0
 18 36  1  0
 24 37  1  0
M  CHG  2  20  -1  21  -1
M  END
>  <UniqueID>  (6) 
6

>  <SMILES>  (6) 
O=C(Nc1ccc(Cc2ccncc2)cc1)c1cc([O-])[n-]c(=O)c1

>  <Energy>  (6) 
47.217482774105484

>  <Genealogy>  (6) 
O=C(Nc1ccc(Cc2ccncc2)cc1)c1cc([O-])[n-]c(=O)c1 (protonated)
O=C(Nc1ccc(Cc2ccncc2)cc1)c1cc([O-])[n-]c(=O)c1 (3D coordinates assigned)
O=C(Nc1ccc(Cc2ccncc2)cc1)c1cc([O-])[n-]c(=O)c1 (optimized conformer: 47.217482774105484 kcal/mol)

>  <smiles>  (6) 
O=C(Nc1ccc(Cc2ccncc2)cc1)c1cc(O)[nH]c(=O)c1

>  <score_type>  (6) 
oracle

>  <origin>  (6) 
adg

>  <m_score__min__energy>  (6) 
-14.119999999999999

>  <m_primary>  (6) 
energy

$$$$
6:0
     RDKit          3D

 37 38  0  0  0  0  0  0  0  0999 V2000
   60.2960   34.1860   49.2040 C   0  0  0  0  0  0  0  0  0  0  0  0
   60.3310   34.4090   47.7980 O   0  0  0  0  0  0  0  0  0  0  0  0
   59.5420   33.7190   46.8630 C   0  0  0  0  0  0  0  0  0  0  0  0
   58.6300   34.3820   46.0200 C   0  0  0  0  0  0  0  0  0  0  0  0
   57.8630   33.6640   45.1030 C   0  0  0  0  0  0  0  0  0  0  0  0
   57.9910   32.2710   45.0110 C   0  0  0  0  0  0  0  0  0  0  0  0
   57.1860   31.4940   44.0030 C   0  0  0  0  0  0  0  0  0  0  0  0
   55.9800   30.9520   44.6200 N   0  0  0  0  0  0  0  0  0  0  0  0
   55.5160   29.6160   44.4120 C   0  0  0  0  0  0  0  0  0  0  0  0
   54.6510   29.3990   43.5240 O   0  0  0  0  0  0  0  0  0  0  0  0
   55.9950   28.5500   45.2440 N   0  0  0  0  0  0  0  0  0  0  0  0
   57.3630   28.2120   45.5160 C   0  0  0  0  0  0  0  0  0  0  0  0
   57.7510   27.5490   46.6950 C   0  0  0  0  0  0  0  0  0  0  0  0
   59.0940   27.2200   46.9060 C   0  0  0  0  0  0  0  0  0  0  0  0
   60.0540   27.5360   45.9410 C   0  0  0  0  0  0  0  0  0  0  0  0
   59.6710   28.1740   44.7590 C   0  0  0  0  0  0  0  0  0  0  0  0
   58.3290   28.5030   44.5440 C   0  0  0  0  0  0  0  0  0  0  0  0
   58.8980   31.6060   45.8480 C   0  0  0  0  0  0  0  0  0  0  0  0
   59.6760   32.3240   46.7770 C   0  0  0  0  0  0  0  0  0  0  0  0
   60.5920   31.6890   47.6300 O   0  0  0  0  0  0  0  0  0  0  0  0
   60.5570   30.3060   47.9670 C   0  0  0  0  0  0  0  0  0  0  0  0
   60.4458   35.1402   49.7304 H   0  0  0  0  0  0  0  0  0  0  0  0
   59.3203   33.7620   49.4838 H   0  0  0  0  0  0  0  0  0  0  0  0
   61.0949   33.4835   49.4838 H   0  0  0  0  0  0  0  0  0  0  0  0
   58.5216   35.4747   46.0851 H   0  0  0  0  0  0  0  0  0  0  0  0
   57.1543   34.1931   44.4489 H   0  0  0  0  0  0  0  0  0  0  0  0
   56.9010   32.1608   43.1759 H   0  0  0  0  0  0  0  0  0  0  0  0
   57.7974   30.6611   43.6255 H   0  0  0  0  0  0  0  0  0  0  0  0
   56.9966   27.2890   47.4522 H   0  0  0  0  0  0  0  0  0  0  0  0
   59.3952   26.7114   47.8337 H   0  0  0  0  0  0  0  0  0  0  0  0
   61.1106   27.2825   46.1121 H   0  0  0  0  0  0  0  0  0  0  0  0
   60.4256   28.4178   43.9967 H   0  0  0  0  0  0  0  0  0  0  0  0
   58.0300   28.9933   43.6058 H   0  0  0  0  0  0  0  0  0  0  0  0
   59.0030   30.5132   45.7786 H   0  0  0  0  0  0  0  0  0  0  0  0
   60.5542   30.1952   49.0614 H   0  0  0  0  0  0  0  0  0  0  0  0
   59.6470   29.8499   47.5500 H   0  0  0  0  0  0  0  0  0  0  0  0
   61.4427   29.8045   47.5500 H   0  0  0  0  0  0  0  0  0  0  0  0
  1  2  1  0
  2  3  1  0
  3  4  2  0
  4  5  1  0
  5  6  2  0
  6  7  1  0
  7  8  1  0
  8  9  1  0
  9 10  2  0
  9 11  1  0
 11 12  1  0
 12 13  2  0
 13 14  1  0
 14 15  2  0
 15 16  1  0
 16 17  2  0
  6 18  1  0
 18 19  2  0
 19 20  1  0
 20 21  1  0
 19  3  1  0
 17 12  1  0
  1 22  1  0
  1 23  1  0
  1 24  1  0
  4 25  1  0
  5 26  1  0
  7 27  1  0
  7 28  1  0
 13 29  1  0
 14 30  1  0
 15 31  1  0
 16 32  1  0
 17 33  1  0
 18 34  1  0
 21 35  1  0
 21 36  1  0
 21 37  1  0
M  CHG  2   8  -1  11  -1
M  END
>  <UniqueID>  (7) 
7

>  <SMILES>  (7) 
COc1ccc(C[N-]C(=O)[N-]c2ccccc2)cc1OC

>  <Energy>  (7) 
36.40137840029569

>  <Genealogy>  (7) 
COc1ccc(C[N-]C(=O)[N-]c2ccccc2)cc1OC (protonated)
COc1ccc(C[N-]C(=O)[N-]c2ccccc2)cc1OC (3D coordinates assigned)
COc1ccc(C[N-]C(=O)[N-]c2ccccc2)cc1OC (optimized conformer: 36.40137840029569 kcal/mol)

>  <smiles>  (7) 
COc1ccc(CNC(=O)Nc2ccccc2)cc1OC

>  <score_type>  (7) 
oracle

>  <origin>  (7) 
adg

>  <m_score__min__energy>  (7) 
-10.31

>  <m_primary>  (7) 
energy

$$$$
7:0
     RDKit          3D

 46 48  0  0  0  0  0  0  0  0999 V2000
   59.9810   35.3440   45.9890 C   0  0  0  0  0  0  0  0  0  0  0  0
   59.0810   34.1970   45.6220 C   0  0  0  0  0  0  0  0  0  0  0  0
   58.9140   33.8340   44.2750 C   0  0  0  0  0  0  0  0  0  0  0  0
   58.0650   32.7800   43.9250 C   0  0  0  0  0  0  0  0  0  0  0  0
   57.3710   32.0710   44.9110 C   0  0  0  0  0  0  0  0  0  0  0  0
   56.5420   30.9660   44.5210 N   0  0  0  0  0  0  0  0  0  0  0  0
   56.6120   29.6140   45.0010 C   0  0  0  0  0  0  0  0  0  0  0  0
   55.5380   28.9770   45.1630 O   0  0  0  0  0  0  0  0  0  0  0  0
   57.9250   28.9500   45.3470 C   0  0  1  0  0  0  0  0  0  0  0  0
   58.6720   28.4610   44.1190 C   0  0  0  0  0  0  0  0  0  0  0  0
   60.1010   28.5160   44.5690 C   0  0  0  0  0  0  0  0  0  0  0  0
   60.0860   29.5470   45.6850 C   0  0  0  0  0  0  0  0  0  0  0  0
   58.7550   29.8560   46.0330 O   0  0  0  0  0  0  0  0  0  0  0  0
   57.5690   32.4050   46.2590 C   0  0  0  0  0  0  0  0  0  0  0  0
   58.3790   33.4930   46.6190 C   0  0  0  0  0  0  0  0  0  0  0  0
   58.5180   33.8540   48.0000 N   0  0  0  0  0  0  0  0  0  0  0  0
   59.0290   32.9530   48.9890 C   0  0  0  0  0  0  0  0  0  0  0  0
   58.4050   31.8910   49.2570 O   0  0  0  0  0  0  0  0  0  0  0  0
   60.3160   33.2520   49.6870 C   0  0  0  0  0  0  0  0  0  0  0  0
   61.4710   33.0130   48.7440 C   0  0  0  0  0  0  0  0  0  0  0  0
   62.4970   33.9740   48.6730 C   0  0  0  0  0  0  0  0  0  0  0  0
   63.6170   33.7590   47.8650 C   0  0  0  0  0  0  0  0  0  0  0  0
   63.7300   32.5830   47.1220 C   0  0  0  0  0  0  0  0  0  0  0  0
   62.7270   31.6170   47.1900 C   0  0  0  0  0  0  0  0  0  0  0  0
   61.6030   31.8110   48.0040 C   0  0  0  0  0  0  0  0  0  0  0  0
   60.6520   30.7890   48.0570 O   0  0  0  0  0  0  0  0  0  0  0  0
   60.0442   35.4246   47.0842 H   0  0  0  0  0  0  0  0  0  0  0  0
   60.9852   35.1689   45.5756 H   0  0  0  0  0  0  0  0  0  0  0  0
   59.5720   36.2778   45.5756 H   0  0  0  0  0  0  0  0  0  0  0  0
   59.4551   34.3830   43.4903 H   0  0  0  0  0  0  0  0  0  0  0  0
   57.9418   32.5063   42.8667 H   0  0  0  0  0  0  0  0  0  0  0  0
   57.6815   28.0807   45.9755 H   0  0  0  0  0  0  0  0  0  0  0  0
   58.3767   27.4345   43.8560 H   0  0  0  0  0  0  0  0  0  0  0  0
   58.4720   29.0570   43.2164 H   0  0  0  0  0  0  0  0  0  0  0  0
   60.4324   27.5364   44.9440 H   0  0  0  0  0  0  0  0  0  0  0  0
   60.7948   28.7767   43.7562 H   0  0  0  0  0  0  0  0  0  0  0  0
   60.6083   29.1412   46.5639 H   0  0  0  0  0  0  0  0  0  0  0  0
   60.5927   30.4609   45.3415 H   0  0  0  0  0  0  0  0  0  0  0  0
   57.0832   31.8065   47.0438 H   0  0  0  0  0  0  0  0  0  0  0  0
   60.3205   34.3027   50.0124 H   0  0  0  0  0  0  0  0  0  0  0  0
   60.4177   32.5948   50.5632 H   0  0  0  0  0  0  0  0  0  0  0  0
   62.4167   34.9019   49.2583 H   0  0  0  0  0  0  0  0  0  0  0  0
   64.4112   34.5184   47.8146 H   0  0  0  0  0  0  0  0  0  0  0  0
   64.6101   32.4183   46.4830 H   0  0  0  0  0  0  0  0  0  0  0  0
   62.8189   30.6938   46.5990 H   0  0  0  0  0  0  0  0  0  0  0  0
   59.6910   30.9100   47.7730 H   0  0  0  0  0  0  0  0  0  0  0  0
  1  2  1  0
  2  3  2  0
  3  4  1  0
  4  5  2  0
  5  6  1  0
  6  7  1  0
  7  8  2  0
  7  9  1  0
  9 10  1  0
 10 11  1  0
 11 12  1  0
 12 13  1  0
  5 14  1  0
 14 15  2  0
 15 16  1  0
 16 17  1  0
 17 18  2  0
 17 19  1  0
 19 20  1  0
 20 21  2  0
 21 22  1  0
 22 23  2  0
 23 24  1  0
 24 25  2  0
 25 26  1  0
 15  2  1  0
 25 20  1  0
 13  9  1  0
  1 27  1  0
  1 28  1  0
  1 29  1  0
  3 30  1  0
  4 31  1  0
  9 32  1  1
 10 33  1  0
 10 34  1  0
 11 35  1  0
 11 36  1  0
 12 37  1  0
 12 38  1  0
 14 39  1  0
 19 40  1  0
 19 41  1  0
 21 42  1  0
 22 43  1  0
 23 44  1  0
 24 45  1  0
 26 46  1  0
M  CHG  2   6  -1  16  -1
M  END
>  <UniqueID>  (8) 
8

>  <SMILES>  (8) 
Cc1ccc([N-]C(=O)[C@H]2CCCO2)cc1[N-]C(=O)Cc1ccccc1O

>  <Energy>  (8) 
53.82094274859493

>  <Genealogy>  (8) 
Cc1ccc([N-]C(=O)C2CCCO2)cc1[N-]C(=O)Cc1ccccc1O (protonated)
Cc1ccc([N-]C(=O)[C@H]2CCCO2)cc1[N-]C(=O)Cc1ccccc1O (chirality)
Cc1ccc([N-]C(=O)[C@H]2CCCO2)cc1[N-]C(=O)Cc1ccccc1O (3D coordinates assigned)
Cc1ccc([N-]C(=O)[C@H]2CCCO2)cc1[N-]C(=O)Cc1ccccc1O (nonaromatic ring conformer: 53.82094274859493 kcal/mol)

>  <smiles>  (8) 
Cc1ccc(NC(=O)C2CCCO2)cc1NC(=O)Cc1ccccc1O

>  <score_type>  (8) 
oracle

>  <origin>  (8) 
adg

>  <m_score__min__energy>  (8) 
-11.859999999999999

>  <m_primary>  (8) 
energy

$$$$
8:0
     RDKit          3D

 57 61  0  0  0  0  0  0  0  0999 V2000
   53.3390   25.8630   53.7930 O   0  0  0  0  0  0  0  0  0  0  0  0
   53.7800   27.0370   53.6430 C   0  0  0  0  0  0  0  0  0  0  0  0
   52.8850   28.0850   53.4380 C   0  0  0  0  0  0  0  0  0  0  0  0
   53.3780   29.3890   53.2720 C   0  0  0  0  0  0  0  0  0  0  0  0
   52.4740   30.5530   53.0770 C   0  0  0  0  0  0  0  0  0  0  0  0
   51.7330   31.1080   54.1380 C   0  0  0  0  0  0  0  0  0  0  0  0
   50.8950   32.2050   53.9170 C   0  0  0  0  0  0  0  0  0  0  0  0
   50.7780   32.7560   52.6380 C   0  0  0  0  0  0  0  0  0  0  0  0
   49.9400   33.8440   52.4280 O   0  0  0  0  0  0  0  0  0  0  0  0
   51.5010   32.2090   51.5750 C   0  0  0  0  0  0  0  0  0  0  0  0
   51.3910   32.7550   50.3010 O   0  0  0  0  0  0  0  0  0  0  0  0
   52.3400   31.1110   51.7930 C   0  0  0  0  0  0  0  0  0  0  0  0
   54.6920   29.6020   53.3130 O   0  0  0  0  0  0  0  0  0  0  0  0
   55.5870   28.6380   53.5170 C   0  0  0  0  0  0  0  0  0  0  0  0
   56.9600   28.9560   53.5790 C   0  0  0  0  0  0  0  0  0  0  0  0
   57.4110   30.3890   53.3820 C   0  0  0  0  0  0  0  0  0  0  0  0
   58.0930   30.5440   52.0830 N   0  0  0  0  0  0  0  0  0  0  0  0
   59.4800   31.0140   52.2670 C   0  0  0  0  0  0  0  0  0  0  0  0
   60.1980   31.1380   50.9060 C   0  0  0  0  0  0  0  0  0  0  0  0
   59.2970   30.7580   49.8000 N   0  0  0  0  0  0  0  0  0  0  0  0
   59.9950   30.8610   48.5030 C   0  0  0  0  0  0  0  0  0  0  0  0
   59.5750   32.1180   47.7760 C   0  0  0  0  0  0  0  0  0  0  0  0
   60.0310   33.3570   48.2580 C   0  0  0  0  0  0  0  0  0  0  0  0
   59.7040   34.5450   47.5990 C   0  0  0  0  0  0  0  0  0  0  0  0
   58.9150   34.5100   46.4500 C   0  0  0  0  0  0  0  0  0  0  0  0
   58.4570   33.2870   45.9550 C   0  0  0  0  0  0  0  0  0  0  0  0
   58.7830   32.0880   46.6040 C   0  0  0  0  0  0  0  0  0  0  0  0
   58.1370   30.4540   45.8280 Br  0  0  0  0  0  0  0  0  0  0  0  0
   58.0810   31.5980   49.8340 C   0  0  0  0  0  0  0  0  0  0  0  0
   57.3650   31.4720   51.1940 C   0  0  0  0  0  0  0  0  0  0  0  0
   57.8940   27.9290   53.8260 C   0  0  0  0  0  0  0  0  0  0  0  0
   59.2560   28.2120   53.9090 O   0  0  0  0  0  0  0  0  0  0  0  0
   57.4630   26.6090   53.9940 C   0  0  0  0  0  0  0  0  0  0  0  0
   58.3890   25.6000   54.2380 O   0  0  0  0  0  0  0  0  0  0  0  0
   56.1030   26.2940   53.9230 C   0  0  0  0  0  0  0  0  0  0  0  0
   55.1580   27.3040   53.6910 C   0  0  0  0  0  0  0  0  0  0  0  0
   51.8024   27.8925   53.4065 H   0  0  0  0  0  0  0  0  0  0  0  0
   51.8140   30.6760   55.1464 H   0  0  0  0  0  0  0  0  0  0  0  0
   50.3253   32.6363   54.7533 H   0  0  0  0  0  0  0  0  0  0  0  0
   52.9010   30.6794   50.9510 H   0  0  0  0  0  0  0  0  0  0  0  0
   56.5334   31.0516   53.4111 H   0  0  0  0  0  0  0  0  0  0  0  0
   58.1139   30.6536   54.1857 H   0  0  0  0  0  0  0  0  0  0  0  0
   59.4659   31.9977   52.7590 H   0  0  0  0  0  0  0  0  0  0  0  0
   60.0215   30.2851   52.8879 H   0  0  0  0  0  0  0  0  0  0  0  0
   60.5238   32.1790   50.7639 H   0  0  0  0  0  0  0  0  0  0  0  0
   61.0649   30.4609   50.9023 H   0  0  0  0  0  0  0  0  0  0  0  0
   61.0808   30.8888   48.6771 H   0  0  0  0  0  0  0  0  0  0  0  0
   59.7328   29.9883   47.8868 H   0  0  0  0  0  0  0  0  0  0  0  0
   60.6527   33.3919   49.1648 H   0  0  0  0  0  0  0  0  0  0  0  0
   60.0690   35.5076   47.9866 H   0  0  0  0  0  0  0  0  0  0  0  0
   58.6533   35.4453   45.9336 H   0  0  0  0  0  0  0  0  0  0  0  0
   57.8351   33.2644   45.0480 H   0  0  0  0  0  0  0  0  0  0  0  0
   58.3639   32.6485   49.6716 H   0  0  0  0  0  0  0  0  0  0  0  0
   57.3963   31.2586   49.0428 H   0  0  0  0  0  0  0  0  0  0  0  0
   57.3152   32.4629   51.6691 H   0  0  0  0  0  0  0  0  0  0  0  0
   56.3518   31.0785   51.0252 H   0  0  0  0  0  0  0  0  0  0  0  0
   55.7734   25.2522   54.0493 H   0  0  0  0  0  0  0  0  0  0  0  0
  1  2  2  0
  2  3  1  0
  3  4  2  0
  4  5  1  0
  5  6  2  0
  6  7  1  0
  7  8  2  0
  8  9  1  0
  8 10  1  0
 10 11  1  0
 10 12  2  0
  4 13  1  0
 13 14  1  0
 14 15  2  0
 15 16  1  0
 16 17  1  0
 17 18  1  0
 18 19  1  0
 19 20  1  0
 20 21  1  0
 21 22  1  0
 22 23  2  0
 23 24  1  0
 24 25  2  0
 25 26  1  0
 26 27  2  0
 27 28  1  0
 20 29  1  0
 29 30  1  0
 15 31  1  0
 31 32  1  0
 31 33  2  0
 33 34  1  0
 33 35  1  0
 35 36  2  0
 36  2  1  0
 12  5  1  0
 36 14  1  0
 30 17  1  0
 27 22  1  0
  3 37  1  0
  6 38  1  0
  7 39  1  0
 12 40  1  0
 16 41  1  0
 16 42  1  0
 18 43  1  0
 18 44  1  0
 19 45  1  0
 19 46  1  0
 21 47  1  0
 21 48  1  0
 23 49  1  0
 24 50  1  0
 25 51  1  0
 26 52  1  0
 29 53  1  0
 29 54  1  0
 30 55  1  0
 30 56  1  0
 35 57  1  0
M  CHG  4   9  -1  11  -1  32  -1  34  -1
M  END
>  <UniqueID>  (9) 
9

>  <SMILES>  (9) 
O=c1cc(-c2ccc([O-])c([O-])c2)oc2c(CN3CCN(Cc4ccccc4Br)CC3)c([O-])c([O-])cc12

>  <Energy>  (9) 
79.60311901849019

>  <Genealogy>  (9) 
O=c1cc(-c2ccc([O-])c([O-])c2)oc2c(CN3CCN(Cc4ccccc4Br)CC3)c([O-])c([O-])cc12 (protonated)
O=c1cc(-c2ccc([O-])c([O-])c2)oc2c(CN3CCN(Cc4ccccc4Br)CC3)c([O-])c([O-])cc12 (3D coordinates assigned)
O=c1cc(-c2ccc([O-])c([O-])c2)oc2c(CN3CCN(Cc4ccccc4Br)CC3)c([O-])c([O-])cc12 (nonaromatic ring conformer: 79.60311901849019 kcal/mol)

>  <smiles>  (9) 
O=c1cc(-c2ccc(O)c(O)c2)oc2c(CN3CCN(Cc4ccccc4Br)CC3)c(O)c(O)cc12

>  <score_type>  (9) 
oracle

>  <origin>  (9) 
adg

>  <m_score__min__energy>  (9) 
-19.739999999999998

>  <m_primary>  (9) 
energy

$$$$
9:0
     RDKit          3D

 47 49  0  0  0  0  0  0  0  0999 V2000
   57.2051   20.5465   45.6063 H   0  0  0  0  0  0  0  0  0  0  0  0
   57.0770   21.6150   45.8340 C   0  0  0  0  0  0  0  0  0  0  0  0
   57.5620   22.4770   44.9860 N   0  0  0  0  0  0  0  0  0  0  0  0
   56.9380   22.9570   43.7880 C   0  0  0  0  0  0  0  0  0  0  0  0
   56.2070   22.1740   43.1230 O   0  0  0  0  0  0  0  0  0  0  0  0
   57.0160   24.4050   43.3930 C   0  0  0  0  0  0  0  0  0  0  0  0
   57.3531   24.4774   42.3484 H   0  0  0  0  0  0  0  0  0  0  0  0
   56.0193   24.8574   43.5026 H   0  0  0  0  0  0  0  0  0  0  0  0
   58.0010   25.1550   44.2930 C   0  0  0  0  0  0  0  0  0  0  0  0
   57.9815   24.7114   45.2994 H   0  0  0  0  0  0  0  0  0  0  0  0
   59.0096   25.0733   43.8617 H   0  0  0  0  0  0  0  0  0  0  0  0
   57.6280   26.6110   44.3860 C   0  0  0  0  0  0  0  0  0  0  0  0
   57.1920   27.1560   45.6040 C   0  0  0  0  0  0  0  0  0  0  0  0
   57.1016   26.5110   46.4904 H   0  0  0  0  0  0  0  0  0  0  0  0
   56.8720   28.5140   45.6970 C   0  0  0  0  0  0  0  0  0  0  0  0
   56.5080   28.9271   46.6493 H   0  0  0  0  0  0  0  0  0  0  0  0
   57.0140   29.3550   44.5760 C   0  0  0  0  0  0  0  0  0  0  0  0
   56.6670   30.7500   44.6160 N   0  0  0  0  0  0  0  0  0  0  0  0
   57.3530   31.7070   45.1700 C   0  0  0  0  0  0  0  0  0  0  0  0
   57.9160   31.6190   46.4070 N   0  0  0  0  0  0  0  0  0  0  0  0
   58.5380   32.8060   46.5270 C   0  0  0  0  0  0  0  0  0  0  0  0
   59.2830   33.2720   47.6080 C   0  0  0  0  0  0  0  0  0  0  0  0
   59.4234   32.6581   48.5099 H   0  0  0  0  0  0  0  0  0  0  0  0
   59.8500   34.5570   47.5050 C   0  0  0  0  0  0  0  0  0  0  0  0
   60.4452   34.9593   48.3380 H   0  0  0  0  0  0  0  0  0  0  0  0
   59.6600   35.3340   46.3390 C   0  0  0  0  0  0  0  0  0  0  0  0
   60.1067   36.3369   46.2712 H   0  0  0  0  0  0  0  0  0  0  0  0
   58.9020   34.8310   45.2640 C   0  0  0  0  0  0  0  0  0  0  0  0
   58.7469   35.4218   44.3492 H   0  0  0  0  0  0  0  0  0  0  0  0
   58.3560   33.5570   45.4030 C   0  0  0  0  0  0  0  0  0  0  0  0
   57.6100   32.8720   44.5280 N   0  0  0  0  0  0  0  0  0  0  0  0
   57.3010   33.1650   43.5730 H   0  0  0  0  0  0  0  0  0  0  0  0
   57.4330   28.8040   43.3580 C   0  0  0  0  0  0  0  0  0  0  0  0
   57.5124   29.4452   42.4677 H   0  0  0  0  0  0  0  0  0  0  0  0
   57.7510   27.4460   43.2650 C   0  0  0  0  0  0  0  0  0  0  0  0
   58.0994   27.0298   42.3082 H   0  0  0  0  0  0  0  0  0  0  0  0
   56.3670   21.9710   47.0800 C   0  0  0  0  0  0  0  0  0  0  0  0
   56.9240   21.8410   48.2050 O   0  0  0  0  0  0  0  0  0  0  0  0
   55.0060   22.4130   46.9910 N   0  0  0  0  0  0  0  0  0  0  0  0
   54.3620   22.5590   45.8740 C   0  0  0  0  0  0  0  0  0  0  0  0
   54.1930   21.6953   45.2142 H   0  0  0  0  0  0  0  0  0  0  0  0
   53.8510   23.9130   45.4910 C   0  0  0  0  0  0  0  0  0  0  0  0
   52.8704   24.0749   45.9624 H   0  0  0  0  0  0  0  0  0  0  0  0
   53.7618   23.9590   44.3956 H   0  0  0  0  0  0  0  0  0  0  0  0
   54.7930   24.9830   45.9400 C   0  0  0  0  0  0  0  0  0  0  0  0
   55.9450   24.6830   46.3500 O   0  0  0  0  0  0  0  0  0  0  0  0
   54.4140   26.3180   45.8690 O   0  0  0  0  0  0  0  0  0  0  0  0
  1  2  1  0
  2  3  2  3
  3  4  1  0
  4  5  2  0
  4  6  1  0
  6  7  1  0
  6  8  1  0
  6  9  1  0
  9 10  1  0
  9 11  1  0
  9 12  1  0
 12 13  2  0
 13 14  1  0
 13 15  1  0
 15 16  1  0
 15 17  2  0
 17 18  1  0
 18 19  2  3
 19 20  1  0
 20 21  1  0
 21 22  2  0
 22 23  1  0
 22 24  1  0
 24 25  1  0
 24 26  2  0
 26 27  1  0
 26 28  1  0
 28 29  1  0
 28 30  2  0
 30 31  1  0
 31 32  1  0
 17 33  1  0
 33 34  1  0
 33 35  2  0
 35 36  1  0
  2 37  1  0
 37 38  2  0
 37 39  1  0
 39 40  2  0
 40 41  1  0
 40 42  1  0
 42 43  1  0
 42 44  1  0
 42 45  1  0
 45 46  2  0
 45 47  1  0
 35 12  1  0
 31 19  1  0
 30 21  1  0
M  CHG  2  20  -1  47  -1
M  END
>  <UniqueID>  (10) 
10

>  <SMILES>  (10) 
O=C([O-])C/C=N/C(=O)C=NC(=O)CCc1ccc(N=c2[n-]c3ccccc3[nH]2)cc1

>  <Energy>  (10) 
94.04267695547128

>  <Genealogy>  (10) 
O=C([O-])CC=NC(=O)C=NC(=O)CCc1ccc(N=c2[n-]c3ccccc3[nH]2)cc1 (protonated)
O=C([O-])C/C=N/C(=O)C=NC(=O)CCc1ccc(N=c2[n-]c3ccccc3[nH]2)cc1 (cis-trans isomerization)
O=C([O-])C/C=N/C(=O)C=NC(=O)CCc1ccc(N=c2[n-]c3ccccc3[nH]2)cc1 (3D coordinates assigned)
O=C([O-])C/C=N/C(=O)C=NC(=O)CCc1ccc(N=c2[n-]c3ccccc3[nH]2)cc1 (optimized conformer: 94.04267695547128 kcal/mol)

>  <smiles>  (10) 
O=C(O)CC=NC(=O)C=NC(=O)CCc1ccc(N=c2[nH]c3ccccc3[nH]2)cc1

>  <score_type>  (10) 
oracle

>  <origin>  (10) 
adg

>  <m_score__min__energy>  (10) 
-13.27

>  <m_primary>  (10) 
energy

$$$$
10:0
     RDKit          3D

 53 56  0  0  0  0  0  0  0  0999 V2000
   56.5126   34.4964   45.3304 H   0  0  0  0  0  0  0  0  0  0  0  0
   57.3880   33.8980   45.6230 C   0  0  0  0  0  0  0  0  0  0  0  0
   57.3100   32.5060   45.6260 C   0  0  0  0  0  0  0  0  0  0  0  0
   56.3755   32.0077   45.3287 H   0  0  0  0  0  0  0  0  0  0  0  0
   58.4170   31.7430   46.0060 C   0  0  0  0  0  0  0  0  0  0  0  0
   58.3531   30.6450   45.9892 H   0  0  0  0  0  0  0  0  0  0  0  0
   59.6130   32.3650   46.4100 C   0  0  0  0  0  0  0  0  0  0  0  0
   59.7030   33.7810   46.3630 C   0  0  0  0  0  0  0  0  0  0  0  0
   58.5760   34.5340   45.9910 C   0  0  0  0  0  0  0  0  0  0  0  0
   58.6299   35.6327   45.9896 H   0  0  0  0  0  0  0  0  0  0  0  0
   60.9580   34.5100   46.7800 C   0  0  0  0  0  0  0  0  0  0  0  0
   60.8342   34.8642   47.8140 H   0  0  0  0  0  0  0  0  0  0  0  0
   61.1075   35.3480   46.0833 H   0  0  0  0  0  0  0  0  0  0  0  0
   62.1990   33.6170   46.7110 C   0  0  0  0  0  0  0  0  0  0  0  0
   63.0473   34.1357   47.1814 H   0  0  0  0  0  0  0  0  0  0  0  0
   62.4303   33.4019   45.6573 H   0  0  0  0  0  0  0  0  0  0  0  0
   61.9400   32.3030   47.4450 C   0  0  0  0  0  0  0  0  0  0  0  0
   61.6435   32.5213   48.4815 H   0  0  0  0  0  0  0  0  0  0  0  0
   62.8614   31.7024   47.4289 H   0  0  0  0  0  0  0  0  0  0  0  0
   60.8190   31.5050   46.7570 C   0  0  1  0  0  0  0  0  0  0  0  0
   61.2110   31.1218   45.8033 H   0  0  0  0  0  0  0  0  0  0  0  0
   60.4220   30.3940   47.6300 N   0  0  0  0  0  0  0  0  0  0  0  0
   60.6610   29.4200   47.3350 H   0  0  0  0  0  0  0  0  0  0  0  0
   59.5910   30.5820   48.7850 C   0  0  0  0  0  0  0  0  0  0  0  0
   59.1910   31.7380   49.1000 O   0  0  0  0  0  0  0  0  0  0  0  0
   59.2070   29.4050   49.6370 C   0  0  2  0  0  0  0  0  0  0  0  0
   58.1434   29.1944   49.4514 H   0  0  0  0  0  0  0  0  0  0  0  0
   59.5070   29.7940   51.3900 S   0  0  0  0  0  0  0  0  0  0  0  0
   60.1190   28.1140   51.7210 C   0  0  0  0  0  0  0  0  0  0  0  0
   59.2849   27.4750   52.0467 H   0  0  0  0  0  0  0  0  0  0  0  0
   60.8805   28.1451   52.5142 H   0  0  0  0  0  0  0  0  0  0  0  0
   60.7270   27.5490   50.4460 C   0  0  0  0  0  0  0  0  0  0  0  0
   60.5792   26.4596   50.4078 H   0  0  0  0  0  0  0  0  0  0  0  0
   61.8087   27.7451   50.4072 H   0  0  0  0  0  0  0  0  0  0  0  0
   60.0250   28.2030   49.2980 C   0  0  0  0  0  0  0  0  0  0  0  0
   60.1500   27.8150   48.0590 N   0  0  0  0  0  0  0  0  0  0  0  0
   59.0990   27.2560   47.2580 C   0  0  0  0  0  0  0  0  0  0  0  0
   58.7250   26.0750   47.4890 O   0  0  0  0  0  0  0  0  0  0  0  0
   58.4970   28.0170   46.1370 C   0  0  0  0  0  0  0  0  0  0  0  0
   59.3180   28.6330   45.1760 C   0  0  0  0  0  0  0  0  0  0  0  0
   60.4117   28.5496   45.2588 H   0  0  0  0  0  0  0  0  0  0  0  0
   58.7560   29.3500   44.1170 C   0  0  0  0  0  0  0  0  0  0  0  0
   59.4096   29.8229   43.3692 H   0  0  0  0  0  0  0  0  0  0  0  0
   57.3580   29.4710   44.0010 C   0  0  0  0  0  0  0  0  0  0  0  0
   56.7510   30.1820   42.9540 O   0  0  0  0  0  0  0  0  0  0  0  0
   57.2480   31.4030   42.4160 C   0  0  0  0  0  0  0  0  0  0  0  0
   57.5237   32.0804   43.2377 H   0  0  0  0  0  0  0  0  0  0  0  0
   58.1340   31.1974   41.7973 H   0  0  0  0  0  0  0  0  0  0  0  0
   56.4703   31.8746   41.7973 H   0  0  0  0  0  0  0  0  0  0  0  0
   56.5390   28.8640   44.9630 C   0  0  0  0  0  0  0  0  0  0  0  0
   55.1560   28.9780   44.8700 O   0  0  0  0  0  0  0  0  0  0  0  0
   57.1020   28.1470   46.0220 C   0  0  0  0  0  0  0  0  0  0  0  0
   56.4475   27.6799   46.7727 H   0  0  0  0  0  0  0  0  0  0  0  0
  1  2  1  0
  2  3  2  0
  3  4  1  0
  3  5  1  0
  5  6  1  0
  5  7  2  0
  7  8  1  0
  8  9  2  0
  9 10  1  0
  8 11  1  0
 11 12  1  0
 11 13  1  0
 11 14  1  0
 14 15  1  0
 14 16  1  0
 14 17  1  0
 17 18  1  0
 17 19  1  0
 17 20  1  0
 20 21  1  6
 20 22  1  0
 22 23  1  0
 22 24  1  0
 24 25  2  0
 24 26  1  0
 26 27  1  1
 26 28  1  0
 28 29  1  0
 29 30  1  0
 29 31  1  0
 29 32  1  0
 32 33  1  0
 32 34  1  0
 32 35  1  0
 35 36  2  0
 36 37  1  0
 37 38  2  0
 37 39  1  0
 39 40  2  0
 40 41  1  0
 40 42  1  0
 42 43  1  0
 42 44  2  0
 44 45  1  0
 45 46  1  0
 46 47  1  0
 46 48  1  0
 46 49  1  0
 44 50  1  0
 50 51  1  0
 50 52  2  0
 52 53  1  0
  9  2  1  0
 35 26  1  0
 52 39  1  0
 20  7  1  0
M  CHG  1  51  -1
M  END
>  <UniqueID>  (11) 
11

>  <SMILES>  (11) 
COc1ccc(C(=O)/N=C2\CCS[C@H]2C(=O)N[C@@H]2CCCc3ccccc32)cc1[O-]

>  <Energy>  (11) 
57.44099149704445

>  <Genealogy>  (11) 
COc1ccc(C(=O)N=C2CCSC2C(=O)NC2CCCc3ccccc32)cc1[O-] (protonated)
COc1ccc(C(=O)N=C2CCS[C@H]2C(=O)N[C@@H]2CCCc3ccccc32)cc1[O-] (chirality)
COc1ccc(C(=O)/N=C2\CCS[C@H]2C(=O)N[C@@H]2CCCc3ccccc32)cc1[O-] (cis-trans isomerization)
COc1ccc(C(=O)/N=C2\CCS[C@H]2C(=O)N[C@@H]2CCCc3ccccc32)cc1[O-] (3D coordinates assigned)
COc1ccc(C(=O)/N=C2\CCS[C@H]2C(=O)N[C@@H]2CCCc3ccccc32)cc1[O-] (nonaromatic ring conformer: 57.44099149704445 kcal/mol)

>  <smiles>  (11) 
COc1ccc(C(=O)N=C2CCSC2C(=O)NC2CCCc3ccccc32)cc1O

>  <score_type>  (11) 
oracle

>  <origin>  (11) 
adg

>  <m_score__min__energy>  (11) 
-12.699999999999999

>  <m_primary>  (11) 
energy

$$$$
11:0
     RDKit          3D

 49 51  0  0  0  0  0  0  0  0999 V2000
   60.9390   29.7840   50.6410 O   0  0  0  0  0  0  0  0  0  0  0  0
   60.7250   29.8010   49.3980 C   0  0  0  0  0  0  0  0  0  0  0  0
   59.5340   29.0910   48.8380 C   0  0  0  0  0  0  0  0  0  0  0  0
   59.0350   29.7890   47.6480 N   0  0  0  0  0  0  0  0  0  0  0  0
   58.6040   28.6630   46.3900 S   0  0  0  0  0  0  0  0  0  0  0  0
   57.6280   27.6480   46.9140 O   0  0  0  0  0  0  0  0  0  0  0  0
   59.8440   27.9670   45.8980 O   0  0  0  0  0  0  0  0  0  0  0  0
   57.8530   29.5220   45.0460 C   0  0  0  0  0  0  0  0  0  0  0  0
   58.5370   30.5680   44.4060 C   0  0  0  0  0  0  0  0  0  0  0  0
   57.9380   31.2560   43.3460 C   0  0  0  0  0  0  0  0  0  0  0  0
   56.6520   30.9100   42.9240 C   0  0  0  0  0  0  0  0  0  0  0  0
   55.9610   29.8780   43.5630 C   0  0  0  0  0  0  0  0  0  0  0  0
   56.5550   29.1860   44.6240 C   0  0  0  0  0  0  0  0  0  0  0  0
   55.8620   28.1960   45.2410 F   0  0  0  0  0  0  0  0  0  0  0  0
   61.6270   30.4650   48.5070 N   0  0  0  0  0  0  0  0  0  0  0  0
   62.0190   31.6940   48.6360 C   0  0  0  0  0  0  0  0  0  0  0  0
   61.3320   32.7820   47.9160 C   0  0  0  0  0  0  0  0  0  0  0  0
   61.9830   33.4440   47.0660 O   0  0  0  0  0  0  0  0  0  0  0  0
   59.9320   33.0760   48.1290 N   0  0  0  0  0  0  0  0  0  0  0  0
   59.1140   33.4890   47.0130 C   0  0  0  0  0  0  0  0  0  0  0  0
   59.6080   34.4010   46.0630 C   0  0  0  0  0  0  0  0  0  0  0  0
   58.8100   34.8060   44.9890 C   0  0  0  0  0  0  0  0  0  0  0  0
   57.5130   34.3050   44.8520 C   0  0  0  0  0  0  0  0  0  0  0  0
   57.0110   33.3990   45.7900 C   0  0  0  0  0  0  0  0  0  0  0  0
   57.8060   32.9920   46.8670 C   0  0  0  0  0  0  0  0  0  0  0  0
   59.3550   32.9970   49.4500 C   0  0  0  0  0  0  0  0  0  0  0  0
   59.7780   33.8730   50.4630 C   0  0  0  0  0  0  0  0  0  0  0  0
   59.1970   33.8180   51.7330 C   0  0  0  0  0  0  0  0  0  0  0  0
   58.1920   32.8870   52.0030 C   0  0  0  0  0  0  0  0  0  0  0  0
   57.7670   32.0070   51.0040 C   0  0  0  0  0  0  0  0  0  0  0  0
   58.3470   32.0580   49.7330 C   0  0  0  0  0  0  0  0  0  0  0  0
   59.8199   28.0650   48.5631 H   0  0  0  0  0  0  0  0  0  0  0  0
   58.7401   29.0712   49.5991 H   0  0  0  0  0  0  0  0  0  0  0  0
   59.8190   30.3670   47.2670 H   0  0  0  0  0  0  0  0  0  0  0  0
   59.5474   30.8472   44.7395 H   0  0  0  0  0  0  0  0  0  0  0  0
   58.4802   32.0708   42.8438 H   0  0  0  0  0  0  0  0  0  0  0  0
   56.1835   31.4504   42.0883 H   0  0  0  0  0  0  0  0  0  0  0  0
   54.9474   29.6087   43.2313 H   0  0  0  0  0  0  0  0  0  0  0  0
   62.8727   31.9275   49.2892 H   0  0  0  0  0  0  0  0  0  0  0  0
   60.6287   34.7981   46.1658 H   0  0  0  0  0  0  0  0  0  0  0  0
   59.2038   35.5201   44.2508 H   0  0  0  0  0  0  0  0  0  0  0  0
   56.8869   34.6238   44.0056 H   0  0  0  0  0  0  0  0  0  0  0  0
   55.9896   33.0053   45.6815 H   0  0  0  0  0  0  0  0  0  0  0  0
   57.4061   32.2796   47.6036 H   0  0  0  0  0  0  0  0  0  0  0  0
   60.5711   34.6065   50.2557 H   0  0  0  0  0  0  0  0  0  0  0  0
   59.5318   34.5089   52.5207 H   0  0  0  0  0  0  0  0  0  0  0  0
   57.7346   32.8462   53.0025 H   0  0  0  0  0  0  0  0  0  0  0  0
   56.9755   31.2737   51.2179 H   0  0  0  0  0  0  0  0  0  0  0  0
   58.0134   31.3604   48.9506 H   0  0  0  0  0  0  0  0  0  0  0  0
  1  2  2  0
  2  3  1  0
  3  4  1  0
  4  5  1  0
  5  6  2  0
  5  7  2  0
  5  8  1  0
  8  9  2  0
  9 10  1  0
 10 11  2  0
 11 12  1  0
 12 13  2  0
 13 14  1  0
  2 15  1  0
 15 16  2  3
 16 17  1  0
 17 18  2  0
 17 19  1  0
 19 20  1  0
 20 21  2  0
 21 22  1  0
 22 23  2  0
 23 24  1  0
 24 25  2  0
 19 26  1  0
 26 27  2  0
 27 28  1  0
 28 29  2  0
 29 30  1  0
 30 31  2  0
 13  8  1  0
 25 20  1  0
 31 26  1  0
  3 32  1  0
  3 33  1  0
  4 34  1  0
  9 35  1  0
 10 36  1  0
 11 37  1  0
 12 38  1  0
 16 39  1  0
 21 40  1  0
 22 41  1  0
 23 42  1  0
 24 43  1  0
 25 44  1  0
 27 45  1  0
 28 46  1  0
 29 47  1  0
 30 48  1  0
 31 49  1  0
M  END
>  <UniqueID>  (12) 
12

>  <SMILES>  (12) 
O=C(CNS(=O)(=O)c1ccccc1F)N=CC(=O)N(c1ccccc1)c1ccccc1

>  <Energy>  (12) 
58.68632610199467

>  <Genealogy>  (12) 
O=C(CNS(=O)(=O)c1ccccc1F)N=CC(=O)N(c1ccccc1)c1ccccc1 (3D coordinates assigned)
O=C(CNS(=O)(=O)c1ccccc1F)N=CC(=O)N(c1ccccc1)c1ccccc1 (optimized conformer: 58.68632610199467 kcal/mol)

>  <smiles>  (12) 
O=C(CNS(=O)(=O)c1ccccc1F)N=CC(=O)N(c1ccccc1)c1ccccc1

>  <score_type>  (12) 
oracle

>  <origin>  (12) 
adg

>  <m_score__min__energy>  (12) 
-9.6799999999999997

>  <m_primary>  (12) 
energy

$$$$
12:0
     RDKit          3D

 41 43  0  0  0  0  0  0  0  0999 V2000
   55.1920   23.8930   46.4430 C   0  0  0  0  0  0  0  0  0  0  0  0
   56.4490   24.6610   46.4300 N   0  0  0  0  0  0  0  0  0  0  0  0
   56.4240   26.0160   46.1890 C   0  0  0  0  0  0  0  0  0  0  0  0
   55.2220   26.6910   45.9440 O   0  0  0  0  0  0  0  0  0  0  0  0
   57.6200   26.7560   46.1700 C   0  0  0  0  0  0  0  0  0  0  0  0
   57.5990   28.2160   45.9120 C   0  0  0  0  0  0  0  0  0  0  0  0
   57.0130   28.6460   44.8810 O   0  0  0  0  0  0  0  0  0  0  0  0
   58.2790   29.1620   46.8220 C   0  0  0  0  0  0  0  0  0  0  0  0
   58.8880   28.7200   48.0060 C   0  0  0  0  0  0  0  0  0  0  0  0
   59.4980   29.6560   48.8400 C   0  0  0  0  0  0  0  0  0  0  0  0
   60.0410   29.2870   49.9150 O   0  0  0  0  0  0  0  0  0  0  0  0
   59.4990   31.0020   48.4800 C   0  0  0  0  0  0  0  0  0  0  0  0
   58.8870   31.3830   47.2740 C   0  0  0  0  0  0  0  0  0  0  0  0
   58.8520   32.7590   46.8520 N   0  0  0  0  0  0  0  0  0  0  0  0
   60.0630   33.5760   47.0260 C   0  0  0  0  0  0  0  0  0  0  0  0
   59.8930   34.9790   46.4260 C   0  0  0  0  0  0  0  0  0  0  0  0
   59.2080   34.8940   45.0570 C   0  0  0  0  0  0  0  0  0  0  0  0
   57.8310   34.1960   45.1200 C   0  0  0  0  0  0  0  0  0  0  0  0
   57.6040   33.4050   46.4170 C   0  0  0  0  0  0  0  0  0  0  0  0
   58.3000   30.4580   46.5160 O   0  0  0  0  0  0  0  0  0  0  0  0
   58.8220   26.0770   46.4160 C   0  0  0  0  0  0  0  0  0  0  0  0
   59.9200   26.6940   46.4540 O   0  0  0  0  0  0  0  0  0  0  0  0
   58.8060   24.7430   46.6400 N   0  0  0  0  0  0  0  0  0  0  0  0
   57.6520   24.0330   46.6460 C   0  0  0  0  0  0  0  0  0  0  0  0
   57.7080   22.7910   46.8570 O   0  0  0  0  0  0  0  0  0  0  0  0
   54.8869   23.7066   47.4833 H   0  0  0  0  0  0  0  0  0  0  0  0
   54.4070   24.4659   45.9277 H   0  0  0  0  0  0  0  0  0  0  0  0
   55.3435   22.9330   45.9277 H   0  0  0  0  0  0  0  0  0  0  0  0
   55.1440   27.5130   45.3590 H   0  0  0  0  0  0  0  0  0  0  0  0
   58.8843   27.6526   48.2719 H   0  0  0  0  0  0  0  0  0  0  0  0
   59.9712   31.7540   49.1293 H   0  0  0  0  0  0  0  0  0  0  0  0
   60.2771   33.6715   48.1007 H   0  0  0  0  0  0  0  0  0  0  0  0
   60.8913   33.0771   46.5017 H   0  0  0  0  0  0  0  0  0  0  0  0
   59.2775   35.5905   47.1022 H   0  0  0  0  0  0  0  0  0  0  0  0
   60.8853   35.4370   46.3013 H   0  0  0  0  0  0  0  0  0  0  0  0
   59.0678   35.9141   44.6700 H   0  0  0  0  0  0  0  0  0  0  0  0
   59.8542   34.2939   44.3995 H   0  0  0  0  0  0  0  0  0  0  0  0
   57.0474   34.9637   45.0387 H   0  0  0  0  0  0  0  0  0  0  0  0
   57.7957   33.4744   44.2905 H   0  0  0  0  0  0  0  0  0  0  0  0
   57.2585   34.0916   47.2039 H   0  0  0  0  0  0  0  0  0  0  0  0
   56.8473   32.6284   46.2321 H   0  0  0  0  0  0  0  0  0  0  0  0
  1  2  1  0
  2  3  1  0
  3  4  1  0
  3  5  2  0
  5  6  1  0
  6  7  2  0
  6  8  1  0
  8  9  2  0
  9 10  1  0
 10 11  2  0
 10 12  1  0
 12 13  2  0
 13 14  1  0
 14 15  1  0
 15 16  1  0
 16 17  1  0
 17 18  1  0
 18 19  1  0
 13 20  1  0
  5 21  1  0
 21 22  2  0
 21 23  1  0
 23 24  1  0
 24 25  2  0
 24  2  1  0
 20  8  1  0
 19 14  1  0
  1 26  1  0
  1 27  1  0
  1 28  1  0
  4 29  1  0
  9 30  1  0
 12 31  1  0
 15 32  1  0
 15 33  1  0
 16 34  1  0
 16 35  1  0
 17 36  1  0
 17 37  1  0
 18 38  1  0
 18 39  1  0
 19 40  1  0
 19 41  1  0
M  CHG  1  23  -1
M  END
>  <UniqueID>  (13) 
13

>  <SMILES>  (13) 
Cn1c(O)c(C(=O)c2cc(=O)cc(N3CCCCC3)o2)c(=O)[n-]c1=O

>  <Energy>  (13) 
59.13643296396157

>  <Genealogy>  (13) 
Cn1c(O)c(C(=O)c2cc(=O)cc(N3CCCCC3)o2)c(=O)[n-]c1=O (protonated)
Cn1c(O)c(C(=O)c2cc(=O)cc(N3CCCCC3)o2)c(=O)[n-]c1=O (3D coordinates assigned)
Cn1c(O)c(C(=O)c2cc(=O)cc(N3CCCCC3)o2)c(=O)[n-]c1=O (nonaromatic ring conformer: 59.13643296396157 kcal/mol)

>  <smiles>  (13) 
Cn1c(O)c(C(=O)c2cc(=O)cc(N3CCCCC3)o2)c(=O)[nH]c1=O

>  <score_type>  (13) 
oracle

>  <origin>  (13) 
adg

>  <m_score__min__energy>  (13) 
-11.130000000000001

>  <m_primary>  (13) 
energy

$$$$
13:0
     RDKit          3D

 22 24  0  0  0  0  0  0  0  0999 V2000
   55.3090   30.3580   44.2250 O   0  0  0  0  0  0  0  0  0  0  0  0
   56.1740   29.7110   44.8670 C   0  0  0  0  0  0  0  0  0  0  0  0
   56.0110   28.4050   45.1760 N   0  0  0  0  0  0  0  0  0  0  0  0
   56.9510   27.7190   45.8690 C   0  0  0  0  0  0  0  0  0  0  0  0
   56.7590   26.4100   46.1640 N   0  0  0  0  0  0  0  0  0  0  0  0
   57.7370   25.7960   46.8540 C   0  0  0  0  0  0  0  0  0  0  0  0
   58.8760   26.4720   47.2410 C   0  0  0  0  0  0  0  0  0  0  0  0
   59.0870   27.7780   46.9580 N   0  0  0  0  0  0  0  0  0  0  0  0
   58.0920   28.3970   46.2570 C   0  0  0  0  0  0  0  0  0  0  0  0
   58.3080   29.7260   45.9690 C   0  0  0  0  0  0  0  0  0  0  0  0
   59.4540   30.3680   46.3690 C   0  0  0  0  0  0  0  0  0  0  0  0
   59.6430   31.6880   46.0710 C   0  0  0  0  0  0  0  0  0  0  0  0
   58.6640   32.3660   45.3590 C   0  0  0  0  0  0  0  0  0  0  0  0
   58.9080   34.2260   44.9260 Br  0  0  0  0  0  0  0  0  0  0  0  0
   57.5080   31.7320   44.9510 C   0  0  0  0  0  0  0  0  0  0  0  0
   57.3180   30.3850   45.2570 C   0  0  0  0  0  0  0  0  0  0  0  0
   55.1480   27.9000   44.8800 H   0  0  0  0  0  0  0  0  0  0  0  0
   57.6265   24.7332   47.1151 H   0  0  0  0  0  0  0  0  0  0  0  0
   59.6463   25.9249   47.8044 H   0  0  0  0  0  0  0  0  0  0  0  0
   60.2227   29.8176   46.9314 H   0  0  0  0  0  0  0  0  0  0  0  0
   60.5589   32.2062   46.3912 H   0  0  0  0  0  0  0  0  0  0  0  0
   56.7418   32.2855   44.3883 H   0  0  0  0  0  0  0  0  0  0  0  0
  1  2  2  0
  2  3  1  0
  3  4  1  0
  4  5  2  0
  5  6  1  0
  6  7  2  0
  7  8  1  0
  8  9  2  0
  9 10  1  0
 10 11  2  0
 11 12  1  0
 12 13  2  0
 13 14  1  0
 13 15  1  0
 15 16  2  0
 16  2  1  0
  9  4  1  0
 16 10  1  0
  3 17  1  0
  6 18  1  0
  7 19  1  0
 11 20  1  0
 12 21  1  0
 15 22  1  0
M  END
>  <smiles>  (14) 
O=c1[nH]c2nccnc2c2ccc(Br)cc12

>  <score_type>  (14) 
oracle

>  <origin>  (14) 
adg

>  <m_score__min__energy>  (14) 
-6.6600000000000001

>  <m_primary>  (14) 
energy

$$$$
14:0
     RDKit          3D

 56 59  0  0  1  0  0  0  0  0999 V2000
   67.0780   31.5220   50.5230 C   0  0  0  0  0  0  0  0  0  0  0  0
   66.8510   32.8610   50.1240 O   0  0  0  0  0  0  0  0  0  0  0  0
   66.0720   33.6590   50.9490 C   0  0  0  0  0  0  0  0  0  0  0  0
   66.6160   34.4960   51.9010 C   0  0  0  0  0  0  0  0  0  0  0  0
   65.8180   35.2950   52.7270 C   0  0  0  0  0  0  0  0  0  0  0  0
   64.4480   35.2110   52.5470 C   0  0  0  0  0  0  0  0  0  0  0  0
   63.8810   34.3720   51.5930 C   0  0  0  0  0  0  0  0  0  0  0  0
   64.6820   33.5970   50.7930 C   0  0  0  0  0  0  0  0  0  0  0  0
   64.1190   32.7300   49.8070 N   0  0  0  0  0  0  0  0  0  0  0  0
   63.2310   33.3390   48.8690 C   0  0  0  0  0  0  0  0  0  0  0  0
   63.0470   34.5870   49.0260 O   0  0  0  0  0  0  0  0  0  0  0  0
   62.5980   32.5980   47.8330 N   0  0  0  0  0  0  0  0  0  0  0  0
   63.3960   31.6030   47.1420 C   0  0  0  0  0  0  0  0  0  0  0  0
   61.2610   32.7630   47.4360 C   0  0  0  0  0  0  0  0  0  0  0  0
   60.9070   33.9310   46.7920 C   0  0  0  0  0  0  0  0  0  0  0  0
   59.6080   34.1500   46.3780 C   0  0  0  0  0  0  0  0  0  0  0  0
   58.6000   33.2100   46.5890 C   0  0  0  0  0  0  0  0  0  0  0  0
   57.2020   33.4310   46.1500 C   0  0  0  0  0  0  0  0  0  0  0  0
   57.0210   32.7330   44.8420 C   0  0  0  0  0  0  0  0  0  0  0  0
   57.5350   33.2520   43.8130 O   0  0  0  0  0  0  0  0  0  0  0  0
   56.2950   31.5130   44.7230 N   0  0  0  0  0  0  0  0  0  0  0  0
   56.9160   30.3750   44.5330 C   0  0  0  0  0  0  0  0  0  0  0  0
   58.1740   30.0110   44.9650 C   0  0  0  0  0  0  0  0  0  0  0  0
   58.3770   28.7220   44.5170 C   0  0  0  0  0  0  0  0  0  0  0  0
   59.5770   27.8610   44.7120 C   0  0  0  0  0  0  0  0  0  0  0  0
   60.2740   27.8960   46.0220 C   0  0  0  0  0  0  0  0  0  0  0  0
   60.8990   28.5740   44.8440 C   0  0  0  0  0  0  0  0  0  0  0  0
   57.2690   28.3270   43.8350 N   0  0  0  0  0  0  0  0  0  0  0  0
   56.4210   29.3380   43.8660 N   0  0  0  0  0  0  0  0  0  0  0  0
   58.9540   32.0370   47.2350 C   0  0  0  0  0  0  0  0  0  0  0  0
   60.2640   31.8310   47.6460 C   0  0  0  0  0  0  0  0  0  0  0  0
   67.0879   31.4634   51.6214 H   0  0  0  0  0  0  0  0  0  0  0  0
   66.2757   30.8809   50.1288 H   0  0  0  0  0  0  0  0  0  0  0  0
   68.0467   31.1812   50.1288 H   0  0  0  0  0  0  0  0  0  0  0  0
   67.7094   34.5365   52.0141 H   0  0  0  0  0  0  0  0  0  0  0  0
   66.2590   35.9594   53.4847 H   0  0  0  0  0  0  0  0  0  0  0  0
   63.7882   35.8258   53.1769 H   0  0  0  0  0  0  0  0  0  0  0  0
   62.7876   34.3299   51.4798 H   0  0  0  0  0  0  0  0  0  0  0  0
   64.3300   31.7090   49.7530 H   0  0  0  0  0  0  0  0  0  0  0  0
   63.9068   30.9661   47.8792 H   0  0  0  0  0  0  0  0  0  0  0  0
   62.7425   30.9823   46.5114 H   0  0  0  0  0  0  0  0  0  0  0  0
   64.1438   32.1061   46.5114 H   0  0  0  0  0  0  0  0  0  0  0  0
   61.6715   34.6996   46.6055 H   0  0  0  0  0  0  0  0  0  0  0  0
   59.3615   35.0926   45.8674 H   0  0  0  0  0  0  0  0  0  0  0  0
   56.5057   33.0178   46.8946 H   0  0  0  0  0  0  0  0  0  0  0  0
   56.9968   34.5065   46.0444 H   0  0  0  0  0  0  0  0  0  0  0  0
   58.8749   30.6251   45.5495 H   0  0  0  0  0  0  0  0  0  0  0  0
   59.1714   27.0552   44.0826 H   0  0  0  0  0  0  0  0  0  0  0  0
   59.8623   28.4978   46.8456 H   0  0  0  0  0  0  0  0  0  0  0  0
   60.6067   27.1333   46.7414 H   0  0  0  0  0  0  0  0  0  0  0  0
   60.9411   29.6722   44.7972 H   0  0  0  0  0  0  0  0  0  0  0  0
   61.8724   28.5180   44.3347 H   0  0  0  0  0  0  0  0  0  0  0  0
   57.1050   27.3980   43.3670 H   0  0  0  0  0  0  0  0  0  0  0  0
   55.4700   29.3060   43.4100 H   0  0  0  0  0  0  0  0  0  0  0  0
   58.1935   31.2649   47.4233 H   0  0  0  0  0  0  0  0  0  0  0  0
   60.5170   30.8907   48.1578 H   0  0  0  0  0  0  0  0  0  0  0  0
  1  2  1  0
  2  3  1  0
  3  4  2  0
  4  5  1  0
  5  6  2  0
  6  7  1  0
  7  8  2  0
  8  9  1  0
  9 10  1  0
 10 11  2  0
 10 12  1  0
 12 13  1  0
 12 14  1  0
 14 15  2  0
 15 16  1  0
 16 17  2  0
 17 18  1  0
 18 19  1  0
 19 20  2  0
 19 21  1  0
 21 22  2  0
 22 23  1  0
 23 24  2  0
 24 25  1  0
 25 26  1  0
 26 27  1  0
 24 28  1  0
 28 29  1  0
 17 30  1  0
 30 31  2  0
  8  3  1  0
 31 14  1  0
 29 22  1  0
 27 25  1  0
  1 32  1  0
  1 33  1  0
  1 34  1  0
  4 35  1  0
  5 36  1  0
  6 37  1  0
  7 38  1  0
  9 39  1  0
 13 40  1  0
 13 41  1  0
 13 42  1  0
 15 43  1  0
 16 44  1  0
 18 45  1  0
 18 46  1  0
 23 47  1  0
 25 48  1  0
 26 49  1  0
 26 50  1  0
 27 51  1  0
 27 52  1  0
 28 53  1  0
 29 54  1  0
 30 55  1  0
 31 56  1  0
M  END
>  <smiles>  (15) 
COc1ccccc1NC(=O)N(C)c1ccc(CC(=O)N=c2cc(C3CC3)[nH][nH]2)cc1

>  <score_type>  (15) 
oracle

>  <origin>  (15) 
adg

>  <m_score__min__energy>  (15) 
-8.8200000000000003

>  <m_primary>  (15) 
energy

$$$$
15:0
     RDKit          3D

 53 55  0  0  0  0  0  0  0  0999 V2000
   57.5887   31.5872   42.3607 H   0  0  0  0  0  0  0  0  0  0  0  0
   57.7010   31.8100   43.4320 C   0  0  0  0  0  0  0  0  0  0  0  0
   57.7970   33.0990   43.7910 C   0  0  0  0  0  0  0  0  0  0  0  0
   57.4254   33.8498   43.0781 H   0  0  0  0  0  0  0  0  0  0  0  0
   58.3620   33.5960   45.0680 C   0  0  0  0  0  0  0  0  0  0  0  0
   57.8200   33.1380   46.2740 C   0  0  0  0  0  0  0  0  0  0  0  0
   56.9899   32.4164   46.2605 H   0  0  0  0  0  0  0  0  0  0  0  0
   58.3260   33.5910   47.4960 C   0  0  0  0  0  0  0  0  0  0  0  0
   57.8949   33.2177   48.4366 H   0  0  0  0  0  0  0  0  0  0  0  0
   59.3760   34.5150   47.5330 C   0  0  0  0  0  0  0  0  0  0  0  0
   59.8720   34.9100   48.7830 O   0  0  0  0  0  0  0  0  0  0  0  0
   60.8430   34.1830   49.5350 C   0  0  0  0  0  0  0  0  0  0  0  0
   61.5440   34.8889   50.0042 H   0  0  0  0  0  0  0  0  0  0  0  0
   60.3326   33.5939   50.3112 H   0  0  0  0  0  0  0  0  0  0  0  0
   61.6210   33.2320   48.6070 C   0  0  0  0  0  0  0  0  0  0  0  0
   61.7708   32.2806   49.1384 H   0  0  0  0  0  0  0  0  0  0  0  0
   61.0178   33.1258   47.6933 H   0  0  0  0  0  0  0  0  0  0  0  0
   62.9480   33.7360   48.1780 N   0  0  0  0  0  0  0  0  0  0  0  0
   63.1140   33.7670   46.7150 C   0  0  0  0  0  0  0  0  0  0  0  0
   64.1681   33.9638   46.4697 H   0  0  0  0  0  0  0  0  0  0  0  0
   62.8138   32.7973   46.2913 H   0  0  0  0  0  0  0  0  0  0  0  0
   62.4841   34.5630   46.2913 H   0  0  0  0  0  0  0  0  0  0  0  0
   64.0650   33.0270   48.8270 C   0  0  0  0  0  0  0  0  0  0  0  0
   63.9573   33.0954   49.9196 H   0  0  0  0  0  0  0  0  0  0  0  0
   64.0544   31.9699   48.5229 H   0  0  0  0  0  0  0  0  0  0  0  0
   65.0171   33.4865   48.5229 H   0  0  0  0  0  0  0  0  0  0  0  0
   59.8920   35.0130   46.3240 C   0  0  0  0  0  0  0  0  0  0  0  0
   60.7052   35.7536   46.3392 H   0  0  0  0  0  0  0  0  0  0  0  0
   59.3760   34.5710   45.1030 C   0  0  0  0  0  0  0  0  0  0  0  0
   59.7652   34.9882   44.1625 H   0  0  0  0  0  0  0  0  0  0  0  0
   57.7350   30.6620   44.3720 C   0  0  0  0  0  0  0  0  0  0  0  0
   58.7360   30.5970   45.2920 N   0  0  0  0  0  0  0  0  0  0  0  0
   58.8430   29.5850   46.1900 C   0  0  0  0  0  0  0  0  0  0  0  0
   59.9160   29.5700   47.0890 C   0  0  0  0  0  0  0  0  0  0  0  0
   60.6667   30.3735   47.0596 H   0  0  0  0  0  0  0  0  0  0  0  0
   60.0380   28.5300   48.0310 C   0  0  0  0  0  0  0  0  0  0  0  0
   61.0920   28.4730   48.9540 O   0  0  0  0  0  0  0  0  0  0  0  0
   61.1260   29.1970   50.1800 C   0  0  0  0  0  0  0  0  0  0  0  0
   61.0929   28.4916   51.0234 H   0  0  0  0  0  0  0  0  0  0  0  0
   62.0528   29.7871   50.2317 H   0  0  0  0  0  0  0  0  0  0  0  0
   60.2585   29.8714   50.2317 H   0  0  0  0  0  0  0  0  0  0  0  0
   59.0760   27.5120   48.0550 C   0  0  0  0  0  0  0  0  0  0  0  0
   59.1655   26.6964   48.7876 H   0  0  0  0  0  0  0  0  0  0  0  0
   58.0030   27.5210   47.1580 C   0  0  0  0  0  0  0  0  0  0  0  0
   57.2558   26.7144   47.1892 H   0  0  0  0  0  0  0  0  0  0  0  0
   57.8760   28.5580   46.2160 C   0  0  0  0  0  0  0  0  0  0  0  0
   56.8080   28.6070   45.2980 C   0  0  0  0  0  0  0  0  0  0  0  0
   55.9160   27.7100   45.3210 O   0  0  0  0  0  0  0  0  0  0  0  0
   56.7350   29.6600   44.3550 C   0  0  0  0  0  0  0  0  0  0  0  0
   55.5980   29.7220   43.3580 C   0  0  0  0  0  0  0  0  0  0  0  0
   54.6404   29.7742   43.8967 H   0  0  0  0  0  0  0  0  0  0  0  0
   55.7125   30.6152   42.7263 H   0  0  0  0  0  0  0  0  0  0  0  0
   55.6147   28.8216   42.7263 H   0  0  0  0  0  0  0  0  0  0  0  0
  1  2  1  0
  2  3  2  0
  3  4  1  0
  3  5  1  0
  5  6  2  0
  6  7  1  0
  6  8  1  0
  8  9  1  0
  8 10  2  0
 10 11  1  0
 11 12  1  0
 12 13  1  0
 12 14  1  0
 12 15  1  0
 15 16  1  0
 15 17  1  0
 15 18  1  0
 18 19  1  0
 19 20  1  0
 19 21  1  0
 19 22  1  0
 18 23  1  0
 23 24  1  0
 23 25  1  0
 23 26  1  0
 10 27  1  0
 27 28  1  0
 27 29  2  0
 29 30  1  0
  2 31  1  0
 31 32  1  0
 32 33  1  0
 33 34  2  0
 34 35  1  0
 34 36  1  0
 36 37  1  0
 37 38  1  0
 38 39  1  0
 38 40  1  0
 38 41  1  0
 36 42  2  0
 42 43  1  0
 42 44  1  0
 44 45  1  0
 44 46  2  0
 46 47  1  0
 47 48  2  0
 47 49  1  0
 49 50  1  0
 50 51  1  0
 50 52  1  0
 50 53  1  0
 29  5  1  0
 49 31  2  0
 46 33  1  0
M  CHG  1  32  -1
M  END
>  <UniqueID>  (16) 
14

>  <SMILES>  (16) 
COc1ccc2c(=O)c(C)c(/C=C\c3ccc(OCCN(C)C)cc3)[n-]c2c1

>  <Energy>  (16) 
70.36844925838783

>  <Genealogy>  (16) 
COc1ccc2c(=O)c(C)c(C=Cc3ccc(OCCN(C)C)cc3)[n-]c2c1 (protonated)
COc1ccc2c(=O)c(C)c(/C=C\c3ccc(OCCN(C)C)cc3)[n-]c2c1 (cis-trans isomerization)
COc1ccc2c(=O)c(C)c(/C=C\c3ccc(OCCN(C)C)cc3)[n-]c2c1 (3D coordinates assigned)
COc1ccc2c(=O)c(C)c(/C=C\c3ccc(OCCN(C)C)cc3)[n-]c2c1 (optimized conformer: 70.36844925838783 kcal/mol)

>  <smiles>  (16) 
COc1ccc2c(=O)c(C)c(C=Cc3ccc(OCCN(C)C)cc3)[nH]c2c1

>  <score_type>  (16) 
oracle

>  <origin>  (16) 
adg

>  <m_score__min__energy>  (16) 
-9.1799999999999997

>  <m_primary>  (16) 
energy

$$$$
16:0
     RDKit          3D

 46 48  0  0  0  0  0  0  0  0999 V2000
   56.0250   29.2940   53.2140 C   0  0  0  0  0  0  0  0  0  0  0  0
   56.6020   29.7070   51.9790 O   0  0  0  0  0  0  0  0  0  0  0  0
   57.4070   30.8450   51.8230 C   0  0  0  0  0  0  0  0  0  0  0  0
   57.0260   32.0230   52.4780 C   0  0  0  0  0  0  0  0  0  0  0  0
   57.7890   33.1870   52.3450 C   0  0  0  0  0  0  0  0  0  0  0  0
   58.9420   33.1830   51.5570 C   0  0  0  0  0  0  0  0  0  0  0  0
   59.3490   32.0090   50.9060 C   0  0  0  0  0  0  0  0  0  0  0  0
   60.5680   32.0170   50.0240 C   0  0  0  0  0  0  0  0  0  0  0  0
   60.1610   32.0430   48.5840 C   0  0  0  0  0  0  0  0  0  0  0  0
   60.6580   31.2020   47.7860 O   0  0  0  0  0  0  0  0  0  0  0  0
   59.2860   33.0760   48.1050 N   0  0  0  0  0  0  0  0  0  0  0  0
   58.7580   33.1330   46.7700 C   0  0  0  0  0  0  0  0  0  0  0  0
   59.1110   34.1670   45.8860 C   0  0  0  0  0  0  0  0  0  0  0  0
   58.6010   34.1840   44.5850 C   0  0  0  0  0  0  0  0  0  0  0  0
   57.7570   33.1610   44.1480 C   0  0  0  0  0  0  0  0  0  0  0  0
   57.4290   32.1020   45.0010 C   0  0  0  0  0  0  0  0  0  0  0  0
   56.5590   31.0660   44.5200 N   0  0  0  0  0  0  0  0  0  0  0  0
   56.5890   29.6840   44.9010 C   0  0  0  0  0  0  0  0  0  0  0  0
   55.5120   29.0310   44.8790 O   0  0  0  0  0  0  0  0  0  0  0  0
   57.8490   28.9940   45.2650 C   0  0  0  0  0  0  0  0  0  0  0  0
   57.8720   28.0910   46.3430 C   0  0  0  0  0  0  0  0  0  0  0  0
   59.0580   27.4400   46.6940 C   0  0  0  0  0  0  0  0  0  0  0  0
   60.2280   27.6740   45.9660 C   0  0  0  0  0  0  0  0  0  0  0  0
   60.2130   28.5550   44.8840 C   0  0  0  0  0  0  0  0  0  0  0  0
   59.0290   29.2100   44.5300 C   0  0  0  0  0  0  0  0  0  0  0  0
   57.9200   32.1020   46.3190 C   0  0  0  0  0  0  0  0  0  0  0  0
   58.5740   30.8430   51.0350 C   0  0  0  0  0  0  0  0  0  0  0  0
   56.6077   29.7111   54.0486 H   0  0  0  0  0  0  0  0  0  0  0  0
   54.9881   29.6563   53.2736 H   0  0  0  0  0  0  0  0  0  0  0  0
   56.0336   28.1957   53.2736 H   0  0  0  0  0  0  0  0  0  0  0  0
   56.1199   32.0324   53.1016 H   0  0  0  0  0  0  0  0  0  0  0  0
   57.4806   34.1077   52.8620 H   0  0  0  0  0  0  0  0  0  0  0  0
   59.5333   34.1040   51.4464 H   0  0  0  0  0  0  0  0  0  0  0  0
   61.1727   32.9083   50.2473 H   0  0  0  0  0  0  0  0  0  0  0  0
   61.1567   31.1077   50.2153 H   0  0  0  0  0  0  0  0  0  0  0  0
   59.0970   33.8860   48.7380 H   0  0  0  0  0  0  0  0  0  0  0  0
   59.7907   34.9652   46.2191 H   0  0  0  0  0  0  0  0  0  0  0  0
   58.8652   35.0057   43.9031 H   0  0  0  0  0  0  0  0  0  0  0  0
   57.3478   33.1880   43.1273 H   0  0  0  0  0  0  0  0  0  0  0  0
   56.9516   27.8960   46.9130 H   0  0  0  0  0  0  0  0  0  0  0  0
   59.0706   26.7425   47.5445 H   0  0  0  0  0  0  0  0  0  0  0  0
   61.1611   27.1634   46.2462 H   0  0  0  0  0  0  0  0  0  0  0  0
   61.1333   28.7345   44.3089 H   0  0  0  0  0  0  0  0  0  0  0  0
   59.0204   29.8981   43.6718 H   0  0  0  0  0  0  0  0  0  0  0  0
   57.6443   31.2857   47.0029 H   0  0  0  0  0  0  0  0  0  0  0  0
   58.8815   29.9227   50.5167 H   0  0  0  0  0  0  0  0  0  0  0  0
  1  2  1  0
  2  3  1  0
  3  4  2  0
  4  5  1  0
  5  6  2  0
  6  7  1  0
  7  8  1  0
  8  9  1  0
  9 10  2  0
  9 11  1  0
 11 12  1  0
 12 13  2  0
 13 14  1  0
 14 15  2  0
 15 16  1  0
 16 17  1  0
 17 18  1  0
 18 19  2  0
 18 20  1  0
 20 21  2  0
 21 22  1  0
 22 23  2  0
 23 24  1  0
 24 25  2  0
 16 26  2  0
  7 27  2  0
 27  3  1  0
 26 12  1  0
 25 20  1  0
  1 28  1  0
  1 29  1  0
  1 30  1  0
  4 31  1  0
  5 32  1  0
  6 33  1  0
  8 34  1  0
  8 35  1  0
 11 36  1  0
 13 37  1  0
 14 38  1  0
 15 39  1  0
 21 40  1  0
 22 41  1  0
 23 42  1  0
 24 43  1  0
 25 44  1  0
 26 45  1  0
 27 46  1  0
M  CHG  1  17  -1
M  END
>  <UniqueID>  (17) 
15

>  <SMILES>  (17) 
COc1cccc(CC(=O)Nc2cccc([N-]C(=O)c3ccccc3)c2)c1

>  <Energy>  (17) 
55.2702676423086

>  <Genealogy>  (17) 
COc1cccc(CC(=O)Nc2cccc([N-]C(=O)c3ccccc3)c2)c1 (protonated)
COc1cccc(CC(=O)Nc2cccc([N-]C(=O)c3ccccc3)c2)c1 (3D coordinates assigned)
COc1cccc(CC(=O)Nc2cccc([N-]C(=O)c3ccccc3)c2)c1 (optimized conformer: 55.2702676423086 kcal/mol)

>  <smiles>  (17) 
COc1cccc(CC(=O)Nc2cccc(NC(=O)c3ccccc3)c2)c1

>  <score_type>  (17) 
oracle

>  <origin>  (17) 
adg

>  <m_score__min__energy>  (17) 
-11.42

>  <m_primary>  (17) 
energy

$$$$
17:0
     RDKit          3D

 24 25  0  0  0  0  0  0  0  0999 V2000
   58.2360   27.9920   47.2090 O   0  0  0  0  0  0  0  0  0  0  0  0
   57.6800   28.4970   46.1950 C   0  0  0  0  0  0  0  0  0  0  0  0
   56.8350   27.6840   45.3620 N   0  0  0  0  0  0  0  0  0  0  0  0
   56.7550   26.2550   45.4840 C   0  0  0  0  0  0  0  0  0  0  0  0
   57.9250   25.4910   45.3580 C   0  0  0  0  0  0  0  0  0  0  0  0
   57.8790   24.0980   45.4800 C   0  0  0  0  0  0  0  0  0  0  0  0
   59.3450   23.1520   45.3030 Cl  0  0  0  0  0  0  0  0  0  0  0  0
   56.6630   23.4610   45.7440 C   0  0  0  0  0  0  0  0  0  0  0  0
   55.4970   24.2150   45.8980 C   0  0  0  0  0  0  0  0  0  0  0  0
   55.5390   25.6090   45.7820 C   0  0  0  0  0  0  0  0  0  0  0  0
   54.3750   26.3410   45.9940 O   0  0  0  0  0  0  0  0  0  0  0  0
   57.8740   29.9300   45.8880 C   0  0  0  0  0  0  0  0  0  0  0  0
   59.0270   30.6140   46.3010 C   0  0  0  0  0  0  0  0  0  0  0  0
   59.1710   31.9640   45.9860 C   0  0  0  0  0  0  0  0  0  0  0  0
   58.1630   32.6030   45.2640 C   0  0  0  0  0  0  0  0  0  0  0  0
   58.2680   33.8220   44.9670 O   0  0  0  0  0  0  0  0  0  0  0  0
   57.0650   31.9020   44.8840 N   0  0  0  0  0  0  0  0  0  0  0  0
   56.9260   30.6090   45.1850 N   0  0  0  0  0  0  0  0  0  0  0  0
   56.1370   28.1590   44.7470 H   0  0  0  0  0  0  0  0  0  0  0  0
   58.8851   25.9907   45.1619 H   0  0  0  0  0  0  0  0  0  0  0  0
   56.6242   22.3651   45.8306 H   0  0  0  0  0  0  0  0  0  0  0  0
   54.5427   23.7112   46.1112 H   0  0  0  0  0  0  0  0  0  0  0  0
   59.8102   30.0897   46.8682 H   0  0  0  0  0  0  0  0  0  0  0  0
   60.0672   32.5179   46.3024 H   0  0  0  0  0  0  0  0  0  0  0  0
  1  2  2  0
  2  3  1  0
  3  4  1  0
  4  5  2  0
  5  6  1  0
  6  7  1  0
  6  8  2  0
  8  9  1  0
  9 10  2  0
 10 11  1  0
  2 12  1  0
 12 13  1  0
 13 14  2  0
 14 15  1  0
 15 16  2  0
 15 17  1  0
 17 18  1  0
 10  4  1  0
 18 12  2  0
  3 19  1  0
  5 20  1  0
  8 21  1  0
  9 22  1  0
 13 23  1  0
 14 24  1  0
M  CHG  2  11  -1  17  -1
M  END
>  <UniqueID>  (18) 
16

>  <SMILES>  (18) 
O=C(Nc1cc(Cl)ccc1[O-])c1ccc(=O)[n-]n1

>  <Energy>  (18) 
31.718227643504925

>  <Genealogy>  (18) 
O=C(Nc1cc(Cl)ccc1[O-])c1ccc(=O)[n-]n1 (protonated)
O=C(Nc1cc(Cl)ccc1[O-])c1ccc(=O)[n-]n1 (3D coordinates assigned)
O=C(Nc1cc(Cl)ccc1[O-])c1ccc(=O)[n-]n1 (optimized conformer: 31.718227643504925 kcal/mol)

>  <smiles>  (18) 
O=C(Nc1cc(Cl)ccc1O)c1ccc(=O)[nH]n1

>  <score_type>  (18) 
oracle

>  <origin>  (18) 
adg

>  <m_score__min__energy>  (18) 
-11.869999999999999

>  <m_primary>  (18) 
energy

$$$$
18:0
     RDKit          3D

 40 42  0  0  1  0  0  0  0  0999 V2000
   64.3220   33.1400   48.9590 C   0  0  0  0  0  0  0  0  0  0  0  0
   63.4410   33.8880   47.5670 S   0  0  0  0  0  0  0  0  0  0  0  0
   62.0170   32.8920   47.1280 C   0  0  0  0  0  0  0  0  0  0  0  0
   60.8710   33.5060   46.7960 N   0  0  0  0  0  0  0  0  0  0  0  0
   59.8200   32.7340   46.4710 C   0  0  0  0  0  0  0  0  0  0  0  0
   58.6920   33.2610   46.1430 N   0  0  0  0  0  0  0  0  0  0  0  0
   57.4790   32.4430   46.1910 C   0  0  0  0  0  0  0  0  0  0  0  0
   57.2680   31.8840   44.8300 C   0  0  0  0  0  0  0  0  0  0  0  0
   57.9160   32.2470   43.6560 C   0  0  0  0  0  0  0  0  0  0  0  0
   57.3880   31.4550   42.6550 C   0  0  0  0  0  0  0  0  0  0  0  0
   56.4390   30.6450   43.2780 C   0  0  0  0  0  0  0  0  0  0  0  0
   56.4060   30.9340   44.5570 O   0  0  0  0  0  0  0  0  0  0  0  0
   59.8890   31.3570   46.4720 C   0  0  0  0  0  0  0  0  0  0  0  0
   61.0880   30.7680   46.8210 C   0  0  0  0  0  0  0  0  0  0  0  0
   61.1300   29.3800   46.8140 O   0  0  0  0  0  0  0  0  0  0  0  0
   60.0690   28.5580   46.5260 C   0  0  0  0  0  0  0  0  0  0  0  0
   59.5030   28.7520   45.2620 C   0  0  0  0  0  0  0  0  0  0  0  0
   58.2180   28.5090   44.8150 C   0  0  0  0  0  0  0  0  0  0  0  0
   57.1810   27.9430   45.5590 C   0  0  0  0  0  0  0  0  0  0  0  0
   55.8940   28.2330   45.1360 O   0  0  0  0  0  0  0  0  0  0  0  0
   57.3480   27.1300   46.6640 C   0  0  0  0  0  0  0  0  0  0  0  0
   56.3000   26.4860   47.0030 O   0  0  0  0  0  0  0  0  0  0  0  0
   58.4630   26.9020   47.4600 C   0  0  0  0  0  0  0  0  0  0  0  0
   59.6450   27.6320   47.4590 C   0  0  0  0  0  0  0  0  0  0  0  0
   62.1440   31.5380   47.1470 N   0  0  0  0  0  0  0  0  0  0  0  0
   63.8923   33.5048   49.9036 H   0  0  0  0  0  0  0  0  0  0  0  0
   64.2234   32.0455   48.9099 H   0  0  0  0  0  0  0  0  0  0  0  0
   65.3860   33.4148   48.9099 H   0  0  0  0  0  0  0  0  0  0  0  0
   57.6040   31.6269   46.9178 H   0  0  0  0  0  0  0  0  0  0  0  0
   56.6141   33.0474   46.5019 H   0  0  0  0  0  0  0  0  0  0  0  0
   58.6963   33.0144   43.5453 H   0  0  0  0  0  0  0  0  0  0  0  0
   57.6594   31.4618   41.5890 H   0  0  0  0  0  0  0  0  0  0  0  0
   55.8187   29.8867   42.7779 H   0  0  0  0  0  0  0  0  0  0  0  0
   59.0149   30.7459   46.2028 H   0  0  0  0  0  0  0  0  0  0  0  0
   60.1877   29.1622   44.5051 H   0  0  0  0  0  0  0  0  0  0  0  0
   57.9909   28.7877   43.7754 H   0  0  0  0  0  0  0  0  0  0  0  0
   55.1480   27.6260   45.3880 H   0  0  0  0  0  0  0  0  0  0  0  0
   58.4043   26.0577   48.1626 H   0  0  0  0  0  0  0  0  0  0  0  0
   60.3258   27.4505   48.3037 H   0  0  0  0  0  0  0  0  0  0  0  0
   63.0310   31.0860   47.4040 H   0  0  0  0  0  0  0  0  0  0  0  0
  1  2  1  0
  2  3  1  0
  3  4  2  0
  4  5  1  0
  5  6  2  0
  6  7  1  0
  7  8  1  0
  8  9  2  0
  9 10  1  0
 10 11  2  0
 11 12  1  0
  5 13  1  0
 13 14  2  0
 14 15  1  0
 15 16  1  0
 16 17  2  0
 17 18  1  0
 18 19  2  0
 19 20  1  0
 19 21  1  0
 21 22  2  0
 21 23  1  0
 23 24  2  0
 14 25  1  0
 25  3  1  0
 12  8  1  0
 24 16  1  0
  1 26  1  0
  1 27  1  0
  1 28  1  0
  7 29  1  0
  7 30  1  0
  9 31  1  0
 10 32  1  0
 11 33  1  0
 13 34  1  0
 17 35  1  0
 18 36  1  0
 20 37  1  0
 23 38  1  0
 24 39  1  0
 25 40  1  0
M  END
>  <smiles>  (19) 
CSc1nc(=NCc2ccco2)cc(Oc2ccc(O)c(=O)cc2)[nH]1

>  <score_type>  (19) 
oracle

>  <origin>  (19) 
adg

>  <m_score__min__energy>  (19) 
-8.4199999999999999

>  <m_primary>  (19) 
energy

$$$$
19:0
     RDKit          3D

 32 34  0  0  0  0  0  0  0  0999 V2000
   55.1340   29.3410   44.8360 N   0  0  0  0  0  0  0  0  0  0  0  0
   56.1720   30.1900   44.3530 C   0  0  0  0  0  0  0  0  0  0  0  0
   56.0830   30.6660   43.1890 O   0  0  0  0  0  0  0  0  0  0  0  0
   57.3660   30.4750   45.1810 C   0  0  0  0  0  0  0  0  0  0  0  0
   57.9880   29.5000   45.9730 C   0  0  0  0  0  0  0  0  0  0  0  0
   57.5410   28.1400   46.0750 N   0  0  0  0  0  0  0  0  0  0  0  0
   57.7970   27.0780   45.1460 C   0  0  0  0  0  0  0  0  0  0  0  0
   58.5000   27.2920   44.1220 O   0  0  0  0  0  0  0  0  0  0  0  0
   57.2300   25.7250   45.3980 C   0  0  0  0  0  0  0  0  0  0  0  0
   58.0460   24.5880   45.2320 C   0  0  0  0  0  0  0  0  0  0  0  0
   57.5410   23.3060   45.4620 C   0  0  0  0  0  0  0  0  0  0  0  0
   56.2150   23.1350   45.8580 C   0  0  0  0  0  0  0  0  0  0  0  0
   55.3900   24.2470   46.0270 C   0  0  0  0  0  0  0  0  0  0  0  0
   55.8840   25.5420   45.8030 C   0  0  0  0  0  0  0  0  0  0  0  0
   55.0380   26.6360   45.9850 O   0  0  0  0  0  0  0  0  0  0  0  0
   59.2830   30.1810   46.8220 S   0  0  0  0  0  0  0  0  0  0  0  0
   59.0810   31.7160   46.1820 C   0  0  0  0  0  0  0  0  0  0  0  0
   59.8530   32.8460   46.4390 C   0  0  0  0  0  0  0  0  0  0  0  0
   59.5330   34.0360   45.7710 C   0  0  0  0  0  0  0  0  0  0  0  0
   58.4650   34.0710   44.8580 C   0  0  0  0  0  0  0  0  0  0  0  0
   57.6990   32.9200   44.6120 C   0  0  0  0  0  0  0  0  0  0  0  0
   58.0050   31.7320   45.2980 C   0  0  0  0  0  0  0  0  0  0  0  0
   55.2940   28.7050   45.6480 H   0  0  0  0  0  0  0  0  0  0  0  0
   59.0929   24.7115   44.9176 H   0  0  0  0  0  0  0  0  0  0  0  0
   58.1914   22.4287   45.3303 H   0  0  0  0  0  0  0  0  0  0  0  0
   55.8199   22.1241   46.0370 H   0  0  0  0  0  0  0  0  0  0  0  0
   54.3441   24.1082   46.3382 H   0  0  0  0  0  0  0  0  0  0  0  0
   55.1500   27.4910   45.4530 H   0  0  0  0  0  0  0  0  0  0  0  0
   60.6928   32.8058   47.1483 H   0  0  0  0  0  0  0  0  0  0  0  0
   60.1202   34.9463   45.9621 H   0  0  0  0  0  0  0  0  0  0  0  0
   58.2273   35.0074   44.3320 H   0  0  0  0  0  0  0  0  0  0  0  0
   56.8690   32.9478   43.8907 H   0  0  0  0  0  0  0  0  0  0  0  0
  1  2  1  0
  2  3  2  0
  2  4  1  0
  4  5  2  0
  5  6  1  0
  6  7  1  0
  7  8  2  0
  7  9  1  0
  9 10  2  0
 10 11  1  0
 11 12  2  0
 12 13  1  0
 13 14  2  0
 14 15  1  0
  5 16  1  0
 16 17  1  0
 17 18  2  0
 18 19  1  0
 19 20  2  0
 20 21  1  0
 21 22  2  0
 22  4  1  0
 14  9  1  0
 22 17  1  0
  1 23  1  0
 10 24  1  0
 11 25  1  0
 12 26  1  0
 13 27  1  0
 15 28  1  0
 18 29  1  0
 19 30  1  0
 20 31  1  0
 21 32  1  0
M  CHG  2   1  -1   6  -1
M  END
>  <UniqueID>  (20) 
17

>  <SMILES>  (20) 
[NH-]C(=O)c1c([N-]C(=O)c2ccccc2O)sc2ccccc12

>  <Energy>  (20) 
73.29459267893962

>  <Genealogy>  (20) 
[NH-]C(=O)c1c([N-]C(=O)c2ccccc2O)sc2ccccc12 (protonated)
[NH-]C(=O)c1c([N-]C(=O)c2ccccc2O)sc2ccccc12 (3D coordinates assigned)
[NH-]C(=O)c1c([N-]C(=O)c2ccccc2O)sc2ccccc12 (optimized conformer: 73.29459267893962 kcal/mol)

>  <smiles>  (20) 
NC(=O)c1c(NC(=O)c2ccccc2O)sc2ccccc12

>  <score_type>  (20) 
oracle

>  <origin>  (20) 
adg

>  <m_score__min__energy>  (20) 
-13.49

>  <m_primary>  (20) 
energy

$$$$
20:0
     RDKit          3D

 47 51  0  0  0  0  0  0  0  0999 V2000
   59.2094   26.6837   48.1782 H   0  0  0  0  0  0  0  0  0  0  0  0
   59.4470   27.5520   47.5460 C   0  0  0  0  0  0  0  0  0  0  0  0
   60.3330   28.4650   47.8190 N   0  0  0  0  0  0  0  0  0  0  0  0
   60.3270   29.3730   46.7520 N   0  0  0  0  0  0  0  0  0  0  0  0
   60.3870   30.7120   46.8380 C   0  0  0  0  0  0  0  0  0  0  0  0
   61.0790   31.3400   47.7380 N   0  0  0  0  0  0  0  0  0  0  0  0
   62.4070   31.8810   47.4740 C   0  0  0  0  0  0  0  0  0  0  0  0
   62.9285   30.9249   47.3190 H   0  0  0  0  0  0  0  0  0  0  0  0
   62.7110   33.1540   48.2440 C   0  0  0  0  0  0  0  0  0  0  0  0
   61.9965   33.5290   48.9916 H   0  0  0  0  0  0  0  0  0  0  0  0
   63.5465   33.5069   48.8664 H   0  0  0  0  0  0  0  0  0  0  0  0
   62.3680   33.2200   46.7620 C   0  0  0  0  0  0  0  0  0  0  0  0
   61.4056   33.6432   46.4383 H   0  0  0  0  0  0  0  0  0  0  0  0
   62.8531   33.6409   45.8690 H   0  0  0  0  0  0  0  0  0  0  0  0
   59.5360   31.3150   45.9720 N   0  0  0  0  0  0  0  0  0  0  0  0
   58.9330   30.2430   45.3950 C   0  0  0  0  0  0  0  0  0  0  0  0
   57.8920   30.3300   44.6210 N   0  0  0  0  0  0  0  0  0  0  0  0
   57.0340   31.5070   44.5140 C   0  0  0  0  0  0  0  0  0  0  0  0
   56.1474   31.2490   43.9162 H   0  0  0  0  0  0  0  0  0  0  0  0
   56.7471   31.8166   45.5298 H   0  0  0  0  0  0  0  0  0  0  0  0
   57.7630   32.6800   43.8430 C   0  0  0  0  0  0  0  0  0  0  0  0
   58.7597   32.3448   43.5200 H   0  0  0  0  0  0  0  0  0  0  0  0
   57.1658   33.0124   42.9811 H   0  0  0  0  0  0  0  0  0  0  0  0
   57.9160   33.8200   44.7720 N   0  0  0  0  0  0  0  0  0  0  0  0
   57.5500   33.4930   46.1590 C   0  0  0  0  0  0  0  0  0  0  0  0
   56.5000   33.7641   46.3434 H   0  0  0  0  0  0  0  0  0  0  0  0
   57.6660   32.4150   46.3444 H   0  0  0  0  0  0  0  0  0  0  0  0
   58.4630   34.2950   47.0800 C   0  0  0  0  0  0  0  0  0  0  0  0
   57.8841   35.0496   47.6327 H   0  0  0  0  0  0  0  0  0  0  0  0
   58.9519   33.6537   47.8281 H   0  0  0  0  0  0  0  0  0  0  0  0
   59.4740   34.9660   46.1680 C   0  0  0  0  0  0  0  0  0  0  0  0
   59.2599   36.0410   46.0759 H   0  0  0  0  0  0  0  0  0  0  0  0
   60.5009   34.8848   46.5538 H   0  0  0  0  0  0  0  0  0  0  0  0
   59.3070   34.2720   44.8330 C   0  0  0  0  0  0  0  0  0  0  0  0
   59.5154   34.9730   44.0113 H   0  0  0  0  0  0  0  0  0  0  0  0
   60.0049   33.4277   44.7330 H   0  0  0  0  0  0  0  0  0  0  0  0
   59.4420   29.0730   45.8350 N   0  0  0  0  0  0  0  0  0  0  0  0
   58.8150   27.8670   46.2580 C   0  0  0  0  0  0  0  0  0  0  0  0
   57.8820   27.1440   45.6270 C   0  0  0  0  0  0  0  0  0  0  0  0
   57.6124   27.4364   44.6014 H   0  0  0  0  0  0  0  0  0  0  0  0
   57.1930   25.9840   46.2140 C   0  0  0  0  0  0  0  0  0  0  0  0
   57.8310   24.8680   46.6060 N   0  0  0  0  0  0  0  0  0  0  0  0
   56.8280   24.0560   47.0020 C   0  0  0  0  0  0  0  0  0  0  0  0
   57.0320   22.9000   47.4580 O   0  0  0  0  0  0  0  0  0  0  0  0
   55.5890   24.5740   46.8640 N   0  0  0  0  0  0  0  0  0  0  0  0
   55.8350   25.7900   46.3530 C   0  0  0  0  0  0  0  0  0  0  0  0
   54.8380   26.6880   45.9910 O   0  0  0  0  0  0  0  0  0  0  0  0
  1  2  1  0
  2  3  2  0
  3  4  1  0
  4  5  1  0
  5  6  2  0
  6  7  1  0
  7  8  1  0
  7  9  1  0
  9 10  1  0
  9 11  1  0
  9 12  1  0
 12 13  1  0
 12 14  1  0
  5 15  1  0
 15 16  1  0
 16 17  2  3
 17 18  1  0
 18 19  1  0
 18 20  1  0
 18 21  1  0
 21 22  1  0
 21 23  1  0
 21 24  1  0
 24 25  1  0
 25 26  1  0
 25 27  1  0
 25 28  1  0
 28 29  1  0
 28 30  1  0
 28 31  1  0
 31 32  1  0
 31 33  1  0
 31 34  1  0
 34 35  1  0
 34 36  1  0
 16 37  1  0
 37 38  1  0
 38 39  2  3
 39 40  1  0
 39 41  1  0
 41 42  1  0
 42 43  1  0
 43 44  2  0
 43 45  1  0
 45 46  1  0
 46 47  1  0
 38  2  1  0
 46 41  2  0
 37  4  1  0
 12  7  1  0
 34 24  1  0
M  CHG  4  15  -1  42  -1  45  -1  47  -1
M  END
>  <UniqueID>  (21) 
18

>  <SMILES>  (21) 
O=c1[n-]c([O-])c(C=C2C=Nn3/c(=N/C4CC4)[n-]c(=NCCN4CCCC4)n32)[n-]1

>  <Energy>  (21) 
441.9755363456952

>  <Genealogy>  (21) 
O=c1[n-]c([O-])c(C=C2C=Nn3c(=NC4CC4)[n-]c(=NCCN4CCCC4)n32)[n-]1 (protonated)
O=c1[n-]c([O-])c(C=C2C=Nn3/c(=N/C4CC4)[n-]c(=NCCN4CCCC4)n32)[n-]1 (cis-trans isomerization)
O=c1[n-]c([O-])c(C=C2C=Nn3/c(=N/C4CC4)[n-]c(=NCCN4CCCC4)n32)[n-]1 (3D coordinates assigned)
O=c1[n-]c([O-])c(C=C2C=Nn3/c(=N/C4CC4)[n-]c(=NCCN4CCCC4)n32)[n-]1 (nonaromatic ring conformer: 441.9755363456952 kcal/mol)

>  <smiles>  (21) 
O=c1[nH]c(O)c(C=C2C=Nn3c(=NC4CC4)[nH]c(=NCCN4CCCC4)n32)[nH]1

>  <score_type>  (21) 
oracle

>  <origin>  (21) 
adg

>  <m_score__min__energy>  (21) 
-16.699999999999999

>  <m_primary>  (21) 
energy

$$$$
21:0
     RDKit          3D

 41 43  0  0  0  0  0  0  0  0999 V2000
   54.9000   29.3460   45.7210 H   0  0  0  0  0  0  0  0  0  0  0  0
   55.5270   28.9430   44.9870 N   0  0  0  0  0  0  0  0  0  0  0  0
   56.6280   30.1920   44.5180 S   0  0  0  0  0  0  0  0  0  0  0  0
   55.9520   31.5310   44.6150 O   0  0  0  0  0  0  0  0  0  0  0  0
   57.0620   29.9510   43.1000 O   0  0  0  0  0  0  0  0  0  0  0  0
   58.0260   30.1650   45.5730 C   0  0  0  0  0  0  0  0  0  0  0  0
   58.1950   29.1930   46.9350 S   0  0  0  0  0  0  0  0  0  0  0  0
   59.7420   29.7760   47.2540 C   0  0  0  0  0  0  0  0  0  0  0  0
   60.7550   29.2520   48.6310 S   0  0  0  0  0  0  0  0  0  0  0  0
   61.5690   30.8500   48.7550 C   0  0  0  0  0  0  0  0  0  0  0  0
   62.4900   31.2190   47.7640 C   0  0  0  0  0  0  0  0  0  0  0  0
   62.6901   30.5405   46.9216 H   0  0  0  0  0  0  0  0  0  0  0  0
   63.1540   32.4450   47.8430 C   0  0  0  0  0  0  0  0  0  0  0  0
   63.8721   32.7332   47.0611 H   0  0  0  0  0  0  0  0  0  0  0  0
   62.9060   33.3050   48.9150 C   0  0  0  0  0  0  0  0  0  0  0  0
   63.4404   34.2639   48.9848 H   0  0  0  0  0  0  0  0  0  0  0  0
   61.9800   32.9490   49.8990 C   0  0  0  0  0  0  0  0  0  0  0  0
   61.7762   33.6384   50.7316 H   0  0  0  0  0  0  0  0  0  0  0  0
   61.3060   31.7150   49.8330 C   0  0  0  0  0  0  0  0  0  0  0  0
   60.3490   31.3230   50.8290 N   0  0  0  0  0  0  0  0  0  0  0  0
   58.6280   31.3130   50.6290 S   0  0  0  0  0  0  0  0  0  0  0  0
   58.0040   32.1260   51.7260 O   0  0  0  0  0  0  0  0  0  0  0  0
   58.1130   29.9020   50.7280 O   0  0  0  0  0  0  0  0  0  0  0  0
   58.2090   32.0440   49.0860 C   0  0  0  0  0  0  0  0  0  0  0  0
   57.4648   31.5493   48.4445 H   0  0  0  0  0  0  0  0  0  0  0  0
   58.7690   33.1830   48.6710 C   0  0  0  0  0  0  0  0  0  0  0  0
   59.3345   33.7894   49.3939 H   0  0  0  0  0  0  0  0  0  0  0  0
   58.6570   33.6590   47.2760 C   0  0  0  0  0  0  0  0  0  0  0  0
   57.4120   33.5670   46.6340 C   0  0  0  0  0  0  0  0  0  0  0  0
   56.5474   33.1523   47.1729 H   0  0  0  0  0  0  0  0  0  0  0  0
   57.2660   34.0000   45.3130 C   0  0  0  0  0  0  0  0  0  0  0  0
   56.2886   33.9196   44.8147 H   0  0  0  0  0  0  0  0  0  0  0  0
   58.3560   34.5340   44.6240 C   0  0  0  0  0  0  0  0  0  0  0  0
   58.2396   34.8623   43.5806 H   0  0  0  0  0  0  0  0  0  0  0  0
   59.5970   34.6520   45.2600 C   0  0  0  0  0  0  0  0  0  0  0  0
   60.4524   35.0835   44.7195 H   0  0  0  0  0  0  0  0  0  0  0  0
   59.7510   34.2220   46.5820 C   0  0  0  0  0  0  0  0  0  0  0  0
   60.9480   34.4100   47.1940 F   0  0  0  0  0  0  0  0  0  0  0  0
   60.1420   30.6870   46.3410 N   0  0  0  0  0  0  0  0  0  0  0  0
   59.1860   30.9090   45.4010 C   0  0  0  0  0  0  0  0  0  0  0  0
   59.3200   31.6196   44.5721 H   0  0  0  0  0  0  0  0  0  0  0  0
  1  2  1  0
  2  3  1  0
  3  4  2  0
  3  5  2  0
  3  6  1  0
  6  7  1  0
  7  8  1  0
  8  9  1  0
  9 10  1  0
 10 11  2  0
 11 12  1  0
 11 13  1  0
 13 14  1  0
 13 15  2  0
 15 16  1  0
 15 17  1  0
 17 18  1  0
 17 19  2  0
 19 20  1  0
 20 21  1  0
 21 22  2  0
 21 23  2  0
 21 24  1  0
 24 25  1  0
 24 26  2  0
 26 27  1  0
 26 28  1  0
 28 29  2  0
 29 30  1  0
 29 31  1  0
 31 32  1  0
 31 33  2  0
 33 34  1  0
 33 35  1  0
 35 36  1  0
 35 37  2  0
 37 38  1  0
  8 39  2  0
 39 40  1  0
 40 41  1  0
 40  6  2  0
 19 10  1  0
 37 28  1  0
M  CHG  2   2  -1  20  -1
M  END
>  <UniqueID>  (22) 
19

>  <SMILES>  (22) 
[NH-]S(=O)(=O)c1cnc(Sc2ccccc2[N-]S(=O)(=O)/C=C/c2ccccc2F)s1

>  <Energy>  (22) 
76.69199510599174

>  <Genealogy>  (22) 
[NH-]S(=O)(=O)c1cnc(Sc2ccccc2[N-]S(=O)(=O)C=Cc2ccccc2F)s1 (protonated)
[NH-]S(=O)(=O)c1cnc(Sc2ccccc2[N-]S(=O)(=O)/C=C/c2ccccc2F)s1 (cis-trans isomerization)
[NH-]S(=O)(=O)c1cnc(Sc2ccccc2[N-]S(=O)(=O)/C=C/c2ccccc2F)s1 (3D coordinates assigned)
[NH-]S(=O)(=O)c1cnc(Sc2ccccc2[N-]S(=O)(=O)/C=C/c2ccccc2F)s1 (optimized conformer: 76.69199510599174 kcal/mol)

>  <smiles>  (22) 
NS(=O)(=O)c1cnc(Sc2ccccc2NS(=O)(=O)C=Cc2ccccc2F)s1

>  <score_type>  (22) 
oracle

>  <origin>  (22) 
adg

>  <m_score__min__energy>  (22) 
-13.1

>  <m_primary>  (22) 
energy

$$$$
22:0
     RDKit          3D

 46 48  0  0  0  0  0  0  0  0999 V2000
   58.0950   30.3000   47.1640 O   0  0  0  0  0  0  0  0  0  0  0  0
   58.0130   29.9360   45.9610 C   0  0  0  0  0  0  0  0  0  0  0  0
   58.2270   28.5160   45.6030 C   0  0  0  0  0  0  0  0  0  0  0  0
   57.2480   27.6550   45.2920 C   0  0  0  0  0  0  0  0  0  0  0  0
   57.0530   26.3490   45.9430 C   0  0  0  0  0  0  0  0  0  0  0  0
   58.3010   25.3960   46.5520 S   0  0  0  0  0  0  0  0  0  0  0  0
   57.2470   24.2280   47.1480 C   0  0  0  0  0  0  0  0  0  0  0  0
   57.6190   23.1780   47.7370 O   0  0  0  0  0  0  0  0  0  0  0  0
   55.9490   24.5510   46.9250 N   0  0  0  0  0  0  0  0  0  0  0  0
   54.8030   23.7200   47.3100 C   0  0  0  0  0  0  0  0  0  0  0  0
   55.2510   22.3140   47.5520 C   0  0  0  0  0  0  0  0  0  0  0  0
   55.6660   21.9850   48.6920 O   0  0  0  0  0  0  0  0  0  0  0  0
   55.2900   21.3910   46.4550 N   0  0  0  0  0  0  0  0  0  0  0  0
   55.8700   21.5830   45.1560 C   0  0  0  0  0  0  0  0  0  0  0  0
   56.2670   20.5080   44.3380 C   0  0  0  0  0  0  0  0  0  0  0  0
   56.8270   20.7500   43.0810 C   0  0  0  0  0  0  0  0  0  0  0  0
   56.9770   22.0580   42.6190 C   0  0  0  0  0  0  0  0  0  0  0  0
   56.5520   23.1330   43.4120 C   0  0  0  0  0  0  0  0  0  0  0  0
   56.6750   24.4410   42.9560 O   0  0  0  0  0  0  0  0  0  0  0  0
   55.9970   22.8910   44.6720 C   0  0  0  0  0  0  0  0  0  0  0  0
   55.8380   25.7400   46.2650 C   0  0  0  0  0  0  0  0  0  0  0  0
   54.6040   26.3090   45.9670 O   0  0  0  0  0  0  0  0  0  0  0  0
   57.6520   30.9070   44.9720 N   0  0  0  0  0  0  0  0  0  0  0  0
   57.0100   32.1830   45.2610 C   0  0  0  0  0  0  0  0  0  0  0  0
   57.9940   33.1280   45.8930 C   0  0  0  0  0  0  0  0  0  0  0  0
   58.0740   33.2470   47.2890 C   0  0  0  0  0  0  0  0  0  0  0  0
   58.9600   34.1570   47.8710 C   0  0  0  0  0  0  0  0  0  0  0  0
   59.7690   34.9570   47.0650 C   0  0  0  0  0  0  0  0  0  0  0  0
   59.6930   34.8490   45.6750 C   0  0  0  0  0  0  0  0  0  0  0  0
   58.8100   33.9380   45.0880 C   0  0  0  0  0  0  0  0  0  0  0  0
   58.7550   33.8440   43.7340 F   0  0  0  0  0  0  0  0  0  0  0  0
   59.2611   28.1413   45.5913 H   0  0  0  0  0  0  0  0  0  0  0  0
   56.5436   27.9433   44.4978 H   0  0  0  0  0  0  0  0  0  0  0  0
   54.3533   24.1227   48.2296 H   0  0  0  0  0  0  0  0  0  0  0  0
   54.0610   23.7285   46.4980 H   0  0  0  0  0  0  0  0  0  0  0  0
   56.1358   19.4740   44.6897 H   0  0  0  0  0  0  0  0  0  0  0  0
   57.1507   19.9065   42.4535 H   0  0  0  0  0  0  0  0  0  0  0  0
   57.4283   22.2455   41.6335 H   0  0  0  0  0  0  0  0  0  0  0  0
   56.2390   25.2170   43.4410 H   0  0  0  0  0  0  0  0  0  0  0  0
   55.6569   23.7358   45.2890 H   0  0  0  0  0  0  0  0  0  0  0  0
   56.6352   32.6215   44.3244 H   0  0  0  0  0  0  0  0  0  0  0  0
   56.1753   32.0152   45.9575 H   0  0  0  0  0  0  0  0  0  0  0  0
   57.4354   32.6201   47.9287 H   0  0  0  0  0  0  0  0  0  0  0  0
   59.0194   34.2424   48.9661 H   0  0  0  0  0  0  0  0  0  0  0  0
   60.4668   35.6729   47.5240 H   0  0  0  0  0  0  0  0  0  0  0  0
   60.3297   35.4826   45.0400 H   0  0  0  0  0  0  0  0  0  0  0  0
  1  2  2  0
  2  3  1  0
  3  4  2  3
  4  5  1  0
  5  6  1  0
  6  7  1  0
  7  8  2  0
  7  9  1  0
  9 10  1  0
 10 11  1  0
 11 12  2  0
 11 13  1  0
 13 14  1  0
 14 15  2  0
 15 16  1  0
 16 17  2  0
 17 18  1  0
 18 19  1  0
 18 20  2  0
  9 21  1  0
 21 22  1  0
  2 23  1  0
 23 24  1  0
 24 25  1  0
 25 26  2  0
 26 27  1  0
 27 28  2  0
 28 29  1  0
 29 30  2  0
 30 31  1  0
 21  5  2  0
 30 25  1  0
 20 14  1  0
  3 32  1  0
  4 33  1  0
 10 34  1  0
 10 35  1  0
 15 36  1  0
 16 37  1  0
 17 38  1  0
 19 39  1  0
 20 40  1  0
 24 41  1  0
 24 42  1  0
 26 43  1  0
 27 44  1  0
 28 45  1  0
 29 46  1  0
M  CHG  3  13  -1  22  -1  23  -1
M  END
>  <UniqueID>  (23) 
20

>  <SMILES>  (23) 
O=C(C=Cc1sc(=O)n(CC(=O)[N-]c2cccc(O)c2)c1[O-])[N-]Cc1ccccc1F

>  <Energy>  (23) 
85.71314055946975

>  <Genealogy>  (23) 
O=C(C=Cc1sc(=O)n(CC(=O)[N-]c2cccc(O)c2)c1[O-])[N-]Cc1ccccc1F (protonated)
O=C(C=Cc1sc(=O)n(CC(=O)[N-]c2cccc(O)c2)c1[O-])[N-]Cc1ccccc1F (3D coordinates assigned)
O=C(C=Cc1sc(=O)n(CC(=O)[N-]c2cccc(O)c2)c1[O-])[N-]Cc1ccccc1F (optimized conformer: 85.71314055946975 kcal/mol)

>  <smiles>  (23) 
O=C(C=Cc1sc(=O)n(CC(=O)Nc2cccc(O)c2)c1O)NCc1ccccc1F

>  <score_type>  (23) 
oracle

>  <origin>  (23) 
adg

>  <m_score__min__energy>  (23) 
-14.130000000000001

>  <m_primary>  (23) 
energy

$$$$
23:0
     RDKit          3D

 43 45  0  0  0  0  0  0  0  0999 V2000
   55.5410   28.8790   45.2420 N   0  0  0  0  0  0  0  0  0  0  0  0
   56.6210   29.9590   44.4350 S   0  0  0  0  0  0  0  0  0  0  0  0
   55.8640   31.2260   44.1480 O   0  0  0  0  0  0  0  0  0  0  0  0
   57.0570   29.3610   43.1280 O   0  0  0  0  0  0  0  0  0  0  0  0
   58.0470   30.3310   45.4280 C   0  0  0  0  0  0  0  0  0  0  0  0
   58.1300   31.6250   45.9760 C   0  0  0  0  0  0  0  0  0  0  0  0
   59.2190   32.0060   46.7570 C   0  0  0  0  0  0  0  0  0  0  0  0
   60.2510   31.1050   47.0010 C   0  0  0  0  0  0  0  0  0  0  0  0
   60.1980   29.8210   46.4610 C   0  0  0  0  0  0  0  0  0  0  0  0
   59.1120   29.4150   45.6660 C   0  0  0  0  0  0  0  0  0  0  0  0
   59.1370   27.7580   45.0290 S   0  0  0  0  0  0  0  0  0  0  0  0
   60.0600   26.9320   45.8790 O   0  0  0  0  0  0  0  0  0  0  0  0
   59.6530   27.7540   43.6170 O   0  0  0  0  0  0  0  0  0  0  0  0
   57.5360   27.0900   45.0160 N   0  0  0  0  0  0  0  0  0  0  0  0
   57.0990   26.0520   45.9080 C   0  0  0  0  0  0  0  0  0  0  0  0
   57.7950   25.8410   47.1080 C   0  0  0  0  0  0  0  0  0  0  0  0
   57.3940   24.8350   47.9910 C   0  0  0  0  0  0  0  0  0  0  0  0
   56.2870   24.0390   47.6910 C   0  0  0  0  0  0  0  0  0  0  0  0
   55.5660   24.2540   46.5080 C   0  0  0  0  0  0  0  0  0  0  0  0
   54.1670   23.2610   46.1160 S   0  0  0  0  0  0  0  0  0  0  0  0
   53.2410   24.0460   45.2280 O   0  0  0  0  0  0  0  0  0  0  0  0
   53.4390   22.8750   47.3740 O   0  0  0  0  0  0  0  0  0  0  0  0
   54.7090   21.8330   45.2940 N   0  0  0  0  0  0  0  0  0  0  0  0
   55.8770   21.7190   44.7400 C   0  0  0  0  0  0  0  0  0  0  0  0
   55.9640   21.5830   43.3900 N   0  0  0  0  0  0  0  0  0  0  0  0
   57.1690   21.4590   42.7740 C   0  0  0  0  0  0  0  0  0  0  0  0
   58.3410   21.4710   43.5300 C   0  0  0  0  0  0  0  0  0  0  0  0
   58.2370   21.6120   44.9130 C   0  0  0  0  0  0  0  0  0  0  0  0
   57.0140   21.7310   45.4910 N   0  0  0  0  0  0  0  0  0  0  0  0
   55.9720   25.2600   45.6210 C   0  0  0  0  0  0  0  0  0  0  0  0
   54.6090   29.3480   45.2790 H   0  0  0  0  0  0  0  0  0  0  0  0
   57.3223   32.3467   45.7846 H   0  0  0  0  0  0  0  0  0  0  0  0
   59.2631   33.0200   47.1811 H   0  0  0  0  0  0  0  0  0  0  0  0
   61.1089   31.4061   47.6202 H   0  0  0  0  0  0  0  0  0  0  0  0
   61.0179   29.1151   46.6598 H   0  0  0  0  0  0  0  0  0  0  0  0
   56.8470   27.5110   44.3530 H   0  0  0  0  0  0  0  0  0  0  0  0
   58.6618   26.4715   47.3552 H   0  0  0  0  0  0  0  0  0  0  0  0
   57.9518   24.6699   48.9246 H   0  0  0  0  0  0  0  0  0  0  0  0
   55.9800   23.2418   48.3840 H   0  0  0  0  0  0  0  0  0  0  0  0
   57.2199   21.3493   41.6807 H   0  0  0  0  0  0  0  0  0  0  0  0
   59.3240   21.3716   43.0465 H   0  0  0  0  0  0  0  0  0  0  0  0
   59.1441   21.6268   45.5350 H   0  0  0  0  0  0  0  0  0  0  0  0
   55.4056   25.4317   44.6938 H   0  0  0  0  0  0  0  0  0  0  0  0
  1  2  1  0
  2  3  2  0
  2  4  2  0
  2  5  1  0
  5  6  2  0
  6  7  1  0
  7  8  2  0
  8  9  1  0
  9 10  2  0
 10 11  1  0
 11 12  2  0
 11 13  2  0
 11 14  1  0
 14 15  1  0
 15 16  2  0
 16 17  1  0
 17 18  2  0
 18 19  1  0
 19 20  1  0
 20 21  2  0
 20 22  2  0
 20 23  1  0
 23 24  2  3
 24 25  1  0
 25 26  2  0
 26 27  1  0
 27 28  2  0
 28 29  1  0
 19 30  2  0
 10  5  1  0
 30 15  1  0
 29 24  1  0
  1 31  1  0
  6 32  1  0
  7 33  1  0
  8 34  1  0
  9 35  1  0
 14 36  1  0
 16 37  1  0
 17 38  1  0
 18 39  1  0
 26 40  1  0
 27 41  1  0
 28 42  1  0
 30 43  1  0
M  CHG  2   1  -1  29  -1
M  END
>  <UniqueID>  (24) 
21

>  <SMILES>  (24) 
[NH-]S(=O)(=O)c1ccccc1S(=O)(=O)Nc1cccc(S(=O)(=O)N=c2nccc[n-]2)c1

>  <Energy>  (24) 
58.926633278000516

>  <Genealogy>  (24) 
[NH-]S(=O)(=O)c1ccccc1S(=O)(=O)Nc1cccc(S(=O)(=O)N=c2nccc[n-]2)c1 (protonated)
[NH-]S(=O)(=O)c1ccccc1S(=O)(=O)Nc1cccc(S(=O)(=O)N=c2nccc[n-]2)c1 (3D coordinates assigned)
[NH-]S(=O)(=O)c1ccccc1S(=O)(=O)Nc1cccc(S(=O)(=O)N=c2nccc[n-]2)c1 (optimized conformer: 58.926633278000516 kcal/mol)

>  <smiles>  (24) 
NS(=O)(=O)c1ccccc1S(=O)(=O)Nc1cccc(S(=O)(=O)N=c2nccc[nH]2)c1

>  <score_type>  (24) 
oracle

>  <origin>  (24) 
adg

>  <m_score__min__energy>  (24) 
-13.35

>  <m_primary>  (24) 
energy

$$$$
24:0
     RDKit          3D

 31 32  0  0  0  0  0  0  0  0999 V2000
   57.5008   33.7898   43.4770 H   0  0  0  0  0  0  0  0  0  0  0  0
   57.8280   32.9920   44.1600 C   0  0  0  0  0  0  0  0  0  0  0  0
   57.7190   31.7580   43.7540 N   0  0  0  0  0  0  0  0  0  0  0  0
   56.7050   30.8030   44.1050 C   0  0  0  0  0  0  0  0  0  0  0  0
   55.5630   31.1730   44.4900 O   0  0  0  0  0  0  0  0  0  0  0  0
   56.9920   29.3410   43.9620 C   0  0  0  0  0  0  0  0  0  0  0  0
   56.5007   28.9634   43.0531 H   0  0  0  0  0  0  0  0  0  0  0  0
   58.0806   29.1985   43.8935 H   0  0  0  0  0  0  0  0  0  0  0  0
   56.5040   28.6200   45.0930 O   0  0  0  0  0  0  0  0  0  0  0  0
   57.0320   27.4110   45.5780 C   0  0  0  0  0  0  0  0  0  0  0  0
   58.4180   27.1550   45.6260 C   0  0  0  0  0  0  0  0  0  0  0  0
   59.1290   27.9186   45.2775 H   0  0  0  0  0  0  0  0  0  0  0  0
   58.8910   25.9340   46.1150 C   0  0  0  0  0  0  0  0  0  0  0  0
   59.9730   25.7386   46.1476 H   0  0  0  0  0  0  0  0  0  0  0  0
   57.9950   24.9620   46.5620 C   0  0  0  0  0  0  0  0  0  0  0  0
   58.3710   24.0022   46.9458 H   0  0  0  0  0  0  0  0  0  0  0  0
   56.6210   25.2080   46.5220 C   0  0  0  0  0  0  0  0  0  0  0  0
   55.9155   24.4419   46.8761 H   0  0  0  0  0  0  0  0  0  0  0  0
   56.1400   26.4280   46.0320 C   0  0  0  0  0  0  0  0  0  0  0  0
   54.7700   26.6610   45.9980 O   0  0  0  0  0  0  0  0  0  0  0  0
   58.3630   33.3870   45.4790 C   0  0  0  0  0  0  0  0  0  0  0  0
   58.0970   32.5810   46.5960 C   0  0  0  0  0  0  0  0  0  0  0  0
   57.5203   31.6520   46.4765 H   0  0  0  0  0  0  0  0  0  0  0  0
   58.5620   32.9540   47.8600 C   0  0  0  0  0  0  0  0  0  0  0  0
   58.3644   32.3105   48.7300 H   0  0  0  0  0  0  0  0  0  0  0  0
   59.2780   34.1440   48.0200 C   0  0  0  0  0  0  0  0  0  0  0  0
   59.6504   34.4319   49.0142 H   0  0  0  0  0  0  0  0  0  0  0  0
   59.5210   34.9680   46.9180 C   0  0  0  0  0  0  0  0  0  0  0  0
   60.0776   35.9079   47.0475 H   0  0  0  0  0  0  0  0  0  0  0  0
   59.0580   34.6000   45.6510 C   0  0  0  0  0  0  0  0  0  0  0  0
   59.2680   35.4320   44.5990 F   0  0  0  0  0  0  0  0  0  0  0  0
  1  2  1  0
  2  3  2  0
  3  4  1  0
  4  5  2  0
  4  6  1  0
  6  7  1  0
  6  8  1  0
  6  9  1  0
  9 10  1  0
 10 11  2  0
 11 12  1  0
 11 13  1  0
 13 14  1  0
 13 15  2  0
 15 16  1  0
 15 17  1  0
 17 18  1  0
 17 19  2  0
 19 20  1  0
  2 21  1  0
 21 22  2  0
 22 23  1  0
 22 24  1  0
 24 25  1  0
 24 26  2  0
 26 27  1  0
 26 28  1  0
 28 29  1  0
 28 30  2  0
 30 31  1  0
 19 10  1  0
 30 21  1  0
M  CHG  1  20  -1
M  END
>  <UniqueID>  (25) 
22

>  <SMILES>  (25) 
O=C(COc1ccccc1[O-])/N=C\c1ccccc1F

>  <Energy>  (25) 
41.38949716905185

>  <Genealogy>  (25) 
O=C(COc1ccccc1[O-])N=Cc1ccccc1F (protonated)
O=C(COc1ccccc1[O-])/N=C\c1ccccc1F (cis-trans isomerization)
O=C(COc1ccccc1[O-])/N=C\c1ccccc1F (3D coordinates assigned)
O=C(COc1ccccc1[O-])/N=C\c1ccccc1F (optimized conformer: 41.38949716905185 kcal/mol)

>  <smiles>  (25) 
O=C(COc1ccccc1O)N=Cc1ccccc1F

>  <score_type>  (25) 
oracle

>  <origin>  (25) 
adg

>  <m_score__min__energy>  (25) 
-11.51

>  <m_primary>  (25) 
energy

$$$$
25:0
     RDKit          3D

 60 64  0  0  0  0  0  0  0  0999 V2000
   59.2980   30.8340   51.0740 C   0  0  0  0  0  0  0  0  0  0  0  0
   59.4470   29.8660   49.9400 C   0  0  0  0  0  0  0  0  0  0  0  0
   58.5770   29.8070   48.9140 N   0  0  0  0  0  0  0  0  0  0  0  0
   58.9510   28.7790   48.1280 C   0  0  0  0  0  0  0  0  0  0  0  0
   58.1660   28.3380   46.9250 C   0  0  0  0  0  0  0  0  0  0  0  0
   57.7230   29.5230   46.1190 C   0  0  0  0  0  0  0  0  0  0  0  0
   56.6060   29.6170   45.2980 C   0  0  0  0  0  0  0  0  0  0  0  0
   55.7250   28.5760   45.0390 O   0  0  0  0  0  0  0  0  0  0  0  0
   56.4700   30.8490   44.7550 N   0  0  0  0  0  0  0  0  0  0  0  0
   57.5140   31.5410   45.2440 C   0  0  0  0  0  0  0  0  0  0  0  0
   57.8220   32.8720   44.9800 C   0  0  0  0  0  0  0  0  0  0  0  0
   58.9680   33.4200   45.5820 C   0  0  0  0  0  0  0  0  0  0  0  0
   59.7910   32.6350   46.4320 C   0  0  0  0  0  0  0  0  0  0  0  0
   61.0110   33.2180   47.0490 C   0  0  0  0  0  0  0  0  0  0  0  0
   62.2020   33.4640   46.3390 C   0  0  0  0  0  0  0  0  0  0  0  0
   63.2150   34.0070   47.1180 C   0  0  0  0  0  0  0  0  0  0  0  0
   62.6360   34.1790   48.6840 S   0  0  0  0  0  0  0  0  0  0  0  0
   61.0960   33.5740   48.3950 C   0  0  0  0  0  0  0  0  0  0  0  0
   59.4430   31.2860   46.6780 C   0  0  0  0  0  0  0  0  0  0  0  0
   58.2960   30.7760   46.0710 C   0  0  0  0  0  0  0  0  0  0  0  0
   60.0880   28.1720   48.6520 C   0  0  0  0  0  0  0  0  0  0  0  0
   60.7840   26.9510   48.1270 C   0  0  0  0  0  0  0  0  0  0  0  0
   60.4120   28.8700   49.8090 C   0  0  0  0  0  0  0  0  0  0  0  0
   61.5130   28.5470   50.7470 C   0  0  0  0  0  0  0  0  0  0  0  0
   61.6420   27.3550   51.1420 O   0  0  0  0  0  0  0  0  0  0  0  0
   62.4520   29.5620   51.1820 N   0  0  1  0  0  0  0  0  0  0  0  0
   63.7170   28.9550   51.6350 C   0  0  0  0  0  0  0  0  0  0  0  0
   62.6470   30.6140   50.1520 C   0  0  0  0  0  0  0  0  0  0  0  0
   63.6370   31.6970   50.5380 C   0  0  0  0  0  0  0  0  0  0  0  0
   63.3910   32.5240   51.6480 C   0  0  0  0  0  0  0  0  0  0  0  0
   64.3050   33.5200   52.0060 C   0  0  0  0  0  0  0  0  0  0  0  0
   65.4670   33.7070   51.2530 C   0  0  0  0  0  0  0  0  0  0  0  0
   65.7090   32.9080   50.1330 C   0  0  0  0  0  0  0  0  0  0  0  0
   64.7970   31.9120   49.7710 C   0  0  0  0  0  0  0  0  0  0  0  0
   59.3809   30.2951   52.0294 H   0  0  0  0  0  0  0  0  0  0  0  0
   60.0895   31.5954   51.0126 H   0  0  0  0  0  0  0  0  0  0  0  0
   58.3141   31.3221   51.0126 H   0  0  0  0  0  0  0  0  0  0  0  0
   57.7430   30.4260   48.7760 H   0  0  0  0  0  0  0  0  0  0  0  0
   58.7976   27.6908   46.2988 H   0  0  0  0  0  0  0  0  0  0  0  0
   57.2760   27.7881   47.2649 H   0  0  0  0  0  0  0  0  0  0  0  0
   57.1862   33.4787   44.3184 H   0  0  0  0  0  0  0  0  0  0  0  0
   59.2307   34.4711   45.3920 H   0  0  0  0  0  0  0  0  0  0  0  0
   62.3189   33.2463   45.2671 H   0  0  0  0  0  0  0  0  0  0  0  0
   64.2225   34.2776   46.7692 H   0  0  0  0  0  0  0  0  0  0  0  0
   60.2923   33.4754   49.1395 H   0  0  0  0  0  0  0  0  0  0  0  0
   60.0623   30.6548   47.3323 H   0  0  0  0  0  0  0  0  0  0  0  0
   61.1338   26.3373   48.9702 H   0  0  0  0  0  0  0  0  0  0  0  0
   60.0840   26.3655   47.5129 H   0  0  0  0  0  0  0  0  0  0  0  0
   61.6445   27.2550   47.5129 H   0  0  0  0  0  0  0  0  0  0  0  0
   62.0460   30.0540   52.0110 H   0  0  0  0  0  0  0  0  0  0  0  0
   63.7443   28.9419   52.7346 H   0  0  0  0  0  0  0  0  0  0  0  0
   63.7867   27.9254   51.2542 H   0  0  0  0  0  0  0  0  0  0  0  0
   64.5638   29.5449   51.2542 H   0  0  0  0  0  0  0  0  0  0  0  0
   63.0076   30.1311   49.2318 H   0  0  0  0  0  0  0  0  0  0  0  0
   61.6740   31.1109   50.0244 H   0  0  0  0  0  0  0  0  0  0  0  0
   62.4734   32.3867   52.2389 H   0  0  0  0  0  0  0  0  0  0  0  0
   64.1090   34.1568   52.8812 H   0  0  0  0  0  0  0  0  0  0  0  0
   66.1910   34.4831   51.5420 H   0  0  0  0  0  0  0  0  0  0  0  0
   66.6189   33.0628   49.5346 H   0  0  0  0  0  0  0  0  0  0  0  0
   64.9873   31.2931   48.8818 H   0  0  0  0  0  0  0  0  0  0  0  0
  1  2  1  0
  2  3  1  0
  3  4  1  0
  4  5  1  0
  5  6  1  0
  6  7  2  0
  7  8  1  0
  7  9  1  0
  9 10  1  0
 10 11  2  0
 11 12  1  0
 12 13  2  0
 13 14  1  0
 14 15  1  0
 15 16  2  0
 16 17  1  0
 17 18  1  0
 13 19  1  0
 19 20  2  0
  4 21  2  0
 21 22  1  0
 21 23  1  0
 23 24  1  0
 24 25  2  0
 24 26  1  0
 26 27  1  0
 26 28  1  0
 28 29  1  0
 29 30  2  0
 30 31  1  0
 31 32  2  0
 32 33  1  0
 33 34  2  0
 23  2  2  0
 34 29  1  0
 20  6  1  0
 20 10  1  0
 18 14  2  0
  1 35  1  0
  1 36  1  0
  1 37  1  0
  3 38  1  0
  5 39  1  0
  5 40  1  0
 11 41  1  0
 12 42  1  0
 15 43  1  0
 16 44  1  0
 18 45  1  0
 19 46  1  0
 22 47  1  0
 22 48  1  0
 22 49  1  0
 26 50  1  1
 27 51  1  0
 27 52  1  0
 27 53  1  0
 28 54  1  0
 28 55  1  0
 30 56  1  0
 31 57  1  0
 32 58  1  0
 33 59  1  0
 34 60  1  0
M  CHG  3   8  -1   9  -1  26   1
M  END
>  <UniqueID>  (26) 
23

>  <SMILES>  (26) 
Cc1[nH]c(Cc2c([O-])[n-]c3ccc(-c4ccsc4)cc23)c(C)c1C(=O)[N@@H+](C)Cc1ccccc1

>  <Energy>  (26) 
158.37994665990095

>  <Genealogy>  (26) 
Cc1[nH]c(Cc2c([O-])[n-]c3ccc(-c4ccsc4)cc23)c(C)c1C(=O)[NH+](C)Cc1ccccc1 (protonated)
Cc1[nH]c(Cc2c([O-])[n-]c3ccc(-c4ccsc4)cc23)c(C)c1C(=O)[N@@H+](C)Cc1ccccc1 (chirality)
Cc1[nH]c(Cc2c([O-])[n-]c3ccc(-c4ccsc4)cc23)c(C)c1C(=O)[N@@H+](C)Cc1ccccc1 (3D coordinates assigned)
Cc1[nH]c(Cc2c([O-])[n-]c3ccc(-c4ccsc4)cc23)c(C)c1C(=O)[N@@H+](C)Cc1ccccc1 (optimized conformer: 158.37994665990095 kcal/mol)

>  <smiles>  (26) 
Cc1[nH]c(Cc2c(O)[nH]c3ccc(-c4ccsc4)cc23)c(C)c1C(=O)N(C)Cc1ccccc1

>  <score_type>  (26) 
oracle

>  <origin>  (26) 
adg

>  <m_score__min__energy>  (26) 
-11.199999999999999

>  <m_primary>  (26) 
energy

$$$$
26:0
     RDKit          3D

 40 42  0  0  0  0  0  0  0  0999 V2000
   55.1380   28.8350   42.6450 H   0  0  0  0  0  0  0  0  0  0  0  0
   55.5070   29.7760   42.7010 O   0  0  0  0  0  0  0  0  0  0  0  0
   56.4920   30.1200   43.6270 C   0  0  0  0  0  0  0  0  0  0  0  0
   57.4690   31.0690   43.3050 C   0  0  0  0  0  0  0  0  0  0  0  0
   57.4615   31.5490   42.3153 H   0  0  0  0  0  0  0  0  0  0  0  0
   58.4540   31.4090   44.2360 C   0  0  0  0  0  0  0  0  0  0  0  0
   59.2118   32.1632   43.9771 H   0  0  0  0  0  0  0  0  0  0  0  0
   58.4850   30.7960   45.5000 C   0  0  0  0  0  0  0  0  0  0  0  0
   59.5490   31.1930   46.4550 C   0  0  0  0  0  0  0  0  0  0  0  0
   60.4047   31.7665   46.0690 H   0  0  0  0  0  0  0  0  0  0  0  0
   59.5270   30.8930   47.7600 C   0  0  0  0  0  0  0  0  0  0  0  0
   58.6797   30.3162   48.1592 H   0  0  0  0  0  0  0  0  0  0  0  0
   60.6050   31.3120   48.6820 C   0  0  0  0  0  0  0  0  0  0  0  0
   61.6570   31.8360   48.2270 O   0  0  0  0  0  0  0  0  0  0  0  0
   60.4510   31.2050   50.1030 N   0  0  0  0  0  0  0  0  0  0  0  0
   59.3120   31.6260   50.8680 C   0  0  0  0  0  0  0  0  0  0  0  0
   59.1740   32.9820   51.1870 C   0  0  0  0  0  0  0  0  0  0  0  0
   59.9240   33.7059   50.8355 H   0  0  0  0  0  0  0  0  0  0  0  0
   58.0880   33.4210   51.9500 C   0  0  0  0  0  0  0  0  0  0  0  0
   57.9807   34.4896   52.1878 H   0  0  0  0  0  0  0  0  0  0  0  0
   57.1390   32.5060   52.4110 C   0  0  0  0  0  0  0  0  0  0  0  0
   56.2828   32.8557   53.0065 H   0  0  0  0  0  0  0  0  0  0  0  0
   57.2760   31.1430   52.1160 C   0  0  0  0  0  0  0  0  0  0  0  0
   56.1030   29.9740   52.7130 S   0  0  0  0  0  0  0  0  0  0  0  0
   55.6620   30.3780   54.0930 O   0  0  0  0  0  0  0  0  0  0  0  0
   56.7270   28.6080   52.7730 O   0  0  0  0  0  0  0  0  0  0  0  0
   54.7410   29.9480   51.6410 N   0  0  0  0  0  0  0  0  0  0  0  0
   53.5910   30.4610   51.9450 C   0  0  0  0  0  0  0  0  0  0  0  0
   53.0090   31.4690   51.2600 N   0  0  0  0  0  0  0  0  0  0  0  0
   51.8090   31.7990   51.8060 C   0  0  0  0  0  0  0  0  0  0  0  0
   51.0190   32.8110   51.2760 O   0  0  0  0  0  0  0  0  0  0  0  0
   51.4300   31.0620   52.9220 C   0  0  0  0  0  0  0  0  0  0  0  0
   50.4991   31.1846   53.4951 H   0  0  0  0  0  0  0  0  0  0  0  0
   52.6530   29.9470   53.2390 S   0  0  0  0  0  0  0  0  0  0  0  0
   58.3720   30.7040   51.3620 C   0  0  0  0  0  0  0  0  0  0  0  0
   58.4982   29.6311   51.1550 H   0  0  0  0  0  0  0  0  0  0  0  0
   57.4880   29.8520   45.8230 C   0  0  0  0  0  0  0  0  0  0  0  0
   57.4855   29.3777   46.8155 H   0  0  0  0  0  0  0  0  0  0  0  0
   56.5020   29.5150   44.8890 C   0  0  0  0  0  0  0  0  0  0  0  0
   55.5280   28.5800   45.2210 O   0  0  0  0  0  0  0  0  0  0  0  0
  1  2  1  0
  2  3  1  0
  3  4  2  0
  4  5  1  0
  4  6  1  0
  6  7  1  0
  6  8  2  0
  8  9  1  0
  9 10  1  0
  9 11  2  3
 11 12  1  0
 11 13  1  0
 13 14  2  0
 13 15  1  0
 15 16  1  0
 16 17  2  0
 17 18  1  0
 17 19  1  0
 19 20  1  0
 19 21  2  0
 21 22  1  0
 21 23  1  0
 23 24  1  0
 24 25  2  0
 24 26  2  0
 24 27  1  0
 27 28  2  0
 28 29  1  0
 29 30  1  0
 30 31  1  0
 30 32  2  0
 32 33  1  0
 32 34  1  0
 23 35  2  0
 35 36  1  0
  8 37  1  0
 37 38  1  0
 37 39  2  0
 39 40  1  0
 39  3  1  0
 35 16  1  0
 34 28  1  0
M  CHG  4  15  -1  29  -1  31  -1  40  -1
M  END
>  <UniqueID>  (27) 
24

>  <SMILES>  (27) 
O=C(C=Cc1ccc(O)c([O-])c1)[N-]c1cccc(S(=O)(=O)/N=c2\[n-]c([O-])cs2)c1

>  <Energy>  (27) 
82.27569168187804

>  <Genealogy>  (27) 
O=C(C=Cc1ccc(O)c([O-])c1)[N-]c1cccc(S(=O)(=O)N=c2[n-]c([O-])cs2)c1 (protonated)
O=C(C=Cc1ccc(O)c([O-])c1)[N-]c1cccc(S(=O)(=O)/N=c2\[n-]c([O-])cs2)c1 (cis-trans isomerization)
O=C(C=Cc1ccc(O)c([O-])c1)[N-]c1cccc(S(=O)(=O)/N=c2\[n-]c([O-])cs2)c1 (3D coordinates assigned)
O=C(C=Cc1ccc(O)c([O-])c1)[N-]c1cccc(S(=O)(=O)/N=c2\[n-]c([O-])cs2)c1 (optimized conformer: 82.27569168187804 kcal/mol)

>  <smiles>  (27) 
O=C(C=Cc1ccc(O)c(O)c1)Nc1cccc(S(=O)(=O)N=c2[nH]c(O)cs2)c1

>  <score_type>  (27) 
oracle

>  <origin>  (27) 
adg

>  <m_score__min__energy>  (27) 
-18.710000000000001

>  <m_primary>  (27) 
energy

$$$$
27:0
     RDKit          3D

 25 26  0  0  0  0  0  0  0  0999 V2000
   56.8510   30.1970   44.4780 O   0  0  0  0  0  0  0  0  0  0  0  0
   56.9730   29.0610   45.0060 C   0  0  0  0  0  0  0  0  0  0  0  0
   58.2380   28.5780   45.3480 C   0  0  0  0  0  0  0  0  0  0  0  0
   58.3530   27.3180   45.9320 C   0  0  0  0  0  0  0  0  0  0  0  0
   57.2080   26.5410   46.1720 C   0  0  0  0  0  0  0  0  0  0  0  0
   57.3410   25.1910   46.8310 C   0  0  0  0  0  0  0  0  0  0  0  0
   57.1050   24.0840   45.8320 C   0  0  0  0  0  0  0  0  0  0  0  0
   56.8980   24.4020   44.4790 C   0  0  0  0  0  0  0  0  0  0  0  0
   56.7110   23.3900   43.5330 C   0  0  0  0  0  0  0  0  0  0  0  0
   56.7330   22.0470   43.9270 C   0  0  0  0  0  0  0  0  0  0  0  0
   56.5490   21.0300   42.9930 O   0  0  0  0  0  0  0  0  0  0  0  0
   56.9440   21.7210   45.2700 C   0  0  0  0  0  0  0  0  0  0  0  0
   57.1320   22.7290   46.2210 C   0  0  0  0  0  0  0  0  0  0  0  0
   57.3390   22.3750   47.5500 O   0  0  0  0  0  0  0  0  0  0  0  0
   55.9520   27.0690   45.8100 C   0  0  0  0  0  0  0  0  0  0  0  0
   54.7860   26.3440   46.0200 O   0  0  0  0  0  0  0  0  0  0  0  0
   55.8720   28.3020   45.2420 N   0  0  0  0  0  0  0  0  0  0  0  0
   59.1347   29.1862   45.1582 H   0  0  0  0  0  0  0  0  0  0  0  0
   59.3452   26.9302   46.2063 H   0  0  0  0  0  0  0  0  0  0  0  0
   58.3539   25.0910   47.2482 H   0  0  0  0  0  0  0  0  0  0  0  0
   56.5895   25.1121   47.6304 H   0  0  0  0  0  0  0  0  0  0  0  0
   56.8830   25.4552   44.1619 H   0  0  0  0  0  0  0  0  0  0  0  0
   56.5462   23.6495   42.4768 H   0  0  0  0  0  0  0  0  0  0  0  0
   57.0140   20.1350   43.0850 H   0  0  0  0  0  0  0  0  0  0  0  0
   56.9622   20.6659   45.5804 H   0  0  0  0  0  0  0  0  0  0  0  0
  1  2  2  0
  2  3  1  0
  3  4  2  0
  4  5  1  0
  5  6  1  0
  6  7  1  0
  7  8  2  0
  8  9  1  0
  9 10  2  0
 10 11  1  0
 10 12  1  0
 12 13  2  0
 13 14  1  0
  5 15  2  0
 15 16  1  0
 15 17  1  0
 17  2  1  0
 13  7  1  0
  3 18  1  0
  4 19  1  0
  6 20  1  0
  6 21  1  0
  8 22  1  0
  9 23  1  0
 11 24  1  0
 12 25  1  0
M  CHG  3  14  -1  16  -1  17  -1
M  END
>  <UniqueID>  (28) 
25

>  <SMILES>  (28) 
O=c1ccc(Cc2ccc(O)cc2[O-])c([O-])[n-]1

>  <Energy>  (28) 
26.96343101328556

>  <Genealogy>  (28) 
O=c1ccc(Cc2ccc(O)cc2[O-])c([O-])[n-]1 (protonated)
O=c1ccc(Cc2ccc(O)cc2[O-])c([O-])[n-]1 (3D coordinates assigned)
O=c1ccc(Cc2ccc(O)cc2[O-])c([O-])[n-]1 (optimized conformer: 26.96343101328556 kcal/mol)

>  <smiles>  (28) 
O=c1ccc(Cc2ccc(O)cc2O)c(O)[nH]1

>  <score_type>  (28) 
oracle

>  <origin>  (28) 
adg

>  <m_score__min__energy>  (28) 
-14.529999999999999

>  <m_primary>  (28) 
energy

$$$$
28:0
     RDKit          3D

 40 42  0  0  0  0  0  0  0  0999 V2000
   56.9620   28.9650   44.0190 C   0  0  0  0  0  0  0  0  0  0  0  0
   56.6850   30.0890   44.7840 O   0  0  0  0  0  0  0  0  0  0  0  0
   57.4420   31.1980   45.0010 C   0  0  0  0  0  0  0  0  0  0  0  0
   58.0170   31.5620   46.1990 C   0  0  0  0  0  0  0  0  0  0  0  0
   58.7760   32.7000   46.3620 C   0  0  0  0  0  0  0  0  0  0  0  0
   59.3480   33.0570   47.5710 C   0  0  0  0  0  0  0  0  0  0  0  0
   60.1070   34.2280   47.6740 C   0  0  0  0  0  0  0  0  0  0  0  0
   60.6970   34.5440   48.9820 C   0  0  0  0  0  0  0  0  0  0  0  0
   62.0030   33.9430   49.2470 C   0  0  0  0  0  0  0  0  0  0  0  0
   62.8130   33.6550   48.1570 C   0  0  0  0  0  0  0  0  0  0  0  0
   64.0280   33.0830   48.2870 N   0  0  0  0  0  0  0  0  0  0  0  0
   64.4840   32.7760   49.5150 C   0  0  0  0  0  0  0  0  0  0  0  0
   65.6570   32.2180   49.6920 N   0  0  0  0  0  0  0  0  0  0  0  0
   63.7350   33.0350   50.6060 N   0  0  0  0  0  0  0  0  0  0  0  0
   62.5060   33.6140   50.4810 C   0  0  0  0  0  0  0  0  0  0  0  0
   61.8750   33.8430   51.5640 N   0  0  0  0  0  0  0  0  0  0  0  0
   60.2380   34.9680   46.5290 C   0  0  0  0  0  0  0  0  0  0  0  0
   59.6780   34.6160   45.3490 N   0  0  0  0  0  0  0  0  0  0  0  0
   58.9550   33.4990   45.2550 C   0  0  0  0  0  0  0  0  0  0  0  0
   58.4080   33.1950   44.0280 C   0  0  0  0  0  0  0  0  0  0  0  0
   57.6590   32.0500   43.9150 C   0  0  0  0  0  0  0  0  0  0  0  0
   57.1020   31.7330   42.6810 O   0  0  0  0  0  0  0  0  0  0  0  0
   57.6780   32.3290   41.5350 C   0  0  0  0  0  0  0  0  0  0  0  0
   57.1720   28.1128   44.6821 H   0  0  0  0  0  0  0  0  0  0  0  0
   56.0947   28.7307   43.3842 H   0  0  0  0  0  0  0  0  0  0  0  0
   57.8388   29.1605   43.3842 H   0  0  0  0  0  0  0  0  0  0  0  0
   57.8619   30.9097   47.0710 H   0  0  0  0  0  0  0  0  0  0  0  0
   59.2052   32.4174   48.4545 H   0  0  0  0  0  0  0  0  0  0  0  0
   60.8073   35.6364   49.0486 H   0  0  0  0  0  0  0  0  0  0  0  0
   60.0126   34.1198   49.7315 H   0  0  0  0  0  0  0  0  0  0  0  0
   62.4503   33.9027   47.1485 H   0  0  0  0  0  0  0  0  0  0  0  0
   64.6080   32.8830   47.4420 H   0  0  0  0  0  0  0  0  0  0  0  0
   66.3740   32.5710   48.9920 H   0  0  0  0  0  0  0  0  0  0  0  0
   64.1020   32.7900   51.5580 H   0  0  0  0  0  0  0  0  0  0  0  0
   62.3410   34.1430   52.4110 H   0  0  0  0  0  0  0  0  0  0  0  0
   60.8283   35.8952   46.5710 H   0  0  0  0  0  0  0  0  0  0  0  0
   58.5672   33.8528   43.1608 H   0  0  0  0  0  0  0  0  0  0  0  0
   58.4113   33.0878   41.8457 H   0  0  0  0  0  0  0  0  0  0  0  0
   58.1812   31.5572   40.9340 H   0  0  0  0  0  0  0  0  0  0  0  0
   56.8895   32.8055   40.9340 H   0  0  0  0  0  0  0  0  0  0  0  0
  1  2  1  0
  2  3  1  0
  3  4  2  0
  4  5  1  0
  5  6  2  0
  6  7  1  0
  7  8  1  0
  8  9  1  0
  9 10  2  0
 10 11  1  0
 11 12  1  0
 12 13  2  3
 12 14  1  0
 14 15  1  0
 15 16  2  3
  7 17  2  0
 17 18  1  0
 18 19  2  0
 19 20  1  0
 20 21  2  0
 21 22  1  0
 22 23  1  0
 21  3  1  0
 19  5  1  0
 15  9  1  0
  1 24  1  0
  1 25  1  0
  1 26  1  0
  4 27  1  0
  6 28  1  0
  8 29  1  0
  8 30  1  0
 10 31  1  0
 11 32  1  0
 13 33  1  0
 14 34  1  0
 16 35  1  0
 17 36  1  0
 20 37  1  0
 23 38  1  0
 23 39  1  0
 23 40  1  0
M  END
>  <smiles>  (29) 
COc1cc2cc(Cc3c[nH]c(=N)[nH]c3=N)cnc2cc1OC

>  <score_type>  (29) 
oracle

>  <origin>  (29) 
adg

>  <m_score__min__energy>  (29) 
-7.1299999999999999

>  <m_primary>  (29) 
energy

$$$$
29:0
     RDKit          3D

 50 52  0  0  0  0  0  0  0  0999 V2000
   60.0890   29.2980   44.8250 C   0  0  0  0  0  0  0  0  0  0  0  0
   58.6210   29.5670   44.6170 C   0  0  0  0  0  0  0  0  0  0  0  0
   58.2380   30.6480   43.8030 C   0  0  0  0  0  0  0  0  0  0  0  0
   56.8890   30.9040   43.5480 C   0  0  0  0  0  0  0  0  0  0  0  0
   55.9060   30.0810   44.0920 C   0  0  0  0  0  0  0  0  0  0  0  0
   56.2660   28.9960   44.8920 C   0  0  0  0  0  0  0  0  0  0  0  0
   57.6200   28.7230   45.1680 C   0  0  0  0  0  0  0  0  0  0  0  0
   57.9540   27.5410   46.0520 C   0  0  0  0  0  0  0  0  0  0  0  0
   58.1530   27.9390   47.5250 C   0  0  0  0  0  0  0  0  0  0  0  0
   59.5690   28.3650   47.8230 C   0  0  0  0  0  0  0  0  0  0  0  0
   60.5120   27.5960   47.4970 O   0  0  0  0  0  0  0  0  0  0  0  0
   59.8920   29.5950   48.4870 N   0  0  0  0  0  0  0  0  0  0  0  0
   59.2840   30.9060   48.2710 C   0  0  0  0  0  0  0  0  0  0  0  0
   60.0730   31.7240   47.2260 C   0  0  0  0  0  0  0  0  0  0  0  0
   59.2170   32.7120   46.4500 C   0  0  0  0  0  0  0  0  0  0  0  0
   57.8150   32.5800   46.4930 C   0  0  0  0  0  0  0  0  0  0  0  0
   56.9950   33.4460   45.7640 C   0  0  0  0  0  0  0  0  0  0  0  0
   57.5610   34.4470   44.9740 C   0  0  0  0  0  0  0  0  0  0  0  0
   58.9500   34.5810   44.9080 C   0  0  0  0  0  0  0  0  0  0  0  0
   59.7760   33.7170   45.6330 C   0  0  0  0  0  0  0  0  0  0  0  0
   61.2670   32.4230   47.8510 C   0  0  0  0  0  0  0  0  0  0  0  0
   62.5840   32.0600   47.5070 C   0  0  0  0  0  0  0  0  0  0  0  0
   63.6740   32.7170   48.0850 C   0  0  0  0  0  0  0  0  0  0  0  0
   63.4640   33.7430   49.0070 C   0  0  0  0  0  0  0  0  0  0  0  0
   62.1630   34.1160   49.3550 C   0  0  0  0  0  0  0  0  0  0  0  0
   61.0700   33.4610   48.7810 C   0  0  0  0  0  0  0  0  0  0  0  0
   60.3054   29.2583   45.9028 H   0  0  0  0  0  0  0  0  0  0  0  0
   60.3547   28.3362   44.3620 H   0  0  0  0  0  0  0  0  0  0  0  0
   60.6785   30.1031   44.3620 H   0  0  0  0  0  0  0  0  0  0  0  0
   59.0084   31.2982   43.3629 H   0  0  0  0  0  0  0  0  0  0  0  0
   56.6023   31.7575   42.9161 H   0  0  0  0  0  0  0  0  0  0  0  0
   54.8443   30.2866   43.8907 H   0  0  0  0  0  0  0  0  0  0  0  0
   55.4837   28.3466   45.3118 H   0  0  0  0  0  0  0  0  0  0  0  0
   57.1314   26.8131   45.9921 H   0  0  0  0  0  0  0  0  0  0  0  0
   58.9017   27.1141   45.6921 H   0  0  0  0  0  0  0  0  0  0  0  0
   57.4768   28.7745   47.7589 H   0  0  0  0  0  0  0  0  0  0  0  0
   57.9334   27.0553   48.1422 H   0  0  0  0  0  0  0  0  0  0  0  0
   58.2526   30.7684   47.9142 H   0  0  0  0  0  0  0  0  0  0  0  0
   59.2957   31.4558   49.2237 H   0  0  0  0  0  0  0  0  0  0  0  0
   60.4374   30.9886   46.4936 H   0  0  0  0  0  0  0  0  0  0  0  0
   57.3612   31.7876   47.1063 H   0  0  0  0  0  0  0  0  0  0  0  0
   55.9014   33.3381   45.8133 H   0  0  0  0  0  0  0  0  0  0  0  0
   56.9143   35.1300   44.4037 H   0  0  0  0  0  0  0  0  0  0  0  0
   59.3954   35.3692   44.2833 H   0  0  0  0  0  0  0  0  0  0  0  0
   60.8690   33.8215   45.5659 H   0  0  0  0  0  0  0  0  0  0  0  0
   62.7558   31.2539   46.7785 H   0  0  0  0  0  0  0  0  0  0  0  0
   64.6989   32.4247   47.8126 H   0  0  0  0  0  0  0  0  0  0  0  0
   64.3233   34.2587   49.4604 H   0  0  0  0  0  0  0  0  0  0  0  0
   61.9991   34.9257   50.0813 H   0  0  0  0  0  0  0  0  0  0  0  0
   60.0480   33.7589   49.0581 H   0  0  0  0  0  0  0  0  0  0  0  0
  1  2  1  0
  2  3  2  0
  3  4  1  0
  4  5  2  0
  5  6  1  0
  6  7  2  0
  7  8  1  0
  8  9  1  0
  9 10  1  0
 10 11  2  0
 10 12  1  0
 12 13  1  0
 13 14  1  0
 14 15  1  0
 15 16  2  0
 16 17  1  0
 17 18  2  0
 18 19  1  0
 19 20  2  0
 14 21  1  0
 21 22  2  0
 22 23  1  0
 23 24  2  0
 24 25  1  0
 25 26  2  0
  7  2  1  0
 20 15  1  0
 26 21  1  0
  1 27  1  0
  1 28  1  0
  1 29  1  0
  3 30  1  0
  4 31  1  0
  5 32  1  0
  6 33  1  0
  8 34  1  0
  8 35  1  0
  9 36  1  0
  9 37  1  0
 13 38  1  0
 13 39  1  0
 14 40  1  0
 16 41  1  0
 17 42  1  0
 18 43  1  0
 19 44  1  0
 20 45  1  0
 22 46  1  0
 23 47  1  0
 24 48  1  0
 25 49  1  0
 26 50  1  0
M  CHG  1  12  -1
M  END
>  <UniqueID>  (30) 
26

>  <SMILES>  (30) 
Cc1ccccc1CCC(=O)[N-]CC(c1ccccc1)c1ccccc1

>  <Energy>  (30) 
51.27004645144147

>  <Genealogy>  (30) 
Cc1ccccc1CCC(=O)[N-]CC(c1ccccc1)c1ccccc1 (protonated)
Cc1ccccc1CCC(=O)[N-]CC(c1ccccc1)c1ccccc1 (3D coordinates assigned)
Cc1ccccc1CCC(=O)[N-]CC(c1ccccc1)c1ccccc1 (optimized conformer: 51.27004645144147 kcal/mol)

>  <smiles>  (30) 
Cc1ccccc1CCC(=O)NCC(c1ccccc1)c1ccccc1

>  <score_type>  (30) 
oracle

>  <origin>  (30) 
adg

>  <m_score__min__energy>  (30) 
-9.6799999999999997

>  <m_primary>  (30) 
energy

$$$$
30:0
     RDKit          3D

 44 47  0  0  0  0  0  0  0  0999 V2000
   56.4320   22.5000   42.7320 C   0  0  0  0  0  0  0  0  0  0  0  0
   56.6050   23.5290   43.8930 C   0  0  0  0  0  0  0  0  0  0  0  0
   57.0990   24.8520   43.2420 C   0  0  0  0  0  0  0  0  0  0  0  0
   55.3490   23.6900   44.7960 C   0  0  1  0  0  0  0  0  0  0  0  0
   55.2840   22.2860   45.3860 C   0  0  0  0  0  0  0  0  0  0  0  0
   56.5570   21.8720   45.5650 C   0  0  0  0  0  0  0  0  0  0  0  0
   57.4390   23.0170   45.1030 C   0  0  1  0  0  0  0  0  0  0  0  0
   58.7720   22.6600   44.8540 O   0  0  0  0  0  0  0  0  0  0  0  0
   57.2120   24.1060   46.1340 C   0  0  0  0  0  0  0  0  0  0  0  0
   55.9170   24.5240   45.9320 C   0  0  0  0  0  0  0  0  0  0  0  0
   55.8890   25.8800   46.1930 C   0  0  0  0  0  0  0  0  0  0  0  0
   54.7930   26.7120   46.0050 O   0  0  0  0  0  0  0  0  0  0  0  0
   57.1150   26.2860   46.6080 N   0  0  0  0  0  0  0  0  0  0  0  0
   57.4940   27.5710   47.0380 N   0  0  0  0  0  0  0  0  0  0  0  0
   58.4360   28.3910   46.3410 C   0  0  0  0  0  0  0  0  0  0  0  0
   59.6630   28.1260   46.4340 O   0  0  0  0  0  0  0  0  0  0  0  0
   57.9880   29.5010   45.4710 C   0  0  0  0  0  0  0  0  0  0  0  0
   57.3470   29.2310   44.2510 C   0  0  0  0  0  0  0  0  0  0  0  0
   56.9100   30.2800   43.4390 C   0  0  0  0  0  0  0  0  0  0  0  0
   57.0880   31.6040   43.8470 C   0  0  0  0  0  0  0  0  0  0  0  0
   57.7050   31.8890   45.0720 C   0  0  0  0  0  0  0  0  0  0  0  0
   57.8660   33.5650   45.5950 S   0  0  0  0  0  0  0  0  0  0  0  0
   56.6480   34.5550   44.8690 N   0  0  0  0  0  0  0  0  0  0  0  0
   57.7460   33.6390   47.0910 O   0  0  0  0  0  0  0  0  0  0  0  0
   59.2130   34.0830   45.1770 O   0  0  0  0  0  0  0  0  0  0  0  0
   58.1630   30.8360   45.8770 C   0  0  0  0  0  0  0  0  0  0  0  0
   57.9370   25.2180   46.5170 C   0  0  0  0  0  0  0  0  0  0  0  0
   59.3170   25.2640   46.6920 O   0  0  0  0  0  0  0  0  0  0  0  0
   56.2635   21.4976   43.1525 H   0  0  0  0  0  0  0  0  0  0  0  0
   55.5696   22.7875   42.1127 H   0  0  0  0  0  0  0  0  0  0  0  0
   57.3410   22.4897   42.1127 H   0  0  0  0  0  0  0  0  0  0  0  0
   57.3674   25.5707   44.0303 H   0  0  0  0  0  0  0  0  0  0  0  0
   57.9809   24.6464   42.6176 H   0  0  0  0  0  0  0  0  0  0  0  0
   56.2981   25.2748   42.6176 H   0  0  0  0  0  0  0  0  0  0  0  0
   54.4230   24.0768   44.3455 H   0  0  0  0  0  0  0  0  0  0  0  0
   54.3723   21.7173   45.6215 H   0  0  0  0  0  0  0  0  0  0  0  0
   56.8873   20.9018   45.9645 H   0  0  0  0  0  0  0  0  0  0  0  0
   59.3380   23.3570   45.2750 H   0  0  0  0  0  0  0  0  0  0  0  0
   57.1885   28.1897   43.9338 H   0  0  0  0  0  0  0  0  0  0  0  0
   56.4246   30.0630   42.4760 H   0  0  0  0  0  0  0  0  0  0  0  0
   56.7422   32.4265   43.2036 H   0  0  0  0  0  0  0  0  0  0  0  0
   55.9250   34.7430   45.5960 H   0  0  0  0  0  0  0  0  0  0  0  0
   58.6624   31.0557   46.8322 H   0  0  0  0  0  0  0  0  0  0  0  0
   59.7990   26.1470   46.8020 H   0  0  0  0  0  0  0  0  0  0  0  0
  1  2  1  0
  2  3  1  0
  2  4  1  0
  4  5  1  0
  5  6  2  0
  6  7  1  0
  7  8  1  6
  7  9  1  0
  9 10  1  0
 10 11  2  0
 11 12  1  0
 11 13  1  0
 13 14  1  0
 14 15  1  0
 15 16  2  0
 15 17  1  0
 17 18  2  0
 18 19  1  0
 19 20  2  0
 20 21  1  0
 21 22  1  0
 22 23  1  0
 22 24  2  0
 22 25  2  0
 21 26  2  0
 13 27  1  0
 27 28  1  0
  7  2  1  0
 27  9  2  0
 10  4  1  0
 26 17  1  0
  1 29  1  0
  1 30  1  0
  1 31  1  0
  3 32  1  0
  3 33  1  0
  3 34  1  0
  4 35  1  6
  5 36  1  0
  6 37  1  0
  8 38  1  0
 18 39  1  0
 19 40  1  0
 20 41  1  0
 23 42  1  0
 26 43  1  0
 28 44  1  0
M  CHG  3  12  -1  14  -1  23  -1
M  END
>  <UniqueID>  (31) 
27

>  <SMILES>  (31) 
CC1(C)[C@H]2C=C[C@]1(O)c1c2c([O-])n([N-]C(=O)c2cccc(S([NH-])(=O)=O)c2)c1O

>  <Energy>  (31) 
177.2900473081786

>  <Genealogy>  (31) 
CC1(C)C2C=CC1(O)c1c2c([O-])n([N-]C(=O)c2cccc(S([NH-])(=O)=O)c2)c1O (protonated)
CC1(C)[C@H]2C=C[C@]1(O)c1c2c([O-])n([N-]C(=O)c2cccc(S([NH-])(=O)=O)c2)c1O (chirality)
CC1(C)[C@H]2C=C[C@]1(O)c1c2c([O-])n([N-]C(=O)c2cccc(S([NH-])(=O)=O)c2)c1O (3D coordinates assigned)
CC1(C)[C@H]2C=C[C@]1(O)c1c2c([O-])n([N-]C(=O)c2cccc(S([NH-])(=O)=O)c2)c1O (nonaromatic ring conformer: 177.2900473081786 kcal/mol)

>  <smiles>  (31) 
CC1(C)C2C=CC1(O)c1c2c(O)n(NC(=O)c2cccc(S(N)(=O)=O)c2)c1O

>  <score_type>  (31) 
oracle

>  <origin>  (31) 
adg

>  <m_score__min__energy>  (31) 
-13.800000000000001

>  <m_primary>  (31) 
energy

$$$$
31:0
     RDKit          3D

 46 48  0  0  0  0  0  0  0  0999 V2000
   58.7770   29.6650   49.5860 C   0  0  0  0  0  0  0  0  0  0  0  0
   58.4400   30.1690   48.3020 O   0  0  0  0  0  0  0  0  0  0  0  0
   59.0870   29.8240   47.1050 C   0  0  0  0  0  0  0  0  0  0  0  0
   58.5350   29.4960   45.8710 C   0  0  0  0  0  0  0  0  0  0  0  0
   57.1240   29.3790   45.4650 C   0  0  0  0  0  0  0  0  0  0  0  0
   56.5310   28.2750   45.6060 O   0  0  0  0  0  0  0  0  0  0  0  0
   56.4180   30.4730   44.8700 N   0  0  0  0  0  0  0  0  0  0  0  0
   57.0150   31.4740   43.9890 C   0  0  0  0  0  0  0  0  0  0  0  0
   57.6690   32.5670   44.7930 C   0  0  0  0  0  0  0  0  0  0  0  0
   58.5620   33.4630   44.1820 C   0  0  0  0  0  0  0  0  0  0  0  0
   59.2130   34.4340   44.9440 C   0  0  0  0  0  0  0  0  0  0  0  0
   58.9680   34.5340   46.3180 C   0  0  0  0  0  0  0  0  0  0  0  0
   59.6050   35.4800   47.0530 F   0  0  0  0  0  0  0  0  0  0  0  0
   58.0480   33.6760   46.9250 C   0  0  0  0  0  0  0  0  0  0  0  0
   57.4080   32.6880   46.1690 C   0  0  0  0  0  0  0  0  0  0  0  0
   59.6290   29.3210   45.0390 C   0  0  0  0  0  0  0  0  0  0  0  0
   60.7650   29.5150   45.7360 N   0  0  0  0  0  0  0  0  0  0  0  0
   60.4280   29.8090   46.9840 N   0  0  0  0  0  0  0  0  0  0  0  0
   61.4010   30.1050   48.0340 C   0  0  0  0  0  0  0  0  0  0  0  0
   61.9710   31.4870   47.8440 C   0  0  0  0  0  0  0  0  0  0  0  0
   63.1780   31.6410   47.1360 C   0  0  0  0  0  0  0  0  0  0  0  0
   63.7500   32.9060   46.9810 C   0  0  0  0  0  0  0  0  0  0  0  0
   63.1230   34.0300   47.5250 C   0  0  0  0  0  0  0  0  0  0  0  0
   61.9110   33.8930   48.2050 C   0  0  0  0  0  0  0  0  0  0  0  0
   61.3210   32.6310   48.3610 C   0  0  0  0  0  0  0  0  0  0  0  0
   60.0910   32.5190   49.0140 O   0  0  0  0  0  0  0  0  0  0  0  0
   59.6760   33.4600   49.9970 C   0  0  0  0  0  0  0  0  0  0  0  0
   58.5870   32.9820   50.7070 F   0  0  0  0  0  0  0  0  0  0  0  0
   60.7180   33.6950   50.8720 F   0  0  0  0  0  0  0  0  0  0  0  0
   58.3428   30.3144   50.3604 H   0  0  0  0  0  0  0  0  0  0  0  0
   58.3780   28.6458   49.6962 H   0  0  0  0  0  0  0  0  0  0  0  0
   59.8713   29.6443   49.6962 H   0  0  0  0  0  0  0  0  0  0  0  0
   57.7717   30.9907   43.3535 H   0  0  0  0  0  0  0  0  0  0  0  0
   56.2225   31.9170   43.3680 H   0  0  0  0  0  0  0  0  0  0  0  0
   58.7486   33.3990   43.0998 H   0  0  0  0  0  0  0  0  0  0  0  0
   59.9218   35.1237   44.4625 H   0  0  0  0  0  0  0  0  0  0  0  0
   57.8266   33.7772   47.9977 H   0  0  0  0  0  0  0  0  0  0  0  0
   56.6972   32.0026   46.6536 H   0  0  0  0  0  0  0  0  0  0  0  0
   59.5775   29.0627   43.9710 H   0  0  0  0  0  0  0  0  0  0  0  0
   60.9054   30.0485   49.0144 H   0  0  0  0  0  0  0  0  0  0  0  0
   62.2182   29.3705   47.9820 H   0  0  0  0  0  0  0  0  0  0  0  0
   63.6737   30.7600   46.7023 H   0  0  0  0  0  0  0  0  0  0  0  0
   64.6954   33.0174   46.4299 H   0  0  0  0  0  0  0  0  0  0  0  0
   63.5842   35.0229   47.4176 H   0  0  0  0  0  0  0  0  0  0  0  0
   61.4154   34.7823   48.6215 H   0  0  0  0  0  0  0  0  0  0  0  0
   59.3861   34.3920   49.4896 H   0  0  0  0  0  0  0  0  0  0  0  0
  1  2  1  0
  2  3  1  0
  3  4  2  0
  4  5  1  0
  5  6  2  0
  5  7  1  0
  7  8  1  0
  8  9  1  0
  9 10  2  0
 10 11  1  0
 11 12  2  0
 12 13  1  0
 12 14  1  0
 14 15  2  0
  4 16  1  0
 16 17  2  0
 17 18  1  0
 18 19  1  0
 19 20  1  0
 20 21  2  0
 21 22  1  0
 22 23  2  0
 23 24  1  0
 24 25  2  0
 25 26  1  0
 26 27  1  0
 27 28  1  0
 27 29  1  0
 18  3  1  0
 25 20  1  0
 15  9  1  0
  1 30  1  0
  1 31  1  0
  1 32  1  0
  8 33  1  0
  8 34  1  0
 10 35  1  0
 11 36  1  0
 14 37  1  0
 15 38  1  0
 16 39  1  0
 19 40  1  0
 19 41  1  0
 21 42  1  0
 22 43  1  0
 23 44  1  0
 24 45  1  0
 27 46  1  0
M  CHG  1   7  -1
M  END
>  <UniqueID>  (32) 
28

>  <SMILES>  (32) 
COc1c(C(=O)[N-]Cc2ccc(F)cc2)cnn1Cc1ccccc1OC(F)F

>  <Energy>  (32) 
83.27391712420513

>  <Genealogy>  (32) 
COc1c(C(=O)[N-]Cc2ccc(F)cc2)cnn1Cc1ccccc1OC(F)F (protonated)
COc1c(C(=O)[N-]Cc2ccc(F)cc2)cnn1Cc1ccccc1OC(F)F (3D coordinates assigned)
COc1c(C(=O)[N-]Cc2ccc(F)cc2)cnn1Cc1ccccc1OC(F)F (optimized conformer: 83.27391712420513 kcal/mol)

>  <smiles>  (32) 
COc1c(C(=O)NCc2ccc(F)cc2)cnn1Cc1ccccc1OC(F)F

>  <score_type>  (32) 
oracle

>  <origin>  (32) 
adg

>  <m_score__min__energy>  (32) 
-9.5299999999999994

>  <m_primary>  (32) 
energy

$$$$
32:0
     RDKit          3D

 36 37  0  0  0  0  0  0  0  0999 V2000
   60.3217   33.0850   46.7827 H   0  0  0  0  0  0  0  0  0  0  0  0
   59.5840   32.3810   46.3700 C   0  0  0  0  0  0  0  0  0  0  0  0
   59.5880   31.0470   46.7800 C   0  0  0  0  0  0  0  0  0  0  0  0
   60.3352   30.7040   47.5108 H   0  0  0  0  0  0  0  0  0  0  0  0
   58.6500   30.1410   46.2700 C   0  0  0  0  0  0  0  0  0  0  0  0
   58.6540   28.8420   46.7910 O   0  0  0  0  0  0  0  0  0  0  0  0
   58.9170   27.7390   46.0070 N   0  0  0  0  0  0  0  0  0  0  0  0
   58.0570   26.7780   45.8600 C   0  0  0  0  0  0  0  0  0  0  0  0
   56.5820   27.0450   46.0580 C   0  0  0  0  0  0  0  0  0  0  0  0
   56.2783   27.8334   45.3535 H   0  0  0  0  0  0  0  0  0  0  0  0
   56.4563   27.3361   47.1113 H   0  0  0  0  0  0  0  0  0  0  0  0
   55.6920   25.8470   45.8360 C   0  0  0  0  0  0  0  0  0  0  0  0
   54.4880   25.9790   45.9960 O   0  0  0  0  0  0  0  0  0  0  0  0
   56.2280   24.4870   45.4710 C   0  0  0  0  0  0  0  0  0  0  0  0
   55.5018   23.9898   44.8111 H   0  0  0  0  0  0  0  0  0  0  0  0
   56.3798   23.9312   46.4081 H   0  0  0  0  0  0  0  0  0  0  0  0
   57.5910   24.5490   44.7450 C   0  0  0  0  0  0  0  0  0  0  0  0
   58.1510   23.1170   44.6100 C   0  0  0  0  0  0  0  0  0  0  0  0
   58.3171   22.6924   45.6110 H   0  0  0  0  0  0  0  0  0  0  0  0
   57.4311   22.4920   44.0614 H   0  0  0  0  0  0  0  0  0  0  0  0
   59.1040   23.1462   44.0614 H   0  0  0  0  0  0  0  0  0  0  0  0
   57.4230   25.1410   43.3260 C   0  0  0  0  0  0  0  0  0  0  0  0
   57.1234   26.1967   43.4022 H   0  0  0  0  0  0  0  0  0  0  0  0
   58.3771   25.0689   42.7833 H   0  0  0  0  0  0  0  0  0  0  0  0
   56.6490   24.5785   42.7833 H   0  0  0  0  0  0  0  0  0  0  0  0
   58.5790   25.3960   45.5760 C   0  0  0  0  0  0  0  0  0  0  0  0
   59.5236   25.4834   45.0191 H   0  0  0  0  0  0  0  0  0  0  0  0
   58.7236   24.8888   46.5413 H   0  0  0  0  0  0  0  0  0  0  0  0
   57.7320   30.5700   45.2790 C   0  0  0  0  0  0  0  0  0  0  0  0
   56.8580   29.6500   44.6090 N   0  0  0  0  0  0  0  0  0  0  0  0
   57.2700   28.9990   43.6260 O   0  0  0  0  0  0  0  0  0  0  0  0
   55.5090   29.6660   44.8750 O   0  0  0  0  0  0  0  0  0  0  0  0
   57.7250   31.9210   44.8920 C   0  0  0  0  0  0  0  0  0  0  0  0
   56.9891   32.2722   44.1537 H   0  0  0  0  0  0  0  0  0  0  0  0
   58.6440   32.8230   45.4360 C   0  0  0  0  0  0  0  0  0  0  0  0
   58.6360   34.5010   44.9280 Cl  0  0  0  0  0  0  0  0  0  0  0  0
  1  2  1  0
  2  3  2  0
  3  4  1  0
  3  5  1  0
  5  6  1  0
  6  7  1  0
  7  8  2  0
  8  9  1  0
  9 10  1  0
  9 11  1  0
  9 12  1  0
 12 13  2  0
 12 14  1  0
 14 15  1  0
 14 16  1  0
 14 17  1  0
 17 18  1  0
 18 19  1  0
 18 20  1  0
 18 21  1  0
 17 22  1  0
 22 23  1  0
 22 24  1  0
 22 25  1  0
 17 26  1  0
 26 27  1  0
 26 28  1  0
  5 29  2  0
 29 30  1  0
 30 31  2  0
 30 32  1  0
 29 33  1  0
 33 34  1  0
 33 35  2  0
 35 36  1  0
 35  2  1  0
 26  8  1  0
M  CHG  2  30   1  32  -1
M  END
>  <UniqueID>  (33) 
29

>  <SMILES>  (33) 
CC1(C)CC(=O)C/C(=N\Oc2ccc(Cl)cc2[N+](=O)[O-])C1

>  <Energy>  (33) 
38.99066361356818

>  <Genealogy>  (33) 
CC1(C)CC(=O)C/C(=N\Oc2ccc(Cl)cc2[N+](=O)[O-])C1 (cis-trans isomerization)
CC1(C)CC(=O)C/C(=N\Oc2ccc(Cl)cc2[N+](=O)[O-])C1 (3D coordinates assigned)
CC1(C)CC(=O)C/C(=N\Oc2ccc(Cl)cc2[N+](=O)[O-])C1 (nonaromatic ring conformer: 38.99066361356818 kcal/mol)

>  <smiles>  (33) 
CC1(C)CC(=O)CC(=NOc2ccc(Cl)cc2[N+](=O)[O-])C1

>  <score_type>  (33) 
oracle

>  <origin>  (33) 
adg

>  <m_score__min__energy>  (33) 
-8.0500000000000007

>  <m_primary>  (33) 
energy

$$$$
33:0
     RDKit          3D

 41 43  0  0  0  0  0  0  0  0999 V2000
   58.1978   31.3281   43.5777 H   0  0  0  0  0  0  0  0  0  0  0  0
   58.4510   31.3480   44.6480 C   0  0  0  0  0  0  0  0  0  0  0  0
   58.4180   30.1850   45.3150 C   0  0  0  0  0  0  0  0  0  0  0  0
   59.8780   29.5380   46.0990 S   0  0  0  0  0  0  0  0  0  0  0  0
   58.8400   28.2250   46.7550 C   0  0  0  0  0  0  0  0  0  0  0  0
   59.2140   27.5790   47.9870 S   0  0  0  0  0  0  0  0  0  0  0  0
   57.5090   28.0800   46.2050 N   0  0  2  0  0  0  0  0  0  0  0  0
   56.8000   27.9490   46.9670 H   0  0  0  0  0  0  0  0  0  0  0  0
   57.4830   26.9530   45.2500 C   0  0  0  0  0  0  0  0  0  0  0  0
   58.4254   26.3920   45.3345 H   0  0  0  0  0  0  0  0  0  0  0  0
   57.3590   27.3638   44.2372 H   0  0  0  0  0  0  0  0  0  0  0  0
   56.3370   26.0230   45.5220 C   0  0  0  0  0  0  0  0  0  0  0  0
   56.4750   24.7830   45.3520 O   0  0  0  0  0  0  0  0  0  0  0  0
   55.1320   26.5240   45.9970 O   0  0  0  0  0  0  0  0  0  0  0  0
   57.2530   29.3250   45.5390 C   0  0  0  0  0  0  0  0  0  0  0  0
   56.0760   29.6790   45.2580 O   0  0  0  0  0  0  0  0  0  0  0  0
   58.8020   32.6540   45.2430 C   0  0  0  0  0  0  0  0  0  0  0  0
   58.9730   33.7660   44.4080 C   0  0  0  0  0  0  0  0  0  0  0  0
   58.8809   33.6525   43.3177 H   0  0  0  0  0  0  0  0  0  0  0  0
   59.2600   35.0180   44.9560 C   0  0  0  0  0  0  0  0  0  0  0  0
   59.4111   35.8839   44.2947 H   0  0  0  0  0  0  0  0  0  0  0  0
   59.3560   35.1750   46.3410 C   0  0  0  0  0  0  0  0  0  0  0  0
   59.5924   36.1616   46.7661 H   0  0  0  0  0  0  0  0  0  0  0  0
   59.1510   34.0740   47.1940 C   0  0  0  0  0  0  0  0  0  0  0  0
   59.2180   34.1750   48.5930 O   0  0  0  0  0  0  0  0  0  0  0  0
   60.2290   33.5920   49.4160 C   0  0  0  0  0  0  0  0  0  0  0  0
   60.5279   34.3162   50.1882 H   0  0  0  0  0  0  0  0  0  0  0  0
   59.8237   32.6819   49.8823 H   0  0  0  0  0  0  0  0  0  0  0  0
   61.4350   33.2190   48.5950 C   0  0  0  0  0  0  0  0  0  0  0  0
   61.6260   31.8950   48.1670 C   0  0  0  0  0  0  0  0  0  0  0  0
   60.8859   31.1233   48.4256 H   0  0  0  0  0  0  0  0  0  0  0  0
   62.7540   31.5540   47.4130 C   0  0  0  0  0  0  0  0  0  0  0  0
   62.8959   30.5170   47.0748 H   0  0  0  0  0  0  0  0  0  0  0  0
   63.7010   32.5300   47.0890 C   0  0  0  0  0  0  0  0  0  0  0  0
   64.5863   32.2613   46.4940 H   0  0  0  0  0  0  0  0  0  0  0  0
   63.5230   33.8470   47.5210 C   0  0  0  0  0  0  0  0  0  0  0  0
   64.2701   34.6138   47.2685 H   0  0  0  0  0  0  0  0  0  0  0  0
   62.3960   34.1910   48.2740 C   0  0  0  0  0  0  0  0  0  0  0  0
   62.2618   35.2277   48.6164 H   0  0  0  0  0  0  0  0  0  0  0  0
   58.8670   32.8210   46.6360 C   0  0  0  0  0  0  0  0  0  0  0  0
   58.6930   31.9584   47.2960 H   0  0  0  0  0  0  0  0  0  0  0  0
  1  2  1  0
  2  3  2  0
  3  4  1  0
  4  5  1  0
  5  6  2  0
  5  7  1  0
  7  8  1  1
  7  9  1  0
  9 10  1  0
  9 11  1  0
  9 12  1  0
 12 13  2  0
 12 14  1  0
  7 15  1  0
 15 16  2  0
  2 17  1  0
 17 18  2  0
 18 19  1  0
 18 20  1  0
 20 21  1  0
 20 22  2  0
 22 23  1  0
 22 24  1  0
 24 25  1  0
 25 26  1  0
 26 27  1  0
 26 28  1  0
 26 29  1  0
 29 30  2  0
 30 31  1  0
 30 32  1  0
 32 33  1  0
 32 34  2  0
 34 35  1  0
 34 36  1  0
 36 37  1  0
 36 38  2  0
 38 39  1  0
 24 40  2  0
 40 41  1  0
 15  3  1  0
 40 17  1  0
 38 29  1  0
M  CHG  2   7   1  14  -1
M  END
>  <UniqueID>  (34) 
30

>  <SMILES>  (34) 
O=C([O-])C[N@@H+]1C(=O)/C(=C\c2cccc(OCc3ccccc3)c2)SC1=S

>  <Energy>  (34) 
67.64147973535336

>  <Genealogy>  (34) 
O=C([O-])C[NH+]1C(=O)C(=Cc2cccc(OCc3ccccc3)c2)SC1=S (protonated)
O=C([O-])C[N@@H+]1C(=O)C(=Cc2cccc(OCc3ccccc3)c2)SC1=S (chirality)
O=C([O-])C[N@@H+]1C(=O)/C(=C\c2cccc(OCc3ccccc3)c2)SC1=S (cis-trans isomerization)
O=C([O-])C[N@@H+]1C(=O)/C(=C\c2cccc(OCc3ccccc3)c2)SC1=S (3D coordinates assigned)
O=C([O-])C[N@@H+]1C(=O)/C(=C\c2cccc(OCc3ccccc3)c2)SC1=S (nonaromatic ring conformer: 67.64147973535336 kcal/mol)

>  <smiles>  (34) 
O=C(O)CN1C(=O)C(=Cc2cccc(OCc3ccccc3)c2)SC1=S

>  <score_type>  (34) 
oracle

>  <origin>  (34) 
adg

>  <m_score__min__energy>  (34) 
-10.17

>  <m_primary>  (34) 
energy

$$$$
34:0
     RDKit          3D

 46 48  0  0  1  0  0  0  0  0999 V2000
   57.7840   32.3140   41.6590 C   0  0  0  0  0  0  0  0  0  0  0  0
   57.8660   32.4500   43.1490 C   0  0  0  0  0  0  0  0  0  0  0  0
   57.1910   31.6740   43.8440 O   0  0  0  0  0  0  0  0  0  0  0  0
   58.7170   33.4680   43.6580 N   0  0  0  0  0  0  0  0  0  0  0  0
   58.8870   33.7060   45.0540 C   0  0  0  0  0  0  0  0  0  0  0  0
   59.3460   34.9580   45.4750 C   0  0  0  0  0  0  0  0  0  0  0  0
   59.5230   35.2260   46.8170 C   0  0  0  0  0  0  0  0  0  0  0  0
   59.2380   34.2320   47.7320 C   0  0  0  0  0  0  0  0  0  0  0  0
   58.7830   32.9800   47.3690 C   0  0  0  0  0  0  0  0  0  0  0  0
   60.1650   28.2960   46.2640 N   0  0  0  0  0  0  0  0  0  0  0  0
   59.9630   28.9770   47.3340 C   0  0  0  0  0  0  0  0  0  0  0  0
   59.5490   30.3910   49.5830 N   0  0  0  0  0  0  0  0  0  0  0  0
   60.1960   29.2300   49.6570 C   0  0  0  0  0  0  0  0  0  0  0  0
   60.4340   28.4630   48.5170 C   0  0  0  0  0  0  0  0  0  0  0  0
   59.1160   30.8350   48.3910 C   0  0  0  0  0  0  0  0  0  0  0  0
   58.4900   31.9570   48.3160 N   0  0  0  0  0  0  0  0  0  0  0  0
   59.3800   27.1520   45.9580 C   0  0  0  0  0  0  0  0  0  0  0  0
   59.7350   25.8690   46.3400 C   0  0  0  0  0  0  0  0  0  0  0  0
   58.9000   24.8200   45.9920 C   0  0  0  0  0  0  0  0  0  0  0  0
   57.7300   24.9950   45.2820 C   0  0  0  0  0  0  0  0  0  0  0  0
   57.3980   26.3030   44.9110 C   0  0  0  0  0  0  0  0  0  0  0  0
   58.2010   27.3770   45.2370 C   0  0  0  0  0  0  0  0  0  0  0  0
   57.7630   28.9970   44.7610 S   0  0  0  0  0  0  0  0  0  0  0  0
   59.0930   29.9570   44.2960 N   0  0  0  0  0  0  0  0  0  0  0  0
   56.9880   29.7000   45.8390 O   0  0  0  0  0  0  0  0  0  0  0  0
   56.8360   28.9040   43.5770 O   0  0  0  0  0  0  0  0  0  0  0  0
   59.3050   30.1550   47.2520 N   0  0  0  0  0  0  0  0  0  0  0  0
   58.6210   32.7600   46.0050 C   0  0  0  0  0  0  0  0  0  0  0  0
   57.2315   31.3976   41.4043 H   0  0  0  0  0  0  0  0  0  0  0  0
   57.2610   33.1860   41.2394 H   0  0  0  0  0  0  0  0  0  0  0  0
   58.7993   32.2585   41.2394 H   0  0  0  0  0  0  0  0  0  0  0  0
   59.2780   34.1110   43.0270 H   0  0  0  0  0  0  0  0  0  0  0  0
   59.5679   35.7361   44.7298 H   0  0  0  0  0  0  0  0  0  0  0  0
   59.8834   36.2103   47.1506 H   0  0  0  0  0  0  0  0  0  0  0  0
   59.3802   34.4479   48.8012 H   0  0  0  0  0  0  0  0  0  0  0  0
   59.3680   30.9680   50.4330 H   0  0  0  0  0  0  0  0  0  0  0  0
   60.5490   28.8694   50.6344 H   0  0  0  0  0  0  0  0  0  0  0  0
   60.9679   27.5023   48.5627 H   0  0  0  0  0  0  0  0  0  0  0  0
   60.6597   25.6870   46.9073 H   0  0  0  0  0  0  0  0  0  0  0  0
   59.1826   23.8011   46.2955 H   0  0  0  0  0  0  0  0  0  0  0  0
   57.0858   24.1431   45.0188 H   0  0  0  0  0  0  0  0  0  0  0  0
   56.4720   26.4798   44.3442 H   0  0  0  0  0  0  0  0  0  0  0  0
   58.9870   30.4350   43.3750 H   0  0  0  0  0  0  0  0  0  0  0  0
   60.0270   29.5090   44.4170 H   0  0  0  0  0  0  0  0  0  0  0  0
   58.9630   30.5060   46.3100 H   0  0  0  0  0  0  0  0  0  0  0  0
   58.2605   31.7747   45.6745 H   0  0  0  0  0  0  0  0  0  0  0  0
  1  2  1  0
  2  3  2  0
  2  4  1  0
  4  5  1  0
  5  6  2  0
  6  7  1  0
  7  8  2  0
  8  9  1  0
  9 10  1  0
 10 11  2  0
 11 12  1  0
 12 13  1  0
 13 14  2  0
 14 15  1  0
 15 16  2  0
 16 17  1  0
 17 18  2  0
 18 19  1  0
 19 20  2  0
 20 21  1  0
 21 22  2  0
 22 23  1  0
 23 24  1  0
 23 25  2  0
 23 26  2  0
 15 27  1  0
  9 28  2  0
 28  5  1  0
 27 11  1  0
 22 17  1  0
  1 29  1  0
  1 30  1  0
  1 31  1  0
  4 32  1  0
  6 33  1  0
  7 34  1  0
  8 35  1  0
 12 36  1  0
 13 37  1  0
 14 38  1  0
 18 39  1  0
 19 40  1  0
 20 41  1  0
 21 42  1  0
 24 43  1  0
 24 44  1  0
 27 45  1  0
 28 46  1  0
M  END
>  <smiles>  (35) 
CC(=O)Nc1cccc(N=c2[nH]ccc(=Nc3ccccc3S(N)(=O)=O)[nH]2)c1

>  <score_type>  (35) 
oracle

>  <origin>  (35) 
adg

>  <m_score__min__energy>  (35) 
-8.5800000000000001

>  <m_primary>  (35) 
energy

$$$$
35:0
     RDKit          3D

 53 55  0  0  0  0  0  0  0  0999 V2000
   59.5720   30.5260   50.6330 O   0  0  0  0  0  0  0  0  0  0  0  0
   59.4920   30.1780   49.4230 C   0  0  0  0  0  0  0  0  0  0  0  0
   60.1930   28.9330   48.9670 C   0  0  0  0  0  0  0  0  0  0  0  0
   60.3920   28.9650   47.5090 N   0  0  0  0  0  0  0  0  0  0  0  0
   60.2620   27.7170   46.7430 C   0  0  0  0  0  0  0  0  0  0  0  0
   58.8090   27.3710   46.5490 C   0  0  0  0  0  0  0  0  0  0  0  0
   57.9790   28.2160   45.7960 C   0  0  0  0  0  0  0  0  0  0  0  0
   56.6360   27.8860   45.5900 C   0  0  0  0  0  0  0  0  0  0  0  0
   56.1140   26.7070   46.1320 C   0  0  0  0  0  0  0  0  0  0  0  0
   54.7830   26.3750   45.9180 O   0  0  0  0  0  0  0  0  0  0  0  0
   56.9330   25.8610   46.8850 C   0  0  0  0  0  0  0  0  0  0  0  0
   58.2770   26.1880   47.0920 C   0  0  0  0  0  0  0  0  0  0  0  0
   60.7970   30.1780   46.8270 C   0  0  0  0  0  0  0  0  0  0  0  0
   60.0270   30.7040   45.9790 O   0  0  0  0  0  0  0  0  0  0  0  0
   62.1030   30.8670   47.1170 C   0  0  0  0  0  0  0  0  0  0  0  0
   61.9770   32.6710   46.8570 S   0  0  0  0  0  0  0  0  0  0  0  0
   62.8080   33.1160   48.3860 C   0  0  0  0  0  0  0  0  0  0  0  0
   64.1320   32.7140   48.6040 C   0  0  0  0  0  0  0  0  0  0  0  0
   64.7810   33.0570   49.7930 C   0  0  0  0  0  0  0  0  0  0  0  0
   64.1110   33.8070   50.7650 C   0  0  0  0  0  0  0  0  0  0  0  0
   62.7930   34.2190   50.5440 C   0  0  0  0  0  0  0  0  0  0  0  0
   62.1420   33.8790   49.3530 C   0  0  0  0  0  0  0  0  0  0  0  0
   58.7260   30.9580   48.4960 N   0  0  0  0  0  0  0  0  0  0  0  0
   58.4410   32.3720   48.7290 C   0  0  0  0  0  0  0  0  0  0  0  0
   58.5320   33.1260   47.4320 C   0  0  0  0  0  0  0  0  0  0  0  0
   59.2950   34.3030   47.3540 C   0  0  0  0  0  0  0  0  0  0  0  0
   59.3190   35.0500   46.1720 C   0  0  0  0  0  0  0  0  0  0  0  0
   58.5760   34.6340   45.0650 C   0  0  0  0  0  0  0  0  0  0  0  0
   57.8040   33.4700   45.1390 C   0  0  0  0  0  0  0  0  0  0  0  0
   57.7760   32.7210   46.3190 C   0  0  0  0  0  0  0  0  0  0  0  0
   61.1711   28.8638   49.4655 H   0  0  0  0  0  0  0  0  0  0  0  0
   59.5763   28.0595   49.2254 H   0  0  0  0  0  0  0  0  0  0  0  0
   60.7392   27.8433   45.7600 H   0  0  0  0  0  0  0  0  0  0  0  0
   60.7521   26.9038   47.2984 H   0  0  0  0  0  0  0  0  0  0  0  0
   58.3871   29.1425   45.3658 H   0  0  0  0  0  0  0  0  0  0  0  0
   55.9898   28.5538   45.0015 H   0  0  0  0  0  0  0  0  0  0  0  0
   56.5200   24.9368   47.3154 H   0  0  0  0  0  0  0  0  0  0  0  0
   58.9199   25.5177   47.6814 H   0  0  0  0  0  0  0  0  0  0  0  0
   62.3845   30.6749   48.1629 H   0  0  0  0  0  0  0  0  0  0  0  0
   62.8640   30.4703   46.4289 H   0  0  0  0  0  0  0  0  0  0  0  0
   64.6614   32.1277   47.8384 H   0  0  0  0  0  0  0  0  0  0  0  0
   65.8193   32.7370   49.9646 H   0  0  0  0  0  0  0  0  0  0  0  0
   64.6206   34.0727   51.7029 H   0  0  0  0  0  0  0  0  0  0  0  0
   62.2673   34.8112   51.3075 H   0  0  0  0  0  0  0  0  0  0  0  0
   61.1082   34.2107   49.1765 H   0  0  0  0  0  0  0  0  0  0  0  0
   58.5100   30.5620   47.5530 H   0  0  0  0  0  0  0  0  0  0  0  0
   57.4275   32.4776   49.1433 H   0  0  0  0  0  0  0  0  0  0  0  0
   59.1744   32.7797   49.4403 H   0  0  0  0  0  0  0  0  0  0  0  0
   59.8757   34.6383   48.2260 H   0  0  0  0  0  0  0  0  0  0  0  0
   59.9241   35.9668   46.1141 H   0  0  0  0  0  0  0  0  0  0  0  0
   58.5979   35.2215   44.1353 H   0  0  0  0  0  0  0  0  0  0  0  0
   57.2180   33.1434   44.2673 H   0  0  0  0  0  0  0  0  0  0  0  0
   57.1600   31.8115   46.3764 H   0  0  0  0  0  0  0  0  0  0  0  0
  1  2  2  0
  2  3  1  0
  3  4  1  0
  4  5  1  0
  5  6  1  0
  6  7  2  0
  7  8  1  0
  8  9  2  0
  9 10  1  0
  9 11  1  0
 11 12  2  0
  4 13  1  0
 13 14  2  0
 13 15  1  0
 15 16  1  0
 16 17  1  0
 17 18  2  0
 18 19  1  0
 19 20  2  0
 20 21  1  0
 21 22  2  0
  2 23  1  0
 23 24  1  0
 24 25  1  0
 25 26  2  0
 26 27  1  0
 27 28  2  0
 28 29  1  0
 29 30  2  0
 12  6  1  0
 22 17  1  0
 30 25  1  0
  3 31  1  0
  3 32  1  0
  5 33  1  0
  5 34  1  0
  7 35  1  0
  8 36  1  0
 11 37  1  0
 12 38  1  0
 15 39  1  0
 15 40  1  0
 18 41  1  0
 19 42  1  0
 20 43  1  0
 21 44  1  0
 22 45  1  0
 23 46  1  0
 24 47  1  0
 24 48  1  0
 26 49  1  0
 27 50  1  0
 28 51  1  0
 29 52  1  0
 30 53  1  0
M  CHG  1  10  -1
M  END
>  <UniqueID>  (36) 
31

>  <SMILES>  (36) 
O=C(CN(Cc1ccc([O-])cc1)C(=O)CSc1ccccc1)NCc1ccccc1

>  <Energy>  (36) 
40.7431212709769

>  <Genealogy>  (36) 
O=C(CN(Cc1ccc([O-])cc1)C(=O)CSc1ccccc1)NCc1ccccc1 (protonated)
O=C(CN(Cc1ccc([O-])cc1)C(=O)CSc1ccccc1)NCc1ccccc1 (3D coordinates assigned)
O=C(CN(Cc1ccc([O-])cc1)C(=O)CSc1ccccc1)NCc1ccccc1 (optimized conformer: 40.7431212709769 kcal/mol)

>  <smiles>  (36) 
O=C(CN(Cc1ccc(O)cc1)C(=O)CSc1ccccc1)NCc1ccccc1

>  <score_type>  (36) 
oracle

>  <origin>  (36) 
adg

>  <m_score__min__energy>  (36) 
-11.4

>  <m_primary>  (36) 
energy

$$$$
36:0
     RDKit          3D

 26 27  0  0  0  0  0  0  0  0999 V2000
   55.5100   28.9750   44.8980 N   0  0  0  0  0  0  0  0  0  0  0  0
   56.6550   29.8170   45.0710 C   0  0  0  0  0  0  0  0  0  0  0  0
   56.5380   31.1440   44.7870 N   0  0  0  0  0  0  0  0  0  0  0  0
   57.5580   32.0200   44.9740 C   0  0  0  0  0  0  0  0  0  0  0  0
   57.3980   33.2360   44.6920 O   0  0  0  0  0  0  0  0  0  0  0  0
   58.7780   31.5720   45.4820 C   0  0  0  0  0  0  0  0  0  0  0  0
   58.9370   30.2200   45.7800 C   0  0  0  0  0  0  0  0  0  0  0  0
   57.8810   29.3170   45.5740 C   0  0  0  0  0  0  0  0  0  0  0  0
   58.0980   27.8780   45.8510 C   0  0  0  0  0  0  0  0  0  0  0  0
   59.2480   27.3870   45.7090 O   0  0  0  0  0  0  0  0  0  0  0  0
   57.0550   27.0480   46.3820 N   0  0  0  0  0  0  0  0  0  0  0  0
   56.7140   25.7260   45.9410 C   0  0  0  0  0  0  0  0  0  0  0  0
   57.6990   24.7410   45.7380 C   0  0  0  0  0  0  0  0  0  0  0  0
   57.3350   23.4560   45.3250 C   0  0  0  0  0  0  0  0  0  0  0  0
   55.9900   23.1380   45.1260 C   0  0  0  0  0  0  0  0  0  0  0  0
   55.0040   24.1020   45.3500 C   0  0  0  0  0  0  0  0  0  0  0  0
   55.3620   25.3910   45.7620 C   0  0  0  0  0  0  0  0  0  0  0  0
   54.3710   26.3410   45.9870 O   0  0  0  0  0  0  0  0  0  0  0  0
   54.5890   29.4000   44.6520 H   0  0  0  0  0  0  0  0  0  0  0  0
   55.5340   27.9520   45.0980 H   0  0  0  0  0  0  0  0  0  0  0  0
   59.6052   32.2784   45.6455 H   0  0  0  0  0  0  0  0  0  0  0  0
   59.8958   29.8576   46.1792 H   0  0  0  0  0  0  0  0  0  0  0  0
   58.7589   24.9833   45.9049 H   0  0  0  0  0  0  0  0  0  0  0  0
   58.1099   22.6937   45.1564 H   0  0  0  0  0  0  0  0  0  0  0  0
   55.7069   22.1286   44.7929 H   0  0  0  0  0  0  0  0  0  0  0  0
   53.9441   23.8476   45.2023 H   0  0  0  0  0  0  0  0  0  0  0  0
  1  2  1  0
  2  3  1  0
  3  4  1  0
  4  5  2  0
  4  6  1  0
  6  7  2  0
  7  8  1  0
  8  9  1  0
  9 10  2  0
  9 11  1  0
 11 12  1  0
 12 13  2  0
 13 14  1  0
 14 15  2  0
 15 16  1  0
 16 17  2  0
 17 18  1  0
  8  2  2  0
 17 12  1  0
  1 19  1  0
  1 20  1  0
  6 21  1  0
  7 22  1  0
 13 23  1  0
 14 24  1  0
 15 25  1  0
 16 26  1  0
M  CHG  3   3  -1  11  -1  18  -1
M  END
>  <UniqueID>  (37) 
32

>  <SMILES>  (37) 
Nc1[n-]c(=O)ccc1C(=O)[N-]c1ccccc1[O-]

>  <Energy>  (37) 
36.83095397993485

>  <Genealogy>  (37) 
Nc1[n-]c(=O)ccc1C(=O)[N-]c1ccccc1[O-] (protonated)
Nc1[n-]c(=O)ccc1C(=O)[N-]c1ccccc1[O-] (3D coordinates assigned)
Nc1[n-]c(=O)ccc1C(=O)[N-]c1ccccc1[O-] (optimized conformer: 36.83095397993485 kcal/mol)

>  <smiles>  (37) 
Nc1[nH]c(=O)ccc1C(=O)Nc1ccccc1O

>  <score_type>  (37) 
oracle

>  <origin>  (37) 
adg

>  <m_score__min__energy>  (37) 
-14.300000000000001

>  <m_primary>  (37) 
energy

$$$$
37:0
     RDKit          3D

 29 30  0  0  0  0  0  0  0  0999 V2000
   60.3980   34.6210   47.2210 C   0  0  0  0  0  0  0  0  0  0  0  0
   59.3370   33.7850   46.5930 C   0  0  0  0  0  0  0  0  0  0  0  0
   58.4850   34.4530   45.7120 C   0  0  0  0  0  0  0  0  0  0  0  0
   57.4640   33.7440   45.0810 C   0  0  0  0  0  0  0  0  0  0  0  0
   57.3280   32.3920   45.3510 C   0  0  0  0  0  0  0  0  0  0  0  0
   56.2960   31.7090   44.7040 O   0  0  0  0  0  0  0  0  0  0  0  0
   56.6370   30.8070   43.6930 C   0  0  0  0  0  0  0  0  0  0  0  0
   56.8790   29.4290   44.2100 C   0  0  0  0  0  0  0  0  0  0  0  0
   57.5930   28.5790   43.3890 C   0  0  0  0  0  0  0  0  0  0  0  0
   57.8100   27.2930   43.8900 C   0  0  0  0  0  0  0  0  0  0  0  0
   58.4500   26.4410   43.2200 O   0  0  0  0  0  0  0  0  0  0  0  0
   57.3180   26.9490   45.1350 C   0  0  0  0  0  0  0  0  0  0  0  0
   57.4770   25.8080   45.6460 O   0  0  0  0  0  0  0  0  0  0  0  0
   56.6200   27.8340   45.8990 N   0  0  0  0  0  0  0  0  0  0  0  0
   56.4100   29.0710   45.4190 N   0  0  0  0  0  0  0  0  0  0  0  0
   58.1760   31.7380   46.2230 C   0  0  0  0  0  0  0  0  0  0  0  0
   59.1980   32.4410   46.8570 C   0  0  0  0  0  0  0  0  0  0  0  0
   60.3157   34.5562   48.3160 H   0  0  0  0  0  0  0  0  0  0  0  0
   61.3867   34.2566   46.9054 H   0  0  0  0  0  0  0  0  0  0  0  0
   60.2750   35.6675   46.9054 H   0  0  0  0  0  0  0  0  0  0  0  0
   58.6178   35.5275   45.5177 H   0  0  0  0  0  0  0  0  0  0  0  0
   56.7799   34.2481   44.3825 H   0  0  0  0  0  0  0  0  0  0  0  0
   55.8154   30.7698   42.9625 H   0  0  0  0  0  0  0  0  0  0  0  0
   57.5727   31.1594   43.2344 H   0  0  0  0  0  0  0  0  0  0  0  0
   57.9670   28.8941   42.4037 H   0  0  0  0  0  0  0  0  0  0  0  0
   56.2480   27.5550   46.8530 H   0  0  0  0  0  0  0  0  0  0  0  0
   55.8710   29.7150   46.0380 H   0  0  0  0  0  0  0  0  0  0  0  0
   58.0446   30.6632   46.4167 H   0  0  0  0  0  0  0  0  0  0  0  0
   59.8801   31.9326   47.5544 H   0  0  0  0  0  0  0  0  0  0  0  0
  1  2  1  0
  2  3  2  0
  3  4  1  0
  4  5  2  0
  5  6  1  0
  6  7  1  0
  7  8  1  0
  8  9  2  0
  9 10  1  0
 10 11  2  0
 10 12  1  0
 12 13  2  0
 12 14  1  0
 14 15  1  0
  5 16  1  0
 16 17  2  0
 17  2  1  0
 15  8  1  0
  1 18  1  0
  1 19  1  0
  1 20  1  0
  3 21  1  0
  4 22  1  0
  7 23  1  0
  7 24  1  0
  9 25  1  0
 14 26  1  0
 15 27  1  0
 16 28  1  0
 17 29  1  0
M  END
>  <smiles>  (38) 
Cc1ccc(OCc2cc(=O)c(=O)[nH][nH]2)cc1

>  <score_type>  (38) 
oracle

>  <origin>  (38) 
adg

>  <m_score__min__energy>  (38) 
-7.1500000000000004

>  <m_primary>  (38) 
energy

$$$$
38:0
     RDKit          3D

 45 47  0  0  0  0  0  0  0  0999 V2000
   59.9346   26.0187   46.9254 H   0  0  0  0  0  0  0  0  0  0  0  0
   59.3160   26.6200   46.2430 C   0  0  0  0  0  0  0  0  0  0  0  0
   59.8530   27.8950   45.2830 S   0  0  0  0  0  0  0  0  0  0  0  0
   58.3230   28.2050   44.6420 C   0  0  0  0  0  0  0  0  0  0  0  0
   58.0190   29.1070   43.7530 N   0  0  0  0  0  0  0  0  0  0  0  0
   56.9730   30.0890   43.8150 C   0  0  0  0  0  0  0  0  0  0  0  0
   55.7980   29.7040   44.0500 O   0  0  0  0  0  0  0  0  0  0  0  0
   57.2340   31.5680   43.6930 C   0  0  0  0  0  0  0  0  0  0  0  0
   58.3129   31.7307   43.5536 H   0  0  0  0  0  0  0  0  0  0  0  0
   56.6671   31.9496   42.8310 H   0  0  0  0  0  0  0  0  0  0  0  0
   56.8050   32.2710   44.8600 O   0  0  0  0  0  0  0  0  0  0  0  0
   57.6440   32.9660   45.7460 C   0  0  0  0  0  0  0  0  0  0  0  0
   57.7570   32.4930   47.0570 C   0  0  0  0  0  0  0  0  0  0  0  0
   57.2083   31.5891   47.3601 H   0  0  0  0  0  0  0  0  0  0  0  0
   58.5620   33.1600   47.9860 C   0  0  0  0  0  0  0  0  0  0  0  0
   58.6418   32.7764   49.0138 H   0  0  0  0  0  0  0  0  0  0  0  0
   59.2670   34.3120   47.6180 C   0  0  0  0  0  0  0  0  0  0  0  0
   60.0480   34.9510   48.5940 O   0  0  0  0  0  0  0  0  0  0  0  0
   61.0340   34.3150   49.4080 C   0  0  0  0  0  0  0  0  0  0  0  0
   61.6980   35.0814   49.8343 H   0  0  0  0  0  0  0  0  0  0  0  0
   60.5238   33.7601   50.2091 H   0  0  0  0  0  0  0  0  0  0  0  0
   61.8550   33.3460   48.5990 C   0  0  0  0  0  0  0  0  0  0  0  0
   62.9780   33.7980   47.8840 C   0  0  0  0  0  0  0  0  0  0  0  0
   63.2532   34.8627   47.9119 H   0  0  0  0  0  0  0  0  0  0  0  0
   63.7460   32.9000   47.1380 C   0  0  0  0  0  0  0  0  0  0  0  0
   64.6186   33.2606   46.5735 H   0  0  0  0  0  0  0  0  0  0  0  0
   63.4070   31.5440   47.1080 C   0  0  0  0  0  0  0  0  0  0  0  0
   64.0115   30.8390   46.5185 H   0  0  0  0  0  0  0  0  0  0  0  0
   62.3000   31.0840   47.8270 C   0  0  0  0  0  0  0  0  0  0  0  0
   62.0354   30.0165   47.8048 H   0  0  0  0  0  0  0  0  0  0  0  0
   61.5280   31.9800   48.5750 C   0  0  0  0  0  0  0  0  0  0  0  0
   60.6622   31.6135   49.1461 H   0  0  0  0  0  0  0  0  0  0  0  0
   59.1700   34.7800   46.2950 C   0  0  0  0  0  0  0  0  0  0  0  0
   59.7305   35.6758   45.9894 H   0  0  0  0  0  0  0  0  0  0  0  0
   58.3650   34.1130   45.3660 C   0  0  0  0  0  0  0  0  0  0  0  0
   58.2952   34.4867   44.3338 H   0  0  0  0  0  0  0  0  0  0  0  0
   57.4100   27.3430   45.1330 N   0  0  0  0  0  0  0  0  0  0  0  0
   56.3980   27.3560   44.8680 H   0  0  0  0  0  0  0  0  0  0  0  0
   57.9480   26.4610   46.0200 C   0  0  0  0  0  0  0  0  0  0  0  0
   57.1160   25.4470   46.7420 C   0  0  0  0  0  0  0  0  0  0  0  0
   57.1297   25.6653   47.8200 H   0  0  0  0  0  0  0  0  0  0  0  0
   57.5296   24.4442   46.5594 H   0  0  0  0  0  0  0  0  0  0  0  0
   55.7070   25.4950   46.2450 C   0  0  0  0  0  0  0  0  0  0  0  0
   55.0760   24.4270   46.0280 O   0  0  0  0  0  0  0  0  0  0  0  0
   55.1070   26.7190   45.9740 O   0  0  0  0  0  0  0  0  0  0  0  0
  1  2  1  0
  2  3  1  0
  3  4  1  0
  4  5  2  0
  5  6  1  0
  6  7  2  0
  6  8  1  0
  8  9  1  0
  8 10  1  0
  8 11  1  0
 11 12  1  0
 12 13  2  0
 13 14  1  0
 13 15  1  0
 15 16  1  0
 15 17  2  0
 17 18  1  0
 18 19  1  0
 19 20  1  0
 19 21  1  0
 19 22  1  0
 22 23  2  0
 23 24  1  0
 23 25  1  0
 25 26  1  0
 25 27  2  0
 27 28  1  0
 27 29  1  0
 29 30  1  0
 29 31  2  0
 31 32  1  0
 17 33  1  0
 33 34  1  0
 33 35  2  0
 35 36  1  0
  4 37  1  0
 37 38  1  0
 37 39  1  0
 39 40  1  0
 40 41  1  0
 40 42  1  0
 40 43  1  0
 43 44  2  0
 43 45  1  0
 39  2  2  0
 35 12  1  0
 31 22  1  0
M  CHG  1  45  -1
M  END
>  <UniqueID>  (39) 
33

>  <SMILES>  (39) 
O=C([O-])Cc1cs/c(=N\C(=O)COc2ccc(OCc3ccccc3)cc2)[nH]1

>  <Energy>  (39) 
79.7777642256193

>  <Genealogy>  (39) 
O=C([O-])Cc1csc(=NC(=O)COc2ccc(OCc3ccccc3)cc2)[nH]1 (protonated)
O=C([O-])Cc1cs/c(=N\C(=O)COc2ccc(OCc3ccccc3)cc2)[nH]1 (cis-trans isomerization)
O=C([O-])Cc1cs/c(=N\C(=O)COc2ccc(OCc3ccccc3)cc2)[nH]1 (3D coordinates assigned)
O=C([O-])Cc1cs/c(=N\C(=O)COc2ccc(OCc3ccccc3)cc2)[nH]1 (optimized conformer: 79.7777642256193 kcal/mol)

>  <smiles>  (39) 
O=C(O)Cc1csc(=NC(=O)COc2ccc(OCc3ccccc3)cc2)[nH]1

>  <score_type>  (39) 
oracle

>  <origin>  (39) 
adg

>  <m_score__min__energy>  (39) 
-12.130000000000001

>  <m_primary>  (39) 
energy

$$$$
39:0
     RDKit          3D

 46 49  0  0  0  0  0  0  0  0999 V2000
   60.7010   29.4420   47.9810 C   0  0  0  0  0  0  0  0  0  0  0  0
   59.4370   28.8390   48.2420 O   0  0  0  0  0  0  0  0  0  0  0  0
   58.5040   28.4870   47.2530 C   0  0  0  0  0  0  0  0  0  0  0  0
   58.0120   27.1740   47.1240 C   0  0  0  0  0  0  0  0  0  0  0  0
   57.0710   26.8570   46.1390 C   0  0  0  0  0  0  0  0  0  0  0  0
   56.6170   25.5000   46.0260 N   0  0  0  0  0  0  0  0  0  0  0  0
   55.2570   25.0820   45.8670 C   0  0  0  0  0  0  0  0  0  0  0  0
   54.3740   25.9600   45.6770 O   0  0  0  0  0  0  0  0  0  0  0  0
   54.9070   23.6860   45.8920 N   0  0  0  0  0  0  0  0  0  0  0  0
   53.5620   23.1900   45.8020 C   0  0  0  0  0  0  0  0  0  0  0  0
   53.1920   22.0690   46.5610 C   0  0  0  0  0  0  0  0  0  0  0  0
   51.8960   21.5520   46.4750 C   0  0  0  0  0  0  0  0  0  0  0  0
   50.9630   22.1410   45.6170 C   0  0  0  0  0  0  0  0  0  0  0  0
   51.3280   23.2420   44.8380 C   0  0  0  0  0  0  0  0  0  0  0  0
   52.6240   23.7620   44.9230 C   0  0  0  0  0  0  0  0  0  0  0  0
   56.6460   27.8460   45.2390 C   0  0  0  0  0  0  0  0  0  0  0  0
   57.1240   29.1630   45.3550 C   0  0  0  0  0  0  0  0  0  0  0  0
   56.7000   30.1860   44.4860 C   0  0  0  0  0  0  0  0  0  0  0  0
   55.8640   29.9530   43.5710 O   0  0  0  0  0  0  0  0  0  0  0  0
   57.2030   31.4810   44.6380 C   0  0  0  0  0  0  0  0  0  0  0  0
   58.1340   31.7560   45.6540 C   0  0  0  0  0  0  0  0  0  0  0  0
   58.6920   33.1180   45.8550 C   0  0  0  0  0  0  0  0  0  0  0  0
   59.1340   33.5530   47.1210 C   0  0  0  0  0  0  0  0  0  0  0  0
   59.6480   34.8430   47.2870 C   0  0  0  0  0  0  0  0  0  0  0  0
   59.7210   35.7150   46.1990 C   0  0  0  0  0  0  0  0  0  0  0  0
   59.2750   35.3010   44.9420 C   0  0  0  0  0  0  0  0  0  0  0  0
   58.7610   34.0130   44.7690 C   0  0  0  0  0  0  0  0  0  0  0  0
   58.5220   30.7510   46.4860 N   0  0  0  0  0  0  0  0  0  0  0  0
   58.0530   29.4790   46.3700 C   0  0  0  0  0  0  0  0  0  0  0  0
   61.1978   29.6790   48.9334 H   0  0  0  0  0  0  0  0  0  0  0  0
   61.3273   28.7457   47.4041 H   0  0  0  0  0  0  0  0  0  0  0  0
   60.5539   30.3669   47.4041 H   0  0  0  0  0  0  0  0  0  0  0  0
   58.3717   26.3889   47.8054 H   0  0  0  0  0  0  0  0  0  0  0  0
   55.6630   22.9870   46.0630 H   0  0  0  0  0  0  0  0  0  0  0  0
   53.9266   21.5941   47.2279 H   0  0  0  0  0  0  0  0  0  0  0  0
   51.6103   20.6810   47.0830 H   0  0  0  0  0  0  0  0  0  0  0  0
   49.9414   21.7378   45.5550 H   0  0  0  0  0  0  0  0  0  0  0  0
   50.5956   23.7004   44.1572 H   0  0  0  0  0  0  0  0  0  0  0  0
   52.9109   24.6219   44.2999 H   0  0  0  0  0  0  0  0  0  0  0  0
   55.9357   27.5897   44.4391 H   0  0  0  0  0  0  0  0  0  0  0  0
   56.8706   32.2838   43.9634 H   0  0  0  0  0  0  0  0  0  0  0  0
   59.0742   32.8734   47.9839 H   0  0  0  0  0  0  0  0  0  0  0  0
   59.9957   35.1716   48.2775 H   0  0  0  0  0  0  0  0  0  0  0  0
   60.1296   36.7276   46.3319 H   0  0  0  0  0  0  0  0  0  0  0  0
   59.3284   35.9901   44.0863 H   0  0  0  0  0  0  0  0  0  0  0  0
   58.4074   33.6954   43.7770 H   0  0  0  0  0  0  0  0  0  0  0  0
  1  2  1  0
  2  3  1  0
  3  4  2  0
  4  5  1  0
  5  6  1  0
  6  7  1  0
  7  8  2  0
  7  9  1  0
  9 10  1  0
 10 11  2  0
 11 12  1  0
 12 13  2  0
 13 14  1  0
 14 15  2  0
  5 16  2  0
 16 17  1  0
 17 18  1  0
 18 19  2  0
 18 20  1  0
 20 21  2  0
 21 22  1  0
 22 23  2  0
 23 24  1  0
 24 25  2  0
 25 26  1  0
 26 27  2  0
 21 28  1  0
 28 29  1  0
 29  3  1  0
 15 10  1  0
 29 17  2  0
 27 22  1  0
  1 30  1  0
  1 31  1  0
  1 32  1  0
  4 33  1  0
  9 34  1  0
 11 35  1  0
 12 36  1  0
 13 37  1  0
 14 38  1  0
 15 39  1  0
 16 40  1  0
 20 41  1  0
 23 42  1  0
 24 43  1  0
 25 44  1  0
 26 45  1  0
 27 46  1  0
M  CHG  2   6  -1  28  -1
M  END
>  <UniqueID>  (40) 
34

>  <SMILES>  (40) 
COc1cc([N-]C(=O)Nc2ccccc2)cc2c(=O)cc(-c3ccccc3)[n-]c12

>  <Energy>  (40) 
67.19911641847187

>  <Genealogy>  (40) 
COc1cc([N-]C(=O)Nc2ccccc2)cc2c(=O)cc(-c3ccccc3)[n-]c12 (protonated)
COc1cc([N-]C(=O)Nc2ccccc2)cc2c(=O)cc(-c3ccccc3)[n-]c12 (3D coordinates assigned)
COc1cc([N-]C(=O)Nc2ccccc2)cc2c(=O)cc(-c3ccccc3)[n-]c12 (optimized conformer: 67.19911641847187 kcal/mol)

>  <smiles>  (40) 
COc1cc(NC(=O)Nc2ccccc2)cc2c(=O)cc(-c3ccccc3)[nH]c12

>  <score_type>  (40) 
oracle

>  <origin>  (40) 
adg

>  <m_score__min__energy>  (40) 
-10.77

>  <m_primary>  (40) 
energy

$$$$
40:0
     RDKit          3D

 39 42  0  0  0  0  0  0  0  0999 V2000
   56.6284   22.2888   46.4823 H   0  0  0  0  0  0  0  0  0  0  0  0
   56.8470   23.3070   46.1280 C   0  0  0  0  0  0  0  0  0  0  0  0
   58.0720   23.5740   45.4760 C   0  0  0  0  0  0  0  0  0  0  0  0
   59.2330   22.2820   45.2370 Cl  0  0  0  0  0  0  0  0  0  0  0  0
   58.3650   24.8720   45.0170 C   0  0  0  0  0  0  0  0  0  0  0  0
   59.3142   25.0950   44.5079 H   0  0  0  0  0  0  0  0  0  0  0  0
   57.4110   25.8640   45.2300 C   0  0  0  0  0  0  0  0  0  0  0  0
   57.4010   27.1970   44.9080 C   0  0  0  0  0  0  0  0  0  0  0  0
   58.4400   27.9100   44.2340 N   0  0  0  0  0  0  0  0  0  0  0  0
   59.5220   28.2210   44.8250 N   0  0  0  0  0  0  0  0  0  0  0  0
   59.6400   29.4410   45.5580 C   0  0  0  0  0  0  0  0  0  0  0  0
   60.7740   29.9460   45.7780 O   0  0  0  0  0  0  0  0  0  0  0  0
   58.4060   30.1490   46.0230 C   0  0  0  0  0  0  0  0  0  0  0  0
   58.4678   30.3137   47.1088 H   0  0  0  0  0  0  0  0  0  0  0  0
   57.5259   29.5322   45.7887 H   0  0  0  0  0  0  0  0  0  0  0  0
   58.2830   31.4400   45.3430 N   0  0  0  0  0  0  0  0  0  0  0  0
   57.7130   31.7010   44.1340 C   0  0  0  0  0  0  0  0  0  0  0  0
   57.0280   30.6760   43.2850 C   0  0  0  0  0  0  0  0  0  0  0  0
   56.5334   29.9359   43.9312 H   0  0  0  0  0  0  0  0  0  0  0  0
   56.2769   31.1685   42.6500 H   0  0  0  0  0  0  0  0  0  0  0  0
   57.7704   30.1704   42.6500 H   0  0  0  0  0  0  0  0  0  0  0  0
   57.8380   33.0010   43.7680 N   0  0  0  0  0  0  0  0  0  0  0  0
   57.4960   33.4580   42.8940 H   0  0  0  0  0  0  0  0  0  0  0  0
   58.5210   33.5660   44.7770 C   0  0  0  0  0  0  0  0  0  0  0  0
   58.9390   34.8890   44.8990 C   0  0  0  0  0  0  0  0  0  0  0  0
   58.7086   35.6334   44.1226 H   0  0  0  0  0  0  0  0  0  0  0  0
   59.6670   35.2390   46.0520 C   0  0  0  0  0  0  0  0  0  0  0  0
   60.0112   36.2750   46.1867 H   0  0  0  0  0  0  0  0  0  0  0  0
   59.9590   34.2690   47.0380 C   0  0  0  0  0  0  0  0  0  0  0  0
   60.5307   34.5550   47.9332 H   0  0  0  0  0  0  0  0  0  0  0  0
   59.5230   32.9390   46.8820 C   0  0  0  0  0  0  0  0  0  0  0  0
   59.7455   32.1742   47.6407 H   0  0  0  0  0  0  0  0  0  0  0  0
   58.7980   32.6250   45.7300 C   0  0  0  0  0  0  0  0  0  0  0  0
   56.1860   27.6840   45.3710 C   0  0  0  0  0  0  0  0  0  0  0  0
   55.7540   28.9990   45.2560 O   0  0  0  0  0  0  0  0  0  0  0  0
   55.4490   26.7140   45.9620 N   0  0  0  0  0  0  0  0  0  0  0  0
   56.2190   25.6100   45.8650 C   0  0  0  0  0  0  0  0  0  0  0  0
   55.9040   24.3330   46.3280 C   0  0  0  0  0  0  0  0  0  0  0  0
   54.9479   24.1334   46.8340 H   0  0  0  0  0  0  0  0  0  0  0  0
  1  2  1  0
  2  3  2  0
  3  4  1  0
  3  5  1  0
  5  6  1  0
  5  7  2  0
  7  8  1  0
  8  9  1  0
  9 10  2  0
 10 11  1  0
 11 12  2  0
 11 13  1  0
 13 14  1  0
 13 15  1  0
 13 16  1  0
 16 17  1  0
 17 18  1  0
 18 19  1  0
 18 20  1  0
 18 21  1  0
 17 22  2  0
 22 23  1  0
 22 24  1  0
 24 25  2  0
 25 26  1  0
 25 27  1  0
 27 28  1  0
 27 29  2  0
 29 30  1  0
 29 31  1  0
 31 32  1  0
 31 33  2  0
  8 34  2  0
 34 35  1  0
 34 36  1  0
 36 37  1  0
 37 38  2  0
 38 39  1  0
 38  2  1  0
 37  7  1  0
 33 16  1  0
 33 24  1  0
M  CHG  3  22   1  35  -1  36  -1
M  END
>  <UniqueID>  (41) 
35

>  <SMILES>  (41) 
Cc1[nH+]c2ccccc2n1CC(=O)/N=N/c1c([O-])[n-]c2ccc(Cl)cc12

>  <Energy>  (41) 
111.87699826611411

>  <Genealogy>  (41) 
Cc1[nH+]c2ccccc2n1CC(=O)N=Nc1c([O-])[n-]c2ccc(Cl)cc12 (protonated)
Cc1[nH+]c2ccccc2n1CC(=O)/N=N/c1c([O-])[n-]c2ccc(Cl)cc12 (cis-trans isomerization)
Cc1[nH+]c2ccccc2n1CC(=O)/N=N/c1c([O-])[n-]c2ccc(Cl)cc12 (3D coordinates assigned)
Cc1[nH+]c2ccccc2n1CC(=O)/N=N/c1c([O-])[n-]c2ccc(Cl)cc12 (optimized conformer: 111.87699826611411 kcal/mol)

>  <smiles>  (41) 
Cc1nc2ccccc2n1CC(=O)N=Nc1c(O)[nH]c2ccc(Cl)cc12

>  <score_type>  (41) 
oracle

>  <origin>  (41) 
adg

>  <m_score__min__energy>  (41) 
-11.42

>  <m_primary>  (41) 
energy

$$$$
41:0
     RDKit          3D

 35 37  0  0  0  0  0  0  0  0999 V2000
   50.5250   22.8100   45.1920 H   0  0  0  0  0  0  0  0  0  0  0  0
   51.4310   22.3180   45.0210 N   0  0  0  0  0  0  0  0  0  0  0  0
   52.3300   22.1770   45.9430 C   0  0  0  0  0  0  0  0  0  0  0  0
   53.6240   21.9560   45.5870 N   0  0  0  0  0  0  0  0  0  0  0  0
   54.6130   21.8050   46.5110 C   0  0  0  0  0  0  0  0  0  0  0  0
   56.0170   21.5270   46.0550 C   0  0  0  0  0  0  0  0  0  0  0  0
   56.0618   20.5118   45.6339 H   0  0  0  0  0  0  0  0  0  0  0  0
   56.2893   22.2769   45.2977 H   0  0  0  0  0  0  0  0  0  0  0  0
   57.0150   21.6300   47.2160 C   0  0  0  0  0  0  0  0  0  0  0  0
   56.7036   20.9434   48.0171 H   0  0  0  0  0  0  0  0  0  0  0  0
   58.0131   21.3635   46.8380 H   0  0  0  0  0  0  0  0  0  0  0  0
   57.0750   22.9900   47.7520 N   0  0  0  0  0  0  0  0  0  0  0  0
   56.8680   24.0660   47.0540 C   0  0  0  0  0  0  0  0  0  0  0  0
   55.6950   24.7340   47.0990 N   0  0  0  0  0  0  0  0  0  0  0  0
   55.9000   25.7510   46.2470 C   0  0  0  0  0  0  0  0  0  0  0  0
   54.9450   26.7150   45.9500 O   0  0  0  0  0  0  0  0  0  0  0  0
   57.1680   25.6860   45.7230 C   0  0  0  0  0  0  0  0  0  0  0  0
   57.7580   26.5930   44.6900 C   0  0  0  0  0  0  0  0  0  0  0  0
   58.7450   26.2105   44.3906 H   0  0  0  0  0  0  0  0  0  0  0  0
   57.0901   26.6276   43.8166 H   0  0  0  0  0  0  0  0  0  0  0  0
   57.9100   27.9750   45.2470 C   0  0  0  0  0  0  0  0  0  0  0  0
   59.0390   28.4320   45.8170 N   0  0  0  0  0  0  0  0  0  0  0  0
   58.7030   29.6770   46.2180 C   0  0  0  0  0  0  0  0  0  0  0  0
   59.5150   30.4430   46.8010 O   0  0  0  0  0  0  0  0  0  0  0  0
   57.4300   30.0360   45.9500 N   0  0  0  0  0  0  0  0  0  0  0  0
   56.9360   28.9460   45.3410 C   0  0  0  0  0  0  0  0  0  0  0  0
   55.6210   28.8510   44.8900 O   0  0  0  0  0  0  0  0  0  0  0  0
   55.1320   27.9650   44.8680 H   0  0  0  0  0  0  0  0  0  0  0  0
   57.7910   24.6050   46.2220 N   0  0  0  0  0  0  0  0  0  0  0  0
   54.3000   21.8570   47.8760 C   0  0  0  0  0  0  0  0  0  0  0  0
   55.0878   21.7209   48.6316 H   0  0  0  0  0  0  0  0  0  0  0  0
   52.9800   22.0830   48.2680 C   0  0  0  0  0  0  0  0  0  0  0  0
   52.7230   22.1319   49.3364 H   0  0  0  0  0  0  0  0  0  0  0  0
   51.9860   22.2470   47.3010 C   0  0  0  0  0  0  0  0  0  0  0  0
   50.9436   22.4293   47.6013 H   0  0  0  0  0  0  0  0  0  0  0  0
  1  2  1  0
  2  3  2  0
  3  4  1  0
  4  5  1  0
  5  6  1  0
  6  7  1  0
  6  8  1  0
  6  9  1  0
  9 10  1  0
  9 11  1  0
  9 12  1  0
 12 13  2  3
 13 14  1  0
 14 15  1  0
 15 16  1  0
 15 17  2  0
 17 18  1  0
 18 19  1  0
 18 20  1  0
 18 21  1  0
 21 22  1  0
 22 23  1  0
 23 24  2  0
 23 25  1  0
 25 26  1  0
 26 27  1  0
 27 28  1  0
 17 29  1  0
  5 30  2  0
 30 31  1  0
 30 32  1  0
 32 33  1  0
 32 34  2  0
 34 35  1  0
 34  3  1  0
 29 13  1  0
 26 21  2  0
M  CHG  6   4  -1  14  -1  16  -1  22  -1  25  -1  29  -1
M  END
>  <UniqueID>  (42) 
36

>  <SMILES>  (42) 
[H]/N=c1\cccc(CCN=c2[n-]c([O-])c(Cc3[n-]c(=O)[n-]c3O)[n-]2)[n-]1

>  <Energy>  (42) 
90.36838374650571

>  <Genealogy>  (42) 
N=c1cccc(CCN=c2[n-]c([O-])c(Cc3[n-]c(=O)[n-]c3O)[n-]2)[n-]1 (protonated)
[H]/N=c1\cccc(CCN=c2[n-]c([O-])c(Cc3[n-]c(=O)[n-]c3O)[n-]2)[n-]1 (cis-trans isomerization)
[H]/N=c1\cccc(CCN=c2[n-]c([O-])c(Cc3[n-]c(=O)[n-]c3O)[n-]2)[n-]1 (3D coordinates assigned)
[H]/N=c1\cccc(CCN=c2[n-]c([O-])c(Cc3[n-]c(=O)[n-]c3O)[n-]2)[n-]1 (optimized conformer: 90.36838374650571 kcal/mol)

>  <smiles>  (42) 
N=c1cccc(CCN=c2[nH]c(O)c(Cc3[nH]c(=O)[nH]c3O)[nH]2)[nH]1

>  <score_type>  (42) 
oracle

>  <origin>  (42) 
adg

>  <m_score__min__energy>  (42) 
-17.289999999999999

>  <m_primary>  (42) 
energy

$$$$
42:0
     RDKit          3D

 33 34  0  0  0  0  0  0  0  0999 V2000
   56.5415   34.1485   44.3402 H   0  0  0  0  0  0  0  0  0  0  0  0
   57.3260   34.0780   45.1080 C   0  0  0  0  0  0  0  0  0  0  0  0
   58.5890   34.6210   44.8680 C   0  0  0  0  0  0  0  0  0  0  0  0
   58.7979   35.1226   43.9116 H   0  0  0  0  0  0  0  0  0  0  0  0
   59.5890   34.5290   45.8400 C   0  0  0  0  0  0  0  0  0  0  0  0
   60.5810   34.9627   45.6454 H   0  0  0  0  0  0  0  0  0  0  0  0
   59.3360   33.8850   47.0670 C   0  0  0  0  0  0  0  0  0  0  0  0
   60.4040   33.7870   48.0940 C   0  0  0  0  0  0  0  0  0  0  0  0
   60.2240   34.3000   49.2310 O   0  0  0  0  0  0  0  0  0  0  0  0
   61.6820   33.2010   47.8030 N   0  0  0  0  0  0  0  0  0  0  0  0
   61.9280   31.9610   47.4790 C   0  0  0  0  0  0  0  0  0  0  0  0
   60.8830   30.9090   47.4380 C   0  0  0  0  0  0  0  0  0  0  0  0
   60.3740   30.4750   48.5070 O   0  0  0  0  0  0  0  0  0  0  0  0
   60.4520   30.3990   46.1710 N   0  0  0  0  0  0  0  0  0  0  0  0
   59.1090   30.0510   45.8000 C   0  0  0  0  0  0  0  0  0  0  0  0
   58.5540   28.8730   46.3190 C   0  0  0  0  0  0  0  0  0  0  0  0
   59.1530   28.2333   46.9838 H   0  0  0  0  0  0  0  0  0  0  0  0
   57.2440   28.5060   45.9970 C   0  0  0  0  0  0  0  0  0  0  0  0
   56.8203   27.5734   46.3980 H   0  0  0  0  0  0  0  0  0  0  0  0
   56.4720   29.3230   45.1660 C   0  0  0  0  0  0  0  0  0  0  0  0
   55.1700   28.9570   44.8460 O   0  0  0  0  0  0  0  0  0  0  0  0
   57.0080   30.5120   44.6630 C   0  0  0  0  0  0  0  0  0  0  0  0
   56.3978   31.1586   44.0152 H   0  0  0  0  0  0  0  0  0  0  0  0
   58.3190   30.8810   44.9820 C   0  0  0  0  0  0  0  0  0  0  0  0
   58.7339   31.8224   44.5926 H   0  0  0  0  0  0  0  0  0  0  0  0
   63.3360   31.5820   47.1350 C   0  0  0  0  0  0  0  0  0  0  0  0
   63.9105   31.4273   48.0602 H   0  0  0  0  0  0  0  0  0  0  0  0
   63.3322   30.6529   46.5461 H   0  0  0  0  0  0  0  0  0  0  0  0
   63.7991   32.3875   46.5461 H   0  0  0  0  0  0  0  0  0  0  0  0
   58.0530   33.3480   47.3030 C   0  0  0  0  0  0  0  0  0  0  0  0
   57.7680   32.7090   48.4650 F   0  0  0  0  0  0  0  0  0  0  0  0
   57.0590   33.4450   46.3240 C   0  0  0  0  0  0  0  0  0  0  0  0
   56.0619   33.0206   46.5127 H   0  0  0  0  0  0  0  0  0  0  0  0
  1  2  1  0
  2  3  2  0
  3  4  1  0
  3  5  1  0
  5  6  1  0
  5  7  2  0
  7  8  1  0
  8  9  2  0
  8 10  1  0
 10 11  2  0
 11 12  1  0
 12 13  2  0
 12 14  1  0
 14 15  1  0
 15 16  2  0
 16 17  1  0
 16 18  1  0
 18 19  1  0
 18 20  2  0
 20 21  1  0
 20 22  1  0
 22 23  1  0
 22 24  2  0
 24 25  1  0
 11 26  1  0
 26 27  1  0
 26 28  1  0
 26 29  1  0
  7 30  1  0
 30 31  1  0
 30 32  2  0
 32 33  1  0
 32  2  1  0
 24 15  1  0
M  CHG  2  14  -1  21  -1
M  END
>  <UniqueID>  (43) 
37

>  <SMILES>  (43) 
C/C(=N/C(=O)c1ccccc1F)C(=O)[N-]c1ccc([O-])cc1

>  <Energy>  (43) 
47.51442752449281

>  <Genealogy>  (43) 
CC(=NC(=O)c1ccccc1F)C(=O)[N-]c1ccc([O-])cc1 (protonated)
C/C(=N/C(=O)c1ccccc1F)C(=O)[N-]c1ccc([O-])cc1 (cis-trans isomerization)
C/C(=N/C(=O)c1ccccc1F)C(=O)[N-]c1ccc([O-])cc1 (3D coordinates assigned)
C/C(=N/C(=O)c1ccccc1F)C(=O)[N-]c1ccc([O-])cc1 (optimized conformer: 47.51442752449281 kcal/mol)

>  <smiles>  (43) 
CC(=NC(=O)c1ccccc1F)C(=O)Nc1ccc(O)cc1

>  <score_type>  (43) 
oracle

>  <origin>  (43) 
adg

>  <m_score__min__energy>  (43) 
-11.01

>  <m_primary>  (43) 
energy

$$$$
43:0
     RDKit          3D

 54 56  0  0  0  0  0  0  0  0999 V2000
   56.2440   29.6590   42.6620 C   0  0  0  0  0  0  0  0  0  0  0  0
   55.7220   30.3070   43.9420 C   0  0  0  0  0  0  0  0  0  0  0  0
   56.8240   30.5460   44.9020 N   0  0  0  0  0  0  0  0  0  0  0  0
   57.5830   31.7720   44.5650 C   0  0  0  0  0  0  0  0  0  0  0  0
   57.0630   32.9980   45.3180 C   0  0  0  0  0  0  0  0  0  0  0  0
   57.6670   29.3410   45.1320 C   0  0  0  0  0  0  0  0  0  0  0  0
   57.4140   28.6140   46.4700 C   0  0  0  0  0  0  0  0  0  0  0  0
   57.6020   27.1680   46.2990 N   0  0  0  0  0  0  0  0  0  0  0  0
   56.5990   26.2410   46.2080 C   0  0  0  0  0  0  0  0  0  0  0  0
   55.2320   26.5030   46.2800 O   0  0  0  0  0  0  0  0  0  0  0  0
   57.1420   25.0010   45.9940 C   0  0  0  0  0  0  0  0  0  0  0  0
   56.6790   23.7070   45.7940 C   0  0  0  0  0  0  0  0  0  0  0  0
   57.7540   22.8350   45.5690 C   0  0  0  0  0  0  0  0  0  0  0  0
   59.2300   23.7000   45.6090 S   0  0  0  0  0  0  0  0  0  0  0  0
   58.4690   25.1590   45.9240 C   0  0  0  0  0  0  0  0  0  0  0  0
   58.7790   26.4910   46.1010 C   0  0  0  0  0  0  0  0  0  0  0  0
   60.1430   27.0570   46.0060 C   0  0  0  0  0  0  0  0  0  0  0  0
   61.1180   26.3890   46.4490 O   0  0  0  0  0  0  0  0  0  0  0  0
   60.3760   28.3410   45.4220 N   0  0  0  0  0  0  0  0  0  0  0  0
   61.0700   29.4310   46.0970 C   0  0  0  0  0  0  0  0  0  0  0  0
   60.3040   29.8640   47.3230 C   0  0  0  0  0  0  0  0  0  0  0  0
   60.1280   28.9460   48.3720 C   0  0  0  0  0  0  0  0  0  0  0  0
   59.4430   29.3180   49.5310 C   0  0  0  0  0  0  0  0  0  0  0  0
   58.9290   30.6090   49.6550 C   0  0  0  0  0  0  0  0  0  0  0  0
   59.0980   31.5330   48.6220 C   0  0  0  0  0  0  0  0  0  0  0  0
   59.7880   31.1740   47.4470 C   0  0  0  0  0  0  0  0  0  0  0  0
   59.9770   32.0850   46.3940 O   0  0  0  0  0  0  0  0  0  0  0  0
   60.2400   33.4740   46.5640 C   0  0  0  0  0  0  0  0  0  0  0  0
   56.9148   28.8262   42.9198 H   0  0  0  0  0  0  0  0  0  0  0  0
   55.3972   29.2785   42.0720 H   0  0  0  0  0  0  0  0  0  0  0  0
   56.7961   30.4054   42.0720 H   0  0  0  0  0  0  0  0  0  0  0  0
   55.2480   31.2676   43.6917 H   0  0  0  0  0  0  0  0  0  0  0  0
   54.9925   29.6276   44.4071 H   0  0  0  0  0  0  0  0  0  0  0  0
   58.6402   31.6175   44.8267 H   0  0  0  0  0  0  0  0  0  0  0  0
   57.4609   31.9598   43.4881 H   0  0  0  0  0  0  0  0  0  0  0  0
   57.1377   32.8219   46.4012 H   0  0  0  0  0  0  0  0  0  0  0  0
   57.6656   33.8775   45.0471 H   0  0  0  0  0  0  0  0  0  0  0  0
   56.0119   33.1761   45.0471 H   0  0  0  0  0  0  0  0  0  0  0  0
   57.4753   28.6294   44.3154 H   0  0  0  0  0  0  0  0  0  0  0  0
   58.7077   29.6957   45.1667 H   0  0  0  0  0  0  0  0  0  0  0  0
   58.1207   28.9863   47.2262 H   0  0  0  0  0  0  0  0  0  0  0  0
   56.3817   28.8078   46.7968 H   0  0  0  0  0  0  0  0  0  0  0  0
   54.7610   26.7170   47.1490 H   0  0  0  0  0  0  0  0  0  0  0  0
   55.6203   23.4087   45.8098 H   0  0  0  0  0  0  0  0  0  0  0  0
   57.6619   21.7531   45.3926 H   0  0  0  0  0  0  0  0  0  0  0  0
   62.0723   29.0915   46.3972 H   0  0  0  0  0  0  0  0  0  0  0  0
   61.1503   30.2840   45.4071 H   0  0  0  0  0  0  0  0  0  0  0  0
   60.5325   27.9272   48.2799 H   0  0  0  0  0  0  0  0  0  0  0  0
   59.3087   28.5924   50.3467 H   0  0  0  0  0  0  0  0  0  0  0  0
   58.3895   30.8996   50.5685 H   0  0  0  0  0  0  0  0  0  0  0  0
   58.6894   32.5490   48.7262 H   0  0  0  0  0  0  0  0  0  0  0  0
   60.2847   33.7100   47.6374 H   0  0  0  0  0  0  0  0  0  0  0  0
   61.2017   33.7254   46.0929 H   0  0  0  0  0  0  0  0  0  0  0  0
   59.4368   34.0596   46.0929 H   0  0  0  0  0  0  0  0  0  0  0  0
  1  2  1  0
  2  3  1  0
  3  4  1  0
  4  5  1  0
  3  6  1  0
  6  7  1  0
  7  8  1  0
  8  9  1  0
  9 10  1  0
  9 11  2  0
 11 12  1  0
 12 13  2  0
 13 14  1  0
 14 15  1  0
 15 16  2  0
 16 17  1  0
 17 18  2  0
 17 19  1  0
 19 20  1  0
 20 21  1  0
 21 22  2  0
 22 23  1  0
 23 24  2  0
 24 25  1  0
 25 26  2  0
 26 27  1  0
 27 28  1  0
 16  8  1  0
 26 21  1  0
 15 11  1  0
  1 29  1  0
  1 30  1  0
  1 31  1  0
  2 32  1  0
  2 33  1  0
  4 34  1  0
  4 35  1  0
  5 36  1  0
  5 37  1  0
  5 38  1  0
  6 39  1  0
  6 40  1  0
  7 41  1  0
  7 42  1  0
 10 43  1  0
 12 44  1  0
 13 45  1  0
 20 46  1  0
 20 47  1  0
 22 48  1  0
 23 49  1  0
 24 50  1  0
 25 51  1  0
 28 52  1  0
 28 53  1  0
 28 54  1  0
M  CHG  1  19  -1
M  END
>  <UniqueID>  (44) 
38

>  <SMILES>  (44) 
CCN(CC)CCn1c(O)c2ccsc2c1C(=O)[N-]Cc1ccccc1OC

>  <Energy>  (44) 
130.83347758259907

>  <Genealogy>  (44) 
CCN(CC)CCn1c(O)c2ccsc2c1C(=O)[N-]Cc1ccccc1OC (protonated)
CCN(CC)CCn1c(O)c2ccsc2c1C(=O)[N-]Cc1ccccc1OC (3D coordinates assigned)
CCN(CC)CCn1c(O)c2ccsc2c1C(=O)[N-]Cc1ccccc1OC (optimized conformer: 130.83347758259907 kcal/mol)

>  <smiles>  (44) 
CCN(CC)CCn1c(O)c2ccsc2c1C(=O)NCc1ccccc1OC

>  <score_type>  (44) 
oracle

>  <origin>  (44) 
adg

>  <m_score__min__energy>  (44) 
-8.2899999999999991

>  <m_primary>  (44) 
energy

$$$$
44:0
     RDKit          3D

 43 45  0  0  0  0  0  0  0  0999 V2000
   59.2354   24.9706   46.9120 H   0  0  0  0  0  0  0  0  0  0  0  0
   58.6460   25.8140   46.5230 C   0  0  0  0  0  0  0  0  0  0  0  0
   59.2920   26.9560   46.0450 C   0  0  0  0  0  0  0  0  0  0  0  0
   60.3906   27.0100   46.0539 H   0  0  0  0  0  0  0  0  0  0  0  0
   58.5440   28.0310   45.5550 C   0  0  0  0  0  0  0  0  0  0  0  0
   59.0579   28.9253   45.1726 H   0  0  0  0  0  0  0  0  0  0  0  0
   57.1400   27.9760   45.5480 C   0  0  0  0  0  0  0  0  0  0  0  0
   56.3500   29.1250   44.9790 C   0  0  0  0  0  0  0  0  0  0  0  0
   55.5334   29.3828   45.6695 H   0  0  0  0  0  0  0  0  0  0  0  0
   55.9354   28.8298   44.0039 H   0  0  0  0  0  0  0  0  0  0  0  0
   57.2360   30.3140   44.7950 C   0  0  0  0  0  0  0  0  0  0  0  0
   57.8260   30.4880   43.6950 O   0  0  0  0  0  0  0  0  0  0  0  0
   57.4820   31.1850   45.9070 N   0  0  0  0  0  0  0  0  0  0  0  0
   58.3210   32.3490   45.9150 C   0  0  0  0  0  0  0  0  0  0  0  0
   57.8550   33.6120   45.5070 C   0  0  0  0  0  0  0  0  0  0  0  0
   56.8173   33.7279   45.1608 H   0  0  0  0  0  0  0  0  0  0  0  0
   58.7060   34.7200   45.5400 C   0  0  0  0  0  0  0  0  0  0  0  0
   58.3385   35.7043   45.2143 H   0  0  0  0  0  0  0  0  0  0  0  0
   60.0230   34.5800   45.9860 C   0  0  0  0  0  0  0  0  0  0  0  0
   60.6928   35.4524   46.0031 H   0  0  0  0  0  0  0  0  0  0  0  0
   60.4910   33.3310   46.4110 C   0  0  0  0  0  0  0  0  0  0  0  0
   62.1520   33.1450   46.9680 S   0  0  0  0  0  0  0  0  0  0  0  0
   62.5380   31.6920   47.0010 O   0  0  0  0  0  0  0  0  0  0  0  0
   63.0640   33.8700   46.0210 O   0  0  0  0  0  0  0  0  0  0  0  0
   62.3340   33.8190   48.5570 N   0  0  0  0  0  0  0  0  0  0  0  0
   63.3450   33.5920   49.3400 C   0  0  0  0  0  0  0  0  0  0  0  0
   64.4140   32.7610   48.9520 N   0  0  0  0  0  0  0  0  0  0  0  0
   64.4990   32.2900   48.0230 H   0  0  0  0  0  0  0  0  0  0  0  0
   65.4190   32.7140   49.9930 C   0  0  0  0  0  0  0  0  0  0  0  0
   66.3589   33.1610   49.6368 H   0  0  0  0  0  0  0  0  0  0  0  0
   65.6413   31.6786   50.2906 H   0  0  0  0  0  0  0  0  0  0  0  0
   64.8520   33.5290   51.1710 C   0  0  0  0  0  0  0  0  0  0  0  0
   65.5652   34.3137   51.4635 H   0  0  0  0  0  0  0  0  0  0  0  0
   64.6790   32.8825   52.0440 H   0  0  0  0  0  0  0  0  0  0  0  0
   63.5360   34.1650   50.6960 C   0  0  0  0  0  0  0  0  0  0  0  0
   63.6222   35.2607   50.6514 H   0  0  0  0  0  0  0  0  0  0  0  0
   62.6922   33.9595   51.3711 H   0  0  0  0  0  0  0  0  0  0  0  0
   59.6320   32.2240   46.3910 C   0  0  0  0  0  0  0  0  0  0  0  0
   59.9905   31.2488   46.7522 H   0  0  0  0  0  0  0  0  0  0  0  0
   56.4950   26.8140   46.0180 C   0  0  0  0  0  0  0  0  0  0  0  0
   55.1080   26.7160   45.9990 O   0  0  0  0  0  0  0  0  0  0  0  0
   57.2510   25.7430   46.5070 C   0  0  0  0  0  0  0  0  0  0  0  0
   56.7445   24.8409   46.8806 H   0  0  0  0  0  0  0  0  0  0  0  0
  1  2  1  0
  2  3  2  0
  3  4  1  0
  3  5  1  0
  5  6  1  0
  5  7  2  0
  7  8  1  0
  8  9  1  0
  8 10  1  0
  8 11  1  0
 11 12  2  0
 11 13  1  0
 13 14  1  0
 14 15  2  0
 15 16  1  0
 15 17  1  0
 17 18  1  0
 17 19  2  0
 19 20  1  0
 19 21  1  0
 21 22  1  0
 22 23  2  0
 22 24  2  0
 22 25  1  0
 25 26  2  0
 26 27  1  0
 27 28  1  0
 27 29  1  0
 29 30  1  0
 29 31  1  0
 29 32  1  0
 32 33  1  0
 32 34  1  0
 32 35  1  0
 35 36  1  0
 35 37  1  0
 21 38  2  0
 38 39  1  0
  7 40  1  0
 40 41  1  0
 40 42  2  0
 42 43  1  0
 42  2  1  0
 38 14  1  0
 35 26  1  0
M  CHG  2  13  -1  41  -1
M  END
>  <UniqueID>  (45) 
39

>  <SMILES>  (45) 
O=C(Cc1ccccc1[O-])[N-]c1cccc(S(=O)(=O)/N=C2\CCCN2)c1

>  <Energy>  (45) 
54.26314850182952

>  <Genealogy>  (45) 
O=C(Cc1ccccc1[O-])[N-]c1cccc(S(=O)(=O)N=C2CCCN2)c1 (protonated)
O=C(Cc1ccccc1[O-])[N-]c1cccc(S(=O)(=O)/N=C2\CCCN2)c1 (cis-trans isomerization)
O=C(Cc1ccccc1[O-])[N-]c1cccc(S(=O)(=O)/N=C2\CCCN2)c1 (3D coordinates assigned)
O=C(Cc1ccccc1[O-])[N-]c1cccc(S(=O)(=O)/N=C2\CCCN2)c1 (nonaromatic ring conformer: 54.26314850182952 kcal/mol)

>  <smiles>  (45) 
O=C(Cc1ccccc1O)Nc1cccc(S(=O)(=O)N=C2CCCN2)c1

>  <score_type>  (45) 
oracle

>  <origin>  (45) 
adg

>  <m_score__min__energy>  (45) 
-14.41

>  <m_primary>  (45) 
energy

$$$$
45:0
     RDKit          3D

 21 23  0  0  0  0  0  0  0  0999 V2000
   54.9550   29.5680   43.6090 N   0  0  0  0  0  0  0  0  0  0  0  0
   58.6580   33.3580   45.9770 C   0  0  0  0  0  0  0  0  0  0  0  0
   56.2830   31.2080   44.4830 N   0  0  0  0  0  0  0  0  0  0  0  0
   57.3930   31.6420   45.1310 C   0  0  0  0  0  0  0  0  0  0  0  0
   57.5540   32.9560   45.3350 N   0  0  0  0  0  0  0  0  0  0  0  0
   56.0270   29.9130   44.2300 C   0  0  0  0  0  0  0  0  0  0  0  0
   58.9030   34.5740   46.2180 O   0  0  0  0  0  0  0  0  0  0  0  0
   59.5490   32.4180   46.3850 C   0  0  0  0  0  0  0  0  0  0  0  0
   61.1640   32.6750   47.2960 S   0  0  0  0  0  0  0  0  0  0  0  0
   61.5010   30.8440   47.3210 C   0  0  0  0  0  0  0  0  0  0  0  0
   60.4410   30.2920   46.6890 C   0  0  0  0  0  0  0  0  0  0  0  0
   59.4610   31.0610   46.2180 C   0  0  0  0  0  0  0  0  0  0  0  0
   58.2810   30.6720   45.5350 C   0  0  0  0  0  0  0  0  0  0  0  0
   58.0050   29.3550   45.2680 C   0  0  0  0  0  0  0  0  0  0  0  0
   56.8940   28.9640   44.6220 N   0  0  0  0  0  0  0  0  0  0  0  0
   54.9490   29.2310   42.6250 H   0  0  0  0  0  0  0  0  0  0  0  0
   56.8800   33.6900   45.0280 H   0  0  0  0  0  0  0  0  0  0  0  0
   62.3697   30.3263   47.7539 H   0  0  0  0  0  0  0  0  0  0  0  0
   60.3876   29.2005   46.5630 H   0  0  0  0  0  0  0  0  0  0  0  0
   58.7223   28.5883   45.5961 H   0  0  0  0  0  0  0  0  0  0  0  0
   56.7590   27.9480   44.4590 H   0  0  0  0  0  0  0  0  0  0  0  0
  1  2  2  3
  2  3  1  0
  3  4  2  0
  4  5  1  0
  5  6  1  0
  6  7  2  0
  6  8  1  0
  8  9  1  0
  9 10  1  0
 10 11  2  0
 11 12  1  0
 12 13  1  0
 13 14  2  0
 14 15  1  0
 15  2  1  0
 13  4  1  0
 12  8  2  0
  1 16  1  0
  5 17  1  0
 10 18  1  0
 11 19  1  0
 14 20  1  0
 15 21  1  0
M  END
>  <smiles>  (46) 
N=c1nc2[nH]c(=O)c3sccc3c2c[nH]1

>  <score_type>  (46) 
oracle

>  <origin>  (46) 
adg

>  <m_score__min__energy>  (46) 
-6.2699999999999996

>  <m_primary>  (46) 
energy

$$$$
46:0
     RDKit          3D

 60 63  0  0  0  0  0  0  0  0999 V2000
   66.7570   32.9480   50.1110 C   0  0  0  0  0  0  0  0  0  0  0  0
   65.2440   32.6990   50.0800 C   0  0  1  0  0  0  0  0  0  0  0  0
   64.5990   33.0770   51.4240 C   0  0  0  0  0  0  0  0  0  0  0  0
   63.0900   32.7410   51.4570 C   0  0  0  0  0  0  0  0  0  0  0  0
   62.4070   32.6800   50.0520 C   0  0  2  0  0  0  0  0  0  0  0  0
   62.4490   31.2870   49.5000 N   0  0  0  0  0  0  0  0  0  0  0  0
   61.3320   30.4470   50.0400 C   0  0  0  0  0  0  0  0  0  0  0  0
   60.4810   29.7230   48.9790 C   0  0  0  0  0  0  0  0  0  0  0  0
   60.1560   30.6320   47.8710 N   0  0  0  0  0  0  0  0  0  0  0  0
   58.9170   30.4700   47.1460 C   0  0  0  0  0  0  0  0  0  0  0  0
   58.1570   29.5000   47.4110 O   0  0  0  0  0  0  0  0  0  0  0  0
   58.5110   31.4130   46.0870 C   0  0  0  0  0  0  0  0  0  0  0  0
   58.6050   32.7530   46.2030 N   0  0  0  0  0  0  0  0  0  0  0  0
   58.0410   33.2890   45.1290 N   0  0  0  0  0  0  0  0  0  0  0  0
   58.0110   34.7200   44.8600 C   0  0  0  0  0  0  0  0  0  0  0  0
   57.5860   32.3250   44.3070 C   0  0  0  0  0  0  0  0  0  0  0  0
   57.8760   31.1130   44.8890 C   0  0  0  0  0  0  0  0  0  0  0  0
   57.6050   29.8300   44.3110 N   0  0  0  0  0  0  0  0  0  0  0  0
   56.7750   28.8150   44.8910 C   0  0  0  0  0  0  0  0  0  0  0  0
   55.5290   28.9960   44.9240 O   0  0  0  0  0  0  0  0  0  0  0  0
   57.3380   27.5540   45.4270 C   0  0  0  0  0  0  0  0  0  0  0  0
   58.7310   27.3670   45.4410 C   0  0  0  0  0  0  0  0  0  0  0  0
   59.2810   26.1730   45.9170 C   0  0  0  0  0  0  0  0  0  0  0  0
   58.4470   25.1630   46.4010 C   0  0  0  0  0  0  0  0  0  0  0  0
   57.0620   25.3490   46.4180 C   0  0  0  0  0  0  0  0  0  0  0  0
   56.5040   26.5380   45.9350 C   0  0  0  0  0  0  0  0  0  0  0  0
   55.1600   26.7060   45.9970 F   0  0  0  0  0  0  0  0  0  0  0  0
   61.2150   31.5050   47.3470 C   0  0  0  0  0  0  0  0  0  0  0  0
   62.5520   31.1930   48.0220 C   0  0  0  0  0  0  0  0  0  0  0  0
   63.0810   33.7470   49.1510 C   0  0  0  0  0  0  0  0  0  0  0  0
   64.5820   33.4730   48.9150 C   0  0  0  0  0  0  0  0  0  0  0  0
   67.0980   33.0041   51.1553 H   0  0  0  0  0  0  0  0  0  0  0  0
   67.2749   32.1230   49.6000 H   0  0  0  0  0  0  0  0  0  0  0  0
   66.9832   33.8955   49.6000 H   0  0  0  0  0  0  0  0  0  0  0  0
   65.0792   31.6243   49.9129 H   0  0  0  0  0  0  0  0  0  0  0  0
   65.1040   32.5225   52.2287 H   0  0  0  0  0  0  0  0  0  0  0  0
   64.7084   34.1631   51.5599 H   0  0  0  0  0  0  0  0  0  0  0  0
   62.9670   31.7611   51.9413 H   0  0  0  0  0  0  0  0  0  0  0  0
   62.6002   33.5580   52.0070 H   0  0  0  0  0  0  0  0  0  0  0  0
   61.3354   32.9209   50.1123 H   0  0  0  0  0  0  0  0  0  0  0  0
   60.6657   31.1008   50.6219 H   0  0  0  0  0  0  0  0  0  0  0  0
   61.8077   29.6570   50.6396 H   0  0  0  0  0  0  0  0  0  0  0  0
   59.5482   29.3697   49.4427 H   0  0  0  0  0  0  0  0  0  0  0  0
   61.0545   28.8716   48.5838 H   0  0  0  0  0  0  0  0  0  0  0  0
   57.9994   35.2718   45.8115 H   0  0  0  0  0  0  0  0  0  0  0  0
   58.9034   35.0033   44.2827 H   0  0  0  0  0  0  0  0  0  0  0  0
   57.1075   34.9657   44.2827 H   0  0  0  0  0  0  0  0  0  0  0  0
   57.0752   32.4786   43.3450 H   0  0  0  0  0  0  0  0  0  0  0  0
   59.3930   28.1656   45.0749 H   0  0  0  0  0  0  0  0  0  0  0  0
   60.3715   26.0291   45.9102 H   0  0  0  0  0  0  0  0  0  0  0  0
   58.8801   24.2211   46.7688 H   0  0  0  0  0  0  0  0  0  0  0  0
   56.4078   24.5576   46.8126 H   0  0  0  0  0  0  0  0  0  0  0  0
   60.9479   32.5542   47.5413 H   0  0  0  0  0  0  0  0  0  0  0  0
   61.3146   31.3322   46.2652 H   0  0  0  0  0  0  0  0  0  0  0  0
   63.3068   31.9114   47.6697 H   0  0  0  0  0  0  0  0  0  0  0  0
   62.8395   30.1640   47.7603 H   0  0  0  0  0  0  0  0  0  0  0  0
   62.5690   33.7584   48.1775 H   0  0  0  0  0  0  0  0  0  0  0  0
   62.9994   34.7146   49.6679 H   0  0  0  0  0  0  0  0  0  0  0  0
   64.6900   32.8810   47.9942 H   0  0  0  0  0  0  0  0  0  0  0  0
   65.0869   34.4472   48.8373 H   0  0  0  0  0  0  0  0  0  0  0  0
  1  2  1  0
  2  3  1  0
  3  4  1  0
  4  5  1  0
  5  6  1  0
  6  7  1  0
  7  8  1  0
  8  9  1  0
  9 10  1  0
 10 11  2  0
 10 12  1  0
 12 13  2  0
 13 14  1  0
 14 15  1  0
 14 16  1  0
 16 17  2  0
 17 18  1  0
 18 19  1  0
 19 20  2  0
 19 21  1  0
 21 22  2  0
 22 23  1  0
 23 24  2  0
 24 25  1  0
 25 26  2  0
 26 27  1  0
  9 28  1  0
 28 29  1  0
  5 30  1  0
 30 31  1  0
 31  2  1  0
 29  6  1  0
 17 12  1  0
 26 21  1  0
  1 32  1  0
  1 33  1  0
  1 34  1  0
  2 35  1  1
  3 36  1  0
  3 37  1  0
  4 38  1  0
  4 39  1  0
  5 40  1  6
  7 41  1  0
  7 42  1  0
  8 43  1  0
  8 44  1  0
 15 45  1  0
 15 46  1  0
 15 47  1  0
 16 48  1  0
 22 49  1  0
 23 50  1  0
 24 51  1  0
 25 52  1  0
 28 53  1  0
 28 54  1  0
 29 55  1  0
 29 56  1  0
 30 57  1  0
 30 58  1  0
 31 59  1  0
 31 60  1  0
M  CHG  1  18  -1
M  END
>  <UniqueID>  (47) 
40

>  <SMILES>  (47) 
CC1CCC(N2CCN(C(=O)c3nn(C)cc3[N-]C(=O)c3ccccc3F)CC2)CC1

>  <Energy>  (47) 
117.79657692226004

>  <Genealogy>  (47) 
CC1CCC(N2CCN(C(=O)c3nn(C)cc3[N-]C(=O)c3ccccc3F)CC2)CC1 (protonated)
CC1CCC(N2CCN(C(=O)c3nn(C)cc3[N-]C(=O)c3ccccc3F)CC2)CC1 (3D coordinates assigned)
CC1CCC(N2CCN(C(=O)c3nn(C)cc3[N-]C(=O)c3ccccc3F)CC2)CC1 (nonaromatic ring conformer: 117.79657692226004 kcal/mol)

>  <smiles>  (47) 
CC1CCC(N2CCN(C(=O)c3nn(C)cc3NC(=O)c3ccccc3F)CC2)CC1

>  <score_type>  (47) 
oracle

>  <origin>  (47) 
adg

>  <m_score__min__energy>  (47) 
-11.52

>  <m_primary>  (47) 
energy

$$$$
47:0
     RDKit          3D

 49 51  0  0  1  0  0  0  0  0999 V2000
   69.2940   25.5780   49.7100 C   0  0  0  0  0  0  0  0  0  0  0  0
   68.3420   26.6490   49.4870 N   0  0  0  0  0  0  0  0  0  0  0  0
   67.7680   27.2360   50.4980 C   0  0  0  0  0  0  0  0  0  0  0  0
   67.5330   28.5970   50.5130 C   0  0  0  0  0  0  0  0  0  0  0  0
   66.9240   29.1870   51.5960 C   0  0  0  0  0  0  0  0  0  0  0  0
   66.6970   30.5580   51.5900 O   0  0  0  0  0  0  0  0  0  0  0  0
   65.4720   30.9970   51.1100 C   0  0  0  0  0  0  0  0  0  0  0  0
   65.4380   31.9600   50.1250 C   0  0  0  0  0  0  0  0  0  0  0  0
   64.2210   32.4240   49.6200 C   0  0  0  0  0  0  0  0  0  0  0  0
   63.0080   31.9650   50.0570 C   0  0  0  0  0  0  0  0  0  0  0  0
   61.7500   32.3680   49.6140 N   0  0  0  0  0  0  0  0  0  0  0  0
   61.3260   32.5690   48.2770 C   0  0  0  0  0  0  0  0  0  0  0  0
   62.1380   32.3750   47.3690 O   0  0  0  0  0  0  0  0  0  0  0  0
   60.0220   32.9780   47.9630 N   0  0  0  0  0  0  0  0  0  0  0  0
   59.4340   33.2230   46.7200 C   0  0  0  0  0  0  0  0  0  0  0  0
   58.6250   32.2040   46.1910 C   0  0  0  0  0  0  0  0  0  0  0  0
   57.9880   32.3170   44.9790 C   0  0  0  0  0  0  0  0  0  0  0  0
   57.1510   31.2520   44.4400 C   0  0  0  0  0  0  0  0  0  0  0  0
   55.9640   31.0750   44.8680 O   0  0  0  0  0  0  0  0  0  0  0  0
   57.5740   30.3530   43.4280 N   0  0  0  0  0  0  0  0  0  0  0  0
   56.6430   29.3400   42.9830 C   0  0  0  0  0  0  0  0  0  0  0  0
   58.1120   33.4540   44.2080 C   0  0  0  0  0  0  0  0  0  0  0  0
   58.8950   34.4620   44.7000 C   0  0  0  0  0  0  0  0  0  0  0  0
   59.5440   34.3410   45.9420 C   0  0  0  0  0  0  0  0  0  0  0  0
   60.2730   35.4000   46.2970 F   0  0  0  0  0  0  0  0  0  0  0  0
   63.0640   30.9870   51.0590 C   0  0  0  0  0  0  0  0  0  0  0  0
   64.2600   30.5240   51.5620 C   0  0  0  0  0  0  0  0  0  0  0  0
   64.2700   29.5710   52.5370 F   0  0  0  0  0  0  0  0  0  0  0  0
   66.5500   28.4420   52.6570 N   0  0  0  0  0  0  0  0  0  0  0  0
   66.7870   27.1190   52.6250 C   0  0  0  0  0  0  0  0  0  0  0  0
   67.3860   26.5340   51.5610 N   0  0  0  0  0  0  0  0  0  0  0  0
   69.4287   25.4264   50.7911 H   0  0  0  0  0  0  0  0  0  0  0  0
   68.9164   24.6509   49.2540 H   0  0  0  0  0  0  0  0  0  0  0  0
   70.2590   25.8443   49.2540 H   0  0  0  0  0  0  0  0  0  0  0  0
   67.8349   29.2131   49.6532 H   0  0  0  0  0  0  0  0  0  0  0  0
   66.3806   32.3683   49.7316 H   0  0  0  0  0  0  0  0  0  0  0  0
   64.2384   33.1940   48.8347 H   0  0  0  0  0  0  0  0  0  0  0  0
   61.0090   32.5490   50.3520 H   0  0  0  0  0  0  0  0  0  0  0  0
   59.3910   33.1200   48.8190 H   0  0  0  0  0  0  0  0  0  0  0  0
   58.4962   31.2780   46.7706 H   0  0  0  0  0  0  0  0  0  0  0  0
   58.5170   30.3990   43.0040 H   0  0  0  0  0  0  0  0  0  0  0  0
   56.1910   28.8481   43.8569 H   0  0  0  0  0  0  0  0  0  0  0  0
   55.8536   29.8084   42.3768 H   0  0  0  0  0  0  0  0  0  0  0  0
   57.1762   28.5929   42.3768 H   0  0  0  0  0  0  0  0  0  0  0  0
   57.6023   33.5463   43.2376 H   0  0  0  0  0  0  0  0  0  0  0  0
   59.0194   35.3842   44.1135 H   0  0  0  0  0  0  0  0  0  0  0  0
   62.1240   30.5763   51.4562 H   0  0  0  0  0  0  0  0  0  0  0  0
   66.0940   28.9280   53.4510 H   0  0  0  0  0  0  0  0  0  0  0  0
   66.4876   26.4981   53.4822 H   0  0  0  0  0  0  0  0  0  0  0  0
  1  2  1  0
  2  3  2  0
  3  4  1  0
  4  5  2  0
  5  6  1  0
  6  7  1  0
  7  8  2  0
  8  9  1  0
  9 10  2  0
 10 11  1  0
 11 12  1  0
 12 13  2  0
 12 14  1  0
 14 15  1  0
 15 16  2  0
 16 17  1  0
 17 18  1  0
 18 19  2  0
 18 20  1  0
 20 21  1  0
 17 22  2  0
 22 23  1  0
 23 24  2  0
 24 25  1  0
 10 26  1  0
 26 27  2  0
 27 28  1  0
  5 29  1  0
 29 30  1  0
 30 31  2  0
 31  3  1  0
 27  7  1  0
 24 15  1  0
  1 32  1  0
  1 33  1  0
  1 34  1  0
  4 35  1  0
  8 36  1  0
  9 37  1  0
 11 38  1  0
 14 39  1  0
 16 40  1  0
 20 41  1  0
 21 42  1  0
 21 43  1  0
 21 44  1  0
 22 45  1  0
 23 46  1  0
 26 47  1  0
 29 48  1  0
 30 49  1  0
M  END
>  <smiles>  (48) 
CN=c1cc(Oc2ccc(NC(=O)Nc3cc(C(=O)NC)ccc3F)cc2F)[nH]cn1

>  <score_type>  (48) 
oracle

>  <origin>  (48) 
adg

>  <m_score__min__energy>  (48) 
-7.8099999999999996

>  <m_primary>  (48) 
energy

$$$$
48:0
     RDKit          3D

 31 33  0  0  0  0  0  0  0  0999 V2000
   56.6950   25.3080   47.2610 O   0  0  0  0  0  0  0  0  0  0  0  0
   55.8250   25.5910   46.3960 C   0  0  0  0  0  0  0  0  0  0  0  0
   55.6080   26.9520   46.0020 N   0  0  0  0  0  0  0  0  0  0  0  0
   56.5930   27.8730   45.5090 C   0  0  0  0  0  0  0  0  0  0  0  0
   57.9700   27.5870   45.5590 C   0  0  0  0  0  0  0  0  0  0  0  0
   58.8970   28.4960   45.0410 C   0  0  0  0  0  0  0  0  0  0  0  0
   58.4600   29.6870   44.4550 C   0  0  0  0  0  0  0  0  0  0  0  0
   57.0930   29.9660   44.3780 C   0  0  0  0  0  0  0  0  0  0  0  0
   56.1610   29.0600   44.8950 C   0  0  0  0  0  0  0  0  0  0  0  0
   54.8030   29.3450   44.8020 O   0  0  0  0  0  0  0  0  0  0  0  0
   54.9600   24.5210   45.8680 C   0  0  0  0  0  0  0  0  0  0  0  0
   53.6310   24.6720   45.7130 N   0  0  0  0  0  0  0  0  0  0  0  0
   53.2500   23.5230   45.1190 C   0  0  0  0  0  0  0  0  0  0  0  0
   52.0550   23.2860   44.8050 O   0  0  0  0  0  0  0  0  0  0  0  0
   54.2510   22.6520   44.8870 N   0  0  0  0  0  0  0  0  0  0  0  0
   55.3370   23.2820   45.3690 C   0  0  0  0  0  0  0  0  0  0  0  0
   56.6770   22.6600   45.3880 C   0  0  0  0  0  0  0  0  0  0  0  0
   56.8930   21.4300   46.0330 C   0  0  0  0  0  0  0  0  0  0  0  0
   58.1630   20.8460   46.0300 C   0  0  0  0  0  0  0  0  0  0  0  0
   59.2210   21.4750   45.3680 C   0  0  0  0  0  0  0  0  0  0  0  0
   59.0080   22.6840   44.7030 C   0  0  0  0  0  0  0  0  0  0  0  0
   57.7390   23.2730   44.7050 C   0  0  0  0  0  0  0  0  0  0  0  0
   58.3181   26.6447   46.0073 H   0  0  0  0  0  0  0  0  0  0  0  0
   59.9729   28.2733   45.0948 H   0  0  0  0  0  0  0  0  0  0  0  0
   59.1916   30.4043   44.0547 H   0  0  0  0  0  0  0  0  0  0  0  0
   56.7490   30.9001   43.9098 H   0  0  0  0  0  0  0  0  0  0  0  0
   56.0591   20.9248   46.5423 H   0  0  0  0  0  0  0  0  0  0  0  0
   58.3298   19.8906   46.5491 H   0  0  0  0  0  0  0  0  0  0  0  0
   60.2214   21.0176   45.3709 H   0  0  0  0  0  0  0  0  0  0  0  0
   59.8398   23.1745   44.1763 H   0  0  0  0  0  0  0  0  0  0  0  0
   57.5730   24.2195   44.1696 H   0  0  0  0  0  0  0  0  0  0  0  0
  1  2  2  0
  2  3  1  0
  3  4  1  0
  4  5  2  0
  5  6  1  0
  6  7  2  0
  7  8  1  0
  8  9  2  0
  9 10  1  0
  2 11  1  0
 11 12  1  0
 12 13  1  0
 13 14  2  0
 13 15  1  0
 15 16  1  0
 16 17  1  0
 17 18  2  0
 18 19  1  0
 19 20  2  0
 20 21  1  0
 21 22  2  0
  9  4  1  0
 16 11  2  0
 22 17  1  0
  5 23  1  0
  6 24  1  0
  7 25  1  0
  8 26  1  0
 18 27  1  0
 19 28  1  0
 20 29  1  0
 21 30  1  0
 22 31  1  0
M  CHG  4   3  -1  10  -1  12  -1  15  -1
M  END
>  <UniqueID>  (49) 
41

>  <SMILES>  (49) 
O=C([N-]c1ccccc1[O-])c1[n-]c(=O)[n-]c1-c1ccccc1

>  <Energy>  (49) 
71.13386851515946

>  <Genealogy>  (49) 
O=C([N-]c1ccccc1[O-])c1[n-]c(=O)[n-]c1-c1ccccc1 (protonated)
O=C([N-]c1ccccc1[O-])c1[n-]c(=O)[n-]c1-c1ccccc1 (3D coordinates assigned)
O=C([N-]c1ccccc1[O-])c1[n-]c(=O)[n-]c1-c1ccccc1 (optimized conformer: 71.13386851515946 kcal/mol)

>  <smiles>  (49) 
O=C(Nc1ccccc1O)c1[nH]c(=O)[nH]c1-c1ccccc1

>  <score_type>  (49) 
oracle

>  <origin>  (49) 
adg

>  <m_score__min__energy>  (49) 
-16.030000000000001

>  <m_primary>  (49) 
energy

$$$$
49:0
     RDKit          3D

 24 24  0  0  0  0  0  0  0  0999 V2000
   57.0570   23.8220   47.1080 H   0  0  0  0  0  0  0  0  0  0  0  0
   57.7770   23.2220   46.7800 O   0  0  0  0  0  0  0  0  0  0  0  0
   58.3500   23.8480   45.6640 C   0  0  0  0  0  0  0  0  0  0  0  0
   57.6674   23.7522   44.8067 H   0  0  0  0  0  0  0  0  0  0  0  0
   59.3124   23.3632   45.4431 H   0  0  0  0  0  0  0  0  0  0  0  0
   58.6010   25.3340   45.9430 C   0  0  0  0  0  0  0  0  0  0  0  0
   59.4216   25.6836   45.2993 H   0  0  0  0  0  0  0  0  0  0  0  0
   58.8592   25.4437   47.0066 H   0  0  0  0  0  0  0  0  0  0  0  0
   57.3670   26.1750   45.6670 C   0  0  0  0  0  0  0  0  0  0  0  0
   56.1230   25.8790   46.4210 C   0  0  0  0  0  0  0  0  0  0  0  0
   56.1460   25.1450   47.4450 O   0  0  0  0  0  0  0  0  0  0  0  0
   54.9060   26.4060   46.0030 O   0  0  0  0  0  0  0  0  0  0  0  0
   57.3550   27.1210   44.7030 C   0  0  0  0  0  0  0  0  0  0  0  0
   57.1912   26.7975   43.6645 H   0  0  0  0  0  0  0  0  0  0  0  0
   57.5480   28.5610   44.9570 C   0  0  0  0  0  0  0  0  0  0  0  0
   56.4580   29.4450   45.0280 C   0  0  0  0  0  0  0  0  0  0  0  0
   55.1580   28.9800   44.8750 O   0  0  0  0  0  0  0  0  0  0  0  0
   56.6730   30.7710   45.2390 N   0  0  0  0  0  0  0  0  0  0  0  0
   57.9250   31.2840   45.3730 C   0  0  0  0  0  0  0  0  0  0  0  0
   58.0800   32.5170   45.5720 O   0  0  0  0  0  0  0  0  0  0  0  0
   59.0380   30.4420   45.2840 C   0  0  0  0  0  0  0  0  0  0  0  0
   60.0540   30.8511   45.3855 H   0  0  0  0  0  0  0  0  0  0  0  0
   58.8460   29.0770   45.0650 C   0  0  0  0  0  0  0  0  0  0  0  0
   59.7136   28.4065   44.9772 H   0  0  0  0  0  0  0  0  0  0  0  0
  1  2  1  0
  2  3  1  0
  3  4  1  0
  3  5  1  0
  3  6  1  0
  6  7  1  0
  6  8  1  0
  6  9  1  0
  9 10  1  0
 10 11  2  0
 10 12  1  0
  9 13  2  0
 13 14  1  0
 13 15  1  0
 15 16  2  0
 16 17  1  0
 16 18  1  0
 18 19  1  0
 19 20  2  0
 19 21  1  0
 21 22  1  0
 21 23  2  0
 23 24  1  0
 23 15  1  0
M  CHG  3  12  -1  17  -1  18  -1
M  END
>  <UniqueID>  (50) 
42

>  <SMILES>  (50) 
O=C([O-])/C(=C/c1ccc(=O)[n-]c1[O-])CCO

>  <Energy>  (50) 
29.7888005688067

>  <Genealogy>  (50) 
O=C([O-])C(=Cc1ccc(=O)[n-]c1[O-])CCO (protonated)
O=C([O-])/C(=C/c1ccc(=O)[n-]c1[O-])CCO (cis-trans isomerization)
O=C([O-])/C(=C/c1ccc(=O)[n-]c1[O-])CCO (3D coordinates assigned)
O=C([O-])/C(=C/c1ccc(=O)[n-]c1[O-])CCO (optimized conformer: 29.7888005688067 kcal/mol)

>  <smiles>  (50) 
O=C(O)C(=Cc1ccc(=O)[nH]c1O)CCO

>  <score_type>  (50) 
oracle

>  <origin>  (50) 
adg

>  <m_score__min__energy>  (50) 
-13.699999999999999

>  <m_primary>  (50) 
energy

$$$$
50:0
     RDKit          3D

 50 52  0  0  0  0  0  0  0  0999 V2000
   59.3499   27.7140   43.5306 H   0  0  0  0  0  0  0  0  0  0  0  0
   58.5900   28.2310   44.1350 C   0  0  0  0  0  0  0  0  0  0  0  0
   57.4170   28.4160   43.6040 N   0  0  0  0  0  0  0  0  0  0  0  0
   56.4920   29.4900   43.8390 C   0  0  0  0  0  0  0  0  0  0  0  0
   55.4370   29.3110   44.5010 O   0  0  0  0  0  0  0  0  0  0  0  0
   56.7720   30.8410   43.2590 C   0  0  0  0  0  0  0  0  0  0  0  0
   57.4803   30.7377   42.4237 H   0  0  0  0  0  0  0  0  0  0  0  0
   55.8289   31.2794   42.9009 H   0  0  0  0  0  0  0  0  0  0  0  0
   57.3480   31.7170   44.2730 N   0  0  0  0  0  0  0  0  0  0  0  0
   57.4300   31.3980   45.5550 N   0  0  0  0  0  0  0  0  0  0  0  0
   57.9310   32.4730   46.1910 C   0  0  0  0  0  0  0  0  0  0  0  0
   58.1080   32.5650   47.4740 N   0  0  0  0  0  0  0  0  0  0  0  0
   59.1150   33.3240   48.1620 C   0  0  0  0  0  0  0  0  0  0  0  0
   59.1230   33.3050   49.4210 O   0  0  0  0  0  0  0  0  0  0  0  0
   60.0720   34.2470   47.4510 C   0  0  0  0  0  0  0  0  0  0  0  0
   59.9052   34.1767   46.3660 H   0  0  0  0  0  0  0  0  0  0  0  0
   59.8961   35.2774   47.7936 H   0  0  0  0  0  0  0  0  0  0  0  0
   61.4930   33.8650   47.7600 C   0  0  0  0  0  0  0  0  0  0  0  0
   62.0450   34.1190   49.0260 C   0  0  0  0  0  0  0  0  0  0  0  0
   61.4437   34.6295   49.7928 H   0  0  0  0  0  0  0  0  0  0  0  0
   63.3560   33.7260   49.3170 C   0  0  0  0  0  0  0  0  0  0  0  0
   63.7829   33.9280   50.3104 H   0  0  0  0  0  0  0  0  0  0  0  0
   64.1230   33.0770   48.3460 C   0  0  0  0  0  0  0  0  0  0  0  0
   65.1527   32.7659   48.5763 H   0  0  0  0  0  0  0  0  0  0  0  0
   63.5830   32.8230   47.0830 C   0  0  0  0  0  0  0  0  0  0  0  0
   64.1892   32.3167   46.3174 H   0  0  0  0  0  0  0  0  0  0  0  0
   62.2730   33.2120   46.7920 C   0  0  0  0  0  0  0  0  0  0  0  0
   61.8498   33.0053   45.7979 H   0  0  0  0  0  0  0  0  0  0  0  0
   58.1530   33.5060   45.3030 C   0  0  0  0  0  0  0  0  0  0  0  0
   58.5455   34.5112   45.5165 H   0  0  0  0  0  0  0  0  0  0  0  0
   57.7670   32.9830   44.0820 C   0  0  0  0  0  0  0  0  0  0  0  0
   57.7971   33.5116   43.1178 H   0  0  0  0  0  0  0  0  0  0  0  0
   58.9720   28.6670   45.4930 C   0  0  0  0  0  0  0  0  0  0  0  0
   58.2830   28.2010   46.6230 C   0  0  0  0  0  0  0  0  0  0  0  0
   57.4781   27.4604   46.5061 H   0  0  0  0  0  0  0  0  0  0  0  0
   58.6140   28.6730   47.8970 C   0  0  0  0  0  0  0  0  0  0  0  0
   58.0796   28.2888   48.7784 H   0  0  0  0  0  0  0  0  0  0  0  0
   59.6260   29.6360   48.0580 C   0  0  0  0  0  0  0  0  0  0  0  0
   60.0090   30.1540   49.4370 C   0  0  0  0  0  0  0  0  0  0  0  0
   60.2742   29.2775   50.0464 H   0  0  0  0  0  0  0  0  0  0  0  0
   58.8850   30.8450   50.0770 N   0  0  0  0  0  0  0  0  0  0  0  0
   58.3290   31.3340   49.3360 H   0  0  0  0  0  0  0  0  0  0  0  0
   59.2470   31.5770   50.7300 H   0  0  0  0  0  0  0  0  0  0  0  0
   61.1740   31.0390   49.3760 N   0  0  0  0  0  0  0  0  0  0  0  0
   60.8600   32.0330   49.2700 H   0  0  0  0  0  0  0  0  0  0  0  0
   61.7470   30.7960   48.5340 H   0  0  0  0  0  0  0  0  0  0  0  0
   60.2930   30.1160   46.9190 C   0  0  0  0  0  0  0  0  0  0  0  0
   61.0880   30.8680   47.0307 H   0  0  0  0  0  0  0  0  0  0  0  0
   59.9580   29.6490   45.6460 C   0  0  0  0  0  0  0  0  0  0  0  0
   60.4705   30.0540   44.7609 H   0  0  0  0  0  0  0  0  0  0  0  0
  1  2  1  0
  2  3  2  0
  3  4  1  0
  4  5  2  0
  4  6  1  0
  6  7  1  0
  6  8  1  0
  6  9  1  0
  9 10  1  0
 10 11  1  0
 11 12  2  0
 12 13  1  0
 13 14  2  0
 13 15  1  0
 15 16  1  0
 15 17  1  0
 15 18  1  0
 18 19  2  0
 19 20  1  0
 19 21  1  0
 21 22  1  0
 21 23  2  0
 23 24  1  0
 23 25  1  0
 25 26  1  0
 25 27  2  0
 27 28  1  0
 11 29  1  0
 29 30  1  0
 29 31  2  0
 31 32  1  0
  2 33  1  0
 33 34  2  0
 34 35  1  0
 34 36  1  0
 36 37  1  0
 36 38  2  0
 38 39  1  0
 39 40  1  0
 39 41  1  0
 41 42  1  0
 41 43  1  0
 39 44  1  0
 44 45  1  0
 44 46  1  0
 38 47  1  0
 47 48  1  0
 47 49  2  0
 49 50  1  0
 31  9  1  0
 49 33  1  0
 27 18  1  0
M  CHG  1  10  -1
M  END
>  <UniqueID>  (51) 
43

>  <SMILES>  (51) 
NC(N)c1ccc(/C=N\C(=O)Cn2cc/c(=N/C(=O)Cc3ccccc3)[n-]2)cc1

>  <Energy>  (51) 
93.98858489310999

>  <Genealogy>  (51) 
NC(N)c1ccc(C=NC(=O)Cn2ccc(=NC(=O)Cc3ccccc3)[n-]2)cc1 (protonated)
NC(N)c1ccc(/C=N\C(=O)Cn2cc/c(=N/C(=O)Cc3ccccc3)[n-]2)cc1 (cis-trans isomerization)
NC(N)c1ccc(/C=N\C(=O)Cn2cc/c(=N/C(=O)Cc3ccccc3)[n-]2)cc1 (3D coordinates assigned)
NC(N)c1ccc(/C=N\C(=O)Cn2cc/c(=N/C(=O)Cc3ccccc3)[n-]2)cc1 (optimized conformer: 93.98858489310999 kcal/mol)

>  <smiles>  (51) 
NC(N)c1ccc(C=NC(=O)Cn2ccc(=NC(=O)Cc3ccccc3)[nH]2)cc1

>  <score_type>  (51) 
oracle

>  <origin>  (51) 
adg

>  <m_score__min__energy>  (51) 
-10.25

>  <m_primary>  (51) 
energy

$$$$
51:0
     RDKit          3D

 31 32  0  0  0  0  0  0  0  0999 V2000
   55.7180   29.7280   44.8720 O   0  0  0  0  0  0  0  0  0  0  0  0
   56.9080   30.1250   44.7410 C   0  0  0  0  0  0  0  0  0  0  0  0
   57.2090   31.3150   43.8910 C   0  0  0  0  0  0  0  0  0  0  0  0
   57.7980   32.4070   44.7430 C   0  0  0  0  0  0  0  0  0  0  0  0
   57.7480   32.3240   46.1440 C   0  0  0  0  0  0  0  0  0  0  0  0
   58.3380   33.3180   46.9310 C   0  0  0  0  0  0  0  0  0  0  0  0
   58.9950   34.3920   46.3250 C   0  0  0  0  0  0  0  0  0  0  0  0
   59.5770   35.3490   47.0910 F   0  0  0  0  0  0  0  0  0  0  0  0
   59.0620   34.4750   44.9320 C   0  0  0  0  0  0  0  0  0  0  0  0
   58.4680   33.4860   44.1420 C   0  0  0  0  0  0  0  0  0  0  0  0
   57.9640   29.4280   45.3400 O   0  0  0  0  0  0  0  0  0  0  0  0
   58.9210   28.6760   44.5980 C   0  0  0  0  0  0  0  0  0  0  0  0
   58.2880   27.4350   44.0390 C   0  0  0  0  0  0  0  0  0  0  0  0
   58.5330   27.1010   42.8490 O   0  0  0  0  0  0  0  0  0  0  0  0
   57.3990   26.5910   44.8640 C   0  0  0  0  0  0  0  0  0  0  0  0
   57.3280   25.2120   44.8070 C   0  0  0  0  0  0  0  0  0  0  0  0
   56.3930   24.8330   45.7490 C   0  0  0  0  0  0  0  0  0  0  0  0
   55.9320   25.9940   46.3370 C   0  0  0  0  0  0  0  0  0  0  0  0
   56.5480   27.0610   45.7990 N   0  0  0  0  0  0  0  0  0  0  0  0
   57.9283   31.0332   43.1079 H   0  0  0  0  0  0  0  0  0  0  0  0
   56.2803   31.6757   43.4248 H   0  0  0  0  0  0  0  0  0  0  0  0
   57.2425   31.4733   46.6244 H   0  0  0  0  0  0  0  0  0  0  0  0
   58.2848   33.2543   48.0279 H   0  0  0  0  0  0  0  0  0  0  0  0
   59.5826   35.3192   44.4563 H   0  0  0  0  0  0  0  0  0  0  0  0
   58.5254   33.5529   43.0455 H   0  0  0  0  0  0  0  0  0  0  0  0
   59.3044   29.2919   43.7711 H   0  0  0  0  0  0  0  0  0  0  0  0
   59.7455   28.3873   45.2664 H   0  0  0  0  0  0  0  0  0  0  0  0
   57.9021   24.5487   44.1433 H   0  0  0  0  0  0  0  0  0  0  0  0
   56.0768   23.8062   45.9852 H   0  0  0  0  0  0  0  0  0  0  0  0
   55.1713   26.0394   47.1303 H   0  0  0  0  0  0  0  0  0  0  0  0
   56.3860   28.0580   46.0640 H   0  0  0  0  0  0  0  0  0  0  0  0
  1  2  2  0
  2  3  1  0
  3  4  1  0
  4  5  2  0
  5  6  1  0
  6  7  2  0
  7  8  1  0
  7  9  1  0
  9 10  2  0
  2 11  1  0
 11 12  1  0
 12 13  1  0
 13 14  2  0
 13 15  1  0
 15 16  2  0
 16 17  1  0
 17 18  2  0
 18 19  1  0
 10  4  1  0
 19 15  1  0
  3 20  1  0
  3 21  1  0
  5 22  1  0
  6 23  1  0
  9 24  1  0
 10 25  1  0
 12 26  1  0
 12 27  1  0
 16 28  1  0
 17 29  1  0
 18 30  1  0
 19 31  1  0
M  END
>  <UniqueID>  (52) 
44

>  <SMILES>  (52) 
O=C(Cc1ccc(F)cc1)OCC(=O)c1ccc[nH]1

>  <Energy>  (52) 
48.607239581474296

>  <Genealogy>  (52) 
O=C(Cc1ccc(F)cc1)OCC(=O)c1ccc[nH]1 (3D coordinates assigned)
O=C(Cc1ccc(F)cc1)OCC(=O)c1ccc[nH]1 (optimized conformer: 48.607239581474296 kcal/mol)

>  <smiles>  (52) 
O=C(Cc1ccc(F)cc1)OCC(=O)c1ccc[nH]1

>  <score_type>  (52) 
oracle

>  <origin>  (52) 
adg

>  <m_score__min__energy>  (52) 
-6.4000000000000004

>  <m_primary>  (52) 
energy

$$$$
52:0
     RDKit          3D

 35 36  0  0  0  0  0  0  0  0999 V2000
   58.5370   31.7940   49.6090 C   0  0  0  0  0  0  0  0  0  0  0  0
   59.2620   30.9730   48.5920 C   0  0  0  0  0  0  0  0  0  0  0  0
   58.7330   29.7540   48.1580 C   0  0  0  0  0  0  0  0  0  0  0  0
   59.4590   29.0040   47.2300 C   0  0  0  0  0  0  0  0  0  0  0  0
   58.8280   27.4270   46.6500 S   0  0  0  0  0  0  0  0  0  0  0  0
   58.1290   28.0950   45.0990 C   0  0  0  0  0  0  0  0  0  0  0  0
   56.6660   28.3800   45.2410 C   0  0  0  0  0  0  0  0  0  0  0  0
   55.8890   27.4670   45.6280 O   0  0  0  0  0  0  0  0  0  0  0  0
   56.1570   29.6700   44.8810 N   0  0  0  0  0  0  0  0  0  0  0  0
   56.9180   30.7630   44.3440 C   0  0  0  0  0  0  0  0  0  0  0  0
   57.0230   30.9880   42.9590 C   0  0  0  0  0  0  0  0  0  0  0  0
   57.7360   32.0890   42.4780 C   0  0  0  0  0  0  0  0  0  0  0  0
   58.3420   32.9770   43.3700 C   0  0  0  0  0  0  0  0  0  0  0  0
   58.2340   32.7680   44.7510 C   0  0  0  0  0  0  0  0  0  0  0  0
   58.9720   33.9020   45.8790 S   0  0  0  0  0  0  0  0  0  0  0  0
   60.5550   33.3550   46.3000 N   0  0  0  0  0  0  0  0  0  0  0  0
   58.1320   34.0090   47.1200 O   0  0  0  0  0  0  0  0  0  0  0  0
   59.0630   35.2610   45.2430 O   0  0  0  0  0  0  0  0  0  0  0  0
   57.5100   31.6690   45.2320 C   0  0  0  0  0  0  0  0  0  0  0  0
   60.6460   29.4710   46.7610 N   0  0  0  0  0  0  0  0  0  0  0  0
   61.1470   30.6570   47.1940 C   0  0  0  0  0  0  0  0  0  0  0  0
   62.2500   31.0710   46.7530 O   0  0  0  0  0  0  0  0  0  0  0  0
   60.4600   31.3950   48.1050 N   0  0  0  0  0  0  0  0  0  0  0  0
   58.8262   31.4665   50.6185 H   0  0  0  0  0  0  0  0  0  0  0  0
   58.7988   32.8544   49.4785 H   0  0  0  0  0  0  0  0  0  0  0  0
   57.4524   31.6654   49.4785 H   0  0  0  0  0  0  0  0  0  0  0  0
   57.7662   29.3934   48.5390 H   0  0  0  0  0  0  0  0  0  0  0  0
   58.6526   29.0277   44.8423 H   0  0  0  0  0  0  0  0  0  0  0  0
   58.2614   27.3440   44.3063 H   0  0  0  0  0  0  0  0  0  0  0  0
   56.5423   30.2950   42.2529 H   0  0  0  0  0  0  0  0  0  0  0  0
   57.8204   32.2570   41.3942 H   0  0  0  0  0  0  0  0  0  0  0  0
   58.9047   33.8414   42.9876 H   0  0  0  0  0  0  0  0  0  0  0  0
   60.5980   32.3370   46.0700 H   0  0  0  0  0  0  0  0  0  0  0  0
   60.6380   33.4330   47.3390 H   0  0  0  0  0  0  0  0  0  0  0  0
   57.4059   31.5168   46.3164 H   0  0  0  0  0  0  0  0  0  0  0  0
  1  2  1  0
  2  3  1  0
  3  4  2  0
  4  5  1  0
  5  6  1  0
  6  7  1  0
  7  8  2  0
  7  9  1  0
  9 10  1  0
 10 11  2  0
 11 12  1  0
 12 13  2  0
 13 14  1  0
 14 15  1  0
 15 16  1  0
 15 17  2  0
 15 18  2  0
 14 19  2  0
  4 20  1  0
 20 21  1  0
 21 22  2  0
 21 23  1  0
 23  2  2  0
 19 10  1  0
  1 24  1  0
  1 25  1  0
  1 26  1  0
  3 27  1  0
  6 28  1  0
  6 29  1  0
 11 30  1  0
 12 31  1  0
 13 32  1  0
 16 33  1  0
 16 34  1  0
 19 35  1  0
M  CHG  2   9  -1  20  -1
M  END
>  <UniqueID>  (53) 
45

>  <SMILES>  (53) 
Cc1cc(SCC(=O)[N-]c2cccc(S(N)(=O)=O)c2)[n-]c(=O)n1

>  <Energy>  (53) 
30.634308535999782

>  <Genealogy>  (53) 
Cc1cc(SCC(=O)[N-]c2cccc(S(N)(=O)=O)c2)[n-]c(=O)n1 (protonated)
Cc1cc(SCC(=O)[N-]c2cccc(S(N)(=O)=O)c2)[n-]c(=O)n1 (3D coordinates assigned)
Cc1cc(SCC(=O)[N-]c2cccc(S(N)(=O)=O)c2)[n-]c(=O)n1 (optimized conformer: 30.634308535999782 kcal/mol)

>  <smiles>  (53) 
Cc1cc(SCC(=O)Nc2cccc(S(N)(=O)=O)c2)[nH]c(=O)n1

>  <score_type>  (53) 
oracle

>  <origin>  (53) 
adg

>  <m_score__min__energy>  (53) 
-10.890000000000001

>  <m_primary>  (53) 
energy

$$$$
53:0
     RDKit          3D

 53 55  0  0  0  0  0  0  0  0999 V2000
   61.2780   34.0050   49.3590 C   0  0  0  0  0  0  0  0  0  0  0  0
   61.7360   32.7960   48.5980 C   0  0  0  0  0  0  0  0  0  0  0  0
   61.0960   31.5710   48.5410 C   0  0  0  0  0  0  0  0  0  0  0  0
   59.8370   31.1520   49.2420 C   0  0  0  0  0  0  0  0  0  0  0  0
   59.8600   29.6810   49.5560 C   0  0  0  0  0  0  0  0  0  0  0  0
   60.0160   29.3080   50.7520 O   0  0  0  0  0  0  0  0  0  0  0  0
   59.7040   28.6940   48.5200 N   0  0  0  0  0  0  0  0  0  0  0  0
   60.2720   27.3520   48.7210 C   0  0  0  0  0  0  0  0  0  0  0  0
   60.1090   26.4750   47.4710 C   0  0  0  0  0  0  0  0  0  0  0  0
   60.5000   27.2600   46.2120 C   0  0  0  0  0  0  0  0  0  0  0  0
   59.6970   28.5860   46.0520 C   0  0  1  0  0  0  0  0  0  0  0  0
   58.8010   28.5820   44.7940 C   0  0  0  0  0  0  0  0  0  0  0  0
   58.8400   29.8750   44.0970 N   0  0  0  0  0  0  0  0  0  0  0  0
   57.4990   30.8560   44.6040 S   0  0  0  0  0  0  0  0  0  0  0  0
   56.6640   31.2110   43.4060 O   0  0  0  0  0  0  0  0  0  0  0  0
   56.6450   30.0840   45.5710 O   0  0  0  0  0  0  0  0  0  0  0  0
   58.0840   32.3420   45.3530 C   0  0  0  0  0  0  0  0  0  0  0  0
   58.0800   32.4640   46.7500 C   0  0  0  0  0  0  0  0  0  0  0  0
   58.5140   33.6480   47.3530 C   0  0  0  0  0  0  0  0  0  0  0  0
   58.9520   34.7150   46.5630 C   0  0  0  0  0  0  0  0  0  0  0  0
   58.9560   34.5990   45.1710 C   0  0  0  0  0  0  0  0  0  0  0  0
   58.5210   33.4170   44.5650 C   0  0  0  0  0  0  0  0  0  0  0  0
   58.9010   28.9670   47.3200 C   0  0  0  0  0  0  0  0  0  0  0  0
   61.8060   30.8380   47.6080 C   0  0  0  0  0  0  0  0  0  0  0  0
   62.8150   31.5890   47.1260 N   0  0  0  0  0  0  0  0  0  0  0  0
   62.7650   32.7710   47.7250 N   0  0  0  0  0  0  0  0  0  0  0  0
   63.6740   33.8680   47.4140 C   0  0  0  0  0  0  0  0  0  0  0  0
   61.3524   33.8085   50.4388 H   0  0  0  0  0  0  0  0  0  0  0  0
   61.9128   34.8647   49.0981 H   0  0  0  0  0  0  0  0  0  0  0  0
   60.2330   34.2283   49.0981 H   0  0  0  0  0  0  0  0  0  0  0  0
   59.7416   31.7188   50.1799 H   0  0  0  0  0  0  0  0  0  0  0  0
   58.9824   31.3562   48.5803 H   0  0  0  0  0  0  0  0  0  0  0  0
   61.3432   27.4488   48.9517 H   0  0  0  0  0  0  0  0  0  0  0  0
   59.7328   26.8714   49.5506 H   0  0  0  0  0  0  0  0  0  0  0  0
   60.7563   25.5903   47.5621 H   0  0  0  0  0  0  0  0  0  0  0  0
   59.0566   26.1664   47.3865 H   0  0  0  0  0  0  0  0  0  0  0  0
   61.5714   27.5028   46.2681 H   0  0  0  0  0  0  0  0  0  0  0  0
   60.2694   26.6268   45.3426 H   0  0  0  0  0  0  0  0  0  0  0  0
   60.4508   29.3745   45.9104 H   0  0  0  0  0  0  0  0  0  0  0  0
   59.1518   27.7964   44.1086 H   0  0  0  0  0  0  0  0  0  0  0  0
   57.7646   28.3935   45.1108 H   0  0  0  0  0  0  0  0  0  0  0  0
   58.7020   29.7070   43.0750 H   0  0  0  0  0  0  0  0  0  0  0  0
   57.7344   31.6258   47.3729 H   0  0  0  0  0  0  0  0  0  0  0  0
   58.5109   33.7402   48.4491 H   0  0  0  0  0  0  0  0  0  0  0  0
   59.2937   35.6465   47.0379 H   0  0  0  0  0  0  0  0  0  0  0  0
   59.3020   35.4391   44.5509 H   0  0  0  0  0  0  0  0  0  0  0  0
   58.5214   33.3297   43.4685 H   0  0  0  0  0  0  0  0  0  0  0  0
   58.6512   30.0377   47.2850 H   0  0  0  0  0  0  0  0  0  0  0  0
   57.9785   28.3691   47.3598 H   0  0  0  0  0  0  0  0  0  0  0  0
   61.5820   29.8040   47.3067 H   0  0  0  0  0  0  0  0  0  0  0  0
   64.0437   34.3141   48.3490 H   0  0  0  0  0  0  0  0  0  0  0  0
   64.5236   33.4856   46.8292 H   0  0  0  0  0  0  0  0  0  0  0  0
   63.1404   34.6317   46.8292 H   0  0  0  0  0  0  0  0  0  0  0  0
  1  2  1  0
  2  3  2  0
  3  4  1  0
  4  5  1  0
  5  6  2  0
  5  7  1  0
  7  8  1  0
  8  9  1  0
  9 10  1  0
 10 11  1  0
 11 12  1  0
 12 13  1  0
 13 14  1  0
 14 15  2  0
 14 16  2  0
 14 17  1  0
 17 18  2  0
 18 19  1  0
 19 20  2  0
 20 21  1  0
 21 22  2  0
 11 23  1  0
  3 24  1  0
 24 25  2  0
 25 26  1  0
 26 27  1  0
 26  2  1  0
 23  7  1  0
 22 17  1  0
  1 28  1  0
  1 29  1  0
  1 30  1  0
  4 31  1  0
  4 32  1  0
  8 33  1  0
  8 34  1  0
  9 35  1  0
  9 36  1  0
 10 37  1  0
 10 38  1  0
 11 39  1  6
 12 40  1  0
 12 41  1  0
 13 42  1  0
 18 43  1  0
 19 44  1  0
 20 45  1  0
 21 46  1  0
 22 47  1  0
 23 48  1  0
 23 49  1  0
 24 50  1  0
 27 51  1  0
 27 52  1  0
 27 53  1  0
M  END
>  <UniqueID>  (54) 
46

>  <SMILES>  (54) 
Cc1c(CC(=O)N2CCC[C@@H](CNS(=O)(=O)c3ccccc3)C2)cnn1C

>  <Energy>  (54) 
81.65571695034002

>  <Genealogy>  (54) 
Cc1c(CC(=O)N2CCC[C@@H](CNS(=O)(=O)c3ccccc3)C2)cnn1C (chirality)
Cc1c(CC(=O)N2CCC[C@@H](CNS(=O)(=O)c3ccccc3)C2)cnn1C (3D coordinates assigned)
Cc1c(CC(=O)N2CCC[C@@H](CNS(=O)(=O)c3ccccc3)C2)cnn1C (nonaromatic ring conformer: 81.65571695034002 kcal/mol)

>  <smiles>  (54) 
Cc1c(CC(=O)N2CCCC(CNS(=O)(=O)c3ccccc3)C2)cnn1C

>  <score_type>  (54) 
oracle

>  <origin>  (54) 
adg

>  <m_score__min__energy>  (54) 
-9.4299999999999997

>  <m_primary>  (54) 
energy

$$$$
54:0
     RDKit          3D

 56 59  0  0  0  0  0  0  0  0999 V2000
   57.9680   19.6390   47.0900 C   0  0  0  0  0  0  0  0  0  0  0  0
   57.7680   21.0280   47.0670 O   0  0  0  0  0  0  0  0  0  0  0  0
   57.2060   21.7050   45.9950 C   0  0  0  0  0  0  0  0  0  0  0  0
   57.3980   21.3480   44.6790 C   0  0  0  0  0  0  0  0  0  0  0  0
   56.8060   22.0710   43.6520 C   0  0  0  0  0  0  0  0  0  0  0  0
   56.0030   23.1710   43.9170 C   0  0  0  0  0  0  0  0  0  0  0  0
   55.8130   23.5240   45.2350 C   0  0  0  0  0  0  0  0  0  0  0  0
   54.9500   24.7140   45.4920 C   0  0  0  0  0  0  0  0  0  0  0  0
   55.6450   25.8470   46.0080 N   0  0  0  0  0  0  0  0  0  0  0  0
   56.8840   26.3460   45.5540 C   0  0  0  0  0  0  0  0  0  0  0  0
   57.4320   25.7260   44.5950 O   0  0  0  0  0  0  0  0  0  0  0  0
   57.5510   27.5130   46.1210 C   0  0  0  0  0  0  0  0  0  0  0  0
   57.5010   28.7680   45.5830 C   0  0  0  0  0  0  0  0  0  0  0  0
   58.1690   29.8340   46.1970 C   0  0  0  0  0  0  0  0  0  0  0  0
   58.8890   29.6640   47.3470 C   0  0  0  0  0  0  0  0  0  0  0  0
   59.5970   30.7020   48.0170 N   0  0  0  0  0  0  0  0  0  0  0  0
   60.9070   30.3940   48.5560 C   0  0  0  0  0  0  0  0  0  0  0  0
   61.8790   31.4840   48.2250 C   0  0  0  0  0  0  0  0  0  0  0  0
   62.9910   31.2980   47.4380 C   0  0  0  0  0  0  0  0  0  0  0  0
   63.6540   32.4640   47.3300 N   0  0  0  0  0  0  0  0  0  0  0  0
   62.9430   33.3520   48.0510 C   0  0  0  0  0  0  0  0  0  0  0  0
   61.8630   32.7730   48.6000 N   0  0  0  0  0  0  0  0  0  0  0  0
   58.9730   31.9610   48.1110 C   0  0  0  0  0  0  0  0  0  0  0  0
   58.6000   32.3420   49.2520 O   0  0  0  0  0  0  0  0  0  0  0  0
   58.7240   32.8550   46.9970 C   0  0  0  0  0  0  0  0  0  0  0  0
   59.7730   33.5190   46.4060 C   0  0  0  0  0  0  0  0  0  0  0  0
   59.5870   34.3830   45.3430 C   0  0  0  0  0  0  0  0  0  0  0  0
   58.3180   34.5850   44.8640 C   0  0  0  0  0  0  0  0  0  0  0  0
   57.2930   33.9370   45.4400 N   0  0  0  0  0  0  0  0  0  0  0  0
   57.4640   33.0940   46.4760 C   0  0  0  0  0  0  0  0  0  0  0  0
   58.9460   28.4090   47.8960 C   0  0  0  0  0  0  0  0  0  0  0  0
   58.2890   27.3610   47.2900 C   0  0  0  0  0  0  0  0  0  0  0  0
   56.4060   22.8020   46.2570 C   0  0  0  0  0  0  0  0  0  0  0  0
   58.0178   19.2929   48.1330 H   0  0  0  0  0  0  0  0  0  0  0  0
   57.1325   19.1397   46.5775 H   0  0  0  0  0  0  0  0  0  0  0  0
   58.9104   19.3957   46.5775 H   0  0  0  0  0  0  0  0  0  0  0  0
   58.0283   20.4792   44.4383 H   0  0  0  0  0  0  0  0  0  0  0  0
   56.9768   21.7660   42.6090 H   0  0  0  0  0  0  0  0  0  0  0  0
   55.5339   23.7420   43.1022 H   0  0  0  0  0  0  0  0  0  0  0  0
   54.4745   25.0050   44.5437 H   0  0  0  0  0  0  0  0  0  0  0  0
   54.2243   24.4141   46.2623 H   0  0  0  0  0  0  0  0  0  0  0  0
   55.2060   26.3850   46.8160 H   0  0  0  0  0  0  0  0  0  0  0  0
   56.9305   28.9423   44.6588 H   0  0  0  0  0  0  0  0  0  0  0  0
   58.1133   30.8342   45.7426 H   0  0  0  0  0  0  0  0  0  0  0  0
   60.8343   30.2932   49.6490 H   0  0  0  0  0  0  0  0  0  0  0  0
   61.2626   29.4527   48.1115 H   0  0  0  0  0  0  0  0  0  0  0  0
   63.2907   30.3481   46.9713 H   0  0  0  0  0  0  0  0  0  0  0  0
   64.5280   32.5910   46.7880 H   0  0  0  0  0  0  0  0  0  0  0  0
   63.2116   34.4116   48.1739 H   0  0  0  0  0  0  0  0  0  0  0  0
   60.7909   33.3579   46.7906 H   0  0  0  0  0  0  0  0  0  0  0  0
   60.4443   34.9008   44.8881 H   0  0  0  0  0  0  0  0  0  0  0  0
   58.1425   35.2682   44.0199 H   0  0  0  0  0  0  0  0  0  0  0  0
   56.5908   32.5885   46.9142 H   0  0  0  0  0  0  0  0  0  0  0  0
   59.5167   28.2389   48.8209 H   0  0  0  0  0  0  0  0  0  0  0  0
   58.3505   26.3634   47.7493 H   0  0  0  0  0  0  0  0  0  0  0  0
   56.2370   23.1078   47.3000 H   0  0  0  0  0  0  0  0  0  0  0  0
  1  2  1  0
  2  3  1  0
  3  4  2  0
  4  5  1  0
  5  6  2  0
  6  7  1  0
  7  8  1  0
  8  9  1  0
  9 10  1  0
 10 11  2  0
 10 12  1  0
 12 13  2  0
 13 14  1  0
 14 15  2  0
 15 16  1  0
 16 17  1  0
 17 18  1  0
 18 19  2  0
 19 20  1  0
 20 21  1  0
 21 22  2  0
 16 23  1  0
 23 24  2  0
 23 25  1  0
 25 26  2  0
 26 27  1  0
 27 28  2  0
 28 29  1  0
 29 30  2  0
 15 31  1  0
 31 32  2  0
  7 33  2  0
 33  3  1  0
 32 12  1  0
 22 18  1  0
 30 25  1  0
  1 34  1  0
  1 35  1  0
  1 36  1  0
  4 37  1  0
  5 38  1  0
  6 39  1  0
  8 40  1  0
  8 41  1  0
  9 42  1  0
 13 43  1  0
 14 44  1  0
 17 45  1  0
 17 46  1  0
 19 47  1  0
 20 48  1  0
 21 49  1  0
 26 50  1  0
 27 51  1  0
 28 52  1  0
 30 53  1  0
 31 54  1  0
 32 55  1  0
 33 56  1  0
M  END
>  <smiles>  (55) 
COc1cccc(CNC(=O)c2ccc(N(Cc3c[nH]cn3)C(=O)c3cccnc3)cc2)c1

>  <score_type>  (55) 
oracle

>  <origin>  (55) 
adg

>  <m_score__min__energy>  (55) 
-8.4399999999999995

>  <m_primary>  (55) 
energy

$$$$
55:0
     RDKit          3D

 63 67  0  0  0  0  0  0  0  0999 V2000
   56.6220   22.1240   42.6060 C   0  0  0  0  0  0  0  0  0  0  0  0
   56.6330   23.1160   43.7240 C   0  0  0  0  0  0  0  0  0  0  0  0
   55.5440   23.4410   44.2680 O   0  0  0  0  0  0  0  0  0  0  0  0
   57.8740   23.6930   44.1630 N   0  0  0  0  0  0  0  0  0  0  0  0
   57.9670   24.7950   45.0820 C   0  0  0  0  0  0  0  0  0  0  0  0
   58.4520   24.5720   46.3770 C   0  0  0  0  0  0  0  0  0  0  0  0
   58.5700   25.6300   47.2810 C   0  0  0  0  0  0  0  0  0  0  0  0
   58.2310   26.9370   46.9020 C   0  0  0  0  0  0  0  0  0  0  0  0
   57.7570   27.1660   45.5980 C   0  0  0  0  0  0  0  0  0  0  0  0
   57.6330   26.1030   44.6930 C   0  0  0  0  0  0  0  0  0  0  0  0
   57.2780   28.7730   45.1120 S   0  0  0  0  0  0  0  0  0  0  0  0
   55.7810   28.8620   45.0310 O   0  0  0  0  0  0  0  0  0  0  0  0
   57.8950   29.1100   43.7840 O   0  0  0  0  0  0  0  0  0  0  0  0
   57.8630   29.8650   46.3040 N   0  0  0  0  0  0  0  0  0  0  0  0
   58.4340   29.4070   47.5330 C   0  0  0  0  0  0  0  0  0  0  0  0
   58.9630   30.3100   48.4030 C   0  0  0  0  0  0  0  0  0  0  0  0
   59.6630   31.5360   47.9420 C   0  0  0  0  0  0  0  0  0  0  0  0
   60.1980   31.5750   46.7990 O   0  0  0  0  0  0  0  0  0  0  0  0
   59.7510   32.6840   48.8100 N   0  0  0  0  0  0  0  0  0  0  0  0
   60.1940   33.9820   48.2770 C   0  0  0  0  0  0  0  0  0  0  0  0
   59.4120   34.3330   47.0390 C   0  0  0  0  0  0  0  0  0  0  0  0
   60.0050   35.0970   46.0200 C   0  0  0  0  0  0  0  0  0  0  0  0
   59.2920   35.3930   44.8550 C   0  0  0  0  0  0  0  0  0  0  0  0
   57.9840   34.9280   44.6960 C   0  0  0  0  0  0  0  0  0  0  0  0
   57.3870   34.1650   45.7040 C   0  0  0  0  0  0  0  0  0  0  0  0
   58.0970   33.8650   46.8700 C   0  0  0  0  0  0  0  0  0  0  0  0
   59.3080   32.5780   50.1780 C   0  0  0  0  0  0  0  0  0  0  0  0
   59.2400   33.6120   50.8960 O   0  0  0  0  0  0  0  0  0  0  0  0
   58.9560   31.2960   50.7350 N   0  0  0  0  0  0  0  0  0  0  0  0
   58.7620   31.1420   52.1850 C   0  0  0  0  0  0  0  0  0  0  0  0
   57.3300   30.7840   52.4890 C   0  0  0  0  0  0  0  0  0  0  0  0
   56.2790   31.5660   51.9870 C   0  0  0  0  0  0  0  0  0  0  0  0
   54.9510   31.2170   52.2440 C   0  0  0  0  0  0  0  0  0  0  0  0
   54.6490   30.0760   53.0060 C   0  0  0  0  0  0  0  0  0  0  0  0
   53.2410   29.7060   53.2740 C   0  0  0  0  0  0  0  0  0  0  0  0
   52.9630   28.7950   54.0990 O   0  0  0  0  0  0  0  0  0  0  0  0
   52.2040   30.3610   52.6190 O   0  0  0  0  0  0  0  0  0  0  0  0
   55.7030   29.2920   53.5070 C   0  0  0  0  0  0  0  0  0  0  0  0
   57.0320   29.6430   53.2490 C   0  0  0  0  0  0  0  0  0  0  0  0
   58.8910   30.1420   49.8740 C   0  0  0  0  0  0  0  0  0  0  0  0
   58.8490   28.9870   50.3790 O   0  0  0  0  0  0  0  0  0  0  0  0
   58.3630   28.0010   47.8630 N   0  0  0  0  0  0  0  0  0  0  0  0
   56.6107   21.1050   43.0201 H   0  0  0  0  0  0  0  0  0  0  0  0
   55.7255   22.2784   41.9876 H   0  0  0  0  0  0  0  0  0  0  0  0
   57.5217   22.2585   41.9876 H   0  0  0  0  0  0  0  0  0  0  0  0
   58.7610   23.2230   43.8720 H   0  0  0  0  0  0  0  0  0  0  0  0
   58.7420   23.5563   46.6842 H   0  0  0  0  0  0  0  0  0  0  0  0
   58.9327   25.4361   48.3012 H   0  0  0  0  0  0  0  0  0  0  0  0
   57.2719   26.2941   43.6717 H   0  0  0  0  0  0  0  0  0  0  0  0
   60.0362   34.7599   49.0386 H   0  0  0  0  0  0  0  0  0  0  0  0
   61.2615   33.9176   48.0196 H   0  0  0  0  0  0  0  0  0  0  0  0
   61.0351   35.4639   46.1396 H   0  0  0  0  0  0  0  0  0  0  0  0
   59.7614   35.9932   44.0617 H   0  0  0  0  0  0  0  0  0  0  0  0
   57.4244   35.1621   43.7784 H   0  0  0  0  0  0  0  0  0  0  0  0
   56.3568   33.8002   45.5792 H   0  0  0  0  0  0  0  0  0  0  0  0
   57.6251   33.2604   47.6585 H   0  0  0  0  0  0  0  0  0  0  0  0
   59.4216   30.3438   52.5561 H   0  0  0  0  0  0  0  0  0  0  0  0
   59.0044   32.0938   52.6802 H   0  0  0  0  0  0  0  0  0  0  0  0
   56.5022   32.4603   51.3867 H   0  0  0  0  0  0  0  0  0  0  0  0
   54.1360   31.8400   51.8469 H   0  0  0  0  0  0  0  0  0  0  0  0
   55.4809   28.3965   54.1059 H   0  0  0  0  0  0  0  0  0  0  0  0
   57.8484   29.0208   53.6443 H   0  0  0  0  0  0  0  0  0  0  0  0
   58.3690   27.7190   48.8680 H   0  0  0  0  0  0  0  0  0  0  0  0
  1  2  1  0
  2  3  2  0
  2  4  1  0
  4  5  1  0
  5  6  2  0
  6  7  1  0
  7  8  2  0
  8  9  1  0
  9 10  2  0
  9 11  1  0
 11 12  2  0
 11 13  2  0
 11 14  1  0
 14 15  1  0
 15 16  2  3
 16 17  1  0
 17 18  2  0
 17 19  1  0
 19 20  1  0
 20 21  1  0
 21 22  2  0
 22 23  1  0
 23 24  2  0
 24 25  1  0
 25 26  2  0
 19 27  1  0
 27 28  2  0
 27 29  1  0
 29 30  1  0
 30 31  1  0
 31 32  2  0
 32 33  1  0
 33 34  2  0
 34 35  1  0
 35 36  2  0
 35 37  1  0
 34 38  1  0
 38 39  2  0
 29 40  1  0
 40 41  2  0
 15 42  1  0
 10  5  1  0
 40 16  1  0
 42  8  1  0
 26 21  1  0
 39 31  1  0
  1 43  1  0
  1 44  1  0
  1 45  1  0
  4 46  1  0
  6 47  1  0
  7 48  1  0
 10 49  1  0
 20 50  1  0
 20 51  1  0
 22 52  1  0
 23 53  1  0
 24 54  1  0
 25 55  1  0
 26 56  1  0
 30 57  1  0
 30 58  1  0
 32 59  1  0
 33 60  1  0
 38 61  1  0
 39 62  1  0
 42 63  1  0
M  CHG  2  14  -1  37  -1
M  END
>  <UniqueID>  (56) 
47

>  <SMILES>  (56) 
CC(=O)Nc1ccc2c(c1)S(=O)(=O)[N-]C(=C1C(=O)N(Cc3ccccc3)C(=O)N(Cc3ccc(C(=O)[O-])cc3)C1=O)N2

>  <Energy>  (56) 
86.89645850730655

>  <Genealogy>  (56) 
CC(=O)Nc1ccc2c(c1)S(=O)(=O)[N-]C(=C1C(=O)N(Cc3ccccc3)C(=O)N(Cc3ccc(C(=O)[O-])cc3)C1=O)N2 (protonated)
CC(=O)Nc1ccc2c(c1)S(=O)(=O)[N-]C(=C1C(=O)N(Cc3ccccc3)C(=O)N(Cc3ccc(C(=O)[O-])cc3)C1=O)N2 (3D coordinates assigned)
CC(=O)Nc1ccc2c(c1)S(=O)(=O)[N-]C(=C1C(=O)N(Cc3ccccc3)C(=O)N(Cc3ccc(C(=O)[O-])cc3)C1=O)N2 (nonaromatic ring conformer: 86.89645850730655 kcal/mol)

>  <smiles>  (56) 
CC(=O)Nc1ccc2c(c1)S(=O)(=O)NC(=C1C(=O)N(Cc3ccccc3)C(=O)N(Cc3ccc(C(=O)O)cc3)C1=O)N2

>  <score_type>  (56) 
oracle

>  <origin>  (56) 
adg

>  <m_score__min__energy>  (56) 
-14.01

>  <m_primary>  (56) 
energy

$$$$
56:0
     RDKit          3D

 47 50  0  0  1  0  0  0  0  0999 V2000
   60.0800   25.5360   46.3110 C   0  0  0  0  0  0  0  0  0  0  0  0
   59.2700   26.7870   46.1240 C   0  0  0  0  0  0  0  0  0  0  0  0
   59.1030   27.6240   47.2060 C   0  0  0  0  0  0  0  0  0  0  0  0
   58.3570   28.7930   47.0690 C   0  0  0  0  0  0  0  0  0  0  0  0
   57.7910   29.0810   45.8130 C   0  0  0  0  0  0  0  0  0  0  0  0
   57.0700   30.2680   45.6070 N   0  0  0  0  0  0  0  0  0  0  0  0
   57.5870   31.3650   45.2360 C   0  0  0  0  0  0  0  0  0  0  0  0
   57.2800   31.9260   44.0390 N   0  0  0  0  0  0  0  0  0  0  0  0
   57.9760   33.0410   43.9310 N   0  0  0  0  0  0  0  0  0  0  0  0
   58.7080   33.1710   45.0450 C   0  0  0  0  0  0  0  0  0  0  0  0
   58.4690   32.1100   45.8870 N   0  0  0  0  0  0  0  0  0  0  0  0
   59.0730   31.9430   47.1580 C   0  0  0  0  0  0  0  0  0  0  0  0
   58.6930   33.1060   48.0610 C   0  0  0  0  0  0  0  0  0  0  0  0
   59.5010   34.2250   47.7520 N   0  0  0  0  0  0  0  0  0  0  0  0
   60.6080   34.5040   48.5610 C   0  0  0  0  0  0  0  0  0  0  0  0
   61.8650   33.8140   48.1970 C   0  0  0  0  0  0  0  0  0  0  0  0
   63.0230   33.8220   48.9190 N   0  0  0  0  0  0  0  0  0  0  0  0
   63.9350   33.0850   48.2680 C   0  0  0  0  0  0  0  0  0  0  0  0
   63.3540   32.6000   47.1180 C   0  0  0  0  0  0  0  0  0  0  0  0
   62.0730   33.0670   47.1000 N   0  0  0  0  0  0  0  0  0  0  0  0
   59.2170   35.0060   46.6280 C   0  0  0  0  0  0  0  0  0  0  0  0
   59.6690   34.3010   45.3350 C   0  0  0  0  0  0  0  0  0  0  0  0
   57.9930   28.1900   44.7400 C   0  0  0  0  0  0  0  0  0  0  0  0
   57.3770   28.5310   43.4190 C   0  0  0  0  0  0  0  0  0  0  0  0
   58.7220   27.0670   44.9070 N   0  0  0  0  0  0  0  0  0  0  0  0
   60.2076   25.3390   47.3857 H   0  0  0  0  0  0  0  0  0  0  0  0
   59.5589   24.6883   45.8421 H   0  0  0  0  0  0  0  0  0  0  0  0
   61.0667   25.6646   45.8421 H   0  0  0  0  0  0  0  0  0  0  0  0
   59.5573   27.3700   48.1751 H   0  0  0  0  0  0  0  0  0  0  0  0
   58.2141   29.4737   47.9212 H   0  0  0  0  0  0  0  0  0  0  0  0
   56.6090   31.5560   43.3150 H   0  0  0  0  0  0  0  0  0  0  0  0
   58.7248   31.0015   47.6078 H   0  0  0  0  0  0  0  0  0  0  0  0
   60.1664   31.9135   47.0415 H   0  0  0  0  0  0  0  0  0  0  0  0
   57.6351   33.3626   47.9031 H   0  0  0  0  0  0  0  0  0  0  0  0
   58.8476   32.8205   49.1120 H   0  0  0  0  0  0  0  0  0  0  0  0
   60.7933   35.5874   48.5167 H   0  0  0  0  0  0  0  0  0  0  0  0
   60.3450   34.1342   49.5630 H   0  0  0  0  0  0  0  0  0  0  0  0
   64.9685   32.9000   48.5962 H   0  0  0  0  0  0  0  0  0  0  0  0
   63.8306   31.9601   46.3608 H   0  0  0  0  0  0  0  0  0  0  0  0
   61.3920   32.8640   46.3490 H   0  0  0  0  0  0  0  0  0  0  0  0
   58.1328   35.1851   46.5795 H   0  0  0  0  0  0  0  0  0  0  0  0
   59.7621   35.9573   46.7164 H   0  0  0  0  0  0  0  0  0  0  0  0
   59.6628   35.0171   44.5001 H   0  0  0  0  0  0  0  0  0  0  0  0
   60.6888   33.9071   45.4567 H   0  0  0  0  0  0  0  0  0  0  0  0
   56.4254   29.0578   43.5832 H   0  0  0  0  0  0  0  0  0  0  0  0
   58.0615   29.1787   42.8515 H   0  0  0  0  0  0  0  0  0  0  0  0
   57.1915   27.6071   42.8515 H   0  0  0  0  0  0  0  0  0  0  0  0
  1  2  1  0
  2  3  2  0
  3  4  1  0
  4  5  2  0
  5  6  1  0
  6  7  2  0
  7  8  1  0
  8  9  1  0
  9 10  2  0
 10 11  1  0
 11 12  1  0
 12 13  1  0
 13 14  1  0
 14 15  1  0
 15 16  1  0
 16 17  2  0
 17 18  1  0
 18 19  2  0
 19 20  1  0
 14 21  1  0
 21 22  1  0
  5 23  1  0
 23 24  1  0
 23 25  2  0
 25  2  1  0
 11  7  1  0
 20 16  1  0
 22 10  1  0
  1 26  1  0
  1 27  1  0
  1 28  1  0
  3 29  1  0
  4 30  1  0
  8 31  1  0
 12 32  1  0
 12 33  1  0
 13 34  1  0
 13 35  1  0
 15 36  1  0
 15 37  1  0
 18 38  1  0
 19 39  1  0
 20 40  1  0
 21 41  1  0
 21 42  1  0
 22 43  1  0
 22 44  1  0
 24 45  1  0
 24 46  1  0
 24 47  1  0
M  END
>  <smiles>  (57) 
Cc1ccc(N=c2[nH]nc3n2CCN(Cc2ncc[nH]2)CC3)c(C)n1

>  <score_type>  (57) 
oracle

>  <origin>  (57) 
adg

>  <m_score__min__energy>  (57) 
-6.0599999999999996

>  <m_primary>  (57) 
energy

$$$$
57:0
     RDKit          3D

 43 45  0  0  0  0  0  0  0  0999 V2000
   59.5770   27.5080   44.6810 O   0  0  0  0  0  0  0  0  0  0  0  0
   58.3780   27.8630   44.8240 C   0  0  0  0  0  0  0  0  0  0  0  0
   57.9480   29.0980   44.3370 C   0  0  0  0  0  0  0  0  0  0  0  0
   56.6070   29.4560   44.5140 C   0  0  0  0  0  0  0  0  0  0  0  0
   56.1020   30.7960   44.0640 C   0  0  0  0  0  0  0  0  0  0  0  0
   57.4180   31.7660   43.2390 S   0  0  0  0  0  0  0  0  0  0  0  0
   58.0470   32.5030   44.7500 C   0  0  0  0  0  0  0  0  0  0  0  0
   58.2180   31.7230   45.8980 C   0  0  0  0  0  0  0  0  0  0  0  0
   58.7880   32.2800   47.0460 C   0  0  0  0  0  0  0  0  0  0  0  0
   59.1810   33.6280   47.0580 C   0  0  0  0  0  0  0  0  0  0  0  0
   59.8880   34.2110   48.2590 C   0  0  0  0  0  0  0  0  0  0  0  0
   61.2170   33.5860   48.4690 N   0  0  0  0  0  0  0  0  0  0  0  0
   61.8790   34.1260   49.6880 C   0  0  0  0  0  0  0  0  0  0  0  0
   63.4040   33.8760   49.7220 C   0  0  0  0  0  0  0  0  0  0  0  0
   63.8080   32.7150   48.8150 C   0  0  0  0  0  0  0  0  0  0  0  0
   63.3720   32.9730   47.3640 C   0  0  0  0  0  0  0  0  0  0  0  0
   62.0640   33.7880   47.2730 C   0  0  0  0  0  0  0  0  0  0  0  0
   58.9780   34.4150   45.9130 C   0  0  0  0  0  0  0  0  0  0  0  0
   58.4090   33.8550   44.7670 C   0  0  0  0  0  0  0  0  0  0  0  0
   55.7650   28.6020   45.1570 N   0  0  0  0  0  0  0  0  0  0  0  0
   56.2020   27.4050   45.6260 C   0  0  0  0  0  0  0  0  0  0  0  0
   55.4050   26.6320   46.2190 O   0  0  0  0  0  0  0  0  0  0  0  0
   57.5010   27.0420   45.4570 N   0  0  0  0  0  0  0  0  0  0  0  0
   58.6478   29.7751   43.8253 H   0  0  0  0  0  0  0  0  0  0  0  0
   55.2720   30.6465   43.3578 H   0  0  0  0  0  0  0  0  0  0  0  0
   55.7660   31.3539   44.9505 H   0  0  0  0  0  0  0  0  0  0  0  0
   57.9032   30.6690   45.8974 H   0  0  0  0  0  0  0  0  0  0  0  0
   58.9293   31.6601   47.9436 H   0  0  0  0  0  0  0  0  0  0  0  0
   60.0226   35.2917   48.1038 H   0  0  0  0  0  0  0  0  0  0  0  0
   59.2718   34.0148   49.1488 H   0  0  0  0  0  0  0  0  0  0  0  0
   61.0710   32.5550   48.5900 H   0  0  0  0  0  0  0  0  0  0  0  0
   61.7028   35.2110   49.7284 H   0  0  0  0  0  0  0  0  0  0  0  0
   61.4452   33.6011   50.5519 H   0  0  0  0  0  0  0  0  0  0  0  0
   63.9218   34.7868   49.3868 H   0  0  0  0  0  0  0  0  0  0  0  0
   63.6857   33.6185   50.7537 H   0  0  0  0  0  0  0  0  0  0  0  0
   64.9012   32.5972   48.8467 H   0  0  0  0  0  0  0  0  0  0  0  0
   63.3117   31.8010   49.1731 H   0  0  0  0  0  0  0  0  0  0  0  0
   64.1699   33.5289   46.8499 H   0  0  0  0  0  0  0  0  0  0  0  0
   63.1893   31.9962   46.8924 H   0  0  0  0  0  0  0  0  0  0  0  0
   62.3131   34.8560   47.1873 H   0  0  0  0  0  0  0  0  0  0  0  0
   61.5037   33.4455   46.3905 H   0  0  0  0  0  0  0  0  0  0  0  0
   59.2681   35.4761   45.9186 H   0  0  0  0  0  0  0  0  0  0  0  0
   58.2449   34.4781   43.8754 H   0  0  0  0  0  0  0  0  0  0  0  0
  1  2  2  0
  2  3  1  0
  3  4  2  0
  4  5  1  0
  5  6  1  0
  6  7  1  0
  7  8  2  0
  8  9  1  0
  9 10  2  0
 10 11  1  0
 11 12  1  0
 12 13  1  0
 13 14  1  0
 14 15  1  0
 15 16  1  0
 16 17  1  0
 10 18  1  0
 18 19  2  0
  4 20  1  0
 20 21  1  0
 21 22  2  0
 21 23  1  0
 23  2  1  0
 19  7  1  0
 17 12  1  0
  3 24  1  0
  5 25  1  0
  5 26  1  0
  8 27  1  0
  9 28  1  0
 11 29  1  0
 11 30  1  0
 12 31  1  0
 13 32  1  0
 13 33  1  0
 14 34  1  0
 14 35  1  0
 15 36  1  0
 15 37  1  0
 16 38  1  0
 16 39  1  0
 17 40  1  0
 17 41  1  0
 18 42  1  0
 19 43  1  0
M  CHG  3  12   1  20  -1  23  -1
M  END
>  <UniqueID>  (58) 
48

>  <SMILES>  (58) 
O=c1cc(CSc2ccc(C[NH+]3CCCCC3)cc2)[n-]c(=O)[n-]1

>  <Energy>  (58) 
44.62091127312394

>  <Genealogy>  (58) 
O=c1cc(CSc2ccc(C[NH+]3CCCCC3)cc2)[n-]c(=O)[n-]1 (protonated)
O=c1cc(CSc2ccc(C[NH+]3CCCCC3)cc2)[n-]c(=O)[n-]1 (3D coordinates assigned)
O=c1cc(CSc2ccc(C[NH+]3CCCCC3)cc2)[n-]c(=O)[n-]1 (nonaromatic ring conformer: 44.62091127312394 kcal/mol)

>  <smiles>  (58) 
O=c1cc(CSc2ccc(CN3CCCCC3)cc2)[nH]c(=O)[nH]1

>  <score_type>  (58) 
oracle

>  <origin>  (58) 
adg

>  <m_score__min__energy>  (58) 
-10.74

>  <m_primary>  (58) 
energy

$$$$
58:0
     RDKit          3D

 58 61  0  0  0  0  0  0  0  0999 V2000
   65.0160   32.4210   49.7670 C   0  0  0  0  0  0  0  0  0  0  0  0
   64.0110   33.5240   49.4540 C   0  0  0  0  0  0  0  0  0  0  0  0
   62.7320   32.9450   49.0410 N   0  0  0  0  0  0  0  0  0  0  0  0
   62.4760   32.3690   47.8430 C   0  0  0  0  0  0  0  0  0  0  0  0
   61.1740   31.8740   47.8100 C   0  0  0  0  0  0  0  0  0  0  0  0
   60.5170   31.2010   46.6660 C   0  0  0  0  0  0  0  0  0  0  0  0
   59.5560   31.7650   46.0790 O   0  0  0  0  0  0  0  0  0  0  0  0
   60.9680   29.9140   46.2130 N   0  0  0  0  0  0  0  0  0  0  0  0
   60.4700   29.3030   44.9820 C   0  0  0  0  0  0  0  0  0  0  0  0
   59.4210   28.2730   45.3020 C   0  0  0  0  0  0  0  0  0  0  0  0
   58.1100   28.4360   44.8310 C   0  0  0  0  0  0  0  0  0  0  0  0
   57.1230   27.5000   45.1520 C   0  0  0  0  0  0  0  0  0  0  0  0
   57.4320   26.3950   45.9560 C   0  0  0  0  0  0  0  0  0  0  0  0
   56.1910   25.2160   46.3630 S   0  0  0  0  0  0  0  0  0  0  0  0
   54.6280   25.8470   45.9800 N   0  0  0  0  0  0  0  0  0  0  0  0
   56.4070   23.9530   45.5780 O   0  0  0  0  0  0  0  0  0  0  0  0
   56.2600   24.9060   47.8330 O   0  0  0  0  0  0  0  0  0  0  0  0
   58.7420   26.2280   46.4250 C   0  0  0  0  0  0  0  0  0  0  0  0
   59.7320   27.1600   46.1030 C   0  0  0  0  0  0  0  0  0  0  0  0
   60.6350   32.1630   49.0570 C   0  0  0  0  0  0  0  0  0  0  0  0
   59.3790   31.8970   49.6100 C   0  0  0  0  0  0  0  0  0  0  0  0
   59.1300   32.3080   50.9330 C   0  0  0  0  0  0  0  0  0  0  0  0
   57.3950   31.9860   51.6770 Br  0  0  0  0  0  0  0  0  0  0  0  0
   60.1400   32.9710   51.6790 C   0  0  0  0  0  0  0  0  0  0  0  0
   59.9020   33.3820   53.0310 N   0  0  0  0  0  0  0  0  0  0  0  0
   60.5140   32.6430   54.1430 C   0  0  0  0  0  0  0  0  0  0  0  0
   61.1890   33.6240   55.1090 C   0  0  0  0  0  0  0  0  0  0  0  0
   60.2870   34.8180   55.5020 C   0  0  0  0  0  0  0  0  0  0  0  0
   58.9260   34.8290   54.7890 C   0  0  0  0  0  0  0  0  0  0  0  0
   59.0900   34.5770   53.2860 C   0  0  0  0  0  0  0  0  0  0  0  0
   61.3960   33.2260   51.0920 C   0  0  0  0  0  0  0  0  0  0  0  0
   61.6110   32.8090   49.7770 C   0  0  0  0  0  0  0  0  0  0  0  0
   65.1143   32.3131   50.8573 H   0  0  0  0  0  0  0  0  0  0  0  0
   64.6655   31.4721   49.3348 H   0  0  0  0  0  0  0  0  0  0  0  0
   65.9933   32.6820   49.3348 H   0  0  0  0  0  0  0  0  0  0  0  0
   63.8571   34.1400   50.3523 H   0  0  0  0  0  0  0  0  0  0  0  0
   64.4041   34.1435   48.6344 H   0  0  0  0  0  0  0  0  0  0  0  0
   63.1945   32.3013   47.0128 H   0  0  0  0  0  0  0  0  0  0  0  0
   61.6610   29.3760   46.7770 H   0  0  0  0  0  0  0  0  0  0  0  0
   60.0311   30.0820   44.3412 H   0  0  0  0  0  0  0  0  0  0  0  0
   61.3057   28.8146   44.4595 H   0  0  0  0  0  0  0  0  0  0  0  0
   57.8573   29.3050   44.2057 H   0  0  0  0  0  0  0  0  0  0  0  0
   56.0992   27.6314   44.7718 H   0  0  0  0  0  0  0  0  0  0  0  0
   54.7800   26.6930   45.3870 H   0  0  0  0  0  0  0  0  0  0  0  0
   58.9923   25.3582   47.0502 H   0  0  0  0  0  0  0  0  0  0  0  0
   60.7573   27.0226   46.4771 H   0  0  0  0  0  0  0  0  0  0  0  0
   58.6042   31.3792   49.0256 H   0  0  0  0  0  0  0  0  0  0  0  0
   59.7361   32.0795   54.6791 H   0  0  0  0  0  0  0  0  0  0  0  0
   61.2680   31.9475   53.7457 H   0  0  0  0  0  0  0  0  0  0  0  0
   61.4640   33.0788   56.0239 H   0  0  0  0  0  0  0  0  0  0  0  0
   62.0673   34.0371   54.5913 H   0  0  0  0  0  0  0  0  0  0  0  0
   60.1097   34.7762   56.5868 H   0  0  0  0  0  0  0  0  0  0  0  0
   60.8158   35.7328   55.1963 H   0  0  0  0  0  0  0  0  0  0  0  0
   58.2889   34.0416   55.2181 H   0  0  0  0  0  0  0  0  0  0  0  0
   58.4651   35.8178   54.9298 H   0  0  0  0  0  0  0  0  0  0  0  0
   58.0962   34.4376   52.8356 H   0  0  0  0  0  0  0  0  0  0  0  0
   59.6004   35.4446   52.8423 H   0  0  0  0  0  0  0  0  0  0  0  0
   62.1875   33.7410   51.6563 H   0  0  0  0  0  0  0  0  0  0  0  0
  1  2  1  0
  2  3  1  0
  3  4  1  0
  4  5  2  0
  5  6  1  0
  6  7  2  0
  6  8  1  0
  8  9  1  0
  9 10  1  0
 10 11  2  0
 11 12  1  0
 12 13  2  0
 13 14  1  0
 14 15  1  0
 14 16  2  0
 14 17  2  0
 13 18  1  0
 18 19  2  0
  5 20  1  0
 20 21  2  0
 21 22  1  0
 22 23  1  0
 22 24  2  0
 24 25  1  0
 25 26  1  0
 26 27  1  0
 27 28  1  0
 28 29  1  0
 29 30  1  0
 24 31  1  0
 31 32  2  0
 32  3  1  0
 19 10  1  0
 32 20  1  0
 30 25  1  0
  1 33  1  0
  1 34  1  0
  1 35  1  0
  2 36  1  0
  2 37  1  0
  4 38  1  0
  8 39  1  0
  9 40  1  0
  9 41  1  0
 11 42  1  0
 12 43  1  0
 15 44  1  0
 18 45  1  0
 19 46  1  0
 21 47  1  0
 26 48  1  0
 26 49  1  0
 27 50  1  0
 27 51  1  0
 28 52  1  0
 28 53  1  0
 29 54  1  0
 29 55  1  0
 30 56  1  0
 30 57  1  0
 31 58  1  0
M  CHG  1  15  -1
M  END
>  <UniqueID>  (59) 
49

>  <SMILES>  (59) 
CCn1cc(C(=O)NCc2ccc(S([NH-])(=O)=O)cc2)c2cc(Br)c(N3CCCCC3)cc21

>  <Energy>  (59) 
95.40752867423208

>  <Genealogy>  (59) 
CCn1cc(C(=O)NCc2ccc(S([NH-])(=O)=O)cc2)c2cc(Br)c(N3CCCCC3)cc21 (protonated)
CCn1cc(C(=O)NCc2ccc(S([NH-])(=O)=O)cc2)c2cc(Br)c(N3CCCCC3)cc21 (3D coordinates assigned)
CCn1cc(C(=O)NCc2ccc(S([NH-])(=O)=O)cc2)c2cc(Br)c(N3CCCCC3)cc21 (nonaromatic ring conformer: 95.40752867423208 kcal/mol)

>  <smiles>  (59) 
CCn1cc(C(=O)NCc2ccc(S(N)(=O)=O)cc2)c2cc(Br)c(N3CCCCC3)cc21

>  <score_type>  (59) 
oracle

>  <origin>  (59) 
adg

>  <m_score__min__energy>  (59) 
-11.390000000000001

>  <m_primary>  (59) 
energy

$$$$
59:0
     RDKit          3D

 44 46  0  0  0  0  0  0  0  0999 V2000
   61.0570   26.7350   46.8550 O   0  0  0  0  0  0  0  0  0  0  0  0
   60.4990   27.8670   46.8620 C   0  0  0  0  0  0  0  0  0  0  0  0
   59.8150   28.3520   45.6400 C   0  0  0  0  0  0  0  0  0  0  0  0
   58.4920   28.2910   45.4220 C   0  0  0  0  0  0  0  0  0  0  0  0
   57.6390   27.1130   45.6960 C   0  0  0  0  0  0  0  0  0  0  0  0
   58.2100   25.8960   46.1090 C   0  0  0  0  0  0  0  0  0  0  0  0
   57.3940   24.8030   46.4150 C   0  0  0  0  0  0  0  0  0  0  0  0
   56.0050   24.9180   46.3280 C   0  0  0  0  0  0  0  0  0  0  0  0
   55.4260   26.1290   45.9380 C   0  0  0  0  0  0  0  0  0  0  0  0
   54.0420   26.2400   45.8630 O   0  0  0  0  0  0  0  0  0  0  0  0
   56.2380   27.2300   45.6310 C   0  0  0  0  0  0  0  0  0  0  0  0
   55.6500   28.4340   45.2560 O   0  0  0  0  0  0  0  0  0  0  0  0
   60.6070   28.7210   48.0730 C   0  0  0  0  0  0  0  0  0  0  0  0
   60.7050   28.1540   49.3600 C   0  0  0  0  0  0  0  0  0  0  0  0
   60.7880   28.9740   50.4890 C   0  0  0  0  0  0  0  0  0  0  0  0
   60.7940   30.3620   50.3510 C   0  0  0  0  0  0  0  0  0  0  0  0
   60.7460   30.9420   49.0760 C   0  0  0  0  0  0  0  0  0  0  0  0
   60.7460   32.3620   48.9110 N   0  0  0  0  0  0  0  0  0  0  0  0
   59.3040   33.3010   48.6820 S   0  0  0  0  0  0  0  0  0  0  0  0
   58.1780   32.6710   49.4550 O   0  0  0  0  0  0  0  0  0  0  0  0
   59.5350   34.6860   49.2200 O   0  0  0  0  0  0  0  0  0  0  0  0
   58.8520   33.4100   46.9820 C   0  0  0  0  0  0  0  0  0  0  0  0
   59.1690   34.5520   46.2360 C   0  0  0  0  0  0  0  0  0  0  0  0
   58.8290   34.6240   44.8830 C   0  0  0  0  0  0  0  0  0  0  0  0
   58.1760   33.5540   44.2650 C   0  0  0  0  0  0  0  0  0  0  0  0
   57.8540   32.3960   44.9970 C   0  0  0  0  0  0  0  0  0  0  0  0
   57.1890   31.2920   44.3570 N   0  0  0  0  0  0  0  0  0  0  0  0
   57.7650   30.6270   43.4720 O   0  0  0  0  0  0  0  0  0  0  0  0
   55.9020   30.9510   44.7120 O   0  0  0  0  0  0  0  0  0  0  0  0
   58.1940   32.3370   46.3620 C   0  0  0  0  0  0  0  0  0  0  0  0
   60.6280   30.1230   47.9480 C   0  0  0  0  0  0  0  0  0  0  0  0
   60.4396   28.7961   44.8509 H   0  0  0  0  0  0  0  0  0  0  0  0
   58.0041   29.1856   45.0077 H   0  0  0  0  0  0  0  0  0  0  0  0
   59.3030   25.8038   46.1916 H   0  0  0  0  0  0  0  0  0  0  0  0
   57.8472   23.8499   46.7251 H   0  0  0  0  0  0  0  0  0  0  0  0
   55.3661   24.0550   46.5666 H   0  0  0  0  0  0  0  0  0  0  0  0
   60.7162   27.0602   49.4764 H   0  0  0  0  0  0  0  0  0  0  0  0
   60.8488   28.5228   51.4904 H   0  0  0  0  0  0  0  0  0  0  0  0
   60.8365   31.0024   51.2443 H   0  0  0  0  0  0  0  0  0  0  0  0
   59.6872   35.3948   46.7168 H   0  0  0  0  0  0  0  0  0  0  0  0
   59.0759   35.5252   44.3025 H   0  0  0  0  0  0  0  0  0  0  0  0
   57.9119   33.6174   43.1991 H   0  0  0  0  0  0  0  0  0  0  0  0
   57.9413   31.4411   46.9480 H   0  0  0  0  0  0  0  0  0  0  0  0
   60.5506   30.5804   46.9506 H   0  0  0  0  0  0  0  0  0  0  0  0
  1  2  2  0
  2  3  1  0
  3  4  2  3
  4  5  1  0
  5  6  2  0
  6  7  1  0
  7  8  2  0
  8  9  1  0
  9 10  1  0
  9 11  2  0
 11 12  1  0
  2 13  1  0
 13 14  2  0
 14 15  1  0
 15 16  2  0
 16 17  1  0
 17 18  1  0
 18 19  1  0
 19 20  2  0
 19 21  2  0
 19 22  1  0
 22 23  2  0
 23 24  1  0
 24 25  2  0
 25 26  1  0
 26 27  1  0
 27 28  2  0
 27 29  1  0
 26 30  2  0
 17 31  2  0
 11  5  1  0
 31 13  1  0
 30 22  1  0
  3 32  1  0
  4 33  1  0
  6 34  1  0
  7 35  1  0
  8 36  1  0
 14 37  1  0
 15 38  1  0
 16 39  1  0
 23 40  1  0
 24 41  1  0
 25 42  1  0
 30 43  1  0
 31 44  1  0
M  CHG  5  10  -1  12  -1  18  -1  27   1  29  -1
M  END
>  <UniqueID>  (60) 
50

>  <SMILES>  (60) 
O=C(C=Cc1cccc([O-])c1[O-])c1cccc([N-]S(=O)(=O)c2cccc([N+](=O)[O-])c2)c1

>  <Energy>  (60) 
67.98548683736404

>  <Genealogy>  (60) 
O=C(C=Cc1cccc([O-])c1[O-])c1cccc([N-]S(=O)(=O)c2cccc([N+](=O)[O-])c2)c1 (protonated)
O=C(C=Cc1cccc([O-])c1[O-])c1cccc([N-]S(=O)(=O)c2cccc([N+](=O)[O-])c2)c1 (3D coordinates assigned)
O=C(C=Cc1cccc([O-])c1[O-])c1cccc([N-]S(=O)(=O)c2cccc([N+](=O)[O-])c2)c1 (optimized conformer: 67.98548683736404 kcal/mol)

>  <smiles>  (60) 
O=C(C=Cc1cccc(O)c1O)c1cccc(NS(=O)(=O)c2cccc([N+](=O)[O-])c2)c1

>  <score_type>  (60) 
oracle

>  <origin>  (60) 
adg

>  <m_score__min__energy>  (60) 
-17.98

>  <m_primary>  (60) 
energy

$$$$
60:0
     RDKit          3D

 39 41  0  0  0  0  0  0  0  0999 V2000
   55.5080   25.7900   46.3690 O   0  0  0  0  0  0  0  0  0  0  0  0
   56.6350   26.0170   45.8490 C   0  0  0  0  0  0  0  0  0  0  0  0
   57.5700   24.9400   45.6650 N   0  0  0  0  0  0  0  0  0  0  0  0
   57.1890   23.5570   45.7170 C   0  0  0  0  0  0  0  0  0  0  0  0
   57.1110   22.8190   44.5250 C   0  0  0  0  0  0  0  0  0  0  0  0
   56.7330   21.4740   44.5490 C   0  0  0  0  0  0  0  0  0  0  0  0
   56.4200   20.8570   45.7620 C   0  0  0  0  0  0  0  0  0  0  0  0
   56.4700   21.5880   46.9510 C   0  0  0  0  0  0  0  0  0  0  0  0
   56.8470   22.9340   46.9330 C   0  0  0  0  0  0  0  0  0  0  0  0
   56.8280   23.6390   48.0930 F   0  0  0  0  0  0  0  0  0  0  0  0
   56.9900   27.4060   45.5000 C   0  0  0  0  0  0  0  0  0  0  0  0
   58.3230   27.8370   45.4550 C   0  0  0  0  0  0  0  0  0  0  0  0
   58.6010   29.1630   45.1190 C   0  0  0  0  0  0  0  0  0  0  0  0
   59.8000   29.5440   45.0830 O   0  0  0  0  0  0  0  0  0  0  0  0
   57.5370   30.0430   44.8270 C   0  0  0  0  0  0  0  0  0  0  0  0
   57.6980   31.3970   44.4810 O   0  0  0  0  0  0  0  0  0  0  0  0
   57.0490   32.5040   45.0980 C   0  0  0  0  0  0  0  0  0  0  0  0
   58.0090   33.1760   46.0340 C   0  0  0  0  0  0  0  0  0  0  0  0
   58.2130   32.6610   47.3250 C   0  0  0  0  0  0  0  0  0  0  0  0
   59.1310   33.2680   48.1880 C   0  0  0  0  0  0  0  0  0  0  0  0
   59.8630   34.3810   47.7630 C   0  0  0  0  0  0  0  0  0  0  0  0
   60.7550   34.9660   48.5990 F   0  0  0  0  0  0  0  0  0  0  0  0
   59.6740   34.8910   46.4750 C   0  0  0  0  0  0  0  0  0  0  0  0
   58.7560   34.2880   45.6100 C   0  0  0  0  0  0  0  0  0  0  0  0
   56.2350   29.5320   44.8840 C   0  0  0  0  0  0  0  0  0  0  0  0
   55.1540   30.3590   44.6040 O   0  0  0  0  0  0  0  0  0  0  0  0
   56.0130   28.2620   45.2090 O   0  0  0  0  0  0  0  0  0  0  0  0
   58.5910   25.1630   45.6850 H   0  0  0  0  0  0  0  0  0  0  0  0
   57.3490   23.3028   43.5662 H   0  0  0  0  0  0  0  0  0  0  0  0
   56.6819   20.9007   43.6116 H   0  0  0  0  0  0  0  0  0  0  0  0
   56.1340   19.7950   45.7810 H   0  0  0  0  0  0  0  0  0  0  0  0
   56.2120   21.1033   47.9042 H   0  0  0  0  0  0  0  0  0  0  0  0
   59.1413   27.1378   45.6820 H   0  0  0  0  0  0  0  0  0  0  0  0
   56.7257   33.2183   44.3265 H   0  0  0  0  0  0  0  0  0  0  0  0
   56.1696   32.1531   45.6579 H   0  0  0  0  0  0  0  0  0  0  0  0
   57.6489   31.7774   47.6582 H   0  0  0  0  0  0  0  0  0  0  0  0
   59.2774   32.8692   49.2027 H   0  0  0  0  0  0  0  0  0  0  0  0
   60.2484   35.7679   46.1418 H   0  0  0  0  0  0  0  0  0  0  0  0
   58.6180   34.6856   44.5937 H   0  0  0  0  0  0  0  0  0  0  0  0
  1  2  2  0
  2  3  1  0
  3  4  1  0
  4  5  2  0
  5  6  1  0
  6  7  2  0
  7  8  1  0
  8  9  2  0
  9 10  1  0
  2 11  1  0
 11 12  2  0
 12 13  1  0
 13 14  2  0
 13 15  1  0
 15 16  1  0
 16 17  1  0
 17 18  1  0
 18 19  2  0
 19 20  1  0
 20 21  2  0
 21 22  1  0
 21 23  1  0
 23 24  2  0
 15 25  2  0
 25 26  1  0
 25 27  1  0
  9  4  1  0
 27 11  1  0
 24 18  1  0
  3 28  1  0
  5 29  1  0
  6 30  1  0
  7 31  1  0
  8 32  1  0
 12 33  1  0
 17 34  1  0
 17 35  1  0
 19 36  1  0
 20 37  1  0
 23 38  1  0
 24 39  1  0
M  CHG  1  26  -1
M  END
>  <UniqueID>  (61) 
51

>  <SMILES>  (61) 
O=C(Nc1ccccc1F)c1cc(=O)c(OCc2ccc(F)cc2)c([O-])o1

>  <Energy>  (61) 
51.30446047417971

>  <Genealogy>  (61) 
O=C(Nc1ccccc1F)c1cc(=O)c(OCc2ccc(F)cc2)c([O-])o1 (protonated)
O=C(Nc1ccccc1F)c1cc(=O)c(OCc2ccc(F)cc2)c([O-])o1 (3D coordinates assigned)
O=C(Nc1ccccc1F)c1cc(=O)c(OCc2ccc(F)cc2)c([O-])o1 (optimized conformer: 51.30446047417971 kcal/mol)

>  <smiles>  (61) 
O=C(Nc1ccccc1F)c1cc(=O)c(OCc2ccc(F)cc2)c(O)o1

>  <score_type>  (61) 
oracle

>  <origin>  (61) 
adg

>  <m_score__min__energy>  (61) 
-10.140000000000001

>  <m_primary>  (61) 
energy

$$$$
61:0
     RDKit          3D

 64 67  0  0  0  0  0  0  0  0999 V2000
   57.8070   27.5830   43.3430 C   0  0  0  0  0  0  0  0  0  0  0  0
   58.4250   27.9660   44.6670 C   0  0  0  0  0  0  0  0  0  0  0  0
   58.7820   26.9410   45.5580 C   0  0  0  0  0  0  0  0  0  0  0  0
   59.2980   27.2480   46.7690 N   0  0  0  0  0  0  0  0  0  0  0  0
   59.4890   28.5350   47.1550 C   0  0  0  0  0  0  0  0  0  0  0  0
   59.9830   28.8120   48.3280 N   0  0  0  0  0  0  0  0  0  0  0  0
   59.3850   29.7450   49.2840 C   0  0  0  0  0  0  0  0  0  0  0  0
   60.3400   30.9030   49.5820 C   0  0  0  0  0  0  0  0  0  0  0  0
   59.7240   31.8450   50.5820 C   0  0  0  0  0  0  0  0  0  0  0  0
   60.4720   32.9090   51.1090 C   0  0  0  0  0  0  0  0  0  0  0  0
   59.8800   33.8170   51.9930 C   0  0  0  0  0  0  0  0  0  0  0  0
   58.5380   33.6670   52.3570 C   0  0  0  0  0  0  0  0  0  0  0  0
   57.7870   32.6130   51.8350 C   0  0  0  0  0  0  0  0  0  0  0  0
   58.3710   31.7070   50.9440 C   0  0  0  0  0  0  0  0  0  0  0  0
   59.1350   29.5730   46.2780 C   0  0  0  0  0  0  0  0  0  0  0  0
   59.2910   30.7720   46.6460 O   0  0  0  0  0  0  0  0  0  0  0  0
   58.6090   29.2820   45.0400 N   0  0  0  0  0  0  0  0  0  0  0  0
   58.1790   30.3870   44.1530 C   0  0  0  0  0  0  0  0  0  0  0  0
   56.7690   30.8060   44.4730 C   0  0  0  0  0  0  0  0  0  0  0  0
   55.8080   30.0760   44.1080 O   0  0  0  0  0  0  0  0  0  0  0  0
   56.4800   31.9860   45.2360 N   0  0  0  0  0  0  0  0  0  0  0  0
   57.0360   33.3150   44.9950 C   0  0  0  0  0  0  0  0  0  0  0  0
   58.2510   33.5440   45.8520 C   0  0  0  0  0  0  0  0  0  0  0  0
   58.1440   33.5920   47.2520 C   0  0  0  0  0  0  0  0  0  0  0  0
   59.2800   33.7950   48.0410 C   0  0  0  0  0  0  0  0  0  0  0  0
   60.5450   33.9390   47.4410 C   0  0  0  0  0  0  0  0  0  0  0  0
   61.7400   34.1210   48.2130 N   0  0  0  0  0  0  0  0  0  0  0  0
   63.1910   33.1900   48.0420 S   0  0  0  0  0  0  0  0  0  0  0  0
   62.8340   31.7950   47.6140 O   0  0  0  0  0  0  0  0  0  0  0  0
   64.0520   33.8220   46.9850 O   0  0  0  0  0  0  0  0  0  0  0  0
   64.0500   33.1100   49.5770 C   0  0  0  0  0  0  0  0  0  0  0  0
   65.0450   32.1410   49.7750 C   0  0  0  0  0  0  0  0  0  0  0  0
   65.7380   32.0830   50.9880 C   0  0  0  0  0  0  0  0  0  0  0  0
   65.4410   32.9890   52.0090 C   0  0  0  0  0  0  0  0  0  0  0  0
   64.4450   33.9530   51.8220 C   0  0  0  0  0  0  0  0  0  0  0  0
   64.1520   34.8270   52.8160 F   0  0  0  0  0  0  0  0  0  0  0  0
   63.7460   34.0130   50.6100 C   0  0  0  0  0  0  0  0  0  0  0  0
   62.7770   34.9490   50.4500 F   0  0  0  0  0  0  0  0  0  0  0  0
   60.6490   33.8920   46.0470 C   0  0  0  0  0  0  0  0  0  0  0  0
   59.5140   33.6910   45.2570 C   0  0  0  0  0  0  0  0  0  0  0  0
   56.8843   27.0112   43.5208 H   0  0  0  0  0  0  0  0  0  0  0  0
   57.5702   28.4929   42.7720 H   0  0  0  0  0  0  0  0  0  0  0  0
   58.5165   26.9660   42.7720 H   0  0  0  0  0  0  0  0  0  0  0  0
   58.6418   25.8885   45.2705 H   0  0  0  0  0  0  0  0  0  0  0  0
   58.4522   30.1463   48.8611 H   0  0  0  0  0  0  0  0  0  0  0  0
   59.1797   29.2068   50.2211 H   0  0  0  0  0  0  0  0  0  0  0  0
   61.2791   30.5025   49.9916 H   0  0  0  0  0  0  0  0  0  0  0  0
   60.5388   31.4515   48.6495 H   0  0  0  0  0  0  0  0  0  0  0  0
   61.5281   33.0294   50.8258 H   0  0  0  0  0  0  0  0  0  0  0  0
   60.4705   34.6499   52.4023 H   0  0  0  0  0  0  0  0  0  0  0  0
   58.0744   34.3799   53.0548 H   0  0  0  0  0  0  0  0  0  0  0  0
   56.7326   32.4945   52.1252 H   0  0  0  0  0  0  0  0  0  0  0  0
   57.7718   30.8850   50.5254 H   0  0  0  0  0  0  0  0  0  0  0  0
   58.8519   31.2458   44.2933 H   0  0  0  0  0  0  0  0  0  0  0  0
   58.2174   30.0396   43.1100 H   0  0  0  0  0  0  0  0  0  0  0  0
   57.3193   33.4017   43.9356 H   0  0  0  0  0  0  0  0  0  0  0  0
   56.2760   34.0687   45.2486 H   0  0  0  0  0  0  0  0  0  0  0  0
   57.1609   33.4692   47.7300 H   0  0  0  0  0  0  0  0  0  0  0  0
   59.1848   33.8424   49.1358 H   0  0  0  0  0  0  0  0  0  0  0  0
   65.2806   31.4250   48.9739 H   0  0  0  0  0  0  0  0  0  0  0  0
   66.5185   31.3226   51.1386 H   0  0  0  0  0  0  0  0  0  0  0  0
   65.9908   32.9442   52.9607 H   0  0  0  0  0  0  0  0  0  0  0  0
   61.6320   34.0142   45.5688 H   0  0  0  0  0  0  0  0  0  0  0  0
   59.6108   33.6477   44.1621 H   0  0  0  0  0  0  0  0  0  0  0  0
  1  2  1  0
  2  3  2  0
  3  4  1  0
  4  5  1  0
  5  6  2  3
  6  7  1  0
  7  8  1  0
  8  9  1  0
  9 10  2  0
 10 11  1  0
 11 12  2  0
 12 13  1  0
 13 14  2  0
  5 15  1  0
 15 16  2  0
 15 17  1  0
 17 18  1  0
 18 19  1  0
 19 20  2  0
 19 21  1  0
 21 22  1  0
 22 23  1  0
 23 24  2  0
 24 25  1  0
 25 26  2  0
 26 27  1  0
 27 28  1  0
 28 29  2  0
 28 30  2  0
 28 31  1  0
 31 32  2  0
 32 33  1  0
 33 34  2  0
 34 35  1  0
 35 36  1  0
 35 37  2  0
 37 38  1  0
 26 39  1  0
 39 40  2  0
 17  2  1  0
 40 23  1  0
 14  9  1  0
 37 31  1  0
  1 41  1  0
  1 42  1  0
  1 43  1  0
  3 44  1  0
  7 45  1  0
  7 46  1  0
  8 47  1  0
  8 48  1  0
 10 49  1  0
 11 50  1  0
 12 51  1  0
 13 52  1  0
 14 53  1  0
 18 54  1  0
 18 55  1  0
 22 56  1  0
 22 57  1  0
 24 58  1  0
 25 59  1  0
 32 60  1  0
 33 61  1  0
 34 62  1  0
 39 63  1  0
 40 64  1  0
M  CHG  3   4  -1  21  -1  27  -1
M  END
>  <UniqueID>  (62) 
52

>  <SMILES>  (62) 
Cc1c[n-]c(=NCCc2ccccc2)c(=O)n1CC(=O)[N-]Cc1ccc([N-]S(=O)(=O)c2cccc(F)c2F)cc1

>  <Energy>  (62) 
73.59514423688745

>  <Genealogy>  (62) 
Cc1c[n-]c(=NCCc2ccccc2)c(=O)n1CC(=O)[N-]Cc1ccc([N-]S(=O)(=O)c2cccc(F)c2F)cc1 (protonated)
Cc1c[n-]c(=NCCc2ccccc2)c(=O)n1CC(=O)[N-]Cc1ccc([N-]S(=O)(=O)c2cccc(F)c2F)cc1 (3D coordinates assigned)
Cc1c[n-]c(=NCCc2ccccc2)c(=O)n1CC(=O)[N-]Cc1ccc([N-]S(=O)(=O)c2cccc(F)c2F)cc1 (optimized conformer: 73.59514423688745 kcal/mol)

>  <smiles>  (62) 
Cc1c[nH]c(=NCCc2ccccc2)c(=O)n1CC(=O)NCc1ccc(NS(=O)(=O)c2cccc(F)c2F)cc1

>  <score_type>  (62) 
oracle

>  <origin>  (62) 
adg

>  <m_score__min__energy>  (62) 
-13.82

>  <m_primary>  (62) 
energy

$$$$
62:0
     RDKit          3D

 41 43  0  0  0  0  0  0  0  0999 V2000
   57.6460   24.6760   48.0490 O   0  0  0  0  0  0  0  0  0  0  0  0
   58.3380   25.2380   47.1590 C   0  0  0  0  0  0  0  0  0  0  0  0
   57.8590   25.2440   45.7430 C   0  0  0  0  0  0  0  0  0  0  0  0
   57.6720   26.6230   45.2820 N   0  0  0  0  0  0  0  0  0  0  0  0
   58.7030   27.2380   44.6950 N   0  0  0  0  0  0  0  0  0  0  0  0
   58.6300   28.5230   44.2640 C   0  0  0  0  0  0  0  0  0  0  0  0
   57.4490   29.2480   44.4440 C   0  0  0  0  0  0  0  0  0  0  0  0
   57.3520   30.6110   43.9960 N   0  0  0  0  0  0  0  0  0  0  0  0
   56.8820   30.9110   42.6380 C   0  0  0  0  0  0  0  0  0  0  0  0
   57.7180   32.0390   41.9970 C   0  0  0  0  0  0  0  0  0  0  0  0
   58.4360   32.8700   42.9820 N   0  0  0  0  0  0  0  0  0  0  0  0
   57.6600   33.0470   44.2140 C   0  0  0  0  0  0  0  0  0  0  0  0
   57.5690   31.7080   44.9470 C   0  0  0  0  0  0  0  0  0  0  0  0
   56.3630   28.6140   45.0580 C   0  0  0  0  0  0  0  0  0  0  0  0
   55.1570   29.2880   45.2290 O   0  0  0  0  0  0  0  0  0  0  0  0
   56.4920   27.2890   45.4850 C   0  0  0  0  0  0  0  0  0  0  0  0
   55.5180   26.7190   46.0520 O   0  0  0  0  0  0  0  0  0  0  0  0
   59.5280   25.9590   47.5010 N   0  0  0  0  0  0  0  0  0  0  0  0
   59.5980   27.2690   48.0850 C   0  0  0  0  0  0  0  0  0  0  0  0
   60.4410   27.5570   49.1760 C   0  0  0  0  0  0  0  0  0  0  0  0
   60.4930   28.8540   49.6990 C   0  0  0  0  0  0  0  0  0  0  0  0
   59.7180   29.8700   49.1340 C   0  0  0  0  0  0  0  0  0  0  0  0
   58.8980   29.5950   48.0370 C   0  0  0  0  0  0  0  0  0  0  0  0
   58.1560   30.5850   47.4810 F   0  0  0  0  0  0  0  0  0  0  0  0
   58.8440   28.3010   47.5110 C   0  0  0  0  0  0  0  0  0  0  0  0
   58.6028   24.7444   45.1049 H   0  0  0  0  0  0  0  0  0  0  0  0
   56.8986   24.7108   45.6848 H   0  0  0  0  0  0  0  0  0  0  0  0
   59.4968   28.9917   43.7751 H   0  0  0  0  0  0  0  0  0  0  0  0
   56.9674   30.0050   42.0200 H   0  0  0  0  0  0  0  0  0  0  0  0
   55.8347   31.2423   42.6961 H   0  0  0  0  0  0  0  0  0  0  0  0
   58.4566   31.5840   41.3206 H   0  0  0  0  0  0  0  0  0  0  0  0
   57.0174   32.6994   41.4650 H   0  0  0  0  0  0  0  0  0  0  0  0
   58.5980   33.8130   42.5600 H   0  0  0  0  0  0  0  0  0  0  0  0
   58.1571   33.7866   44.8590 H   0  0  0  0  0  0  0  0  0  0  0  0
   56.6489   33.4025   43.9663 H   0  0  0  0  0  0  0  0  0  0  0  0
   58.5065   31.5314   45.4946 H   0  0  0  0  0  0  0  0  0  0  0  0
   56.7204   31.7438   45.6461 H   0  0  0  0  0  0  0  0  0  0  0  0
   61.0592   26.7615   49.6175 H   0  0  0  0  0  0  0  0  0  0  0  0
   61.1455   29.0741   50.5568 H   0  0  0  0  0  0  0  0  0  0  0  0
   59.7535   30.8865   49.5530 H   0  0  0  0  0  0  0  0  0  0  0  0
   58.2051   28.0915   46.6404 H   0  0  0  0  0  0  0  0  0  0  0  0
  1  2  2  0
  2  3  1  0
  3  4  1  0
  4  5  1  0
  5  6  2  0
  6  7  1  0
  7  8  1  0
  8  9  1  0
  9 10  1  0
 10 11  1  0
 11 12  1  0
 12 13  1  0
  7 14  2  0
 14 15  1  0
 14 16  1  0
 16 17  2  0
  2 18  1  0
 18 19  1  0
 19 20  2  0
 20 21  1  0
 21 22  2  0
 22 23  1  0
 23 24  1  0
 23 25  2  0
 16  4  1  0
 25 19  1  0
 13  8  1  0
  3 26  1  0
  3 27  1  0
  6 28  1  0
  9 29  1  0
  9 30  1  0
 10 31  1  0
 10 32  1  0
 11 33  1  0
 12 34  1  0
 12 35  1  0
 13 36  1  0
 13 37  1  0
 20 38  1  0
 21 39  1  0
 22 40  1  0
 25 41  1  0
M  CHG  2  15  -1  18  -1
M  END
>  <UniqueID>  (63) 
53

>  <SMILES>  (63) 
O=C(Cn1ncc(N2CCNCC2)c([O-])c1=O)[N-]c1cccc(F)c1

>  <Energy>  (63) 
55.341838670104366

>  <Genealogy>  (63) 
O=C(Cn1ncc(N2CCNCC2)c([O-])c1=O)[N-]c1cccc(F)c1 (protonated)
O=C(Cn1ncc(N2CCNCC2)c([O-])c1=O)[N-]c1cccc(F)c1 (3D coordinates assigned)
O=C(Cn1ncc(N2CCNCC2)c([O-])c1=O)[N-]c1cccc(F)c1 (nonaromatic ring conformer: 55.341838670104366 kcal/mol)

>  <smiles>  (63) 
O=C(Cn1ncc(N2CCNCC2)c(O)c1=O)Nc1cccc(F)c1

>  <score_type>  (63) 
oracle

>  <origin>  (63) 
adg

>  <m_score__min__energy>  (63) 
-12.029999999999999

>  <m_primary>  (63) 
energy

$$$$
63:0
     RDKit          3D

 40 43  0  0  0  0  0  0  0  0999 V2000
   55.5330   27.6740   44.9160 H   0  0  0  0  0  0  0  0  0  0  0  0
   56.3920   28.0730   45.3560 N   0  0  0  0  0  0  0  0  0  0  0  0
   56.6780   29.3280   45.2460 C   0  0  0  0  0  0  0  0  0  0  0  0
   56.0140   30.1590   44.4170 N   0  0  0  0  0  0  0  0  0  0  0  0
   56.5040   31.4260   44.4840 C   0  0  0  0  0  0  0  0  0  0  0  0
   56.0930   32.2499   43.8821 H   0  0  0  0  0  0  0  0  0  0  0  0
   57.5700   31.6060   45.3750 C   0  0  0  0  0  0  0  0  0  0  0  0
   58.2990   32.8710   45.6480 C   0  0  0  0  0  0  0  0  0  0  0  0
   58.5310   33.7910   44.6100 C   0  0  0  0  0  0  0  0  0  0  0  0
   58.1733   33.5691   43.5937 H   0  0  0  0  0  0  0  0  0  0  0  0
   59.2120   34.9840   44.8600 C   0  0  0  0  0  0  0  0  0  0  0  0
   59.3842   35.6979   44.0410 H   0  0  0  0  0  0  0  0  0  0  0  0
   59.6750   35.2750   46.1430 C   0  0  0  0  0  0  0  0  0  0  0  0
   60.2072   36.2190   46.3318 H   0  0  0  0  0  0  0  0  0  0  0  0
   59.4650   34.3680   47.1960 C   0  0  0  0  0  0  0  0  0  0  0  0
   59.9240   34.6380   48.5340 N   0  0  0  0  0  0  0  0  0  0  0  0
   59.6000   35.5070   49.0150 H   0  0  0  0  0  0  0  0  0  0  0  0
   60.9270   33.5620   49.4580 S   0  0  0  0  0  0  0  0  0  0  0  0
   62.2070   33.3390   48.7030 O   0  0  0  0  0  0  0  0  0  0  0  0
   61.2430   34.2120   50.7770 O   0  0  0  0  0  0  0  0  0  0  0  0
   60.1300   31.9970   49.7100 C   0  0  0  0  0  0  0  0  0  0  0  0
   60.5930   30.8850   48.9880 C   0  0  0  0  0  0  0  0  0  0  0  0
   61.4468   31.0003   48.3041 H   0  0  0  0  0  0  0  0  0  0  0  0
   59.9870   29.6380   49.1250 C   0  0  0  0  0  0  0  0  0  0  0  0
   60.3592   28.7818   48.5433 H   0  0  0  0  0  0  0  0  0  0  0  0
   58.9120   29.4700   49.9950 C   0  0  0  0  0  0  0  0  0  0  0  0
   58.4341   28.4840   50.0924 H   0  0  0  0  0  0  0  0  0  0  0  0
   58.4380   30.5530   50.7460 C   0  0  0  0  0  0  0  0  0  0  0  0
   57.3620   30.3710   51.6300 C   0  0  0  0  0  0  0  0  0  0  0  0
   56.8891   29.3820   51.7205 H   0  0  0  0  0  0  0  0  0  0  0  0
   56.8900   31.4390   52.3940 C   0  0  0  0  0  0  0  0  0  0  0  0
   56.0446   31.2912   53.0820 H   0  0  0  0  0  0  0  0  0  0  0  0
   57.4890   32.6930   52.2860 C   0  0  0  0  0  0  0  0  0  0  0  0
   57.1160   33.5307   52.8936 H   0  0  0  0  0  0  0  0  0  0  0  0
   58.5590   32.8930   51.4120 C   0  0  0  0  0  0  0  0  0  0  0  0
   59.0256   33.8865   51.3401 H   0  0  0  0  0  0  0  0  0  0  0  0
   59.0480   31.8310   50.6190 C   0  0  0  0  0  0  0  0  0  0  0  0
   58.7730   33.1730   46.9390 C   0  0  0  0  0  0  0  0  0  0  0  0
   58.5985   32.4616   47.7596 H   0  0  0  0  0  0  0  0  0  0  0  0
   57.8970   30.1110   46.0930 S   0  0  0  0  0  0  0  0  0  0  0  0
  1  2  1  0
  2  3  2  0
  3  4  1  0
  4  5  1  0
  5  6  1  0
  5  7  2  0
  7  8  1  0
  8  9  2  0
  9 10  1  0
  9 11  1  0
 11 12  1  0
 11 13  2  0
 13 14  1  0
 13 15  1  0
 15 16  1  0
 16 17  1  0
 16 18  1  0
 18 19  2  0
 18 20  2  0
 18 21  1  0
 21 22  2  0
 22 23  1  0
 22 24  1  0
 24 25  1  0
 24 26  2  0
 26 27  1  0
 26 28  1  0
 28 29  2  0
 29 30  1  0
 29 31  1  0
 31 32  1  0
 31 33  2  0
 33 34  1  0
 33 35  1  0
 35 36  1  0
 35 37  2  0
 15 38  2  0
 38 39  1  0
  7 40  1  0
 40  3  1  0
 38  8  1  0
 37 21  1  0
 37 28  1  0
M  CHG  1   4  -1
M  END
>  <UniqueID>  (64) 
54

>  <SMILES>  (64) 
[H]/N=c1/[n-]cc(-c2cccc(NS(=O)(=O)c3cccc4ccccc34)c2)s1

>  <Energy>  (64) 
86.79279644932048

>  <Genealogy>  (64) 
N=c1[n-]cc(-c2cccc(NS(=O)(=O)c3cccc4ccccc34)c2)s1 (protonated)
[H]/N=c1/[n-]cc(-c2cccc(NS(=O)(=O)c3cccc4ccccc34)c2)s1 (cis-trans isomerization)
[H]/N=c1/[n-]cc(-c2cccc(NS(=O)(=O)c3cccc4ccccc34)c2)s1 (3D coordinates assigned)
[H]/N=c1/[n-]cc(-c2cccc(NS(=O)(=O)c3cccc4ccccc34)c2)s1 (optimized conformer: 86.79279644932048 kcal/mol)

>  <smiles>  (64) 
N=c1[nH]cc(-c2cccc(NS(=O)(=O)c3cccc4ccccc34)c2)s1

>  <score_type>  (64) 
oracle

>  <origin>  (64) 
adg

>  <m_score__min__energy>  (64) 
-11.5

>  <m_primary>  (64) 
energy

$$$$
64:0
     RDKit          3D

 70 72  0  0  0  0  0  0  0  0999 V2000
   58.3111   33.1262   43.5738 H   0  0  0  0  0  0  0  0  0  0  0  0
   58.2060   32.7210   44.5910 C   0  0  0  0  0  0  0  0  0  0  0  0
   58.3240   33.5150   45.6110 N   0  0  0  0  0  0  0  0  0  0  0  0
   59.3100   34.5510   45.7110 C   0  0  0  0  0  0  0  0  0  0  0  0
   59.3130   35.5150   44.8950 O   0  0  0  0  0  0  0  0  0  0  0  0
   60.3750   34.4460   46.7680 C   0  0  2  0  0  0  0  0  0  0  0  0
   60.8762   35.4199   46.8695 H   0  0  0  0  0  0  0  0  0  0  0  0
   61.3790   33.4540   46.3740 N   0  0  0  0  0  0  0  0  0  0  0  0
   62.8060   33.5660   46.4850 C   0  0  0  0  0  0  0  0  0  0  0  0
   63.3610   34.6010   46.0280 O   0  0  0  0  0  0  0  0  0  0  0  0
   63.6690   32.5040   47.1340 C   0  0  2  0  0  0  0  0  0  0  0  0
   64.4742   32.2021   46.4481 H   0  0  0  0  0  0  0  0  0  0  0  0
   62.8410   31.3350   47.4450 N   0  0  0  0  0  0  0  0  0  0  0  0
   61.9160   31.4430   46.9710 H   0  0  0  0  0  0  0  0  0  0  0  0
   62.6320   31.3450   48.4700 H   0  0  0  0  0  0  0  0  0  0  0  0
   64.2990   33.0730   48.4230 C   0  0  0  0  0  0  0  0  0  0  0  0
   64.3319   34.1700   48.3484 H   0  0  0  0  0  0  0  0  0  0  0  0
   65.3101   32.6515   48.5227 H   0  0  0  0  0  0  0  0  0  0  0  0
   63.5100   32.6910   49.6520 C   0  0  0  0  0  0  0  0  0  0  0  0
   63.8830   31.5760   50.4180 C   0  0  0  0  0  0  0  0  0  0  0  0
   64.7489   30.9685   50.1160 H   0  0  0  0  0  0  0  0  0  0  0  0
   63.1590   31.2350   51.5620 C   0  0  0  0  0  0  0  0  0  0  0  0
   63.4543   30.3588   52.1579 H   0  0  0  0  0  0  0  0  0  0  0  0
   62.0600   32.0050   51.9510 C   0  0  0  0  0  0  0  0  0  0  0  0
   61.4924   31.7289   52.8519 H   0  0  0  0  0  0  0  0  0  0  0  0
   61.6750   33.1240   51.2050 C   0  0  0  0  0  0  0  0  0  0  0  0
   60.5680   33.8690   51.6390 O   0  0  0  0  0  0  0  0  0  0  0  0
   59.2280   33.3890   51.6420 C   0  0  0  0  0  0  0  0  0  0  0  0
   58.8849   33.2661   52.6799 H   0  0  0  0  0  0  0  0  0  0  0  0
   58.5789   34.1105   51.1242 H   0  0  0  0  0  0  0  0  0  0  0  0
   59.1847   32.4194   51.1242 H   0  0  0  0  0  0  0  0  0  0  0  0
   62.4060   33.4650   50.0510 C   0  0  0  0  0  0  0  0  0  0  0  0
   62.1114   34.3430   49.4574 H   0  0  0  0  0  0  0  0  0  0  0  0
   59.7470   34.0940   48.1330 C   0  0  0  0  0  0  0  0  0  0  0  0
   60.4096   34.4671   48.9279 H   0  0  0  0  0  0  0  0  0  0  0  0
   58.7534   34.5649   48.1636 H   0  0  0  0  0  0  0  0  0  0  0  0
   59.5440   32.6180   48.3360 C   0  0  0  0  0  0  0  0  0  0  0  0
   60.5300   31.7410   48.5950 N   0  0  0  0  0  0  0  0  0  0  0  0
   59.8770   30.5690   48.7550 C   0  0  0  0  0  0  0  0  0  0  0  0
   60.5790   29.2630   48.9990 C   0  0  0  0  0  0  0  0  0  0  0  0
   61.5644   29.2934   48.5111 H   0  0  0  0  0  0  0  0  0  0  0  0
   59.7890   28.1010   48.3870 C   0  0  0  0  0  0  0  0  0  0  0  0
   59.3672   27.4805   49.1914 H   0  0  0  0  0  0  0  0  0  0  0  0
   58.9737   28.4992   47.7652 H   0  0  0  0  0  0  0  0  0  0  0  0
   60.4592   27.4893   47.7652 H   0  0  0  0  0  0  0  0  0  0  0  0
   60.7860   29.0530   50.5020 C   0  0  0  0  0  0  0  0  0  0  0  0
   60.1211   29.7275   51.0615 H   0  0  0  0  0  0  0  0  0  0  0  0
   60.5531   28.0098   50.7620 H   0  0  0  0  0  0  0  0  0  0  0  0
   61.8324   29.2708   50.7620 H   0  0  0  0  0  0  0  0  0  0  0  0
   58.5380   30.6670   48.6120 N   0  0  0  0  0  0  0  0  0  0  0  0
   58.3310   31.9710   48.3580 C   0  0  0  0  0  0  0  0  0  0  0  0
   57.3511   32.4432   48.1945 H   0  0  0  0  0  0  0  0  0  0  0  0
   57.9330   31.2830   44.7760 C   0  0  0  0  0  0  0  0  0  0  0  0
   58.9120   30.4640   45.3570 C   0  0  0  0  0  0  0  0  0  0  0  0
   59.8764   30.8972   45.6607 H   0  0  0  0  0  0  0  0  0  0  0  0
   58.6710   29.1010   45.5530 C   0  0  0  0  0  0  0  0  0  0  0  0
   59.4430   28.4715   46.0196 H   0  0  0  0  0  0  0  0  0  0  0  0
   57.4490   28.5290   45.1580 C   0  0  0  0  0  0  0  0  0  0  0  0
   57.1750   27.0610   45.3950 C   0  0  0  0  0  0  0  0  0  0  0  0
   57.8501   26.6898   46.1802 H   0  0  0  0  0  0  0  0  0  0  0  0
   55.7900   26.8700   45.8350 N   0  0  0  0  0  0  0  0  0  0  0  0
   55.7080   27.2200   46.8160 H   0  0  0  0  0  0  0  0  0  0  0  0
   55.1730   27.4870   45.2580 H   0  0  0  0  0  0  0  0  0  0  0  0
   57.4080   26.3180   44.1580 N   0  0  0  0  0  0  0  0  0  0  0  0
   57.2970   26.9770   43.3500 H   0  0  0  0  0  0  0  0  0  0  0  0
   56.6470   25.6050   44.0560 H   0  0  0  0  0  0  0  0  0  0  0  0
   56.4660   29.3510   44.5860 C   0  0  0  0  0  0  0  0  0  0  0  0
   55.5013   28.9179   44.2831 H   0  0  0  0  0  0  0  0  0  0  0  0
   56.7030   30.7160   44.3980 C   0  0  0  0  0  0  0  0  0  0  0  0
   55.9227   31.3501   43.9518 H   0  0  0  0  0  0  0  0  0  0  0  0
  1  2  1  0
  2  3  2  0
  3  4  1  0
  4  5  2  0
  4  6  1  0
  6  7  1  1
  6  8  1  0
  8  9  1  0
  9 10  2  0
  9 11  1  0
 11 12  1  6
 11 13  1  0
 13 14  1  0
 13 15  1  0
 11 16  1  0
 16 17  1  0
 16 18  1  0
 16 19  1  0
 19 20  2  0
 20 21  1  0
 20 22  1  0
 22 23  1  0
 22 24  2  0
 24 25  1  0
 24 26  1  0
 26 27  1  0
 27 28  1  0
 28 29  1  0
 28 30  1  0
 28 31  1  0
 26 32  2  0
 32 33  1  0
  6 34  1  0
 34 35  1  0
 34 36  1  0
 34 37  1  0
 37 38  1  0
 38 39  2  0
 39 40  1  0
 40 41  1  0
 40 42  1  0
 42 43  1  0
 42 44  1  0
 42 45  1  0
 40 46  1  0
 46 47  1  0
 46 48  1  0
 46 49  1  0
 39 50  1  0
 50 51  1  0
 51 52  1  0
  2 53  1  0
 53 54  2  0
 54 55  1  0
 54 56  1  0
 56 57  1  0
 56 58  2  0
 58 59  1  0
 59 60  1  0
 59 61  1  0
 61 62  1  0
 61 63  1  0
 59 64  1  0
 64 65  1  0
 64 66  1  0
 58 67  1  0
 67 68  1  0
 67 69  2  0
 69 70  1  0
 32 19  1  0
 51 37  2  0
 69 53  1  0
M  CHG  2   8  -1  50  -1
M  END
>  <UniqueID>  (65) 
55

>  <SMILES>  (65) 
COc1cccc(C[C@@H](N)C(=O)[N-][C@H](Cc2c[n-]c(C(C)C)n2)C(=O)/N=C/c2ccc(C(N)N)cc2)c1

>  <Energy>  (65) 
84.95679723089148

>  <Genealogy>  (65) 
COc1cccc(CC(N)C(=O)[N-]C(Cc2c[n-]c(C(C)C)n2)C(=O)N=Cc2ccc(C(N)N)cc2)c1 (protonated)
COc1cccc(C[C@@H](N)C(=O)[N-][C@H](Cc2c[n-]c(C(C)C)n2)C(=O)N=Cc2ccc(C(N)N)cc2)c1 (chirality)
COc1cccc(C[C@@H](N)C(=O)[N-][C@H](Cc2c[n-]c(C(C)C)n2)C(=O)/N=C/c2ccc(C(N)N)cc2)c1 (cis-trans isomerization)
COc1cccc(C[C@@H](N)C(=O)[N-][C@H](Cc2c[n-]c(C(C)C)n2)C(=O)/N=C/c2ccc(C(N)N)cc2)c1 (3D coordinates assigned)
COc1cccc(C[C@@H](N)C(=O)[N-][C@H](Cc2c[n-]c(C(C)C)n2)C(=O)/N=C/c2ccc(C(N)N)cc2)c1 (optimized conformer: 84.95679723089148 kcal/mol)

>  <smiles>  (65) 
COc1cccc(CC(N)C(=O)NC(Cc2c[nH]c(C(C)C)n2)C(=O)N=Cc2ccc(C(N)N)cc2)c1

>  <score_type>  (65) 
oracle

>  <origin>  (65) 
adg

>  <m_score__min__energy>  (65) 
-12.74

>  <m_primary>  (65) 
energy

$$$$
65:0
     RDKit          3D

 64 67  0  0  0  0  0  0  0  0999 V2000
   58.4130   32.4080   50.6240 C   0  0  0  0  0  0  0  0  0  0  0  0
   58.1480   32.0840   49.2640 O   0  0  0  0  0  0  0  0  0  0  0  0
   58.9580   31.2580   48.4680 C   0  0  0  0  0  0  0  0  0  0  0  0
   59.4700   30.0330   48.9420 C   0  0  0  0  0  0  0  0  0  0  0  0
   60.2900   29.2490   48.1260 C   0  0  0  0  0  0  0  0  0  0  0  0
   60.6080   29.6760   46.8350 C   0  0  0  0  0  0  0  0  0  0  0  0
   60.1080   30.8860   46.3560 C   0  0  0  0  0  0  0  0  0  0  0  0
   59.2780   31.6780   47.1640 C   0  0  0  0  0  0  0  0  0  0  0  0
   58.7880   32.9320   46.6660 N   0  0  0  0  0  0  0  0  0  0  0  0
   57.5360   32.9820   45.9070 C   0  0  0  0  0  0  0  0  0  0  0  0
   57.5150   31.8820   44.8940 C   0  0  0  0  0  0  0  0  0  0  0  0
   58.0540   32.0540   43.7670 O   0  0  0  0  0  0  0  0  0  0  0  0
   56.8980   30.6350   45.2270 N   0  0  0  0  0  0  0  0  0  0  0  0
   57.4720   29.3350   45.0290 C   0  0  0  0  0  0  0  0  0  0  0  0
   58.6480   29.1490   44.2790 C   0  0  0  0  0  0  0  0  0  0  0  0
   59.1430   27.8610   44.0550 C   0  0  0  0  0  0  0  0  0  0  0  0
   58.4670   26.7520   44.5670 C   0  0  0  0  0  0  0  0  0  0  0  0
   57.2890   26.9240   45.3050 C   0  0  0  0  0  0  0  0  0  0  0  0
   56.4130   25.5160   45.9010 S   0  0  0  0  0  0  0  0  0  0  0  0
   56.7670   25.2990   47.3460 O   0  0  0  0  0  0  0  0  0  0  0  0
   54.9310   25.7590   45.8040 O   0  0  0  0  0  0  0  0  0  0  0  0
   56.8570   24.1090   44.9680 N   0  0  0  0  0  0  0  0  0  0  0  0
   56.1300   24.1000   43.6830 C   0  0  0  0  0  0  0  0  0  0  0  0
   56.2560   22.7350   42.9740 C   0  0  0  0  0  0  0  0  0  0  0  0
   57.2700   21.9450   43.5640 O   0  0  0  0  0  0  0  0  0  0  0  0
   56.9130   21.6260   44.8960 C   0  0  0  0  0  0  0  0  0  0  0  0
   56.5810   22.8830   45.7340 C   0  0  0  0  0  0  0  0  0  0  0  0
   56.7890   28.2160   45.5220 C   0  0  0  0  0  0  0  0  0  0  0  0
   59.7070   34.3850   46.9100 S   0  0  0  0  0  0  0  0  0  0  0  0
   59.0510   35.2100   47.9810 O   0  0  0  0  0  0  0  0  0  0  0  0
   59.7540   35.1890   45.6420 O   0  0  0  0  0  0  0  0  0  0  0  0
   61.3490   33.9560   47.3710 C   0  0  0  0  0  0  0  0  0  0  0  0
   62.3270   33.7980   46.3780 C   0  0  0  0  0  0  0  0  0  0  0  0
   63.6340   33.4500   46.7290 C   0  0  0  0  0  0  0  0  0  0  0  0
   63.9700   33.2540   48.0720 C   0  0  0  0  0  0  0  0  0  0  0  0
   62.9970   33.4030   49.0650 C   0  0  0  0  0  0  0  0  0  0  0  0
   61.6880   33.7540   48.7180 C   0  0  0  0  0  0  0  0  0  0  0  0
   57.8537   31.7242   51.2795 H   0  0  0  0  0  0  0  0  0  0  0  0
   59.4903   32.3065   50.8219 H   0  0  0  0  0  0  0  0  0  0  0  0
   58.0998   33.4437   50.8219 H   0  0  0  0  0  0  0  0  0  0  0  0
   59.2230   29.6928   49.9585 H   0  0  0  0  0  0  0  0  0  0  0  0
   60.6857   28.2937   48.5013 H   0  0  0  0  0  0  0  0  0  0  0  0
   61.2539   29.0568   46.1952 H   0  0  0  0  0  0  0  0  0  0  0  0
   60.3652   31.2213   45.3404 H   0  0  0  0  0  0  0  0  0  0  0  0
   56.6864   32.8613   46.5952 H   0  0  0  0  0  0  0  0  0  0  0  0
   57.4608   33.9515   45.3928 H   0  0  0  0  0  0  0  0  0  0  0  0
   59.1795   30.0198   43.8677 H   0  0  0  0  0  0  0  0  0  0  0  0
   60.0667   27.7211   43.4743 H   0  0  0  0  0  0  0  0  0  0  0  0
   58.8606   25.7402   44.3903 H   0  0  0  0  0  0  0  0  0  0  0  0
   57.8860   24.1710   44.7810 H   0  0  0  0  0  0  0  0  0  0  0  0
   55.0666   24.3082   43.8720 H   0  0  0  0  0  0  0  0  0  0  0  0
   56.5689   24.8701   43.0316 H   0  0  0  0  0  0  0  0  0  0  0  0
   55.2967   22.2019   43.0484 H   0  0  0  0  0  0  0  0  0  0  0  0
   56.5201   22.9120   41.9210 H   0  0  0  0  0  0  0  0  0  0  0  0
   56.0301   20.9701   44.8778 H   0  0  0  0  0  0  0  0  0  0  0  0
   57.7749   21.1283   45.3645 H   0  0  0  0  0  0  0  0  0  0  0  0
   55.5163   22.8619   46.0097 H   0  0  0  0  0  0  0  0  0  0  0  0
   57.2100   22.8817   46.6364 H   0  0  0  0  0  0  0  0  0  0  0  0
   55.8531   28.3517   46.0838 H   0  0  0  0  0  0  0  0  0  0  0  0
   62.0645   33.9484   45.3204 H   0  0  0  0  0  0  0  0  0  0  0  0
   64.3993   33.3301   45.9480 H   0  0  0  0  0  0  0  0  0  0  0  0
   64.9998   32.9826   48.3474 H   0  0  0  0  0  0  0  0  0  0  0  0
   63.2612   33.2440   50.1209 H   0  0  0  0  0  0  0  0  0  0  0  0
   60.9243   33.8717   49.5009 H   0  0  0  0  0  0  0  0  0  0  0  0
  1  2  1  0
  2  3  1  0
  3  4  2  0
  4  5  1  0
  5  6  2  0
  6  7  1  0
  7  8  2  0
  8  9  1  0
  9 10  1  0
 10 11  1  0
 11 12  2  0
 11 13  1  0
 13 14  1  0
 14 15  2  0
 15 16  1  0
 16 17  2  0
 17 18  1  0
 18 19  1  0
 19 20  2  0
 19 21  2  0
 19 22  1  0
 22 23  1  0
 23 24  1  0
 24 25  1  0
 25 26  1  0
 26 27  1  0
 18 28  2  0
  9 29  1  0
 29 30  2  0
 29 31  2  0
 29 32  1  0
 32 33  2  0
 33 34  1  0
 34 35  2  0
 35 36  1  0
 36 37  2  0
  8  3  1  0
 28 14  1  0
 37 32  1  0
 27 22  1  0
  1 38  1  0
  1 39  1  0
  1 40  1  0
  4 41  1  0
  5 42  1  0
  6 43  1  0
  7 44  1  0
 10 45  1  0
 10 46  1  0
 15 47  1  0
 16 48  1  0
 17 49  1  0
 22 50  1  0
 23 51  1  0
 23 52  1  0
 24 53  1  0
 24 54  1  0
 26 55  1  0
 26 56  1  0
 27 57  1  0
 27 58  1  0
 28 59  1  0
 33 60  1  0
 34 61  1  0
 35 62  1  0
 36 63  1  0
 37 64  1  0
M  CHG  2  13  -1  22   1
M  END
>  <UniqueID>  (66) 
56

>  <SMILES>  (66) 
COc1ccccc1N(CC(=O)[N-]c1cccc(S(=O)(=O)[NH+]2CCOCC2)c1)S(=O)(=O)c1ccccc1

>  <Energy>  (66) 
78.20245294218617

>  <Genealogy>  (66) 
COc1ccccc1N(CC(=O)[N-]c1cccc(S(=O)(=O)[NH+]2CCOCC2)c1)S(=O)(=O)c1ccccc1 (protonated)
COc1ccccc1N(CC(=O)[N-]c1cccc(S(=O)(=O)[NH+]2CCOCC2)c1)S(=O)(=O)c1ccccc1 (3D coordinates assigned)
COc1ccccc1N(CC(=O)[N-]c1cccc(S(=O)(=O)[NH+]2CCOCC2)c1)S(=O)(=O)c1ccccc1 (nonaromatic ring conformer: 78.20245294218617 kcal/mol)

>  <smiles>  (66) 
COc1ccccc1N(CC(=O)Nc1cccc(S(=O)(=O)N2CCOCC2)c1)S(=O)(=O)c1ccccc1

>  <score_type>  (66) 
oracle

>  <origin>  (66) 
adg

>  <m_score__min__energy>  (66) 
-9.8800000000000008

>  <m_primary>  (66) 
energy

$$$$
66:0
     RDKit          3D

 57 61  0  0  0  0  0  0  0  0999 V2000
   61.8370   33.5320   51.0930 C   0  0  0  0  0  0  0  0  0  0  0  0
   60.4610   33.5110   51.5920 N   0  0  0  0  0  0  0  0  0  0  0  0
   60.0760   33.8530   52.8320 C   0  0  0  0  0  0  0  0  0  0  0  0
   58.7040   33.7610   52.8950 C   0  0  0  0  0  0  0  0  0  0  0  0
   58.2210   33.3630   51.7000 N   0  0  0  0  0  0  0  0  0  0  0  0
   59.3200   33.2030   50.9300 C   0  0  0  0  0  0  0  0  0  0  0  0
   59.2370   32.7830   49.5140 C   0  0  0  0  0  0  0  0  0  0  0  0
   59.1930   31.4010   49.1990 C   0  0  0  0  0  0  0  0  0  0  0  0
   59.0850   30.9710   47.8660 C   0  0  0  0  0  0  0  0  0  0  0  0
   59.0360   31.9430   46.8690 C   0  0  0  0  0  0  0  0  0  0  0  0
   58.8660   31.8390   45.5020 C   0  0  0  0  0  0  0  0  0  0  0  0
   58.6070   30.5910   44.7090 C   0  0  0  0  0  0  0  0  0  0  0  0
   57.2440   30.0650   45.0270 C   0  0  0  0  0  0  0  0  0  0  0  0
   56.2300   30.5720   44.4740 O   0  0  0  0  0  0  0  0  0  0  0  0
   57.0990   28.9820   45.9540 N   0  0  0  0  0  0  0  0  0  0  0  0
   57.0100   27.6010   45.5850 C   0  0  0  0  0  0  0  0  0  0  0  0
   58.0380   26.9680   44.8660 C   0  0  0  0  0  0  0  0  0  0  0  0
   57.9520   25.6080   44.5640 C   0  0  0  0  0  0  0  0  0  0  0  0
   56.8370   24.8610   44.9700 C   0  0  0  0  0  0  0  0  0  0  0  0
   56.7840   23.4210   44.6490 C   0  0  0  0  0  0  0  0  0  0  0  0
   56.7430   23.0360   43.2990 C   0  0  0  0  0  0  0  0  0  0  0  0
   56.6640   21.6870   42.9500 C   0  0  0  0  0  0  0  0  0  0  0  0
   56.6240   20.7100   43.9440 C   0  0  0  0  0  0  0  0  0  0  0  0
   56.6680   21.0770   45.2920 C   0  0  0  0  0  0  0  0  0  0  0  0
   56.7550   22.4300   45.6600 C   0  0  0  0  0  0  0  0  0  0  0  0
   56.8320   22.8510   47.3800 S   0  0  0  0  0  0  0  0  0  0  0  0
   55.2470   23.2350   47.9510 N   0  0  0  0  0  0  0  0  0  0  0  0
   57.3710   21.6920   48.1720 O   0  0  0  0  0  0  0  0  0  0  0  0
   57.7430   24.0290   47.5780 O   0  0  0  0  0  0  0  0  0  0  0  0
   55.8090   25.4890   45.7090 C   0  0  0  0  0  0  0  0  0  0  0  0
   54.6790   24.7910   46.1380 O   0  0  0  0  0  0  0  0  0  0  0  0
   55.9110   26.8510   46.0170 C   0  0  0  0  0  0  0  0  0  0  0  0
   58.8390   33.1470   45.0270 C   0  0  0  0  0  0  0  0  0  0  0  0
   58.9950   34.0230   46.0450 N   0  0  0  0  0  0  0  0  0  0  0  0
   59.1060   33.2800   47.1600 C   0  0  0  0  0  0  0  0  0  0  0  0
   59.2170   33.7390   48.4720 C   0  0  0  0  0  0  0  0  0  0  0  0
   62.5352   33.5427   51.9430 H   0  0  0  0  0  0  0  0  0  0  0  0
   62.0186   32.6365   50.4805 H   0  0  0  0  0  0  0  0  0  0  0  0
   61.9912   34.4326   50.4805 H   0  0  0  0  0  0  0  0  0  0  0  0
   60.7413   34.1543   53.6545 H   0  0  0  0  0  0  0  0  0  0  0  0
   58.0943   33.9788   53.7843 H   0  0  0  0  0  0  0  0  0  0  0  0
   59.2440   30.6572   50.0078 H   0  0  0  0  0  0  0  0  0  0  0  0
   59.0405   29.9004   47.6172 H   0  0  0  0  0  0  0  0  0  0  0  0
   58.6687   30.8209   43.6351 H   0  0  0  0  0  0  0  0  0  0  0  0
   59.3598   29.8320   44.9684 H   0  0  0  0  0  0  0  0  0  0  0  0
   58.9146   27.5469   44.5396 H   0  0  0  0  0  0  0  0  0  0  0  0
   58.7634   25.1196   44.0044 H   0  0  0  0  0  0  0  0  0  0  0  0
   56.7734   23.8031   42.5112 H   0  0  0  0  0  0  0  0  0  0  0  0
   56.6333   21.3943   41.8901 H   0  0  0  0  0  0  0  0  0  0  0  0
   56.5576   19.6476   43.6666 H   0  0  0  0  0  0  0  0  0  0  0  0
   56.6343   20.3006   46.0705 H   0  0  0  0  0  0  0  0  0  0  0  0
   54.5890   23.0670   47.1610 H   0  0  0  0  0  0  0  0  0  0  0  0
   54.5660   24.4660   47.0910 H   0  0  0  0  0  0  0  0  0  0  0  0
   55.1183   27.3366   46.6051 H   0  0  0  0  0  0  0  0  0  0  0  0
   58.7090   33.4285   43.9716 H   0  0  0  0  0  0  0  0  0  0  0  0
   58.9990   35.0670   45.9770 H   0  0  0  0  0  0  0  0  0  0  0  0
   59.2871   34.8148   48.6905 H   0  0  0  0  0  0  0  0  0  0  0  0
  1  2  1  0
  2  3  1  0
  3  4  2  0
  4  5  1  0
  5  6  2  0
  6  7  1  0
  7  8  2  0
  8  9  1  0
  9 10  2  0
 10 11  1  0
 11 12  1  0
 12 13  1  0
 13 14  2  0
 13 15  1  0
 15 16  1  0
 16 17  2  0
 17 18  1  0
 18 19  2  0
 19 20  1  0
 20 21  2  0
 21 22  1  0
 22 23  2  0
 23 24  1  0
 24 25  2  0
 25 26  1  0
 26 27  1  0
 26 28  2  0
 26 29  2  0
 19 30  1  0
 30 31  1  0
 30 32  2  0
 11 33  2  0
 33 34  1  0
 34 35  1  0
 35 36  2  0
  6  2  1  0
 36  7  1  0
 35 10  1  0
 32 16  1  0
 25 20  1  0
  1 37  1  0
  1 38  1  0
  1 39  1  0
  3 40  1  0
  4 41  1  0
  8 42  1  0
  9 43  1  0
 12 44  1  0
 12 45  1  0
 17 46  1  0
 18 47  1  0
 21 48  1  0
 22 49  1  0
 23 50  1  0
 24 51  1  0
 27 52  1  0
 31 53  1  0
 32 54  1  0
 33 55  1  0
 34 56  1  0
 36 57  1  0
M  CHG  2  15  -1  27  -1
M  END
>  <UniqueID>  (67) 
57

>  <SMILES>  (67) 
Cn1ccnc1-c1ccc2c(CC(=O)[N-]c3ccc(-c4ccccc4S([NH-])(=O)=O)c(O)c3)c[nH]c2c1

>  <Energy>  (67) 
139.84576104918966

>  <Genealogy>  (67) 
Cn1ccnc1-c1ccc2c(CC(=O)[N-]c3ccc(-c4ccccc4S([NH-])(=O)=O)c(O)c3)c[nH]c2c1 (protonated)
Cn1ccnc1-c1ccc2c(CC(=O)[N-]c3ccc(-c4ccccc4S([NH-])(=O)=O)c(O)c3)c[nH]c2c1 (3D coordinates assigned)
Cn1ccnc1-c1ccc2c(CC(=O)[N-]c3ccc(-c4ccccc4S([NH-])(=O)=O)c(O)c3)c[nH]c2c1 (optimized conformer: 139.84576104918966 kcal/mol)

>  <smiles>  (67) 
Cn1ccnc1-c1ccc2c(CC(=O)Nc3ccc(-c4ccccc4S(N)(=O)=O)c(O)c3)c[nH]c2c1

>  <score_type>  (67) 
oracle

>  <origin>  (67) 
adg

>  <m_score__min__energy>  (67) 
-13.029999999999999

>  <m_primary>  (67) 
energy

$$$$
67:0
     RDKit          3D

 38 40  0  0  0  0  0  0  0  0999 V2000
   54.7900   26.3200   45.9940 N   0  0  0  0  0  0  0  0  0  0  0  0
   56.4790   25.9480   45.9640 S   0  0  0  0  0  0  0  0  0  0  0  0
   56.7740   25.0560   44.7900 O   0  0  0  0  0  0  0  0  0  0  0  0
   56.8480   25.2210   47.2260 O   0  0  0  0  0  0  0  0  0  0  0  0
   57.4110   27.4380   45.8400 C   0  0  0  0  0  0  0  0  0  0  0  0
   58.7580   27.4570   46.2260 C   0  0  0  0  0  0  0  0  0  0  0  0
   59.4910   28.6420   46.1460 C   0  0  0  0  0  0  0  0  0  0  0  0
   58.8870   29.8110   45.6710 C   0  0  0  0  0  0  0  0  0  0  0  0
   57.5440   29.8080   45.2820 C   0  0  0  0  0  0  0  0  0  0  0  0
   56.9460   31.0350   44.8510 N   0  0  0  0  0  0  0  0  0  0  0  0
   57.3120   31.7840   43.6870 C   0  0  0  0  0  0  0  0  0  0  0  0
   57.0230   31.3650   42.5360 O   0  0  0  0  0  0  0  0  0  0  0  0
   58.0970   33.0480   43.8500 C   0  0  0  0  0  0  0  0  0  0  0  0
   57.2720   34.1710   45.0240 S   0  0  0  0  0  0  0  0  0  0  0  0
   58.3280   33.7290   46.3930 C   0  0  0  0  0  0  0  0  0  0  0  0
   57.8920   33.1570   47.5280 N   0  0  0  0  0  0  0  0  0  0  0  0
   58.9650   32.9640   48.2780 N   0  0  0  0  0  0  0  0  0  0  0  0
   60.0130   33.4320   47.5690 C   0  0  0  0  0  0  0  0  0  0  0  0
   61.4080   33.4190   48.0400 C   0  0  0  0  0  0  0  0  0  0  0  0
   61.7290   33.8320   49.3470 C   0  0  0  0  0  0  0  0  0  0  0  0
   63.0580   33.8200   49.7850 C   0  0  0  0  0  0  0  0  0  0  0  0
   64.0770   33.4130   48.9200 C   0  0  0  0  0  0  0  0  0  0  0  0
   63.7670   33.0080   47.6180 C   0  0  0  0  0  0  0  0  0  0  0  0
   62.4380   33.0030   47.1790 C   0  0  0  0  0  0  0  0  0  0  0  0
   59.6250   33.9070   46.4110 O   0  0  0  0  0  0  0  0  0  0  0  0
   56.7980   28.6190   45.3920 C   0  0  0  0  0  0  0  0  0  0  0  0
   54.6630   27.0940   46.6840 H   0  0  0  0  0  0  0  0  0  0  0  0
   59.2379   26.5375   46.5923 H   0  0  0  0  0  0  0  0  0  0  0  0
   60.5460   28.6568   46.4571 H   0  0  0  0  0  0  0  0  0  0  0  0
   59.4730   30.7394   45.6030 H   0  0  0  0  0  0  0  0  0  0  0  0
   59.1005   32.8037   44.2284 H   0  0  0  0  0  0  0  0  0  0  0  0
   58.1691   33.5482   42.8730 H   0  0  0  0  0  0  0  0  0  0  0  0
   60.9314   34.1657   50.0271 H   0  0  0  0  0  0  0  0  0  0  0  0
   63.3008   34.1314   50.8117 H   0  0  0  0  0  0  0  0  0  0  0  0
   65.1222   33.4112   49.2629 H   0  0  0  0  0  0  0  0  0  0  0  0
   64.5705   32.6922   46.9363 H   0  0  0  0  0  0  0  0  0  0  0  0
   62.1990   32.6726   46.1574 H   0  0  0  0  0  0  0  0  0  0  0  0
   55.7307   28.6153   45.1259 H   0  0  0  0  0  0  0  0  0  0  0  0
  1  2  1  0
  2  3  2  0
  2  4  2  0
  2  5  1  0
  5  6  2  0
  6  7  1  0
  7  8  2  0
  8  9  1  0
  9 10  1  0
 10 11  1  0
 11 12  2  0
 11 13  1  0
 13 14  1  0
 14 15  1  0
 15 16  2  0
 16 17  1  0
 17 18  2  0
 18 19  1  0
 19 20  2  0
 20 21  1  0
 21 22  2  0
 22 23  1  0
 23 24  2  0
 18 25  1  0
  9 26  2  0
 26  5  1  0
 25 15  1  0
 24 19  1  0
  1 27  1  0
  6 28  1  0
  7 29  1  0
  8 30  1  0
 13 31  1  0
 13 32  1  0
 20 33  1  0
 21 34  1  0
 22 35  1  0
 23 36  1  0
 24 37  1  0
 26 38  1  0
M  CHG  2   1  -1  10  -1
M  END
>  <UniqueID>  (68) 
58

>  <SMILES>  (68) 
[NH-]S(=O)(=O)c1cccc([N-]C(=O)CSc2nnc(-c3ccccc3)o2)c1

>  <Energy>  (68) 
71.49909086390015

>  <Genealogy>  (68) 
[NH-]S(=O)(=O)c1cccc([N-]C(=O)CSc2nnc(-c3ccccc3)o2)c1 (protonated)
[NH-]S(=O)(=O)c1cccc([N-]C(=O)CSc2nnc(-c3ccccc3)o2)c1 (3D coordinates assigned)
[NH-]S(=O)(=O)c1cccc([N-]C(=O)CSc2nnc(-c3ccccc3)o2)c1 (optimized conformer: 71.49909086390015 kcal/mol)

>  <smiles>  (68) 
NS(=O)(=O)c1cccc(NC(=O)CSc2nnc(-c3ccccc3)o2)c1

>  <score_type>  (68) 
oracle

>  <origin>  (68) 
adg

>  <m_score__min__energy>  (68) 
-13.57

>  <m_primary>  (68) 
energy

$$$$
68:0
     RDKit          3D

 50 53  0  0  0  0  0  0  0  0999 V2000
   62.6660   33.1340   48.9850 C   0  0  0  0  0  0  0  0  0  0  0  0
   62.4390   32.4790   47.3460 S   0  0  0  0  0  0  0  0  0  0  0  0
   62.7180   33.5680   46.3490 O   0  0  0  0  0  0  0  0  0  0  0  0
   63.3920   31.3430   47.0990 O   0  0  0  0  0  0  0  0  0  0  0  0
   60.8040   31.9390   47.1390 N   0  0  0  0  0  0  0  0  0  0  0  0
   59.7900   32.6040   46.3740 C   0  0  0  0  0  0  0  0  0  0  0  0
   59.7420   34.0050   46.2490 C   0  0  0  0  0  0  0  0  0  0  0  0
   58.7350   34.6080   45.4910 C   0  0  0  0  0  0  0  0  0  0  0  0
   57.7680   33.8260   44.8570 C   0  0  0  0  0  0  0  0  0  0  0  0
   57.7950   32.4290   44.9830 C   0  0  0  0  0  0  0  0  0  0  0  0
   56.7530   31.5770   44.3060 C   0  0  0  0  0  0  0  0  0  0  0  0
   57.3600   30.3750   43.7320 N   0  0  0  0  0  0  0  0  0  0  0  0
   57.5650   29.1440   44.4570 C   0  0  0  0  0  0  0  0  0  0  0  0
   58.8530   28.6050   44.6380 C   0  0  0  0  0  0  0  0  0  0  0  0
   59.0310   27.4050   45.3330 C   0  0  0  0  0  0  0  0  0  0  0  0
   57.9290   26.7120   45.8410 C   0  0  0  0  0  0  0  0  0  0  0  0
   58.1440   25.5090   46.5940 N   0  0  0  0  0  0  0  0  0  0  0  0
   58.1310   24.2760   46.1560 C   0  0  0  0  0  0  0  0  0  0  0  0
   59.2870   23.6600   45.6300 C   0  0  0  0  0  0  0  0  0  0  0  0
   59.2310   22.3390   45.1830 C   0  0  0  0  0  0  0  0  0  0  0  0
   58.0730   21.6370   45.2640 N   0  0  0  0  0  0  0  0  0  0  0  0
   56.9400   22.1800   45.7800 C   0  0  0  0  0  0  0  0  0  0  0  0
   55.7740   21.4090   45.8490 C   0  0  0  0  0  0  0  0  0  0  0  0
   54.6020   21.9540   46.3820 C   0  0  0  0  0  0  0  0  0  0  0  0
   53.1440   20.9830   46.4670 Cl  0  0  0  0  0  0  0  0  0  0  0  0
   54.5920   23.2720   46.8480 C   0  0  0  0  0  0  0  0  0  0  0  0
   55.7500   24.0520   46.7820 C   0  0  0  0  0  0  0  0  0  0  0  0
   56.9410   23.5180   46.2480 C   0  0  0  0  0  0  0  0  0  0  0  0
   56.6460   27.2670   45.7070 C   0  0  0  0  0  0  0  0  0  0  0  0
   56.4620   28.4670   45.0120 C   0  0  0  0  0  0  0  0  0  0  0  0
   55.1770   28.9790   44.8770 O   0  0  0  0  0  0  0  0  0  0  0  0
   58.8160   31.8260   45.7360 C   0  0  0  0  0  0  0  0  0  0  0  0
   62.4000   32.3664   49.7267 H   0  0  0  0  0  0  0  0  0  0  0  0
   63.7178   33.4261   49.1207 H   0  0  0  0  0  0  0  0  0  0  0  0
   62.0205   34.0143   49.1207 H   0  0  0  0  0  0  0  0  0  0  0  0
   60.4991   34.6268   46.7492 H   0  0  0  0  0  0  0  0  0  0  0  0
   58.7041   35.7032   45.3935 H   0  0  0  0  0  0  0  0  0  0  0  0
   56.9819   34.3069   44.2564 H   0  0  0  0  0  0  0  0  0  0  0  0
   55.9936   31.2805   45.0445 H   0  0  0  0  0  0  0  0  0  0  0  0
   56.2908   32.1607   43.4963 H   0  0  0  0  0  0  0  0  0  0  0  0
   57.7160   30.4500   42.7530 H   0  0  0  0  0  0  0  0  0  0  0  0
   59.7271   29.1328   44.2289 H   0  0  0  0  0  0  0  0  0  0  0  0
   60.0446   27.0040   45.4808 H   0  0  0  0  0  0  0  0  0  0  0  0
   60.2315   24.2208   45.5724 H   0  0  0  0  0  0  0  0  0  0  0  0
   60.1303   21.8648   44.7630 H   0  0  0  0  0  0  0  0  0  0  0  0
   55.7797   20.3717   45.4830 H   0  0  0  0  0  0  0  0  0  0  0  0
   53.6687   23.6971   47.2685 H   0  0  0  0  0  0  0  0  0  0  0  0
   55.7322   25.0889   47.1489 H   0  0  0  0  0  0  0  0  0  0  0  0
   55.7800   26.7547   46.1515 H   0  0  0  0  0  0  0  0  0  0  0  0
   58.8509   30.7302   45.8255 H   0  0  0  0  0  0  0  0  0  0  0  0
  1  2  1  0
  2  3  2  0
  2  4  2  0
  2  5  1  0
  5  6  1  0
  6  7  2  0
  7  8  1  0
  8  9  2  0
  9 10  1  0
 10 11  1  0
 11 12  1  0
 12 13  1  0
 13 14  2  0
 14 15  1  0
 15 16  2  0
 16 17  1  0
 17 18  2  3
 18 19  1  0
 19 20  2  0
 20 21  1  0
 21 22  1  0
 22 23  2  0
 23 24  1  0
 24 25  1  0
 24 26  2  0
 26 27  1  0
 27 28  2  0
 16 29  1  0
 29 30  2  0
 30 31  1  0
 10 32  2  0
 32  6  1  0
 30 13  1  0
 28 18  1  0
 28 22  1  0
  1 33  1  0
  1 34  1  0
  1 35  1  0
  7 36  1  0
  8 37  1  0
  9 38  1  0
 11 39  1  0
 11 40  1  0
 12 41  1  0
 14 42  1  0
 15 43  1  0
 19 44  1  0
 20 45  1  0
 23 46  1  0
 26 47  1  0
 27 48  1  0
 29 49  1  0
 32 50  1  0
M  CHG  3   5  -1  21  -1  31  -1
M  END
>  <UniqueID>  (69) 
59

>  <SMILES>  (69) 
CS(=O)(=O)[N-]c1cccc(CNc2ccc(N=c3cc[n-]c4cc(Cl)ccc34)cc2[O-])c1

>  <Energy>  (69) 
68.15583815665761

>  <Genealogy>  (69) 
CS(=O)(=O)[N-]c1cccc(CNc2ccc(N=c3cc[n-]c4cc(Cl)ccc34)cc2[O-])c1 (protonated)
CS(=O)(=O)[N-]c1cccc(CNc2ccc(N=c3cc[n-]c4cc(Cl)ccc34)cc2[O-])c1 (3D coordinates assigned)
CS(=O)(=O)[N-]c1cccc(CNc2ccc(N=c3cc[n-]c4cc(Cl)ccc34)cc2[O-])c1 (optimized conformer: 68.15583815665761 kcal/mol)

>  <smiles>  (69) 
CS(=O)(=O)Nc1cccc(CNc2ccc(N=c3cc[nH]c4cc(Cl)ccc34)cc2O)c1

>  <score_type>  (69) 
oracle

>  <origin>  (69) 
adg

>  <m_score__min__energy>  (69) 
-13.81

>  <m_primary>  (69) 
energy

$$$$
69:0
     RDKit          3D

 42 43  0  0  0  0  0  0  0  0999 V2000
   55.3550   29.7320   43.7550 C   0  0  0  0  0  0  0  0  0  0  0  0
   55.7340   29.4330   45.1270 N   0  0  0  0  0  0  0  0  0  0  0  0
   57.0990   29.3160   45.5440 C   0  0  0  0  0  0  0  0  0  0  0  0
   57.4190   28.4660   46.4190 O   0  0  0  0  0  0  0  0  0  0  0  0
   58.1270   30.1890   44.9470 C   0  0  0  0  0  0  0  0  0  0  0  0
   59.0110   29.6630   44.1530 N   0  0  0  0  0  0  0  0  0  0  0  0
   59.7230   28.5330   44.4930 O   0  0  0  0  0  0  0  0  0  0  0  0
   61.0830   28.6330   44.8780 C   0  0  0  0  0  0  0  0  0  0  0  0
   58.1390   31.6430   45.2450 C   0  0  0  0  0  0  0  0  0  0  0  0
   57.0160   32.4270   44.9330 C   0  0  0  0  0  0  0  0  0  0  0  0
   57.0160   33.7970   45.1990 C   0  0  0  0  0  0  0  0  0  0  0  0
   58.1400   34.4000   45.7670 C   0  0  0  0  0  0  0  0  0  0  0  0
   59.2630   33.6340   46.0850 C   0  0  0  0  0  0  0  0  0  0  0  0
   60.3660   34.2560   46.5720 F   0  0  0  0  0  0  0  0  0  0  0  0
   59.2630   32.2440   45.8470 C   0  0  0  0  0  0  0  0  0  0  0  0
   60.3710   31.4440   46.1670 O   0  0  0  0  0  0  0  0  0  0  0  0
   60.8810   31.2520   47.4580 C   0  0  0  0  0  0  0  0  0  0  0  0
   62.1160   31.3740   47.6800 O   0  0  0  0  0  0  0  0  0  0  0  0
   59.9510   30.9620   48.5720 C   0  0  0  0  0  0  0  0  0  0  0  0
   59.2610   32.0010   49.2210 C   0  0  0  0  0  0  0  0  0  0  0  0
   58.3810   31.7200   50.2710 C   0  0  0  0  0  0  0  0  0  0  0  0
   58.1750   30.3940   50.6900 C   0  0  0  0  0  0  0  0  0  0  0  0
   57.3020   30.0600   51.7380 O   0  0  0  0  0  0  0  0  0  0  0  0
   56.2810   30.9180   52.2360 C   0  0  0  0  0  0  0  0  0  0  0  0
   58.8620   29.3590   50.0440 C   0  0  0  0  0  0  0  0  0  0  0  0
   59.7420   29.6380   48.9940 C   0  0  0  0  0  0  0  0  0  0  0  0
   54.4914   30.4133   43.7533 H   0  0  0  0  0  0  0  0  0  0  0  0
   56.1998   30.2095   43.2370 H   0  0  0  0  0  0  0  0  0  0  0  0
   55.0872   28.7993   43.2370 H   0  0  0  0  0  0  0  0  0  0  0  0
   61.1539   28.6382   45.9757 H   0  0  0  0  0  0  0  0  0  0  0  0
   61.6413   27.7735   44.4786 H   0  0  0  0  0  0  0  0  0  0  0  0
   61.5096   29.5649   44.4786 H   0  0  0  0  0  0  0  0  0  0  0  0
   56.1316   31.9585   44.4765 H   0  0  0  0  0  0  0  0  0  0  0  0
   56.1292   34.4027   44.9608 H   0  0  0  0  0  0  0  0  0  0  0  0
   58.1407   35.4821   45.9646 H   0  0  0  0  0  0  0  0  0  0  0  0
   59.4144   33.0421   48.9007 H   0  0  0  0  0  0  0  0  0  0  0  0
   57.8471   32.5411   50.7718 H   0  0  0  0  0  0  0  0  0  0  0  0
   56.2958   30.9056   53.3358 H   0  0  0  0  0  0  0  0  0  0  0  0
   56.4570   31.9433   51.8785 H   0  0  0  0  0  0  0  0  0  0  0  0
   55.3013   30.5681   51.8785 H   0  0  0  0  0  0  0  0  0  0  0  0
   58.7082   28.3182   50.3651 H   0  0  0  0  0  0  0  0  0  0  0  0
   60.2746   28.8152   48.4946 H   0  0  0  0  0  0  0  0  0  0  0  0
  1  2  1  0
  2  3  1  0
  3  4  2  0
  3  5  1  0
  5  6  2  3
  6  7  1  0
  7  8  1  0
  5  9  1  0
  9 10  2  0
 10 11  1  0
 11 12  2  0
 12 13  1  0
 13 14  1  0
 13 15  2  0
 15 16  1  0
 16 17  1  0
 17 18  2  0
 17 19  1  0
 19 20  2  0
 20 21  1  0
 21 22  2  0
 22 23  1  0
 23 24  1  0
 22 25  1  0
 25 26  2  0
 15  9  1  0
 26 19  1  0
  1 27  1  0
  1 28  1  0
  1 29  1  0
  8 30  1  0
  8 31  1  0
  8 32  1  0
 10 33  1  0
 11 34  1  0
 12 35  1  0
 20 36  1  0
 21 37  1  0
 24 38  1  0
 24 39  1  0
 24 40  1  0
 25 41  1  0
 26 42  1  0
M  CHG  1   2  -1
M  END
>  <UniqueID>  (70) 
60

>  <SMILES>  (70) 
C[N-]C(=O)C(=NOC)c1cccc(F)c1OC(=O)c1ccc(OC)cc1

>  <Energy>  (70) 
46.85133431233351

>  <Genealogy>  (70) 
C[N-]C(=O)C(=NOC)c1cccc(F)c1OC(=O)c1ccc(OC)cc1 (protonated)
C[N-]C(=O)C(=NOC)c1cccc(F)c1OC(=O)c1ccc(OC)cc1 (3D coordinates assigned)
C[N-]C(=O)C(=NOC)c1cccc(F)c1OC(=O)c1ccc(OC)cc1 (optimized conformer: 46.85133431233351 kcal/mol)

>  <smiles>  (70) 
CNC(=O)C(=NOC)c1cccc(F)c1OC(=O)c1ccc(OC)cc1

>  <score_type>  (70) 
oracle

>  <origin>  (70) 
adg

>  <m_score__min__energy>  (70) 
-9.0999999999999996

>  <m_primary>  (70) 
energy

$$$$
70:0
     RDKit          3D

 51 54  0  0  0  0  0  0  0  0999 V2000
   54.7830   29.3350   44.4430 N   0  0  0  0  0  0  0  0  0  0  0  0
   56.3070   30.1070   44.1910 S   0  0  0  0  0  0  0  0  0  0  0  0
   56.5400   30.2920   42.7180 O   0  0  0  0  0  0  0  0  0  0  0  0
   56.2990   31.4570   44.8510 O   0  0  0  0  0  0  0  0  0  0  0  0
   57.5910   29.1140   44.8740 C   0  0  0  0  0  0  0  0  0  0  0  0
   58.6060   28.6180   44.0480 C   0  0  0  0  0  0  0  0  0  0  0  0
   59.6140   27.8100   44.5800 C   0  0  0  0  0  0  0  0  0  0  0  0
   59.6240   27.4980   45.9450 C   0  0  0  0  0  0  0  0  0  0  0  0
   60.8500   26.3810   46.5350 Cl  0  0  0  0  0  0  0  0  0  0  0  0
   58.6180   28.0170   46.7880 C   0  0  0  0  0  0  0  0  0  0  0  0
   58.5790   27.7220   48.1900 N   0  0  0  0  0  0  0  0  0  0  0  0
   59.2590   28.4840   49.1940 C   0  0  0  0  0  0  0  0  0  0  0  0
   60.4580   28.2260   49.4850 O   0  0  0  0  0  0  0  0  0  0  0  0
   58.5270   29.5720   49.9160 C   0  0  0  0  0  0  0  0  0  0  0  0
   59.0550   30.8850   49.5510 N   0  0  0  0  0  0  0  0  0  0  0  0
   58.7710   32.1230   50.1740 C   0  0  0  0  0  0  0  0  0  0  0  0
   58.1620   32.2290   51.2720 O   0  0  0  0  0  0  0  0  0  0  0  0
   59.2290   33.2380   49.4240 N   0  0  0  0  0  0  0  0  0  0  0  0
   59.8480   32.7490   48.1870 C   0  0  0  0  0  0  0  0  0  0  0  0
   61.3460   33.0590   48.1380 C   0  0  0  0  0  0  0  0  0  0  0  0
   62.1600   32.4070   47.1890 C   0  0  0  0  0  0  0  0  0  0  0  0
   63.5350   32.6480   47.1400 C   0  0  0  0  0  0  0  0  0  0  0  0
   64.1210   33.5370   48.0420 C   0  0  0  0  0  0  0  0  0  0  0  0
   63.3350   34.1820   48.9980 C   0  0  0  0  0  0  0  0  0  0  0  0
   61.9580   33.9430   49.0530 C   0  0  0  0  0  0  0  0  0  0  0  0
   59.0960   33.3580   47.0000 C   0  0  0  0  0  0  0  0  0  0  0  0
   57.6900   33.2830   46.8830 C   0  0  0  0  0  0  0  0  0  0  0  0
   57.0310   33.9000   45.8150 C   0  0  0  0  0  0  0  0  0  0  0  0
   57.7560   34.6110   44.8580 C   0  0  0  0  0  0  0  0  0  0  0  0
   59.1420   34.7190   44.9730 C   0  0  0  0  0  0  0  0  0  0  0  0
   59.8070   34.1110   46.0420 C   0  0  0  0  0  0  0  0  0  0  0  0
   59.6750   31.2500   48.3220 C   0  0  0  0  0  0  0  0  0  0  0  0
   60.0270   30.4060   47.4530 O   0  0  0  0  0  0  0  0  0  0  0  0
   57.5930   28.7970   46.2390 C   0  0  0  0  0  0  0  0  0  0  0  0
   54.5690   29.4060   45.4610 H   0  0  0  0  0  0  0  0  0  0  0  0
   58.6102   28.8652   42.9761 H   0  0  0  0  0  0  0  0  0  0  0  0
   60.4039   27.4169   43.9231 H   0  0  0  0  0  0  0  0  0  0  0  0
   57.4604   29.5261   49.6511 H   0  0  0  0  0  0  0  0  0  0  0  0
   58.6598   29.4276   50.9984 H   0  0  0  0  0  0  0  0  0  0  0  0
   59.1050   34.2400   49.6950 H   0  0  0  0  0  0  0  0  0  0  0  0
   61.7067   31.7000   46.4786 H   0  0  0  0  0  0  0  0  0  0  0  0
   64.1563   32.1367   46.3899 H   0  0  0  0  0  0  0  0  0  0  0  0
   65.2032   33.7295   47.9995 H   0  0  0  0  0  0  0  0  0  0  0  0
   63.7996   34.8800   49.7100 H   0  0  0  0  0  0  0  0  0  0  0  0
   61.3468   34.4480   49.8155 H   0  0  0  0  0  0  0  0  0  0  0  0
   57.1086   32.7344   47.6387 H   0  0  0  0  0  0  0  0  0  0  0  0
   55.9370   33.8245   45.7290 H   0  0  0  0  0  0  0  0  0  0  0  0
   57.2350   35.0859   44.0136 H   0  0  0  0  0  0  0  0  0  0  0  0
   59.7128   35.2836   44.2211 H   0  0  0  0  0  0  0  0  0  0  0  0
   60.8973   34.2210   46.1372 H   0  0  0  0  0  0  0  0  0  0  0  0
   56.7820   29.1643   46.8850 H   0  0  0  0  0  0  0  0  0  0  0  0
  1  2  1  0
  2  3  2  0
  2  4  2  0
  2  5  1  0
  5  6  2  0
  6  7  1  0
  7  8  2  0
  8  9  1  0
  8 10  1  0
 10 11  1  0
 11 12  1  0
 12 13  2  0
 12 14  1  0
 14 15  1  0
 15 16  1  0
 16 17  2  0
 16 18  1  0
 18 19  1  0
 19 20  1  0
 20 21  2  0
 21 22  1  0
 22 23  2  0
 23 24  1  0
 24 25  2  0
 19 26  1  0
 26 27  2  0
 27 28  1  0
 28 29  2  0
 29 30  1  0
 30 31  2  0
 19 32  1  0
 32 33  2  0
 10 34  2  0
 34  5  1  0
 32 15  1  0
 25 20  1  0
 31 26  1  0
  1 35  1  0
  6 36  1  0
  7 37  1  0
 14 38  1  0
 14 39  1  0
 18 40  1  0
 21 41  1  0
 22 42  1  0
 23 43  1  0
 24 44  1  0
 25 45  1  0
 27 46  1  0
 28 47  1  0
 29 48  1  0
 30 49  1  0
 31 50  1  0
 34 51  1  0
M  CHG  2   1  -1  11  -1
M  END
>  <UniqueID>  (71) 
61

>  <SMILES>  (71) 
[NH-]S(=O)(=O)c1ccc(Cl)c([N-]C(=O)CN2C(=O)NC(c3ccccc3)(c3ccccc3)C2=O)c1

>  <Energy>  (71) 
85.52173335277656

>  <Genealogy>  (71) 
[NH-]S(=O)(=O)c1ccc(Cl)c([N-]C(=O)CN2C(=O)NC(c3ccccc3)(c3ccccc3)C2=O)c1 (protonated)
[NH-]S(=O)(=O)c1ccc(Cl)c([N-]C(=O)CN2C(=O)NC(c3ccccc3)(c3ccccc3)C2=O)c1 (3D coordinates assigned)
[NH-]S(=O)(=O)c1ccc(Cl)c([N-]C(=O)CN2C(=O)NC(c3ccccc3)(c3ccccc3)C2=O)c1 (nonaromatic ring conformer: 85.52173335277656 kcal/mol)

>  <smiles>  (71) 
NS(=O)(=O)c1ccc(Cl)c(NC(=O)CN2C(=O)NC(c3ccccc3)(c3ccccc3)C2=O)c1

>  <score_type>  (71) 
oracle

>  <origin>  (71) 
adg

>  <m_score__min__energy>  (71) 
-14.77

>  <m_primary>  (71) 
energy

$$$$
71:0
     RDKit          3D

 34 35  0  0  0  0  0  0  0  0999 V2000
   57.4470   33.9460   45.5070 C   0  0  0  0  0  0  0  0  0  0  0  0
   58.8520   34.1630   44.9760 C   0  0  0  0  0  0  0  0  0  0  0  0
   59.7050   34.6040   46.1430 C   0  0  0  0  0  0  0  0  0  0  0  0
   60.7050   33.5940   46.5590 C   0  0  0  0  0  0  0  0  0  0  0  0
   62.0450   33.8720   46.7320 C   0  0  0  0  0  0  0  0  0  0  0  0
   62.8670   32.8330   47.1230 C   0  0  0  0  0  0  0  0  0  0  0  0
   64.0930   33.0980   47.2790 O   0  0  0  0  0  0  0  0  0  0  0  0
   62.4190   31.5810   47.3380 N   0  0  0  0  0  0  0  0  0  0  0  0
   61.1060   31.3430   47.1610 C   0  0  0  0  0  0  0  0  0  0  0  0
   60.4110   29.7140   47.4210 S   0  0  0  0  0  0  0  0  0  0  0  0
   60.0580   29.0640   45.7430 C   0  0  0  0  0  0  0  0  0  0  0  0
   58.7790   29.5840   45.2100 C   0  0  0  0  0  0  0  0  0  0  0  0
   58.0740   29.1050   44.1480 C   0  0  0  0  0  0  0  0  0  0  0  0
   56.9580   29.9050   44.0300 C   0  0  0  0  0  0  0  0  0  0  0  0
   55.9050   29.7410   42.9980 C   0  0  0  0  0  0  0  0  0  0  0  0
   57.0220   30.8370   45.0160 N   0  0  0  0  0  0  0  0  0  0  0  0
   58.1210   30.6410   45.7270 N   0  0  0  0  0  0  0  0  0  0  0  0
   60.2610   32.3320   46.7780 N   0  0  0  0  0  0  0  0  0  0  0  0
   57.4662   33.9490   46.6068 H   0  0  0  0  0  0  0  0  0  0  0  0
   56.7911   34.7535   45.1495 H   0  0  0  0  0  0  0  0  0  0  0  0
   57.0653   32.9783   45.1495 H   0  0  0  0  0  0  0  0  0  0  0  0
   59.2449   33.2261   44.5543 H   0  0  0  0  0  0  0  0  0  0  0  0
   58.8566   34.9213   44.1791 H   0  0  0  0  0  0  0  0  0  0  0  0
   60.2369   35.5235   45.8575 H   0  0  0  0  0  0  0  0  0  0  0  0
   59.0292   34.7607   46.9966 H   0  0  0  0  0  0  0  0  0  0  0  0
   62.4441   34.8833   46.5648 H   0  0  0  0  0  0  0  0  0  0  0  0
   63.0750   30.8140   47.6360 H   0  0  0  0  0  0  0  0  0  0  0  0
   60.8729   29.3621   45.0670 H   0  0  0  0  0  0  0  0  0  0  0  0
   59.9805   27.9688   45.8099 H   0  0  0  0  0  0  0  0  0  0  0  0
   58.3420   28.2494   43.5108 H   0  0  0  0  0  0  0  0  0  0  0  0
   54.9319   29.5894   43.4879 H   0  0  0  0  0  0  0  0  0  0  0  0
   55.8629   30.6434   42.3704 H   0  0  0  0  0  0  0  0  0  0  0  0
   56.1394   28.8685   42.3704 H   0  0  0  0  0  0  0  0  0  0  0  0
   58.4420   31.1970   46.5480 H   0  0  0  0  0  0  0  0  0  0  0  0
  1  2  1  0
  2  3  1  0
  3  4  1  0
  4  5  2  0
  5  6  1  0
  6  7  2  0
  6  8  1  0
  8  9  1  0
  9 10  1  0
 10 11  1  0
 11 12  1  0
 12 13  2  0
 13 14  1  0
 14 15  1  0
 14 16  2  0
 16 17  1  0
  9 18  2  0
 18  4  1  0
 17 12  1  0
  1 19  1  0
  1 20  1  0
  1 21  1  0
  2 22  1  0
  2 23  1  0
  3 24  1  0
  3 25  1  0
  5 26  1  0
  8 27  1  0
 11 28  1  0
 11 29  1  0
 13 30  1  0
 15 31  1  0
 15 32  1  0
 15 33  1  0
 17 34  1  0
M  END
>  <smiles>  (72) 
CCCc1cc(=O)[nH]c(SCc2cc(C)n[nH]2)n1

>  <score_type>  (72) 
oracle

>  <origin>  (72) 
adg

>  <m_score__min__energy>  (72) 
-8.0999999999999996

>  <m_primary>  (72) 
energy

$$$$
72:0
     RDKit          3D

 53 55  0  0  0  0  0  0  0  0999 V2000
   57.0200   34.1450   44.7780 C   0  0  0  0  0  0  0  0  0  0  0  0
   58.0350   33.8750   45.8480 C   0  0  0  0  0  0  0  0  0  0  0  0
   57.6780   33.1170   46.9720 C   0  0  0  0  0  0  0  0  0  0  0  0
   58.6160   32.8520   47.9720 C   0  0  0  0  0  0  0  0  0  0  0  0
   59.9260   33.3500   47.8680 C   0  0  0  0  0  0  0  0  0  0  0  0
   60.9450   33.0410   48.9340 C   0  0  0  0  0  0  0  0  0  0  0  0
   60.7950   31.6650   49.4050 N   0  0  0  0  0  0  0  0  0  0  0  0
   60.8610   30.5330   48.5230 C   0  0  0  0  0  0  0  0  0  0  0  0
   61.2360   30.6800   47.3270 O   0  0  0  0  0  0  0  0  0  0  0  0
   60.5150   29.1570   49.0170 C   0  0  0  0  0  0  0  0  0  0  0  0
   59.5380   28.5030   48.1270 N   0  0  0  0  0  0  0  0  0  0  0  0
   58.7700   29.2800   47.3050 C   0  0  0  0  0  0  0  0  0  0  0  0
   57.8320   28.7100   46.4340 C   0  0  0  0  0  0  0  0  0  0  0  0
   57.0670   29.5940   45.5190 C   0  0  0  0  0  0  0  0  0  0  0  0
   55.7580   29.2220   45.0930 N   0  0  0  0  0  0  0  0  0  0  0  0
   57.5480   30.6930   45.1330 O   0  0  0  0  0  0  0  0  0  0  0  0
   57.7010   27.3030   46.4430 C   0  0  0  0  0  0  0  0  0  0  0  0
   56.7010   26.5790   45.6340 C   0  0  0  0  0  0  0  0  0  0  0  0
   55.4930   26.6050   45.9930 O   0  0  0  0  0  0  0  0  0  0  0  0
   57.0560   25.8410   44.4570 N   0  0  0  0  0  0  0  0  0  0  0  0
   56.9690   24.4200   44.2770 C   0  0  0  0  0  0  0  0  0  0  0  0
   56.5430   23.8490   43.0650 C   0  0  0  0  0  0  0  0  0  0  0  0
   56.4100   22.4630   42.9480 C   0  0  0  0  0  0  0  0  0  0  0  0
   56.6850   21.6380   44.0420 C   0  0  0  0  0  0  0  0  0  0  0  0
   57.1130   22.1930   45.2560 C   0  0  0  0  0  0  0  0  0  0  0  0
   57.3760   21.3210   46.4470 C   0  0  0  0  0  0  0  0  0  0  0  0
   57.2390   23.5870   45.3710 C   0  0  0  0  0  0  0  0  0  0  0  0
   58.5020   26.5680   47.2530 N   0  0  0  0  0  0  0  0  0  0  0  0
   59.4070   27.1400   48.0860 C   0  0  0  0  0  0  0  0  0  0  0  0
   60.1120   26.3960   48.8200 O   0  0  0  0  0  0  0  0  0  0  0  0
   60.2880   34.0910   46.7330 C   0  0  0  0  0  0  0  0  0  0  0  0
   59.3510   34.3450   45.7260 C   0  0  0  0  0  0  0  0  0  0  0  0
   56.0565   34.4013   45.2428 H   0  0  0  0  0  0  0  0  0  0  0  0
   57.3603   34.9839   44.1531 H   0  0  0  0  0  0  0  0  0  0  0  0
   56.8985   33.2479   44.1531 H   0  0  0  0  0  0  0  0  0  0  0  0
   56.6532   32.7288   47.0668 H   0  0  0  0  0  0  0  0  0  0  0  0
   58.3278   32.2499   48.8463 H   0  0  0  0  0  0  0  0  0  0  0  0
   61.9548   33.1728   48.5181 H   0  0  0  0  0  0  0  0  0  0  0  0
   60.7906   33.7250   49.7815 H   0  0  0  0  0  0  0  0  0  0  0  0
   60.5100   31.5180   50.3990 H   0  0  0  0  0  0  0  0  0  0  0  0
   61.4304   28.5482   49.0546 H   0  0  0  0  0  0  0  0  0  0  0  0
   60.0691   29.2474   50.0185 H   0  0  0  0  0  0  0  0  0  0  0  0
   58.8907   30.3731   47.3278 H   0  0  0  0  0  0  0  0  0  0  0  0
   55.1630   28.5910   45.6740 H   0  0  0  0  0  0  0  0  0  0  0  0
   56.3135   24.4959   42.2054 H   0  0  0  0  0  0  0  0  0  0  0  0
   56.0884   22.0207   41.9936 H   0  0  0  0  0  0  0  0  0  0  0  0
   56.5651   20.5484   43.9501 H   0  0  0  0  0  0  0  0  0  0  0  0
   57.2024   21.8965   47.3683 H   0  0  0  0  0  0  0  0  0  0  0  0
   56.6994   20.4540   46.4233 H   0  0  0  0  0  0  0  0  0  0  0  0
   58.4191   20.9727   46.4233 H   0  0  0  0  0  0  0  0  0  0  0  0
   57.5524   24.0289   46.3283 H   0  0  0  0  0  0  0  0  0  0  0  0
   61.3143   34.4743   46.6345 H   0  0  0  0  0  0  0  0  0  0  0  0
   59.6476   34.9162   44.8339 H   0  0  0  0  0  0  0  0  0  0  0  0
  1  2  1  0
  2  3  2  0
  3  4  1  0
  4  5  2  0
  5  6  1  0
  6  7  1  0
  7  8  1  0
  8  9  2  0
  8 10  1  0
 10 11  1  0
 11 12  1  0
 12 13  2  0
 13 14  1  0
 14 15  1  0
 14 16  2  0
 13 17  1  0
 17 18  1  0
 18 19  2  0
 18 20  1  0
 20 21  1  0
 21 22  2  0
 22 23  1  0
 23 24  2  0
 24 25  1  0
 25 26  1  0
 25 27  2  0
 17 28  2  0
 28 29  1  0
 29 30  2  0
  5 31  1  0
 31 32  2  0
 32  2  1  0
 29 11  1  0
 27 21  1  0
  1 33  1  0
  1 34  1  0
  1 35  1  0
  3 36  1  0
  4 37  1  0
  6 38  1  0
  6 39  1  0
  7 40  1  0
 10 41  1  0
 10 42  1  0
 12 43  1  0
 15 44  1  0
 22 45  1  0
 23 46  1  0
 24 47  1  0
 26 48  1  0
 26 49  1  0
 26 50  1  0
 27 51  1  0
 31 52  1  0
 32 53  1  0
M  CHG  2  15  -1  20  -1
M  END
>  <UniqueID>  (73) 
62

>  <SMILES>  (73) 
Cc1ccc(CNC(=O)Cn2cc(C([NH-])=O)c(C(=O)[N-]c3cccc(C)c3)nc2=O)cc1

>  <Energy>  (73) 
59.485083402114846

>  <Genealogy>  (73) 
Cc1ccc(CNC(=O)Cn2cc(C([NH-])=O)c(C(=O)[N-]c3cccc(C)c3)nc2=O)cc1 (protonated)
Cc1ccc(CNC(=O)Cn2cc(C([NH-])=O)c(C(=O)[N-]c3cccc(C)c3)nc2=O)cc1 (3D coordinates assigned)
Cc1ccc(CNC(=O)Cn2cc(C([NH-])=O)c(C(=O)[N-]c3cccc(C)c3)nc2=O)cc1 (optimized conformer: 59.485083402114846 kcal/mol)

>  <smiles>  (73) 
Cc1ccc(CNC(=O)Cn2cc(C(N)=O)c(C(=O)Nc3cccc(C)c3)nc2=O)cc1

>  <score_type>  (73) 
oracle

>  <origin>  (73) 
adg

>  <m_score__min__energy>  (73) 
-12.92

>  <m_primary>  (73) 
energy

$$$$
73:0
     RDKit          3D

 57 59  0  0  0  0  0  0  0  0999 V2000
   58.4590   27.0790   44.0680 C   0  0  0  0  0  0  0  0  0  0  0  0
   58.1090   28.5410   44.1180 C   0  0  0  0  0  0  0  0  0  0  0  0
   56.9400   29.0050   43.4910 C   0  0  0  0  0  0  0  0  0  0  0  0
   56.6020   30.3580   43.5440 C   0  0  0  0  0  0  0  0  0  0  0  0
   57.4230   31.2580   44.2220 C   0  0  0  0  0  0  0  0  0  0  0  0
   58.5860   30.8100   44.8520 C   0  0  0  0  0  0  0  0  0  0  0  0
   58.9380   29.4450   44.8140 C   0  0  0  0  0  0  0  0  0  0  0  0
   60.0990   28.9500   45.4380 O   0  0  0  0  0  0  0  0  0  0  0  0
   60.1500   28.2700   46.6920 C   0  0  0  0  0  0  0  0  0  0  0  0
   59.7680   29.1940   47.8030 C   0  0  0  0  0  0  0  0  0  0  0  0
   60.3310   30.4040   47.9970 N   0  0  0  0  0  0  0  0  0  0  0  0
   59.6750   30.8810   49.0730 C   0  0  0  0  0  0  0  0  0  0  0  0
   59.9500   32.2030   49.6710 C   0  0  0  0  0  0  0  0  0  0  0  0
   59.4100   32.4810   50.7780 O   0  0  0  0  0  0  0  0  0  0  0  0
   60.7740   33.1860   48.9910 N   0  0  2  0  0  0  0  0  0  0  0  0
   62.0320   33.4820   49.7230 C   0  0  0  0  0  0  0  0  0  0  0  0
   63.2540   33.5110   48.7820 C   0  0  0  0  0  0  0  0  0  0  0  0
   62.8930   33.0130   47.4370 N   0  0  0  0  0  0  0  0  0  0  0  0
   63.4170   31.6540   47.2150 C   0  0  0  0  0  0  0  0  0  0  0  0
   63.4260   33.9140   46.4020 C   0  0  0  0  0  0  0  0  0  0  0  0
   59.9950   34.4160   48.7000 C   0  0  0  0  0  0  0  0  0  0  0  0
   59.2990   34.3930   47.3530 C   0  0  0  0  0  0  0  0  0  0  0  0
   59.9120   34.9720   46.2280 C   0  0  0  0  0  0  0  0  0  0  0  0
   59.2720   34.9480   44.9850 C   0  0  0  0  0  0  0  0  0  0  0  0
   58.0150   34.3490   44.8550 C   0  0  0  0  0  0  0  0  0  0  0  0
   57.3960   33.7780   45.9700 C   0  0  0  0  0  0  0  0  0  0  0  0
   58.0310   33.8010   47.2140 C   0  0  0  0  0  0  0  0  0  0  0  0
   58.7480   29.9480   49.4920 C   0  0  0  0  0  0  0  0  0  0  0  0
   58.8290   28.9220   48.6830 O   0  0  0  0  0  0  0  0  0  0  0  0
   58.5523   26.6891   45.0923 H   0  0  0  0  0  0  0  0  0  0  0  0
   57.6668   26.5303   43.5376 H   0  0  0  0  0  0  0  0  0  0  0  0
   59.4138   26.9485   43.5376 H   0  0  0  0  0  0  0  0  0  0  0  0
   56.2884   28.2985   42.9560 H   0  0  0  0  0  0  0  0  0  0  0  0
   55.6863   30.7149   43.0500 H   0  0  0  0  0  0  0  0  0  0  0  0
   57.1539   32.3239   44.2608 H   0  0  0  0  0  0  0  0  0  0  0  0
   59.2316   31.5264   45.3812 H   0  0  0  0  0  0  0  0  0  0  0  0
   59.4522   27.4199   46.6717 H   0  0  0  0  0  0  0  0  0  0  0  0
   61.1765   27.9132   46.8623 H   0  0  0  0  0  0  0  0  0  0  0  0
   61.0590   32.7940   48.0630 H   0  0  0  0  0  0  0  0  0  0  0  0
   61.9364   34.4629   50.2115 H   0  0  0  0  0  0  0  0  0  0  0  0
   62.1911   32.6834   50.4626 H   0  0  0  0  0  0  0  0  0  0  0  0
   63.6197   34.5450   48.6976 H   0  0  0  0  0  0  0  0  0  0  0  0
   64.0367   32.8610   49.2003 H   0  0  0  0  0  0  0  0  0  0  0  0
   63.6036   31.1700   48.1850 H   0  0  0  0  0  0  0  0  0  0  0  0
   62.6813   31.0656   46.6471 H   0  0  0  0  0  0  0  0  0  0  0  0
   64.3573   31.7118   46.6471 H   0  0  0  0  0  0  0  0  0  0  0  0
   63.9300   34.7660   46.8817 H   0  0  0  0  0  0  0  0  0  0  0  0
   64.1462   33.3674   45.7755 H   0  0  0  0  0  0  0  0  0  0  0  0
   62.6001   34.2819   45.7755 H   0  0  0  0  0  0  0  0  0  0  0  0
   59.2320   34.5371   49.4830 H   0  0  0  0  0  0  0  0  0  0  0  0
   60.7102   35.2514   48.6778 H   0  0  0  0  0  0  0  0  0  0  0  0
   60.8997   35.4461   46.3261 H   0  0  0  0  0  0  0  0  0  0  0  0
   59.7579   35.4009   44.1082 H   0  0  0  0  0  0  0  0  0  0  0  0
   57.5141   34.3274   43.8759 H   0  0  0  0  0  0  0  0  0  0  0  0
   56.4062   33.3092   45.8679 H   0  0  0  0  0  0  0  0  0  0  0  0
   57.5368   33.3539   48.0891 H   0  0  0  0  0  0  0  0  0  0  0  0
   58.0658   30.0483   50.3491 H   0  0  0  0  0  0  0  0  0  0  0  0
  1  2  1  0
  2  3  2  0
  3  4  1  0
  4  5  2  0
  5  6  1  0
  6  7  2  0
  7  8  1  0
  8  9  1  0
  9 10  1  0
 10 11  2  0
 11 12  1  0
 12 13  1  0
 13 14  2  0
 13 15  1  0
 15 16  1  0
 16 17  1  0
 17 18  1  0
 18 19  1  0
 18 20  1  0
 15 21  1  0
 21 22  1  0
 22 23  2  0
 23 24  1  0
 24 25  2  0
 25 26  1  0
 26 27  2  0
 12 28  2  0
 28 29  1  0
  7  2  1  0
 29 10  1  0
 27 22  1  0
  1 30  1  0
  1 31  1  0
  1 32  1  0
  3 33  1  0
  4 34  1  0
  5 35  1  0
  6 36  1  0
  9 37  1  0
  9 38  1  0
 15 39  1  6
 16 40  1  0
 16 41  1  0
 17 42  1  0
 17 43  1  0
 19 44  1  0
 19 45  1  0
 19 46  1  0
 20 47  1  0
 20 48  1  0
 20 49  1  0
 21 50  1  0
 21 51  1  0
 23 52  1  0
 24 53  1  0
 25 54  1  0
 26 55  1  0
 27 56  1  0
 28 57  1  0
M  CHG  1  15   1
M  END
>  <UniqueID>  (74) 
63

>  <SMILES>  (74) 
Cc1ccccc1OCc1nc(C(=O)[N@H+](CCN(C)C)Cc2ccccc2)co1

>  <Energy>  (74) 
91.74649878401775

>  <Genealogy>  (74) 
Cc1ccccc1OCc1nc(C(=O)[NH+](CCN(C)C)Cc2ccccc2)co1 (protonated)
Cc1ccccc1OCc1nc(C(=O)[N@H+](CCN(C)C)Cc2ccccc2)co1 (chirality)
Cc1ccccc1OCc1nc(C(=O)[N@H+](CCN(C)C)Cc2ccccc2)co1 (3D coordinates assigned)
Cc1ccccc1OCc1nc(C(=O)[N@H+](CCN(C)C)Cc2ccccc2)co1 (optimized conformer: 91.74649878401775 kcal/mol)

>  <smiles>  (74) 
Cc1ccccc1OCc1nc(C(=O)N(CCN(C)C)Cc2ccccc2)co1

>  <score_type>  (74) 
oracle

>  <origin>  (74) 
adg

>  <m_score__min__energy>  (74) 
-6.79

>  <m_primary>  (74) 
energy

$$$$
74:0
     RDKit          3D

 34 36  0  0  0  0  0  0  0  0999 V2000
   63.3330   32.0750   47.1300 C   0  0  0  0  0  0  0  0  0  0  0  0
   62.1740   31.2900   47.5370 N   0  0  0  0  0  0  0  0  0  0  0  0
   61.9440   30.7970   48.7700 C   0  0  0  0  0  0  0  0  0  0  0  0
   60.7940   30.0320   48.7600 C   0  0  0  0  0  0  0  0  0  0  0  0
   60.3220   30.0590   47.4590 C   0  0  0  0  0  0  0  0  0  0  0  0
   59.1240   29.3750   46.9490 C   0  0  0  0  0  0  0  0  0  0  0  0
   58.8280   28.1150   47.3650 N   0  0  0  0  0  0  0  0  0  0  0  0
   57.7220   27.4690   46.9140 C   0  0  0  0  0  0  0  0  0  0  0  0
   57.4690   26.3070   47.3260 O   0  0  0  0  0  0  0  0  0  0  0  0
   56.8710   28.0980   46.0020 C   0  0  0  0  0  0  0  0  0  0  0  0
   55.7100   27.4600   45.5760 O   0  0  0  0  0  0  0  0  0  0  0  0
   57.2010   29.3910   45.5570 C   0  0  0  0  0  0  0  0  0  0  0  0
   56.3660   30.1260   44.5850 C   0  0  0  0  0  0  0  0  0  0  0  0
   55.7270   29.4750   43.7170 O   0  0  0  0  0  0  0  0  0  0  0  0
   56.2700   31.5560   44.5830 N   0  0  0  0  0  0  0  0  0  0  0  0
   57.2830   32.4750   45.0190 C   0  0  0  0  0  0  0  0  0  0  0  0
   58.1780   32.9930   44.0750 C   0  0  0  0  0  0  0  0  0  0  0  0
   59.1700   33.8990   44.4620 C   0  0  0  0  0  0  0  0  0  0  0  0
   59.2650   34.3050   45.7970 C   0  0  0  0  0  0  0  0  0  0  0  0
   60.2510   35.2040   46.1820 O   0  0  0  0  0  0  0  0  0  0  0  0
   58.3620   33.8100   46.7430 C   0  0  0  0  0  0  0  0  0  0  0  0
   57.3680   32.9040   46.3560 C   0  0  0  0  0  0  0  0  0  0  0  0
   58.3100   29.9990   46.0560 N   0  0  0  0  0  0  0  0  0  0  0  0
   61.2000   30.8370   46.7260 C   0  0  0  0  0  0  0  0  0  0  0  0
   63.8642   32.4348   48.0235 H   0  0  0  0  0  0  0  0  0  0  0  0
   64.0083   31.4476   46.5297 H   0  0  0  0  0  0  0  0  0  0  0  0
   63.0010   32.9349   46.5297 H   0  0  0  0  0  0  0  0  0  0  0  0
   62.5768   30.9768   49.6516 H   0  0  0  0  0  0  0  0  0  0  0  0
   60.3434   29.5065   49.6148 H   0  0  0  0  0  0  0  0  0  0  0  0
   58.1001   32.6851   43.0219 H   0  0  0  0  0  0  0  0  0  0  0  0
   59.8761   34.2927   43.7161 H   0  0  0  0  0  0  0  0  0  0  0  0
   58.4330   34.1330   47.7921 H   0  0  0  0  0  0  0  0  0  0  0  0
   56.6509   32.5262   47.0997 H   0  0  0  0  0  0  0  0  0  0  0  0
   61.1155   31.0515   45.6504 H   0  0  0  0  0  0  0  0  0  0  0  0
  1  2  1  0
  2  3  1  0
  3  4  2  0
  4  5  1  0
  5  6  1  0
  6  7  2  0
  7  8  1  0
  8  9  2  0
  8 10  1  0
 10 11  1  0
 10 12  2  0
 12 13  1  0
 13 14  2  0
 13 15  1  0
 15 16  1  0
 16 17  2  0
 17 18  1  0
 18 19  2  0
 19 20  1  0
 19 21  1  0
 21 22  2  0
 12 23  1  0
  5 24  2  0
 24  2  1  0
 23  6  1  0
 22 16  1  0
  1 25  1  0
  1 26  1  0
  1 27  1  0
  3 28  1  0
  4 29  1  0
 17 30  1  0
 18 31  1  0
 21 32  1  0
 22 33  1  0
 24 34  1  0
M  CHG  4  11  -1  15  -1  20  -1  23  -1
M  END
>  <UniqueID>  (75) 
64

>  <SMILES>  (75) 
Cn1ccc(-c2nc(=O)c([O-])c(C(=O)[N-]c3ccc([O-])cc3)[n-]2)c1

>  <Energy>  (75) 
70.4494747104486

>  <Genealogy>  (75) 
Cn1ccc(-c2nc(=O)c([O-])c(C(=O)[N-]c3ccc([O-])cc3)[n-]2)c1 (protonated)
Cn1ccc(-c2nc(=O)c([O-])c(C(=O)[N-]c3ccc([O-])cc3)[n-]2)c1 (3D coordinates assigned)
Cn1ccc(-c2nc(=O)c([O-])c(C(=O)[N-]c3ccc([O-])cc3)[n-]2)c1 (optimized conformer: 70.4494747104486 kcal/mol)

>  <smiles>  (75) 
Cn1ccc(-c2nc(=O)c(O)c(C(=O)Nc3ccc(O)cc3)[nH]2)c1

>  <score_type>  (75) 
oracle

>  <origin>  (75) 
adg

>  <m_score__min__energy>  (75) 
-14.539999999999999

>  <m_primary>  (75) 
energy

$$$$
75:0
     RDKit          3D

 47 49  0  0  0  0  0  0  0  0999 V2000
   56.9300   31.1030   54.5500 C   0  0  0  0  0  0  0  0  0  0  0  0
   56.7780   30.4190   53.2630 N   0  0  0  0  0  0  0  0  0  0  0  0
   55.9870   29.1830   53.1730 C   0  0  0  0  0  0  0  0  0  0  0  0
   54.6880   29.3250   53.9690 C   0  0  0  0  0  0  0  0  0  0  0  0
   53.7060   30.1930   53.2310 C   0  0  0  0  0  0  0  0  0  0  0  0
   53.9700   30.5970   51.9110 C   0  0  0  0  0  0  0  0  0  0  0  0
   53.0720   31.4300   51.2350 C   0  0  0  0  0  0  0  0  0  0  0  0
   51.9100   31.8740   51.8760 C   0  0  0  0  0  0  0  0  0  0  0  0
   51.0200   32.7010   51.2040 O   0  0  0  0  0  0  0  0  0  0  0  0
   51.6470   31.4860   53.1940 C   0  0  0  0  0  0  0  0  0  0  0  0
   52.5440   30.6530   53.8710 C   0  0  0  0  0  0  0  0  0  0  0  0
   57.4260   30.9560   52.0940 C   0  0  0  0  0  0  0  0  0  0  0  0
   57.2490   30.4110   50.9690 O   0  0  0  0  0  0  0  0  0  0  0  0
   58.2320   32.1390   52.1990 N   0  0  0  0  0  0  0  0  0  0  0  0
   59.3190   32.4970   51.3350 C   0  0  0  0  0  0  0  0  0  0  0  0
   60.5570   31.8680   51.5110 C   0  0  0  0  0  0  0  0  0  0  0  0
   61.6320   32.1770   50.6730 C   0  0  0  0  0  0  0  0  0  0  0  0
   61.4760   33.1140   49.6490 C   0  0  0  0  0  0  0  0  0  0  0  0
   60.2440   33.7480   49.4520 C   0  0  0  0  0  0  0  0  0  0  0  0
   60.1170   34.6620   48.3960 O   0  0  0  0  0  0  0  0  0  0  0  0
   59.3460   34.4670   47.2390 C   0  0  0  0  0  0  0  0  0  0  0  0
   59.7010   35.0380   46.0020 C   0  0  0  0  0  0  0  0  0  0  0  0
   58.9100   34.8130   44.8710 C   0  0  0  0  0  0  0  0  0  0  0  0
   57.7730   34.0070   44.9620 C   0  0  0  0  0  0  0  0  0  0  0  0
   57.4280   33.4190   46.1820 C   0  0  0  0  0  0  0  0  0  0  0  0
   58.2160   33.6430   47.3150 C   0  0  0  0  0  0  0  0  0  0  0  0
   59.1570   33.4160   50.2820 C   0  0  0  0  0  0  0  0  0  0  0  0
   56.7704   30.3850   55.3679 H   0  0  0  0  0  0  0  0  0  0  0  0
   57.9436   31.5239   54.6241 H   0  0  0  0  0  0  0  0  0  0  0  0
   56.1901   31.9136   54.6241 H   0  0  0  0  0  0  0  0  0  0  0  0
   55.7464   28.9821   52.1186 H   0  0  0  0  0  0  0  0  0  0  0  0
   56.5736   28.3514   53.5906 H   0  0  0  0  0  0  0  0  0  0  0  0
   54.2467   28.3289   54.1211 H   0  0  0  0  0  0  0  0  0  0  0  0
   54.9158   29.7928   54.9381 H   0  0  0  0  0  0  0  0  0  0  0  0
   54.8867   30.2567   51.4072 H   0  0  0  0  0  0  0  0  0  0  0  0
   53.2795   31.7361   50.1990 H   0  0  0  0  0  0  0  0  0  0  0  0
   50.7343   31.8361   53.6983 H   0  0  0  0  0  0  0  0  0  0  0  0
   52.3379   30.3568   54.9101 H   0  0  0  0  0  0  0  0  0  0  0  0
   60.6845   31.1264   52.3133 H   0  0  0  0  0  0  0  0  0  0  0  0
   62.6029   31.6813   50.8202 H   0  0  0  0  0  0  0  0  0  0  0  0
   62.3261   33.3549   48.9938 H   0  0  0  0  0  0  0  0  0  0  0  0
   60.6030   35.6628   45.9250 H   0  0  0  0  0  0  0  0  0  0  0  0
   59.1834   35.2711   43.9090 H   0  0  0  0  0  0  0  0  0  0  0  0
   57.1487   33.8349   44.0729 H   0  0  0  0  0  0  0  0  0  0  0  0
   56.5357   32.7794   46.2509 H   0  0  0  0  0  0  0  0  0  0  0  0
   57.9471   33.1697   48.2709 H   0  0  0  0  0  0  0  0  0  0  0  0
   58.1743   33.8780   50.1063 H   0  0  0  0  0  0  0  0  0  0  0  0
  1  2  1  0
  2  3  1  0
  3  4  1  0
  4  5  1  0
  5  6  2  0
  6  7  1  0
  7  8  2  0
  8  9  1  0
  8 10  1  0
 10 11  2  0
  2 12  1  0
 12 13  2  0
 12 14  1  0
 14 15  1  0
 15 16  2  0
 16 17  1  0
 17 18  2  0
 18 19  1  0
 19 20  1  0
 20 21  1  0
 21 22  2  0
 22 23  1  0
 23 24  2  0
 24 25  1  0
 25 26  2  0
 19 27  2  0
 11  5  1  0
 27 15  1  0
 26 21  1  0
  1 28  1  0
  1 29  1  0
  1 30  1  0
  3 31  1  0
  3 32  1  0
  4 33  1  0
  4 34  1  0
  6 35  1  0
  7 36  1  0
 10 37  1  0
 11 38  1  0
 16 39  1  0
 17 40  1  0
 18 41  1  0
 22 42  1  0
 23 43  1  0
 24 44  1  0
 25 45  1  0
 26 46  1  0
 27 47  1  0
M  CHG  2   9  -1  14  -1
M  END
>  <UniqueID>  (76) 
65

>  <SMILES>  (76) 
CN(CCc1ccc([O-])cc1)C(=O)[N-]c1cccc(Oc2ccccc2)c1

>  <Energy>  (76) 
53.393391122160736

>  <Genealogy>  (76) 
CN(CCc1ccc([O-])cc1)C(=O)[N-]c1cccc(Oc2ccccc2)c1 (protonated)
CN(CCc1ccc([O-])cc1)C(=O)[N-]c1cccc(Oc2ccccc2)c1 (3D coordinates assigned)
CN(CCc1ccc([O-])cc1)C(=O)[N-]c1cccc(Oc2ccccc2)c1 (optimized conformer: 53.393391122160736 kcal/mol)

>  <smiles>  (76) 
CN(CCc1ccc(O)cc1)C(=O)Nc1cccc(Oc2ccccc2)c1

>  <score_type>  (76) 
oracle

>  <origin>  (76) 
adg

>  <m_score__min__energy>  (76) 
-12.630000000000001

>  <m_primary>  (76) 
energy

$$$$
76:0
     RDKit          3D

 45 46  0  0  0  0  0  0  0  0999 V2000
   51.4210   23.0100   45.8790 C   0  0  0  0  0  0  0  0  0  0  0  0
   51.9410   24.4370   44.8710 S   0  0  0  0  0  0  0  0  0  0  0  0
   53.6730   24.2310   45.2790 C   0  0  0  0  0  0  0  0  0  0  0  0
   54.2040   23.0910   45.2040 O   0  0  0  0  0  0  0  0  0  0  0  0
   54.4360   25.3630   45.6980 N   0  0  0  0  0  0  0  0  0  0  0  0
   55.8290   25.2720   46.1130 C   0  0  0  0  0  0  0  0  0  0  0  0
   56.6660   26.3110   45.3700 C   0  0  0  0  0  0  0  0  0  0  0  0
   56.9910   27.4320   46.2580 N   0  0  0  0  0  0  0  0  0  0  0  0
   58.6370   27.3090   46.8080 S   0  0  0  0  0  0  0  0  0  0  0  0
   58.8140   26.0090   47.5440 O   0  0  0  0  0  0  0  0  0  0  0  0
   59.5420   27.3090   45.6090 O   0  0  0  0  0  0  0  0  0  0  0  0
   59.0720   28.6370   47.8960 C   0  0  0  0  0  0  0  0  0  0  0  0
   59.8570   28.3830   49.0310 C   0  0  0  0  0  0  0  0  0  0  0  0
   60.1960   29.4220   49.9020 C   0  0  0  0  0  0  0  0  0  0  0  0
   59.7520   30.7210   49.6480 C   0  0  0  0  0  0  0  0  0  0  0  0
   58.9740   30.9870   48.5180 C   0  0  0  0  0  0  0  0  0  0  0  0
   58.6380   29.9510   47.6290 C   0  0  0  0  0  0  0  0  0  0  0  0
   57.8490   30.2010   46.4980 O   0  0  0  0  0  0  0  0  0  0  0  0
   58.0280   31.2660   45.6000 C   0  0  0  0  0  0  0  0  0  0  0  0
   58.7240   32.4320   45.9730 C   0  0  0  0  0  0  0  0  0  0  0  0
   58.9120   33.4660   45.0530 C   0  0  0  0  0  0  0  0  0  0  0  0
   58.4160   33.3440   43.7530 C   0  0  0  0  0  0  0  0  0  0  0  0
   57.7440   32.1840   43.3660 C   0  0  0  0  0  0  0  0  0  0  0  0
   57.5470   31.1400   44.2820 C   0  0  0  0  0  0  0  0  0  0  0  0
   56.7200   29.6650   43.7790 S   0  0  0  0  0  0  0  0  0  0  0  0
   55.4550   29.3020   44.8990 N   0  0  0  0  0  0  0  0  0  0  0  0
   56.1210   29.8400   42.4120 O   0  0  0  0  0  0  0  0  0  0  0  0
   57.7040   28.5280   43.7420 O   0  0  0  0  0  0  0  0  0  0  0  0
   51.5128   23.2618   46.9459 H   0  0  0  0  0  0  0  0  0  0  0  0
   50.3744   22.7610   45.6497 H   0  0  0  0  0  0  0  0  0  0  0  0
   52.0621   22.1460   45.6497 H   0  0  0  0  0  0  0  0  0  0  0  0
   55.8990   25.4547   47.1955 H   0  0  0  0  0  0  0  0  0  0  0  0
   56.2101   24.2672   45.8780 H   0  0  0  0  0  0  0  0  0  0  0  0
   57.5980   25.8433   45.0200 H   0  0  0  0  0  0  0  0  0  0  0  0
   56.0892   26.6889   44.5130 H   0  0  0  0  0  0  0  0  0  0  0  0
   56.9050   28.3260   45.7260 H   0  0  0  0  0  0  0  0  0  0  0  0
   60.2074   27.3607   49.2363 H   0  0  0  0  0  0  0  0  0  0  0  0
   60.8134   29.2160   50.7888 H   0  0  0  0  0  0  0  0  0  0  0  0
   60.0149   31.5362   50.3382 H   0  0  0  0  0  0  0  0  0  0  0  0
   58.6231   32.0112   48.3233 H   0  0  0  0  0  0  0  0  0  0  0  0
   59.1216   32.5290   46.9940 H   0  0  0  0  0  0  0  0  0  0  0  0
   59.4510   34.3769   45.3524 H   0  0  0  0  0  0  0  0  0  0  0  0
   58.5554   34.1639   43.0330 H   0  0  0  0  0  0  0  0  0  0  0  0
   57.3667   32.0877   42.3372 H   0  0  0  0  0  0  0  0  0  0  0  0
   55.8870   29.2710   45.8500 H   0  0  0  0  0  0  0  0  0  0  0  0
  1  2  1  0
  2  3  1  0
  3  4  2  0
  3  5  1  0
  5  6  1  0
  6  7  1  0
  7  8  1  0
  8  9  1  0
  9 10  2  0
  9 11  2  0
  9 12  1  0
 12 13  2  0
 13 14  1  0
 14 15  2  0
 15 16  1  0
 16 17  2  0
 17 18  1  0
 18 19  1  0
 19 20  2  0
 20 21  1  0
 21 22  2  0
 22 23  1  0
 23 24  2  0
 24 25  1  0
 25 26  1  0
 25 27  2  0
 25 28  2  0
 17 12  1  0
 24 19  1  0
  1 29  1  0
  1 30  1  0
  1 31  1  0
  6 32  1  0
  6 33  1  0
  7 34  1  0
  7 35  1  0
  8 36  1  0
 13 37  1  0
 14 38  1  0
 15 39  1  0
 16 40  1  0
 20 41  1  0
 21 42  1  0
 22 43  1  0
 23 44  1  0
 26 45  1  0
M  CHG  2   5  -1  26  -1
M  END
>  <UniqueID>  (77) 
66

>  <SMILES>  (77) 
CSC(=O)[N-]CCNS(=O)(=O)c1ccccc1Oc1ccccc1S([NH-])(=O)=O

>  <Energy>  (77) 
37.0413744683744

>  <Genealogy>  (77) 
CSC(=O)[N-]CCNS(=O)(=O)c1ccccc1Oc1ccccc1S([NH-])(=O)=O (protonated)
CSC(=O)[N-]CCNS(=O)(=O)c1ccccc1Oc1ccccc1S([NH-])(=O)=O (3D coordinates assigned)
CSC(=O)[N-]CCNS(=O)(=O)c1ccccc1Oc1ccccc1S([NH-])(=O)=O (optimized conformer: 37.0413744683744 kcal/mol)

>  <smiles>  (77) 
CSC(=O)NCCNS(=O)(=O)c1ccccc1Oc1ccccc1S(N)(=O)=O

>  <score_type>  (77) 
oracle

>  <origin>  (77) 
adg

>  <m_score__min__energy>  (77) 
-12.23

>  <m_primary>  (77) 
energy

$$$$
77:0
     RDKit          3D

 56 59  0  0  1  0  0  0  0  0999 V2000
   58.5130   32.8550   42.9720 O   0  0  0  0  0  0  0  0  0  0  0  0
   58.1460   32.4820   44.1520 C   0  0  0  0  0  0  0  0  0  0  0  0
   57.7670   31.0890   44.2570 C   0  0  0  0  0  0  0  0  0  0  0  0
   58.7270   30.1010   44.4690 C   0  0  0  0  0  0  0  0  0  0  0  0
   58.3740   28.7570   44.5870 C   0  0  0  0  0  0  0  0  0  0  0  0
   59.2930   27.7800   44.7910 F   0  0  0  0  0  0  0  0  0  0  0  0
   57.0570   28.3590   44.4980 C   0  0  0  0  0  0  0  0  0  0  0  0
   56.1180   29.3460   44.2890 C   0  0  0  0  0  0  0  0  0  0  0  0
   54.8040   29.0070   44.2060 F   0  0  0  0  0  0  0  0  0  0  0  0
   56.4360   30.6860   44.1670 C   0  0  0  0  0  0  0  0  0  0  0  0
   58.1470   33.4290   45.1990 N   0  0  0  0  0  0  0  0  0  0  0  0
   57.7610   33.1570   46.5640 C   0  0  0  0  0  0  0  0  0  0  0  0
   58.7680   33.6480   47.5960 C   0  0  0  0  0  0  0  0  0  0  0  0
   59.9560   34.2040   46.7970 C   0  0  0  0  0  0  0  0  0  0  0  0
   60.9750   34.6700   47.6230 O   0  0  0  0  0  0  0  0  0  0  0  0
   62.0440   33.9550   48.1100 C   0  0  0  0  0  0  0  0  0  0  0  0
   63.0930   33.7440   47.2770 N   0  0  0  0  0  0  0  0  0  0  0  0
   64.1230   33.0580   47.7350 C   0  0  0  0  0  0  0  0  0  0  0  0
   64.1890   32.5510   49.0020 N   0  0  0  0  0  0  0  0  0  0  0  0
   63.1410   32.7710   49.8170 C   0  0  0  0  0  0  0  0  0  0  0  0
   63.1680   32.3190   51.0050 N   0  0  0  0  0  0  0  0  0  0  0  0
   62.3270   31.2550   51.5280 C   0  0  0  0  0  0  0  0  0  0  0  0
   62.4270   30.1450   50.4640 C   0  0  0  0  0  0  0  0  0  0  0  0
   61.2020   30.2150   49.5980 C   0  0  0  0  0  0  0  0  0  0  0  0
   61.4710   30.4420   48.2380 C   0  0  0  0  0  0  0  0  0  0  0  0
   60.4460   30.5010   47.3100 C   0  0  0  0  0  0  0  0  0  0  0  0
   59.1690   30.3280   47.7830 C   0  0  0  0  0  0  0  0  0  0  0  0
   58.9050   30.1070   49.1170 C   0  0  0  0  0  0  0  0  0  0  0  0
   59.9270   30.0500   50.0400 C   0  0  0  0  0  0  0  0  0  0  0  0
   62.0280   33.4750   49.4150 C   0  0  0  0  0  0  0  0  0  0  0  0
   60.9880   33.6800   50.2590 F   0  0  0  0  0  0  0  0  0  0  0  0
   59.4370   35.3200   45.9580 C   0  0  0  0  0  0  0  0  0  0  0  0
   58.5550   34.7790   44.8790 C   0  0  0  0  0  0  0  0  0  0  0  0
   59.7863   30.3876   44.5449 H   0  0  0  0  0  0  0  0  0  0  0  0
   56.7687   27.3014   44.5897 H   0  0  0  0  0  0  0  0  0  0  0  0
   55.6430   31.4297   43.9999 H   0  0  0  0  0  0  0  0  0  0  0  0
   56.7973   33.6510   46.7571 H   0  0  0  0  0  0  0  0  0  0  0  0
   57.7014   32.0636   46.6688 H   0  0  0  0  0  0  0  0  0  0  0  0
   58.3229   34.4381   48.2186 H   0  0  0  0  0  0  0  0  0  0  0  0
   59.0804   32.8378   48.2713 H   0  0  0  0  0  0  0  0  0  0  0  0
   60.3901   33.4002   46.1843 H   0  0  0  0  0  0  0  0  0  0  0  0
   64.9744   32.8850   47.0603 H   0  0  0  0  0  0  0  0  0  0  0  0
   65.0260   32.0070   49.3310 H   0  0  0  0  0  0  0  0  0  0  0  0
   62.7029   30.9009   52.4992 H   0  0  0  0  0  0  0  0  0  0  0  0
   61.2913   31.5812   51.7040 H   0  0  0  0  0  0  0  0  0  0  0  0
   63.3267   30.2976   49.8498 H   0  0  0  0  0  0  0  0  0  0  0  0
   62.4952   29.1594   50.9477 H   0  0  0  0  0  0  0  0  0  0  0  0
   62.5112   30.5748   47.9059 H   0  0  0  0  0  0  0  0  0  0  0  0
   60.6453   30.6783   46.2428 H   0  0  0  0  0  0  0  0  0  0  0  0
   58.3291   30.3671   47.0738 H   0  0  0  0  0  0  0  0  0  0  0  0
   57.8650   29.9743   49.4498 H   0  0  0  0  0  0  0  0  0  0  0  0
   59.7167   29.8757   51.1055 H   0  0  0  0  0  0  0  0  0  0  0  0
   58.8592   36.0119   46.5885 H   0  0  0  0  0  0  0  0  0  0  0  0
   60.2837   35.8524   45.5001 H   0  0  0  0  0  0  0  0  0  0  0  0
   57.6630   35.4158   44.7852 H   0  0  0  0  0  0  0  0  0  0  0  0
   59.1115   34.7709   43.9302 H   0  0  0  0  0  0  0  0  0  0  0  0
  1  2  2  0
  2  3  1  0
  3  4  2  0
  4  5  1  0
  5  6  1  0
  5  7  2  0
  7  8  1  0
  8  9  1  0
  8 10  2  0
  2 11  1  0
 11 12  1  0
 12 13  1  0
 13 14  1  0
 14 15  1  0
 15 16  1  0
 16 17  1  0
 17 18  2  0
 18 19  1  0
 19 20  1  0
 20 21  2  0
 21 22  1  0
 22 23  1  0
 23 24  1  0
 24 25  2  0
 25 26  1  0
 26 27  2  0
 27 28  1  0
 28 29  2  0
 20 30  1  0
 30 31  1  0
 14 32  1  0
 32 33  1  0
 10  3  1  0
 33 11  1  0
 30 16  2  0
 29 24  1  0
  4 34  1  0
  7 35  1  0
 10 36  1  0
 12 37  1  0
 12 38  1  0
 13 39  1  0
 13 40  1  0
 14 41  1  0
 18 42  1  0
 19 43  1  0
 22 44  1  0
 22 45  1  0
 23 46  1  0
 23 47  1  0
 25 48  1  0
 26 49  1  0
 27 50  1  0
 28 51  1  0
 29 52  1  0
 32 53  1  0
 32 54  1  0
 33 55  1  0
 33 56  1  0
M  END
>  <smiles>  (78) 
O=C(c1cc(F)cc(F)c1)N1CCC(Oc2nc[nH]c(=NCCc3ccccc3)c2F)CC1

>  <score_type>  (78) 
oracle

>  <origin>  (78) 
adg

>  <m_score__min__energy>  (78) 
-8.6699999999999999

>  <m_primary>  (78) 
energy

$$$$
78:0
     RDKit          3D

 58 61  0  0  0  0  0  0  0  0999 V2000
   55.2800   28.2830   44.8430 H   0  0  0  0  0  0  0  0  0  0  0  0
   55.1490   29.3190   44.8650 N   0  0  0  0  0  0  0  0  0  0  0  0
   56.0360   30.1230   44.3730 C   0  0  0  0  0  0  0  0  0  0  0  0
   56.9360   30.7180   45.1960 N   0  0  0  0  0  0  0  0  0  0  0  0
   57.8900   31.5650   44.7170 C   0  0  0  0  0  0  0  0  0  0  0  0
   58.8460   32.1970   45.6630 C   0  0  0  0  0  0  0  0  0  0  0  0
   59.1450   33.5670   45.5900 C   0  0  0  0  0  0  0  0  0  0  0  0
   58.6559   34.1923   44.8286 H   0  0  0  0  0  0  0  0  0  0  0  0
   60.0580   34.1420   46.4760 C   0  0  0  0  0  0  0  0  0  0  0  0
   60.2846   35.2158   46.4019 H   0  0  0  0  0  0  0  0  0  0  0  0
   60.6920   33.3640   47.4630 C   0  0  0  0  0  0  0  0  0  0  0  0
   61.6280   33.9200   48.3550 O   0  0  0  0  0  0  0  0  0  0  0  0
   63.0460   33.9060   48.2020 C   0  0  0  0  0  0  0  0  0  0  0  0
   63.4394   34.9159   48.3899 H   0  0  0  0  0  0  0  0  0  0  0  0
   63.4720   33.1904   48.9206 H   0  0  0  0  0  0  0  0  0  0  0  0
   63.4320   33.4730   46.7920 C   0  0  0  0  0  0  0  0  0  0  0  0
   64.1630   32.6529   46.8475 H   0  0  0  0  0  0  0  0  0  0  0  0
   62.5353   33.1292   46.2556 H   0  0  0  0  0  0  0  0  0  0  0  0
   63.8761   34.3245   46.2556 H   0  0  0  0  0  0  0  0  0  0  0  0
   60.3870   31.9870   47.5550 C   0  0  0  0  0  0  0  0  0  0  0  0
   61.0160   31.1250   48.5850 C   0  0  0  0  0  0  0  0  0  0  0  0
   62.2700   31.1240   48.7210 O   0  0  0  0  0  0  0  0  0  0  0  0
   60.2210   30.2070   49.3460 N   0  0  0  0  0  0  0  0  0  0  0  0
   60.4060   28.9260   49.5050 C   0  0  0  0  0  0  0  0  0  0  0  0
   61.0000   28.3810   50.6210 C   0  0  0  0  0  0  0  0  0  0  0  0
   61.4428   28.9086   51.4787 H   0  0  0  0  0  0  0  0  0  0  0  0
   60.9110   27.0170   50.4140 C   0  0  0  0  0  0  0  0  0  0  0  0
   61.3780   25.9730   51.3400 C   0  0  0  0  0  0  0  0  0  0  0  0
   60.5590   25.1190   51.7750 O   0  0  0  0  0  0  0  0  0  0  0  0
   62.7590   25.9180   51.7370 N   0  0  0  0  0  0  0  0  0  0  0  0
   63.4360   26.6030   51.3320 H   0  0  0  0  0  0  0  0  0  0  0  0
   63.2800   24.8700   52.6130 C   0  0  0  0  0  0  0  0  0  0  0  0
   62.5967   24.0083   52.5912 H   0  0  0  0  0  0  0  0  0  0  0  0
   64.2779   24.5745   52.2567 H   0  0  0  0  0  0  0  0  0  0  0  0
   63.4010   25.3770   54.0460 C   0  0  0  0  0  0  0  0  0  0  0  0
   63.2038   24.5509   54.7451 H   0  0  0  0  0  0  0  0  0  0  0  0
   64.4168   25.7644   54.2133 H   0  0  0  0  0  0  0  0  0  0  0  0
   62.6696   26.1814   54.2133 H   0  0  0  0  0  0  0  0  0  0  0  0
   60.3320   26.7680   49.2220 N   0  0  0  0  0  0  0  0  0  0  0  0
   60.0240   27.9300   48.6630 N   0  0  0  0  0  0  0  0  0  0  0  0
   59.6080   28.0130   47.2920 C   0  0  0  0  0  0  0  0  0  0  0  0
   58.3200   27.5900   46.9260 C   0  0  0  0  0  0  0  0  0  0  0  0
   57.6212   27.2297   47.6953 H   0  0  0  0  0  0  0  0  0  0  0  0
   57.9240   27.6260   45.5850 C   0  0  0  0  0  0  0  0  0  0  0  0
   56.9100   27.3055   45.3039 H   0  0  0  0  0  0  0  0  0  0  0  0
   58.8130   28.0680   44.6010 C   0  0  0  0  0  0  0  0  0  0  0  0
   58.4956   28.1028   43.5484 H   0  0  0  0  0  0  0  0  0  0  0  0
   60.1060   28.4660   44.9550 C   0  0  0  0  0  0  0  0  0  0  0  0
   60.8066   28.8119   44.1807 H   0  0  0  0  0  0  0  0  0  0  0  0
   60.5080   28.4240   46.2940 C   0  0  0  0  0  0  0  0  0  0  0  0
   61.5333   28.7140   46.5671 H   0  0  0  0  0  0  0  0  0  0  0  0
   59.4860   31.4150   46.6390 C   0  0  0  0  0  0  0  0  0  0  0  0
   59.2787   30.3358   46.6876 H   0  0  0  0  0  0  0  0  0  0  0  0
   57.9310   31.8320   43.3380 C   0  0  0  0  0  0  0  0  0  0  0  0
   58.6871   32.5138   42.9216 H   0  0  0  0  0  0  0  0  0  0  0  0
   56.9960   31.2170   42.5080 C   0  0  0  0  0  0  0  0  0  0  0  0
   57.0077   31.4132   41.4257 H   0  0  0  0  0  0  0  0  0  0  0  0
   56.0700   30.3750   43.0360 N   0  0  0  0  0  0  0  0  0  0  0  0
  1  2  1  0
  2  3  2  0
  3  4  1  0
  4  5  2  0
  5  6  1  0
  6  7  2  0
  7  8  1  0
  7  9  1  0
  9 10  1  0
  9 11  2  0
 11 12  1  0
 12 13  1  0
 13 14  1  0
 13 15  1  0
 13 16  1  0
 16 17  1  0
 16 18  1  0
 16 19  1  0
 11 20  1  0
 20 21  1  0
 21 22  2  0
 21 23  1  0
 23 24  2  3
 24 25  1  0
 25 26  1  0
 25 27  2  0
 27 28  1  0
 28 29  2  0
 28 30  1  0
 30 31  1  0
 30 32  1  0
 32 33  1  0
 32 34  1  0
 32 35  1  0
 35 36  1  0
 35 37  1  0
 35 38  1  0
 27 39  1  0
 39 40  1  0
 40 41  1  0
 41 42  2  0
 42 43  1  0
 42 44  1  0
 44 45  1  0
 44 46  2  0
 46 47  1  0
 46 48  1  0
 48 49  1  0
 48 50  2  0
 50 51  1  0
 20 52  2  0
 52 53  1  0
  5 54  1  0
 54 55  1  0
 54 56  2  0
 56 57  1  0
 56 58  1  0
 58  3  1  0
 52  6  1  0
 40 24  1  0
 50 41  1  0
M  CHG  2  39  -1  58  -1
M  END
>  <UniqueID>  (79) 
67

>  <SMILES>  (79) 
[H]/N=c1/nc(-c2ccc(OCC)c(C(=O)N=c3cc(C(=O)NCC)[n-]n3-c3ccccc3)c2)cc[n-]1

>  <Energy>  (79) 
107.92626925438228

>  <Genealogy>  (79) 
CCNC(=O)c1cc(=NC(=O)c2cc(-c3cc[n-]c(=N)n3)ccc2OCC)n(-c2ccccc2)[n-]1 (protonated)
[H]/N=c1/nc(-c2ccc(OCC)c(C(=O)N=c3cc(C(=O)NCC)[n-]n3-c3ccccc3)c2)cc[n-]1 (cis-trans isomerization)
[H]/N=c1/nc(-c2ccc(OCC)c(C(=O)N=c3cc(C(=O)NCC)[n-]n3-c3ccccc3)c2)cc[n-]1 (3D coordinates assigned)
[H]/N=c1/nc(-c2ccc(OCC)c(C(=O)N=c3cc(C(=O)NCC)[n-]n3-c3ccccc3)c2)cc[n-]1 (optimized conformer: 107.92626925438228 kcal/mol)

>  <smiles>  (79) 
CCNC(=O)c1cc(=NC(=O)c2cc(-c3cc[nH]c(=N)n3)ccc2OCC)n(-c2ccccc2)[nH]1

>  <score_type>  (79) 
oracle

>  <origin>  (79) 
adg

>  <m_score__min__energy>  (79) 
-11.970000000000001

>  <m_primary>  (79) 
energy

$$$$
79:0
     RDKit          3D

 58 62  0  0  0  0  0  0  0  0999 V2000
   61.7090   30.6510   47.5020 C   0  0  0  0  0  0  0  0  0  0  0  0
   60.7790   29.6880   46.7670 C   0  0  0  0  0  0  0  0  0  0  0  0
   59.8370   29.0390   47.7100 N   0  0  0  0  0  0  0  0  0  0  0  0
   59.8600   27.5580   47.5900 C   0  0  0  0  0  0  0  0  0  0  0  0
   58.4270   27.0400   47.4340 C   0  0  0  0  0  0  0  0  0  0  0  0
   58.1530   26.5750   46.0000 C   0  0  0  0  0  0  0  0  0  0  0  0
   56.7640   26.0170   45.8940 C   0  0  0  0  0  0  0  0  0  0  0  0
   55.5950   26.7200   45.6390 C   0  0  0  0  0  0  0  0  0  0  0  0
   55.5380   28.0790   45.3550 O   0  0  0  0  0  0  0  0  0  0  0  0
   54.4950   25.9350   45.7140 N   0  0  0  0  0  0  0  0  0  0  0  0
   54.9830   24.7220   46.0370 C   0  0  0  0  0  0  0  0  0  0  0  0
   54.2430   23.5650   46.2580 C   0  0  0  0  0  0  0  0  0  0  0  0
   54.9340   22.3960   46.6230 C   0  0  0  0  0  0  0  0  0  0  0  0
   56.3490   22.3960   46.7650 C   0  0  0  0  0  0  0  0  0  0  0  0
   57.0460   21.1910   47.1410 N   0  0  0  0  0  0  0  0  0  0  0  0
   57.7840   20.3730   46.3590 C   0  0  0  0  0  0  0  0  0  0  0  0
   58.2880   19.3430   47.0650 N   0  0  0  0  0  0  0  0  0  0  0  0
   57.8700   19.5070   48.3100 N   0  0  0  0  0  0  0  0  0  0  0  0
   57.1200   20.6190   48.3600 C   0  0  0  0  0  0  0  0  0  0  0  0
   57.0660   23.5930   46.5300 C   0  0  0  0  0  0  0  0  0  0  0  0
   56.3490   24.7320   46.1640 C   0  0  0  0  0  0  0  0  0  0  0  0
   58.4650   29.5790   47.5460 C   0  0  0  0  0  0  0  0  0  0  0  0
   58.4890   30.9460   46.8900 C   0  0  0  0  0  0  0  0  0  0  0  0
   58.9480   32.0420   47.6420 C   0  0  0  0  0  0  0  0  0  0  0  0
   59.0440   33.3110   47.0740 C   0  0  0  0  0  0  0  0  0  0  0  0
   58.6890   33.5150   45.7430 C   0  0  0  0  0  0  0  0  0  0  0  0
   58.2270   32.4450   44.9630 C   0  0  0  0  0  0  0  0  0  0  0  0
   57.8820   32.6570   43.6190 C   0  0  0  0  0  0  0  0  0  0  0  0
   57.4310   31.5970   42.8330 C   0  0  0  0  0  0  0  0  0  0  0  0
   57.3170   30.3200   43.3790 C   0  0  0  0  0  0  0  0  0  0  0  0
   57.6530   30.0920   44.7170 C   0  0  0  0  0  0  0  0  0  0  0  0
   58.1170   31.1460   45.5310 C   0  0  0  0  0  0  0  0  0  0  0  0
   61.5856   30.5232   48.5876 H   0  0  0  0  0  0  0  0  0  0  0  0
   62.7517   30.4378   47.2239 H   0  0  0  0  0  0  0  0  0  0  0  0
   61.4596   31.6856   47.2239 H   0  0  0  0  0  0  0  0  0  0  0  0
   60.2056   30.2465   46.0124 H   0  0  0  0  0  0  0  0  0  0  0  0
   61.3886   28.9084   46.2869 H   0  0  0  0  0  0  0  0  0  0  0  0
   60.4527   27.2700   46.7092 H   0  0  0  0  0  0  0  0  0  0  0  0
   60.3129   27.1223   48.4928 H   0  0  0  0  0  0  0  0  0  0  0  0
   58.2760   26.1932   48.1197 H   0  0  0  0  0  0  0  0  0  0  0  0
   57.7346   27.8617   47.6695 H   0  0  0  0  0  0  0  0  0  0  0  0
   58.2548   27.4296   45.3149 H   0  0  0  0  0  0  0  0  0  0  0  0
   58.8767   25.7912   45.7318 H   0  0  0  0  0  0  0  0  0  0  0  0
   53.1483   23.5646   46.1503 H   0  0  0  0  0  0  0  0  0  0  0  0
   54.3716   21.4676   46.8014 H   0  0  0  0  0  0  0  0  0  0  0  0
   57.9517   20.5285   45.2830 H   0  0  0  0  0  0  0  0  0  0  0  0
   58.1020   18.8710   49.1050 H   0  0  0  0  0  0  0  0  0  0  0  0
   56.6344   21.0086   49.2669 H   0  0  0  0  0  0  0  0  0  0  0  0
   58.1607   23.6245   46.6333 H   0  0  0  0  0  0  0  0  0  0  0  0
   57.8808   28.8900   46.9184 H   0  0  0  0  0  0  0  0  0  0  0  0
   58.0082   29.6782   48.5417 H   0  0  0  0  0  0  0  0  0  0  0  0
   59.2354   31.8956   48.6936 H   0  0  0  0  0  0  0  0  0  0  0  0
   59.4021   34.1561   47.6803 H   0  0  0  0  0  0  0  0  0  0  0  0
   58.7713   34.5193   45.3017 H   0  0  0  0  0  0  0  0  0  0  0  0
   57.9678   33.6636   43.1839 H   0  0  0  0  0  0  0  0  0  0  0  0
   57.1647   31.7693   41.7797 H   0  0  0  0  0  0  0  0  0  0  0  0
   56.9610   29.4874   42.7545 H   0  0  0  0  0  0  0  0  0  0  0  0
   57.5545   29.0808   45.1387 H   0  0  0  0  0  0  0  0  0  0  0  0
  1  2  1  0
  2  3  1  0
  3  4  1  0
  4  5  1  0
  5  6  1  0
  6  7  1  0
  7  8  2  0
  8  9  1  0
  8 10  1  0
 10 11  1  0
 11 12  2  0
 12 13  1  0
 13 14  2  0
 14 15  1  0
 15 16  1  0
 16 17  2  0
 17 18  1  0
 18 19  2  0
 14 20  1  0
 20 21  2  0
  3 22  1  0
 22 23  1  0
 23 24  2  0
 24 25  1  0
 25 26  2  0
 26 27  1  0
 27 28  2  0
 28 29  1  0
 29 30  2  0
 30 31  1  0
 31 32  2  0
 21  7  1  0
 32 23  1  0
 21 11  1  0
 32 27  1  0
 19 15  1  0
  1 33  1  0
  1 34  1  0
  1 35  1  0
  2 36  1  0
  2 37  1  0
  4 38  1  0
  4 39  1  0
  5 40  1  0
  5 41  1  0
  6 42  1  0
  6 43  1  0
 12 44  1  0
 13 45  1  0
 16 46  1  0
 18 47  1  0
 19 48  1  0
 20 49  1  0
 22 50  1  0
 22 51  1  0
 24 52  1  0
 25 53  1  0
 26 54  1  0
 28 55  1  0
 29 56  1  0
 30 57  1  0
 31 58  1  0
M  CHG  3   9  -1  10  -1  18   1
M  END
>  <UniqueID>  (80) 
68

>  <SMILES>  (80) 
CCN(CCCc1c([O-])[n-]c2ccc(-n3cn[nH+]c3)cc12)Cc1cccc2ccccc12

>  <Energy>  (80) 
135.43572251768137

>  <Genealogy>  (80) 
CCN(CCCc1c([O-])[n-]c2ccc(-n3cn[nH+]c3)cc12)Cc1cccc2ccccc12 (protonated)
CCN(CCCc1c([O-])[n-]c2ccc(-n3cn[nH+]c3)cc12)Cc1cccc2ccccc12 (3D coordinates assigned)
CCN(CCCc1c([O-])[n-]c2ccc(-n3cn[nH+]c3)cc12)Cc1cccc2ccccc12 (optimized conformer: 135.43572251768137 kcal/mol)

>  <smiles>  (80) 
CCN(CCCc1c(O)[nH]c2ccc(-n3cnnc3)cc12)Cc1cccc2ccccc12

>  <score_type>  (80) 
oracle

>  <origin>  (80) 
adg

>  <m_score__min__energy>  (80) 
-11.75

>  <m_primary>  (80) 
energy

$$$$
80:0
     RDKit          3D

 50 51  0  0  0  0  0  0  0  0999 V2000
   57.9164   28.9164   44.5922 H   0  0  0  0  0  0  0  0  0  0  0  0
   58.1740   29.6240   45.3940 C   0  0  0  0  0  0  0  0  0  0  0  0
   58.0430   31.0010   45.1800 C   0  0  0  0  0  0  0  0  0  0  0  0
   57.6610   31.3713   44.2172 H   0  0  0  0  0  0  0  0  0  0  0  0
   58.3960   31.9100   46.1860 C   0  0  0  0  0  0  0  0  0  0  0  0
   58.1800   33.6380   45.9280 S   0  0  0  0  0  0  0  0  0  0  0  0
   58.5240   34.3820   47.1880 O   0  0  0  0  0  0  0  0  0  0  0  0
   56.7500   33.9300   45.5700 O   0  0  0  0  0  0  0  0  0  0  0  0
   59.2100   34.1630   44.6430 N   0  0  0  0  0  0  0  0  0  0  0  0
   60.1660   33.8050   44.8550 H   0  0  0  0  0  0  0  0  0  0  0  0
   59.2590   35.2040   44.6990 H   0  0  0  0  0  0  0  0  0  0  0  0
   58.8900   31.4310   47.4060 C   0  0  0  0  0  0  0  0  0  0  0  0
   59.1814   32.1396   48.1953 H   0  0  0  0  0  0  0  0  0  0  0  0
   59.0140   30.0570   47.6240 C   0  0  0  0  0  0  0  0  0  0  0  0
   59.4121   29.6871   48.5804 H   0  0  0  0  0  0  0  0  0  0  0  0
   58.6320   29.1470   46.6260 C   0  0  0  0  0  0  0  0  0  0  0  0
   58.7660   27.7370   46.8440 N   0  0  0  0  0  0  0  0  0  0  0  0
   57.9920   26.7860   46.3930 C   0  0  0  0  0  0  0  0  0  0  0  0
   56.6500   26.9890   46.4290 N   0  0  0  0  0  0  0  0  0  0  0  0
   55.7730   26.0810   45.9400 C   0  0  0  0  0  0  0  0  0  0  0  0
   54.4090   26.3330   45.9940 O   0  0  0  0  0  0  0  0  0  0  0  0
   56.2470   24.8990   45.3770 C   0  0  0  0  0  0  0  0  0  0  0  0
   55.5408   24.1735   44.9470 H   0  0  0  0  0  0  0  0  0  0  0  0
   57.5890   24.6390   45.3580 N   0  0  0  0  0  0  0  0  0  0  0  0
   58.0550   23.3730   44.7620 C   0  0  0  0  0  0  0  0  0  0  0  0
   59.1006   23.2026   45.0583 H   0  0  0  0  0  0  0  0  0  0  0  0
   57.9644   23.4538   43.6687 H   0  0  0  0  0  0  0  0  0  0  0  0
   57.2020   22.1780   45.2290 C   0  0  0  0  0  0  0  0  0  0  0  0
   57.6455   21.2583   44.8198 H   0  0  0  0  0  0  0  0  0  0  0  0
   56.1803   22.3610   44.8649 H   0  0  0  0  0  0  0  0  0  0  0  0
   57.1020   22.0250   46.7590 C   0  0  0  0  0  0  0  0  0  0  0  0
   57.6723   22.8380   47.2321 H   0  0  0  0  0  0  0  0  0  0  0  0
   57.5083   21.0371   47.0215 H   0  0  0  0  0  0  0  0  0  0  0  0
   55.6520   22.0810   47.2670 C   0  0  0  0  0  0  0  0  0  0  0  0
   55.5070   23.0098   47.8383 H   0  0  0  0  0  0  0  0  0  0  0  0
   55.4707   21.2030   47.9044 H   0  0  0  0  0  0  0  0  0  0  0  0
   54.6570   22.0500   46.1000 C   0  0  0  0  0  0  0  0  0  0  0  0
   54.1043   21.0992   46.1229 H   0  0  0  0  0  0  0  0  0  0  0  0
   55.2166   22.1459   45.1578 H   0  0  0  0  0  0  0  0  0  0  0  0
   53.6610   23.2130   46.2000 C   0  0  0  0  0  0  0  0  0  0  0  0
   54.1402   24.0513   46.7269 H   0  0  0  0  0  0  0  0  0  0  0  0
   52.7739   22.8651   46.7496 H   0  0  0  0  0  0  0  0  0  0  0  0
   53.2170   23.6840   44.8120 C   0  0  0  0  0  0  0  0  0  0  0  0
   52.7876   22.8348   44.2603 H   0  0  0  0  0  0  0  0  0  0  0  0
   54.0892   24.0806   44.2716 H   0  0  0  0  0  0  0  0  0  0  0  0
   52.2140   24.7360   44.9340 N   0  0  0  0  0  0  0  0  0  0  0  0
   52.6940   25.5960   45.2850 H   0  0  0  0  0  0  0  0  0  0  0  0
   51.8580   24.9640   43.9760 H   0  0  0  0  0  0  0  0  0  0  0  0
   58.4740   25.5510   45.8800 C   0  0  0  0  0  0  0  0  0  0  0  0
   59.7030   25.2700   45.9330 O   0  0  0  0  0  0  0  0  0  0  0  0
  1  2  1  0
  2  3  2  0
  3  4  1  0
  3  5  1  0
  5  6  1  0
  6  7  2  0
  6  8  2  0
  6  9  1  0
  9 10  1  0
  9 11  1  0
  5 12  2  0
 12 13  1  0
 12 14  1  0
 14 15  1  0
 14 16  2  0
 16 17  1  0
 17 18  2  0
 18 19  1  0
 19 20  1  0
 20 21  1  0
 20 22  2  0
 22 23  1  0
 22 24  1  0
 24 25  1  0
 25 26  1  0
 25 27  1  0
 25 28  1  0
 28 29  1  0
 28 30  1  0
 28 31  1  0
 31 32  1  0
 31 33  1  0
 31 34  1  0
 34 35  1  0
 34 36  1  0
 34 37  1  0
 37 38  1  0
 37 39  1  0
 37 40  1  0
 40 41  1  0
 40 42  1  0
 40 43  1  0
 43 44  1  0
 43 45  1  0
 43 46  1  0
 46 47  1  0
 46 48  1  0
 24 49  1  0
 49 50  2  0
 16  2  1  0
 49 18  1  0
M  CHG  2  19  -1  21  -1
M  END
>  <UniqueID>  (81) 
69

>  <SMILES>  (81) 
NCCCCCCCn1cc([O-])[n-]/c(=N/c2ccc(S(N)(=O)=O)cc2)c1=O

>  <Energy>  (81) 
49.05775160218055

>  <Genealogy>  (81) 
NCCCCCCCn1cc([O-])[n-]c(=Nc2ccc(S(N)(=O)=O)cc2)c1=O (protonated)
NCCCCCCCn1cc([O-])[n-]/c(=N/c2ccc(S(N)(=O)=O)cc2)c1=O (cis-trans isomerization)
NCCCCCCCn1cc([O-])[n-]/c(=N/c2ccc(S(N)(=O)=O)cc2)c1=O (3D coordinates assigned)
NCCCCCCCn1cc([O-])[n-]/c(=N/c2ccc(S(N)(=O)=O)cc2)c1=O (optimized conformer: 49.05775160218055 kcal/mol)

>  <smiles>  (81) 
NCCCCCCCn1cc(O)[nH]c(=Nc2ccc(S(N)(=O)=O)cc2)c1=O

>  <score_type>  (81) 
oracle

>  <origin>  (81) 
adg

>  <m_score__min__energy>  (81) 
-11.869999999999999

>  <m_primary>  (81) 
energy

$$$$
81:0
     RDKit          3D

 42 43  0  0  0  0  0  0  0  0999 V2000
   63.1730   33.8640   46.3750 C   0  0  0  0  0  0  0  0  0  0  0  0
   62.8580   33.1760   47.4790 C   0  0  0  0  0  0  0  0  0  0  0  0
   63.1360   31.6990   47.5460 C   0  0  0  0  0  0  0  0  0  0  0  0
   62.2990   33.8680   48.6620 C   0  0  0  0  0  0  0  0  0  0  0  0
   63.0390   34.6160   49.3570 O   0  0  0  0  0  0  0  0  0  0  0  0
   60.9510   33.6960   49.0050 O   0  0  0  0  0  0  0  0  0  0  0  0
   59.9120   34.5660   48.5630 C   0  0  0  0  0  0  0  0  0  0  0  0
   59.3920   34.1250   47.2310 C   0  0  0  0  0  0  0  0  0  0  0  0
   59.6860   34.7190   46.0100 C   0  0  0  0  0  0  0  0  0  0  0  0
   59.0690   34.0850   44.9260 C   0  0  0  0  0  0  0  0  0  0  0  0
   58.2940   32.9900   45.3000 C   0  0  0  0  0  0  0  0  0  0  0  0
   57.5810   32.0880   44.3920 C   0  0  0  0  0  0  0  0  0  0  0  0
   58.0880   31.7890   43.2760 O   0  0  0  0  0  0  0  0  0  0  0  0
   56.3480   31.5500   44.7800 O   0  0  0  0  0  0  0  0  0  0  0  0
   55.7440   30.4360   44.1290 C   0  0  0  0  0  0  0  0  0  0  0  0
   56.5410   29.2030   44.4160 C   0  0  0  0  0  0  0  0  0  0  0  0
   56.0990   28.3570   45.2390 O   0  0  0  0  0  0  0  0  0  0  0  0
   57.8450   29.0390   43.8420 N   0  0  0  0  0  0  0  0  0  0  0  0
   58.9030   28.3220   44.5450 C   0  0  0  0  0  0  0  0  0  0  0  0
   59.2060   29.0170   45.8340 C   0  0  0  0  0  0  0  0  0  0  0  0
   60.3610   29.7150   46.1250 C   0  0  0  0  0  0  0  0  0  0  0  0
   60.2280   30.1210   47.4350 C   0  0  0  0  0  0  0  0  0  0  0  0
   59.0020   29.6490   47.8600 C   0  0  0  0  0  0  0  0  0  0  0  0
   58.4180   28.9910   46.8850 O   0  0  0  0  0  0  0  0  0  0  0  0
   58.3780   32.8080   46.9700 S   0  0  0  0  0  0  0  0  0  0  0  0
   62.9707   34.9440   46.3236 H   0  0  0  0  0  0  0  0  0  0  0  0
   63.6342   33.3494   45.5191 H   0  0  0  0  0  0  0  0  0  0  0  0
   63.1952   31.3844   48.5984 H   0  0  0  0  0  0  0  0  0  0  0  0
   62.3254   31.1502   47.0443 H   0  0  0  0  0  0  0  0  0  0  0  0
   64.0907   31.4825   47.0443 H   0  0  0  0  0  0  0  0  0  0  0  0
   59.0912   34.5512   49.2952 H   0  0  0  0  0  0  0  0  0  0  0  0
   60.3165   35.5845   48.4681 H   0  0  0  0  0  0  0  0  0  0  0  0
   60.3380   35.5988   45.9060 H   0  0  0  0  0  0  0  0  0  0  0  0
   59.1844   34.4178   43.8839 H   0  0  0  0  0  0  0  0  0  0  0  0
   54.7175   30.3049   44.5019 H   0  0  0  0  0  0  0  0  0  0  0  0
   55.7181   30.6134   43.0437 H   0  0  0  0  0  0  0  0  0  0  0  0
   58.1100   29.6190   43.0140 H   0  0  0  0  0  0  0  0  0  0  0  0
   58.5735   27.2931   44.7520 H   0  0  0  0  0  0  0  0  0  0  0  0
   59.8078   28.2989   43.9198 H   0  0  0  0  0  0  0  0  0  0  0  0
   61.2097   29.9069   45.4520 H   0  0  0  0  0  0  0  0  0  0  0  0
   60.9522   30.7035   48.0234 H   0  0  0  0  0  0  0  0  0  0  0  0
   58.5784   29.8011   48.8637 H   0  0  0  0  0  0  0  0  0  0  0  0
  1  2  2  0
  2  3  1  0
  2  4  1  0
  4  5  2  0
  4  6  1  0
  6  7  1  0
  7  8  1  0
  8  9  2  0
  9 10  1  0
 10 11  2  0
 11 12  1  0
 12 13  2  0
 12 14  1  0
 14 15  1  0
 15 16  1  0
 16 17  2  0
 16 18  1  0
 18 19  1  0
 19 20  1  0
 20 21  2  0
 21 22  1  0
 22 23  2  0
 23 24  1  0
 11 25  1  0
 25  8  1  0
 24 20  1  0
  1 26  1  0
  1 27  1  0
  3 28  1  0
  3 29  1  0
  3 30  1  0
  7 31  1  0
  7 32  1  0
  9 33  1  0
 10 34  1  0
 15 35  1  0
 15 36  1  0
 18 37  1  0
 19 38  1  0
 19 39  1  0
 21 40  1  0
 22 41  1  0
 23 42  1  0
M  END
>  <UniqueID>  (82) 
70

>  <SMILES>  (82) 
C=C(C)C(=O)OCc1ccc(C(=O)OCC(=O)NCc2ccco2)s1

>  <Energy>  (82) 
80.65592466919841

>  <Genealogy>  (82) 
C=C(C)C(=O)OCc1ccc(C(=O)OCC(=O)NCc2ccco2)s1 (3D coordinates assigned)
C=C(C)C(=O)OCc1ccc(C(=O)OCC(=O)NCc2ccco2)s1 (optimized conformer: 80.65592466919841 kcal/mol)

>  <smiles>  (82) 
C=C(C)C(=O)OCc1ccc(C(=O)OCC(=O)NCc2ccco2)s1

>  <score_type>  (82) 
oracle

>  <origin>  (82) 
adg

>  <m_score__min__energy>  (82) 
-7.1299999999999999

>  <m_primary>  (82) 
energy

$$$$
82:0
     RDKit          3D

 43 45  0  0  0  0  0  0  0  0999 V2000
   59.2350   29.7290   49.5040 O   0  0  0  0  0  0  0  0  0  0  0  0
   60.0760   30.0090   48.6060 C   0  0  0  0  0  0  0  0  0  0  0  0
   61.3470   30.4920   48.9510 O   0  0  0  0  0  0  0  0  0  0  0  0
   61.9640   31.6250   48.3990 C   0  0  0  0  0  0  0  0  0  0  0  0
   63.0560   31.5310   47.5140 C   0  0  0  0  0  0  0  0  0  0  0  0
   63.6470   32.6890   47.0000 C   0  0  0  0  0  0  0  0  0  0  0  0
   63.1640   33.9460   47.3700 C   0  0  0  0  0  0  0  0  0  0  0  0
   62.0930   34.0480   48.2620 C   0  0  0  0  0  0  0  0  0  0  0  0
   61.5000   32.8920   48.7800 C   0  0  0  0  0  0  0  0  0  0  0  0
   60.4640   33.0030   49.6480 F   0  0  0  0  0  0  0  0  0  0  0  0
   59.7440   29.7750   47.1830 C   0  0  0  0  0  0  0  0  0  0  0  0
   60.3440   28.7230   46.4700 C   0  0  0  0  0  0  0  0  0  0  0  0
   60.0200   28.5050   45.1290 C   0  0  0  0  0  0  0  0  0  0  0  0
   59.0930   29.3270   44.4870 C   0  0  0  0  0  0  0  0  0  0  0  0
   58.4800   30.3750   45.1840 C   0  0  0  0  0  0  0  0  0  0  0  0
   57.2850   31.3990   44.3810 S   0  0  0  0  0  0  0  0  0  0  0  0
   55.9050   30.9640   44.7910 O   0  0  0  0  0  0  0  0  0  0  0  0
   57.4050   31.2260   42.8920 O   0  0  0  0  0  0  0  0  0  0  0  0
   57.5040   33.0840   44.7930 N   0  0  0  0  0  0  0  0  0  0  0  0
   57.0210   33.3780   46.1660 C   0  0  0  0  0  0  0  0  0  0  0  0
   58.1610   33.5240   47.1840 C   0  0  0  0  0  0  0  0  0  0  0  0
   59.1340   34.6440   46.7720 C   0  0  0  0  0  0  0  0  0  0  0  0
   59.2370   34.8110   45.2460 C   0  0  0  0  0  0  0  0  0  0  0  0
   58.8970   33.5030   44.5250 C   0  0  0  0  0  0  0  0  0  0  0  0
   58.8130   30.6010   46.5280 C   0  0  0  0  0  0  0  0  0  0  0  0
   63.4450   30.5431   47.2264 H   0  0  0  0  0  0  0  0  0  0  0  0
   64.4941   32.6099   46.3028 H   0  0  0  0  0  0  0  0  0  0  0  0
   63.6265   34.8557   46.9594 H   0  0  0  0  0  0  0  0  0  0  0  0
   61.7160   35.0384   48.5570 H   0  0  0  0  0  0  0  0  0  0  0  0
   61.0724   28.0681   46.9705 H   0  0  0  0  0  0  0  0  0  0  0  0
   60.4974   27.6821   44.5768 H   0  0  0  0  0  0  0  0  0  0  0  0
   58.8432   29.1510   43.4303 H   0  0  0  0  0  0  0  0  0  0  0  0
   56.4491   34.3174   46.1429 H   0  0  0  0  0  0  0  0  0  0  0  0
   56.4007   32.5278   46.4860 H   0  0  0  0  0  0  0  0  0  0  0  0
   57.7341   33.7637   48.1691 H   0  0  0  0  0  0  0  0  0  0  0  0
   58.7172   32.5758   47.2232 H   0  0  0  0  0  0  0  0  0  0  0  0
   58.7836   35.5918   47.2067 H   0  0  0  0  0  0  0  0  0  0  0  0
   60.1322   34.3697   47.1439 H   0  0  0  0  0  0  0  0  0  0  0  0
   58.5348   35.5932   44.9218 H   0  0  0  0  0  0  0  0  0  0  0  0
   60.2704   35.0911   44.9937 H   0  0  0  0  0  0  0  0  0  0  0  0
   59.0249   33.6478   43.4421 H   0  0  0  0  0  0  0  0  0  0  0  0
   59.5717   32.7178   44.8968 H   0  0  0  0  0  0  0  0  0  0  0  0
   58.3418   31.4314   47.0742 H   0  0  0  0  0  0  0  0  0  0  0  0
  1  2  2  0
  2  3  1  0
  3  4  1  0
  4  5  2  0
  5  6  1  0
  6  7  2  0
  7  8  1  0
  8  9  2  0
  9 10  1  0
  2 11  1  0
 11 12  2  0
 12 13  1  0
 13 14  2  0
 14 15  1  0
 15 16  1  0
 16 17  2  0
 16 18  2  0
 16 19  1  0
 19 20  1  0
 20 21  1  0
 21 22  1  0
 22 23  1  0
 23 24  1  0
 15 25  2  0
  9  4  1  0
 25 11  1  0
 24 19  1  0
  5 26  1  0
  6 27  1  0
  7 28  1  0
  8 29  1  0
 12 30  1  0
 13 31  1  0
 14 32  1  0
 20 33  1  0
 20 34  1  0
 21 35  1  0
 21 36  1  0
 22 37  1  0
 22 38  1  0
 23 39  1  0
 23 40  1  0
 24 41  1  0
 24 42  1  0
 25 43  1  0
M  END
>  <UniqueID>  (83) 
71

>  <SMILES>  (83) 
O=C(Oc1ccccc1F)c1cccc(S(=O)(=O)N2CCCCC2)c1

>  <Energy>  (83) 
53.89064791351403

>  <Genealogy>  (83) 
O=C(Oc1ccccc1F)c1cccc(S(=O)(=O)N2CCCCC2)c1 (3D coordinates assigned)
O=C(Oc1ccccc1F)c1cccc(S(=O)(=O)N2CCCCC2)c1 (nonaromatic ring conformer: 53.89064791351403 kcal/mol)

>  <smiles>  (83) 
O=C(Oc1ccccc1F)c1cccc(S(=O)(=O)N2CCCCC2)c1

>  <score_type>  (83) 
oracle

>  <origin>  (83) 
adg

>  <m_score__min__energy>  (83) 
-9.4000000000000004

>  <m_primary>  (83) 
energy

$$$$
83:0
     RDKit          3D

 41 42  0  0  0  0  0  0  0  0999 V2000
   61.3770   32.5250   51.9610 C   0  0  0  0  0  0  0  0  0  0  0  0
   60.6760   33.3810   51.0630 O   0  0  0  0  0  0  0  0  0  0  0  0
   60.7650   33.3180   49.6610 C   0  0  0  0  0  0  0  0  0  0  0  0
   61.9840   33.5840   49.0000 C   0  0  0  0  0  0  0  0  0  0  0  0
   62.0800   33.5140   47.6050 C   0  0  0  0  0  0  0  0  0  0  0  0
   63.3580   33.7740   46.9100 C   0  0  0  0  0  0  0  0  0  0  0  0
   63.4100   33.8770   45.6560 O   0  0  0  0  0  0  0  0  0  0  0  0
   60.9460   33.1910   46.8590 C   0  0  0  0  0  0  0  0  0  0  0  0
   59.7210   32.9380   47.4860 C   0  0  0  0  0  0  0  0  0  0  0  0
   58.3120   32.5620   46.4840 S   0  0  0  0  0  0  0  0  0  0  0  0
   57.1600   33.4580   46.8390 O   0  0  0  0  0  0  0  0  0  0  0  0
   58.6700   32.7830   45.0410 O   0  0  0  0  0  0  0  0  0  0  0  0
   57.8130   30.9150   46.6980 N   0  0  0  0  0  0  0  0  0  0  0  0
   58.4290   29.7700   46.0930 C   0  0  0  0  0  0  0  0  0  0  0  0
   59.6050   29.2000   46.6240 C   0  0  0  0  0  0  0  0  0  0  0  0
   60.1890   28.0890   46.0140 C   0  0  0  0  0  0  0  0  0  0  0  0
   59.6090   27.5310   44.8740 C   0  0  0  0  0  0  0  0  0  0  0  0
   58.4400   28.0810   44.3420 C   0  0  0  0  0  0  0  0  0  0  0  0
   57.8430   29.1980   44.9450 C   0  0  0  0  0  0  0  0  0  0  0  0
   56.3770   29.8930   44.2400 S   0  0  0  0  0  0  0  0  0  0  0  0
   56.3540   31.6030   44.5090 N   0  0  0  0  0  0  0  0  0  0  0  0
   55.1550   29.2850   44.8730 O   0  0  0  0  0  0  0  0  0  0  0  0
   56.3550   29.6150   42.7640 O   0  0  0  0  0  0  0  0  0  0  0  0
   59.6170   32.9840   48.8900 C   0  0  0  0  0  0  0  0  0  0  0  0
   58.3600   32.6910   49.4570 O   0  0  0  0  0  0  0  0  0  0  0  0
   58.0990   31.8140   50.5480 C   0  0  0  0  0  0  0  0  0  0  0  0
   61.1433   32.8104   52.9973 H   0  0  0  0  0  0  0  0  0  0  0  0
   61.0695   31.4829   51.7894 H   0  0  0  0  0  0  0  0  0  0  0  0
   62.4593   32.6210   51.7894 H   0  0  0  0  0  0  0  0  0  0  0  0
   62.8728   33.8506   49.5907 H   0  0  0  0  0  0  0  0  0  0  0  0
   64.2810   33.8795   47.4990 H   0  0  0  0  0  0  0  0  0  0  0  0
   61.0160   33.1345   45.7627 H   0  0  0  0  0  0  0  0  0  0  0  0
   60.0645   29.6339   47.5243 H   0  0  0  0  0  0  0  0  0  0  0  0
   61.1079   27.6525   46.4324 H   0  0  0  0  0  0  0  0  0  0  0  0
   60.0728   26.6569   44.3936 H   0  0  0  0  0  0  0  0  0  0  0  0
   57.9851   27.6355   43.4450 H   0  0  0  0  0  0  0  0  0  0  0  0
   56.7260   31.7710   45.4720 H   0  0  0  0  0  0  0  0  0  0  0  0
   57.0380   32.0290   43.8410 H   0  0  0  0  0  0  0  0  0  0  0  0
   58.2584   32.3498   51.4954 H   0  0  0  0  0  0  0  0  0  0  0  0
   57.0576   31.4636   50.4957 H   0  0  0  0  0  0  0  0  0  0  0  0
   58.7793   30.9512   50.4957 H   0  0  0  0  0  0  0  0  0  0  0  0
  1  2  1  0
  2  3  1  0
  3  4  2  0
  4  5  1  0
  5  6  1  0
  6  7  2  0
  5  8  2  0
  8  9  1  0
  9 10  1  0
 10 11  2  0
 10 12  2  0
 10 13  1  0
 13 14  1  0
 14 15  2  0
 15 16  1  0
 16 17  2  0
 17 18  1  0
 18 19  2  0
 19 20  1  0
 20 21  1  0
 20 22  2  0
 20 23  2  0
  9 24  2  0
 24 25  1  0
 25 26  1  0
 24  3  1  0
 19 14  1  0
  1 27  1  0
  1 28  1  0
  1 29  1  0
  4 30  1  0
  6 31  1  0
  8 32  1  0
 15 33  1  0
 16 34  1  0
 17 35  1  0
 18 36  1  0
 21 37  1  0
 21 38  1  0
 26 39  1  0
 26 40  1  0
 26 41  1  0
M  CHG  1  13  -1
M  END
>  <UniqueID>  (84) 
72

>  <SMILES>  (84) 
COc1cc(C=O)cc(S(=O)(=O)[N-]c2ccccc2S(N)(=O)=O)c1OC

>  <Energy>  (84) 
46.18276301155869

>  <Genealogy>  (84) 
COc1cc(C=O)cc(S(=O)(=O)[N-]c2ccccc2S(N)(=O)=O)c1OC (protonated)
COc1cc(C=O)cc(S(=O)(=O)[N-]c2ccccc2S(N)(=O)=O)c1OC (3D coordinates assigned)
COc1cc(C=O)cc(S(=O)(=O)[N-]c2ccccc2S(N)(=O)=O)c1OC (optimized conformer: 46.18276301155869 kcal/mol)

>  <smiles>  (84) 
COc1cc(C=O)cc(S(=O)(=O)Nc2ccccc2S(N)(=O)=O)c1OC

>  <score_type>  (84) 
oracle

>  <origin>  (84) 
adg

>  <m_score__min__energy>  (84) 
-8.9700000000000006

>  <m_primary>  (84) 
energy

$$$$
84:0
     RDKit          3D

 21 22  0  0  0  0  0  0  0  0999 V2000
   52.2270   31.0340   53.6830 O   0  0  0  0  0  0  0  0  0  0  0  0
   52.8460   30.7970   52.6110 C   0  0  0  0  0  0  0  0  0  0  0  0
   54.2750   30.4150   52.6760 C   0  0  0  0  0  0  0  0  0  0  0  0
   54.6820   29.2630   53.3730 C   0  0  0  0  0  0  0  0  0  0  0  0
   56.0320   28.8980   53.4070 C   0  0  0  0  0  0  0  0  0  0  0  0
   56.9830   29.6720   52.7380 C   0  0  0  0  0  0  0  0  0  0  0  0
   56.5870   30.8070   52.0260 C   0  0  0  0  0  0  0  0  0  0  0  0
   55.2380   31.1750   51.9890 C   0  0  0  0  0  0  0  0  0  0  0  0
   52.1160   30.9200   51.3330 C   0  0  0  0  0  0  0  0  0  0  0  0
   52.1930   30.0260   50.3330 N   0  0  0  0  0  0  0  0  0  0  0  0
   51.4190   30.5360   49.3540 C   0  0  0  0  0  0  0  0  0  0  0  0
   51.2420   29.9600   48.2500 O   0  0  0  0  0  0  0  0  0  0  0  0
   50.8550   31.7240   49.6610 N   0  0  0  0  0  0  0  0  0  0  0  0
   51.3080   31.9580   50.9070 C   0  0  0  0  0  0  0  0  0  0  0  0
   51.0150   33.1140   51.6220 O   0  0  0  0  0  0  0  0  0  0  0  0
   53.9350   28.6461   53.8939 H   0  0  0  0  0  0  0  0  0  0  0  0
   56.3449   28.0007   53.9610 H   0  0  0  0  0  0  0  0  0  0  0  0
   58.0451   29.3876   52.7718 H   0  0  0  0  0  0  0  0  0  0  0  0
   57.3365   31.4116   51.4942 H   0  0  0  0  0  0  0  0  0  0  0  0
   54.9289   32.0638   51.4193 H   0  0  0  0  0  0  0  0  0  0  0  0
   52.7300   29.1310   50.3150 H   0  0  0  0  0  0  0  0  0  0  0  0
  1  2  2  0
  2  3  1  0
  3  4  2  0
  4  5  1  0
  5  6  2  0
  6  7  1  0
  7  8  2  0
  2  9  1  0
  9 10  1  0
 10 11  1  0
 11 12  2  0
 11 13  1  0
 13 14  1  0
 14 15  1  0
  8  3  1  0
 14  9  2  0
  4 16  1  0
  5 17  1  0
  6 18  1  0
  7 19  1  0
  8 20  1  0
 10 21  1  0
M  CHG  2  13  -1  15  -1
M  END
>  <UniqueID>  (85) 
73

>  <SMILES>  (85) 
O=C(c1ccccc1)c1[nH]c(=O)[n-]c1[O-]

>  <Energy>  (85) 
57.98908968235429

>  <Genealogy>  (85) 
O=C(c1ccccc1)c1[nH]c(=O)[n-]c1[O-] (protonated)
O=C(c1ccccc1)c1[nH]c(=O)[n-]c1[O-] (3D coordinates assigned)
O=C(c1ccccc1)c1[nH]c(=O)[n-]c1[O-] (optimized conformer: 57.98908968235429 kcal/mol)

>  <smiles>  (85) 
O=C(c1ccccc1)c1[nH]c(=O)[nH]c1O

>  <score_type>  (85) 
oracle

>  <origin>  (85) 
adg

>  <m_score__min__energy>  (85) 
-12.720000000000001

>  <m_primary>  (85) 
energy

$$$$
85:0
     RDKit          3D

 51 53  0  0  0  0  0  0  0  0999 V2000
   55.9620   27.7840   45.5990 O   0  0  0  0  0  0  0  0  0  0  0  0
   56.8260   28.6240   45.2340 C   0  0  0  0  0  0  0  0  0  0  0  0
   57.1960   28.7280   43.7890 C   0  0  0  0  0  0  0  0  0  0  0  0
   57.7810   30.0380   43.5060 N   0  0  0  0  0  0  0  0  0  0  0  0
   57.1250   31.2520   43.8940 C   0  0  0  0  0  0  0  0  0  0  0  0
   56.0140   31.2120   44.4900 O   0  0  0  0  0  0  0  0  0  0  0  0
   57.7820   32.5760   43.6480 C   0  0  0  0  0  0  0  0  0  0  0  0
   58.1960   33.1950   44.9540 C   0  0  0  0  0  0  0  0  0  0  0  0
   57.7700   32.6400   46.1740 C   0  0  0  0  0  0  0  0  0  0  0  0
   58.1970   33.1940   47.3850 C   0  0  0  0  0  0  0  0  0  0  0  0
   59.0570   34.2970   47.3880 C   0  0  0  0  0  0  0  0  0  0  0  0
   59.4920   34.8480   46.1800 C   0  0  0  0  0  0  0  0  0  0  0  0
   59.0670   34.3000   44.9670 C   0  0  0  0  0  0  0  0  0  0  0  0
   57.4630   29.4890   46.1850 N   0  0  0  0  0  0  0  0  0  0  0  0
   58.5470   29.1530   47.0630 C   0  0  0  0  0  0  0  0  0  0  0  0
   58.9370   27.8100   47.1600 C   0  0  0  0  0  0  0  0  0  0  0  0
   60.0040   27.4410   47.9820 C   0  0  0  0  0  0  0  0  0  0  0  0
   60.7020   28.4130   48.7030 C   0  0  0  0  0  0  0  0  0  0  0  0
   60.3400   29.7640   48.5950 C   0  0  0  0  0  0  0  0  0  0  0  0
   61.2140   31.0050   49.4910 S   0  0  0  0  0  0  0  0  0  0  0  0
   60.3270   32.1980   49.7270 O   0  0  0  0  0  0  0  0  0  0  0  0
   61.6290   30.4370   50.8210 O   0  0  0  0  0  0  0  0  0  0  0  0
   62.6260   31.4890   48.5840 N   0  0  0  0  0  0  0  0  0  0  0  0
   62.2950   31.7130   47.1580 C   0  0  0  0  0  0  0  0  0  0  0  0
   62.2350   33.2100   46.8040 C   0  0  0  0  0  0  0  0  0  0  0  0
   63.4490   33.8960   47.0690 O   0  0  0  0  0  0  0  0  0  0  0  0
   64.1430   33.4140   48.2140 C   0  0  0  0  0  0  0  0  0  0  0  0
   63.2540   32.6630   49.2200 C   0  0  0  0  0  0  0  0  0  0  0  0
   59.2670   30.1320   47.7730 C   0  0  0  0  0  0  0  0  0  0  0  0
   57.9277   27.9438   43.5448 H   0  0  0  0  0  0  0  0  0  0  0  0
   56.2896   28.6023   43.1785 H   0  0  0  0  0  0  0  0  0  0  0  0
   58.7100   30.1030   43.0290 H   0  0  0  0  0  0  0  0  0  0  0  0
   58.6705   32.4300   43.0162 H   0  0  0  0  0  0  0  0  0  0  0  0
   57.0698   33.2440   43.1415 H   0  0  0  0  0  0  0  0  0  0  0  0
   57.0994   31.7681   46.1757 H   0  0  0  0  0  0  0  0  0  0  0  0
   57.8558   32.7614   48.3371 H   0  0  0  0  0  0  0  0  0  0  0  0
   59.3911   34.7309   48.3420 H   0  0  0  0  0  0  0  0  0  0  0  0
   60.1699   35.7143   46.1839 H   0  0  0  0  0  0  0  0  0  0  0  0
   59.4148   34.7343   44.0181 H   0  0  0  0  0  0  0  0  0  0  0  0
   58.3991   27.0419   46.5850 H   0  0  0  0  0  0  0  0  0  0  0  0
   60.2953   26.3833   48.0619 H   0  0  0  0  0  0  0  0  0  0  0  0
   61.5366   28.1185   49.3563 H   0  0  0  0  0  0  0  0  0  0  0  0
   63.0643   31.2323   46.5359 H   0  0  0  0  0  0  0  0  0  0  0  0
   61.3010   31.2810   46.9698 H   0  0  0  0  0  0  0  0  0  0  0  0
   62.0052   33.3070   45.7327 H   0  0  0  0  0  0  0  0  0  0  0  0
   61.4578   33.6646   47.4359 H   0  0  0  0  0  0  0  0  0  0  0  0
   64.9345   32.7295   47.8749 H   0  0  0  0  0  0  0  0  0  0  0  0
   64.5386   34.2962   48.7386 H   0  0  0  0  0  0  0  0  0  0  0  0
   63.8704   32.3284   50.0674 H   0  0  0  0  0  0  0  0  0  0  0  0
   62.4625   33.3423   49.5694 H   0  0  0  0  0  0  0  0  0  0  0  0
   58.9857   31.1915   47.6820 H   0  0  0  0  0  0  0  0  0  0  0  0
  1  2  2  0
  2  3  1  0
  3  4  1  0
  4  5  1  0
  5  6  2  0
  5  7  1  0
  7  8  1  0
  8  9  2  0
  9 10  1  0
 10 11  2  0
 11 12  1  0
 12 13  2  0
  2 14  1  0
 14 15  1  0
 15 16  2  0
 16 17  1  0
 17 18  2  0
 18 19  1  0
 19 20  1  0
 20 21  2  0
 20 22  2  0
 20 23  1  0
 23 24  1  0
 24 25  1  0
 25 26  1  0
 26 27  1  0
 27 28  1  0
 19 29  2  0
 13  8  1  0
 29 15  1  0
 28 23  1  0
  3 30  1  0
  3 31  1  0
  4 32  1  0
  7 33  1  0
  7 34  1  0
  9 35  1  0
 10 36  1  0
 11 37  1  0
 12 38  1  0
 13 39  1  0
 16 40  1  0
 17 41  1  0
 18 42  1  0
 24 43  1  0
 24 44  1  0
 25 45  1  0
 25 46  1  0
 27 47  1  0
 27 48  1  0
 28 49  1  0
 28 50  1  0
 29 51  1  0
M  CHG  1  14  -1
M  END
>  <UniqueID>  (86) 
74

>  <SMILES>  (86) 
O=C(CNC(=O)Cc1ccccc1)[N-]c1cccc(S(=O)(=O)N2CCOCC2)c1

>  <Energy>  (86) 
62.54578450697533

>  <Genealogy>  (86) 
O=C(CNC(=O)Cc1ccccc1)[N-]c1cccc(S(=O)(=O)N2CCOCC2)c1 (protonated)
O=C(CNC(=O)Cc1ccccc1)[N-]c1cccc(S(=O)(=O)N2CCOCC2)c1 (3D coordinates assigned)
O=C(CNC(=O)Cc1ccccc1)[N-]c1cccc(S(=O)(=O)N2CCOCC2)c1 (nonaromatic ring conformer: 62.54578450697533 kcal/mol)

>  <smiles>  (86) 
O=C(Cc1ccccc1)NCC(=O)Nc1cccc(S(=O)(=O)N2CCOCC2)c1

>  <score_type>  (86) 
oracle

>  <origin>  (86) 
adg

>  <m_score__min__energy>  (86) 
-12.050000000000001

>  <m_primary>  (86) 
energy

$$$$
86:0
     RDKit          3D

 48 50  0  0  0  0  0  0  0  0999 V2000
   55.5210   27.1160   45.6500 N   0  0  0  0  0  0  0  0  0  0  0  0
   56.7830   26.0490   46.1610 S   0  0  0  0  0  0  0  0  0  0  0  0
   57.2370   25.2450   44.9760 O   0  0  0  0  0  0  0  0  0  0  0  0
   56.2510   25.1270   47.2210 O   0  0  0  0  0  0  0  0  0  0  0  0
   58.1400   26.9690   46.8140 C   0  0  0  0  0  0  0  0  0  0  0  0
   57.9500   28.2930   47.2340 C   0  0  0  0  0  0  0  0  0  0  0  0
   59.0270   29.0530   47.7160 C   0  0  0  0  0  0  0  0  0  0  0  0
   58.8200   30.4860   48.1400 C   0  0  0  0  0  0  0  0  0  0  0  0
   59.2040   30.7520   49.5430 N   0  0  0  0  0  0  0  0  0  0  0  0
   59.2940   29.5820   50.4430 C   0  0  0  0  0  0  0  0  0  0  0  0
   58.0310   29.3730   51.2920 C   0  0  0  0  0  0  0  0  0  0  0  0
   57.6330   30.6650   52.0110 C   0  0  0  0  0  0  0  0  0  0  0  0
   56.3800   30.4400   52.8290 C   0  0  0  0  0  0  0  0  0  0  0  0
   56.3690   30.7650   54.0460 O   0  0  0  0  0  0  0  0  0  0  0  0
   55.1600   29.9810   52.2320 N   0  0  0  0  0  0  0  0  0  0  0  0
   53.9200   30.7000   52.1620 C   0  0  0  0  0  0  0  0  0  0  0  0
   53.4460   31.2030   50.9370 C   0  0  0  0  0  0  0  0  0  0  0  0
   52.2210   31.8720   50.8750 C   0  0  0  0  0  0  0  0  0  0  0  0
   51.4490   32.0270   52.0280 C   0  0  0  0  0  0  0  0  0  0  0  0
   50.2300   32.6920   51.9650 O   0  0  0  0  0  0  0  0  0  0  0  0
   51.8990   31.5070   53.2450 C   0  0  0  0  0  0  0  0  0  0  0  0
   53.1260   30.8370   53.3180 C   0  0  0  0  0  0  0  0  0  0  0  0
   53.5390   30.3230   54.5480 O   0  0  0  0  0  0  0  0  0  0  0  0
   57.4220   31.7810   50.9810 C   0  0  0  0  0  0  0  0  0  0  0  0
   58.6920   31.9990   50.1480 C   0  0  0  0  0  0  0  0  0  0  0  0
   60.2910   28.4540   47.8320 C   0  0  0  0  0  0  0  0  0  0  0  0
   60.4810   27.1290   47.4370 C   0  0  0  0  0  0  0  0  0  0  0  0
   59.4140   26.3850   46.9270 C   0  0  0  0  0  0  0  0  0  0  0  0
   59.6270   25.0660   46.5420 O   0  0  0  0  0  0  0  0  0  0  0  0
   54.7650   27.0600   46.3680 H   0  0  0  0  0  0  0  0  0  0  0  0
   56.9465   28.7408   47.1853 H   0  0  0  0  0  0  0  0  0  0  0  0
   59.4239   31.1324   47.4861 H   0  0  0  0  0  0  0  0  0  0  0  0
   57.7430   30.6936   48.0565 H   0  0  0  0  0  0  0  0  0  0  0  0
   59.4570   28.6823   49.8315 H   0  0  0  0  0  0  0  0  0  0  0  0
   60.1274   29.7667   51.1368 H   0  0  0  0  0  0  0  0  0  0  0  0
   57.2056   29.0569   50.6371 H   0  0  0  0  0  0  0  0  0  0  0  0
   58.2405   28.6017   52.0477 H   0  0  0  0  0  0  0  0  0  0  0  0
   58.4384   30.9670   52.6966 H   0  0  0  0  0  0  0  0  0  0  0  0
   54.0430   31.0689   50.0229 H   0  0  0  0  0  0  0  0  0  0  0  0
   51.8643   32.2771   49.9165 H   0  0  0  0  0  0  0  0  0  0  0  0
   51.2855   31.6249   54.1504 H   0  0  0  0  0  0  0  0  0  0  0  0
   54.4760   29.9680   54.6990 H   0  0  0  0  0  0  0  0  0  0  0  0
   56.5947   31.5026   50.3116 H   0  0  0  0  0  0  0  0  0  0  0  0
   57.1850   32.7135   51.5142 H   0  0  0  0  0  0  0  0  0  0  0  0
   58.4650   32.7126   49.3422 H   0  0  0  0  0  0  0  0  0  0  0  0
   59.4698   32.3806   50.8258 H   0  0  0  0  0  0  0  0  0  0  0  0
   61.1356   29.0314   48.2360 H   0  0  0  0  0  0  0  0  0  0  0  0
   61.4757   26.6681   47.5276 H   0  0  0  0  0  0  0  0  0  0  0  0
  1  2  1  0
  2  3  2  0
  2  4  2  0
  2  5  1  0
  5  6  2  0
  6  7  1  0
  7  8  1  0
  8  9  1  0
  9 10  1  0
 10 11  1  0
 11 12  1  0
 12 13  1  0
 13 14  2  0
 13 15  1  0
 15 16  1  0
 16 17  2  0
 17 18  1  0
 18 19  2  0
 19 20  1  0
 19 21  1  0
 21 22  2  0
 22 23  1  0
 12 24  1  0
 24 25  1  0
  7 26  2  0
 26 27  1  0
 27 28  2  0
 28 29  1  0
 28  5  1  0
 25  9  1  0
 22 16  1  0
  1 30  1  0
  6 31  1  0
  8 32  1  0
  8 33  1  0
 10 34  1  0
 10 35  1  0
 11 36  1  0
 11 37  1  0
 12 38  1  0
 17 39  1  0
 18 40  1  0
 21 41  1  0
 23 42  1  0
 24 43  1  0
 24 44  1  0
 25 45  1  0
 25 46  1  0
 26 47  1  0
 27 48  1  0
M  CHG  4   1  -1  15  -1  20  -1  29  -1
M  END
>  <UniqueID>  (87) 
75

>  <SMILES>  (87) 
[NH-]S(=O)(=O)c1cc(CN2CCC(C(=O)[N-]c3ccc([O-])cc3O)CC2)ccc1[O-]

>  <Energy>  (87) 
60.15735577127682

>  <Genealogy>  (87) 
[NH-]S(=O)(=O)c1cc(CN2CCC(C(=O)[N-]c3ccc([O-])cc3O)CC2)ccc1[O-] (protonated)
[NH-]S(=O)(=O)c1cc(CN2CCC(C(=O)[N-]c3ccc([O-])cc3O)CC2)ccc1[O-] (3D coordinates assigned)
[NH-]S(=O)(=O)c1cc(CN2CCC(C(=O)[N-]c3ccc([O-])cc3O)CC2)ccc1[O-] (nonaromatic ring conformer: 60.15735577127682 kcal/mol)

>  <smiles>  (87) 
NS(=O)(=O)c1cc(CN2CCC(C(=O)Nc3ccc(O)cc3O)CC2)ccc1O

>  <score_type>  (87) 
oracle

>  <origin>  (87) 
adg

>  <m_score__min__energy>  (87) 
-16.289999999999999

>  <m_primary>  (87) 
energy

$$$$
87:0
     RDKit          3D

 43 46  0  0  0  0  0  0  0  0999 V2000
   57.7980   27.0310   42.5610 C   0  0  0  0  0  0  0  0  0  0  0  0
   57.9700   26.3330   43.8690 C   0  0  0  0  0  0  0  0  0  0  0  0
   57.7700   25.0080   44.0600 N   0  0  0  0  0  0  0  0  0  0  0  0
   57.9950   24.7320   45.3400 N   0  0  0  0  0  0  0  0  0  0  0  0
   57.8540   23.4110   45.8880 C   0  0  0  0  0  0  0  0  0  0  0  0
   57.4460   23.1880   47.0880 N   0  0  0  0  0  0  0  0  0  0  0  0
   57.3300   21.8400   47.2910 O   0  0  0  0  0  0  0  0  0  0  0  0
   57.6560   21.0800   46.1380 C   0  0  0  0  0  0  0  0  0  0  0  0
   58.0590   22.1500   45.1040 C   0  0  2  0  0  0  0  0  0  0  0  0
   59.5200   22.0060   44.6490 C   0  0  0  0  0  0  0  0  0  0  0  0
   60.3880   22.5520   45.6070 O   0  0  0  0  0  0  0  0  0  0  0  0
   58.3360   25.8790   45.9740 C   0  0  0  0  0  0  0  0  0  0  0  0
   58.6900   26.0940   47.3090 C   0  0  0  0  0  0  0  0  0  0  0  0
   59.0110   27.4070   47.7020 C   0  0  0  0  0  0  0  0  0  0  0  0
   58.9710   28.4790   46.7710 C   0  0  0  0  0  0  0  0  0  0  0  0
   59.3020   29.8610   47.1880 C   0  0  0  0  0  0  0  0  0  0  0  0
   60.4580   30.1140   47.6210 O   0  0  0  0  0  0  0  0  0  0  0  0
   58.3420   30.9250   47.1360 N   0  0  0  0  0  0  0  0  0  0  0  0
   58.4960   32.1580   46.4190 C   0  0  0  0  0  0  0  0  0  0  0  0
   59.2500   33.1820   47.0100 C   0  0  0  0  0  0  0  0  0  0  0  0
   59.4070   34.4100   46.3610 C   0  0  0  0  0  0  0  0  0  0  0  0
   58.8290   34.6160   45.1070 C   0  0  0  0  0  0  0  0  0  0  0  0
   58.1070   33.5910   44.4930 C   0  0  0  0  0  0  0  0  0  0  0  0
   57.9440   32.3560   45.1340 C   0  0  0  0  0  0  0  0  0  0  0  0
   57.0620   30.9550   44.1660 Br  0  0  0  0  0  0  0  0  0  0  0  0
   58.6400   28.2150   45.4230 C   0  0  0  0  0  0  0  0  0  0  0  0
   58.3260   26.9050   45.0700 C   0  0  0  0  0  0  0  0  0  0  0  0
   57.5383   28.0849   42.7392 H   0  0  0  0  0  0  0  0  0  0  0  0
   58.7365   26.9761   41.9899 H   0  0  0  0  0  0  0  0  0  0  0  0
   56.9924   26.5463   41.9899 H   0  0  0  0  0  0  0  0  0  0  0  0
   58.4925   20.3954   46.3419 H   0  0  0  0  0  0  0  0  0  0  0  0
   56.8265   20.4440   45.7954 H   0  0  0  0  0  0  0  0  0  0  0  0
   57.4833   22.0943   44.1683 H   0  0  0  0  0  0  0  0  0  0  0  0
   59.7540   20.9397   44.5142 H   0  0  0  0  0  0  0  0  0  0  0  0
   59.6523   22.5456   43.6996 H   0  0  0  0  0  0  0  0  0  0  0  0
   61.2860   22.5910   45.1860 H   0  0  0  0  0  0  0  0  0  0  0  0
   58.7169   25.2634   48.0297 H   0  0  0  0  0  0  0  0  0  0  0  0
   59.2970   27.6058   48.7454 H   0  0  0  0  0  0  0  0  0  0  0  0
   59.7209   33.0179   47.9905 H   0  0  0  0  0  0  0  0  0  0  0  0
   59.9861   35.2142   46.8384 H   0  0  0  0  0  0  0  0  0  0  0  0
   58.9426   35.5868   44.6023 H   0  0  0  0  0  0  0  0  0  0  0  0
   57.6633   33.7541   43.4997 H   0  0  0  0  0  0  0  0  0  0  0  0
   58.6306   29.0207   44.6742 H   0  0  0  0  0  0  0  0  0  0  0  0
  1  2  1  0
  2  3  2  0
  3  4  1  0
  4  5  1  0
  5  6  2  0
  6  7  1  0
  7  8  1  0
  8  9  1  0
  9 10  1  0
 10 11  1  0
  4 12  1  0
 12 13  2  0
 13 14  1  0
 14 15  2  0
 15 16  1  0
 16 17  2  0
 16 18  1  0
 18 19  1  0
 19 20  2  0
 20 21  1  0
 21 22  2  0
 22 23  1  0
 23 24  2  0
 24 25  1  0
 15 26  1  0
 26 27  2  0
 27  2  1  0
  9  5  1  0
 27 12  1  0
 24 19  1  0
  1 28  1  0
  1 29  1  0
  1 30  1  0
  8 31  1  0
  8 32  1  0
  9 33  1  6
 10 34  1  0
 10 35  1  0
 11 36  1  0
 13 37  1  0
 14 38  1  0
 20 39  1  0
 21 40  1  0
 22 41  1  0
 23 42  1  0
 26 43  1  0
M  CHG  1  18  -1
M  END
>  <UniqueID>  (88) 
76

>  <SMILES>  (88) 
Cc1nn(C2=NOC[C@@H]2CO)c2ccc(C(=O)[N-]c3ccccc3Br)cc12

>  <Energy>  (88) 
108.21418402527392

>  <Genealogy>  (88) 
Cc1nn(C2=NOCC2CO)c2ccc(C(=O)[N-]c3ccccc3Br)cc12 (protonated)
Cc1nn(C2=NOC[C@@H]2CO)c2ccc(C(=O)[N-]c3ccccc3Br)cc12 (chirality)
Cc1nn(C2=NOC[C@@H]2CO)c2ccc(C(=O)[N-]c3ccccc3Br)cc12 (3D coordinates assigned)
Cc1nn(C2=NOC[C@@H]2CO)c2ccc(C(=O)[N-]c3ccccc3Br)cc12 (nonaromatic ring conformer: 108.21418402527392 kcal/mol)

>  <smiles>  (88) 
Cc1nn(C2=NOCC2CO)c2ccc(C(=O)Nc3ccccc3Br)cc12

>  <score_type>  (88) 
oracle

>  <origin>  (88) 
adg

>  <m_score__min__energy>  (88) 
-10.57

>  <m_primary>  (88) 
energy

$$$$
88:0
     RDKit          3D

 52 54  0  0  0  0  0  0  0  0999 V2000
   60.1620   28.1750   47.4390 C   0  0  0  0  0  0  0  0  0  0  0  0
   59.9070   29.6530   47.4570 C   0  0  0  0  0  0  0  0  0  0  0  0
   60.6750   30.5150   46.6590 C   0  0  0  0  0  0  0  0  0  0  0  0
   60.4600   31.8950   46.7030 C   0  0  0  0  0  0  0  0  0  0  0  0
   59.4850   32.4340   47.5580 C   0  0  0  0  0  0  0  0  0  0  0  0
   59.2570   33.9190   47.6180 C   0  0  0  0  0  0  0  0  0  0  0  0
   59.0110   34.6190   45.9440 S   0  0  0  0  0  0  0  0  0  0  0  0
   57.3530   33.9130   45.6360 C   0  0  0  0  0  0  0  0  0  0  0  0
   57.4510   32.6390   44.8600 C   0  0  0  0  0  0  0  0  0  0  0  0
   57.7540   32.5330   43.5180 C   0  0  0  0  0  0  0  0  0  0  0  0
   57.7330   31.1840   43.2350 C   0  0  0  0  0  0  0  0  0  0  0  0
   57.4130   30.5520   44.4250 C   0  0  0  0  0  0  0  0  0  0  0  0
   57.2680   29.1040   44.6530 C   0  0  0  0  0  0  0  0  0  0  0  0
   56.1300   28.6490   44.9460 O   0  0  0  0  0  0  0  0  0  0  0  0
   58.3910   28.2140   44.5450 N   0  0  0  0  0  0  0  0  0  0  0  0
   58.2810   26.7770   44.8260 C   0  0  0  0  0  0  0  0  0  0  0  0
   57.7550   26.0500   43.5700 C   0  0  0  0  0  0  0  0  0  0  0  0
   56.9200   24.7900   43.8660 C   0  0  0  0  0  0  0  0  0  0  0  0
   57.6470   23.6560   44.6310 C   0  0  0  0  0  0  0  0  0  0  0  0
   58.3670   24.0940   45.9190 C   0  0  0  0  0  0  0  0  0  0  0  0
   57.6320   25.1650   46.7660 C   0  0  0  0  0  0  0  0  0  0  0  0
   57.4370   26.5440   46.1010 C   0  0  0  0  0  0  0  0  0  0  0  0
   57.2490   31.4480   45.3730 O   0  0  0  0  0  0  0  0  0  0  0  0
   58.7290   31.5720   48.3680 C   0  0  0  0  0  0  0  0  0  0  0  0
   58.9430   30.1920   48.3220 C   0  0  0  0  0  0  0  0  0  0  0  0
   60.2264   27.8014   48.4716 H   0  0  0  0  0  0  0  0  0  0  0  0
   59.3382   27.6671   46.9161 H   0  0  0  0  0  0  0  0  0  0  0  0
   61.1083   27.9725   46.9161 H   0  0  0  0  0  0  0  0  0  0  0  0
   61.4497   30.1024   45.9959 H   0  0  0  0  0  0  0  0  0  0  0  0
   61.0575   32.5625   46.0647 H   0  0  0  0  0  0  0  0  0  0  0  0
   58.3628   34.1205   48.2262 H   0  0  0  0  0  0  0  0  0  0  0  0
   60.1446   34.3900   48.0656 H   0  0  0  0  0  0  0  0  0  0  0  0
   56.8630   33.7107   46.5999 H   0  0  0  0  0  0  0  0  0  0  0  0
   56.7663   34.6365   45.0509 H   0  0  0  0  0  0  0  0  0  0  0  0
   57.9680   33.3548   42.8188 H   0  0  0  0  0  0  0  0  0  0  0  0
   57.9300   30.7074   42.2634 H   0  0  0  0  0  0  0  0  0  0  0  0
   59.3180   28.5970   44.2560 H   0  0  0  0  0  0  0  0  0  0  0  0
   59.2676   26.3429   45.0457 H   0  0  0  0  0  0  0  0  0  0  0  0
   57.1272   26.7533   43.0032 H   0  0  0  0  0  0  0  0  0  0  0  0
   58.6394   25.7152   43.0081 H   0  0  0  0  0  0  0  0  0  0  0  0
   56.0502   25.0963   44.4657 H   0  0  0  0  0  0  0  0  0  0  0  0
   56.6639   24.3671   42.8833 H   0  0  0  0  0  0  0  0  0  0  0  0
   56.9009   22.8938   44.9001 H   0  0  0  0  0  0  0  0  0  0  0  0
   58.4299   23.2832   43.9542 H   0  0  0  0  0  0  0  0  0  0  0  0
   58.5074   23.2027   46.5481 H   0  0  0  0  0  0  0  0  0  0  0  0
   59.3082   24.5613   45.5937 H   0  0  0  0  0  0  0  0  0  0  0  0
   56.6366   24.7695   47.0166 H   0  0  0  0  0  0  0  0  0  0  0  0
   58.2794   25.3470   47.6365 H   0  0  0  0  0  0  0  0  0  0  0  0
   56.3754   26.6464   45.8316 H   0  0  0  0  0  0  0  0  0  0  0  0
   57.7739   27.2909   46.8349 H   0  0  0  0  0  0  0  0  0  0  0  0
   57.9643   31.9850   49.0423 H   0  0  0  0  0  0  0  0  0  0  0  0
   58.3526   29.5249   48.9673 H   0  0  0  0  0  0  0  0  0  0  0  0
  1  2  1  0
  2  3  2  0
  3  4  1  0
  4  5  2  0
  5  6  1  0
  6  7  1  0
  7  8  1  0
  8  9  1  0
  9 10  2  0
 10 11  1  0
 11 12  2  0
 12 13  1  0
 13 14  2  0
 13 15  1  0
 15 16  1  0
 16 17  1  0
 17 18  1  0
 18 19  1  0
 19 20  1  0
 20 21  1  0
 21 22  1  0
 12 23  1  0
  5 24  1  0
 24 25  2  0
 25  2  1  0
 23  9  1  0
 22 16  1  0
  1 26  1  0
  1 27  1  0
  1 28  1  0
  3 29  1  0
  4 30  1  0
  6 31  1  0
  6 32  1  0
  8 33  1  0
  8 34  1  0
 10 35  1  0
 11 36  1  0
 15 37  1  0
 16 38  1  0
 17 39  1  0
 17 40  1  0
 18 41  1  0
 18 42  1  0
 19 43  1  0
 19 44  1  0
 20 45  1  0
 20 46  1  0
 21 47  1  0
 21 48  1  0
 22 49  1  0
 22 50  1  0
 24 51  1  0
 25 52  1  0
M  END
>  <UniqueID>  (89) 
77

>  <SMILES>  (89) 
Cc1ccc(CSCc2ccc(C(=O)NC3CCCCCC3)o2)cc1

>  <Energy>  (89) 
78.83612591798787

>  <Genealogy>  (89) 
Cc1ccc(CSCc2ccc(C(=O)NC3CCCCCC3)o2)cc1 (3D coordinates assigned)
Cc1ccc(CSCc2ccc(C(=O)NC3CCCCCC3)o2)cc1 (nonaromatic ring conformer: 78.83612591798787 kcal/mol)

>  <smiles>  (89) 
Cc1ccc(CSCc2ccc(C(=O)NC3CCCCCC3)o2)cc1

>  <score_type>  (89) 
oracle

>  <origin>  (89) 
adg

>  <m_score__min__energy>  (89) 
-6.5899999999999999

>  <m_primary>  (89) 
energy

$$$$
