0:0
     RDKit          3D

 26 28  0  0  0  0  0  0  0  0999 V2000
   56.2690   30.8950   44.4960 O   0  0  0  0  0  0  0  0  0  0  0  0
   57.3980   31.0000   45.0430 C   0  0  0  0  0  0  0  0  0  0  0  0
   58.3280   29.9090   45.4150 C   0  0  0  0  0  0  0  0  0  0  0  0
   58.1330   28.4350   45.2210 C   0  0  0  0  0  0  0  0  0  0  0  0
   58.2880   27.8350   43.9510 C   0  0  0  0  0  0  0  0  0  0  0  0
   58.1030   26.4610   43.7800 C   0  0  0  0  0  0  0  0  0  0  0  0
   57.7620   25.6560   44.8660 C   0  0  0  0  0  0  0  0  0  0  0  0
   57.6040   26.2260   46.1280 C   0  0  0  0  0  0  0  0  0  0  0  0
   57.7860   27.5990   46.3080 C   0  0  0  0  0  0  0  0  0  0  0  0
   59.4100   30.4860   45.9710 C   0  0  0  0  0  0  0  0  0  0  0  0
   59.2330   31.9380   45.9840 C   0  0  0  0  0  0  0  0  0  0  0  0
   60.0880   32.9310   46.4610 C   0  0  0  0  0  0  0  0  0  0  0  0
   59.6740   34.2700   46.3530 C   0  0  0  0  0  0  0  0  0  0  0  0
   58.4250   34.5870   45.7770 C   0  0  0  0  0  0  0  0  0  0  0  0
   57.5820   33.5660   45.3050 C   0  0  0  0  0  0  0  0  0  0  0  0
   58.0210   32.2480   45.4250 C   0  0  0  0  0  0  0  0  0  0  0  0
   58.5579   28.4581   43.0856 H   0  0  0  0  0  0  0  0  0  0  0  0
   58.2270   26.0119   42.7835 H   0  0  0  0  0  0  0  0  0  0  0  0
   57.6181   24.5743   44.7273 H   0  0  0  0  0  0  0  0  0  0  0  0
   57.3349   25.5920   46.9857 H   0  0  0  0  0  0  0  0  0  0  0  0
   57.6577   28.0364   47.3091 H   0  0  0  0  0  0  0  0  0  0  0  0
   60.2898   29.9493   46.3555 H   0  0  0  0  0  0  0  0  0  0  0  0
   61.0591   32.6737   46.9092 H   0  0  0  0  0  0  0  0  0  0  0  0
   60.3273   35.0755   46.7195 H   0  0  0  0  0  0  0  0  0  0  0  0
   58.1099   35.6379   45.6971 H   0  0  0  0  0  0  0  0  0  0  0  0
   56.6059   33.7996   44.8548 H   0  0  0  0  0  0  0  0  0  0  0  0
  1  2  2  0
  2  3  1  0
  3  4  1  0
  4  5  2  0
  5  6  1  0
  6  7  2  0
  7  8  1  0
  8  9  2  0
  3 10  2  0
 10 11  1  0
 11 12  2  0
 12 13  1  0
 13 14  2  0
 14 15  1  0
 15 16  2  0
 16  2  1  0
  9  4  1  0
 16 11  1  0
  5 17  1  0
  6 18  1  0
  7 19  1  0
  8 20  1  0
  9 21  1  0
 10 22  1  0
 12 23  1  0
 13 24  1  0
 14 25  1  0
 15 26  1  0
M  END
>  <UniqueID>  (1) 
1

>  <SMILES>  (1) 
O=C1C(c2ccccc2)=Cc2ccccc21

>  <Energy>  (1) 
62.26172540698492

>  <Genealogy>  (1) 
O=C1C(c2ccccc2)=Cc2ccccc21 (3D coordinates assigned)
O=C1C(c2ccccc2)=Cc2ccccc21 (nonaromatic ring conformer: 62.26172540698492 kcal/mol)

>  <smiles>  (1) 
O=C1C(c2ccccc2)=Cc2ccccc21

>  <score_type>  (1) 
oracle

>  <origin>  (1) 
adg

>  <m_score__min__energy>  (1) 
-6.8600000000000003

>  <m_primary>  (1) 
energy

$$$$
1:0
     RDKit          3D

 62 65  0  0  1  0  0  0  0  0999 V2000
   68.6130   33.5460   54.0430 C   0  0  0  0  0  0  0  0  0  0  0  0
   67.8280   34.1490   53.0390 O   0  0  0  0  0  0  0  0  0  0  0  0
   66.8150   33.4770   52.3670 C   0  0  0  0  0  0  0  0  0  0  0  0
   65.8510   32.7250   53.0040 C   0  0  0  0  0  0  0  0  0  0  0  0
   64.8860   32.0910   52.2870 C   0  0  0  0  0  0  0  0  0  0  0  0
   63.9540   31.3620   52.9390 N   0  0  0  0  0  0  0  0  0  0  0  0
   62.9700   30.7090   52.2740 C   0  0  0  0  0  0  0  0  0  0  0  0
   62.9320   30.7990   50.9280 N   0  0  0  0  0  0  0  0  0  0  0  0
   63.8460   31.5200   50.2260 C   0  0  0  0  0  0  0  0  0  0  0  0
   63.7680   31.5780   48.9220 N   0  0  0  0  0  0  0  0  0  0  0  0
   62.7340   32.4400   48.4050 C   0  0  0  0  0  0  0  0  0  0  0  0
   62.9860   33.2410   47.3040 C   0  0  0  0  0  0  0  0  0  0  0  0
   61.9860   34.0670   46.8100 C   0  0  0  0  0  0  0  0  0  0  0  0
   60.7380   34.1160   47.3870 C   0  0  0  0  0  0  0  0  0  0  0  0
   59.6450   34.9900   46.8840 C   0  0  0  0  0  0  0  0  0  0  0  0
   59.0850   34.3450   45.6650 C   0  0  0  0  0  0  0  0  0  0  0  0
   59.0060   35.0480   44.6370 O   0  0  0  0  0  0  0  0  0  0  0  0
   58.6690   32.9980   45.6910 N   0  0  0  0  0  0  0  0  0  0  0  0
   58.1280   32.2670   44.6230 C   0  0  0  0  0  0  0  0  0  0  0  0
   57.9710   32.6990   43.3380 C   0  0  0  0  0  0  0  0  0  0  0  0
   57.4210   31.9100   42.3260 C   0  0  0  0  0  0  0  0  0  0  0  0
   57.0060   30.6260   42.6030 C   0  0  0  0  0  0  0  0  0  0  0  0
   57.1610   30.1820   43.8980 C   0  0  0  0  0  0  0  0  0  0  0  0
   56.7420   28.8670   44.2070 N   0  0  0  0  0  0  0  0  0  0  0  0
   57.8230   27.7250   44.9470 S   0  0  0  0  0  0  0  0  0  0  0  0
   57.7700   26.1610   44.1070 C   0  0  0  0  0  0  0  0  0  0  0  0
   57.3480   27.5700   46.3840 O   0  0  0  0  0  0  0  0  0  0  0  0
   59.2210   28.2520   44.9160 O   0  0  0  0  0  0  0  0  0  0  0  0
   57.7000   30.9610   44.8840 C   0  0  0  0  0  0  0  0  0  0  0  0
   57.8120   30.4120   46.1650 O   0  0  0  0  0  0  0  0  0  0  0  0
   60.4820   33.3130   48.4910 C   0  0  0  0  0  0  0  0  0  0  0  0
   61.4860   32.4790   48.9930 C   0  0  0  0  0  0  0  0  0  0  0  0
   64.8440   32.1810   50.9100 C   0  0  0  0  0  0  0  0  0  0  0  0
   65.7970   32.9280   50.2340 C   0  0  0  0  0  0  0  0  0  0  0  0
   66.7760   33.5690   50.9910 C   0  0  0  0  0  0  0  0  0  0  0  0
   67.7330   34.3170   50.3400 O   0  0  0  0  0  0  0  0  0  0  0  0
   69.1070   34.0930   50.4100 C   0  0  0  0  0  0  0  0  0  0  0  0
   68.2315   33.8391   55.0322 H   0  0  0  0  0  0  0  0  0  0  0  0
   68.5629   32.4520   53.9400 H   0  0  0  0  0  0  0  0  0  0  0  0
   69.6571   33.8765   53.9400 H   0  0  0  0  0  0  0  0  0  0  0  0
   65.8629   32.6375   54.1004 H   0  0  0  0  0  0  0  0  0  0  0  0
   62.2189   30.1187   52.8193 H   0  0  0  0  0  0  0  0  0  0  0  0
   62.1590   30.2830   50.4480 H   0  0  0  0  0  0  0  0  0  0  0  0
   63.9750   33.2227   46.8227 H   0  0  0  0  0  0  0  0  0  0  0  0
   62.1967   34.6988   45.9345 H   0  0  0  0  0  0  0  0  0  0  0  0
   58.8617   35.0909   47.6497 H   0  0  0  0  0  0  0  0  0  0  0  0
   60.0271   35.9949   46.6512 H   0  0  0  0  0  0  0  0  0  0  0  0
   58.7900   32.5080   46.6290 H   0  0  0  0  0  0  0  0  0  0  0  0
   58.2940   33.7201   43.0870 H   0  0  0  0  0  0  0  0  0  0  0  0
   57.3191   32.3135   41.3078 H   0  0  0  0  0  0  0  0  0  0  0  0
   56.5699   29.9832   41.8242 H   0  0  0  0  0  0  0  0  0  0  0  0
   55.7520   28.5490   43.9900 H   0  0  0  0  0  0  0  0  0  0  0  0
   57.7424   25.3479   44.8474 H   0  0  0  0  0  0  0  0  0  0  0  0
   56.8697   26.1136   43.4767 H   0  0  0  0  0  0  0  0  0  0  0  0
   58.6650   26.0528   43.4767 H   0  0  0  0  0  0  0  0  0  0  0  0
   58.2570   29.5230   46.3450 H   0  0  0  0  0  0  0  0  0  0  0  0
   59.4917   33.3330   48.9694 H   0  0  0  0  0  0  0  0  0  0  0  0
   61.2783   31.8457   49.8681 H   0  0  0  0  0  0  0  0  0  0  0  0
   65.7808   33.0118   49.1373 H   0  0  0  0  0  0  0  0  0  0  0  0
   69.4170   34.0425   51.4642 H   0  0  0  0  0  0  0  0  0  0  0  0
   69.3496   33.1434   49.9105 H   0  0  0  0  0  0  0  0  0  0  0  0
   69.6387   34.9163   49.9105 H   0  0  0  0  0  0  0  0  0  0  0  0
  1  2  1  0
  2  3  1  0
  3  4  2  0
  4  5  1  0
  5  6  1  0
  6  7  2  0
  7  8  1  0
  8  9  1  0
  9 10  2  0
 10 11  1  0
 11 12  2  0
 12 13  1  0
 13 14  2  0
 14 15  1  0
 15 16  1  0
 16 17  2  0
 16 18  1  0
 18 19  1  0
 19 20  2  0
 20 21  1  0
 21 22  2  0
 22 23  1  0
 23 24  1  0
 24 25  1  0
 25 26  1  0
 25 27  2  0
 25 28  2  0
 23 29  2  0
 29 30  1  0
 14 31  1  0
 31 32  2  0
  9 33  1  0
 33 34  1  0
 34 35  2  0
 35 36  1  0
 36 37  1  0
 35  3  1  0
 33  5  2  0
 32 11  1  0
 29 19  1  0
  1 38  1  0
  1 39  1  0
  1 40  1  0
  4 41  1  0
  7 42  1  0
  8 43  1  0
 12 44  1  0
 13 45  1  0
 15 46  1  0
 15 47  1  0
 18 48  1  0
 20 49  1  0
 21 50  1  0
 22 51  1  0
 24 52  1  0
 26 53  1  0
 26 54  1  0
 26 55  1  0
 30 56  1  0
 31 57  1  0
 32 58  1  0
 34 59  1  0
 37 60  1  0
 37 61  1  0
 37 62  1  0
M  END
>  <smiles>  (2) 
COc1cc2nc[nH]c(=Nc3ccc(CC(=O)Nc4cccc(NS(C)(=O)=O)c4O)cc3)c2cc1OC

>  <score_type>  (2) 
oracle

>  <origin>  (2) 
adg

>  <m_score__min__energy>  (2) 
-10.300000000000001

>  <m_primary>  (2) 
energy

$$$$
2:0
     RDKit          3D

 49 51  0  0  0  0  0  0  0  0999 V2000
   62.1150   30.3560   51.6470 C   0  0  0  0  0  0  0  0  0  0  0  0
   61.2920   30.2460   50.3970 C   0  0  0  0  0  0  0  0  0  0  0  0
   61.7810   30.7320   49.1760 C   0  0  0  0  0  0  0  0  0  0  0  0
   61.0180   30.6050   48.0100 C   0  0  0  0  0  0  0  0  0  0  0  0
   59.7690   29.9660   48.0490 C   0  0  0  0  0  0  0  0  0  0  0  0
   58.9300   29.8730   46.8350 C   0  0  0  0  0  0  0  0  0  0  0  0
   58.5150   28.6370   46.4500 N   0  0  0  0  0  0  0  0  0  0  0  0
   57.7290   28.4310   45.3910 N   0  0  0  0  0  0  0  0  0  0  0  0
   57.3840   27.0470   45.0520 C   0  0  0  0  0  0  0  0  0  0  0  0
   56.5570   26.4500   46.1440 C   0  0  0  0  0  0  0  0  0  0  0  0
   57.1100   26.0550   47.2050 O   0  0  0  0  0  0  0  0  0  0  0  0
   55.1330   26.3870   45.9970 N   0  0  0  0  0  0  0  0  0  0  0  0
   54.4080   25.1800   45.6140 C   0  0  0  0  0  0  0  0  0  0  0  0
   55.3300   23.9530   45.6200 C   0  0  0  0  0  0  0  0  0  0  0  0
   55.0910   23.0860   44.4640 N   0  0  0  0  0  0  0  0  0  0  0  0
   56.5230   22.8560   43.4960 S   0  0  0  0  0  0  0  0  0  0  0  0
   57.8390   22.2400   44.5240 C   0  0  0  0  0  0  0  0  0  0  0  0
   56.9610   24.1400   42.8440 O   0  0  0  0  0  0  0  0  0  0  0  0
   56.2270   21.8420   42.4250 O   0  0  0  0  0  0  0  0  0  0  0  0
   57.3100   29.4820   44.6180 C   0  0  0  0  0  0  0  0  0  0  0  0
   56.5760   29.2760   43.6110 O   0  0  0  0  0  0  0  0  0  0  0  0
   57.7100   30.7900   44.9450 C   0  0  0  0  0  0  0  0  0  0  0  0
   57.3100   31.8940   44.1640 C   0  0  0  0  0  0  0  0  0  0  0  0
   57.7470   33.1800   44.4830 C   0  0  0  0  0  0  0  0  0  0  0  0
   58.5940   33.3820   45.5730 C   0  0  0  0  0  0  0  0  0  0  0  0
   58.9990   32.3000   46.3590 C   0  0  0  0  0  0  0  0  0  0  0  0
   58.5470   30.9940   46.0690 C   0  0  0  0  0  0  0  0  0  0  0  0
   59.2800   29.4800   49.2720 C   0  0  0  0  0  0  0  0  0  0  0  0
   60.0420   29.6080   50.4360 C   0  0  0  0  0  0  0  0  0  0  0  0
   61.4598   30.2684   52.5263 H   0  0  0  0  0  0  0  0  0  0  0  0
   62.8632   29.5499   51.6655 H   0  0  0  0  0  0  0  0  0  0  0  0
   62.6252   31.3303   51.6655 H   0  0  0  0  0  0  0  0  0  0  0  0
   62.7684   31.2150   49.1346 H   0  0  0  0  0  0  0  0  0  0  0  0
   61.3984   31.0074   47.0595 H   0  0  0  0  0  0  0  0  0  0  0  0
   56.8130   27.0327   44.1119 H   0  0  0  0  0  0  0  0  0  0  0  0
   58.3073   26.4609   44.9335 H   0  0  0  0  0  0  0  0  0  0  0  0
   53.5857   25.0144   46.3257 H   0  0  0  0  0  0  0  0  0  0  0  0
   54.0174   25.3171   44.5949 H   0  0  0  0  0  0  0  0  0  0  0  0
   56.3757   24.2936   45.5992 H   0  0  0  0  0  0  0  0  0  0  0  0
   55.1205   23.3730   46.5309 H   0  0  0  0  0  0  0  0  0  0  0  0
   57.5676   22.3670   45.5824 H   0  0  0  0  0  0  0  0  0  0  0  0
   58.0006   21.1727   44.3125 H   0  0  0  0  0  0  0  0  0  0  0  0
   58.7621   22.7996   44.3125 H   0  0  0  0  0  0  0  0  0  0  0  0
   56.6494   31.7403   43.2980 H   0  0  0  0  0  0  0  0  0  0  0  0
   57.4230   34.0366   43.8737 H   0  0  0  0  0  0  0  0  0  0  0  0
   58.9442   34.3964   45.8145 H   0  0  0  0  0  0  0  0  0  0  0  0
   59.6753   32.4669   47.2104 H   0  0  0  0  0  0  0  0  0  0  0  0
   58.2929   28.9965   49.3139 H   0  0  0  0  0  0  0  0  0  0  0  0
   59.6610   29.2073   51.3869 H   0  0  0  0  0  0  0  0  0  0  0  0
  1  2  1  0
  2  3  2  0
  3  4  1  0
  4  5  2  0
  5  6  1  0
  6  7  2  0
  7  8  1  0
  8  9  1  0
  9 10  1  0
 10 11  2  0
 10 12  1  0
 12 13  1  0
 13 14  1  0
 14 15  1  0
 15 16  1  0
 16 17  1  0
 16 18  2  0
 16 19  2  0
  8 20  1  0
 20 21  2  0
 20 22  1  0
 22 23  2  0
 23 24  1  0
 24 25  2  0
 25 26  1  0
 26 27  2  0
  5 28  1  0
 28 29  2  0
 29  2  1  0
 27  6  1  0
 27 22  1  0
  1 30  1  0
  1 31  1  0
  1 32  1  0
  3 33  1  0
  4 34  1  0
  9 35  1  0
  9 36  1  0
 13 37  1  0
 13 38  1  0
 14 39  1  0
 14 40  1  0
 17 41  1  0
 17 42  1  0
 17 43  1  0
 23 44  1  0
 24 45  1  0
 25 46  1  0
 26 47  1  0
 28 48  1  0
 29 49  1  0
M  CHG  2  12  -1  15  -1
M  END
>  <UniqueID>  (3) 
2

>  <SMILES>  (3) 
Cc1ccc(-c2nn(CC(=O)[N-]CC[N-]S(C)(=O)=O)c(=O)c3ccccc23)cc1

>  <Energy>  (3) 
55.13669823281484

>  <Genealogy>  (3) 
Cc1ccc(-c2nn(CC(=O)[N-]CC[N-]S(C)(=O)=O)c(=O)c3ccccc23)cc1 (protonated)
Cc1ccc(-c2nn(CC(=O)[N-]CC[N-]S(C)(=O)=O)c(=O)c3ccccc23)cc1 (3D coordinates assigned)
Cc1ccc(-c2nn(CC(=O)[N-]CC[N-]S(C)(=O)=O)c(=O)c3ccccc23)cc1 (optimized conformer: 55.13669823281484 kcal/mol)

>  <smiles>  (3) 
Cc1ccc(-c2nn(CC(=O)NCCNS(C)(=O)=O)c(=O)c3ccccc23)cc1

>  <score_type>  (3) 
oracle

>  <origin>  (3) 
adg

>  <m_score__min__energy>  (3) 
-13.619999999999999

>  <m_primary>  (3) 
energy

$$$$
3:0
     RDKit          3D

 54 57  0  0  0  0  0  0  0  0999 V2000
   54.3390   26.2040   45.3820 H   0  0  0  0  0  0  0  0  0  0  0  0
   55.1990   26.1330   45.9700 N   0  0  0  0  0  0  0  0  0  0  0  0
   56.0790   27.0800   45.9960 C   0  0  0  0  0  0  0  0  0  0  0  0
   55.8910   28.2110   45.2690 N   0  0  0  0  0  0  0  0  0  0  0  0
   56.8180   29.2050   45.2940 C   0  0  0  0  0  0  0  0  0  0  0  0
   56.6470   30.3090   44.6270 N   0  0  0  0  0  0  0  0  0  0  0  0
   57.4250   31.5140   44.7340 C   0  0  0  0  0  0  0  0  0  0  0  0
   57.7700   32.2800   43.6070 C   0  0  0  0  0  0  0  0  0  0  0  0
   57.4189   31.9774   42.6094 H   0  0  0  0  0  0  0  0  0  0  0  0
   58.5580   33.4250   43.7510 C   0  0  0  0  0  0  0  0  0  0  0  0
   58.8120   34.0299   42.8681 H   0  0  0  0  0  0  0  0  0  0  0  0
   59.0240   33.8040   45.0110 C   0  0  0  0  0  0  0  0  0  0  0  0
   59.6356   34.7122   45.1170 H   0  0  0  0  0  0  0  0  0  0  0  0
   58.7170   33.0330   46.1450 C   0  0  0  0  0  0  0  0  0  0  0  0
   59.2120   33.4170   47.4410 N   0  0  0  0  0  0  0  0  0  0  0  0
   58.4630   33.3980   48.4400 O   0  0  0  0  0  0  0  0  0  0  0  0
   60.5200   33.8120   47.6020 O   0  0  0  0  0  0  0  0  0  0  0  0
   57.9230   31.8800   45.9910 C   0  0  0  0  0  0  0  0  0  0  0  0
   57.6910   31.2591   46.8689 H   0  0  0  0  0  0  0  0  0  0  0  0
   57.9260   29.0640   46.0640 N   0  0  0  0  0  0  0  0  0  0  0  0
   58.1270   27.9300   46.7880 C   0  0  0  0  0  0  0  0  0  0  0  0
   59.1750   27.7870   47.5460 N   0  0  0  0  0  0  0  0  0  0  0  0
   60.1430   28.7960   47.8790 C   0  0  0  0  0  0  0  0  0  0  0  0
   60.5840   29.0020   49.1990 C   0  0  0  0  0  0  0  0  0  0  0  0
   60.2067   28.3603   50.0089 H   0  0  0  0  0  0  0  0  0  0  0  0
   61.5000   30.0190   49.4860 C   0  0  0  0  0  0  0  0  0  0  0  0
   61.8543   30.1622   50.5175 H   0  0  0  0  0  0  0  0  0  0  0  0
   61.9680   30.8560   48.4650 C   0  0  0  0  0  0  0  0  0  0  0  0
   63.1070   32.1510   48.8250 S   0  0  0  0  0  0  0  0  0  0  0  0
   64.2940   31.6200   49.5790 O   0  0  0  0  0  0  0  0  0  0  0  0
   63.5780   32.7520   47.5320 O   0  0  0  0  0  0  0  0  0  0  0  0
   62.3330   33.3840   49.7750 N   0  0  0  0  0  0  0  0  0  0  0  0
   61.4640   33.2030   50.7300 C   0  0  0  0  0  0  0  0  0  0  0  0
   61.7680   33.4530   52.0830 C   0  0  0  0  0  0  0  0  0  0  0  0
   62.7645   33.8244   52.3643 H   0  0  0  0  0  0  0  0  0  0  0  0
   60.8000   33.2280   53.0680 C   0  0  0  0  0  0  0  0  0  0  0  0
   61.1330   33.4370   54.5160 C   0  0  0  0  0  0  0  0  0  0  0  0
   60.3667   32.9560   55.1416 H   0  0  0  0  0  0  0  0  0  0  0  0
   62.1157   32.9934   54.7340 H   0  0  0  0  0  0  0  0  0  0  0  0
   61.1608   34.5148   54.7340 H   0  0  0  0  0  0  0  0  0  0  0  0
   59.5440   32.7380   52.6960 C   0  0  0  0  0  0  0  0  0  0  0  0
   58.7849   32.5235   53.4627 H   0  0  0  0  0  0  0  0  0  0  0  0
   59.2580   32.5220   51.3430 C   0  0  0  0  0  0  0  0  0  0  0  0
   57.9220   31.9710   50.9390 C   0  0  0  0  0  0  0  0  0  0  0  0
   57.3374   31.7299   51.8391 H   0  0  0  0  0  0  0  0  0  0  0  0
   57.3822   32.7199   50.3409 H   0  0  0  0  0  0  0  0  0  0  0  0
   58.0670   31.0593   50.3409 H   0  0  0  0  0  0  0  0  0  0  0  0
   60.2200   32.7460   50.4020 N   0  0  0  0  0  0  0  0  0  0  0  0
   60.0010   32.5540   49.3970 H   0  0  0  0  0  0  0  0  0  0  0  0
   61.5100   30.6700   47.1550 C   0  0  0  0  0  0  0  0  0  0  0  0
   61.8727   31.3253   46.3494 H   0  0  0  0  0  0  0  0  0  0  0  0
   60.5930   29.6540   46.8670 C   0  0  0  0  0  0  0  0  0  0  0  0
   60.2226   29.5277   45.8390 H   0  0  0  0  0  0  0  0  0  0  0  0
   57.1950   26.9440   46.7550 N   0  0  0  0  0  0  0  0  0  0  0  0
  1  2  1  0
  2  3  2  0
  3  4  1  0
  4  5  1  0
  5  6  2  3
  6  7  1  0
  7  8  2  0
  8  9  1  0
  8 10  1  0
 10 11  1  0
 10 12  2  0
 12 13  1  0
 12 14  1  0
 14 15  1  0
 15 16  2  0
 15 17  1  0
 14 18  2  0
 18 19  1  0
  5 20  1  0
 20 21  1  0
 21 22  2  0
 22 23  1  0
 23 24  2  0
 24 25  1  0
 24 26  1  0
 26 27  1  0
 26 28  2  0
 28 29  1  0
 29 30  2  0
 29 31  2  0
 29 32  1  0
 32 33  2  3
 33 34  1  0
 34 35  1  0
 34 36  2  0
 36 37  1  0
 37 38  1  0
 37 39  1  0
 37 40  1  0
 36 41  1  0
 41 42  1  0
 41 43  2  0
 43 44  1  0
 44 45  1  0
 44 46  1  0
 44 47  1  0
 43 48  1  0
 48 49  1  0
 28 50  1  0
 50 51  1  0
 50 52  2  0
 52 53  1  0
 21 54  1  0
 54  3  1  0
 18  7  1  0
 52 23  1  0
 48 33  1  0
M  CHG  5   4  -1  15   1  17  -1  20  -1  54  -1
M  END
>  <UniqueID>  (4) 
3

>  <SMILES>  (4) 
[H]/N=c1\[n-]c(=Nc2cccc([N+](=O)[O-])c2)[n-]/c(=N\c2ccc(S(=O)(=O)N=c3cc(C)cc(C)[nH]3)cc2)[n-]1

>  <Energy>  (4) 
76.67125457508946

>  <Genealogy>  (4) 
Cc1cc(C)[nH]c(=NS(=O)(=O)c2ccc(N=c3[n-]c(=N)[n-]c(=Nc4cccc([N+](=O)[O-])c4)[n-]3)cc2)c1 (protonated)
[H]/N=c1\[n-]c(=Nc2cccc([N+](=O)[O-])c2)[n-]/c(=N\c2ccc(S(=O)(=O)N=c3cc(C)cc(C)[nH]3)cc2)[n-]1 (cis-trans isomerization)
[H]/N=c1\[n-]c(=Nc2cccc([N+](=O)[O-])c2)[n-]/c(=N\c2ccc(S(=O)(=O)N=c3cc(C)cc(C)[nH]3)cc2)[n-]1 (3D coordinates assigned)
[H]/N=c1\[n-]c(=Nc2cccc([N+](=O)[O-])c2)[n-]/c(=N\c2ccc(S(=O)(=O)N=c3cc(C)cc(C)[nH]3)cc2)[n-]1 (optimized conformer: 76.67125457508946 kcal/mol)

>  <smiles>  (4) 
Cc1cc(C)[nH]c(=NS(=O)(=O)c2ccc(N=c3[nH]c(=N)[nH]c(=Nc4cccc([N+](=O)[O-])c4)[nH]3)cc2)c1

>  <score_type>  (4) 
oracle

>  <origin>  (4) 
adg

>  <m_score__min__energy>  (4) 
-14.5

>  <m_primary>  (4) 
energy

$$$$
4:0
     RDKit          3D

 48 50  0  0  0  0  0  0  0  0999 V2000
   55.1480   29.2050   44.8400 N   0  0  0  0  0  0  0  0  0  0  0  0
   56.4850   29.6690   45.0230 C   0  0  0  0  0  0  0  0  0  0  0  0
   56.7900   30.8300   44.6340 O   0  0  0  0  0  0  0  0  0  0  0  0
   57.5090   28.7950   45.6430 C   0  0  0  0  0  0  0  0  0  0  0  0
   57.4830   27.4030   45.4380 C   0  0  0  0  0  0  0  0  0  0  0  0
   58.4540   26.5850   46.0180 C   0  0  0  0  0  0  0  0  0  0  0  0
   59.4510   27.1390   46.8230 C   0  0  0  0  0  0  0  0  0  0  0  0
   59.4790   28.5170   47.0670 C   0  0  0  0  0  0  0  0  0  0  0  0
   60.5130   29.0500   47.9080 N   0  0  0  0  0  0  0  0  0  0  0  0
   60.9110   30.4240   47.9740 C   0  0  0  0  0  0  0  0  0  0  0  0
   61.7440   30.8650   47.1360 O   0  0  0  0  0  0  0  0  0  0  0  0
   60.4030   31.2780   49.0010 N   0  0  0  0  0  0  0  0  0  0  0  0
   59.0620   31.8410   48.9940 C   0  0  0  0  0  0  0  0  0  0  0  0
   58.9550   32.8360   47.8650 C   0  0  0  0  0  0  0  0  0  0  0  0
   58.1430   32.5170   46.7620 C   0  0  0  0  0  0  0  0  0  0  0  0
   58.0570   33.3800   45.6680 C   0  0  0  0  0  0  0  0  0  0  0  0
   58.7890   34.5660   45.6540 C   0  0  0  0  0  0  0  0  0  0  0  0
   59.6140   34.8920   46.7310 C   0  0  0  0  0  0  0  0  0  0  0  0
   59.7190   34.0350   47.8410 C   0  0  0  0  0  0  0  0  0  0  0  0
   60.6170   34.4410   48.9920 C   0  0  0  0  0  0  0  0  0  0  0  0
   62.0410   34.4130   48.5920 N   0  0  0  0  0  0  0  0  0  0  0  0
   62.9100   33.9380   49.6950 C   0  0  0  0  0  0  0  0  0  0  0  0
   63.3730   32.4840   49.4810 C   0  0  0  0  0  0  0  0  0  0  0  0
   64.0950   32.2890   48.2720 O   0  0  0  0  0  0  0  0  0  0  0  0
   63.6920   33.1560   47.2200 C   0  0  0  0  0  0  0  0  0  0  0  0
   62.2390   33.6440   47.3400 C   0  0  0  0  0  0  0  0  0  0  0  0
   58.5240   29.3450   46.4480 C   0  0  0  0  0  0  0  0  0  0  0  0
   54.4220   29.3540   45.5760 H   0  0  0  0  0  0  0  0  0  0  0  0
   56.6925   26.9567   44.8168 H   0  0  0  0  0  0  0  0  0  0  0  0
   58.4335   25.4997   45.8401 H   0  0  0  0  0  0  0  0  0  0  0  0
   60.2188   26.4890   47.2680 H   0  0  0  0  0  0  0  0  0  0  0  0
   58.3250   31.0374   48.8489 H   0  0  0  0  0  0  0  0  0  0  0  0
   58.8637   32.3427   49.9526 H   0  0  0  0  0  0  0  0  0  0  0  0
   57.5699   31.5781   46.7612 H   0  0  0  0  0  0  0  0  0  0  0  0
   57.4105   33.1236   44.8158 H   0  0  0  0  0  0  0  0  0  0  0  0
   58.7162   35.2461   44.7925 H   0  0  0  0  0  0  0  0  0  0  0  0
   60.1886   35.8298   46.7116 H   0  0  0  0  0  0  0  0  0  0  0  0
   60.3534   35.4602   49.3111 H   0  0  0  0  0  0  0  0  0  0  0  0
   60.4717   33.7279   49.8169 H   0  0  0  0  0  0  0  0  0  0  0  0
   63.7958   34.5876   49.7539 H   0  0  0  0  0  0  0  0  0  0  0  0
   62.3264   33.9747   50.6267 H   0  0  0  0  0  0  0  0  0  0  0  0
   64.0205   32.1977   50.3229 H   0  0  0  0  0  0  0  0  0  0  0  0
   62.4674   31.8626   49.4198 H   0  0  0  0  0  0  0  0  0  0  0  0
   64.3541   34.0344   47.2217 H   0  0  0  0  0  0  0  0  0  0  0  0
   63.7600   32.5792   46.2858 H   0  0  0  0  0  0  0  0  0  0  0  0
   62.0034   34.2886   46.4803 H   0  0  0  0  0  0  0  0  0  0  0  0
   61.5742   32.7678   47.3568 H   0  0  0  0  0  0  0  0  0  0  0  0
   58.5714   30.4341   46.5950 H   0  0  0  0  0  0  0  0  0  0  0  0
  1  2  1  0
  2  3  2  0
  2  4  1  0
  4  5  2  0
  5  6  1  0
  6  7  2  0
  7  8  1  0
  8  9  1  0
  9 10  1  0
 10 11  2  0
 10 12  1  0
 12 13  1  0
 13 14  1  0
 14 15  2  0
 15 16  1  0
 16 17  2  0
 17 18  1  0
 18 19  2  0
 19 20  1  0
 20 21  1  0
 21 22  1  0
 22 23  1  0
 23 24  1  0
 24 25  1  0
 25 26  1  0
  8 27  2  0
 27  4  1  0
 19 14  1  0
 26 21  1  0
  1 28  1  0
  5 29  1  0
  6 30  1  0
  7 31  1  0
 13 32  1  0
 13 33  1  0
 15 34  1  0
 16 35  1  0
 17 36  1  0
 18 37  1  0
 20 38  1  0
 20 39  1  0
 22 40  1  0
 22 41  1  0
 23 42  1  0
 23 43  1  0
 25 44  1  0
 25 45  1  0
 26 46  1  0
 26 47  1  0
 27 48  1  0
M  CHG  3   1  -1   9  -1  12  -1
M  END
>  <UniqueID>  (5) 
4

>  <SMILES>  (5) 
[NH-]C(=O)c1cccc([N-]C(=O)[N-]Cc2ccccc2CN2CCOCC2)c1

>  <Energy>  (5) 
64.00678985130806

>  <Genealogy>  (5) 
[NH-]C(=O)c1cccc([N-]C(=O)[N-]Cc2ccccc2CN2CCOCC2)c1 (protonated)
[NH-]C(=O)c1cccc([N-]C(=O)[N-]Cc2ccccc2CN2CCOCC2)c1 (3D coordinates assigned)
[NH-]C(=O)c1cccc([N-]C(=O)[N-]Cc2ccccc2CN2CCOCC2)c1 (nonaromatic ring conformer: 64.00678985130806 kcal/mol)

>  <smiles>  (5) 
NC(=O)c1cccc(NC(=O)NCc2ccccc2CN2CCOCC2)c1

>  <score_type>  (5) 
oracle

>  <origin>  (5) 
adg

>  <m_score__min__energy>  (5) 
-14.06

>  <m_primary>  (5) 
energy

$$$$
5:0
     RDKit          3D

 48 50  0  0  0  0  0  0  0  0999 V2000
   63.0380   31.7740   47.4650 C   0  0  0  0  0  0  0  0  0  0  0  0
   62.1880   31.9890   48.6830 C   0  0  0  0  0  0  0  0  0  0  0  0
   62.2570   31.0670   49.6800 N   0  0  0  0  0  0  0  0  0  0  0  0
   61.5440   31.2020   50.8240 C   0  0  0  0  0  0  0  0  0  0  0  0
   61.6590   29.9550   52.1010 S   0  0  0  0  0  0  0  0  0  0  0  0
   61.6510   28.5740   50.9130 C   0  0  0  0  0  0  0  0  0  0  0  0
   60.5280   28.7610   49.9450 C   0  0  0  0  0  0  0  0  0  0  0  0
   59.3650   28.9710   50.3830 O   0  0  0  0  0  0  0  0  0  0  0  0
   60.7650   28.6100   48.5370 N   0  0  0  0  0  0  0  0  0  0  0  0
   59.8050   28.9370   47.5170 C   0  0  0  0  0  0  0  0  0  0  0  0
   59.0590   30.1200   47.6290 C   0  0  0  0  0  0  0  0  0  0  0  0
   58.1050   30.4510   46.6610 C   0  0  0  0  0  0  0  0  0  0  0  0
   57.8700   29.5920   45.5800 C   0  0  0  0  0  0  0  0  0  0  0  0
   56.6790   30.0130   44.3540 S   0  0  0  0  0  0  0  0  0  0  0  0
   55.1460   29.3400   44.7840 N   0  0  0  0  0  0  0  0  0  0  0  0
   57.1060   29.4690   43.0200 O   0  0  0  0  0  0  0  0  0  0  0  0
   56.5610   31.5070   44.2490 O   0  0  0  0  0  0  0  0  0  0  0  0
   58.6000   28.4020   45.4720 C   0  0  0  0  0  0  0  0  0  0  0  0
   59.5560   28.0700   46.4380 C   0  0  0  0  0  0  0  0  0  0  0  0
   60.7470   32.2830   51.0040 N   0  0  0  0  0  0  0  0  0  0  0  0
   60.6380   33.2410   50.0490 C   0  0  0  0  0  0  0  0  0  0  0  0
   59.8910   34.2330   50.2610 O   0  0  0  0  0  0  0  0  0  0  0  0
   61.3530   33.1230   48.8400 C   0  0  0  0  0  0  0  0  0  0  0  0
   61.2030   34.1840   47.7650 C   0  0  0  0  0  0  0  0  0  0  0  0
   59.8870   34.0410   47.0400 C   0  0  0  0  0  0  0  0  0  0  0  0
   58.7330   33.6410   47.7360 C   0  0  0  0  0  0  0  0  0  0  0  0
   57.5130   33.5170   47.0640 C   0  0  0  0  0  0  0  0  0  0  0  0
   57.4350   33.7900   45.6950 C   0  0  0  0  0  0  0  0  0  0  0  0
   58.5770   34.1880   44.9970 C   0  0  0  0  0  0  0  0  0  0  0  0
   59.8000   34.3130   45.6640 C   0  0  0  0  0  0  0  0  0  0  0  0
   64.0617   31.5151   47.7733 H   0  0  0  0  0  0  0  0  0  0  0  0
   62.6174   30.9539   46.8645 H   0  0  0  0  0  0  0  0  0  0  0  0
   63.0579   32.6954   46.8645 H   0  0  0  0  0  0  0  0  0  0  0  0
   62.6062   28.5528   50.3679 H   0  0  0  0  0  0  0  0  0  0  0  0
   61.5178   27.6248   51.4527 H   0  0  0  0  0  0  0  0  0  0  0  0
   61.6570   28.1520   48.2410 H   0  0  0  0  0  0  0  0  0  0  0  0
   59.2255   30.7918   48.4839 H   0  0  0  0  0  0  0  0  0  0  0  0
   57.5374   31.3891   46.7491 H   0  0  0  0  0  0  0  0  0  0  0  0
   55.1600   28.3380   44.4900 H   0  0  0  0  0  0  0  0  0  0  0  0
   58.4210   27.7250   44.6237 H   0  0  0  0  0  0  0  0  0  0  0  0
   60.1154   27.1267   46.3532 H   0  0  0  0  0  0  0  0  0  0  0  0
   61.2492   35.1785   48.2329 H   0  0  0  0  0  0  0  0  0  0  0  0
   62.0182   34.0610   47.0367 H   0  0  0  0  0  0  0  0  0  0  0  0
   58.7899   33.4248   48.8130 H   0  0  0  0  0  0  0  0  0  0  0  0
   56.6129   33.2041   47.6135 H   0  0  0  0  0  0  0  0  0  0  0  0
   56.4745   33.6913   45.1681 H   0  0  0  0  0  0  0  0  0  0  0  0
   58.5146   34.4037   43.9202 H   0  0  0  0  0  0  0  0  0  0  0  0
   60.6971   34.6254   45.1094 H   0  0  0  0  0  0  0  0  0  0  0  0
  1  2  1  0
  2  3  1  0
  3  4  1  0
  4  5  1  0
  5  6  1  0
  6  7  1  0
  7  8  2  0
  7  9  1  0
  9 10  1  0
 10 11  2  0
 11 12  1  0
 12 13  2  0
 13 14  1  0
 14 15  1  0
 14 16  2  0
 14 17  2  0
 13 18  1  0
 18 19  2  0
  4 20  2  0
 20 21  1  0
 21 22  2  0
 21 23  1  0
 23 24  1  0
 24 25  1  0
 25 26  2  0
 26 27  1  0
 27 28  2  0
 28 29  1  0
 29 30  2  0
 23  2  2  0
 30 25  1  0
 19 10  1  0
  1 31  1  0
  1 32  1  0
  1 33  1  0
  6 34  1  0
  6 35  1  0
  9 36  1  0
 11 37  1  0
 12 38  1  0
 15 39  1  0
 18 40  1  0
 19 41  1  0
 24 42  1  0
 24 43  1  0
 26 44  1  0
 27 45  1  0
 28 46  1  0
 29 47  1  0
 30 48  1  0
M  CHG  2   3  -1  15  -1
M  END
>  <UniqueID>  (6) 
5

>  <SMILES>  (6) 
Cc1[n-]c(SCC(=O)Nc2ccc(S([NH-])(=O)=O)cc2)nc(=O)c1Cc1ccccc1

>  <Energy>  (6) 
50.22475050613896

>  <Genealogy>  (6) 
Cc1[n-]c(SCC(=O)Nc2ccc(S([NH-])(=O)=O)cc2)nc(=O)c1Cc1ccccc1 (protonated)
Cc1[n-]c(SCC(=O)Nc2ccc(S([NH-])(=O)=O)cc2)nc(=O)c1Cc1ccccc1 (3D coordinates assigned)
Cc1[n-]c(SCC(=O)Nc2ccc(S([NH-])(=O)=O)cc2)nc(=O)c1Cc1ccccc1 (optimized conformer: 50.22475050613896 kcal/mol)

>  <smiles>  (6) 
Cc1[nH]c(SCC(=O)Nc2ccc(S(N)(=O)=O)cc2)nc(=O)c1Cc1ccccc1

>  <score_type>  (6) 
oracle

>  <origin>  (6) 
adg

>  <m_score__min__energy>  (6) 
-12.289999999999999

>  <m_primary>  (6) 
energy

$$$$
6:0
     RDKit          3D

 35 36  0  0  0  0  0  0  0  0999 V2000
   55.9050   29.7070   42.9730 C   0  0  0  0  0  0  0  0  0  0  0  0
   56.1660   29.4680   44.3500 O   0  0  0  0  0  0  0  0  0  0  0  0
   57.1620   30.1430   45.0620 C   0  0  0  0  0  0  0  0  0  0  0  0
   57.0720   31.3880   45.2430 O   0  0  0  0  0  0  0  0  0  0  0  0
   58.3300   29.3960   45.5820 C   0  0  0  0  0  0  0  0  0  0  0  0
   59.0270   29.7500   46.7600 C   0  0  0  0  0  0  0  0  0  0  0  0
   58.7730   30.9560   47.4950 N   0  0  0  0  0  0  0  0  0  0  0  0
   58.9220   31.0470   48.9200 C   0  0  0  0  0  0  0  0  0  0  0  0
   59.2920   30.0440   49.5890 O   0  0  0  0  0  0  0  0  0  0  0  0
   58.5970   32.3250   49.6320 C   0  0  0  0  0  0  0  0  0  0  0  0
   59.9170   33.5700   49.4080 S   0  0  0  0  0  0  0  0  0  0  0  0
   59.5500   33.8800   47.6830 C   0  0  0  0  0  0  0  0  0  0  0  0
   58.2970   33.9030   47.1840 N   0  0  0  0  0  0  0  0  0  0  0  0
   58.2940   34.1600   45.8490 C   0  0  0  0  0  0  0  0  0  0  0  0
   57.0220   34.2850   45.0770 C   0  0  0  0  0  0  0  0  0  0  0  0
   59.5500   34.3610   45.2820 C   0  0  0  0  0  0  0  0  0  0  0  0
   60.6990   34.1870   46.4990 S   0  0  0  0  0  0  0  0  0  0  0  0
   60.0550   28.8730   47.0970 C   0  0  0  0  0  0  0  0  0  0  0  0
   60.1080   27.6590   45.9410 S   0  0  0  0  0  0  0  0  0  0  0  0
   58.8330   28.2230   45.0020 C   0  0  0  0  0  0  0  0  0  0  0  0
   58.3330   27.5330   43.7720 C   0  0  0  0  0  0  0  0  0  0  0  0
   55.0969   30.4470   42.8760 H   0  0  0  0  0  0  0  0  0  0  0  0
   56.8146   30.0919   42.4888 H   0  0  0  0  0  0  0  0  0  0  0  0
   55.6015   28.7671   42.4888 H   0  0  0  0  0  0  0  0  0  0  0  0
   58.3950   31.7820   46.9800 H   0  0  0  0  0  0  0  0  0  0  0  0
   57.6544   32.7273   49.2323 H   0  0  0  0  0  0  0  0  0  0  0  0
   58.5053   32.1082   50.7065 H   0  0  0  0  0  0  0  0  0  0  0  0
   56.1760   34.3681   45.7752 H   0  0  0  0  0  0  0  0  0  0  0  0
   57.0643   35.1833   44.4436 H   0  0  0  0  0  0  0  0  0  0  0  0
   56.8886   33.3956   44.4436 H   0  0  0  0  0  0  0  0  0  0  0  0
   59.7546   34.5924   44.2263 H   0  0  0  0  0  0  0  0  0  0  0  0
   60.7177   28.9613   47.9705 H   0  0  0  0  0  0  0  0  0  0  0  0
   57.7103   26.6736   44.0612 H   0  0  0  0  0  0  0  0  0  0  0  0
   57.7333   28.2361   43.1753 H   0  0  0  0  0  0  0  0  0  0  0  0
   59.1879   27.1821   43.1753 H   0  0  0  0  0  0  0  0  0  0  0  0
  1  2  1  0
  2  3  1  0
  3  4  2  0
  3  5  1  0
  5  6  1  0
  6  7  1  0
  7  8  1  0
  8  9  2  0
  8 10  1  0
 10 11  1  0
 11 12  1  0
 12 13  2  0
 13 14  1  0
 14 15  1  0
 14 16  2  0
 16 17  1  0
  6 18  2  0
 18 19  1  0
 19 20  1  0
 20 21  1  0
 20  5  2  0
 17 12  1  0
  1 22  1  0
  1 23  1  0
  1 24  1  0
  7 25  1  0
 10 26  1  0
 10 27  1  0
 15 28  1  0
 15 29  1  0
 15 30  1  0
 16 31  1  0
 18 32  1  0
 21 33  1  0
 21 34  1  0
 21 35  1  0
M  END
>  <UniqueID>  (7) 
6

>  <SMILES>  (7) 
COC(=O)c1c(NC(=O)CSc2nc(C)cs2)csc1C

>  <Energy>  (7) 
84.59387893563554

>  <Genealogy>  (7) 
COC(=O)c1c(NC(=O)CSc2nc(C)cs2)csc1C (3D coordinates assigned)
COC(=O)c1c(NC(=O)CSc2nc(C)cs2)csc1C (optimized conformer: 84.59387893563554 kcal/mol)

>  <smiles>  (7) 
COC(=O)c1c(NC(=O)CSc2nc(C)cs2)csc1C

>  <score_type>  (7) 
oracle

>  <origin>  (7) 
adg

>  <m_score__min__energy>  (7) 
-6.6200000000000001

>  <m_primary>  (7) 
energy

$$$$
7:0
     RDKit          3D

 62 66  0  0  0  0  0  0  0  0999 V2000
   55.9669   33.4341   45.3341 H   0  0  0  0  0  0  0  0  0  0  0  0
   57.0140   33.5860   45.6350 C   0  0  0  0  0  0  0  0  0  0  0  0
   57.9680   33.9560   44.6840 C   0  0  0  0  0  0  0  0  0  0  0  0
   57.6712   34.0935   43.6337 H   0  0  0  0  0  0  0  0  0  0  0  0
   59.2990   34.1520   45.0640 C   0  0  0  0  0  0  0  0  0  0  0  0
   60.0463   34.4386   44.3094 H   0  0  0  0  0  0  0  0  0  0  0  0
   59.6890   33.9850   46.4060 C   0  0  0  0  0  0  0  0  0  0  0  0
   61.1330   34.1830   46.8020 C   0  0  0  0  0  0  0  0  0  0  0  0
   61.2024   35.0371   47.4918 H   0  0  0  0  0  0  0  0  0  0  0  0
   61.7219   34.3717   45.8923 H   0  0  0  0  0  0  0  0  0  0  0  0
   61.6700   32.9840   47.4660 N   0  0  0  0  0  0  0  0  0  0  0  0
   61.4340   31.6380   47.2990 C   0  0  0  0  0  0  0  0  0  0  0  0
   60.7030   31.0720   46.3750 N   0  0  0  0  0  0  0  0  0  0  0  0
   59.4510   30.3150   46.4340 C   0  0  0  0  0  0  0  0  0  0  0  0
   58.6129   30.9759   46.7001 H   0  0  0  0  0  0  0  0  0  0  0  0
   59.1270   29.7080   45.0440 C   0  0  0  0  0  0  0  0  0  0  0  0
   59.5316   30.3704   44.2646 H   0  0  0  0  0  0  0  0  0  0  0  0
   58.0340   29.6155   44.9611 H   0  0  0  0  0  0  0  0  0  0  0  0
   59.7350   28.3080   44.8690 C   0  0  0  0  0  0  0  0  0  0  0  0
   60.8312   28.3959   44.8939 H   0  0  0  0  0  0  0  0  0  0  0  0
   59.3775   27.9111   43.9074 H   0  0  0  0  0  0  0  0  0  0  0  0
   59.3120   27.3570   45.9280 N   0  0  0  0  0  0  0  0  0  0  0  0
   58.5080   26.2160   45.4410 C   0  0  0  0  0  0  0  0  0  0  0  0
   58.5130   26.2333   44.3412 H   0  0  0  0  0  0  0  0  0  0  0  0
   57.4983   26.3349   45.8610 H   0  0  0  0  0  0  0  0  0  0  0  0
   59.0270   24.8410   45.9070 C   0  0  0  0  0  0  0  0  0  0  0  0
   58.7968   24.7071   46.9743 H   0  0  0  0  0  0  0  0  0  0  0  0
   60.1150   24.7936   45.7519 H   0  0  0  0  0  0  0  0  0  0  0  0
   58.3800   23.7700   45.1300 N   0  0  0  0  0  0  0  0  0  0  0  0
   57.1150   23.9680   44.6530 C   0  0  0  0  0  0  0  0  0  0  0  0
   56.6120   24.9294   44.8337 H   0  0  0  0  0  0  0  0  0  0  0  0
   56.4480   22.9630   43.9360 C   0  0  0  0  0  0  0  0  0  0  0  0
   55.1120   23.1850   43.4370 N   0  0  0  0  0  0  0  0  0  0  0  0
   54.8450   22.9840   42.2340 O   0  0  0  0  0  0  0  0  0  0  0  0
   54.1150   23.6560   44.2590 O   0  0  0  0  0  0  0  0  0  0  0  0
   57.1280   21.7500   43.7310 C   0  0  0  0  0  0  0  0  0  0  0  0
   56.5940   20.8110   43.0830 O   0  0  0  0  0  0  0  0  0  0  0  0
   58.3790   21.5800   44.2330 N   0  0  0  0  0  0  0  0  0  0  0  0
   58.8740   20.6720   44.0810 H   0  0  0  0  0  0  0  0  0  0  0  0
   59.0030   22.5670   44.9300 C   0  0  0  0  0  0  0  0  0  0  0  0
   60.1590   22.3580   45.3920 O   0  0  0  0  0  0  0  0  0  0  0  0
   58.7820   27.9750   47.1620 C   0  0  0  0  0  0  0  0  0  0  0  0
   58.8481   27.2509   47.9874 H   0  0  0  0  0  0  0  0  0  0  0  0
   57.7335   28.2629   46.9954 H   0  0  0  0  0  0  0  0  0  0  0  0
   59.5890   29.2240   47.5210 C   0  0  0  0  0  0  0  0  0  0  0  0
   60.6495   28.9490   47.6198 H   0  0  0  0  0  0  0  0  0  0  0  0
   59.2011   29.6271   48.4681 H   0  0  0  0  0  0  0  0  0  0  0  0
   62.0490   30.8650   48.2310 N   0  0  0  0  0  0  0  0  0  0  0  0
   62.6830   31.7530   49.0070 C   0  0  0  0  0  0  0  0  0  0  0  0
   63.4520   31.4880   50.1390 C   0  0  0  0  0  0  0  0  0  0  0  0
   63.6265   30.4566   50.4793 H   0  0  0  0  0  0  0  0  0  0  0  0
   63.9970   32.5840   50.8310 C   0  0  0  0  0  0  0  0  0  0  0  0
   64.6142   32.4135   51.7254 H   0  0  0  0  0  0  0  0  0  0  0  0
   63.7570   33.9020   50.3850 C   0  0  0  0  0  0  0  0  0  0  0  0
   64.1838   34.7526   50.9367 H   0  0  0  0  0  0  0  0  0  0  0  0
   62.9750   34.1330   49.2390 C   0  0  0  0  0  0  0  0  0  0  0  0
   62.7764   35.1552   48.8846 H   0  0  0  0  0  0  0  0  0  0  0  0
   62.4570   33.0210   48.5630 C   0  0  0  0  0  0  0  0  0  0  0  0
   58.7220   33.6050   47.3550 C   0  0  0  0  0  0  0  0  0  0  0  0
   59.0137   33.4612   48.4058 H   0  0  0  0  0  0  0  0  0  0  0  0
   57.3910   33.4090   46.9690 C   0  0  0  0  0  0  0  0  0  0  0  0
   56.6401   33.1150   47.7172 H   0  0  0  0  0  0  0  0  0  0  0  0
  1  2  1  0
  2  3  2  0
  3  4  1  0
  3  5  1  0
  5  6  1  0
  5  7  2  0
  7  8  1  0
  8  9  1  0
  8 10  1  0
  8 11  1  0
 11 12  1  0
 12 13  2  0
 13 14  1  0
 14 15  1  0
 14 16  1  0
 16 17  1  0
 16 18  1  0
 16 19  1  0
 19 20  1  0
 19 21  1  0
 19 22  1  0
 22 23  1  0
 23 24  1  0
 23 25  1  0
 23 26  1  0
 26 27  1  0
 26 28  1  0
 26 29  1  0
 29 30  1  0
 30 31  1  0
 30 32  2  0
 32 33  1  0
 33 34  2  0
 33 35  1  0
 32 36  1  0
 36 37  2  0
 36 38  1  0
 38 39  1  0
 38 40  1  0
 40 41  2  0
 22 42  1  0
 42 43  1  0
 42 44  1  0
 42 45  1  0
 45 46  1  0
 45 47  1  0
 12 48  1  0
 48 49  1  0
 49 50  2  0
 50 51  1  0
 50 52  1  0
 52 53  1  0
 52 54  2  0
 54 55  1  0
 54 56  1  0
 56 57  1  0
 56 58  2  0
  7 59  1  0
 59 60  1  0
 59 61  2  0
 61 62  1  0
 61  2  1  0
 58 11  1  0
 45 14  1  0
 58 49  1  0
 40 29  1  0
M  CHG  3  33   1  35  -1  48  -1
M  END
>  <UniqueID>  (8) 
7

>  <SMILES>  (8) 
O=c1[nH]c(=O)n(CCN2CCC(/N=c3/[n-]c4ccccc4n3Cc3ccccc3)CC2)cc1[N+](=O)[O-]

>  <Energy>  (8) 
129.071868984128

>  <Genealogy>  (8) 
O=c1[nH]c(=O)n(CCN2CCC(N=c3[n-]c4ccccc4n3Cc3ccccc3)CC2)cc1[N+](=O)[O-] (protonated)
O=c1[nH]c(=O)n(CCN2CCC(/N=c3/[n-]c4ccccc4n3Cc3ccccc3)CC2)cc1[N+](=O)[O-] (cis-trans isomerization)
O=c1[nH]c(=O)n(CCN2CCC(/N=c3/[n-]c4ccccc4n3Cc3ccccc3)CC2)cc1[N+](=O)[O-] (3D coordinates assigned)
O=c1[nH]c(=O)n(CCN2CCC(/N=c3/[n-]c4ccccc4n3Cc3ccccc3)CC2)cc1[N+](=O)[O-] (nonaromatic ring conformer: 129.071868984128 kcal/mol)

>  <smiles>  (8) 
O=c1[nH]c(=O)n(CCN2CCC(N=c3[nH]c4ccccc4n3Cc3ccccc3)CC2)cc1[N+](=O)[O-]

>  <score_type>  (8) 
oracle

>  <origin>  (8) 
adg

>  <m_score__min__energy>  (8) 
-11.34

>  <m_primary>  (8) 
energy

$$$$
8:0
     RDKit          3D

 57 60  0  0  0  0  0  0  0  0999 V2000
   60.1560   26.8120   47.4850 O   0  0  0  0  0  0  0  0  0  0  0  0
   59.1820   27.5940   47.6390 C   0  0  0  0  0  0  0  0  0  0  0  0
   57.8850   27.1670   47.1930 N   0  0  0  0  0  0  0  0  0  0  0  0
   57.4120   26.8690   45.8350 C   0  0  2  0  0  0  0  0  0  0  0  0
   58.3090   27.5240   44.7650 C   0  0  0  0  0  0  0  0  0  0  0  0
   57.9800   28.9840   44.5760 C   0  0  0  0  0  0  0  0  0  0  0  0
   57.4130   29.4290   43.3680 C   0  0  0  0  0  0  0  0  0  0  0  0
   57.0740   30.7740   43.2010 C   0  0  0  0  0  0  0  0  0  0  0  0
   56.5310   31.1970   42.0320 F   0  0  0  0  0  0  0  0  0  0  0  0
   57.2930   31.6860   44.2390 C   0  0  0  0  0  0  0  0  0  0  0  0
   57.8590   31.2530   45.4430 C   0  0  0  0  0  0  0  0  0  0  0  0
   58.0730   32.1390   46.4480 F   0  0  0  0  0  0  0  0  0  0  0  0
   58.2010   29.9080   45.6140 C   0  0  0  0  0  0  0  0  0  0  0  0
   55.9460   27.1860   45.6800 C   0  0  0  0  0  0  0  0  0  0  0  0
   55.0860   26.3210   45.9970 O   0  0  0  0  0  0  0  0  0  0  0  0
   55.5230   28.4240   45.2120 O   0  0  0  0  0  0  0  0  0  0  0  0
   59.4130   28.8840   48.3080 C   0  0  0  0  0  0  0  0  0  0  0  0
   60.3170   29.8090   47.7750 C   0  0  0  0  0  0  0  0  0  0  0  0
   60.5480   31.0230   48.4440 C   0  0  0  0  0  0  0  0  0  0  0  0
   61.5460   31.9930   47.9230 C   0  0  0  0  0  0  0  0  0  0  0  0
   62.8670   31.9990   48.4100 C   0  0  0  0  0  0  0  0  0  0  0  0
   63.8030   32.9080   47.9080 C   0  0  0  0  0  0  0  0  0  0  0  0
   63.4330   33.8200   46.9170 C   0  0  0  0  0  0  0  0  0  0  0  0
   62.1250   33.8250   46.4250 C   0  0  0  0  0  0  0  0  0  0  0  0
   61.1860   32.9170   46.9220 C   0  0  0  0  0  0  0  0  0  0  0  0
   59.8400   31.2910   49.6270 C   0  0  0  0  0  0  0  0  0  0  0  0
   58.9240   30.3510   50.1200 C   0  0  0  0  0  0  0  0  0  0  0  0
   58.1990   30.5800   51.3430 N   0  0  0  0  0  0  0  0  0  0  0  0
   57.1230   31.5730   51.4090 C   0  0  0  0  0  0  0  0  0  0  0  0
   55.8360   30.9540   51.9770 C   0  0  0  0  0  0  0  0  0  0  0  0
   56.0190   30.4720   53.4270 C   0  0  0  0  0  0  0  0  0  0  0  0
   56.9520   29.2600   53.5150 C   0  0  0  0  0  0  0  0  0  0  0  0
   58.5250   29.6480   52.7730 S   0  0  0  0  0  0  0  0  0  0  0  0
   59.2280   28.3640   52.4270 O   0  0  0  0  0  0  0  0  0  0  0  0
   59.3700   30.4490   53.7230 O   0  0  0  0  0  0  0  0  0  0  0  0
   58.7320   29.1890   49.4390 N   0  0  0  0  0  0  0  0  0  0  0  0
   57.5007   25.7852   45.6693 H   0  0  0  0  0  0  0  0  0  0  0  0
   59.3599   27.4333   45.0771 H   0  0  0  0  0  0  0  0  0  0  0  0
   58.1345   27.0076   43.8096 H   0  0  0  0  0  0  0  0  0  0  0  0
   57.2356   28.7144   42.5508 H   0  0  0  0  0  0  0  0  0  0  0  0
   57.0202   32.7436   44.1085 H   0  0  0  0  0  0  0  0  0  0  0  0
   58.6441   29.5712   46.5628 H   0  0  0  0  0  0  0  0  0  0  0  0
   60.8450   29.5869   46.8359 H   0  0  0  0  0  0  0  0  0  0  0  0
   63.1646   31.2836   49.1908 H   0  0  0  0  0  0  0  0  0  0  0  0
   64.8329   32.9050   48.2943 H   0  0  0  0  0  0  0  0  0  0  0  0
   64.1712   34.5344   46.5237 H   0  0  0  0  0  0  0  0  0  0  0  0
   61.8341   34.5446   45.6455 H   0  0  0  0  0  0  0  0  0  0  0  0
   60.1586   32.9237   46.5290 H   0  0  0  0  0  0  0  0  0  0  0  0
   60.0038   32.2361   50.1654 H   0  0  0  0  0  0  0  0  0  0  0  0
   57.4392   32.4035   52.0573 H   0  0  0  0  0  0  0  0  0  0  0  0
   56.9178   31.9354   50.3909 H   0  0  0  0  0  0  0  0  0  0  0  0
   55.0374   31.7101   51.9522 H   0  0  0  0  0  0  0  0  0  0  0  0
   55.5773   30.0815   51.3591 H   0  0  0  0  0  0  0  0  0  0  0  0
   56.4453   31.2925   54.0229 H   0  0  0  0  0  0  0  0  0  0  0  0
   55.0336   30.1711   53.8122 H   0  0  0  0  0  0  0  0  0  0  0  0
   57.1033   28.9925   54.5712 H   0  0  0  0  0  0  0  0  0  0  0  0
   56.4977   28.4144   52.9779 H   0  0  0  0  0  0  0  0  0  0  0  0
  1  2  2  0
  2  3  1  0
  3  4  1  0
  4  5  1  0
  5  6  1  0
  6  7  2  0
  7  8  1  0
  8  9  1  0
  8 10  2  0
 10 11  1  0
 11 12  1  0
 11 13  2  0
  4 14  1  0
 14 15  2  0
 14 16  1  0
  2 17  1  0
 17 18  2  0
 18 19  1  0
 19 20  1  0
 20 21  2  0
 21 22  1  0
 22 23  2  0
 23 24  1  0
 24 25  2  0
 19 26  2  0
 26 27  1  0
 27 28  1  0
 28 29  1  0
 29 30  1  0
 30 31  1  0
 31 32  1  0
 32 33  1  0
 33 34  2  0
 33 35  2  0
 27 36  2  0
 13  6  1  0
 36 17  1  0
 25 20  1  0
 33 28  1  0
  4 37  1  6
  5 38  1  0
  5 39  1  0
  7 40  1  0
 10 41  1  0
 13 42  1  0
 18 43  1  0
 21 44  1  0
 22 45  1  0
 23 46  1  0
 24 47  1  0
 25 48  1  0
 26 49  1  0
 29 50  1  0
 29 51  1  0
 30 52  1  0
 30 53  1  0
 31 54  1  0
 31 55  1  0
 32 56  1  0
 32 57  1  0
M  CHG  2   3  -1  16  -1
M  END
>  <UniqueID>  (9) 
8

>  <SMILES>  (9) 
O=C([N-][C@H](Cc1cc(F)cc(F)c1)C(=O)[O-])c1cc(-c2ccccc2)cc(N2CCCCS2(=O)=O)n1

>  <Energy>  (9) 
68.59673638506985

>  <Genealogy>  (9) 
O=C([N-]C(Cc1cc(F)cc(F)c1)C(=O)[O-])c1cc(-c2ccccc2)cc(N2CCCCS2(=O)=O)n1 (protonated)
O=C([N-][C@H](Cc1cc(F)cc(F)c1)C(=O)[O-])c1cc(-c2ccccc2)cc(N2CCCCS2(=O)=O)n1 (chirality)
O=C([N-][C@H](Cc1cc(F)cc(F)c1)C(=O)[O-])c1cc(-c2ccccc2)cc(N2CCCCS2(=O)=O)n1 (3D coordinates assigned)
O=C([N-][C@H](Cc1cc(F)cc(F)c1)C(=O)[O-])c1cc(-c2ccccc2)cc(N2CCCCS2(=O)=O)n1 (nonaromatic ring conformer: 68.59673638506985 kcal/mol)

>  <smiles>  (9) 
O=C(NC(Cc1cc(F)cc(F)c1)C(=O)O)c1cc(-c2ccccc2)cc(N2CCCCS2(=O)=O)n1

>  <score_type>  (9) 
oracle

>  <origin>  (9) 
adg

>  <m_score__min__energy>  (9) 
-14.01

>  <m_primary>  (9) 
energy

$$$$
9:0
     RDKit          3D

 31 32  0  0  0  0  0  0  0  0999 V2000
   55.6250   29.7120   45.9930 H   0  0  0  0  0  0  0  0  0  0  0  0
   55.5970   29.6200   44.9530 N   0  0  0  0  0  0  0  0  0  0  0  0
   56.6520   29.7970   44.2230 C   0  0  0  0  0  0  0  0  0  0  0  0
   57.3190   31.1170   44.2280 C   0  0  0  0  0  0  0  0  0  0  0  0
   57.0540   31.9340   43.3050 O   0  0  0  0  0  0  0  0  0  0  0  0
   58.2880   31.5100   45.2770 C   0  0  0  0  0  0  0  0  0  0  0  0
   59.1600   30.5670   45.8480 C   0  0  0  0  0  0  0  0  0  0  0  0
   59.1152   29.5163   45.5255 H   0  0  0  0  0  0  0  0  0  0  0  0
   60.0840   30.9550   46.8230 C   0  0  0  0  0  0  0  0  0  0  0  0
   60.7597   30.2072   47.2637 H   0  0  0  0  0  0  0  0  0  0  0  0
   60.1550   32.2920   47.2430 C   0  0  0  0  0  0  0  0  0  0  0  0
   61.1460   32.7000   48.2630 C   0  0  0  0  0  0  0  0  0  0  0  0
   62.5110   32.7120   47.9240 C   0  0  0  0  0  0  0  0  0  0  0  0
   62.8243   32.4086   46.9141 H   0  0  0  0  0  0  0  0  0  0  0  0
   63.4760   33.1070   48.8610 C   0  0  0  0  0  0  0  0  0  0  0  0
   64.8610   33.1210   48.5030 N   0  0  0  0  0  0  0  0  0  0  0  0
   65.1550   33.0350   47.5050 H   0  0  0  0  0  0  0  0  0  0  0  0
   65.6010   33.2170   49.2330 H   0  0  0  0  0  0  0  0  0  0  0  0
   63.0770   33.4870   50.1480 C   0  0  0  0  0  0  0  0  0  0  0  0
   63.8302   33.8013   50.8855 H   0  0  0  0  0  0  0  0  0  0  0  0
   61.7250   33.4680   50.4980 C   0  0  0  0  0  0  0  0  0  0  0  0
   61.4192   33.7632   51.5125 H   0  0  0  0  0  0  0  0  0  0  0  0
   60.7570   33.0760   49.5670 C   0  0  0  0  0  0  0  0  0  0  0  0
   59.0780   33.0060   50.0940 Cl  0  0  0  0  0  0  0  0  0  0  0  0
   59.3060   33.2410   46.6520 C   0  0  0  0  0  0  0  0  0  0  0  0
   59.3682   34.2957   46.9580 H   0  0  0  0  0  0  0  0  0  0  0  0
   58.3820   32.8540   45.6770 C   0  0  0  0  0  0  0  0  0  0  0  0
   57.7236   33.6071   45.2194 H   0  0  0  0  0  0  0  0  0  0  0  0
   57.1910   28.7020   43.4740 N   0  0  0  0  0  0  0  0  0  0  0  0
   58.1170   28.7780   42.9980 H   0  0  0  0  0  0  0  0  0  0  0  0
   56.6950   27.7830   43.4420 H   0  0  0  0  0  0  0  0  0  0  0  0
  1  2  1  0
  2  3  2  0
  3  4  1  0
  4  5  2  0
  4  6  1  0
  6  7  2  0
  7  8  1  0
  7  9  1  0
  9 10  1  0
  9 11  2  0
 11 12  1  0
 12 13  2  0
 13 14  1  0
 13 15  1  0
 15 16  1  0
 16 17  1  0
 16 18  1  0
 15 19  2  0
 19 20  1  0
 19 21  1  0
 21 22  1  0
 21 23  2  0
 23 24  1  0
 11 25  1  0
 25 26  1  0
 25 27  2  0
 27 28  1  0
  3 29  1  0
 29 30  1  0
 29 31  1  0
 27  6  1  0
 23 12  1  0
M  END
>  <UniqueID>  (10) 
9

>  <SMILES>  (10) 
[H]/N=C(\N)C(=O)c1ccc(-c2cc(N)ccc2Cl)cc1

>  <Energy>  (10) 
41.22995587043062

>  <Genealogy>  (10) 
[H]/N=C(\N)C(=O)c1ccc(-c2cc(N)ccc2Cl)cc1 (cis-trans isomerization)
[H]/N=C(\N)C(=O)c1ccc(-c2cc(N)ccc2Cl)cc1 (3D coordinates assigned)
[H]/N=C(\N)C(=O)c1ccc(-c2cc(N)ccc2Cl)cc1 (optimized conformer: 41.22995587043062 kcal/mol)

>  <smiles>  (10) 
N=C(N)C(=O)c1ccc(-c2cc(N)ccc2Cl)cc1

>  <score_type>  (10) 
oracle

>  <origin>  (10) 
adg

>  <m_score__min__energy>  (10) 
-7.2300000000000004

>  <m_primary>  (10) 
energy

$$$$
10:0
     RDKit          3D

 42 44  0  0  0  0  0  0  0  0999 V2000
   55.5100   28.9660   44.8750 O   0  0  0  0  0  0  0  0  0  0  0  0
   56.7260   28.6570   44.9940 C   0  0  0  0  0  0  0  0  0  0  0  0
   57.7390   29.4460   44.3520 N   0  0  0  0  0  0  0  0  0  0  0  0
   57.9230   30.8690   44.4120 C   0  0  0  0  0  0  0  0  0  0  0  0
   57.9010   31.6820   43.2640 C   0  0  0  0  0  0  0  0  0  0  0  0
   58.1210   33.0580   43.3760 C   0  0  0  0  0  0  0  0  0  0  0  0
   58.3720   33.6320   44.6250 C   0  0  0  0  0  0  0  0  0  0  0  0
   58.3970   32.8330   45.7810 C   0  0  0  0  0  0  0  0  0  0  0  0
   58.7500   33.4310   47.1210 C   0  0  0  0  0  0  0  0  0  0  0  0
   60.0850   33.2020   47.4160 F   0  0  0  0  0  0  0  0  0  0  0  0
   57.9810   32.8730   48.1310 F   0  0  0  0  0  0  0  0  0  0  0  0
   58.5230   34.7950   47.0840 F   0  0  0  0  0  0  0  0  0  0  0  0
   58.2000   31.4470   45.6570 C   0  0  0  0  0  0  0  0  0  0  0  0
   57.1170   27.5310   45.8800 C   0  0  0  0  0  0  0  0  0  0  0  0
   58.4520   27.4190   46.3150 C   0  0  0  0  0  0  0  0  0  0  0  0
   58.8530   26.3430   47.1060 C   0  0  0  0  0  0  0  0  0  0  0  0
   57.9410   25.3440   47.4460 C   0  0  0  0  0  0  0  0  0  0  0  0
   56.6150   25.4150   47.0130 C   0  0  0  0  0  0  0  0  0  0  0  0
   55.7380   24.3280   47.3480 N   0  0  0  0  0  0  0  0  0  0  0  0
   56.0040   22.6520   46.9780 S   0  0  0  0  0  0  0  0  0  0  0  0
   54.8380   21.8460   47.4760 O   0  0  0  0  0  0  0  0  0  0  0  0
   57.2500   22.1860   47.6790 O   0  0  0  0  0  0  0  0  0  0  0  0
   56.2260   22.4400   45.2410 C   0  0  0  0  0  0  0  0  0  0  0  0
   55.6860   23.3630   44.3310 C   0  0  0  0  0  0  0  0  0  0  0  0
   55.9180   23.2130   42.9600 C   0  0  0  0  0  0  0  0  0  0  0  0
   56.6790   22.1370   42.4920 C   0  0  0  0  0  0  0  0  0  0  0  0
   57.2040   21.2050   43.3930 C   0  0  0  0  0  0  0  0  0  0  0  0
   56.9800   21.3570   44.7650 C   0  0  0  0  0  0  0  0  0  0  0  0
   56.1850   26.5440   46.2800 C   0  0  0  0  0  0  0  0  0  0  0  0
   54.8340   26.7160   45.9960 O   0  0  0  0  0  0  0  0  0  0  0  0
   57.7105   31.2345   42.2774 H   0  0  0  0  0  0  0  0  0  0  0  0
   58.0964   33.6915   42.4771 H   0  0  0  0  0  0  0  0  0  0  0  0
   58.5509   34.7145   44.7039 H   0  0  0  0  0  0  0  0  0  0  0  0
   58.2643   30.8077   46.5499 H   0  0  0  0  0  0  0  0  0  0  0  0
   59.1849   28.1874   46.0281 H   0  0  0  0  0  0  0  0  0  0  0  0
   59.8917   26.2819   47.4629 H   0  0  0  0  0  0  0  0  0  0  0  0
   58.2689   24.4927   48.0606 H   0  0  0  0  0  0  0  0  0  0  0  0
   55.0799   24.2049   44.6968 H   0  0  0  0  0  0  0  0  0  0  0  0
   55.5016   23.9419   42.2492 H   0  0  0  0  0  0  0  0  0  0  0  0
   56.8649   22.0236   41.4138 H   0  0  0  0  0  0  0  0  0  0  0  0
   57.7928   20.3529   43.0226 H   0  0  0  0  0  0  0  0  0  0  0  0
   57.3962   20.6252   45.4730 H   0  0  0  0  0  0  0  0  0  0  0  0
  1  2  2  0
  2  3  1  0
  3  4  1  0
  4  5  2  0
  5  6  1  0
  6  7  2  0
  7  8  1  0
  8  9  1  0
  9 10  1  0
  9 11  1  0
  9 12  1  0
  8 13  2  0
  2 14  1  0
 14 15  2  0
 15 16  1  0
 16 17  2  0
 17 18  1  0
 18 19  1  0
 19 20  1  0
 20 21  2  0
 20 22  2  0
 20 23  1  0
 23 24  2  0
 24 25  1  0
 25 26  2  0
 26 27  1  0
 27 28  2  0
 18 29  2  0
 29 30  1  0
 13  4  1  0
 29 14  1  0
 28 23  1  0
  5 31  1  0
  6 32  1  0
  7 33  1  0
 13 34  1  0
 15 35  1  0
 16 36  1  0
 17 37  1  0
 24 38  1  0
 25 39  1  0
 26 40  1  0
 27 41  1  0
 28 42  1  0
M  CHG  3   3  -1  19  -1  30  -1
M  END
>  <UniqueID>  (11) 
10

>  <SMILES>  (11) 
O=C([N-]c1cccc(C(F)(F)F)c1)c1cccc([N-]S(=O)(=O)c2ccccc2)c1[O-]

>  <Energy>  (11) 
58.00097776661179

>  <Genealogy>  (11) 
O=C([N-]c1cccc(C(F)(F)F)c1)c1cccc([N-]S(=O)(=O)c2ccccc2)c1[O-] (protonated)
O=C([N-]c1cccc(C(F)(F)F)c1)c1cccc([N-]S(=O)(=O)c2ccccc2)c1[O-] (3D coordinates assigned)
O=C([N-]c1cccc(C(F)(F)F)c1)c1cccc([N-]S(=O)(=O)c2ccccc2)c1[O-] (optimized conformer: 58.00097776661179 kcal/mol)

>  <smiles>  (11) 
O=C(Nc1cccc(C(F)(F)F)c1)c1cccc(NS(=O)(=O)c2ccccc2)c1O

>  <score_type>  (11) 
oracle

>  <origin>  (11) 
adg

>  <m_score__min__energy>  (11) 
-16.199999999999999

>  <m_primary>  (11) 
energy

$$$$
11:0
     RDKit          3D

 41 42  0  0  0  0  0  0  0  0999 V2000
   60.1300   25.9150   46.0510 C   0  0  0  0  0  0  0  0  0  0  0  0
   59.9930   26.4930   47.3460 O   0  0  0  0  0  0  0  0  0  0  0  0
   60.2540   27.8380   47.6430 C   0  0  0  0  0  0  0  0  0  0  0  0
   60.4170   28.7330   46.5800 C   0  0  0  0  0  0  0  0  0  0  0  0
   60.7310   30.0740   46.8230 C   0  0  0  0  0  0  0  0  0  0  0  0
   60.8820   30.5380   48.1390 C   0  0  0  0  0  0  0  0  0  0  0  0
   61.2930   31.9640   48.4010 C   0  0  0  0  0  0  0  0  0  0  0  0
   60.8020   32.8690   47.3560 N   0  0  0  0  0  0  0  0  0  0  0  0
   59.0650   33.0250   47.4030 S   0  0  0  0  0  0  0  0  0  0  0  0
   58.7040   34.4820   47.4670 O   0  0  0  0  0  0  0  0  0  0  0  0
   58.5220   32.3490   48.6320 O   0  0  0  0  0  0  0  0  0  0  0  0
   58.3580   32.3220   45.9410 C   0  0  0  0  0  0  0  0  0  0  0  0
   57.7110   31.0800   46.0150 C   0  0  0  0  0  0  0  0  0  0  0  0
   57.2140   30.4500   44.8570 C   0  0  0  0  0  0  0  0  0  0  0  0
   56.5670   29.1080   44.9090 C   0  0  0  0  0  0  0  0  0  0  0  0
   55.3150   29.0200   44.7780 O   0  0  0  0  0  0  0  0  0  0  0  0
   57.3400   27.8360   45.1290 C   0  0  0  0  0  0  0  0  0  0  0  0
   56.6490   26.9680   46.1350 C   0  0  0  0  0  0  0  0  0  0  0  0
   55.2620   26.6710   45.9940 N   0  0  0  0  0  0  0  0  0  0  0  0
   57.2960   26.4940   47.1080 O   0  0  0  0  0  0  0  0  0  0  0  0
   57.3550   31.1070   43.6210 C   0  0  0  0  0  0  0  0  0  0  0  0
   57.9810   32.3510   43.5440 C   0  0  0  0  0  0  0  0  0  0  0  0
   58.4860   32.9630   44.6930 C   0  0  0  0  0  0  0  0  0  0  0  0
   59.3020   34.5120   44.5200 Cl  0  0  0  0  0  0  0  0  0  0  0  0
   60.6690   29.6540   49.2080 C   0  0  0  0  0  0  0  0  0  0  0  0
   60.3670   28.3110   48.9640 C   0  0  0  0  0  0  0  0  0  0  0  0
   60.3827   24.8490   46.1501 H   0  0  0  0  0  0  0  0  0  0  0  0
   59.1826   26.0177   45.5015 H   0  0  0  0  0  0  0  0  0  0  0  0
   60.9305   26.4320   45.5015 H   0  0  0  0  0  0  0  0  0  0  0  0
   60.2973   28.3792   45.5453 H   0  0  0  0  0  0  0  0  0  0  0  0
   60.8602   30.7679   45.9793 H   0  0  0  0  0  0  0  0  0  0  0  0
   60.8814   32.2816   49.3704 H   0  0  0  0  0  0  0  0  0  0  0  0
   62.3920   32.0095   48.4065 H   0  0  0  0  0  0  0  0  0  0  0  0
   57.5897   30.5901   46.9924 H   0  0  0  0  0  0  0  0  0  0  0  0
   57.4202   27.2921   44.1763 H   0  0  0  0  0  0  0  0  0  0  0  0
   58.3413   28.0898   45.5070 H   0  0  0  0  0  0  0  0  0  0  0  0
   54.7840   26.7570   45.0710 H   0  0  0  0  0  0  0  0  0  0  0  0
   56.9676   30.6348   42.7061 H   0  0  0  0  0  0  0  0  0  0  0  0
   58.0776   32.8539   42.5705 H   0  0  0  0  0  0  0  0  0  0  0  0
   60.7400   30.0197   50.2430 H   0  0  0  0  0  0  0  0  0  0  0  0
   60.2171   27.6212   49.8076 H   0  0  0  0  0  0  0  0  0  0  0  0
  1  2  1  0
  2  3  1  0
  3  4  2  0
  4  5  1  0
  5  6  2  0
  6  7  1  0
  7  8  1  0
  8  9  1  0
  9 10  2  0
  9 11  2  0
  9 12  1  0
 12 13  2  0
 13 14  1  0
 14 15  1  0
 15 16  2  0
 15 17  1  0
 17 18  1  0
 18 19  1  0
 18 20  2  0
 14 21  2  0
 21 22  1  0
 22 23  2  0
 23 24  1  0
  6 25  1  0
 25 26  2  0
 26  3  1  0
 23 12  1  0
  1 27  1  0
  1 28  1  0
  1 29  1  0
  4 30  1  0
  5 31  1  0
  7 32  1  0
  7 33  1  0
 13 34  1  0
 17 35  1  0
 17 36  1  0
 19 37  1  0
 21 38  1  0
 22 39  1  0
 25 40  1  0
 26 41  1  0
M  CHG  2   8  -1  19  -1
M  END
>  <UniqueID>  (12) 
11

>  <SMILES>  (12) 
COc1ccc(C[N-]S(=O)(=O)c2cc(C(=O)CC([NH-])=O)ccc2Cl)cc1

>  <Energy>  (12) 
35.29781732069294

>  <Genealogy>  (12) 
COc1ccc(C[N-]S(=O)(=O)c2cc(C(=O)CC([NH-])=O)ccc2Cl)cc1 (protonated)
COc1ccc(C[N-]S(=O)(=O)c2cc(C(=O)CC([NH-])=O)ccc2Cl)cc1 (3D coordinates assigned)
COc1ccc(C[N-]S(=O)(=O)c2cc(C(=O)CC([NH-])=O)ccc2Cl)cc1 (optimized conformer: 35.29781732069294 kcal/mol)

>  <smiles>  (12) 
COc1ccc(CNS(=O)(=O)c2cc(C(=O)CC(N)=O)ccc2Cl)cc1

>  <score_type>  (12) 
oracle

>  <origin>  (12) 
adg

>  <m_score__min__energy>  (12) 
-12.82

>  <m_primary>  (12) 
energy

$$$$
12:0
     RDKit          3D

 45 47  0  0  0  0  0  0  0  0999 V2000
   54.6167   30.5247   43.8005 H   0  0  0  0  0  0  0  0  0  0  0  0
   55.5270   30.1470   44.2890 C   0  0  0  0  0  0  0  0  0  0  0  0
   55.5210   28.9230   44.8790 N   0  0  0  0  0  0  0  0  0  0  0  0
   56.6270   28.4230   45.4920 C   0  0  0  0  0  0  0  0  0  0  0  0
   56.5921   27.4285   45.9607 H   0  0  0  0  0  0  0  0  0  0  0  0
   57.8070   29.1690   45.5280 C   0  0  0  0  0  0  0  0  0  0  0  0
   58.7030   28.7608   46.0184 H   0  0  0  0  0  0  0  0  0  0  0  0
   57.8460   30.4380   44.9380 C   0  0  0  0  0  0  0  0  0  0  0  0
   58.9610   31.1140   44.9800 N   0  0  0  0  0  0  0  0  0  0  0  0
   59.2250   32.2620   45.8040 C   0  0  0  0  0  0  0  0  0  0  0  0
   58.9990   33.4690   45.3710 N   0  0  0  0  0  0  0  0  0  0  0  0
   57.7180   34.0330   45.2690 C   0  0  0  0  0  0  0  0  0  0  0  0
   56.6620   34.4980   45.1840 N   0  0  0  0  0  0  0  0  0  0  0  0
   59.6730   32.0550   47.1500 N   0  0  0  0  0  0  0  0  0  0  0  0
   59.8490   31.0770   47.4710 H   0  0  0  0  0  0  0  0  0  0  0  0
   59.9200   33.1500   48.0870 C   0  0  0  0  0  0  0  0  0  0  0  0
   60.9773   33.4476   48.0268 H   0  0  0  0  0  0  0  0  0  0  0  0
   59.2737   33.9999   47.8226 H   0  0  0  0  0  0  0  0  0  0  0  0
   59.6060   32.7150   49.4930 C   0  0  0  0  0  0  0  0  0  0  0  0
   60.6080   32.6980   50.4750 C   0  0  0  0  0  0  0  0  0  0  0  0
   61.6380   32.9815   50.2127 H   0  0  0  0  0  0  0  0  0  0  0  0
   60.3010   32.3220   51.7850 C   0  0  0  0  0  0  0  0  0  0  0  0
   61.0888   32.3165   52.5527 H   0  0  0  0  0  0  0  0  0  0  0  0
   58.9970   31.9530   52.1230 C   0  0  0  0  0  0  0  0  0  0  0  0
   58.7599   31.6680   53.1586 H   0  0  0  0  0  0  0  0  0  0  0  0
   57.9860   31.9440   51.1460 C   0  0  0  0  0  0  0  0  0  0  0  0
   56.6290   31.5990   51.4730 N   0  0  0  0  0  0  0  0  0  0  0  0
   55.9020   32.3250   51.2930 H   0  0  0  0  0  0  0  0  0  0  0  0
   56.2260   30.3050   51.9600 C   0  0  0  0  0  0  0  0  0  0  0  0
   57.0690   29.3690   52.0310 O   0  0  0  0  0  0  0  0  0  0  0  0
   54.8280   30.0410   52.3770 C   0  0  0  0  0  0  0  0  0  0  0  0
   53.7370   30.6270   51.7050 C   0  0  0  0  0  0  0  0  0  0  0  0
   53.9164   31.2997   50.8533 H   0  0  0  0  0  0  0  0  0  0  0  0
   52.4270   30.3580   52.1150 C   0  0  0  0  0  0  0  0  0  0  0  0
   51.5813   30.8252   51.5892 H   0  0  0  0  0  0  0  0  0  0  0  0
   52.1890   29.4980   53.1900 C   0  0  0  0  0  0  0  0  0  0  0  0
   50.9180   29.2390   53.5830 F   0  0  0  0  0  0  0  0  0  0  0  0
   53.2620   28.9000   53.8540 C   0  0  0  0  0  0  0  0  0  0  0  0
   53.0749   28.2191   54.6974 H   0  0  0  0  0  0  0  0  0  0  0  0
   54.5740   29.1650   53.4490 C   0  0  0  0  0  0  0  0  0  0  0  0
   55.4141   28.6851   53.9723 H   0  0  0  0  0  0  0  0  0  0  0  0
   58.2960   32.3470   49.8380 C   0  0  0  0  0  0  0  0  0  0  0  0
   57.5041   32.3748   49.0750 H   0  0  0  0  0  0  0  0  0  0  0  0
   56.6870   30.9280   44.3010 C   0  0  0  0  0  0  0  0  0  0  0  0
   56.6954   31.9161   43.8177 H   0  0  0  0  0  0  0  0  0  0  0  0
  1  2  1  0
  2  3  1  0
  3  4  1  0
  4  5  1  0
  4  6  2  0
  6  7  1  0
  6  8  1  0
  8  9  2  0
  9 10  1  0
 10 11  2  0
 11 12  1  0
 12 13  3  0
 10 14  1  0
 14 15  1  0
 14 16  1  0
 16 17  1  0
 16 18  1  0
 16 19  1  0
 19 20  2  0
 20 21  1  0
 20 22  1  0
 22 23  1  0
 22 24  2  0
 24 25  1  0
 24 26  1  0
 26 27  1  0
 27 28  1  0
 27 29  1  0
 29 30  2  0
 29 31  1  0
 31 32  2  0
 32 33  1  0
 32 34  1  0
 34 35  1  0
 34 36  2  0
 36 37  1  0
 36 38  1  0
 38 39  1  0
 38 40  2  0
 40 41  1  0
 26 42  2  0
 42 43  1  0
  8 44  1  0
 44 45  1  0
 44  2  2  0
 42 19  1  0
 40 31  1  0
M  CHG  1   3  -1
M  END
>  <UniqueID>  (13) 
12

>  <SMILES>  (13) 
N#C/N=C(\N=c1cc[n-]cc1)NCc1cccc(NC(=O)c2ccc(F)cc2)c1

>  <Energy>  (13) 
63.25045636531249

>  <Genealogy>  (13) 
N#CN=C(N=c1cc[n-]cc1)NCc1cccc(NC(=O)c2ccc(F)cc2)c1 (protonated)
N#C/N=C(\N=c1cc[n-]cc1)NCc1cccc(NC(=O)c2ccc(F)cc2)c1 (cis-trans isomerization)
N#C/N=C(\N=c1cc[n-]cc1)NCc1cccc(NC(=O)c2ccc(F)cc2)c1 (3D coordinates assigned)
N#C/N=C(\N=c1cc[n-]cc1)NCc1cccc(NC(=O)c2ccc(F)cc2)c1 (optimized conformer: 63.25045636531249 kcal/mol)

>  <smiles>  (13) 
N#CN=C(N=c1cc[nH]cc1)NCc1cccc(NC(=O)c2ccc(F)cc2)c1

>  <score_type>  (13) 
oracle

>  <origin>  (13) 
adg

>  <m_score__min__energy>  (13) 
-10.130000000000001

>  <m_primary>  (13) 
energy

$$$$
13:0
     RDKit          3D

 49 51  0  0  0  0  0  0  0  0999 V2000
   59.1960   28.6610   48.6100 O   0  0  0  0  0  0  0  0  0  0  0  0
   58.7060   29.0260   47.5080 C   0  0  0  0  0  0  0  0  0  0  0  0
   58.3720   30.2940   47.2110 N   0  0  0  0  0  0  0  0  0  0  0  0
   58.5750   31.4870   48.0300 C   0  0  0  0  0  0  0  0  0  0  0  0
   59.6690   32.3530   47.4360 C   0  0  0  0  0  0  0  0  0  0  0  0
   61.0200   32.1510   47.8140 C   0  0  0  0  0  0  0  0  0  0  0  0
   61.5020   30.8740   48.9280 Cl  0  0  0  0  0  0  0  0  0  0  0  0
   62.0270   32.9690   47.2920 C   0  0  0  0  0  0  0  0  0  0  0  0
   61.7140   33.9920   46.3990 C   0  0  0  0  0  0  0  0  0  0  0  0
   60.3900   34.2050   46.0180 C   0  0  0  0  0  0  0  0  0  0  0  0
   59.3650   33.3980   46.5280 C   0  0  0  0  0  0  0  0  0  0  0  0
   57.7260   33.7340   45.9790 Cl  0  0  0  0  0  0  0  0  0  0  0  0
   57.9080   30.3090   45.9710 N   0  0  0  0  0  0  0  0  0  0  0  0
   57.9810   29.0350   45.5220 C   0  0  0  0  0  0  0  0  0  0  0  0
   57.5160   28.6110   44.1540 C   0  0  0  0  0  0  0  0  0  0  0  0
   56.7820   29.7350   43.4070 C   0  0  0  0  0  0  0  0  0  0  0  0
   55.5260   30.2040   44.1470 C   0  0  0  0  0  0  0  0  0  0  0  0
   55.2750   29.3480   45.2260 O   0  0  0  0  0  0  0  0  0  0  0  0
   58.4640   28.2010   46.4750 N   0  0  0  0  0  0  0  0  0  0  0  0
   58.7900   26.7730   46.3820 C   0  0  0  0  0  0  0  0  0  0  0  0
   57.5170   25.9130   46.3820 C   0  0  0  0  0  0  0  0  0  0  0  0
   57.7150   24.6180   45.6380 C   0  0  0  0  0  0  0  0  0  0  0  0
   56.8760   24.2810   44.5620 C   0  0  0  0  0  0  0  0  0  0  0  0
   57.0990   23.1100   43.8350 C   0  0  0  0  0  0  0  0  0  0  0  0
   58.1640   22.2700   44.1660 C   0  0  0  0  0  0  0  0  0  0  0  0
   59.0100   22.5980   45.2340 C   0  0  0  0  0  0  0  0  0  0  0  0
   60.0800   21.7710   45.5700 O   0  0  0  0  0  0  0  0  0  0  0  0
   58.7820   23.7650   45.9700 C   0  0  0  0  0  0  0  0  0  0  0  0
   57.6386   32.0627   48.0711 H   0  0  0  0  0  0  0  0  0  0  0  0
   58.8727   31.1791   49.0432 H   0  0  0  0  0  0  0  0  0  0  0  0
   63.0734   32.8038   47.5883 H   0  0  0  0  0  0  0  0  0  0  0  0
   62.5121   34.6318   45.9945 H   0  0  0  0  0  0  0  0  0  0  0  0
   60.1485   35.0129   45.3116 H   0  0  0  0  0  0  0  0  0  0  0  0
   58.3921   28.3077   43.5620 H   0  0  0  0  0  0  0  0  0  0  0  0
   56.8082   27.7792   44.2847 H   0  0  0  0  0  0  0  0  0  0  0  0
   57.4655   30.5895   43.2944 H   0  0  0  0  0  0  0  0  0  0  0  0
   56.4677   29.3391   42.4300 H   0  0  0  0  0  0  0  0  0  0  0  0
   55.6799   31.2277   44.5188 H   0  0  0  0  0  0  0  0  0  0  0  0
   54.6676   30.1897   43.4593 H   0  0  0  0  0  0  0  0  0  0  0  0
   55.7850   29.7160   45.9930 H   0  0  0  0  0  0  0  0  0  0  0  0
   59.3460   26.5915   45.4503 H   0  0  0  0  0  0  0  0  0  0  0  0
   59.3981   26.4962   47.2558 H   0  0  0  0  0  0  0  0  0  0  0  0
   57.2404   25.6869   47.4224 H   0  0  0  0  0  0  0  0  0  0  0  0
   56.7222   26.4798   45.8750 H   0  0  0  0  0  0  0  0  0  0  0  0
   56.0400   24.9427   44.2914 H   0  0  0  0  0  0  0  0  0  0  0  0
   56.4336   22.8485   42.9990 H   0  0  0  0  0  0  0  0  0  0  0  0
   58.3391   21.3504   43.5883 H   0  0  0  0  0  0  0  0  0  0  0  0
   60.1140   20.8030   45.2730 H   0  0  0  0  0  0  0  0  0  0  0  0
   59.4414   24.0170   46.8136 H   0  0  0  0  0  0  0  0  0  0  0  0
  1  2  2  0
  2  3  1  0
  3  4  1  0
  4  5  1  0
  5  6  2  0
  6  7  1  0
  6  8  1  0
  8  9  2  0
  9 10  1  0
 10 11  2  0
 11 12  1  0
  3 13  1  0
 13 14  2  0
 14 15  1  0
 15 16  1  0
 16 17  1  0
 17 18  1  0
 14 19  1  0
 19 20  1  0
 20 21  1  0
 21 22  1  0
 22 23  2  0
 23 24  1  0
 24 25  2  0
 25 26  1  0
 26 27  1  0
 26 28  2  0
 19  2  1  0
 28 22  1  0
 11  5  1  0
  4 29  1  0
  4 30  1  0
  8 31  1  0
  9 32  1  0
 10 33  1  0
 15 34  1  0
 15 35  1  0
 16 36  1  0
 16 37  1  0
 17 38  1  0
 17 39  1  0
 18 40  1  0
 20 41  1  0
 20 42  1  0
 21 43  1  0
 21 44  1  0
 23 45  1  0
 24 46  1  0
 25 47  1  0
 27 48  1  0
 28 49  1  0
M  END
>  <UniqueID>  (14) 
13

>  <SMILES>  (14) 
O=c1n(Cc2c(Cl)cccc2Cl)nc(CCCO)n1CCc1cccc(O)c1

>  <Energy>  (14) 
76.09968810419376

>  <Genealogy>  (14) 
O=c1n(Cc2c(Cl)cccc2Cl)nc(CCCO)n1CCc1cccc(O)c1 (3D coordinates assigned)
O=c1n(Cc2c(Cl)cccc2Cl)nc(CCCO)n1CCc1cccc(O)c1 (optimized conformer: 76.09968810419376 kcal/mol)

>  <smiles>  (14) 
O=c1n(Cc2c(Cl)cccc2Cl)nc(CCCO)n1CCc1cccc(O)c1

>  <score_type>  (14) 
oracle

>  <origin>  (14) 
adg

>  <m_score__min__energy>  (14) 
-10.390000000000001

>  <m_primary>  (14) 
energy

$$$$
14:0
     RDKit          3D

 66 70  0  0  0  0  0  0  0  0999 V2000
   57.8470   21.0980   44.4100 N   0  0  0  0  0  0  0  0  0  0  0  0
   56.6780   21.9190   44.4880 C   0  0  0  0  0  0  0  0  0  0  0  0
   55.5640   21.4250   44.1610 O   0  0  0  0  0  0  0  0  0  0  0  0
   56.7520   23.3350   44.9230 C   0  0  0  0  0  0  0  0  0  0  0  0
   58.0020   23.9650   45.0620 C   0  0  0  0  0  0  0  0  0  0  0  0
   58.0850   25.2960   45.4820 C   0  0  0  0  0  0  0  0  0  0  0  0
   56.9210   26.0220   45.7750 C   0  0  0  0  0  0  0  0  0  0  0  0
   57.0180   27.4590   46.2210 C   0  0  0  0  0  0  0  0  0  0  0  0
   56.7840   28.3690   45.1020 N   0  0  0  0  0  0  0  0  0  0  0  0
   56.9150   29.7980   45.1420 C   0  0  0  0  0  0  0  0  0  0  0  0
   55.9170   30.5080   44.8570 O   0  0  0  0  0  0  0  0  0  0  0  0
   58.1670   30.4530   45.5450 C   0  0  0  0  0  0  0  0  0  0  0  0
   59.5230   29.6540   46.1760 S   0  0  0  0  0  0  0  0  0  0  0  0
   60.3820   31.0600   46.4910 C   0  0  0  0  0  0  0  0  0  0  0  0
   61.6070   31.2080   47.1270 C   0  0  0  0  0  0  0  0  0  0  0  0
   62.0810   32.5190   47.3510 C   0  0  0  0  0  0  0  0  0  0  0  0
   63.2720   32.7790   48.0480 O   0  0  0  0  0  0  0  0  0  0  0  0
   63.3390   33.3120   49.3710 C   0  0  0  0  0  0  0  0  0  0  0  0
   64.2780   32.5020   50.2300 C   0  0  0  0  0  0  0  0  0  0  0  0
   65.6010   32.9290   50.4270 C   0  0  0  0  0  0  0  0  0  0  0  0
   66.4670   32.1940   51.2400 C   0  0  0  0  0  0  0  0  0  0  0  0
   66.0290   31.0120   51.8570 C   0  0  0  0  0  0  0  0  0  0  0  0
   66.9640   30.2150   52.7350 C   0  0  0  0  0  0  0  0  0  0  0  0
   67.9930   29.5280   51.9240 N   0  0  0  0  0  0  0  0  0  0  0  0
   68.5500   28.3520   52.6250 C   0  0  0  0  0  0  0  0  0  0  0  0
   67.5580   27.1730   52.6770 C   0  0  0  0  0  0  0  0  0  0  0  0
   66.7880   26.9680   51.3540 C   0  0  0  0  0  0  0  0  0  0  0  0
   65.4770   27.3910   51.5060 F   0  0  0  0  0  0  0  0  0  0  0  0
   66.7690   25.6200   51.0360 F   0  0  0  0  0  0  0  0  0  0  0  0
   67.4310   27.7400   50.2000 C   0  0  0  0  0  0  0  0  0  0  0  0
   67.5410   29.2390   50.5350 C   0  0  0  0  0  0  0  0  0  0  0  0
   64.7190   30.5620   51.6270 C   0  0  0  0  0  0  0  0  0  0  0  0
   63.8490   31.3030   50.8220 C   0  0  0  0  0  0  0  0  0  0  0  0
   61.3220   33.6120   46.8830 C   0  0  0  0  0  0  0  0  0  0  0  0
   60.1150   33.4160   46.2770 N   0  0  0  0  0  0  0  0  0  0  0  0
   59.6440   32.1560   46.0880 C   0  0  0  0  0  0  0  0  0  0  0  0
   58.3990   31.8320   45.5440 C   0  0  0  0  0  0  0  0  0  0  0  0
   57.2230   33.0330   45.0280 Cl  0  0  0  0  0  0  0  0  0  0  0  0
   55.6730   25.3960   45.6340 C   0  0  0  0  0  0  0  0  0  0  0  0
   55.5870   24.0740   45.1930 C   0  0  0  0  0  0  0  0  0  0  0  0
   57.7590   20.0890   44.1590 H   0  0  0  0  0  0  0  0  0  0  0  0
   58.8060   21.4960   44.5170 H   0  0  0  0  0  0  0  0  0  0  0  0
   58.9223   23.4056   44.8383 H   0  0  0  0  0  0  0  0  0  0  0  0
   59.0691   25.7768   45.5833 H   0  0  0  0  0  0  0  0  0  0  0  0
   56.2649   27.6458   47.0007 H   0  0  0  0  0  0  0  0  0  0  0  0
   58.0299   27.6376   46.6137 H   0  0  0  0  0  0  0  0  0  0  0  0
   62.1900   30.3316   47.4464 H   0  0  0  0  0  0  0  0  0  0  0  0
   63.6994   34.3502   49.3233 H   0  0  0  0  0  0  0  0  0  0  0  0
   62.3340   33.2746   49.8166 H   0  0  0  0  0  0  0  0  0  0  0  0
   65.9576   33.8477   49.9383 H   0  0  0  0  0  0  0  0  0  0  0  0
   67.4980   32.5436   51.3975 H   0  0  0  0  0  0  0  0  0  0  0  0
   67.4590   30.8947   53.4442 H   0  0  0  0  0  0  0  0  0  0  0  0
   66.3780   29.4566   53.2748 H   0  0  0  0  0  0  0  0  0  0  0  0
   69.4592   28.0254   52.0990 H   0  0  0  0  0  0  0  0  0  0  0  0
   68.7684   28.6518   53.6606 H   0  0  0  0  0  0  0  0  0  0  0  0
   68.1188   26.2537   52.9013 H   0  0  0  0  0  0  0  0  0  0  0  0
   66.8157   27.4040   53.4552 H   0  0  0  0  0  0  0  0  0  0  0  0
   68.4378   27.3377   50.0144 H   0  0  0  0  0  0  0  0  0  0  0  0
   66.8004   27.6252   49.3061 H   0  0  0  0  0  0  0  0  0  0  0  0
   68.2590   29.6954   49.8377 H   0  0  0  0  0  0  0  0  0  0  0  0
   66.5275   29.6564   50.4418 H   0  0  0  0  0  0  0  0  0  0  0  0
   64.3756   29.6215   52.0826 H   0  0  0  0  0  0  0  0  0  0  0  0
   62.8230   30.9451   50.6513 H   0  0  0  0  0  0  0  0  0  0  0  0
   61.7076   34.6346   47.0080 H   0  0  0  0  0  0  0  0  0  0  0  0
   54.7543   25.9517   45.8730 H   0  0  0  0  0  0  0  0  0  0  0  0
   54.6004   23.6073   45.0558 H   0  0  0  0  0  0  0  0  0  0  0  0
  1  2  1  0
  2  3  2  0
  2  4  1  0
  4  5  2  0
  5  6  1  0
  6  7  2  0
  7  8  1  0
  8  9  1  0
  9 10  1  0
 10 11  2  0
 10 12  1  0
 12 13  1  0
 13 14  1  0
 14 15  2  0
 15 16  1  0
 16 17  1  0
 17 18  1  0
 18 19  1  0
 19 20  2  0
 20 21  1  0
 21 22  2  0
 22 23  1  0
 23 24  1  0
 24 25  1  0
 25 26  1  0
 26 27  1  0
 27 28  1  0
 27 29  1  0
 27 30  1  0
 30 31  1  0
 22 32  1  0
 32 33  2  0
 16 34  2  0
 34 35  1  0
 35 36  2  0
 36 37  1  0
 37 38  1  0
  7 39  1  0
 39 40  2  0
 40  4  1  0
 37 12  2  0
 36 14  1  0
 33 19  1  0
 31 24  1  0
  1 41  1  0
  1 42  1  0
  5 43  1  0
  6 44  1  0
  8 45  1  0
  8 46  1  0
 15 47  1  0
 18 48  1  0
 18 49  1  0
 20 50  1  0
 21 51  1  0
 23 52  1  0
 23 53  1  0
 25 54  1  0
 25 55  1  0
 26 56  1  0
 26 57  1  0
 30 58  1  0
 30 59  1  0
 31 60  1  0
 31 61  1  0
 32 62  1  0
 33 63  1  0
 34 64  1  0
 39 65  1  0
 40 66  1  0
M  CHG  1   9  -1
M  END
>  <UniqueID>  (15) 
14

>  <SMILES>  (15) 
NC(=O)c1ccc(C[N-]C(=O)c2sc3cc(OCc4ccc(CN5CCC(F)(F)CC5)cc4)cnc3c2Cl)cc1

>  <Energy>  (15) 
110.79933935859788

>  <Genealogy>  (15) 
NC(=O)c1ccc(C[N-]C(=O)c2sc3cc(OCc4ccc(CN5CCC(F)(F)CC5)cc4)cnc3c2Cl)cc1 (protonated)
NC(=O)c1ccc(C[N-]C(=O)c2sc3cc(OCc4ccc(CN5CCC(F)(F)CC5)cc4)cnc3c2Cl)cc1 (3D coordinates assigned)
NC(=O)c1ccc(C[N-]C(=O)c2sc3cc(OCc4ccc(CN5CCC(F)(F)CC5)cc4)cnc3c2Cl)cc1 (nonaromatic ring conformer: 110.79933935859788 kcal/mol)

>  <smiles>  (15) 
NC(=O)c1ccc(CNC(=O)c2sc3cc(OCc4ccc(CN5CCC(F)(F)CC5)cc4)cnc3c2Cl)cc1

>  <score_type>  (15) 
oracle

>  <origin>  (15) 
adg

>  <m_score__min__energy>  (15) 
-11.710000000000001

>  <m_primary>  (15) 
energy

$$$$
15:0
     RDKit          3D

 29 31  0  0  0  0  0  0  0  0999 V2000
   58.5430   31.8750   47.2490 C   0  0  0  0  0  0  0  0  0  0  0  0
   58.3670   31.9930   45.7590 C   0  0  0  0  0  0  0  0  0  0  0  0
   58.5740   33.2400   45.1440 C   0  0  0  0  0  0  0  0  0  0  0  0
   58.4030   33.3870   43.7660 C   0  0  0  0  0  0  0  0  0  0  0  0
   58.0320   32.2920   42.9860 C   0  0  0  0  0  0  0  0  0  0  0  0
   57.8420   31.0430   43.5800 C   0  0  0  0  0  0  0  0  0  0  0  0
   58.0200   30.8770   44.9630 C   0  0  0  0  0  0  0  0  0  0  0  0
   57.8470   29.5770   45.5460 N   0  0  0  0  0  0  0  0  0  0  0  0
   58.8870   28.6450   45.8560 C   0  0  0  0  0  0  0  0  0  0  0  0
   60.1140   28.9270   45.8680 O   0  0  0  0  0  0  0  0  0  0  0  0
   58.3220   27.3180   46.0760 C   0  0  0  0  0  0  0  0  0  0  0  0
   58.9380   26.1130   46.4070 C   0  0  0  0  0  0  0  0  0  0  0  0
   58.1280   24.9700   46.5390 C   0  0  0  0  0  0  0  0  0  0  0  0
   56.7330   25.0540   46.3350 C   0  0  0  0  0  0  0  0  0  0  0  0
   56.1370   26.2820   45.9950 C   0  0  0  0  0  0  0  0  0  0  0  0
   54.7670   26.3730   45.7860 O   0  0  0  0  0  0  0  0  0  0  0  0
   56.9610   27.4030   45.8740 C   0  0  0  0  0  0  0  0  0  0  0  0
   56.6540   28.7870   45.5250 C   0  0  0  0  0  0  0  0  0  0  0  0
   55.5110   29.2370   45.2450 O   0  0  0  0  0  0  0  0  0  0  0  0
   57.7331   32.4180   47.7580 H   0  0  0  0  0  0  0  0  0  0  0  0
   58.5121   30.8144   47.5390 H   0  0  0  0  0  0  0  0  0  0  0  0
   59.5124   32.3064   47.5390 H   0  0  0  0  0  0  0  0  0  0  0  0
   58.8728   34.1062   45.7527 H   0  0  0  0  0  0  0  0  0  0  0  0
   58.5612   34.3683   43.2948 H   0  0  0  0  0  0  0  0  0  0  0  0
   57.8890   32.4126   41.9020 H   0  0  0  0  0  0  0  0  0  0  0  0
   57.5506   30.1824   42.9600 H   0  0  0  0  0  0  0  0  0  0  0  0
   60.0258   26.0568   46.5607 H   0  0  0  0  0  0  0  0  0  0  0  0
   58.5844   24.0045   46.8029 H   0  0  0  0  0  0  0  0  0  0  0  0
   56.1092   24.1544   46.4426 H   0  0  0  0  0  0  0  0  0  0  0  0
  1  2  1  0
  2  3  2  0
  3  4  1  0
  4  5  2  0
  5  6  1  0
  6  7  2  0
  7  8  1  0
  8  9  1  0
  9 10  2  0
  9 11  1  0
 11 12  2  0
 12 13  1  0
 13 14  2  0
 14 15  1  0
 15 16  1  0
 15 17  2  0
 17 18  1  0
 18 19  2  0
  7  2  1  0
 18  8  1  0
 17 11  1  0
  1 20  1  0
  1 21  1  0
  1 22  1  0
  3 23  1  0
  4 24  1  0
  5 25  1  0
  6 26  1  0
 12 27  1  0
 13 28  1  0
 14 29  1  0
M  CHG  1  16  -1
M  END
>  <UniqueID>  (16) 
15

>  <SMILES>  (16) 
Cc1ccccc1N1C(=O)c2cccc([O-])c2C1=O

>  <Energy>  (16) 
70.60548752979895

>  <Genealogy>  (16) 
Cc1ccccc1N1C(=O)c2cccc([O-])c2C1=O (protonated)
Cc1ccccc1N1C(=O)c2cccc([O-])c2C1=O (3D coordinates assigned)
Cc1ccccc1N1C(=O)c2cccc([O-])c2C1=O (nonaromatic ring conformer: 70.60548752979895 kcal/mol)

>  <smiles>  (16) 
Cc1ccccc1N1C(=O)c2cccc(O)c2C1=O

>  <score_type>  (16) 
oracle

>  <origin>  (16) 
adg

>  <m_score__min__energy>  (16) 
-11.07

>  <m_primary>  (16) 
energy

$$$$
16:0
     RDKit          3D

 30 31  0  0  0  0  0  0  0  0999 V2000
   61.2430   33.6450   46.9110 C   0  0  0  0  0  0  0  0  0  0  0  0
   60.1320   32.7810   46.4090 C   0  0  0  0  0  0  0  0  0  0  0  0
   60.1280   31.4380   46.5370 N   0  0  0  0  0  0  0  0  0  0  0  0
   58.9710   31.0450   45.9610 C   0  0  0  0  0  0  0  0  0  0  0  0
   58.5470   29.6270   45.9060 C   0  0  0  0  0  0  0  0  0  0  0  0
   58.4260   28.8550   47.0740 C   0  0  0  0  0  0  0  0  0  0  0  0
   58.0150   27.5210   47.0030 C   0  0  0  0  0  0  0  0  0  0  0  0
   57.7080   26.9380   45.7610 C   0  0  0  0  0  0  0  0  0  0  0  0
   57.2820   25.5730   45.6430 N   0  0  0  0  0  0  0  0  0  0  0  0
   55.6760   24.9990   45.9530 S   0  0  0  0  0  0  0  0  0  0  0  0
   54.5760   26.3310   45.9890 N   0  0  0  0  0  0  0  0  0  0  0  0
   55.6420   24.2660   47.2640 O   0  0  0  0  0  0  0  0  0  0  0  0
   55.2740   24.0580   44.8520 O   0  0  0  0  0  0  0  0  0  0  0  0
   57.8120   27.7100   44.6010 C   0  0  0  0  0  0  0  0  0  0  0  0
   58.2220   29.0450   44.6700 C   0  0  0  0  0  0  0  0  0  0  0  0
   58.2520   32.0880   45.4920 N   0  0  0  0  0  0  0  0  0  0  0  0
   56.9610   32.0190   45.0060 O   0  0  0  0  0  0  0  0  0  0  0  0
   58.9740   33.1940   45.7670 C   0  0  0  0  0  0  0  0  0  0  0  0
   58.6010   34.5860   45.4330 C   0  0  0  0  0  0  0  0  0  0  0  0
   59.3900   35.5380   45.6650 O   0  0  0  0  0  0  0  0  0  0  0  0
   57.3560   34.8650   44.8840 O   0  0  0  0  0  0  0  0  0  0  0  0
   61.2406   33.6431   48.0110 H   0  0  0  0  0  0  0  0  0  0  0  0
   62.2045   33.2550   46.5458 H   0  0  0  0  0  0  0  0  0  0  0  0
   61.1018   34.6729   46.5458 H   0  0  0  0  0  0  0  0  0  0  0  0
   58.6565   29.3039   48.0514 H   0  0  0  0  0  0  0  0  0  0  0  0
   57.9313   26.9243   47.9233 H   0  0  0  0  0  0  0  0  0  0  0  0
   55.1510   27.2000   46.0680 H   0  0  0  0  0  0  0  0  0  0  0  0
   57.5693   27.2638   43.6253 H   0  0  0  0  0  0  0  0  0  0  0  0
   58.2905   29.6436   43.7496 H   0  0  0  0  0  0  0  0  0  0  0  0
   56.4520   32.8380   44.7050 H   0  0  0  0  0  0  0  0  0  0  0  0
  1  2  1  0
  2  3  1  0
  3  4  2  0
  4  5  1  0
  5  6  2  0
  6  7  1  0
  7  8  2  0
  8  9  1  0
  9 10  1  0
 10 11  1  0
 10 12  2  0
 10 13  2  0
  8 14  1  0
 14 15  2  0
  4 16  1  0
 16 17  1  0
 16 18  1  0
 18 19  1  0
 19 20  2  0
 19 21  1  0
 18  2  2  0
 15  5  1  0
  1 22  1  0
  1 23  1  0
  1 24  1  0
  6 25  1  0
  7 26  1  0
 11 27  1  0
 14 28  1  0
 15 29  1  0
 17 30  1  0
M  CHG  3   9  -1  11  -1  21  -1
M  END
>  <UniqueID>  (17) 
16

>  <SMILES>  (17) 
Cc1nc(-c2ccc([N-]S([NH-])(=O)=O)cc2)n(O)c1C(=O)[O-]

>  <Energy>  (17) 
67.28205779562492

>  <Genealogy>  (17) 
Cc1nc(-c2ccc([N-]S([NH-])(=O)=O)cc2)n(O)c1C(=O)[O-] (protonated)
Cc1nc(-c2ccc([N-]S([NH-])(=O)=O)cc2)n(O)c1C(=O)[O-] (3D coordinates assigned)
Cc1nc(-c2ccc([N-]S([NH-])(=O)=O)cc2)n(O)c1C(=O)[O-] (optimized conformer: 67.28205779562492 kcal/mol)

>  <smiles>  (17) 
Cc1nc(-c2ccc(NS(N)(=O)=O)cc2)n(O)c1C(=O)O

>  <score_type>  (17) 
oracle

>  <origin>  (17) 
adg

>  <m_score__min__energy>  (17) 
-11.51

>  <m_primary>  (17) 
energy

$$$$
17:0
     RDKit          3D

 37 39  0  0  0  0  0  0  0  0999 V2000
   54.7060   27.4530   46.3880 H   0  0  0  0  0  0  0  0  0  0  0  0
   55.2280   26.7490   45.8810 O   0  0  0  0  0  0  0  0  0  0  0  0
   56.6190   26.7160   45.9210 C   0  0  0  0  0  0  0  0  0  0  0  0
   57.3320   25.5800   46.0590 N   0  0  0  0  0  0  0  0  0  0  0  0
   58.6110   26.0150   46.0450 C   0  0  0  0  0  0  0  0  0  0  0  0
   59.5960   25.2390   46.1570 O   0  0  0  0  0  0  0  0  0  0  0  0
   58.7300   27.3540   45.8990 N   0  0  0  0  0  0  0  0  0  0  0  0
   59.9640   28.1440   45.8660 C   0  0  0  0  0  0  0  0  0  0  0  0
   60.8239   27.4684   45.7472 H   0  0  0  0  0  0  0  0  0  0  0  0
   59.9159   28.8463   45.0208 H   0  0  0  0  0  0  0  0  0  0  0  0
   60.1200   28.9260   47.1430 C   0  0  0  0  0  0  0  0  0  0  0  0
   60.1480   28.2590   48.3780 C   0  0  0  0  0  0  0  0  0  0  0  0
   60.0982   27.1606   48.4087 H   0  0  0  0  0  0  0  0  0  0  0  0
   60.2390   28.9860   49.5700 C   0  0  0  0  0  0  0  0  0  0  0  0
   60.2594   28.4585   50.5350 H   0  0  0  0  0  0  0  0  0  0  0  0
   60.3040   30.3810   49.5360 C   0  0  0  0  0  0  0  0  0  0  0  0
   60.3702   30.9510   50.4745 H   0  0  0  0  0  0  0  0  0  0  0  0
   60.2850   31.0530   48.3110 C   0  0  0  0  0  0  0  0  0  0  0  0
   60.3393   32.1514   48.2857 H   0  0  0  0  0  0  0  0  0  0  0  0
   60.1970   30.3300   47.1170 C   0  0  0  0  0  0  0  0  0  0  0  0
   60.1880   30.8615   46.1540 H   0  0  0  0  0  0  0  0  0  0  0  0
   57.4620   27.8040   45.8360 C   0  0  0  0  0  0  0  0  0  0  0  0
   57.0670   29.2050   45.6520 C   0  0  0  0  0  0  0  0  0  0  0  0
   56.7607   29.7683   46.5458 H   0  0  0  0  0  0  0  0  0  0  0  0
   57.0510   29.8530   44.4730 C   0  0  0  0  0  0  0  0  0  0  0  0
   56.4190   29.3650   43.3410 C   0  0  0  0  0  0  0  0  0  0  0  0
   55.8476   28.4263   43.2915 H   0  0  0  0  0  0  0  0  0  0  0  0
   56.6080   30.2100   42.3110 N   0  0  0  0  0  0  0  0  0  0  0  0
   57.3370   31.2260   42.7450 N   0  0  0  0  0  0  0  0  0  0  0  0
   57.7570   32.3230   41.8750 C   0  0  0  0  0  0  0  0  0  0  0  0
   58.0831   33.1746   42.4902 H   0  0  0  0  0  0  0  0  0  0  0  0
   58.5908   31.9888   41.2401 H   0  0  0  0  0  0  0  0  0  0  0  0
   56.9132   32.6311   41.2401 H   0  0  0  0  0  0  0  0  0  0  0  0
   57.6320   31.0580   44.0550 C   0  0  0  0  0  0  0  0  0  0  0  0
   58.3710   31.9230   44.7660 C   0  0  0  0  0  0  0  0  0  0  0  0
   58.7599   32.8351   44.2898 H   0  0  0  0  0  0  0  0  0  0  0  0
   58.5880   31.7201   45.8251 H   0  0  0  0  0  0  0  0  0  0  0  0
  1  2  1  0
  2  3  1  0
  3  4  1  0
  4  5  1  0
  5  6  2  0
  5  7  1  0
  7  8  1  0
  8  9  1  0
  8 10  1  0
  8 11  1  0
 11 12  2  0
 12 13  1  0
 12 14  1  0
 14 15  1  0
 14 16  2  0
 16 17  1  0
 16 18  1  0
 18 19  1  0
 18 20  2  0
 20 21  1  0
  7 22  1  0
 22 23  1  0
 23 24  1  0
 23 25  2  0
 25 26  1  0
 26 27  1  0
 26 28  2  0
 28 29  1  0
 29 30  1  0
 30 31  1  0
 30 32  1  0
 30 33  1  0
 29 34  1  0
 34 35  2  0
 35 36  1  0
 35 37  1  0
 22  3  2  0
 34 25  1  0
 20 11  1  0
M  CHG  1   4  -1
M  END
>  <UniqueID>  (18) 
17

>  <SMILES>  (18) 
C=c1/c(=C\c2c(O)[n-]c(=O)n2Cc2ccccc2)cnn1C

>  <Energy>  (18) 
109.3867928572851

>  <Genealogy>  (18) 
C=c1c(=Cc2c(O)[n-]c(=O)n2Cc2ccccc2)cnn1C (protonated)
C=c1/c(=C\c2c(O)[n-]c(=O)n2Cc2ccccc2)cnn1C (cis-trans isomerization)
C=c1/c(=C\c2c(O)[n-]c(=O)n2Cc2ccccc2)cnn1C (3D coordinates assigned)
C=c1/c(=C\c2c(O)[n-]c(=O)n2Cc2ccccc2)cnn1C (optimized conformer: 109.3867928572851 kcal/mol)

>  <smiles>  (18) 
C=c1c(=Cc2c(O)[nH]c(=O)n2Cc2ccccc2)cnn1C

>  <score_type>  (18) 
oracle

>  <origin>  (18) 
adg

>  <m_score__min__energy>  (18) 
-9.4199999999999999

>  <m_primary>  (18) 
energy

$$$$
18:0
     RDKit          3D

 50 54  0  0  0  0  0  0  0  0999 V2000
   55.0966   23.6711   47.0960 H   0  0  0  0  0  0  0  0  0  0  0  0
   55.9550   24.0590   46.5280 C   0  0  0  0  0  0  0  0  0  0  0  0
   56.5870   25.1340   47.0240 C   0  0  0  0  0  0  0  0  0  0  0  0
   57.1796   24.9934   47.9400 H   0  0  0  0  0  0  0  0  0  0  0  0
   56.5520   26.4920   46.4400 C   0  0  0  0  0  0  0  0  0  0  0  0
   55.5830   26.9720   45.6230 N   0  0  0  0  0  0  0  0  0  0  0  0
   55.9030   28.2060   45.2440 N   0  0  0  0  0  0  0  0  0  0  0  0
   57.0820   28.5030   45.8120 C   0  0  0  0  0  0  0  0  0  0  0  0
   57.8110   29.6800   45.6870 C   0  0  0  0  0  0  0  0  0  0  0  0
   57.4333   30.5170   45.0814 H   0  0  0  0  0  0  0  0  0  0  0  0
   59.0520   29.7720   46.3600 C   0  0  0  0  0  0  0  0  0  0  0  0
   59.8370   30.9780   46.2710 N   0  0  0  0  0  0  0  0  0  0  0  0
   60.5890   30.8780   45.5490 H   0  0  0  0  0  0  0  0  0  0  0  0
   60.3260   31.1350   47.1810 H   0  0  0  0  0  0  0  0  0  0  0  0
   58.9930   32.0970   45.9130 C   0  0  0  0  0  0  0  0  0  0  0  0
   58.5380   32.2210   44.5880 C   0  0  0  0  0  0  0  0  0  0  0  0
   58.8364   31.4735   43.8382 H   0  0  0  0  0  0  0  0  0  0  0  0
   57.7120   33.2820   44.2140 C   0  0  0  0  0  0  0  0  0  0  0  0
   57.3719   33.3733   43.1719 H   0  0  0  0  0  0  0  0  0  0  0  0
   57.3180   34.2260   45.1610 C   0  0  0  0  0  0  0  0  0  0  0  0
   56.6595   35.0565   44.8667 H   0  0  0  0  0  0  0  0  0  0  0  0
   57.7570   34.1200   46.4820 C   0  0  0  0  0  0  0  0  0  0  0  0
   57.4295   34.8597   47.2273 H   0  0  0  0  0  0  0  0  0  0  0  0
   58.6160   33.0730   46.8670 C   0  0  0  0  0  0  0  0  0  0  0  0
   59.0720   32.9530   48.2260 N   0  0  0  0  0  0  0  0  0  0  0  0
   59.3580   31.7370   48.9320 C   0  0  0  0  0  0  0  0  0  0  0  0
   58.4410   31.1320   49.5480 O   0  0  0  0  0  0  0  0  0  0  0  0
   60.7000   31.2370   49.0240 N   0  0  0  0  0  0  0  0  0  0  0  0
   61.7660   31.8090   48.5500 C   0  0  0  0  0  0  0  0  0  0  0  0
   62.2090   31.6650   47.2820 N   0  0  0  0  0  0  0  0  0  0  0  0
   63.3490   32.3720   47.0660 C   0  0  0  0  0  0  0  0  0  0  0  0
   63.8612   32.3839   46.0926 H   0  0  0  0  0  0  0  0  0  0  0  0
   63.8200   33.0790   48.1660 C   0  0  0  0  0  0  0  0  0  0  0  0
   64.7222   33.7078   48.1912 H   0  0  0  0  0  0  0  0  0  0  0  0
   62.7700   32.8060   49.4530 S   0  0  0  0  0  0  0  0  0  0  0  0
   59.5170   28.6640   47.1230 C   0  0  0  0  0  0  0  0  0  0  0  0
   60.4882   28.7264   47.6358 H   0  0  0  0  0  0  0  0  0  0  0  0
   58.7490   27.4900   47.2290 C   0  0  0  0  0  0  0  0  0  0  0  0
   59.0995   26.6314   47.8206 H   0  0  0  0  0  0  0  0  0  0  0  0
   57.5290   27.4540   46.5580 C   0  0  0  0  0  0  0  0  0  0  0  0
   56.3170   23.3560   45.2850 C   0  0  0  0  0  0  0  0  0  0  0  0
   57.1570   22.2860   45.3520 N   0  0  0  0  0  0  0  0  0  0  0  0
   57.5050   21.5730   44.2470 C   0  0  0  0  0  0  0  0  0  0  0  0
   58.1949   20.7210   44.3374 H   0  0  0  0  0  0  0  0  0  0  0  0
   56.9870   21.9220   42.9980 C   0  0  0  0  0  0  0  0  0  0  0  0
   57.2733   21.3557   42.0995 H   0  0  0  0  0  0  0  0  0  0  0  0
   56.1030   22.9960   42.9020 C   0  0  0  0  0  0  0  0  0  0  0  0
   55.6828   23.2783   41.9254 H   0  0  0  0  0  0  0  0  0  0  0  0
   55.7520   23.7130   44.0490 C   0  0  0  0  0  0  0  0  0  0  0  0
   55.0400   24.5491   43.9848 H   0  0  0  0  0  0  0  0  0  0  0  0
  1  2  1  0
  2  3  2  0
  3  4  1  0
  3  5  1  0
  5  6  1  0
  6  7  1  0
  7  8  2  0
  8  9  1  0
  9 10  1  0
  9 11  2  0
 11 12  1  0
 12 13  1  0
 12 14  1  0
 12 15  1  0
 15 16  2  0
 16 17  1  0
 16 18  1  0
 18 19  1  0
 18 20  2  0
 20 21  1  0
 20 22  1  0
 22 23  1  0
 22 24  2  0
 24 25  1  0
 25 26  1  0
 26 27  2  0
 26 28  1  0
 28 29  2  0
 29 30  1  0
 30 31  1  0
 31 32  1  0
 31 33  2  0
 33 34  1  0
 33 35  1  0
 11 36  1  0
 36 37  1  0
 36 38  2  0
 38 39  1  0
 38 40  1  0
  2 41  1  0
 41 42  2  0
 42 43  1  0
 43 44  1  0
 43 45  2  0
 45 46  1  0
 45 47  1  0
 47 48  1  0
 47 49  2  0
 49 50  1  0
 40  5  2  0
 49 41  1  0
 40  8  1  0
 24 15  1  0
 35 29  1  0
M  CHG  4   6  -1  12   1  25  -1  30  -1
M  END
>  <UniqueID>  (19) 
18

>  <SMILES>  (19) 
O=C(/N=c1\[n-]ccs1)[N-]c1ccccc1[NH2+]c1ccc2c(/C=C\c3ccccn3)[n-]nc2c1

>  <Energy>  (19) 
140.83805907904605

>  <Genealogy>  (19) 
O=C(N=c1[n-]ccs1)[N-]c1ccccc1[NH2+]c1ccc2c(C=Cc3ccccn3)[n-]nc2c1 (protonated)
O=C(/N=c1\[n-]ccs1)[N-]c1ccccc1[NH2+]c1ccc2c(/C=C\c3ccccn3)[n-]nc2c1 (cis-trans isomerization)
O=C(/N=c1\[n-]ccs1)[N-]c1ccccc1[NH2+]c1ccc2c(/C=C\c3ccccn3)[n-]nc2c1 (3D coordinates assigned)
O=C(/N=c1\[n-]ccs1)[N-]c1ccccc1[NH2+]c1ccc2c(/C=C\c3ccccn3)[n-]nc2c1 (optimized conformer: 140.83805907904605 kcal/mol)

>  <smiles>  (19) 
O=C(N=c1[nH]ccs1)Nc1ccccc1Nc1ccc2c(C=Cc3ccccn3)[nH]nc2c1

>  <score_type>  (19) 
oracle

>  <origin>  (19) 
adg

>  <m_score__min__energy>  (19) 
-11.58

>  <m_primary>  (19) 
energy

$$$$
19:0
     RDKit          3D

 44 46  0  0  0  0  0  0  0  0999 V2000
   56.6030   21.6340   49.2250 C   0  0  0  0  0  0  0  0  0  0  0  0
   57.1110   22.2860   48.0660 O   0  0  0  0  0  0  0  0  0  0  0  0
   56.3520   23.1800   47.3050 C   0  0  0  0  0  0  0  0  0  0  0  0
   55.5470   23.9600   47.8830 O   0  0  0  0  0  0  0  0  0  0  0  0
   56.4470   23.1950   45.8220 C   0  0  0  0  0  0  0  0  0  0  0  0
   56.4000   21.9580   45.1470 C   0  0  0  0  0  0  0  0  0  0  0  0
   56.5120   21.8940   43.7590 C   0  0  0  0  0  0  0  0  0  0  0  0
   56.6700   23.0600   43.0170 C   0  0  0  0  0  0  0  0  0  0  0  0
   56.7040   24.2960   43.6590 C   0  0  0  0  0  0  0  0  0  0  0  0
   56.5850   24.3880   45.0570 C   0  0  0  0  0  0  0  0  0  0  0  0
   56.5770   26.0090   45.7750 S   0  0  0  0  0  0  0  0  0  0  0  0
   55.1500   26.4300   45.9980 O   0  0  0  0  0  0  0  0  0  0  0  0
   57.3020   25.9960   47.0950 O   0  0  0  0  0  0  0  0  0  0  0  0
   57.3820   27.1190   44.7140 N   0  0  0  0  0  0  0  0  0  0  0  0
   57.7030   28.4780   45.0330 C   0  0  0  0  0  0  0  0  0  0  0  0
   56.8560   29.5480   44.7260 C   0  0  0  0  0  0  0  0  0  0  0  0
   57.2300   30.8150   45.0350 N   0  0  0  0  0  0  0  0  0  0  0  0
   58.4150   31.0820   45.6500 C   0  0  0  0  0  0  0  0  0  0  0  0
   58.7770   32.4560   45.9370 N   0  0  0  0  0  0  0  0  0  0  0  0
   59.3490   32.8100   47.2500 C   0  0  0  0  0  0  0  0  0  0  0  0
   59.8410   34.2590   47.3230 C   0  0  0  0  0  0  0  0  0  0  0  0
   58.9660   35.1300   46.6460 O   0  0  0  0  0  0  0  0  0  0  0  0
   59.0340   34.8530   45.2670 C   0  0  0  0  0  0  0  0  0  0  0  0
   58.4030   33.4940   44.9580 C   0  0  0  0  0  0  0  0  0  0  0  0
   59.2410   30.0410   45.9790 N   0  0  0  0  0  0  0  0  0  0  0  0
   58.9060   28.7600   45.6790 C   0  0  0  0  0  0  0  0  0  0  0  0
   56.9911   22.1321   50.1257 H   0  0  0  0  0  0  0  0  0  0  0  0
   55.5042   21.6850   49.2224 H   0  0  0  0  0  0  0  0  0  0  0  0
   56.9212   20.5810   49.2224 H   0  0  0  0  0  0  0  0  0  0  0  0
   56.2731   21.0301   45.7240 H   0  0  0  0  0  0  0  0  0  0  0  0
   56.4754   20.9198   43.2496 H   0  0  0  0  0  0  0  0  0  0  0  0
   56.7681   23.0061   41.9227 H   0  0  0  0  0  0  0  0  0  0  0  0
   56.8257   25.2130   43.0637 H   0  0  0  0  0  0  0  0  0  0  0  0
   55.8891   29.3627   44.2353 H   0  0  0  0  0  0  0  0  0  0  0  0
   58.5760   32.6641   48.0189 H   0  0  0  0  0  0  0  0  0  0  0  0
   60.2214   32.1600   47.4125 H   0  0  0  0  0  0  0  0  0  0  0  0
   59.9045   34.5633   48.3782 H   0  0  0  0  0  0  0  0  0  0  0  0
   60.8287   34.3154   46.8421 H   0  0  0  0  0  0  0  0  0  0  0  0
   58.4944   35.6360   44.7141 H   0  0  0  0  0  0  0  0  0  0  0  0
   60.0906   34.8305   44.9619 H   0  0  0  0  0  0  0  0  0  0  0  0
   57.3086   33.6049   44.9637 H   0  0  0  0  0  0  0  0  0  0  0  0
   58.7746   33.1716   43.9741 H   0  0  0  0  0  0  0  0  0  0  0  0
   60.1460   30.1930   46.4720 H   0  0  0  0  0  0  0  0  0  0  0  0
   59.5878   27.9395   45.9472 H   0  0  0  0  0  0  0  0  0  0  0  0
  1  2  1  0
  2  3  1  0
  3  4  2  0
  3  5  1  0
  5  6  2  0
  6  7  1  0
  7  8  2  0
  8  9  1  0
  9 10  2  0
 10 11  1  0
 11 12  2  0
 11 13  2  0
 11 14  1  0
 14 15  1  0
 15 16  2  0
 16 17  1  0
 17 18  2  0
 18 19  1  0
 19 20  1  0
 20 21  1  0
 21 22  1  0
 22 23  1  0
 23 24  1  0
 18 25  1  0
 25 26  2  0
 10  5  1  0
 26 15  1  0
 24 19  1  0
  1 27  1  0
  1 28  1  0
  1 29  1  0
  6 30  1  0
  7 31  1  0
  8 32  1  0
  9 33  1  0
 16 34  1  0
 20 35  1  0
 20 36  1  0
 21 37  1  0
 21 38  1  0
 23 39  1  0
 23 40  1  0
 24 41  1  0
 24 42  1  0
 25 43  1  0
 26 44  1  0
M  CHG  2  14  -1  25   1
M  END
>  <UniqueID>  (20) 
19

>  <SMILES>  (20) 
COC(=O)c1ccccc1S(=O)(=O)[N-]c1cnc(N2CCOCC2)[nH+]c1

>  <Energy>  (20) 
57.50332414487826

>  <Genealogy>  (20) 
COC(=O)c1ccccc1S(=O)(=O)[N-]c1cnc(N2CCOCC2)[nH+]c1 (protonated)
COC(=O)c1ccccc1S(=O)(=O)[N-]c1cnc(N2CCOCC2)[nH+]c1 (3D coordinates assigned)
COC(=O)c1ccccc1S(=O)(=O)[N-]c1cnc(N2CCOCC2)[nH+]c1 (nonaromatic ring conformer: 57.50332414487826 kcal/mol)

>  <smiles>  (20) 
COC(=O)c1ccccc1S(=O)(=O)Nc1cnc(N2CCOCC2)nc1

>  <score_type>  (20) 
oracle

>  <origin>  (20) 
adg

>  <m_score__min__energy>  (20) 
-7.8899999999999997

>  <m_primary>  (20) 
energy

$$$$
20:0
     RDKit          3D

 23 23  0  0  0  0  0  0  0  0999 V2000
   55.3660   28.7450   45.6330 H   0  0  0  0  0  0  0  0  0  0  0  0
   55.1430   29.3550   44.8160 N   0  0  0  0  0  0  0  0  0  0  0  0
   56.1690   30.0790   44.1370 C   0  0  0  0  0  0  0  0  0  0  0  0
   56.1060   30.1840   42.8830 O   0  0  0  0  0  0  0  0  0  0  0  0
   57.2940   30.6870   44.9030 C   0  0  0  0  0  0  0  0  0  0  0  0
   57.7580   31.9640   44.5290 C   0  0  0  0  0  0  0  0  0  0  0  0
   57.2873   32.4866   43.6832 H   0  0  0  0  0  0  0  0  0  0  0  0
   58.8070   32.5740   45.2180 C   0  0  0  0  0  0  0  0  0  0  0  0
   59.1517   33.5747   44.9182 H   0  0  0  0  0  0  0  0  0  0  0  0
   59.4180   31.9200   46.2830 C   0  0  0  0  0  0  0  0  0  0  0  0
   60.2486   32.4021   46.8194 H   0  0  0  0  0  0  0  0  0  0  0  0
   58.9800   30.6550   46.6720 C   0  0  0  0  0  0  0  0  0  0  0  0
   59.4747   30.1415   47.5096 H   0  0  0  0  0  0  0  0  0  0  0  0
   57.9080   30.0260   46.0020 C   0  0  0  0  0  0  0  0  0  0  0  0
   57.4690   28.7070   46.3770 N   0  0  0  0  0  0  0  0  0  0  0  0
   58.0850   27.5880   46.1330 C   0  0  0  0  0  0  0  0  0  0  0  0
   59.1288   27.4524   46.4524 H   0  0  0  0  0  0  0  0  0  0  0  0
   57.3720   26.4870   45.4180 C   0  0  0  0  0  0  0  0  0  0  0  0
   57.0626   26.8412   44.4236 H   0  0  0  0  0  0  0  0  0  0  0  0
   58.0511   25.6275   45.3183 H   0  0  0  0  0  0  0  0  0  0  0  0
   56.1620   26.0630   46.1890 C   0  0  0  0  0  0  0  0  0  0  0  0
   55.0580   26.6390   46.0030 O   0  0  0  0  0  0  0  0  0  0  0  0
   56.2650   25.0640   47.1490 O   0  0  0  0  0  0  0  0  0  0  0  0
  1  2  1  0
  2  3  1  0
  3  4  2  0
  3  5  1  0
  5  6  2  0
  6  7  1  0
  6  8  1  0
  8  9  1  0
  8 10  2  0
 10 11  1  0
 10 12  1  0
 12 13  1  0
 12 14  2  0
 14 15  1  0
 15 16  2  0
 16 17  1  0
 16 18  1  0
 18 19  1  0
 18 20  1  0
 18 21  1  0
 21 22  2  0
 21 23  1  0
 14  5  1  0
M  CHG  2   2  -1  23  -1
M  END
>  <UniqueID>  (21) 
20

>  <SMILES>  (21) 
[NH-]C(=O)c1ccccc1/N=C/CC(=O)[O-]

>  <Energy>  (21) 
23.97732345258331

>  <Genealogy>  (21) 
[NH-]C(=O)c1ccccc1N=CCC(=O)[O-] (protonated)
[NH-]C(=O)c1ccccc1/N=C/CC(=O)[O-] (cis-trans isomerization)
[NH-]C(=O)c1ccccc1/N=C/CC(=O)[O-] (3D coordinates assigned)
[NH-]C(=O)c1ccccc1/N=C/CC(=O)[O-] (optimized conformer: 23.97732345258331 kcal/mol)

>  <smiles>  (21) 
NC(=O)c1ccccc1N=CCC(=O)O

>  <score_type>  (21) 
oracle

>  <origin>  (21) 
adg

>  <m_score__min__energy>  (21) 
-11.58

>  <m_primary>  (21) 
energy

$$$$
21:0
     RDKit          3D

 56 59  0  0  0  0  0  0  0  0999 V2000
   60.9430   27.0500   50.4500 C   0  0  0  0  0  0  0  0  0  0  0  0
   60.3340   27.2230   49.1840 O   0  0  0  0  0  0  0  0  0  0  0  0
   60.0370   28.5810   48.8380 C   0  0  2  0  0  0  0  0  0  0  0  0
   60.3380   29.5350   50.0330 C   0  0  0  0  0  0  0  0  0  0  0  0
   59.9800   30.8550   49.7220 O   0  0  0  0  0  0  0  0  0  0  0  0
   58.4970   28.6260   48.5380 C   0  0  0  0  0  0  0  0  0  0  0  0
   58.1680   28.6300   47.1550 O   0  0  0  0  0  0  0  0  0  0  0  0
   58.9240   27.6730   46.4440 C   0  0  1  0  0  0  0  0  0  0  0  0
   58.3070   27.4140   45.0830 C   0  0  0  0  0  0  0  0  0  0  0  0
   58.1060   28.3190   44.0470 C   0  0  0  0  0  0  0  0  0  0  0  0
   58.4210   29.7150   44.0250 N   0  0  0  0  0  0  0  0  0  0  0  0
   57.5680   30.6980   44.6220 C   0  0  0  0  0  0  0  0  0  0  0  0
   56.3390   30.4570   44.7650 O   0  0  0  0  0  0  0  0  0  0  0  0
   58.1130   31.9800   45.0980 C   0  0  0  0  0  0  0  0  0  0  0  0
   57.8070   33.2120   44.5230 C   0  0  0  0  0  0  0  0  0  0  0  0
   58.6970   34.3850   45.3320 S   0  0  0  0  0  0  0  0  0  0  0  0
   59.4340   33.2900   46.3810 C   0  0  0  0  0  0  0  0  0  0  0  0
   60.4380   33.6180   47.4270 C   0  0  0  0  0  0  0  0  0  0  0  0
   61.7860   33.8420   47.0690 C   0  0  0  0  0  0  0  0  0  0  0  0
   62.1880   33.7830   45.7740 F   0  0  0  0  0  0  0  0  0  0  0  0
   62.7350   34.1560   48.0470 C   0  0  0  0  0  0  0  0  0  0  0  0
   62.3610   34.2470   49.3880 C   0  0  0  0  0  0  0  0  0  0  0  0
   61.0340   34.0230   49.7570 C   0  0  0  0  0  0  0  0  0  0  0  0
   60.0750   33.7100   48.7890 C   0  0  0  0  0  0  0  0  0  0  0  0
   58.8040   33.4710   49.1990 F   0  0  0  0  0  0  0  0  0  0  0  0
   59.0170   32.0310   46.1160 N   0  0  0  0  0  0  0  0  0  0  0  0
   57.7670   27.5650   42.9450 C   0  0  0  0  0  0  0  0  0  0  0  0
   57.7350   26.2660   43.2990 N   0  0  0  0  0  0  0  0  0  0  0  0
   58.0590   26.1810   44.5800 N   0  0  0  0  0  0  0  0  0  0  0  0
   58.1950   24.9090   45.2820 C   0  0  0  0  0  0  0  0  0  0  0  0
   60.4120   28.1260   46.3550 C   0  0  1  0  0  0  0  0  0  0  0  0
   60.7340   28.7370   45.1270 O   0  0  0  0  0  0  0  0  0  0  0  0
   60.7910   29.0450   47.5490 C   0  0  1  0  0  0  0  0  0  0  0  0
   60.4410   30.3780   47.2530 O   0  0  0  0  0  0  0  0  0  0  0  0
   60.2085   27.2587   51.2418 H   0  0  0  0  0  0  0  0  0  0  0  0
   61.3015   26.0145   50.5460 H   0  0  0  0  0  0  0  0  0  0  0  0
   61.7923   27.7424   50.5460 H   0  0  0  0  0  0  0  0  0  0  0  0
   59.7648   29.2038   50.9115 H   0  0  0  0  0  0  0  0  0  0  0  0
   61.4171   29.5040   50.2444 H   0  0  0  0  0  0  0  0  0  0  0  0
   60.3470   31.0480   48.8210 H   0  0  0  0  0  0  0  0  0  0  0  0
   58.0306   27.7434   49.0000 H   0  0  0  0  0  0  0  0  0  0  0  0
   58.1241   29.5744   48.9521 H   0  0  0  0  0  0  0  0  0  0  0  0
   58.9087   26.7154   46.9851 H   0  0  0  0  0  0  0  0  0  0  0  0
   59.2040   30.0340   43.4110 H   0  0  0  0  0  0  0  0  0  0  0  0
   57.1093   33.3851   43.6904 H   0  0  0  0  0  0  0  0  0  0  0  0
   63.7815   34.3321   47.7575 H   0  0  0  0  0  0  0  0  0  0  0  0
   63.1111   34.4950   50.1534 H   0  0  0  0  0  0  0  0  0  0  0  0
   60.7410   34.0930   50.8149 H   0  0  0  0  0  0  0  0  0  0  0  0
   57.5568   27.9596   41.9400 H   0  0  0  0  0  0  0  0  0  0  0  0
   58.1761   25.0855   46.3676 H   0  0  0  0  0  0  0  0  0  0  0  0
   57.3626   24.2458   45.0038 H   0  0  0  0  0  0  0  0  0  0  0  0
   59.1488   24.4368   45.0038 H   0  0  0  0  0  0  0  0  0  0  0  0
   61.0153   27.2080   46.4125 H   0  0  0  0  0  0  0  0  0  0  0  0
   60.5520   29.7080   45.2090 H   0  0  0  0  0  0  0  0  0  0  0  0
   61.8756   28.9811   47.7206 H   0  0  0  0  0  0  0  0  0  0  0  0
   59.5100   30.5180   47.5660 H   0  0  0  0  0  0  0  0  0  0  0  0
  1  2  1  0
  3  2  1  1
  3  4  1  0
  4  5  1  0
  3  6  1  0
  6  7  1  0
  7  8  1  0
  8  9  1  0
  9 10  2  0
 10 11  1  0
 11 12  1  0
 12 13  2  0
 12 14  1  0
 14 15  2  0
 15 16  1  0
 16 17  1  0
 17 18  1  0
 18 19  2  0
 19 20  1  0
 19 21  1  0
 21 22  2  0
 22 23  1  0
 23 24  2  0
 24 25  1  0
 17 26  2  0
 10 27  1  0
 27 28  2  0
 28 29  1  0
 29 30  1  0
  8 31  1  0
 31 32  1  0
 31 33  1  0
 33 34  1  0
 33  3  1  0
 29  9  1  0
 26 14  1  0
 24 18  1  0
  1 35  1  0
  1 36  1  0
  1 37  1  0
  4 38  1  0
  4 39  1  0
  5 40  1  0
  6 41  1  0
  6 42  1  0
  8 43  1  1
 11 44  1  0
 15 45  1  0
 21 46  1  0
 22 47  1  0
 23 48  1  0
 27 49  1  0
 30 50  1  0
 30 51  1  0
 30 52  1  0
 31 53  1  1
 32 54  1  0
 33 55  1  1
 34 56  1  0
M  END
>  <UniqueID>  (22) 
21

>  <SMILES>  (22) 
CO[C@]1(CO)CO[C@@H](c2c(NC(=O)c3csc(-c4c(F)cccc4F)n3)cnn2C)C(O)C1O

>  <Energy>  (22) 
151.78321724165653

>  <Genealogy>  (22) 
CO[C@]1(CO)CO[C@@H](c2c(NC(=O)c3csc(-c4c(F)cccc4F)n3)cnn2C)C(O)C1O (chirality)
CO[C@]1(CO)CO[C@@H](c2c(NC(=O)c3csc(-c4c(F)cccc4F)n3)cnn2C)C(O)C1O (3D coordinates assigned)
CO[C@]1(CO)CO[C@@H](c2c(NC(=O)c3csc(-c4c(F)cccc4F)n3)cnn2C)C(O)C1O (nonaromatic ring conformer: 151.78321724165653 kcal/mol)

>  <smiles>  (22) 
COC1(CO)COC(c2c(NC(=O)c3csc(-c4c(F)cccc4F)n3)cnn2C)C(O)C1O

>  <score_type>  (22) 
oracle

>  <origin>  (22) 
adg

>  <m_score__min__energy>  (22) 
-7.7000000000000002

>  <m_primary>  (22) 
energy

$$$$
22:0
     RDKit          3D

 47 49  0  0  0  0  0  0  0  0999 V2000
   60.0130   26.1750   46.5650 C   0  0  0  0  0  0  0  0  0  0  0  0
   58.8080   26.9350   46.0860 C   0  0  0  0  0  0  0  0  0  0  0  0
   58.9930   28.1650   45.4330 C   0  0  0  0  0  0  0  0  0  0  0  0
   57.8910   28.9100   44.9860 C   0  0  0  0  0  0  0  0  0  0  0  0
   58.0930   30.2090   44.2490 C   0  0  0  0  0  0  0  0  0  0  0  0
   57.7930   31.3590   45.1270 N   0  0  0  0  0  0  0  0  0  0  0  0
   58.8160   31.4830   46.1840 C   0  0  0  0  0  0  0  0  0  0  0  0
   58.3720   32.5030   47.2480 C   0  0  0  0  0  0  0  0  0  0  0  0
   57.3900   33.5450   46.6910 C   0  0  0  0  0  0  0  0  0  0  0  0
   57.7180   33.8800   45.2350 C   0  0  0  0  0  0  0  0  0  0  0  0
   57.6940   32.6170   44.3450 C   0  0  0  0  0  0  0  0  0  0  0  0
   56.5970   28.4130   45.1860 C   0  0  0  0  0  0  0  0  0  0  0  0
   56.4020   27.1820   45.8140 C   0  0  0  0  0  0  0  0  0  0  0  0
   55.1120   26.7000   45.9960 O   0  0  0  0  0  0  0  0  0  0  0  0
   57.5010   26.4250   46.2440 C   0  0  0  0  0  0  0  0  0  0  0  0
   57.2700   25.1730   46.8260 O   0  0  0  0  0  0  0  0  0  0  0  0
   57.8360   23.9710   46.3050 C   0  0  0  0  0  0  0  0  0  0  0  0
   57.1220   23.5580   45.0510 C   0  0  0  0  0  0  0  0  0  0  0  0
   55.8650   23.9660   44.6630 C   0  0  0  0  0  0  0  0  0  0  0  0
   55.5110   23.3140   43.5370 N   0  0  0  0  0  0  0  0  0  0  0  0
   56.5640   22.5100   43.2670 C   0  0  0  0  0  0  0  0  0  0  0  0
   57.5500   22.6290   44.1780 N   0  0  0  0  0  0  0  0  0  0  0  0
   58.8150   21.9010   44.1980 C   0  0  0  0  0  0  0  0  0  0  0  0
   60.0274   26.1659   47.6649 H   0  0  0  0  0  0  0  0  0  0  0  0
   59.9676   25.1418   46.1903 H   0  0  0  0  0  0  0  0  0  0  0  0
   60.9259   26.6611   46.1903 H   0  0  0  0  0  0  0  0  0  0  0  0
   60.0114   28.5478   45.2705 H   0  0  0  0  0  0  0  0  0  0  0  0
   59.1382   30.2746   43.9124 H   0  0  0  0  0  0  0  0  0  0  0  0
   57.4119   30.2357   43.3856 H   0  0  0  0  0  0  0  0  0  0  0  0
   58.9636   30.5031   46.6615 H   0  0  0  0  0  0  0  0  0  0  0  0
   59.7561   31.8294   45.7299 H   0  0  0  0  0  0  0  0  0  0  0  0
   57.8831   31.9628   48.0721 H   0  0  0  0  0  0  0  0  0  0  0  0
   59.2689   33.0393   47.5915 H   0  0  0  0  0  0  0  0  0  0  0  0
   56.3678   33.1425   46.7465 H   0  0  0  0  0  0  0  0  0  0  0  0
   57.4742   34.4633   47.2907 H   0  0  0  0  0  0  0  0  0  0  0  0
   56.9751   34.5979   44.8571 H   0  0  0  0  0  0  0  0  0  0  0  0
   58.7302   34.3090   45.1988 H   0  0  0  0  0  0  0  0  0  0  0  0
   56.7516   32.6048   43.7779 H   0  0  0  0  0  0  0  0  0  0  0  0
   58.5698   32.6635   43.6811 H   0  0  0  0  0  0  0  0  0  0  0  0
   55.7288   28.9966   44.8459 H   0  0  0  0  0  0  0  0  0  0  0  0
   58.8991   24.1394   46.0782 H   0  0  0  0  0  0  0  0  0  0  0  0
   57.7317   23.1729   47.0547 H   0  0  0  0  0  0  0  0  0  0  0  0
   55.2465   24.7078   45.1894 H   0  0  0  0  0  0  0  0  0  0  0  0
   56.6107   21.8341   42.4004 H   0  0  0  0  0  0  0  0  0  0  0  0
   59.1204   21.7252   45.2400 H   0  0  0  0  0  0  0  0  0  0  0  0
   58.6909   20.9361   43.6845 H   0  0  0  0  0  0  0  0  0  0  0  0
   59.5869   22.4930   43.6845 H   0  0  0  0  0  0  0  0  0  0  0  0
  1  2  1  0
  2  3  2  0
  3  4  1  0
  4  5  1  0
  5  6  1  0
  6  7  1  0
  7  8  1  0
  8  9  1  0
  9 10  1  0
 10 11  1  0
  4 12  2  0
 12 13  1  0
 13 14  1  0
 13 15  2  0
 15 16  1  0
 16 17  1  0
 17 18  1  0
 18 19  2  0
 19 20  1  0
 20 21  2  0
 21 22  1  0
 22 23  1  0
 15  2  1  0
 22 18  1  0
 11  6  1  0
  1 24  1  0
  1 25  1  0
  1 26  1  0
  3 27  1  0
  5 28  1  0
  5 29  1  0
  7 30  1  0
  7 31  1  0
  8 32  1  0
  8 33  1  0
  9 34  1  0
  9 35  1  0
 10 36  1  0
 10 37  1  0
 11 38  1  0
 11 39  1  0
 12 40  1  0
 17 41  1  0
 17 42  1  0
 19 43  1  0
 21 44  1  0
 23 45  1  0
 23 46  1  0
 23 47  1  0
M  CHG  1  14  -1
M  END
>  <UniqueID>  (23) 
22

>  <SMILES>  (23) 
Cc1cc(CN2CCCCC2)cc([O-])c1OCc1cncn1C

>  <Energy>  (23) 
85.10727630348019

>  <Genealogy>  (23) 
Cc1cc(CN2CCCCC2)cc([O-])c1OCc1cncn1C (protonated)
Cc1cc(CN2CCCCC2)cc([O-])c1OCc1cncn1C (3D coordinates assigned)
Cc1cc(CN2CCCCC2)cc([O-])c1OCc1cncn1C (nonaromatic ring conformer: 85.10727630348019 kcal/mol)

>  <smiles>  (23) 
Cc1cc(CN2CCCCC2)cc(O)c1OCc1cncn1C

>  <score_type>  (23) 
oracle

>  <origin>  (23) 
adg

>  <m_score__min__energy>  (23) 
-11.25

>  <m_primary>  (23) 
energy

$$$$
23:0
     RDKit          3D

 43 45  0  0  0  0  0  0  0  0999 V2000
   55.1420   28.1190   45.4550 H   0  0  0  0  0  0  0  0  0  0  0  0
   55.3360   28.9740   44.9460 O   0  0  0  0  0  0  0  0  0  0  0  0
   56.6330   29.4690   44.8580 C   0  0  0  0  0  0  0  0  0  0  0  0
   56.8980   30.8020   44.8880 N   0  0  0  0  0  0  0  0  0  0  0  0
   58.2270   31.0400   44.8020 C   0  0  0  0  0  0  0  0  0  0  0  0
   58.7640   32.2220   44.8490 N   0  0  0  0  0  0  0  0  0  0  0  0
   59.3420   32.8550   46.0040 C   0  0  0  0  0  0  0  0  0  0  0  0
   60.6190   32.4980   46.4800 C   0  0  0  0  0  0  0  0  0  0  0  0
   61.2073   31.7351   45.9491 H   0  0  0  0  0  0  0  0  0  0  0  0
   61.1420   33.1080   47.6230 C   0  0  0  0  0  0  0  0  0  0  0  0
   62.1459   32.8354   47.9806 H   0  0  0  0  0  0  0  0  0  0  0  0
   60.3930   34.0620   48.3110 C   0  0  0  0  0  0  0  0  0  0  0  0
   60.8108   34.5475   49.2053 H   0  0  0  0  0  0  0  0  0  0  0  0
   59.1140   34.4020   47.8670 C   0  0  0  0  0  0  0  0  0  0  0  0
   58.5235   35.1475   48.4198 H   0  0  0  0  0  0  0  0  0  0  0  0
   58.5750   33.7960   46.7150 C   0  0  0  0  0  0  0  0  0  0  0  0
   57.2890   34.1050   46.2430 O   0  0  0  0  0  0  0  0  0  0  0  0
   56.9960   34.5190   44.9120 C   0  0  0  0  0  0  0  0  0  0  0  0
   56.3607   35.4166   44.9387 H   0  0  0  0  0  0  0  0  0  0  0  0
   57.9336   34.7489   44.3847 H   0  0  0  0  0  0  0  0  0  0  0  0
   56.4674   33.7112   44.3847 H   0  0  0  0  0  0  0  0  0  0  0  0
   59.1230   29.6200   44.7110 S   0  0  0  0  0  0  0  0  0  0  0  0
   57.7490   28.6450   44.7450 C   0  0  0  0  0  0  0  0  0  0  0  0
   57.7550   27.1500   44.7740 C   0  0  0  0  0  0  0  0  0  0  0  0
   57.0949   26.7666   43.9820 H   0  0  0  0  0  0  0  0  0  0  0  0
   58.7803   26.7873   44.6092 H   0  0  0  0  0  0  0  0  0  0  0  0
   57.2680   26.6680   46.1030 C   0  0  0  0  0  0  0  0  0  0  0  0
   56.0390   26.4450   46.2740 O   0  0  0  0  0  0  0  0  0  0  0  0
   58.2070   26.4610   47.1650 N   0  0  0  0  0  0  0  0  0  0  0  0
   58.9060   27.4790   47.8940 C   0  0  0  0  0  0  0  0  0  0  0  0
   60.0350   27.1180   48.6390 C   0  0  0  0  0  0  0  0  0  0  0  0
   60.3555   26.0661   48.6688 H   0  0  0  0  0  0  0  0  0  0  0  0
   60.7580   28.0830   49.3450 C   0  0  0  0  0  0  0  0  0  0  0  0
   61.6416   27.7865   49.9292 H   0  0  0  0  0  0  0  0  0  0  0  0
   60.3620   29.4280   49.3120 C   0  0  0  0  0  0  0  0  0  0  0  0
   61.1620   30.4700   50.0360 C   0  0  0  0  0  0  0  0  0  0  0  0
   61.0527   30.3277   51.1213 H   0  0  0  0  0  0  0  0  0  0  0  0
   62.2224   30.3763   49.7588 H   0  0  0  0  0  0  0  0  0  0  0  0
   60.7976   31.4702   49.7588 H   0  0  0  0  0  0  0  0  0  0  0  0
   59.2570   29.8000   48.5320 C   0  0  0  0  0  0  0  0  0  0  0  0
   58.9587   30.8572   48.4748 H   0  0  0  0  0  0  0  0  0  0  0  0
   58.5330   28.8340   47.8270 C   0  0  0  0  0  0  0  0  0  0  0  0
   57.6681   29.1345   47.2174 H   0  0  0  0  0  0  0  0  0  0  0  0
  1  2  1  0
  2  3  1  0
  3  4  1  0
  4  5  1  0
  5  6  2  0
  6  7  1  0
  7  8  2  0
  8  9  1  0
  8 10  1  0
 10 11  1  0
 10 12  2  0
 12 13  1  0
 12 14  1  0
 14 15  1  0
 14 16  2  0
 16 17  1  0
 17 18  1  0
 18 19  1  0
 18 20  1  0
 18 21  1  0
  5 22  1  0
 22 23  1  0
 23 24  1  0
 24 25  1  0
 24 26  1  0
 24 27  1  0
 27 28  2  0
 27 29  1  0
 29 30  1  0
 30 31  2  0
 31 32  1  0
 31 33  1  0
 33 34  1  0
 33 35  2  0
 35 36  1  0
 36 37  1  0
 36 38  1  0
 36 39  1  0
 35 40  1  0
 40 41  1  0
 40 42  2  0
 42 43  1  0
 23  3  2  0
 42 30  1  0
 16  7  1  0
M  CHG  2   4  -1  29  -1
M  END
>  <UniqueID>  (24) 
23

>  <SMILES>  (24) 
COc1ccccc1/N=c1\[n-]c(O)c(CC(=O)[N-]c2ccc(C)cc2)s1

>  <Energy>  (24) 
80.35580055286701

>  <Genealogy>  (24) 
COc1ccccc1N=c1[n-]c(O)c(CC(=O)[N-]c2ccc(C)cc2)s1 (protonated)
COc1ccccc1/N=c1\[n-]c(O)c(CC(=O)[N-]c2ccc(C)cc2)s1 (cis-trans isomerization)
COc1ccccc1/N=c1\[n-]c(O)c(CC(=O)[N-]c2ccc(C)cc2)s1 (3D coordinates assigned)
COc1ccccc1/N=c1\[n-]c(O)c(CC(=O)[N-]c2ccc(C)cc2)s1 (optimized conformer: 80.35580055286701 kcal/mol)

>  <smiles>  (24) 
COc1ccccc1N=c1[nH]c(O)c(CC(=O)Nc2ccc(C)cc2)s1

>  <score_type>  (24) 
oracle

>  <origin>  (24) 
adg

>  <m_score__min__energy>  (24) 
-11.470000000000001

>  <m_primary>  (24) 
energy

$$$$
24:0
     RDKit          3D

 39 41  0  0  0  0  0  0  0  0999 V2000
   56.1030   31.0410   52.3490 C   0  0  0  0  0  0  0  0  0  0  0  0
   57.2820   31.8380   52.3970 O   0  0  0  0  0  0  0  0  0  0  0  0
   58.1370   32.0550   51.3060 C   0  0  0  0  0  0  0  0  0  0  0  0
   58.8630   33.2490   51.1430 C   0  0  0  0  0  0  0  0  0  0  0  0
   59.7030   33.4170   50.0390 C   0  0  0  0  0  0  0  0  0  0  0  0
   59.8480   32.3970   49.0820 C   0  0  0  0  0  0  0  0  0  0  0  0
   60.7440   32.6390   47.8710 C   0  0  0  0  0  0  0  0  0  0  0  0
   61.1640   31.3500   47.1300 C   0  0  0  0  0  0  0  0  0  0  0  0
   60.1560   30.8710   46.1170 C   0  0  0  0  0  0  0  0  0  0  0  0
   60.2850   29.7090   45.6440 O   0  0  0  0  0  0  0  0  0  0  0  0
   59.0920   31.7270   45.6500 N   0  0  0  0  0  0  0  0  0  0  0  0
   58.0780   31.2080   44.7700 C   0  0  0  0  0  0  0  0  0  0  0  0
   58.0550   31.5820   43.4160 C   0  0  0  0  0  0  0  0  0  0  0  0
   57.0690   31.0810   42.5630 C   0  0  0  0  0  0  0  0  0  0  0  0
   56.0970   30.2040   43.0540 C   0  0  0  0  0  0  0  0  0  0  0  0
   56.1100   29.8270   44.4000 C   0  0  0  0  0  0  0  0  0  0  0  0
   55.1430   28.9580   44.8880 O   0  0  0  0  0  0  0  0  0  0  0  0
   57.0970   30.3270   45.2570 C   0  0  0  0  0  0  0  0  0  0  0  0
   59.0190   33.0890   46.1100 C   0  0  0  0  0  0  0  0  0  0  0  0
   58.0250   33.8100   45.8220 O   0  0  0  0  0  0  0  0  0  0  0  0
   60.1390   33.6760   46.9120 C   0  0  0  0  0  0  0  0  0  0  0  0
   59.1050   31.2120   49.2450 C   0  0  0  0  0  0  0  0  0  0  0  0
   58.2650   31.0450   50.3500 C   0  0  0  0  0  0  0  0  0  0  0  0
   55.7704   30.8162   53.3731 H   0  0  0  0  0  0  0  0  0  0  0  0
   55.3109   31.5896   51.8184 H   0  0  0  0  0  0  0  0  0  0  0  0
   56.3169   30.1015   51.8184 H   0  0  0  0  0  0  0  0  0  0  0  0
   58.7690   34.0534   51.8874 H   0  0  0  0  0  0  0  0  0  0  0  0
   60.2578   34.3590   49.9170 H   0  0  0  0  0  0  0  0  0  0  0  0
   61.6762   33.0571   48.2786 H   0  0  0  0  0  0  0  0  0  0  0  0
   62.1132   31.5439   46.6089 H   0  0  0  0  0  0  0  0  0  0  0  0
   61.2527   30.5597   47.8900 H   0  0  0  0  0  0  0  0  0  0  0  0
   58.8171   32.2726   43.0258 H   0  0  0  0  0  0  0  0  0  0  0  0
   57.0571   31.3768   41.5036 H   0  0  0  0  0  0  0  0  0  0  0  0
   55.3214   29.8104   42.3805 H   0  0  0  0  0  0  0  0  0  0  0  0
   57.1051   30.0293   46.3159 H   0  0  0  0  0  0  0  0  0  0  0  0
   60.9230   34.0301   46.2265 H   0  0  0  0  0  0  0  0  0  0  0  0
   59.7385   34.5083   47.5093 H   0  0  0  0  0  0  0  0  0  0  0  0
   59.1863   30.4104   48.4961 H   0  0  0  0  0  0  0  0  0  0  0  0
   57.6994   30.1089   50.4676 H   0  0  0  0  0  0  0  0  0  0  0  0
  1  2  1  0
  2  3  1  0
  3  4  2  0
  4  5  1  0
  5  6  2  0
  6  7  1  0
  7  8  1  0
  8  9  1  0
  9 10  2  0
  9 11  1  0
 11 12  1  0
 12 13  2  0
 13 14  1  0
 14 15  2  0
 15 16  1  0
 16 17  1  0
 16 18  2  0
 11 19  1  0
 19 20  2  0
 19 21  1  0
  6 22  1  0
 22 23  2  0
 23  3  1  0
 21  7  1  0
 18 12  1  0
  1 24  1  0
  1 25  1  0
  1 26  1  0
  4 27  1  0
  5 28  1  0
  7 29  1  0
  8 30  1  0
  8 31  1  0
 13 32  1  0
 14 33  1  0
 15 34  1  0
 18 35  1  0
 21 36  1  0
 21 37  1  0
 22 38  1  0
 23 39  1  0
M  CHG  1  17  -1
M  END
>  <UniqueID>  (25) 
24

>  <SMILES>  (25) 
COc1ccc(C2CC(=O)N(c3cccc([O-])c3)C(=O)C2)cc1

>  <Energy>  (25) 
48.762142370389526

>  <Genealogy>  (25) 
COc1ccc(C2CC(=O)N(c3cccc([O-])c3)C(=O)C2)cc1 (protonated)
COc1ccc(C2CC(=O)N(c3cccc([O-])c3)C(=O)C2)cc1 (3D coordinates assigned)
COc1ccc(C2CC(=O)N(c3cccc([O-])c3)C(=O)C2)cc1 (nonaromatic ring conformer: 48.762142370389526 kcal/mol)

>  <smiles>  (25) 
COc1ccc(C2CC(=O)N(c3cccc(O)c3)C(=O)C2)cc1

>  <score_type>  (25) 
oracle

>  <origin>  (25) 
adg

>  <m_score__min__energy>  (25) 
-10.57

>  <m_primary>  (25) 
energy

$$$$
25:0
     RDKit          3D

 48 50  0  0  0  0  0  0  0  0999 V2000
   59.7750   33.4910   51.1700 C   0  0  0  0  0  0  0  0  0  0  0  0
   59.6200   32.1520   50.4360 C   0  0  0  0  0  0  0  0  0  0  0  0
   58.1460   31.7190   50.4740 C   0  0  0  0  0  0  0  0  0  0  0  0
   60.5470   31.0780   51.0630 C   0  0  0  0  0  0  0  0  0  0  0  0
   61.5550   30.4690   50.0670 C   0  0  0  0  0  0  0  0  0  0  0  0
   60.9930   30.3280   48.7060 N   0  0  0  0  0  0  0  0  0  0  0  0
   61.5390   30.9920   47.6260 C   0  0  0  0  0  0  0  0  0  0  0  0
   63.0240   32.0070   47.7500 S   0  0  0  0  0  0  0  0  0  0  0  0
   62.3230   33.4230   46.8280 C   0  0  0  0  0  0  0  0  0  0  0  0
   61.0500   33.9160   47.4600 C   0  0  0  0  0  0  0  0  0  0  0  0
   61.1170   34.4050   48.6210 O   0  0  0  0  0  0  0  0  0  0  0  0
   59.7270   33.8200   46.7820 C   0  0  0  0  0  0  0  0  0  0  0  0
   59.5440   34.4110   45.5160 C   0  0  0  0  0  0  0  0  0  0  0  0
   58.3030   34.3500   44.8730 C   0  0  0  0  0  0  0  0  0  0  0  0
   57.2300   33.6990   45.4830 C   0  0  0  0  0  0  0  0  0  0  0  0
   57.3940   33.1100   46.7370 C   0  0  0  0  0  0  0  0  0  0  0  0
   58.6330   33.1670   47.3860 C   0  0  0  0  0  0  0  0  0  0  0  0
   60.9600   30.8990   46.4030 N   0  0  0  0  0  0  0  0  0  0  0  0
   59.8580   30.1430   46.1890 C   0  0  0  0  0  0  0  0  0  0  0  0
   59.2940   30.0740   44.9100 C   0  0  0  0  0  0  0  0  0  0  0  0
   58.1640   29.2830   44.6860 C   0  0  0  0  0  0  0  0  0  0  0  0
   57.5960   28.5590   45.7380 C   0  0  0  0  0  0  0  0  0  0  0  0
   58.1570   28.6230   47.0180 C   0  0  0  0  0  0  0  0  0  0  0  0
   59.2950   29.4190   47.2520 C   0  0  0  0  0  0  0  0  0  0  0  0
   59.8920   29.5240   48.5190 C   0  0  0  0  0  0  0  0  0  0  0  0
   59.4080   28.8730   49.4890 O   0  0  0  0  0  0  0  0  0  0  0  0
   59.7550   33.3182   52.2562 H   0  0  0  0  0  0  0  0  0  0  0  0
   60.7327   33.9539   50.8899 H   0  0  0  0  0  0  0  0  0  0  0  0
   58.9484   34.1605   50.8899 H   0  0  0  0  0  0  0  0  0  0  0  0
   59.9219   32.2699   49.3848 H   0  0  0  0  0  0  0  0  0  0  0  0
   57.8189   31.6229   51.5198 H   0  0  0  0  0  0  0  0  0  0  0  0
   57.5289   32.4738   49.9647 H   0  0  0  0  0  0  0  0  0  0  0  0
   58.0351   30.7503   49.9647 H   0  0  0  0  0  0  0  0  0  0  0  0
   61.1099   31.5430   51.8857 H   0  0  0  0  0  0  0  0  0  0  0  0
   59.9003   30.2574   51.4071 H   0  0  0  0  0  0  0  0  0  0  0  0
   62.4395   31.1211   50.0174 H   0  0  0  0  0  0  0  0  0  0  0  0
   61.8137   29.4624   50.4273 H   0  0  0  0  0  0  0  0  0  0  0  0
   63.0575   34.2418   46.8177 H   0  0  0  0  0  0  0  0  0  0  0  0
   62.0941   33.0897   45.8050 H   0  0  0  0  0  0  0  0  0  0  0  0
   60.3852   34.9254   45.0284 H   0  0  0  0  0  0  0  0  0  0  0  0
   58.1729   34.8159   43.8851 H   0  0  0  0  0  0  0  0  0  0  0  0
   56.2554   33.6503   44.9754 H   0  0  0  0  0  0  0  0  0  0  0  0
   56.5467   32.5990   47.2175 H   0  0  0  0  0  0  0  0  0  0  0  0
   58.7540   32.6991   48.3741 H   0  0  0  0  0  0  0  0  0  0  0  0
   59.7403   30.6426   44.0808 H   0  0  0  0  0  0  0  0  0  0  0  0
   57.7210   29.2301   43.6805 H   0  0  0  0  0  0  0  0  0  0  0  0
   56.7061   27.9376   45.5592 H   0  0  0  0  0  0  0  0  0  0  0  0
   57.7084   28.0505   47.8432 H   0  0  0  0  0  0  0  0  0  0  0  0
  1  2  1  0
  2  3  1  0
  2  4  1  0
  4  5  1  0
  5  6  1  0
  6  7  1  0
  7  8  1  0
  8  9  1  0
  9 10  1  0
 10 11  2  0
 10 12  1  0
 12 13  2  0
 13 14  1  0
 14 15  2  0
 15 16  1  0
 16 17  2  0
  7 18  2  0
 18 19  1  0
 19 20  2  0
 20 21  1  0
 21 22  2  0
 22 23  1  0
 23 24  2  0
 24 25  1  0
 25 26  2  0
 25  6  1  0
 17 12  1  0
 24 19  1  0
  1 27  1  0
  1 28  1  0
  1 29  1  0
  2 30  1  0
  3 31  1  0
  3 32  1  0
  3 33  1  0
  4 34  1  0
  4 35  1  0
  5 36  1  0
  5 37  1  0
  9 38  1  0
  9 39  1  0
 13 40  1  0
 14 41  1  0
 15 42  1  0
 16 43  1  0
 17 44  1  0
 20 45  1  0
 21 46  1  0
 22 47  1  0
 23 48  1  0
M  END
>  <UniqueID>  (26) 
25

>  <SMILES>  (26) 
CC(C)CCn1c(SCC(=O)c2ccccc2)nc2ccccc2c1=O

>  <Energy>  (26) 
50.000405225529676

>  <Genealogy>  (26) 
CC(C)CCn1c(SCC(=O)c2ccccc2)nc2ccccc2c1=O (3D coordinates assigned)
CC(C)CCn1c(SCC(=O)c2ccccc2)nc2ccccc2c1=O (optimized conformer: 50.000405225529676 kcal/mol)

>  <smiles>  (26) 
CC(C)CCn1c(SCC(=O)c2ccccc2)nc2ccccc2c1=O

>  <score_type>  (26) 
oracle

>  <origin>  (26) 
adg

>  <m_score__min__energy>  (26) 
-7.9199999999999999

>  <m_primary>  (26) 
energy

$$$$
26:0
     RDKit          3D

 54 57  0  0  1  0  0  0  0  0999 V2000
   62.3650   33.8100   46.4910 C   0  0  0  0  0  0  0  0  0  0  0  0
   61.0280   34.0880   46.2060 O   0  0  0  0  0  0  0  0  0  0  0  0
   59.9830   33.1990   46.4190 C   0  0  0  0  0  0  0  0  0  0  0  0
   59.0790   32.9060   45.4420 N   0  0  0  0  0  0  0  0  0  0  0  0
   58.0740   32.0610   45.6250 C   0  0  0  0  0  0  0  0  0  0  0  0
   57.1930   31.7500   44.7340 N   0  0  0  0  0  0  0  0  0  0  0  0
   57.4160   30.5880   43.8650 C   0  0  1  0  0  0  0  0  0  0  0  0
   58.6440   29.8290   44.3060 C   0  0  0  0  0  0  0  0  0  0  0  0
   58.2790   28.6230   45.0630 C   0  0  0  0  0  0  0  0  0  0  0  0
   58.1090   28.6790   46.4330 C   0  0  0  0  0  0  0  0  0  0  0  0
   57.7680   27.5550   47.1510 C   0  0  0  0  0  0  0  0  0  0  0  0
   57.5870   26.3440   46.5180 C   0  0  0  0  0  0  0  0  0  0  0  0
   57.2400   25.2350   47.3060 O   0  0  0  0  0  0  0  0  0  0  0  0
   57.2250   23.9520   46.7900 C   0  0  0  0  0  0  0  0  0  0  0  0
   57.7620   23.0540   47.5100 O   0  0  0  0  0  0  0  0  0  0  0  0
   56.6300   23.6360   45.4970 C   0  0  0  0  0  0  0  0  0  0  0  0
   57.3230   22.7920   44.6480 C   0  0  0  0  0  0  0  0  0  0  0  0
   56.8250   22.4450   43.4040 C   0  0  0  0  0  0  0  0  0  0  0  0
   55.5920   22.9510   42.9800 C   0  0  0  0  0  0  0  0  0  0  0  0
   54.8930   23.8040   43.8400 C   0  0  0  0  0  0  0  0  0  0  0  0
   55.4120   24.1400   45.0880 C   0  0  0  0  0  0  0  0  0  0  0  0
   54.7020   24.9920   45.9310 O   0  0  0  0  0  0  0  0  0  0  0  0
   57.7500   26.2530   45.1520 C   0  0  0  0  0  0  0  0  0  0  0  0
   58.0930   27.4000   44.4550 C   0  0  0  0  0  0  0  0  0  0  0  0
   56.1710   29.7780   43.9320 C   0  0  0  0  0  0  0  0  0  0  0  0
   55.6160   29.3270   42.8780 O   0  0  0  0  0  0  0  0  0  0  0  0
   55.5350   29.4610   45.1250 O   0  0  0  0  0  0  0  0  0  0  0  0
   57.9660   31.4800   46.8440 N   0  0  0  0  0  0  0  0  0  0  0  0
   58.8600   31.7620   47.8330 C   0  0  0  0  0  0  0  0  0  0  0  0
   58.7640   31.1620   49.1190 N   0  0  0  0  0  0  0  0  0  0  0  0
   58.4750   31.1090   50.5450 C   0  0  0  0  0  0  0  0  0  0  0  0
   58.9780   29.8870   49.9020 C   0  0  0  0  0  0  0  0  0  0  0  0
   59.8600   32.6130   47.6220 N   0  0  0  0  0  0  0  0  0  0  0  0
   62.5090   33.7801   47.5811 H   0  0  0  0  0  0  0  0  0  0  0  0
   62.6373   32.8360   46.0583 H   0  0  0  0  0  0  0  0  0  0  0  0
   63.0030   34.5947   46.0583 H   0  0  0  0  0  0  0  0  0  0  0  0
   57.6133   30.8755   42.8217 H   0  0  0  0  0  0  0  0  0  0  0  0
   59.2220   29.5341   43.4178 H   0  0  0  0  0  0  0  0  0  0  0  0
   59.2423   30.4823   44.9581 H   0  0  0  0  0  0  0  0  0  0  0  0
   58.2482   29.6357   46.9577 H   0  0  0  0  0  0  0  0  0  0  0  0
   57.6386   27.6240   48.2412 H   0  0  0  0  0  0  0  0  0  0  0  0
   58.2938   22.3866   44.9694 H   0  0  0  0  0  0  0  0  0  0  0  0
   57.3984   21.7720   42.7496 H   0  0  0  0  0  0  0  0  0  0  0  0
   55.1822   22.6846   41.9945 H   0  0  0  0  0  0  0  0  0  0  0  0
   53.9216   24.2145   43.5270 H   0  0  0  0  0  0  0  0  0  0  0  0
   55.0990   25.4380   46.7460 H   0  0  0  0  0  0  0  0  0  0  0  0
   57.6114   25.2950   44.6294 H   0  0  0  0  0  0  0  0  0  0  0  0
   58.2231   27.3316   43.3649 H   0  0  0  0  0  0  0  0  0  0  0  0
   55.8490   29.7600   46.0410 H   0  0  0  0  0  0  0  0  0  0  0  0
   59.1174   31.6560   51.2507 H   0  0  0  0  0  0  0  0  0  0  0  0
   57.5901   31.3433   51.1550 H   0  0  0  0  0  0  0  0  0  0  0  0
   59.9970   29.5297   50.1115 H   0  0  0  0  0  0  0  0  0  0  0  0
   58.6364   28.8448   49.8171 H   0  0  0  0  0  0  0  0  0  0  0  0
   60.5640   32.8490   48.3670 H   0  0  0  0  0  0  0  0  0  0  0  0
  1  2  1  0
  2  3  1  0
  3  4  2  0
  4  5  1  0
  5  6  2  0
  6  7  1  0
  7  8  1  0
  8  9  1  0
  9 10  2  0
 10 11  1  0
 11 12  2  0
 12 13  1  0
 13 14  1  0
 14 15  2  0
 14 16  1  0
 16 17  2  0
 17 18  1  0
 18 19  2  0
 19 20  1  0
 20 21  2  0
 21 22  1  0
 12 23  1  0
 23 24  2  0
  7 25  1  0
 25 26  2  0
 25 27  1  0
  5 28  1  0
 28 29  2  0
 29 30  1  0
 30 31  1  0
 31 32  1  0
 29 33  1  0
 33  3  1  0
 24  9  1  0
 32 30  1  0
 21 16  1  0
  1 34  1  0
  1 35  1  0
  1 36  1  0
  7 37  1  6
  8 38  1  0
  8 39  1  0
 10 40  1  0
 11 41  1  0
 17 42  1  0
 18 43  1  0
 19 44  1  0
 20 45  1  0
 22 46  1  0
 23 47  1  0
 24 48  1  0
 27 49  1  0
 31 50  1  0
 31 51  1  0
 32 52  1  0
 32 53  1  0
 33 54  1  0
M  END
>  <smiles>  (27) 
COc1nc(=NC(Cc2ccc(OC(=O)c3ccccc3O)cc2)C(=O)O)nc(N2CC2)[nH]1

>  <score_type>  (27) 
oracle

>  <origin>  (27) 
adg

>  <m_score__min__energy>  (27) 
-8.9100000000000001

>  <m_primary>  (27) 
energy

$$$$
27:0
     RDKit          3D

 44 47  0  0  0  0  0  0  0  0999 V2000
   62.2540   34.5779   49.2733 H   0  0  0  0  0  0  0  0  0  0  0  0
   62.3120   33.6860   48.6320 C   0  0  0  0  0  0  0  0  0  0  0  0
   61.3850   32.7610   48.5370 O   0  0  0  0  0  0  0  0  0  0  0  0
   61.7850   31.8480   47.6830 C   0  0  0  0  0  0  0  0  0  0  0  0
   61.0150   30.6470   47.3090 C   0  0  0  0  0  0  0  0  0  0  0  0
   61.0170   30.1380   46.0600 N   0  0  0  0  0  0  0  0  0  0  0  0
   60.2240   29.0770   46.0690 N   0  0  0  0  0  0  0  0  0  0  0  0
   59.7560   28.9480   47.3230 C   0  0  0  0  0  0  0  0  0  0  0  0
   58.6170   27.6480   47.8170 S   0  0  0  0  0  0  0  0  0  0  0  0
   58.1310   27.2090   46.1110 C   0  0  0  0  0  0  0  0  0  0  0  0
   58.5917   27.9228   45.4123 H   0  0  0  0  0  0  0  0  0  0  0  0
   58.4753   26.1849   45.9046 H   0  0  0  0  0  0  0  0  0  0  0  0
   56.6360   27.2510   45.9400 C   0  0  0  0  0  0  0  0  0  0  0  0
   55.9600   26.2710   46.3500 O   0  0  0  0  0  0  0  0  0  0  0  0
   55.9500   28.3090   45.2470 N   0  0  0  0  0  0  0  0  0  0  0  0
   56.4370   29.3980   44.7280 C   0  0  0  0  0  0  0  0  0  0  0  0
   57.0140   30.3510   45.4880 N   0  0  0  0  0  0  0  0  0  0  0  0
   57.4960   31.3890   44.7480 C   0  0  0  0  0  0  0  0  0  0  0  0
   58.1590   32.5550   45.3900 C   0  0  0  0  0  0  0  0  0  0  0  0
   58.1600   32.7260   46.7900 C   0  0  0  0  0  0  0  0  0  0  0  0
   57.6616   31.9840   47.4311 H   0  0  0  0  0  0  0  0  0  0  0  0
   58.7900   33.8320   47.3690 C   0  0  0  0  0  0  0  0  0  0  0  0
   58.7875   33.9545   48.4622 H   0  0  0  0  0  0  0  0  0  0  0  0
   59.4220   34.7810   46.5640 C   0  0  0  0  0  0  0  0  0  0  0  0
   59.9173   35.6496   47.0225 H   0  0  0  0  0  0  0  0  0  0  0  0
   59.4250   34.6270   45.1770 C   0  0  0  0  0  0  0  0  0  0  0  0
   59.9232   35.3754   44.5432 H   0  0  0  0  0  0  0  0  0  0  0  0
   58.7970   33.5250   44.5910 C   0  0  0  0  0  0  0  0  0  0  0  0
   58.8006   33.4135   43.4967 H   0  0  0  0  0  0  0  0  0  0  0  0
   57.3030   31.2520   43.3690 C   0  0  0  0  0  0  0  0  0  0  0  0
   57.6124   31.9741   42.5991 H   0  0  0  0  0  0  0  0  0  0  0  0
   56.5160   29.7920   43.0930 S   0  0  0  0  0  0  0  0  0  0  0  0
   60.2230   29.9210   48.1320 N   0  0  0  0  0  0  0  0  0  0  0  0
   59.9270   30.1280   49.5530 C   0  0  0  0  0  0  0  0  0  0  0  0
   60.8477   30.4319   50.0726 H   0  0  0  0  0  0  0  0  0  0  0  0
   59.5425   29.1871   49.9736 H   0  0  0  0  0  0  0  0  0  0  0  0
   58.8700   31.2120   49.7340 C   0  0  0  0  0  0  0  0  0  0  0  0
   58.7018   31.3845   50.8073 H   0  0  0  0  0  0  0  0  0  0  0  0
   59.2159   32.1438   49.2626 H   0  0  0  0  0  0  0  0  0  0  0  0
   57.9298   30.8897   49.2626 H   0  0  0  0  0  0  0  0  0  0  0  0
   63.0320   32.1820   47.1910 C   0  0  0  0  0  0  0  0  0  0  0  0
   63.6309   31.6178   46.4609 H   0  0  0  0  0  0  0  0  0  0  0  0
   63.3700   33.3690   47.8050 C   0  0  0  0  0  0  0  0  0  0  0  0
   64.2956   33.9464   47.6642 H   0  0  0  0  0  0  0  0  0  0  0  0
  1  2  1  0
  2  3  1  0
  3  4  1  0
  4  5  1  0
  5  6  2  0
  6  7  1  0
  7  8  2  0
  8  9  1  0
  9 10  1  0
 10 11  1  0
 10 12  1  0
 10 13  1  0
 13 14  2  0
 13 15  1  0
 15 16  2  0
 16 17  1  0
 17 18  1  0
 18 19  1  0
 19 20  2  0
 20 21  1  0
 20 22  1  0
 22 23  1  0
 22 24  2  0
 24 25  1  0
 24 26  1  0
 26 27  1  0
 26 28  2  0
 28 29  1  0
 18 30  2  0
 30 31  1  0
 30 32  1  0
  8 33  1  0
 33 34  1  0
 34 35  1  0
 34 36  1  0
 34 37  1  0
 37 38  1  0
 37 39  1  0
 37 40  1  0
  4 41  2  0
 41 42  1  0
 41 43  1  0
 43 44  1  0
 43  2  2  0
 33  5  1  0
 32 16  1  0
 28 19  1  0
M  CHG  1  17  -1
M  END
>  <UniqueID>  (28) 
26

>  <SMILES>  (28) 
CCn1c(SCC(=O)/N=c2/[n-]c(-c3ccccc3)cs2)nnc1-c1ccco1

>  <Energy>  (28) 
141.30082983059862

>  <Genealogy>  (28) 
CCn1c(SCC(=O)N=c2[n-]c(-c3ccccc3)cs2)nnc1-c1ccco1 (protonated)
CCn1c(SCC(=O)/N=c2/[n-]c(-c3ccccc3)cs2)nnc1-c1ccco1 (cis-trans isomerization)
CCn1c(SCC(=O)/N=c2/[n-]c(-c3ccccc3)cs2)nnc1-c1ccco1 (3D coordinates assigned)
CCn1c(SCC(=O)/N=c2/[n-]c(-c3ccccc3)cs2)nnc1-c1ccco1 (optimized conformer: 141.30082983059862 kcal/mol)

>  <smiles>  (28) 
CCn1c(SCC(=O)N=c2[nH]c(-c3ccccc3)cs2)nnc1-c1ccco1

>  <score_type>  (28) 
oracle

>  <origin>  (28) 
adg

>  <m_score__min__energy>  (28) 
-10.4

>  <m_primary>  (28) 
energy

$$$$
28:0
     RDKit          3D

 41 43  0  0  0  0  0  0  0  0999 V2000
   55.1790   26.3120   45.7380 N   0  0  0  0  0  0  0  0  0  0  0  0
   55.6990   25.0850   46.2490 C   0  0  0  0  0  0  0  0  0  0  0  0
   55.5680   24.8360   47.4780 O   0  0  0  0  0  0  0  0  0  0  0  0
   56.4050   24.1180   45.3660 C   0  0  0  0  0  0  0  0  0  0  0  0
   55.6530   23.3830   44.4260 C   0  0  0  0  0  0  0  0  0  0  0  0
   56.2670   22.4510   43.5880 C   0  0  0  0  0  0  0  0  0  0  0  0
   57.6420   22.2460   43.6590 C   0  0  0  0  0  0  0  0  0  0  0  0
   58.4080   22.9670   44.5750 C   0  0  0  0  0  0  0  0  0  0  0  0
   57.8030   23.8920   45.4470 C   0  0  0  0  0  0  0  0  0  0  0  0
   58.6120   24.6460   46.3660 N   0  0  0  0  0  0  0  0  0  0  0  0
   59.4440   25.7660   46.0310 C   0  0  0  0  0  0  0  0  0  0  0  0
   60.6910   25.5990   45.9750 O   0  0  0  0  0  0  0  0  0  0  0  0
   58.8710   27.0930   45.7120 C   0  0  0  0  0  0  0  0  0  0  0  0
   58.5420   27.4310   44.3890 C   0  0  0  0  0  0  0  0  0  0  0  0
   57.9390   28.6570   44.1020 C   0  0  0  0  0  0  0  0  0  0  0  0
   57.6520   29.5640   45.1350 C   0  0  0  0  0  0  0  0  0  0  0  0
   56.9820   30.8060   44.8780 N   0  0  0  0  0  0  0  0  0  0  0  0
   57.6090   32.0140   44.4210 C   0  0  0  0  0  0  0  0  0  0  0  0
   57.4340   32.3710   43.2250 O   0  0  0  0  0  0  0  0  0  0  0  0
   58.4720   32.8340   45.3030 C   0  0  0  0  0  0  0  0  0  0  0  0
   59.3620   32.2020   46.1880 C   0  0  0  0  0  0  0  0  0  0  0  0
   60.2060   32.9590   47.0040 C   0  0  0  0  0  0  0  0  0  0  0  0
   60.1620   34.3540   46.9550 C   0  0  0  0  0  0  0  0  0  0  0  0
   59.2640   34.9940   46.0970 C   0  0  0  0  0  0  0  0  0  0  0  0
   58.4170   34.2430   45.2760 C   0  0  0  0  0  0  0  0  0  0  0  0
   57.5240   34.8910   44.4860 F   0  0  0  0  0  0  0  0  0  0  0  0
   58.0450   29.2600   46.4440 C   0  0  0  0  0  0  0  0  0  0  0  0
   58.6480   28.0320   46.7330 C   0  0  0  0  0  0  0  0  0  0  0  0
   54.7710   27.0300   46.3780 H   0  0  0  0  0  0  0  0  0  0  0  0
   54.5677   23.5466   44.3524 H   0  0  0  0  0  0  0  0  0  0  0  0
   55.6630   21.8771   42.8698 H   0  0  0  0  0  0  0  0  0  0  0  0
   58.1244   21.5156   42.9929 H   0  0  0  0  0  0  0  0  0  0  0  0
   59.4961   22.8112   44.6165 H   0  0  0  0  0  0  0  0  0  0  0  0
   58.7608   26.7254   43.5740 H   0  0  0  0  0  0  0  0  0  0  0  0
   57.6876   28.9136   43.0623 H   0  0  0  0  0  0  0  0  0  0  0  0
   59.3943   31.1036   46.2385 H   0  0  0  0  0  0  0  0  0  0  0  0
   60.9065   32.4554   47.6864 H   0  0  0  0  0  0  0  0  0  0  0  0
   60.8339   34.9485   47.5915 H   0  0  0  0  0  0  0  0  0  0  0  0
   59.2231   36.0928   46.0672 H   0  0  0  0  0  0  0  0  0  0  0  0
   57.8785   29.9909   47.2491 H   0  0  0  0  0  0  0  0  0  0  0  0
   58.9494   27.7999   47.7651 H   0  0  0  0  0  0  0  0  0  0  0  0
  1  2  1  0
  2  3  2  0
  2  4  1  0
  4  5  2  0
  5  6  1  0
  6  7  2  0
  7  8  1  0
  8  9  2  0
  9 10  1  0
 10 11  1  0
 11 12  2  0
 11 13  1  0
 13 14  2  0
 14 15  1  0
 15 16  2  0
 16 17  1  0
 17 18  1  0
 18 19  2  0
 18 20  1  0
 20 21  2  0
 21 22  1  0
 22 23  2  0
 23 24  1  0
 24 25  2  0
 25 26  1  0
 16 27  1  0
 27 28  2  0
  9  4  1  0
 28 13  1  0
 25 20  1  0
  1 29  1  0
  5 30  1  0
  6 31  1  0
  7 32  1  0
  8 33  1  0
 14 34  1  0
 15 35  1  0
 21 36  1  0
 22 37  1  0
 23 38  1  0
 24 39  1  0
 27 40  1  0
 28 41  1  0
M  CHG  3   1  -1  10  -1  17  -1
M  END
>  <UniqueID>  (29) 
27

>  <SMILES>  (29) 
[NH-]C(=O)c1ccccc1[N-]C(=O)c1ccc([N-]C(=O)c2ccccc2F)cc1

>  <Energy>  (29) 
60.712591658709556

>  <Genealogy>  (29) 
[NH-]C(=O)c1ccccc1[N-]C(=O)c1ccc([N-]C(=O)c2ccccc2F)cc1 (protonated)
[NH-]C(=O)c1ccccc1[N-]C(=O)c1ccc([N-]C(=O)c2ccccc2F)cc1 (3D coordinates assigned)
[NH-]C(=O)c1ccccc1[N-]C(=O)c1ccc([N-]C(=O)c2ccccc2F)cc1 (optimized conformer: 60.712591658709556 kcal/mol)

>  <smiles>  (29) 
NC(=O)c1ccccc1NC(=O)c1ccc(NC(=O)c2ccccc2F)cc1

>  <score_type>  (29) 
oracle

>  <origin>  (29) 
adg

>  <m_score__min__energy>  (29) 
-15.52

>  <m_primary>  (29) 
energy

$$$$
29:0
     RDKit          3D

 46 49  0  0  0  0  0  0  0  0999 V2000
   51.0110   33.3990   52.0080 N   0  0  0  0  0  0  0  0  0  0  0  0
   51.0440   31.6770   51.8540 S   0  0  0  0  0  0  0  0  0  0  0  0
   49.9500   31.0820   52.6980 O   0  0  0  0  0  0  0  0  0  0  0  0
   50.8130   31.2920   50.4210 O   0  0  0  0  0  0  0  0  0  0  0  0
   52.6110   31.0710   52.3750 C   0  0  0  0  0  0  0  0  0  0  0  0
   52.7560   30.4300   53.6130 C   0  0  0  0  0  0  0  0  0  0  0  0
   53.9990   29.9190   54.0000 C   0  0  0  0  0  0  0  0  0  0  0  0
   55.1130   30.0560   53.1580 C   0  0  0  0  0  0  0  0  0  0  0  0
   56.6550   29.3540   53.6380 S   0  0  0  0  0  0  0  0  0  0  0  0
   56.4830   27.8710   53.8120 O   0  0  0  0  0  0  0  0  0  0  0  0
   57.1240   29.9200   54.9480 O   0  0  0  0  0  0  0  0  0  0  0  0
   57.8330   29.6370   52.3940 N   0  0  0  0  0  0  0  0  0  0  0  0
   58.2990   30.9150   51.9380 C   0  0  0  0  0  0  0  0  0  0  0  0
   58.7290   31.8470   52.8900 C   0  0  0  0  0  0  0  0  0  0  0  0
   59.1810   33.1090   52.4960 C   0  0  0  0  0  0  0  0  0  0  0  0
   59.2030   33.4520   51.1400 C   0  0  0  0  0  0  0  0  0  0  0  0
   58.7740   32.5340   50.1680 C   0  0  0  0  0  0  0  0  0  0  0  0
   58.7880   32.8940   48.7330 C   0  0  0  0  0  0  0  0  0  0  0  0
   58.2450   32.1090   47.7650 N   0  0  0  0  0  0  0  0  0  0  0  0
   58.4870   32.8020   46.6400 C   0  0  0  0  0  0  0  0  0  0  0  0
   58.1520   32.4620   45.3200 C   0  0  0  0  0  0  0  0  0  0  0  0
   57.4460   31.1960   45.0020 C   0  0  0  0  0  0  0  0  0  0  0  0
   57.4350   30.0970   45.9190 N   0  0  0  0  0  0  0  0  0  0  0  0
   56.8460   31.0750   43.9020 O   0  0  0  0  0  0  0  0  0  0  0  0
   58.5470   33.3720   44.3070 C   0  0  0  0  0  0  0  0  0  0  0  0
   59.2270   34.5650   44.6330 C   0  0  0  0  0  0  0  0  0  0  0  0
   59.5360   34.8650   45.9710 C   0  0  0  0  0  0  0  0  0  0  0  0
   59.1470   33.9530   46.9460 C   0  0  0  0  0  0  0  0  0  0  0  0
   59.3540   34.0360   48.2670 N   0  0  0  0  0  0  0  0  0  0  0  0
   58.3280   31.2640   50.5760 C   0  0  0  0  0  0  0  0  0  0  0  0
   54.9720   30.7180   51.9280 C   0  0  0  0  0  0  0  0  0  0  0  0
   53.7260   31.2200   51.5380 C   0  0  0  0  0  0  0  0  0  0  0  0
   50.0030   33.6800   52.0180 H   0  0  0  0  0  0  0  0  0  0  0  0
   51.8891   30.3285   54.2825 H   0  0  0  0  0  0  0  0  0  0  0  0
   54.1037   29.4077   54.9683 H   0  0  0  0  0  0  0  0  0  0  0  0
   58.7109   31.5834   53.9578 H   0  0  0  0  0  0  0  0  0  0  0  0
   59.5195   33.8328   53.2520 H   0  0  0  0  0  0  0  0  0  0  0  0
   59.5585   34.4468   50.8334 H   0  0  0  0  0  0  0  0  0  0  0  0
   56.9010   29.2300   45.6820 H   0  0  0  0  0  0  0  0  0  0  0  0
   57.9790   30.1090   46.8120 H   0  0  0  0  0  0  0  0  0  0  0  0
   58.3208   33.1455   43.2546 H   0  0  0  0  0  0  0  0  0  0  0  0
   59.5170   35.2644   43.8350 H   0  0  0  0  0  0  0  0  0  0  0  0
   60.0677   35.7902   46.2379 H   0  0  0  0  0  0  0  0  0  0  0  0
   57.9980   30.5353   49.8210 H   0  0  0  0  0  0  0  0  0  0  0  0
   55.8440   30.8423   51.2690 H   0  0  0  0  0  0  0  0  0  0  0  0
   53.6205   31.7336   50.5710 H   0  0  0  0  0  0  0  0  0  0  0  0
  1  2  1  0
  2  3  2  0
  2  4  2  0
  2  5  1  0
  5  6  2  0
  6  7  1  0
  7  8  2  0
  8  9  1  0
  9 10  2  0
  9 11  2  0
  9 12  1  0
 12 13  1  0
 13 14  2  0
 14 15  1  0
 15 16  2  0
 16 17  1  0
 17 18  1  0
 18 19  2  0
 19 20  1  0
 20 21  2  0
 21 22  1  0
 22 23  1  0
 22 24  2  0
 21 25  1  0
 25 26  2  0
 26 27  1  0
 27 28  2  0
 28 29  1  0
 17 30  2  0
  8 31  1  0
 31 32  2  0
 32  5  1  0
 30 13  1  0
 29 18  1  0
 28 20  1  0
  1 33  1  0
  6 34  1  0
  7 35  1  0
 14 36  1  0
 15 37  1  0
 16 38  1  0
 23 39  1  0
 23 40  1  0
 25 41  1  0
 26 42  1  0
 27 43  1  0
 30 44  1  0
 31 45  1  0
 32 46  1  0
M  CHG  3   1  -1  12  -1  29  -1
M  END
>  <UniqueID>  (30) 
28

>  <SMILES>  (30) 
[NH-]S(=O)(=O)c1ccc(S(=O)(=O)[N-]c2cccc(-c3nc4c(C(N)=O)cccc4[n-]3)c2)cc1

>  <Energy>  (30) 
91.64693293198098

>  <Genealogy>  (30) 
[NH-]S(=O)(=O)c1ccc(S(=O)(=O)[N-]c2cccc(-c3nc4c(C(N)=O)cccc4[n-]3)c2)cc1 (protonated)
[NH-]S(=O)(=O)c1ccc(S(=O)(=O)[N-]c2cccc(-c3nc4c(C(N)=O)cccc4[n-]3)c2)cc1 (3D coordinates assigned)
[NH-]S(=O)(=O)c1ccc(S(=O)(=O)[N-]c2cccc(-c3nc4c(C(N)=O)cccc4[n-]3)c2)cc1 (optimized conformer: 91.64693293198098 kcal/mol)

>  <smiles>  (30) 
NC(=O)c1cccc2[nH]c(-c3cccc(NS(=O)(=O)c4ccc(S(N)(=O)=O)cc4)c3)nc12

>  <score_type>  (30) 
oracle

>  <origin>  (30) 
adg

>  <m_score__min__energy>  (30) 
-14.15

>  <m_primary>  (30) 
energy

$$$$
30:0
     RDKit          3D

 53 56  0  0  0  0  0  0  0  0999 V2000
   55.2080   29.3430   44.8250 O   0  0  0  0  0  0  0  0  0  0  0  0
   56.3550   29.8290   44.6240 C   0  0  0  0  0  0  0  0  0  0  0  0
   56.5190   31.2390   44.4270 N   0  0  0  0  0  0  0  0  0  0  0  0
   57.3940   32.1060   45.1630 C   0  0  0  0  0  0  0  0  0  0  0  0
   57.4050   33.4700   44.8520 C   0  0  0  0  0  0  0  0  0  0  0  0
   58.2460   34.3460   45.5420 C   0  0  0  0  0  0  0  0  0  0  0  0
   59.1030   33.8600   46.5330 C   0  0  0  0  0  0  0  0  0  0  0  0
   59.1410   32.4930   46.8250 C   0  0  0  0  0  0  0  0  0  0  0  0
   60.0210   32.0420   47.8220 O   0  0  0  0  0  0  0  0  0  0  0  0
   61.3450   32.4710   47.9940 C   0  0  0  0  0  0  0  0  0  0  0  0
   62.4250   31.8220   47.3670 C   0  0  0  0  0  0  0  0  0  0  0  0
   63.7300   32.2910   47.5510 C   0  0  0  0  0  0  0  0  0  0  0  0
   63.9650   33.4140   48.3480 C   0  0  0  0  0  0  0  0  0  0  0  0
   62.8940   34.0730   48.9580 C   0  0  0  0  0  0  0  0  0  0  0  0
   61.5880   33.6080   48.7750 C   0  0  0  0  0  0  0  0  0  0  0  0
   58.2750   31.6150   46.1460 C   0  0  0  0  0  0  0  0  0  0  0  0
   57.4940   28.9690   44.4900 N   0  0  0  0  0  0  0  0  0  0  0  0
   57.5030   27.5770   44.8530 C   0  0  0  0  0  0  0  0  0  0  0  0
   58.1360   26.6130   44.0500 C   0  0  0  0  0  0  0  0  0  0  0  0
   58.1160   25.2640   44.4160 C   0  0  0  0  0  0  0  0  0  0  0  0
   57.4650   24.8530   45.5910 C   0  0  0  0  0  0  0  0  0  0  0  0
   57.4550   23.3900   45.9960 C   0  0  0  0  0  0  0  0  0  0  0  0
   56.4490   22.5580   45.2880 N   0  0  0  0  0  0  0  0  0  0  0  0
   57.0280   21.4570   44.5080 C   0  0  0  0  0  0  0  0  0  0  0  0
   57.0420   21.8770   43.0440 C   0  0  0  0  0  0  0  0  0  0  0  0
   56.1090   23.0740   42.9480 C   0  0  0  0  0  0  0  0  0  0  0  0
   55.5970   23.3130   44.3620 C   0  0  0  0  0  0  0  0  0  0  0  0
   56.7860   25.8120   46.3620 C   0  0  0  0  0  0  0  0  0  0  0  0
   56.8060   27.1600   45.9950 C   0  0  0  0  0  0  0  0  0  0  0  0
   56.7471   33.8550   44.0590 H   0  0  0  0  0  0  0  0  0  0  0  0
   58.2337   35.4201   45.3050 H   0  0  0  0  0  0  0  0  0  0  0  0
   59.7508   34.5561   47.0860 H   0  0  0  0  0  0  0  0  0  0  0  0
   62.2424   30.9436   46.7305 H   0  0  0  0  0  0  0  0  0  0  0  0
   64.5724   31.7748   47.0674 H   0  0  0  0  0  0  0  0  0  0  0  0
   64.9921   33.7793   48.4953 H   0  0  0  0  0  0  0  0  0  0  0  0
   63.0788   34.9590   49.5832 H   0  0  0  0  0  0  0  0  0  0  0  0
   60.7473   34.1378   49.2468 H   0  0  0  0  0  0  0  0  0  0  0  0
   58.2865   30.5412   46.3842 H   0  0  0  0  0  0  0  0  0  0  0  0
   58.3430   29.3650   44.0260 H   0  0  0  0  0  0  0  0  0  0  0  0
   58.6503   26.9218   43.1280 H   0  0  0  0  0  0  0  0  0  0  0  0
   58.6140   24.5184   43.7788 H   0  0  0  0  0  0  0  0  0  0  0  0
   58.4514   22.9709   45.7919 H   0  0  0  0  0  0  0  0  0  0  0  0
   57.1854   23.3641   47.0621 H   0  0  0  0  0  0  0  0  0  0  0  0
   58.0544   21.2567   44.8492 H   0  0  0  0  0  0  0  0  0  0  0  0
   56.4330   20.5410   44.6381 H   0  0  0  0  0  0  0  0  0  0  0  0
   58.0597   22.1588   42.7360 H   0  0  0  0  0  0  0  0  0  0  0  0
   56.7192   21.0579   42.3845 H   0  0  0  0  0  0  0  0  0  0  0  0
   56.6544   23.9569   42.5834 H   0  0  0  0  0  0  0  0  0  0  0  0
   55.2843   22.8900   42.2437 H   0  0  0  0  0  0  0  0  0  0  0  0
   55.6462   24.3858   44.6002 H   0  0  0  0  0  0  0  0  0  0  0  0
   54.5515   22.9827   44.4501 H   0  0  0  0  0  0  0  0  0  0  0  0
   56.2348   25.4990   47.2610 H   0  0  0  0  0  0  0  0  0  0  0  0
   56.2702   27.9001   46.6075 H   0  0  0  0  0  0  0  0  0  0  0  0
  1  2  2  0
  2  3  1  0
  3  4  1  0
  4  5  2  0
  5  6  1  0
  6  7  2  0
  7  8  1  0
  8  9  1  0
  9 10  1  0
 10 11  2  0
 11 12  1  0
 12 13  2  0
 13 14  1  0
 14 15  2  0
  8 16  2  0
  2 17  1  0
 17 18  1  0
 18 19  2  0
 19 20  1  0
 20 21  2  0
 21 22  1  0
 22 23  1  0
 23 24  1  0
 24 25  1  0
 25 26  1  0
 26 27  1  0
 21 28  1  0
 28 29  2  0
 16  4  1  0
 29 18  1  0
 15 10  1  0
 27 23  1  0
  5 30  1  0
  6 31  1  0
  7 32  1  0
 11 33  1  0
 12 34  1  0
 13 35  1  0
 14 36  1  0
 15 37  1  0
 16 38  1  0
 17 39  1  0
 19 40  1  0
 20 41  1  0
 22 42  1  0
 22 43  1  0
 24 44  1  0
 24 45  1  0
 25 46  1  0
 25 47  1  0
 26 48  1  0
 26 49  1  0
 27 50  1  0
 27 51  1  0
 28 52  1  0
 29 53  1  0
M  CHG  1   3  -1
M  END
>  <UniqueID>  (31) 
29

>  <SMILES>  (31) 
O=C([N-]c1cccc(Oc2ccccc2)c1)Nc1ccc(CN2CCCC2)cc1

>  <Energy>  (31) 
74.42480036863269

>  <Genealogy>  (31) 
O=C([N-]c1cccc(Oc2ccccc2)c1)Nc1ccc(CN2CCCC2)cc1 (protonated)
O=C([N-]c1cccc(Oc2ccccc2)c1)Nc1ccc(CN2CCCC2)cc1 (3D coordinates assigned)
O=C([N-]c1cccc(Oc2ccccc2)c1)Nc1ccc(CN2CCCC2)cc1 (nonaromatic ring conformer: 74.42480036863269 kcal/mol)

>  <smiles>  (31) 
O=C(Nc1ccc(CN2CCCC2)cc1)Nc1cccc(Oc2ccccc2)c1

>  <score_type>  (31) 
oracle

>  <origin>  (31) 
adg

>  <m_score__min__energy>  (31) 
-10.67

>  <m_primary>  (31) 
energy

$$$$
31:0
     RDKit          3D

 43 46  0  0  0  0  0  0  0  0999 V2000
   60.7530   31.4908   45.8447 H   0  0  0  0  0  0  0  0  0  0  0  0
   60.0040   30.8800   46.3700 C   0  0  0  0  0  0  0  0  0  0  0  0
   60.2060   30.6180   47.6710 C   0  0  0  0  0  0  0  0  0  0  0  0
   58.8990   30.3590   48.8840 S   0  0  0  0  0  0  0  0  0  0  0  0
   60.1700   30.1590   50.1380 C   0  0  0  0  0  0  0  0  0  0  0  0
   59.8250   29.4040   51.5510 S   0  0  0  0  0  0  0  0  0  0  0  0
   61.5110   30.3740   49.6890 N   0  0  0  0  0  0  0  0  0  0  0  0
   62.7170   30.1810   50.4970 C   0  0  0  0  0  0  0  0  0  0  0  0
   63.5687   29.9717   49.8331 H   0  0  0  0  0  0  0  0  0  0  0  0
   62.5565   29.3359   51.1826 H   0  0  0  0  0  0  0  0  0  0  0  0
   63.0140   31.4380   51.3180 C   0  0  0  0  0  0  0  0  0  0  0  0
   63.5274   31.1505   52.2474 H   0  0  0  0  0  0  0  0  0  0  0  0
   62.0652   31.9440   51.5500 H   0  0  0  0  0  0  0  0  0  0  0  0
   63.8640   32.3520   50.5630 N   0  0  0  0  0  0  0  0  0  0  0  0
   63.3870   33.5520   49.9480 C   0  0  0  0  0  0  0  0  0  0  0  0
   63.2840   34.6110   50.6220 O   0  0  0  0  0  0  0  0  0  0  0  0
   62.9310   33.5430   48.5500 C   0  0  0  0  0  0  0  0  0  0  0  0
   61.6620   33.7900   48.0320 C   0  0  0  0  0  0  0  0  0  0  0  0
   60.3810   33.9730   48.5810 C   0  0  0  0  0  0  0  0  0  0  0  0
   60.0320   33.8330   50.2950 Cl  0  0  0  0  0  0  0  0  0  0  0  0
   59.3130   34.1880   47.6880 C   0  0  0  0  0  0  0  0  0  0  0  0
   58.2996   34.3525   48.0829 H   0  0  0  0  0  0  0  0  0  0  0  0
   59.5270   34.1950   46.2920 C   0  0  0  0  0  0  0  0  0  0  0  0
   58.1760   34.4570   45.2030 Cl  0  0  0  0  0  0  0  0  0  0  0  0
   60.8100   33.9690   45.7690 C   0  0  0  0  0  0  0  0  0  0  0  0
   60.9870   33.9568   44.6834 H   0  0  0  0  0  0  0  0  0  0  0  0
   61.8500   33.7610   46.6690 C   0  0  0  0  0  0  0  0  0  0  0  0
   63.1050   33.5050   46.3960 O   0  0  0  0  0  0  0  0  0  0  0  0
   63.7720   33.3620   47.5060 N   0  0  0  0  0  0  0  0  0  0  0  0
   64.7980   33.1740   47.5570 H   0  0  0  0  0  0  0  0  0  0  0  0
   61.5290   30.6250   48.2900 C   0  0  0  0  0  0  0  0  0  0  0  0
   62.5990   30.8190   47.6510 O   0  0  0  0  0  0  0  0  0  0  0  0
   58.8380   30.3990   45.5990 C   0  0  0  0  0  0  0  0  0  0  0  0
   58.1360   31.2450   44.7210 C   0  0  0  0  0  0  0  0  0  0  0  0
   58.4705   32.2827   44.5750 H   0  0  0  0  0  0  0  0  0  0  0  0
   57.0140   30.7710   44.0330 C   0  0  0  0  0  0  0  0  0  0  0  0
   56.4772   31.4323   43.3369 H   0  0  0  0  0  0  0  0  0  0  0  0
   56.5740   29.4600   44.2280 C   0  0  0  0  0  0  0  0  0  0  0  0
   55.6964   29.0870   43.6797 H   0  0  0  0  0  0  0  0  0  0  0  0
   57.2490   28.6220   45.1200 C   0  0  0  0  0  0  0  0  0  0  0  0
   56.8977   27.5918   45.2789 H   0  0  0  0  0  0  0  0  0  0  0  0
   58.3710   29.0920   45.8110 C   0  0  0  0  0  0  0  0  0  0  0  0
   58.8899   28.4343   46.5239 H   0  0  0  0  0  0  0  0  0  0  0  0
  1  2  1  0
  2  3  2  0
  3  4  1  0
  4  5  1  0
  5  6  2  0
  5  7  1  0
  7  8  1  0
  8  9  1  0
  8 10  1  0
  8 11  1  0
 11 12  1  0
 11 13  1  0
 11 14  1  0
 14 15  1  0
 15 16  2  0
 15 17  1  0
 17 18  1  0
 18 19  2  0
 19 20  1  0
 19 21  1  0
 21 22  1  0
 21 23  2  0
 23 24  1  0
 23 25  1  0
 25 26  1  0
 25 27  2  0
 27 28  1  0
 28 29  1  0
 29 30  1  0
  7 31  1  0
 31 32  2  0
  2 33  1  0
 33 34  2  0
 34 35  1  0
 34 36  1  0
 36 37  1  0
 36 38  2  0
 38 39  1  0
 38 40  1  0
 40 41  1  0
 40 42  2  0
 42 43  1  0
 31  3  1  0
 42 33  1  0
 29 17  2  0
 27 18  1  0
M  CHG  2  14  -1  29   1
M  END
>  <UniqueID>  (32) 
30

>  <SMILES>  (32) 
O=C([N-]CCN1C(=O)/C(=C/c2ccccc2)SC1=S)c1[nH+]oc2cc(Cl)cc(Cl)c12

>  <Energy>  (32) 
113.17773295723156

>  <Genealogy>  (32) 
O=C([N-]CCN1C(=O)C(=Cc2ccccc2)SC1=S)c1[nH+]oc2cc(Cl)cc(Cl)c12 (protonated)
O=C([N-]CCN1C(=O)/C(=C/c2ccccc2)SC1=S)c1[nH+]oc2cc(Cl)cc(Cl)c12 (cis-trans isomerization)
O=C([N-]CCN1C(=O)/C(=C/c2ccccc2)SC1=S)c1[nH+]oc2cc(Cl)cc(Cl)c12 (3D coordinates assigned)
O=C([N-]CCN1C(=O)/C(=C/c2ccccc2)SC1=S)c1[nH+]oc2cc(Cl)cc(Cl)c12 (nonaromatic ring conformer: 113.17773295723156 kcal/mol)

>  <smiles>  (32) 
O=C(NCCN1C(=O)C(=Cc2ccccc2)SC1=S)c1noc2cc(Cl)cc(Cl)c12

>  <score_type>  (32) 
oracle

>  <origin>  (32) 
adg

>  <m_score__min__energy>  (32) 
-8.2400000000000002

>  <m_primary>  (32) 
energy

$$$$
32:0
     RDKit          3D

 47 50  0  0  0  0  0  0  0  0999 V2000
   62.1890   31.2460   47.1590 O   0  0  0  0  0  0  0  0  0  0  0  0
   61.1600   31.6720   47.7510 C   0  0  0  0  0  0  0  0  0  0  0  0
   61.1830   33.0180   48.4010 C   0  0  0  0  0  0  0  0  0  0  0  0
   59.7570   33.5310   48.6160 C   0  0  0  0  0  0  0  0  0  0  0  0
   59.0710   33.7520   47.2950 C   0  0  0  0  0  0  0  0  0  0  0  0
   59.7550   34.3680   46.2350 C   0  0  0  0  0  0  0  0  0  0  0  0
   59.1060   34.6020   45.0190 C   0  0  0  0  0  0  0  0  0  0  0  0
   57.7690   34.2290   44.8550 C   0  0  0  0  0  0  0  0  0  0  0  0
   57.0770   33.6280   45.9100 C   0  0  0  0  0  0  0  0  0  0  0  0
   57.7220   33.3920   47.1280 C   0  0  0  0  0  0  0  0  0  0  0  0
   59.9770   30.9250   47.7610 O   0  0  0  0  0  0  0  0  0  0  0  0
   59.5570   30.1040   46.6720 C   0  0  2  0  0  0  0  0  0  0  0  0
   59.0120   30.9770   45.5740 C   0  0  0  0  0  0  0  0  0  0  0  0
   58.3090   30.3890   44.6130 C   0  0  0  0  0  0  0  0  0  0  0  0
   57.5810   31.0400   43.6340 O   0  0  0  0  0  0  0  0  0  0  0  0
   56.7980   30.0750   43.0170 C   0  0  0  0  0  0  0  0  0  0  0  0
   57.0080   28.8650   43.5310 C   0  0  0  0  0  0  0  0  0  0  0  0
   58.0840   28.9230   44.5720 C   0  0  2  0  0  0  0  0  0  0  0  0
   57.6530   28.4300   45.9770 C   0  0  1  0  0  0  0  0  0  0  0  0
   57.6820   26.9490   46.0470 N   0  0  0  0  0  0  0  0  0  0  0  0
   58.8950   26.3150   46.1150 C   0  0  0  0  0  0  0  0  0  0  0  0
   58.9720   24.9270   46.1990 C   0  0  0  0  0  0  0  0  0  0  0  0
   57.7900   24.1950   46.2140 C   0  0  0  0  0  0  0  0  0  0  0  0
   57.8210   22.9390   46.2880 O   0  0  0  0  0  0  0  0  0  0  0  0
   56.6000   24.8400   46.1500 N   0  0  0  0  0  0  0  0  0  0  0  0
   56.5310   26.1940   46.0700 C   0  0  0  0  0  0  0  0  0  0  0  0
   55.3960   26.7410   46.0140 O   0  0  0  0  0  0  0  0  0  0  0  0
   58.4770   29.0880   47.1430 C   0  0  0  0  0  0  0  0  0  0  0  0
   61.6914   32.9423   49.3735 H   0  0  0  0  0  0  0  0  0  0  0  0
   61.7203   33.7208   47.7473 H   0  0  0  0  0  0  0  0  0  0  0  0
   59.1899   32.7902   49.1988 H   0  0  0  0  0  0  0  0  0  0  0  0
   59.8011   34.4872   49.1580 H   0  0  0  0  0  0  0  0  0  0  0  0
   60.8058   34.6677   46.3617 H   0  0  0  0  0  0  0  0  0  0  0  0
   59.6484   35.0804   44.1901 H   0  0  0  0  0  0  0  0  0  0  0  0
   57.2615   34.4085   43.8957 H   0  0  0  0  0  0  0  0  0  0  0  0
   56.0231   33.3401   45.7820 H   0  0  0  0  0  0  0  0  0  0  0  0
   57.1726   32.9234   47.9578 H   0  0  0  0  0  0  0  0  0  0  0  0
   60.4187   29.5359   46.2917 H   0  0  0  0  0  0  0  0  0  0  0  0
   59.1895   32.0626   45.5677 H   0  0  0  0  0  0  0  0  0  0  0  0
   56.0896   30.2843   42.2019 H   0  0  0  0  0  0  0  0  0  0  0  0
   56.4688   27.9534   43.2340 H   0  0  0  0  0  0  0  0  0  0  0  0
   58.9432   28.2807   44.3286 H   0  0  0  0  0  0  0  0  0  0  0  0
   56.6146   28.7612   46.1255 H   0  0  0  0  0  0  0  0  0  0  0  0
   59.8200   26.9102   46.1031 H   0  0  0  0  0  0  0  0  0  0  0  0
   59.9471   24.4207   46.2523 H   0  0  0  0  0  0  0  0  0  0  0  0
   57.7749   29.6147   47.8060 H   0  0  0  0  0  0  0  0  0  0  0  0
   59.0131   28.2714   47.6487 H   0  0  0  0  0  0  0  0  0  0  0  0
  1  2  2  0
  2  3  1  0
  3  4  1  0
  4  5  1  0
  5  6  2  0
  6  7  1  0
  7  8  2  0
  8  9  1  0
  9 10  2  0
  2 11  1  0
 11 12  1  0
 12 13  1  0
 13 14  2  0
 14 15  1  0
 15 16  1  0
 16 17  2  0
 17 18  1  0
 18 19  1  0
 19 20  1  0
 20 21  1  0
 21 22  2  0
 22 23  1  0
 23 24  2  0
 23 25  1  0
 25 26  1  0
 26 27  2  0
 19 28  1  0
 10  5  1  0
 28 12  1  0
 18 14  1  0
 26 20  1  0
  3 29  1  0
  3 30  1  0
  4 31  1  0
  4 32  1  0
  6 33  1  0
  7 34  1  0
  8 35  1  0
  9 36  1  0
 10 37  1  0
 12 38  1  6
 13 39  1  0
 16 40  1  0
 17 41  1  0
 18 42  1  6
 19 43  1  1
 21 44  1  0
 22 45  1  0
 28 46  1  0
 28 47  1  0
M  CHG  1  25  -1
M  END
>  <UniqueID>  (33) 
31

>  <SMILES>  (33) 
O=C(CCc1ccccc1)O[C@@H]1C=C2OC=C[C@@H]2C(n2ccc(=O)[n-]c2=O)C1

>  <Energy>  (33) 
73.65555808605738

>  <Genealogy>  (33) 
O=C(CCc1ccccc1)OC1C=C2OC=CC2C(n2ccc(=O)[n-]c2=O)C1 (protonated)
O=C(CCc1ccccc1)O[C@@H]1C=C2OC=C[C@@H]2C(n2ccc(=O)[n-]c2=O)C1 (chirality)
O=C(CCc1ccccc1)O[C@@H]1C=C2OC=C[C@@H]2C(n2ccc(=O)[n-]c2=O)C1 (3D coordinates assigned)
O=C(CCc1ccccc1)O[C@@H]1C=C2OC=C[C@@H]2C(n2ccc(=O)[n-]c2=O)C1 (nonaromatic ring conformer: 73.65555808605738 kcal/mol)

>  <smiles>  (33) 
O=C(CCc1ccccc1)OC1C=C2OC=CC2C(n2ccc(=O)[nH]c2=O)C1

>  <score_type>  (33) 
oracle

>  <origin>  (33) 
adg

>  <m_score__min__energy>  (33) 
-10.970000000000001

>  <m_primary>  (33) 
energy

$$$$
33:0
     RDKit          3D

 37 38  0  0  0  0  0  0  0  0999 V2000
   65.4670   32.7260   50.1060 C   0  0  0  0  0  0  0  0  0  0  0  0
   64.5850   31.8200   49.4520 O   0  0  0  0  0  0  0  0  0  0  0  0
   63.5890   32.2020   48.5390 C   0  0  0  0  0  0  0  0  0  0  0  0
   63.7590   33.4020   47.8400 C   0  0  0  0  0  0  0  0  0  0  0  0
   62.7900   33.8360   46.9330 C   0  0  0  0  0  0  0  0  0  0  0  0
   61.6460   33.0670   46.7090 C   0  0  0  0  0  0  0  0  0  0  0  0
   61.4680   31.8470   47.3780 C   0  0  0  0  0  0  0  0  0  0  0  0
   60.2710   31.0860   47.1460 N   0  0  0  0  0  0  0  0  0  0  0  0
   60.2130   29.9250   46.2950 C   0  0  0  0  0  0  0  0  0  0  0  0
   61.2260   29.5850   45.6260 O   0  0  0  0  0  0  0  0  0  0  0  0
   58.9750   29.1160   46.1810 C   0  0  0  0  0  0  0  0  0  0  0  0
   57.9190   29.5030   45.3370 C   0  0  0  0  0  0  0  0  0  0  0  0
   56.7630   28.7210   45.2410 C   0  0  0  0  0  0  0  0  0  0  0  0
   56.6450   27.5330   45.9820 C   0  0  0  0  0  0  0  0  0  0  0  0
   55.4790   26.7000   45.9150 N   0  0  0  0  0  0  0  0  0  0  0  0
   55.4630   24.9680   45.9900 S   0  0  0  0  0  0  0  0  0  0  0  0
   56.4630   24.2890   44.6830 C   0  0  0  0  0  0  0  0  0  0  0  0
   56.0390   24.5370   47.3090 O   0  0  0  0  0  0  0  0  0  0  0  0
   54.0520   24.4610   45.8890 O   0  0  0  0  0  0  0  0  0  0  0  0
   57.6990   27.1400   46.8120 C   0  0  0  0  0  0  0  0  0  0  0  0
   58.8570   27.9190   46.9090 C   0  0  0  0  0  0  0  0  0  0  0  0
   62.4340   31.4280   48.3110 C   0  0  0  0  0  0  0  0  0  0  0  0
   65.3618   32.6180   51.1956 H   0  0  0  0  0  0  0  0  0  0  0  0
   66.5039   32.5036   49.8139 H   0  0  0  0  0  0  0  0  0  0  0  0
   65.2168   33.7566   49.8139 H   0  0  0  0  0  0  0  0  0  0  0  0
   64.6621   34.0077   48.0060 H   0  0  0  0  0  0  0  0  0  0  0  0
   62.9280   34.7850   46.3942 H   0  0  0  0  0  0  0  0  0  0  0  0
   60.8796   33.4203   46.0034 H   0  0  0  0  0  0  0  0  0  0  0  0
   59.3940   31.4400   47.5890 H   0  0  0  0  0  0  0  0  0  0  0  0
   58.0025   30.4280   44.7476 H   0  0  0  0  0  0  0  0  0  0  0  0
   55.9416   29.0380   44.5816 H   0  0  0  0  0  0  0  0  0  0  0  0
   57.2989   23.7214   45.1180 H   0  0  0  0  0  0  0  0  0  0  0  0
   55.8495   23.6200   44.0617 H   0  0  0  0  0  0  0  0  0  0  0  0
   56.8585   25.1061   44.0617 H   0  0  0  0  0  0  0  0  0  0  0  0
   57.6171   26.2101   47.3939 H   0  0  0  0  0  0  0  0  0  0  0  0
   59.6815   27.5925   47.5598 H   0  0  0  0  0  0  0  0  0  0  0  0
   62.2866   30.4899   48.8662 H   0  0  0  0  0  0  0  0  0  0  0  0
  1  2  1  0
  2  3  1  0
  3  4  2  0
  4  5  1  0
  5  6  2  0
  6  7  1  0
  7  8  1  0
  8  9  1  0
  9 10  2  0
  9 11  1  0
 11 12  2  0
 12 13  1  0
 13 14  2  0
 14 15  1  0
 15 16  1  0
 16 17  1  0
 16 18  2  0
 16 19  2  0
 14 20  1  0
 20 21  2  0
  7 22  2  0
 22  3  1  0
 21 11  1  0
  1 23  1  0
  1 24  1  0
  1 25  1  0
  4 26  1  0
  5 27  1  0
  6 28  1  0
  8 29  1  0
 12 30  1  0
 13 31  1  0
 17 32  1  0
 17 33  1  0
 17 34  1  0
 20 35  1  0
 21 36  1  0
 22 37  1  0
M  CHG  1  15  -1
M  END
>  <UniqueID>  (34) 
32

>  <SMILES>  (34) 
COc1cccc(NC(=O)c2ccc([N-]S(C)(=O)=O)cc2)c1

>  <Energy>  (34) 
42.66490930599464

>  <Genealogy>  (34) 
COc1cccc(NC(=O)c2ccc([N-]S(C)(=O)=O)cc2)c1 (protonated)
COc1cccc(NC(=O)c2ccc([N-]S(C)(=O)=O)cc2)c1 (3D coordinates assigned)
COc1cccc(NC(=O)c2ccc([N-]S(C)(=O)=O)cc2)c1 (optimized conformer: 42.66490930599464 kcal/mol)

>  <smiles>  (34) 
COc1cccc(NC(=O)c2ccc(NS(C)(=O)=O)cc2)c1

>  <score_type>  (34) 
oracle

>  <origin>  (34) 
adg

>  <m_score__min__energy>  (34) 
-8.5800000000000001

>  <m_primary>  (34) 
energy

$$$$
34:0
     RDKit          3D

 79 84  0  0  0  0  0  0  0  0999 V2000
   57.7000   31.2140   50.9850 O   0  0  0  0  0  0  0  0  0  0  0  0
   58.5110   30.3890   50.4880 C   0  0  0  0  0  0  0  0  0  0  0  0
   58.2060   29.7530   49.2410 N   0  0  0  0  0  0  0  0  0  0  0  0
   59.0020   28.6830   48.7120 C   0  0  0  0  0  0  0  0  0  0  0  0
   58.4250   27.7900   47.8010 C   0  0  0  0  0  0  0  0  0  0  0  0
   59.1200   26.6390   47.3940 C   0  0  0  0  0  0  0  0  0  0  0  0
   58.5410   25.7260   46.3860 C   0  0  0  0  0  0  0  0  0  0  0  0
   58.9540   24.5390   46.3220 O   0  0  0  0  0  0  0  0  0  0  0  0
   57.5410   26.1540   45.4530 N   0  0  0  0  0  0  0  0  0  0  0  0
   57.8010   26.5950   44.0840 C   0  0  0  0  0  0  0  0  0  0  0  0
   57.6840   28.1200   43.9660 C   0  0  0  0  0  0  0  0  0  0  0  0
   58.7900   28.8190   44.7180 C   0  0  0  0  0  0  0  0  0  0  0  0
   60.0930   28.3060   44.6970 C   0  0  0  0  0  0  0  0  0  0  0  0
   61.1090   28.9460   45.4090 C   0  0  0  0  0  0  0  0  0  0  0  0
   60.8300   30.0820   46.1730 C   0  0  0  0  0  0  0  0  0  0  0  0
   61.8740   30.7180   46.8350 O   0  0  0  0  0  0  0  0  0  0  0  0
   59.5130   30.5750   46.2580 C   0  0  0  0  0  0  0  0  0  0  0  0
   59.1750   31.7750   47.1290 C   0  0  0  0  0  0  0  0  0  0  0  0
   58.9770   33.0430   46.3800 N   0  0  0  0  0  0  0  0  0  0  0  0
   57.5880   33.2790   45.9280 C   0  0  0  0  0  0  0  0  0  0  0  0
   57.3730   32.5780   44.6170 C   0  0  0  0  0  0  0  0  0  0  0  0
   56.4420   31.5310   44.5110 C   0  0  0  0  0  0  0  0  0  0  0  0
   56.2720   30.8630   43.2930 C   0  0  0  0  0  0  0  0  0  0  0  0
   57.0340   31.2310   42.1800 C   0  0  0  0  0  0  0  0  0  0  0  0
   57.9710   32.2620   42.2850 C   0  0  0  0  0  0  0  0  0  0  0  0
   58.1450   32.9310   43.5000 C   0  0  0  0  0  0  0  0  0  0  0  0
   59.6170   34.2360   46.9740 C   0  0  0  0  0  0  0  0  0  0  0  0
   61.0440   33.9540   47.3720 C   0  0  0  0  0  0  0  0  0  0  0  0
   61.3720   33.6900   48.7150 C   0  0  0  0  0  0  0  0  0  0  0  0
   62.6850   33.3640   49.0700 C   0  0  0  0  0  0  0  0  0  0  0  0
   63.6740   33.2730   48.0860 C   0  0  0  0  0  0  0  0  0  0  0  0
   63.3500   33.5040   46.7460 C   0  0  0  0  0  0  0  0  0  0  0  0
   62.0380   33.8300   46.3880 C   0  0  0  0  0  0  0  0  0  0  0  0
   58.5110   29.9640   45.4800 C   0  0  0  0  0  0  0  0  0  0  0  0
   60.4080   26.3990   47.8970 C   0  0  0  0  0  0  0  0  0  0  0  0
   60.9970   27.3000   48.7900 C   0  0  0  0  0  0  0  0  0  0  0  0
   60.3110   28.4540   49.1790 C   0  0  0  0  0  0  0  0  0  0  0  0
   61.1700   29.7080   50.1400 S   0  0  0  0  0  0  0  0  0  0  0  0
   59.7540   30.0380   51.1900 C   0  0  0  0  0  0  0  0  0  0  0  0
   59.7720   29.8880   52.5260 C   0  0  0  0  0  0  0  0  0  0  0  0
   58.6780   30.3110   53.4270 C   0  0  0  0  0  0  0  0  0  0  0  0
   58.8970   31.2760   54.4290 C   0  0  0  0  0  0  0  0  0  0  0  0
   57.8450   31.6960   55.2470 C   0  0  0  0  0  0  0  0  0  0  0  0
   56.5640   31.1770   55.0610 C   0  0  0  0  0  0  0  0  0  0  0  0
   56.3300   30.2390   54.0520 C   0  0  0  0  0  0  0  0  0  0  0  0
   57.3790   29.8080   53.2290 C   0  0  0  0  0  0  0  0  0  0  0  0
   57.1370   28.8750   52.2210 O   0  0  0  0  0  0  0  0  0  0  0  0
   57.4202   27.9911   47.4011 H   0  0  0  0  0  0  0  0  0  0  0  0
   58.8170   26.2887   43.7943 H   0  0  0  0  0  0  0  0  0  0  0  0
   57.0553   26.1339   43.4197 H   0  0  0  0  0  0  0  0  0  0  0  0
   57.7401   28.4018   42.9042 H   0  0  0  0  0  0  0  0  0  0  0  0
   56.7221   28.4273   44.4022 H   0  0  0  0  0  0  0  0  0  0  0  0
   60.3162   27.3974   44.1186 H   0  0  0  0  0  0  0  0  0  0  0  0
   62.1358   28.5534   45.3683 H   0  0  0  0  0  0  0  0  0  0  0  0
   58.2480   31.5514   47.6774 H   0  0  0  0  0  0  0  0  0  0  0  0
   60.0386   31.9342   47.7915 H   0  0  0  0  0  0  0  0  0  0  0  0
   56.8849   32.8847   46.6764 H   0  0  0  0  0  0  0  0  0  0  0  0
   57.4165   34.3585   45.8040 H   0  0  0  0  0  0  0  0  0  0  0  0
   55.8457   31.2358   45.3869 H   0  0  0  0  0  0  0  0  0  0  0  0
   55.5382   30.0476   43.2112 H   0  0  0  0  0  0  0  0  0  0  0  0
   56.8958   30.7088   41.2218 H   0  0  0  0  0  0  0  0  0  0  0  0
   58.5730   32.5479   41.4099 H   0  0  0  0  0  0  0  0  0  0  0  0
   58.8895   33.7367   43.5805 H   0  0  0  0  0  0  0  0  0  0  0  0
   59.6057   35.0526   46.2370 H   0  0  0  0  0  0  0  0  0  0  0  0
   59.0549   34.5172   47.8767 H   0  0  0  0  0  0  0  0  0  0  0  0
   60.5921   33.7403   49.4891 H   0  0  0  0  0  0  0  0  0  0  0  0
   62.9396   33.1791   50.1240 H   0  0  0  0  0  0  0  0  0  0  0  0
   64.7071   33.0196   48.3663 H   0  0  0  0  0  0  0  0  0  0  0  0
   64.1281   33.4293   45.9720 H   0  0  0  0  0  0  0  0  0  0  0  0
   61.7834   33.9901   45.3299 H   0  0  0  0  0  0  0  0  0  0  0  0
   57.4967   30.3895   45.4693 H   0  0  0  0  0  0  0  0  0  0  0  0
   60.9572   25.4976   47.5873 H   0  0  0  0  0  0  0  0  0  0  0  0
   62.0030   27.0999   49.1873 H   0  0  0  0  0  0  0  0  0  0  0  0
   60.6586   29.4199   52.9787 H   0  0  0  0  0  0  0  0  0  0  0  0
   59.9018   31.7014   54.5684 H   0  0  0  0  0  0  0  0  0  0  0  0
   58.0275   32.4372   56.0390 H   0  0  0  0  0  0  0  0  0  0  0  0
   55.7379   31.5060   55.7085 H   0  0  0  0  0  0  0  0  0  0  0  0
   55.3170   29.8369   53.9030 H   0  0  0  0  0  0  0  0  0  0  0  0
   57.0510   29.1530   51.2510 H   0  0  0  0  0  0  0  0  0  0  0  0
  1  2  2  0
  2  3  1  0
  3  4  1  0
  4  5  2  0
  5  6  1  0
  6  7  1  0
  7  8  2  0
  7  9  1  0
  9 10  1  0
 10 11  1  0
 11 12  1  0
 12 13  2  0
 13 14  1  0
 14 15  2  0
 15 16  1  0
 15 17  1  0
 17 18  1  0
 18 19  1  0
 19 20  1  0
 20 21  1  0
 21 22  2  0
 22 23  1  0
 23 24  2  0
 24 25  1  0
 25 26  2  0
 19 27  1  0
 27 28  1  0
 28 29  2  0
 29 30  1  0
 30 31  2  0
 31 32  1  0
 32 33  2  0
 17 34  2  0
  6 35  2  0
 35 36  1  0
 36 37  2  0
 37 38  1  0
 38 39  1  0
 39 40  2  3
 40 41  1  0
 41 42  2  0
 42 43  1  0
 43 44  2  0
 44 45  1  0
 45 46  2  0
 46 47  1  0
 39  2  1  0
 46 41  1  0
 37  4  1  0
 34 12  1  0
 26 21  1  0
 33 28  1  0
  5 48  1  0
 10 49  1  0
 10 50  1  0
 11 51  1  0
 11 52  1  0
 13 53  1  0
 14 54  1  0
 18 55  1  0
 18 56  1  0
 20 57  1  0
 20 58  1  0
 22 59  1  0
 23 60  1  0
 24 61  1  0
 25 62  1  0
 26 63  1  0
 27 64  1  0
 27 65  1  0
 29 66  1  0
 30 67  1  0
 31 68  1  0
 32 69  1  0
 33 70  1  0
 34 71  1  0
 35 72  1  0
 36 73  1  0
 40 74  1  0
 42 75  1  0
 43 76  1  0
 44 77  1  0
 45 78  1  0
 47 79  1  0
M  CHG  3   3  -1   9  -1  16  -1
M  END
>  <UniqueID>  (35) 
33

>  <SMILES>  (35) 
O=C1[N-]c2cc(C(=O)[N-]CCc3ccc([O-])c(CN(Cc4ccccc4)Cc4ccccc4)c3)ccc2SC1=Cc1ccccc1O

>  <Energy>  (35) 
115.21082494147394

>  <Genealogy>  (35) 
O=C1[N-]c2cc(C(=O)[N-]CCc3ccc([O-])c(CN(Cc4ccccc4)Cc4ccccc4)c3)ccc2SC1=Cc1ccccc1O (protonated)
O=C1[N-]c2cc(C(=O)[N-]CCc3ccc([O-])c(CN(Cc4ccccc4)Cc4ccccc4)c3)ccc2SC1=Cc1ccccc1O (3D coordinates assigned)
O=C1[N-]c2cc(C(=O)[N-]CCc3ccc([O-])c(CN(Cc4ccccc4)Cc4ccccc4)c3)ccc2SC1=Cc1ccccc1O (nonaromatic ring conformer: 115.21082494147394 kcal/mol)

>  <smiles>  (35) 
O=C1Nc2cc(C(=O)NCCc3ccc(O)c(CN(Cc4ccccc4)Cc4ccccc4)c3)ccc2SC1=Cc1ccccc1O

>  <score_type>  (35) 
oracle

>  <origin>  (35) 
adg

>  <m_score__min__energy>  (35) 
-14.779999999999999

>  <m_primary>  (35) 
energy

$$$$
35:0
     RDKit          3D

 50 53  0  0  0  0  0  0  0  0999 V2000
   57.5169   35.1075   44.1531 H   0  0  0  0  0  0  0  0  0  0  0  0
   57.9400   34.3690   44.8500 C   0  0  0  0  0  0  0  0  0  0  0  0
   59.0060   34.7010   45.6180 N   0  0  0  0  0  0  0  0  0  0  0  0
   59.5590   33.8230   46.4960 C   0  0  0  0  0  0  0  0  0  0  0  0
   60.6550   34.2180   47.2710 C   0  0  0  0  0  0  0  0  0  0  0  0
   61.0634   35.2337   47.1631 H   0  0  0  0  0  0  0  0  0  0  0  0
   61.2380   33.3230   48.1880 C   0  0  0  0  0  0  0  0  0  0  0  0
   62.3360   33.6750   48.9880 O   0  0  0  0  0  0  0  0  0  0  0  0
   63.6960   33.4220   48.6460 C   0  0  0  0  0  0  0  0  0  0  0  0
   64.0676   32.5672   49.2301 H   0  0  0  0  0  0  0  0  0  0  0  0
   64.3015   34.3123   48.8713 H   0  0  0  0  0  0  0  0  0  0  0  0
   63.7970   33.1040   47.1630 C   0  0  0  0  0  0  0  0  0  0  0  0
   64.1276   32.0630   47.0329 H   0  0  0  0  0  0  0  0  0  0  0  0
   62.8122   33.2376   46.6915 H   0  0  0  0  0  0  0  0  0  0  0  0
   64.5242   33.7813   46.6915 H   0  0  0  0  0  0  0  0  0  0  0  0
   60.7110   32.0350   48.3160 C   0  0  0  0  0  0  0  0  0  0  0  0
   61.1617   31.3319   49.0319 H   0  0  0  0  0  0  0  0  0  0  0  0
   59.6180   31.6300   47.5450 C   0  0  0  0  0  0  0  0  0  0  0  0
   59.2174   30.6117   47.6574 H   0  0  0  0  0  0  0  0  0  0  0  0
   59.0260   32.5170   46.6250 C   0  0  0  0  0  0  0  0  0  0  0  0
   57.9240   32.1420   45.8200 C   0  0  0  0  0  0  0  0  0  0  0  0
   57.4200   30.9410   45.9400 N   0  0  0  0  0  0  0  0  0  0  0  0
   58.0210   29.6920   45.5660 C   0  0  0  0  0  0  0  0  0  0  0  0
   59.2350   29.6500   44.8640 C   0  0  0  0  0  0  0  0  0  0  0  0
   59.7271   30.5869   44.5637 H   0  0  0  0  0  0  0  0  0  0  0  0
   59.8210   28.4230   44.5450 C   0  0  0  0  0  0  0  0  0  0  0  0
   60.7594   28.3948   43.9717 H   0  0  0  0  0  0  0  0  0  0  0  0
   59.2170   27.2320   44.9530 C   0  0  0  0  0  0  0  0  0  0  0  0
   59.6707   26.2678   44.6800 H   0  0  0  0  0  0  0  0  0  0  0  0
   58.0350   27.2570   45.7090 C   0  0  0  0  0  0  0  0  0  0  0  0
   57.4320   26.0160   46.1140 N   0  0  0  0  0  0  0  0  0  0  0  0
   58.0530   25.2670   46.4960 H   0  0  0  0  0  0  0  0  0  0  0  0
   56.0180   25.7780   46.1470 C   0  0  0  0  0  0  0  0  0  0  0  0
   55.2060   26.7260   45.9800 O   0  0  0  0  0  0  0  0  0  0  0  0
   55.5420   24.4430   46.3630 N   0  0  0  0  0  0  0  0  0  0  0  0
   55.8930   23.2760   45.6030 C   0  0  0  0  0  0  0  0  0  0  0  0
   55.9430   21.9940   46.1830 C   0  0  0  0  0  0  0  0  0  0  0  0
   55.6928   21.8627   47.2461 H   0  0  0  0  0  0  0  0  0  0  0  0
   56.3100   20.8870   45.4110 C   0  0  0  0  0  0  0  0  0  0  0  0
   56.3358   19.8852   45.8646 H   0  0  0  0  0  0  0  0  0  0  0  0
   56.6440   21.0520   44.0640 C   0  0  0  0  0  0  0  0  0  0  0  0
   56.9266   20.1795   43.4567 H   0  0  0  0  0  0  0  0  0  0  0  0
   56.6190   22.3240   43.4890 C   0  0  0  0  0  0  0  0  0  0  0  0
   56.8874   22.4539   42.4302 H   0  0  0  0  0  0  0  0  0  0  0  0
   56.2530   23.4330   44.2580 C   0  0  0  0  0  0  0  0  0  0  0  0
   56.2477   24.4350   43.8042 H   0  0  0  0  0  0  0  0  0  0  0  0
   57.4380   28.4960   46.0060 C   0  0  0  0  0  0  0  0  0  0  0  0
   56.5055   28.5261   46.5887 H   0  0  0  0  0  0  0  0  0  0  0  0
   57.3760   33.0960   44.9380 C   0  0  0  0  0  0  0  0  0  0  0  0
   56.5041   32.8366   44.3195 H   0  0  0  0  0  0  0  0  0  0  0  0
  1  2  1  0
  2  3  1  0
  3  4  1  0
  4  5  2  0
  5  6  1  0
  5  7  1  0
  7  8  1  0
  8  9  1  0
  9 10  1  0
  9 11  1  0
  9 12  1  0
 12 13  1  0
 12 14  1  0
 12 15  1  0
  7 16  2  0
 16 17  1  0
 16 18  1  0
 18 19  1  0
 18 20  2  0
 20 21  1  0
 21 22  2  0
 22 23  1  0
 23 24  2  0
 24 25  1  0
 24 26  1  0
 26 27  1  0
 26 28  2  0
 28 29  1  0
 28 30  1  0
 30 31  1  0
 31 32  1  0
 31 33  1  0
 33 34  2  0
 33 35  1  0
 35 36  1  0
 36 37  2  0
 37 38  1  0
 37 39  1  0
 39 40  1  0
 39 41  2  0
 41 42  1  0
 41 43  1  0
 43 44  1  0
 43 45  2  0
 45 46  1  0
 30 47  2  0
 47 48  1  0
 21 49  1  0
 49 50  1  0
 49  2  2  0
 20  4  1  0
 47 23  1  0
 45 36  1  0
M  CHG  2   3  -1  35  -1
M  END
>  <UniqueID>  (36) 
34

>  <SMILES>  (36) 
CCOc1ccc2/c(=N/c3cccc(NC(=O)[N-]c4ccccc4)c3)cc[n-]c2c1

>  <Energy>  (36) 
72.60577182599847

>  <Genealogy>  (36) 
CCOc1ccc2c(=Nc3cccc(NC(=O)[N-]c4ccccc4)c3)cc[n-]c2c1 (protonated)
CCOc1ccc2/c(=N/c3cccc(NC(=O)[N-]c4ccccc4)c3)cc[n-]c2c1 (cis-trans isomerization)
CCOc1ccc2/c(=N/c3cccc(NC(=O)[N-]c4ccccc4)c3)cc[n-]c2c1 (3D coordinates assigned)
CCOc1ccc2/c(=N/c3cccc(NC(=O)[N-]c4ccccc4)c3)cc[n-]c2c1 (optimized conformer: 72.60577182599847 kcal/mol)

>  <smiles>  (36) 
CCOc1ccc2c(=Nc3cccc(NC(=O)Nc4ccccc4)c3)cc[nH]c2c1

>  <score_type>  (36) 
oracle

>  <origin>  (36) 
adg

>  <m_score__min__energy>  (36) 
-11.279999999999999

>  <m_primary>  (36) 
energy

$$$$
36:0
     RDKit          3D

 44 45  0  0  0  0  0  0  0  0999 V2000
   59.1670   22.1770   44.7110 C   0  0  0  0  0  0  0  0  0  0  0  0
   58.2110   21.4980   43.7340 C   0  0  0  0  0  0  0  0  0  0  0  0
   56.7980   21.9890   43.9130 C   0  0  0  0  0  0  0  0  0  0  0  0
   55.9340   21.6870   43.0490 O   0  0  0  0  0  0  0  0  0  0  0  0
   56.4340   22.8950   44.9640 N   0  0  0  0  0  0  0  0  0  0  0  0
   56.7040   24.3030   45.0160 C   0  0  0  0  0  0  0  0  0  0  0  0
   56.2530   25.0400   46.1160 C   0  0  0  0  0  0  0  0  0  0  0  0
   56.5220   26.4080   46.2080 C   0  0  0  0  0  0  0  0  0  0  0  0
   57.2680   27.0540   45.2140 C   0  0  0  0  0  0  0  0  0  0  0  0
   57.5100   28.4620   45.3430 N   0  0  0  0  0  0  0  0  0  0  0  0
   56.7100   29.7030   44.4310 S   0  0  0  0  0  0  0  0  0  0  0  0
   56.7480   29.3260   42.9780 O   0  0  0  0  0  0  0  0  0  0  0  0
   55.2780   29.7800   44.8840 O   0  0  0  0  0  0  0  0  0  0  0  0
   57.5100   31.2700   44.6410 C   0  0  0  0  0  0  0  0  0  0  0  0
   57.7600   31.7290   45.9430 C   0  0  0  0  0  0  0  0  0  0  0  0
   58.3340   32.9790   46.1640 C   0  0  0  0  0  0  0  0  0  0  0  0
   58.6800   33.8000   45.0800 C   0  0  0  0  0  0  0  0  0  0  0  0
   59.2520   35.0690   45.2500 O   0  0  0  0  0  0  0  0  0  0  0  0
   59.7020   35.5880   46.4970 C   0  0  0  0  0  0  0  0  0  0  0  0
   58.4560   33.3410   43.7780 C   0  0  0  0  0  0  0  0  0  0  0  0
   57.8840   32.0760   43.5340 C   0  0  0  0  0  0  0  0  0  0  0  0
   57.7080   31.6070   42.1800 N   0  0  0  0  0  0  0  0  0  0  0  0
   57.4610   32.4950   41.0470 C   0  0  0  0  0  0  0  0  0  0  0  0
   57.7470   26.3070   44.1220 C   0  0  0  0  0  0  0  0  0  0  0  0
   57.4740   24.9400   44.0300 C   0  0  0  0  0  0  0  0  0  0  0  0
   58.8554   21.9557   45.7425 H   0  0  0  0  0  0  0  0  0  0  0  0
   60.1874   21.8001   44.5473 H   0  0  0  0  0  0  0  0  0  0  0  0
   59.1472   23.2646   44.5473 H   0  0  0  0  0  0  0  0  0  0  0  0
   58.5371   21.7145   42.7060 H   0  0  0  0  0  0  0  0  0  0  0  0
   58.2278   20.4158   43.9304 H   0  0  0  0  0  0  0  0  0  0  0  0
   55.6834   24.5398   46.9131 H   0  0  0  0  0  0  0  0  0  0  0  0
   56.1451   26.9819   47.0674 H   0  0  0  0  0  0  0  0  0  0  0  0
   57.4991   31.0928   46.8016 H   0  0  0  0  0  0  0  0  0  0  0  0
   58.5167   33.3238   47.1925 H   0  0  0  0  0  0  0  0  0  0  0  0
   59.2228   35.0353   47.3186 H   0  0  0  0  0  0  0  0  0  0  0  0
   60.7940   35.4765   46.5680 H   0  0  0  0  0  0  0  0  0  0  0  0
   59.4368   36.6532   46.5680 H   0  0  0  0  0  0  0  0  0  0  0  0
   58.7320   33.9805   42.9266 H   0  0  0  0  0  0  0  0  0  0  0  0
   57.7510   30.5870   41.9680 H   0  0  0  0  0  0  0  0  0  0  0  0
   57.1834   33.4930   41.4170 H   0  0  0  0  0  0  0  0  0  0  0  0
   58.3721   32.5711   40.4353 H   0  0  0  0  0  0  0  0  0  0  0  0
   56.6415   32.0897   40.4353 H   0  0  0  0  0  0  0  0  0  0  0  0
   58.3388   26.8014   43.3376 H   0  0  0  0  0  0  0  0  0  0  0  0
   57.8643   24.3599   43.1808 H   0  0  0  0  0  0  0  0  0  0  0  0
  1  2  1  0
  2  3  1  0
  3  4  2  0
  3  5  1  0
  5  6  1  0
  6  7  2  0
  7  8  1  0
  8  9  2  0
  9 10  1  0
 10 11  1  0
 11 12  2  0
 11 13  2  0
 11 14  1  0
 14 15  2  0
 15 16  1  0
 16 17  2  0
 17 18  1  0
 18 19  1  0
 17 20  1  0
 20 21  2  0
 21 22  1  0
 22 23  1  0
  9 24  1  0
 24 25  2  0
 25  6  1  0
 21 14  1  0
  1 26  1  0
  1 27  1  0
  1 28  1  0
  2 29  1  0
  2 30  1  0
  7 31  1  0
  8 32  1  0
 15 33  1  0
 16 34  1  0
 19 35  1  0
 19 36  1  0
 19 37  1  0
 20 38  1  0
 22 39  1  0
 23 40  1  0
 23 41  1  0
 23 42  1  0
 24 43  1  0
 25 44  1  0
M  CHG  2   5  -1  10  -1
M  END
>  <UniqueID>  (37) 
35

>  <SMILES>  (37) 
CCC(=O)[N-]c1ccc([N-]S(=O)(=O)c2ccc(OC)cc2NC)cc1

>  <Energy>  (37) 
50.133458545255635

>  <Genealogy>  (37) 
CCC(=O)[N-]c1ccc([N-]S(=O)(=O)c2ccc(OC)cc2NC)cc1 (protonated)
CCC(=O)[N-]c1ccc([N-]S(=O)(=O)c2ccc(OC)cc2NC)cc1 (3D coordinates assigned)
CCC(=O)[N-]c1ccc([N-]S(=O)(=O)c2ccc(OC)cc2NC)cc1 (optimized conformer: 50.133458545255635 kcal/mol)

>  <smiles>  (37) 
CCC(=O)Nc1ccc(NS(=O)(=O)c2ccc(OC)cc2NC)cc1

>  <score_type>  (37) 
oracle

>  <origin>  (37) 
adg

>  <m_score__min__energy>  (37) 
-10.529999999999999

>  <m_primary>  (37) 
energy

$$$$
37:0
     RDKit          3D

 54 56  0  0  0  0  0  0  0  0999 V2000
   57.3830   21.1640   42.9570 C   0  0  0  0  0  0  0  0  0  0  0  0
   56.8220   20.9920   44.3310 C   0  0  0  0  0  0  0  0  0  0  0  0
   55.5740   20.8910   44.4840 O   0  0  0  0  0  0  0  0  0  0  0  0
   57.7060   20.8900   45.4570 N   0  0  0  0  0  0  0  0  0  0  0  0
   57.2410   20.5450   46.8050 C   0  0  2  0  0  0  0  0  0  0  0  0
   56.9000   19.0550   46.8610 C   0  0  0  0  0  0  0  0  0  0  0  0
   56.0120   21.3950   47.1770 C   0  0  0  0  0  0  0  0  0  0  0  0
   56.2230   22.8460   46.8280 C   0  0  0  0  0  0  0  0  0  0  0  0
   55.3150   23.5150   45.9910 C   0  0  0  0  0  0  0  0  0  0  0  0
   55.5400   24.8460   45.6260 C   0  0  0  0  0  0  0  0  0  0  0  0
   56.6760   25.5190   46.0900 C   0  0  0  0  0  0  0  0  0  0  0  0
   56.9090   26.8870   45.7120 C   0  0  0  0  0  0  0  0  0  0  0  0
   57.1050   28.0340   45.3970 C   0  0  0  0  0  0  0  0  0  0  0  0
   57.3370   29.4040   45.0210 C   0  0  0  0  0  0  0  0  0  0  0  0
   57.9910   30.2720   45.9010 C   0  0  0  0  0  0  0  0  0  0  0  0
   58.2140   31.6030   45.5370 C   0  0  0  0  0  0  0  0  0  0  0  0
   57.7810   32.0840   44.2950 C   0  0  0  0  0  0  0  0  0  0  0  0
   58.0220   33.4320   43.9870 O   0  0  0  0  0  0  0  0  0  0  0  0
   57.9160   34.5260   44.9000 C   0  0  0  0  0  0  0  0  0  0  0  0
   59.2910   35.1300   45.2100 C   0  0  0  0  0  0  0  0  0  0  0  0
   59.8940   34.5030   46.4340 C   0  0  0  0  0  0  0  0  0  0  0  0
   61.1330   33.8430   46.4280 C   0  0  0  0  0  0  0  0  0  0  0  0
   61.5210   33.3830   47.6780 C   0  0  0  0  0  0  0  0  0  0  0  0
   60.3310   33.8090   48.7840 S   0  0  0  0  0  0  0  0  0  0  0  0
   59.3090   34.5770   47.6940 C   0  0  0  0  0  0  0  0  0  0  0  0
   57.1290   31.2030   43.4090 C   0  0  0  0  0  0  0  0  0  0  0  0
   56.9080   29.8710   43.7730 C   0  0  0  0  0  0  0  0  0  0  0  0
   57.5890   24.8550   46.9190 C   0  0  0  0  0  0  0  0  0  0  0  0
   57.3660   23.5230   47.2840 C   0  0  0  0  0  0  0  0  0  0  0  0
   58.4325   21.4858   43.0271 H   0  0  0  0  0  0  0  0  0  0  0  0
   57.3280   20.2077   42.4161 H   0  0  0  0  0  0  0  0  0  0  0  0
   56.8015   21.9251   42.4161 H   0  0  0  0  0  0  0  0  0  0  0  0
   58.7360   20.9220   45.2810 H   0  0  0  0  0  0  0  0  0  0  0  0
   58.0394   20.7570   47.5314 H   0  0  0  0  0  0  0  0  0  0  0  0
   56.8267   18.7348   47.9108 H   0  0  0  0  0  0  0  0  0  0  0  0
   55.9385   18.8797   46.3562 H   0  0  0  0  0  0  0  0  0  0  0  0
   57.6895   18.4789   46.3562 H   0  0  0  0  0  0  0  0  0  0  0  0
   55.1364   21.0182   46.6280 H   0  0  0  0  0  0  0  0  0  0  0  0
   55.8533   21.3189   48.2628 H   0  0  0  0  0  0  0  0  0  0  0  0
   54.4225   22.9894   45.6208 H   0  0  0  0  0  0  0  0  0  0  0  0
   54.8229   25.3650   44.9730 H   0  0  0  0  0  0  0  0  0  0  0  0
   58.3306   29.9067   46.8814 H   0  0  0  0  0  0  0  0  0  0  0  0
   58.7341   32.2785   46.2321 H   0  0  0  0  0  0  0  0  0  0  0  0
   57.2758   35.3024   44.4558 H   0  0  0  0  0  0  0  0  0  0  0  0
   57.4816   34.1528   45.8392 H   0  0  0  0  0  0  0  0  0  0  0  0
   59.9594   34.9601   44.3530 H   0  0  0  0  0  0  0  0  0  0  0  0
   59.1655   36.2070   45.3952 H   0  0  0  0  0  0  0  0  0  0  0  0
   61.7378   33.7040   45.5198 H   0  0  0  0  0  0  0  0  0  0  0  0
   62.4471   32.8346   47.9053 H   0  0  0  0  0  0  0  0  0  0  0  0
   58.3473   35.0540   47.9341 H   0  0  0  0  0  0  0  0  0  0  0  0
   56.7923   31.5649   42.4263 H   0  0  0  0  0  0  0  0  0  0  0  0
   56.3963   29.1893   43.0777 H   0  0  0  0  0  0  0  0  0  0  0  0
   58.4831   25.3818   47.2838 H   0  0  0  0  0  0  0  0  0  0  0  0
   58.0887   23.0038   47.9307 H   0  0  0  0  0  0  0  0  0  0  0  0
  1  2  1  0
  2  3  2  0
  2  4  1  0
  4  5  1  0
  5  6  1  0
  5  7  1  0
  7  8  1  0
  8  9  2  0
  9 10  1  0
 10 11  2  0
 11 12  1  0
 12 13  3  0
 13 14  1  0
 14 15  2  0
 15 16  1  0
 16 17  2  0
 17 18  1  0
 18 19  1  0
 19 20  1  0
 20 21  1  0
 21 22  1  0
 22 23  2  0
 23 24  1  0
 24 25  1  0
 17 26  1  0
 26 27  2  0
 11 28  1  0
 28 29  2  0
 29  8  1  0
 27 14  1  0
 25 21  2  0
  1 30  1  0
  1 31  1  0
  1 32  1  0
  4 33  1  0
  5 34  1  1
  6 35  1  0
  6 36  1  0
  6 37  1  0
  7 38  1  0
  7 39  1  0
  9 40  1  0
 10 41  1  0
 15 42  1  0
 16 43  1  0
 19 44  1  0
 19 45  1  0
 20 46  1  0
 20 47  1  0
 22 48  1  0
 23 49  1  0
 25 50  1  0
 26 51  1  0
 27 52  1  0
 28 53  1  0
 29 54  1  0
M  END
>  <UniqueID>  (38) 
36

>  <SMILES>  (38) 
CC(=O)N[C@H](C)Cc1ccc(C#Cc2ccc(OCCc3ccsc3)cc2)cc1

>  <Energy>  (38) 
65.89982186946295

>  <Genealogy>  (38) 
CC(=O)N[C@H](C)Cc1ccc(C#Cc2ccc(OCCc3ccsc3)cc2)cc1 (chirality)
CC(=O)N[C@H](C)Cc1ccc(C#Cc2ccc(OCCc3ccsc3)cc2)cc1 (3D coordinates assigned)
CC(=O)N[C@H](C)Cc1ccc(C#Cc2ccc(OCCc3ccsc3)cc2)cc1 (optimized conformer: 65.89982186946295 kcal/mol)

>  <smiles>  (38) 
CC(=O)NC(C)Cc1ccc(C#Cc2ccc(OCCc3ccsc3)cc2)cc1

>  <score_type>  (38) 
oracle

>  <origin>  (38) 
adg

>  <m_score__min__energy>  (38) 
-7.71

>  <m_primary>  (38) 
energy

$$$$
38:0
     RDKit          3D

 43 45  0  0  0  0  0  0  0  0999 V2000
   57.8270   32.4080   41.1840 C   0  0  0  0  0  0  0  0  0  0  0  0
   57.1160   32.0560   42.3640 O   0  0  0  0  0  0  0  0  0  0  0  0
   57.6500   32.2400   43.6430 C   0  0  0  0  0  0  0  0  0  0  0  0
   58.3910   33.3350   43.9690 N   0  0  0  0  0  0  0  0  0  0  0  0
   58.8100   33.2990   45.2540 C   0  0  0  0  0  0  0  0  0  0  0  0
   59.5910   34.3450   45.8640 N   0  0  0  0  0  0  0  0  0  0  0  0
   59.5290   35.7090   45.3300 C   0  0  0  0  0  0  0  0  0  0  0  0
   60.5360   34.0280   46.9050 C   0  0  0  0  0  0  0  0  0  0  0  0
   60.1960   34.2130   48.2550 C   0  0  0  0  0  0  0  0  0  0  0  0
   61.1140   33.9070   49.2630 C   0  0  0  0  0  0  0  0  0  0  0  0
   62.3780   33.4120   48.9330 C   0  0  0  0  0  0  0  0  0  0  0  0
   62.7310   33.2170   47.5900 C   0  0  0  0  0  0  0  0  0  0  0  0
   64.0230   32.7070   47.2520 N   0  0  0  0  0  0  0  0  0  0  0  0
   61.8070   33.5240   46.5800 C   0  0  0  0  0  0  0  0  0  0  0  0
   58.2660   31.9080   46.0370 S   0  0  0  0  0  0  0  0  0  0  0  0
   57.4570   31.3240   44.6770 C   0  0  0  0  0  0  0  0  0  0  0  0
   56.7240   30.0440   44.5890 C   0  0  0  0  0  0  0  0  0  0  0  0
   55.4770   30.0320   44.7630 O   0  0  0  0  0  0  0  0  0  0  0  0
   57.3820   28.8170   44.2470 N   0  0  0  0  0  0  0  0  0  0  0  0
   57.8110   27.8040   45.1670 C   0  0  0  0  0  0  0  0  0  0  0  0
   59.1840   27.5740   45.3190 C   0  0  0  0  0  0  0  0  0  0  0  0
   59.6460   26.5970   46.2080 C   0  0  0  0  0  0  0  0  0  0  0  0
   61.3690   26.3360   46.4070 Cl  0  0  0  0  0  0  0  0  0  0  0  0
   58.7340   25.8310   46.9380 C   0  0  0  0  0  0  0  0  0  0  0  0
   57.3610   26.0300   46.7710 C   0  0  0  0  0  0  0  0  0  0  0  0
   56.8910   27.0030   45.8770 C   0  0  0  0  0  0  0  0  0  0  0  0
   55.5190   27.1590   45.6820 O   0  0  0  0  0  0  0  0  0  0  0  0
   58.7816   32.8806   41.4584 H   0  0  0  0  0  0  0  0  0  0  0  0
   58.0232   31.5029   40.5904 H   0  0  0  0  0  0  0  0  0  0  0  0
   57.2262   33.1127   40.5904 H   0  0  0  0  0  0  0  0  0  0  0  0
   59.4963   36.4275   46.1623 H   0  0  0  0  0  0  0  0  0  0  0  0
   60.4193   35.9022   44.7135 H   0  0  0  0  0  0  0  0  0  0  0  0
   58.6249   35.8207   44.7135 H   0  0  0  0  0  0  0  0  0  0  0  0
   59.2015   34.6010   48.5203 H   0  0  0  0  0  0  0  0  0  0  0  0
   60.8410   34.0561   50.3181 H   0  0  0  0  0  0  0  0  0  0  0  0
   63.0987   33.1744   49.7293 H   0  0  0  0  0  0  0  0  0  0  0  0
   64.8140   33.3540   47.0350 H   0  0  0  0  0  0  0  0  0  0  0  0
   64.1990   31.6780   47.2200 H   0  0  0  0  0  0  0  0  0  0  0  0
   62.0794   33.3690   45.5256 H   0  0  0  0  0  0  0  0  0  0  0  0
   59.9046   28.1656   44.7353 H   0  0  0  0  0  0  0  0  0  0  0  0
   59.0970   25.0705   47.6450 H   0  0  0  0  0  0  0  0  0  0  0  0
   56.6458   25.4209   47.3432 H   0  0  0  0  0  0  0  0  0  0  0  0
   55.1460   27.8940   45.0930 H   0  0  0  0  0  0  0  0  0  0  0  0
  1  2  1  0
  2  3  1  0
  3  4  1  0
  4  5  2  0
  5  6  1  0
  6  7  1  0
  6  8  1  0
  8  9  2  0
  9 10  1  0
 10 11  2  0
 11 12  1  0
 12 13  1  0
 12 14  2  0
  5 15  1  0
 15 16  1  0
 16 17  1  0
 17 18  2  0
 17 19  1  0
 19 20  1  0
 20 21  2  0
 21 22  1  0
 22 23  1  0
 22 24  2  0
 24 25  1  0
 25 26  2  0
 26 27  1  0
 16  3  2  0
 26 20  1  0
 14  8  1  0
  1 28  1  0
  1 29  1  0
  1 30  1  0
  7 31  1  0
  7 32  1  0
  7 33  1  0
  9 34  1  0
 10 35  1  0
 11 36  1  0
 13 37  1  0
 13 38  1  0
 14 39  1  0
 21 40  1  0
 24 41  1  0
 25 42  1  0
 27 43  1  0
M  CHG  1  19  -1
M  END
>  <UniqueID>  (39) 
37

>  <SMILES>  (39) 
COc1nc(N(C)c2cccc(N)c2)sc1C(=O)[N-]c1cc(Cl)ccc1O

>  <Energy>  (39) 
83.42078684045865

>  <Genealogy>  (39) 
COc1nc(N(C)c2cccc(N)c2)sc1C(=O)[N-]c1cc(Cl)ccc1O (protonated)
COc1nc(N(C)c2cccc(N)c2)sc1C(=O)[N-]c1cc(Cl)ccc1O (3D coordinates assigned)
COc1nc(N(C)c2cccc(N)c2)sc1C(=O)[N-]c1cc(Cl)ccc1O (optimized conformer: 83.42078684045865 kcal/mol)

>  <smiles>  (39) 
COc1nc(N(C)c2cccc(N)c2)sc1C(=O)Nc1cc(Cl)ccc1O

>  <score_type>  (39) 
oracle

>  <origin>  (39) 
adg

>  <m_score__min__energy>  (39) 
-11.24

>  <m_primary>  (39) 
energy

$$$$
39:0
     RDKit          3D

 41 44  0  0  0  0  0  0  0  0999 V2000
   57.4680   33.2740   46.9940 O   0  0  0  0  0  0  0  0  0  0  0  0
   58.5360   33.7560   46.5120 C   0  0  0  0  0  0  0  0  0  0  0  0
   59.2470   34.8540   47.2120 C   0  0  0  0  0  0  0  0  0  0  0  0
   60.6410   34.3800   47.4410 C   0  0  0  0  0  0  0  0  0  0  0  0
   61.3330   34.1640   48.6080 C   0  0  0  0  0  0  0  0  0  0  0  0
   62.5680   33.7400   48.2400 N   0  0  0  0  0  0  0  0  0  0  0  0
   62.6400   33.6920   46.8780 C   0  0  0  0  0  0  0  0  0  0  0  0
   61.4520   34.0870   46.3850 N   0  0  0  0  0  0  0  0  0  0  0  0
   59.0480   33.2390   45.3030 N   0  0  0  0  0  0  0  0  0  0  0  0
   58.3970   32.1930   44.6010 C   0  0  0  0  0  0  0  0  0  0  0  0
   58.0380   32.4740   43.2830 C   0  0  0  0  0  0  0  0  0  0  0  0
   57.3860   31.4870   42.5670 C   0  0  0  0  0  0  0  0  0  0  0  0
   57.1060   30.2680   43.1520 C   0  0  0  0  0  0  0  0  0  0  0  0
   57.4560   29.9720   44.4640 C   0  0  0  0  0  0  0  0  0  0  0  0
   57.1190   28.7000   45.0920 C   0  0  0  0  0  0  0  0  0  0  0  0
   55.8610   28.2490   45.2400 N   0  0  0  0  0  0  0  0  0  0  0  0
   55.5350   27.1020   45.7910 N   0  0  0  0  0  0  0  0  0  0  0  0
   56.4850   26.2590   46.2680 C   0  0  0  0  0  0  0  0  0  0  0  0
   56.1630   25.1410   46.8070 O   0  0  0  0  0  0  0  0  0  0  0  0
   57.8030   26.6290   46.1610 C   0  0  0  0  0  0  0  0  0  0  0  0
   58.7650   25.7590   46.6360 C   0  0  0  0  0  0  0  0  0  0  0  0
   60.1190   26.0810   46.5380 C   0  0  0  0  0  0  0  0  0  0  0  0
   60.4360   27.2940   45.9490 C   0  0  0  0  0  0  0  0  0  0  0  0
   59.4560   28.1620   45.4760 C   0  0  0  0  0  0  0  0  0  0  0  0
   58.1180   27.8470   45.5740 C   0  0  0  0  0  0  0  0  0  0  0  0
   58.1100   30.9630   45.1800 C   0  0  0  0  0  0  0  0  0  0  0  0
   59.2518   35.7608   46.5893 H   0  0  0  0  0  0  0  0  0  0  0  0
   58.7522   35.1052   48.1618 H   0  0  0  0  0  0  0  0  0  0  0  0
   60.9609   34.3061   49.6334 H   0  0  0  0  0  0  0  0  0  0  0  0
   63.3660   33.4740   48.8940 H   0  0  0  0  0  0  0  0  0  0  0  0
   63.5154   33.3845   46.2871 H   0  0  0  0  0  0  0  0  0  0  0  0
   59.9200   33.6370   44.9310 H   0  0  0  0  0  0  0  0  0  0  0  0
   58.2661   33.4491   42.8278 H   0  0  0  0  0  0  0  0  0  0  0  0
   57.0885   31.6741   41.5247 H   0  0  0  0  0  0  0  0  0  0  0  0
   56.5864   29.5024   42.5572 H   0  0  0  0  0  0  0  0  0  0  0  0
   54.5450   26.7600   45.9030 H   0  0  0  0  0  0  0  0  0  0  0  0
   58.4616   24.8062   47.0945 H   0  0  0  0  0  0  0  0  0  0  0  0
   60.8997   25.4021   46.9117 H   0  0  0  0  0  0  0  0  0  0  0  0
   61.4938   27.5799   45.8522 H   0  0  0  0  0  0  0  0  0  0  0  0
   59.7547   29.1156   45.0162 H   0  0  0  0  0  0  0  0  0  0  0  0
   58.4061   30.7726   46.2221 H   0  0  0  0  0  0  0  0  0  0  0  0
  1  2  2  0
  2  3  1  0
  3  4  1  0
  4  5  2  0
  5  6  1  0
  6  7  1  0
  7  8  2  0
  2  9  1  0
  9 10  1  0
 10 11  2  0
 11 12  1  0
 12 13  2  0
 13 14  1  0
 14 15  1  0
 15 16  2  0
 16 17  1  0
 17 18  1  0
 18 19  2  0
 18 20  1  0
 20 21  2  0
 21 22  1  0
 22 23  2  0
 23 24  1  0
 24 25  2  0
 14 26  2  0
  8  4  1  0
 26 10  1  0
 25 15  1  0
 25 20  1  0
  3 27  1  0
  3 28  1  0
  5 29  1  0
  6 30  1  0
  7 31  1  0
  9 32  1  0
 11 33  1  0
 12 34  1  0
 13 35  1  0
 17 36  1  0
 21 37  1  0
 22 38  1  0
 23 39  1  0
 24 40  1  0
 26 41  1  0
M  END
>  <smiles>  (40) 
O=C(Cc1c[nH]cn1)Nc1cccc(-c2n[nH]c(=O)c3ccccc23)c1

>  <score_type>  (40) 
oracle

>  <origin>  (40) 
adg

>  <m_score__min__energy>  (40) 
-8.8499999999999996

>  <m_primary>  (40) 
energy

$$$$
40:0
     RDKit          3D

 51 53  0  0  0  0  0  0  0  0999 V2000
   62.5880   33.8220   46.3770 C   0  0  0  0  0  0  0  0  0  0  0  0
   62.0400   33.3900   48.0170 S   0  0  0  0  0  0  0  0  0  0  0  0
   62.8020   34.2370   48.9980 O   0  0  0  0  0  0  0  0  0  0  0  0
   62.3290   31.9390   48.2800 O   0  0  0  0  0  0  0  0  0  0  0  0
   60.3320   33.6870   48.1820 N   0  0  0  0  0  0  0  0  0  0  0  0
   59.8290   34.4290   49.3430 C   0  0  0  0  0  0  0  0  0  0  0  0
   59.2860   33.4750   50.3710 C   0  0  0  0  0  0  0  0  0  0  0  0
   59.0310   32.1380   50.0260 C   0  0  0  0  0  0  0  0  0  0  0  0
   58.4780   31.2600   50.9640 C   0  0  0  0  0  0  0  0  0  0  0  0
   58.1690   31.7130   52.2480 C   0  0  0  0  0  0  0  0  0  0  0  0
   58.4080   33.0460   52.5950 C   0  0  0  0  0  0  0  0  0  0  0  0
   58.9590   33.9280   51.6600 C   0  0  0  0  0  0  0  0  0  0  0  0
   59.4150   33.1320   47.2240 C   0  0  0  0  0  0  0  0  0  0  0  0
   58.2800   33.8540   46.8250 C   0  0  0  0  0  0  0  0  0  0  0  0
   57.3770   33.3030   45.9120 C   0  0  0  0  0  0  0  0  0  0  0  0
   57.6040   32.0240   45.3750 C   0  0  0  0  0  0  0  0  0  0  0  0
   56.6800   31.4200   44.4600 N   0  0  0  0  0  0  0  0  0  0  0  0
   56.5190   30.0100   44.2600 C   0  0  0  0  0  0  0  0  0  0  0  0
   56.4510   29.5620   43.0860 O   0  0  0  0  0  0  0  0  0  0  0  0
   56.3790   29.1230   45.3790 N   0  0  0  0  0  0  0  0  0  0  0  0
   56.6400   27.6910   45.2740 C   0  0  0  0  0  0  0  0  0  0  0  0
   57.9030   27.3510   46.0150 C   0  0  0  0  0  0  0  0  0  0  0  0
   58.3830   28.2100   47.0180 C   0  0  0  0  0  0  0  0  0  0  0  0
   59.5860   27.9260   47.6710 C   0  0  0  0  0  0  0  0  0  0  0  0
   60.3220   26.7910   47.3190 C   0  0  0  0  0  0  0  0  0  0  0  0
   59.8580   25.9410   46.3130 C   0  0  0  0  0  0  0  0  0  0  0  0
   58.6550   26.2210   45.6570 C   0  0  0  0  0  0  0  0  0  0  0  0
   58.7200   31.2920   45.7960 C   0  0  0  0  0  0  0  0  0  0  0  0
   59.6240   31.8430   46.7090 C   0  0  0  0  0  0  0  0  0  0  0  0
   63.4502   34.5017   46.4457 H   0  0  0  0  0  0  0  0  0  0  0  0
   62.8821   32.9101   45.8366 H   0  0  0  0  0  0  0  0  0  0  0  0
   61.7700   34.3208   45.8366 H   0  0  0  0  0  0  0  0  0  0  0  0
   60.6501   35.0120   49.7856 H   0  0  0  0  0  0  0  0  0  0  0  0
   59.0236   35.1038   49.0174 H   0  0  0  0  0  0  0  0  0  0  0  0
   59.2672   31.7794   49.0133 H   0  0  0  0  0  0  0  0  0  0  0  0
   58.2865   30.2121   50.6899 H   0  0  0  0  0  0  0  0  0  0  0  0
   57.7376   31.0212   52.9864 H   0  0  0  0  0  0  0  0  0  0  0  0
   58.1620   33.4021   53.6063 H   0  0  0  0  0  0  0  0  0  0  0  0
   59.1367   34.9783   51.9343 H   0  0  0  0  0  0  0  0  0  0  0  0
   58.1000   34.8595   47.2332 H   0  0  0  0  0  0  0  0  0  0  0  0
   56.4849   33.8725   45.6123 H   0  0  0  0  0  0  0  0  0  0  0  0
   56.1630   29.5210   46.3220 H   0  0  0  0  0  0  0  0  0  0  0  0
   55.7985   27.1329   45.7103 H   0  0  0  0  0  0  0  0  0  0  0  0
   56.7543   27.4181   44.2145 H   0  0  0  0  0  0  0  0  0  0  0  0
   57.8103   29.1088   47.2903 H   0  0  0  0  0  0  0  0  0  0  0  0
   59.9536   28.5960   48.4622 H   0  0  0  0  0  0  0  0  0  0  0  0
   61.2674   26.5672   47.8349 H   0  0  0  0  0  0  0  0  0  0  0  0
   60.4398   25.0495   46.0360 H   0  0  0  0  0  0  0  0  0  0  0  0
   58.2972   25.5542   44.8586 H   0  0  0  0  0  0  0  0  0  0  0  0
   58.8869   30.2770   45.4062 H   0  0  0  0  0  0  0  0  0  0  0  0
   60.5037   31.2634   47.0255 H   0  0  0  0  0  0  0  0  0  0  0  0
  1  2  1  0
  2  3  2  0
  2  4  2  0
  2  5  1  0
  5  6  1  0
  6  7  1  0
  7  8  2  0
  8  9  1  0
  9 10  2  0
 10 11  1  0
 11 12  2  0
  5 13  1  0
 13 14  2  0
 14 15  1  0
 15 16  2  0
 16 17  1  0
 17 18  1  0
 18 19  2  0
 18 20  1  0
 20 21  1  0
 21 22  1  0
 22 23  2  0
 23 24  1  0
 24 25  2  0
 25 26  1  0
 26 27  2  0
 16 28  1  0
 28 29  2  0
 12  7  1  0
 29 13  1  0
 27 22  1  0
  1 30  1  0
  1 31  1  0
  1 32  1  0
  6 33  1  0
  6 34  1  0
  8 35  1  0
  9 36  1  0
 10 37  1  0
 11 38  1  0
 12 39  1  0
 14 40  1  0
 15 41  1  0
 20 42  1  0
 21 43  1  0
 21 44  1  0
 23 45  1  0
 24 46  1  0
 25 47  1  0
 26 48  1  0
 27 49  1  0
 28 50  1  0
 29 51  1  0
M  CHG  1  17  -1
M  END
>  <UniqueID>  (41) 
38

>  <SMILES>  (41) 
CS(=O)(=O)N(Cc1ccccc1)c1ccc([N-]C(=O)NCc2ccccc2)cc1

>  <Energy>  (41) 
53.104760860434546

>  <Genealogy>  (41) 
CS(=O)(=O)N(Cc1ccccc1)c1ccc([N-]C(=O)NCc2ccccc2)cc1 (protonated)
CS(=O)(=O)N(Cc1ccccc1)c1ccc([N-]C(=O)NCc2ccccc2)cc1 (3D coordinates assigned)
CS(=O)(=O)N(Cc1ccccc1)c1ccc([N-]C(=O)NCc2ccccc2)cc1 (optimized conformer: 53.104760860434546 kcal/mol)

>  <smiles>  (41) 
CS(=O)(=O)N(Cc1ccccc1)c1ccc(NC(=O)NCc2ccccc2)cc1

>  <score_type>  (41) 
oracle

>  <origin>  (41) 
adg

>  <m_score__min__energy>  (41) 
-10.27

>  <m_primary>  (41) 
energy

$$$$
41:0
     RDKit          3D

 60 63  0  0  0  0  0  0  0  0999 V2000
   59.6050   27.2790   46.7950 C   0  0  0  0  0  0  0  0  0  0  0  0
   58.6060   28.1350   46.1510 C   0  0  0  0  0  0  0  0  0  0  0  0
   58.6630   29.5000   46.3460 C   0  0  0  0  0  0  0  0  0  0  0  0
   59.6360   30.1600   47.1340 N   0  0  0  0  0  0  0  0  0  0  0  0
   59.9700   29.9710   48.4940 C   0  0  0  0  0  0  0  0  0  0  0  0
   58.8880   29.9240   49.5110 C   0  0  0  0  0  0  0  0  0  0  0  0
   58.8230   31.0290   50.4710 C   0  0  0  0  0  0  0  0  0  0  0  0
   57.7070   31.4960   51.1070 C   0  0  0  0  0  0  0  0  0  0  0  0
   57.7230   32.5700   51.9970 C   0  0  0  0  0  0  0  0  0  0  0  0
   58.9060   33.2090   52.2620 C   0  0  0  0  0  0  0  0  0  0  0  0
   58.8990   34.6790   53.4810 Br  0  0  0  0  0  0  0  0  0  0  0  0
   60.0370   32.7560   51.6350 C   0  0  0  0  0  0  0  0  0  0  0  0
   60.0210   31.6950   50.7580 C   0  0  0  0  0  0  0  0  0  0  0  0
   60.4040   31.1870   46.3690 C   0  0  0  0  0  0  0  0  0  0  0  0
   60.6520   32.3630   47.1990 C   0  0  0  0  0  0  0  0  0  0  0  0
   61.9300   32.5190   47.7310 C   0  0  0  0  0  0  0  0  0  0  0  0
   62.2660   33.5610   48.5660 C   0  0  0  0  0  0  0  0  0  0  0  0
   61.3350   34.5190   48.9230 C   0  0  0  0  0  0  0  0  0  0  0  0
   60.0680   34.3730   48.4010 C   0  0  0  0  0  0  0  0  0  0  0  0
   59.7300   33.3150   47.5530 C   0  0  0  0  0  0  0  0  0  0  0  0
   58.3980   33.3100   47.0720 N   0  0  0  0  0  0  0  0  0  0  0  0
   57.3970   33.0610   47.7610 O   0  0  0  0  0  0  0  0  0  0  0  0
   58.1480   33.5670   45.7230 O   0  0  0  0  0  0  0  0  0  0  0  0
   57.7380   30.3320   45.7680 N   0  0  0  0  0  0  0  0  0  0  0  0
   56.7950   29.7840   45.0240 C   0  0  0  0  0  0  0  0  0  0  0  0
   55.9320   30.5610   44.4860 O   0  0  0  0  0  0  0  0  0  0  0  0
   56.7270   28.4570   44.8260 N   0  0  0  0  0  0  0  0  0  0  0  0
   57.6220   27.5850   45.3760 C   0  0  0  0  0  0  0  0  0  0  0  0
   57.4630   26.2330   45.0480 N   0  0  0  0  0  0  0  0  0  0  0  0
   56.9640   25.2660   46.0580 C   0  0  0  0  0  0  0  0  0  0  0  0
   55.6350   24.8460   45.5320 C   0  0  0  0  0  0  0  0  0  0  0  0
   55.8040   24.1940   44.3280 O   0  0  0  0  0  0  0  0  0  0  0  0
   57.0420   24.2140   43.7710 C   0  0  0  0  0  0  0  0  0  0  0  0
   57.6910   25.6220   43.7460 C   0  0  0  0  0  0  0  0  0  0  0  0
   59.5088   27.3614   47.8877 H   0  0  0  0  0  0  0  0  0  0  0  0
   59.4438   26.2344   46.4905 H   0  0  0  0  0  0  0  0  0  0  0  0
   60.6126   27.5984   46.4905 H   0  0  0  0  0  0  0  0  0  0  0  0
   60.5141   29.0173   48.5608 H   0  0  0  0  0  0  0  0  0  0  0  0
   60.5297   30.8819   48.7527 H   0  0  0  0  0  0  0  0  0  0  0  0
   57.9290   29.8963   48.9729 H   0  0  0  0  0  0  0  0  0  0  0  0
   59.1080   29.0335   50.1181 H   0  0  0  0  0  0  0  0  0  0  0  0
   56.7463   30.9991   50.9066 H   0  0  0  0  0  0  0  0  0  0  0  0
   56.7932   32.9015   52.4824 H   0  0  0  0  0  0  0  0  0  0  0  0
   60.9935   33.2590   51.8401 H   0  0  0  0  0  0  0  0  0  0  0  0
   60.9558   31.3680   50.2793 H   0  0  0  0  0  0  0  0  0  0  0  0
   61.3661   30.7580   46.0522 H   0  0  0  0  0  0  0  0  0  0  0  0
   59.8160   31.4894   45.4899 H   0  0  0  0  0  0  0  0  0  0  0  0
   62.7024   31.7794   47.4734 H   0  0  0  0  0  0  0  0  0  0  0  0
   63.2922   33.6325   48.9556 H   0  0  0  0  0  0  0  0  0  0  0  0
   61.5926   35.3551   49.5897 H   0  0  0  0  0  0  0  0  0  0  0  0
   59.2973   35.1137   48.6604 H   0  0  0  0  0  0  0  0  0  0  0  0
   55.9420   28.1360   44.2110 H   0  0  0  0  0  0  0  0  0  0  0  0
   57.6416   24.4035   46.1412 H   0  0  0  0  0  0  0  0  0  0  0  0
   56.9009   25.7024   47.0658 H   0  0  0  0  0  0  0  0  0  0  0  0
   55.1529   24.1683   46.2519 H   0  0  0  0  0  0  0  0  0  0  0  0
   55.0014   25.7329   45.3838 H   0  0  0  0  0  0  0  0  0  0  0  0
   57.6935   23.5414   44.3482 H   0  0  0  0  0  0  0  0  0  0  0  0
   56.9293   23.8931   42.7249 H   0  0  0  0  0  0  0  0  0  0  0  0
   58.7710   25.5343   43.5564 H   0  0  0  0  0  0  0  0  0  0  0  0
   57.2508   26.2371   42.9473 H   0  0  0  0  0  0  0  0  0  0  0  0
  1  2  1  0
  2  3  1  0
  3  4  1  0
  4  5  1  0
  5  6  1  0
  6  7  1  0
  7  8  2  0
  8  9  1  0
  9 10  2  0
 10 11  1  0
 10 12  1  0
 12 13  2  0
  4 14  1  0
 14 15  1  0
 15 16  2  0
 16 17  1  0
 17 18  2  0
 18 19  1  0
 19 20  2  0
 20 21  1  0
 21 22  2  0
 21 23  1  0
  3 24  2  0
 24 25  1  0
 25 26  2  0
 25 27  1  0
 27 28  1  0
 28 29  1  0
 29 30  1  0
 30 31  1  0
 31 32  1  0
 32 33  1  0
 33 34  1  0
 28  2  2  0
 34 29  1  0
 13  7  1  0
 20 15  1  0
  1 35  1  0
  1 36  1  0
  1 37  1  0
  5 38  1  0
  5 39  1  0
  6 40  1  0
  6 41  1  0
  8 42  1  0
  9 43  1  0
 12 44  1  0
 13 45  1  0
 14 46  1  0
 14 47  1  0
 16 48  1  0
 17 49  1  0
 18 50  1  0
 19 51  1  0
 27 52  1  0
 30 53  1  0
 30 54  1  0
 31 55  1  0
 31 56  1  0
 33 57  1  0
 33 58  1  0
 34 59  1  0
 34 60  1  0
M  CHG  2  21   1  23  -1
M  END
>  <smiles>  (42) 
Cc1c(N(CCc2ccc(Br)cc2)Cc2ccccc2[N+](=O)[O-])nc(=O)[nH]c1N1CCOCC1

>  <score_type>  (42) 
oracle

>  <origin>  (42) 
adg

>  <m_score__min__energy>  (42) 
-9.7400000000000002

>  <m_primary>  (42) 
energy

$$$$
42:0
     RDKit          3D

 52 54  0  0  0  0  0  0  0  0999 V2000
   57.5940   31.8670   51.3110 C   0  0  0  0  0  0  0  0  0  0  0  0
   58.5760   32.7650   51.4290 C   0  0  0  0  0  0  0  0  0  0  0  0
   59.7550   32.7730   50.4980 C   0  0  0  0  0  0  0  0  0  0  0  0
   59.3080   32.6270   49.1150 N   0  0  0  0  0  0  0  0  0  0  0  0
   59.1320   33.7470   48.2310 C   0  0  0  0  0  0  0  0  0  0  0  0
   59.2860   34.9200   48.6690 O   0  0  0  0  0  0  0  0  0  0  0  0
   58.7500   33.5500   46.8110 C   0  0  0  0  0  0  0  0  0  0  0  0
   59.2420   34.4230   45.8240 C   0  0  0  0  0  0  0  0  0  0  0  0
   58.8860   34.2510   44.4850 C   0  0  0  0  0  0  0  0  0  0  0  0
   58.0510   33.1970   44.1110 C   0  0  0  0  0  0  0  0  0  0  0  0
   57.5740   32.2950   45.0790 C   0  0  0  0  0  0  0  0  0  0  0  0
   56.7260   31.2290   44.7410 O   0  0  0  0  0  0  0  0  0  0  0  0
   57.0940   29.8780   44.7710 C   0  0  0  0  0  0  0  0  0  0  0  0
   57.4400   29.1870   43.5970 C   0  0  0  0  0  0  0  0  0  0  0  0
   57.7580   27.8280   43.6510 C   0  0  0  0  0  0  0  0  0  0  0  0
   57.7090   27.1390   44.8730 C   0  0  0  0  0  0  0  0  0  0  0  0
   57.9210   25.7230   44.9490 N   0  0  0  0  0  0  0  0  0  0  0  0
   58.7720   25.0380   45.8800 C   0  0  0  0  0  0  0  0  0  0  0  0
   58.4250   23.9030   46.2990 O   0  0  0  0  0  0  0  0  0  0  0  0
   60.0060   25.6010   46.3550 N   0  0  0  0  0  0  0  0  0  0  0  0
   60.2480   26.9770   46.6780 C   0  0  0  0  0  0  0  0  0  0  0  0
   60.6080   27.9150   45.6960 C   0  0  0  0  0  0  0  0  0  0  0  0
   60.7680   29.2620   46.0330 C   0  0  0  0  0  0  0  0  0  0  0  0
   60.5960   29.6850   47.3660 C   0  0  0  0  0  0  0  0  0  0  0  0
   60.7150   31.0290   47.7520 O   0  0  0  0  0  0  0  0  0  0  0  0
   61.8880   31.8140   47.5700 C   0  0  0  0  0  0  0  0  0  0  0  0
   60.2870   28.7380   48.3480 C   0  0  0  0  0  0  0  0  0  0  0  0
   60.1200   27.3920   48.0080 C   0  0  0  0  0  0  0  0  0  0  0  0
   57.4420   27.8480   46.0510 C   0  0  0  0  0  0  0  0  0  0  0  0
   57.1390   29.2120   45.9990 C   0  0  0  0  0  0  0  0  0  0  0  0
   57.9170   32.4830   46.4230 C   0  0  0  0  0  0  0  0  0  0  0  0
   56.7436   31.8871   52.0084 H   0  0  0  0  0  0  0  0  0  0  0  0
   57.6358   31.1075   50.5164 H   0  0  0  0  0  0  0  0  0  0  0  0
   58.5198   33.5182   52.2287 H   0  0  0  0  0  0  0  0  0  0  0  0
   60.2966   33.7243   50.6061 H   0  0  0  0  0  0  0  0  0  0  0  0
   60.4175   31.9322   50.7513 H   0  0  0  0  0  0  0  0  0  0  0  0
   58.9860   31.6790   48.8160 H   0  0  0  0  0  0  0  0  0  0  0  0
   59.9122   35.2473   46.1092 H   0  0  0  0  0  0  0  0  0  0  0  0
   59.2646   34.9480   43.7228 H   0  0  0  0  0  0  0  0  0  0  0  0
   57.7652   33.0714   43.0562 H   0  0  0  0  0  0  0  0  0  0  0  0
   57.4604   29.7176   42.6336 H   0  0  0  0  0  0  0  0  0  0  0  0
   58.0478   27.2959   42.7329 H   0  0  0  0  0  0  0  0  0  0  0  0
   60.7646   27.5879   44.6575 H   0  0  0  0  0  0  0  0  0  0  0  0
   61.0291   29.9944   45.2549 H   0  0  0  0  0  0  0  0  0  0  0  0
   62.3004   32.0900   48.5517 H   0  0  0  0  0  0  0  0  0  0  0  0
   62.6346   31.2330   47.0088 H   0  0  0  0  0  0  0  0  0  0  0  0
   61.6356   32.7258   47.0088 H   0  0  0  0  0  0  0  0  0  0  0  0
   60.1745   29.0545   49.3955 H   0  0  0  0  0  0  0  0  0  0  0  0
   59.8866   26.6552   48.7907 H   0  0  0  0  0  0  0  0  0  0  0  0
   57.4708   27.3298   47.0208 H   0  0  0  0  0  0  0  0  0  0  0  0
   56.9351   29.7634   46.9287 H   0  0  0  0  0  0  0  0  0  0  0  0
   57.5315   31.7894   47.1847 H   0  0  0  0  0  0  0  0  0  0  0  0
  1  2  2  0
  2  3  1  0
  3  4  1  0
  4  5  1  0
  5  6  2  0
  5  7  1  0
  7  8  2  0
  8  9  1  0
  9 10  2  0
 10 11  1  0
 11 12  1  0
 12 13  1  0
 13 14  2  0
 14 15  1  0
 15 16  2  0
 16 17  1  0
 17 18  1  0
 18 19  2  0
 18 20  1  0
 20 21  1  0
 21 22  2  0
 22 23  1  0
 23 24  2  0
 24 25  1  0
 25 26  1  0
 24 27  1  0
 27 28  2  0
 16 29  1  0
 29 30  2  0
 11 31  2  0
 31  7  1  0
 30 13  1  0
 28 21  1  0
  1 32  1  0
  1 33  1  0
  2 34  1  0
  3 35  1  0
  3 36  1  0
  4 37  1  0
  8 38  1  0
  9 39  1  0
 10 40  1  0
 14 41  1  0
 15 42  1  0
 22 43  1  0
 23 44  1  0
 26 45  1  0
 26 46  1  0
 26 47  1  0
 27 48  1  0
 28 49  1  0
 29 50  1  0
 30 51  1  0
 31 52  1  0
M  CHG  2  17  -1  20  -1
M  END
>  <UniqueID>  (43) 
39

>  <SMILES>  (43) 
C=CCNC(=O)c1cccc(Oc2ccc([N-]C(=O)[N-]c3ccc(OC)cc3)cc2)c1

>  <Energy>  (43) 
64.03766557414127

>  <Genealogy>  (43) 
C=CCNC(=O)c1cccc(Oc2ccc([N-]C(=O)[N-]c3ccc(OC)cc3)cc2)c1 (protonated)
C=CCNC(=O)c1cccc(Oc2ccc([N-]C(=O)[N-]c3ccc(OC)cc3)cc2)c1 (3D coordinates assigned)
C=CCNC(=O)c1cccc(Oc2ccc([N-]C(=O)[N-]c3ccc(OC)cc3)cc2)c1 (optimized conformer: 64.03766557414127 kcal/mol)

>  <smiles>  (43) 
C=CCNC(=O)c1cccc(Oc2ccc(NC(=O)Nc3ccc(OC)cc3)cc2)c1

>  <score_type>  (43) 
oracle

>  <origin>  (43) 
adg

>  <m_score__min__energy>  (43) 
-11.33

>  <m_primary>  (43) 
energy

$$$$
43:0
     RDKit          3D

 35 36  0  0  0  0  0  0  0  0999 V2000
   59.6003   35.3929   47.9948 H   0  0  0  0  0  0  0  0  0  0  0  0
   59.9570   34.6830   47.2340 C   0  0  0  0  0  0  0  0  0  0  0  0
   59.3060   34.6200   46.0690 C   0  0  0  0  0  0  0  0  0  0  0  0
   59.5479   35.3369   45.2706 H   0  0  0  0  0  0  0  0  0  0  0  0
   58.0690   33.4050   45.8000 S   0  0  0  0  0  0  0  0  0  0  0  0
   57.4130   33.0220   47.0970 O   0  0  0  0  0  0  0  0  0  0  0  0
   57.0320   33.9570   44.8630 O   0  0  0  0  0  0  0  0  0  0  0  0
   58.7810   32.0000   45.0770 N   0  0  0  0  0  0  0  0  0  0  0  0
   59.0320   30.7530   45.7450 C   0  0  0  0  0  0  0  0  0  0  0  0
   60.1700   30.5680   46.5540 C   0  0  0  0  0  0  0  0  0  0  0  0
   60.8883   31.3909   46.6834 H   0  0  0  0  0  0  0  0  0  0  0  0
   60.3920   29.3460   47.1930 C   0  0  0  0  0  0  0  0  0  0  0  0
   61.2832   29.2097   47.8233 H   0  0  0  0  0  0  0  0  0  0  0  0
   59.4850   28.2980   47.0330 C   0  0  0  0  0  0  0  0  0  0  0  0
   59.6627   27.3365   47.5370 H   0  0  0  0  0  0  0  0  0  0  0  0
   58.3530   28.4670   46.2350 C   0  0  0  0  0  0  0  0  0  0  0  0
   57.6413   27.6372   46.1128 H   0  0  0  0  0  0  0  0  0  0  0  0
   58.1170   29.6900   45.5870 C   0  0  0  0  0  0  0  0  0  0  0  0
   56.6820   29.8840   44.5760 S   0  0  0  0  0  0  0  0  0  0  0  0
   55.5430   29.1050   45.1710 O   0  0  0  0  0  0  0  0  0  0  0  0
   56.9470   29.3760   43.1860 O   0  0  0  0  0  0  0  0  0  0  0  0
   56.2590   31.5590   44.4940 N   0  0  0  0  0  0  0  0  0  0  0  0
   56.9490   32.0180   43.8580 H   0  0  0  0  0  0  0  0  0  0  0  0
   56.4130   31.9590   45.4460 H   0  0  0  0  0  0  0  0  0  0  0  0
   61.1380   33.8420   47.5520 C   0  0  0  0  0  0  0  0  0  0  0  0
   62.2710   33.8360   46.7110 C   0  0  0  0  0  0  0  0  0  0  0  0
   62.2762   34.4511   45.7991 H   0  0  0  0  0  0  0  0  0  0  0  0
   63.3860   33.0560   47.0260 C   0  0  0  0  0  0  0  0  0  0  0  0
   64.2615   33.0561   46.3600 H   0  0  0  0  0  0  0  0  0  0  0  0
   63.3920   32.2770   48.1830 C   0  0  0  0  0  0  0  0  0  0  0  0
   64.2698   31.6606   48.4268 H   0  0  0  0  0  0  0  0  0  0  0  0
   62.2840   32.2800   49.0310 C   0  0  0  0  0  0  0  0  0  0  0  0
   62.2933   31.6666   49.9440 H   0  0  0  0  0  0  0  0  0  0  0  0
   61.1610   33.0580   48.7280 C   0  0  0  0  0  0  0  0  0  0  0  0
   59.7900   32.9950   49.8310 Cl  0  0  0  0  0  0  0  0  0  0  0  0
  1  2  1  0
  2  3  2  0
  3  4  1  0
  3  5  1  0
  5  6  2  0
  5  7  2  0
  5  8  1  0
  8  9  1  0
  9 10  2  0
 10 11  1  0
 10 12  1  0
 12 13  1  0
 12 14  2  0
 14 15  1  0
 14 16  1  0
 16 17  1  0
 16 18  2  0
 18 19  1  0
 19 20  2  0
 19 21  2  0
 19 22  1  0
 22 23  1  0
 22 24  1  0
  2 25  1  0
 25 26  2  0
 26 27  1  0
 26 28  1  0
 28 29  1  0
 28 30  2  0
 30 31  1  0
 30 32  1  0
 32 33  1  0
 32 34  2  0
 34 35  1  0
 18  9  1  0
 34 25  1  0
M  CHG  1   8  -1
M  END
>  <UniqueID>  (44) 
40

>  <SMILES>  (44) 
NS(=O)(=O)c1ccccc1[N-]S(=O)(=O)/C=C/c1ccccc1Cl

>  <Energy>  (44) 
41.7273013461568

>  <Genealogy>  (44) 
NS(=O)(=O)c1ccccc1[N-]S(=O)(=O)C=Cc1ccccc1Cl (protonated)
NS(=O)(=O)c1ccccc1[N-]S(=O)(=O)/C=C/c1ccccc1Cl (cis-trans isomerization)
NS(=O)(=O)c1ccccc1[N-]S(=O)(=O)/C=C/c1ccccc1Cl (3D coordinates assigned)
NS(=O)(=O)c1ccccc1[N-]S(=O)(=O)/C=C/c1ccccc1Cl (optimized conformer: 41.7273013461568 kcal/mol)

>  <smiles>  (44) 
NS(=O)(=O)c1ccccc1NS(=O)(=O)C=Cc1ccccc1Cl

>  <score_type>  (44) 
oracle

>  <origin>  (44) 
adg

>  <m_score__min__energy>  (44) 
-9.3900000000000006

>  <m_primary>  (44) 
energy

$$$$
44:0
     RDKit          3D

 48 49  0  0  1  0  0  0  0  0999 V2000
   63.8070   33.4060   47.5400 C   0  0  0  0  0  0  0  0  0  0  0  0
   62.3450   33.6510   47.6840 C   0  0  0  0  0  0  0  0  0  0  0  0
   61.6040   33.6990   46.5200 C   0  0  0  0  0  0  0  0  0  0  0  0
   60.2380   33.9280   46.6600 C   0  0  0  0  0  0  0  0  0  0  0  0
   59.4980   33.9830   45.6130 N   0  0  0  0  0  0  0  0  0  0  0  0
   57.8830   33.4650   45.4870 S   0  0  0  0  0  0  0  0  0  0  0  0
   57.0510   34.2390   44.5060 O   0  0  0  0  0  0  0  0  0  0  0  0
   57.2520   33.8150   46.8400 O   0  0  0  0  0  0  0  0  0  0  0  0
   57.6950   31.7390   45.3340 C   0  0  0  0  0  0  0  0  0  0  0  0
   57.0170   31.1800   44.2430 C   0  0  0  0  0  0  0  0  0  0  0  0
   56.8480   29.8410   44.0790 C   0  0  0  0  0  0  0  0  0  0  0  0
   57.3660   28.9610   45.0320 C   0  0  0  0  0  0  0  0  0  0  0  0
   57.2030   27.5440   44.8850 N   0  0  0  0  0  0  0  0  0  0  0  0
   58.3610   26.7040   44.8850 C   0  0  0  0  0  0  0  0  0  0  0  0
   59.4660   27.2770   45.0170 O   0  0  0  0  0  0  0  0  0  0  0  0
   58.1490   25.2600   44.7340 C   0  0  0  0  0  0  0  0  0  0  0  0
   57.3900   24.8750   43.4930 C   0  0  0  0  0  0  0  0  0  0  0  0
   56.1680   24.0780   43.7920 C   0  0  0  0  0  0  0  0  0  0  0  0
   56.1270   23.6430   45.1960 N   0  0  0  0  0  0  0  0  0  0  0  0
   55.6440   24.5020   46.2150 C   0  0  0  0  0  0  0  0  0  0  0  0
   55.6240   24.0350   47.5770 N   0  0  0  0  0  0  0  0  0  0  0  0
   55.2250   25.6660   46.0030 O   0  0  0  0  0  0  0  0  0  0  0  0
   58.0390   29.4670   46.1180 C   0  0  0  0  0  0  0  0  0  0  0  0
   58.1890   30.8340   46.2480 C   0  0  0  0  0  0  0  0  0  0  0  0
   59.6530   34.0950   47.8570 N   0  0  0  0  0  0  0  0  0  0  0  0
   60.4060   34.0410   48.9570 C   0  0  0  0  0  0  0  0  0  0  0  0
   59.9270   34.1880   50.1230 O   0  0  0  0  0  0  0  0  0  0  0  0
   61.7440   33.8190   48.8770 N   0  0  0  0  0  0  0  0  0  0  0  0
   64.2658   33.3291   48.5368 H   0  0  0  0  0  0  0  0  0  0  0  0
   63.9690   32.4682   46.9884 H   0  0  0  0  0  0  0  0  0  0  0  0
   64.2659   34.2398   46.9884 H   0  0  0  0  0  0  0  0  0  0  0  0
   62.0692   33.5632   45.5325 H   0  0  0  0  0  0  0  0  0  0  0  0
   56.6013   31.8571   43.4823 H   0  0  0  0  0  0  0  0  0  0  0  0
   56.3076   29.4537   43.2027 H   0  0  0  0  0  0  0  0  0  0  0  0
   56.2470   27.1210   44.7770 H   0  0  0  0  0  0  0  0  0  0  0  0
   59.1324   24.7682   44.7035 H   0  0  0  0  0  0  0  0  0  0  0  0
   57.5385   24.9386   45.5907 H   0  0  0  0  0  0  0  0  0  0  0  0
   57.0915   25.7921   42.9641 H   0  0  0  0  0  0  0  0  0  0  0  0
   58.0533   24.2490   42.8781 H   0  0  0  0  0  0  0  0  0  0  0  0
   55.2814   24.6952   43.5849 H   0  0  0  0  0  0  0  0  0  0  0  0
   56.1830   23.1798   43.1571 H   0  0  0  0  0  0  0  0  0  0  0  0
   56.4690   22.6740   45.4260 H   0  0  0  0  0  0  0  0  0  0  0  0
   54.9300   23.3250   47.9030 H   0  0  0  0  0  0  0  0  0  0  0  0
   56.3410   24.4420   48.2250 H   0  0  0  0  0  0  0  0  0  0  0  0
   58.4549   28.7889   46.8777 H   0  0  0  0  0  0  0  0  0  0  0  0
   58.7298   31.2193   47.1250 H   0  0  0  0  0  0  0  0  0  0  0  0
   58.6290   34.2630   47.9190 H   0  0  0  0  0  0  0  0  0  0  0  0
   62.3150   33.7810   49.7550 H   0  0  0  0  0  0  0  0  0  0  0  0
  1  2  1  0
  2  3  2  0
  3  4  1  0
  4  5  2  0
  5  6  1  0
  6  7  2  0
  6  8  2  0
  6  9  1  0
  9 10  2  0
 10 11  1  0
 11 12  2  0
 12 13  1  0
 13 14  1  0
 14 15  2  0
 14 16  1  0
 16 17  1  0
 17 18  1  0
 18 19  1  0
 19 20  1  0
 20 21  1  0
 20 22  2  0
 12 23  1  0
 23 24  2  0
  4 25  1  0
 25 26  1  0
 26 27  2  0
 26 28  1  0
 28  2  1  0
 24  9  1  0
  1 29  1  0
  1 30  1  0
  1 31  1  0
  3 32  1  0
 10 33  1  0
 11 34  1  0
 13 35  1  0
 16 36  1  0
 16 37  1  0
 17 38  1  0
 17 39  1  0
 18 40  1  0
 18 41  1  0
 19 42  1  0
 21 43  1  0
 21 44  1  0
 23 45  1  0
 24 46  1  0
 25 47  1  0
 28 48  1  0
M  END
>  <smiles>  (45) 
Cc1cc(=NS(=O)(=O)c2ccc(NC(=O)CCCNC(N)=O)cc2)[nH]c(=O)[nH]1

>  <score_type>  (45) 
oracle

>  <origin>  (45) 
adg

>  <m_score__min__energy>  (45) 
-8.6999999999999993

>  <m_primary>  (45) 
energy

$$$$
45:0
     RDKit          3D

 34 35  0  0  0  0  0  0  0  0999 V2000
   56.0940   30.6580   44.2170 H   0  0  0  0  0  0  0  0  0  0  0  0
   56.2550   31.6090   44.5300 O   0  0  0  0  0  0  0  0  0  0  0  0
   57.4390   31.9780   45.1690 C   0  0  0  0  0  0  0  0  0  0  0  0
   58.0010   33.2400   44.9310 C   0  0  0  0  0  0  0  0  0  0  0  0
   57.5064   33.9385   44.2401 H   0  0  0  0  0  0  0  0  0  0  0  0
   59.1870   33.6140   45.5680 C   0  0  0  0  0  0  0  0  0  0  0  0
   59.6220   34.6063   45.3781 H   0  0  0  0  0  0  0  0  0  0  0  0
   59.8240   32.7290   46.4480 C   0  0  0  0  0  0  0  0  0  0  0  0
   61.0840   33.1300   47.1580 C   0  0  0  0  0  0  0  0  0  0  0  0
   60.9243   33.0792   48.2452 H   0  0  0  0  0  0  0  0  0  0  0  0
   61.8980   32.4465   46.8746 H   0  0  0  0  0  0  0  0  0  0  0  0
   61.3532   34.1582   46.8746 H   0  0  0  0  0  0  0  0  0  0  0  0
   59.2550   31.4700   46.6950 C   0  0  0  0  0  0  0  0  0  0  0  0
   59.7437   30.7790   47.3977 H   0  0  0  0  0  0  0  0  0  0  0  0
   58.0640   31.0840   46.0510 C   0  0  0  0  0  0  0  0  0  0  0  0
   57.4660   29.7980   46.2680 N   0  0  0  0  0  0  0  0  0  0  0  0
   56.6670   28.8440   45.0610 S   0  0  0  0  0  0  0  0  0  0  0  0
   55.2580   29.3380   44.8780 O   0  0  0  0  0  0  0  0  0  0  0  0
   57.3990   28.9860   43.7570 O   0  0  0  0  0  0  0  0  0  0  0  0
   56.6700   27.1560   45.5300 C   0  0  0  0  0  0  0  0  0  0  0  0
   55.6270   26.5400   46.1270 N   0  0  0  0  0  0  0  0  0  0  0  0
   55.8600   25.2570   46.3950 N   0  0  0  0  0  0  0  0  0  0  0  0
   57.0890   24.8460   46.0090 C   0  0  0  0  0  0  0  0  0  0  0  0
   57.4880   23.6180   46.1760 N   0  0  0  0  0  0  0  0  0  0  0  0
   58.4350   22.8900   45.3780 C   0  0  0  0  0  0  0  0  0  0  0  0
   59.6760   22.9740   45.5880 O   0  0  0  0  0  0  0  0  0  0  0  0
   57.9380   21.9950   44.2880 C   0  0  0  0  0  0  0  0  0  0  0  0
   57.5072   21.0871   44.7354 H   0  0  0  0  0  0  0  0  0  0  0  0
   58.7825   21.7358   43.6326 H   0  0  0  0  0  0  0  0  0  0  0  0
   56.8710   22.6960   43.4550 C   0  0  0  0  0  0  0  0  0  0  0  0
   56.1407   23.1758   44.1232 H   0  0  0  0  0  0  0  0  0  0  0  0
   57.3443   23.4597   42.8204 H   0  0  0  0  0  0  0  0  0  0  0  0
   56.3580   21.9584   42.8204 H   0  0  0  0  0  0  0  0  0  0  0  0
   57.9640   26.1060   45.2980 S   0  0  0  0  0  0  0  0  0  0  0  0
  1  2  1  0
  2  3  1  0
  3  4  2  0
  4  5  1  0
  4  6  1  0
  6  7  1  0
  6  8  2  0
  8  9  1  0
  9 10  1  0
  9 11  1  0
  9 12  1  0
  8 13  1  0
 13 14  1  0
 13 15  2  0
 15 16  1  0
 16 17  1  0
 17 18  2  0
 17 19  2  0
 17 20  1  0
 20 21  2  0
 21 22  1  0
 22 23  1  0
 23 24  2  0
 24 25  1  0
 25 26  2  0
 25 27  1  0
 27 28  1  0
 27 29  1  0
 27 30  1  0
 30 31  1  0
 30 32  1  0
 30 33  1  0
 23 34  1  0
 15  3  1  0
 34 20  1  0
M  CHG  2  16  -1  22  -1
M  END
>  <UniqueID>  (46) 
41

>  <SMILES>  (46) 
CCC(=O)/N=c1/[n-]nc(S(=O)(=O)[N-]c2cc(C)ccc2O)s1

>  <Energy>  (46) 
69.99151351514013

>  <Genealogy>  (46) 
CCC(=O)N=c1[n-]nc(S(=O)(=O)[N-]c2cc(C)ccc2O)s1 (protonated)
CCC(=O)/N=c1/[n-]nc(S(=O)(=O)[N-]c2cc(C)ccc2O)s1 (cis-trans isomerization)
CCC(=O)/N=c1/[n-]nc(S(=O)(=O)[N-]c2cc(C)ccc2O)s1 (3D coordinates assigned)
CCC(=O)/N=c1/[n-]nc(S(=O)(=O)[N-]c2cc(C)ccc2O)s1 (optimized conformer: 69.99151351514013 kcal/mol)

>  <smiles>  (46) 
CCC(=O)N=c1[nH]nc(S(=O)(=O)Nc2cc(C)ccc2O)s1

>  <score_type>  (46) 
oracle

>  <origin>  (46) 
adg

>  <m_score__min__energy>  (46) 
-11.07

>  <m_primary>  (46) 
energy

$$$$
46:0
     RDKit          3D

 55 58  0  0  1  0  0  0  0  0999 V2000
   58.9480   33.7770   53.8550 C   0  0  0  0  0  0  0  0  0  0  0  0
   58.7740   33.2380   52.4700 C   0  0  0  0  0  0  0  0  0  0  0  0
   57.9420   32.1800   52.1840 C   0  0  0  0  0  0  0  0  0  0  0  0
   57.8180   31.7210   50.8930 C   0  0  0  0  0  0  0  0  0  0  0  0
   58.5210   32.3050   49.8390 C   0  0  0  0  0  0  0  0  0  0  0  0
   59.3490   33.3650   50.1460 C   0  0  0  0  0  0  0  0  0  0  0  0
   60.0490   33.9450   49.0940 O   0  0  0  0  0  0  0  0  0  0  0  0
   61.0390   33.1570   48.4750 C   0  0  0  0  0  0  0  0  0  0  0  0
   62.3790   33.5280   48.6190 C   0  0  0  0  0  0  0  0  0  0  0  0
   63.3570   32.7480   48.0060 C   0  0  0  0  0  0  0  0  0  0  0  0
   63.0080   31.6350   47.2750 C   0  0  0  0  0  0  0  0  0  0  0  0
   61.6610   31.2770   47.1410 C   0  0  0  0  0  0  0  0  0  0  0  0
   61.4020   30.1110   46.3670 N   0  0  0  0  0  0  0  0  0  0  0  0
   60.2540   29.5700   46.2180 C   0  0  0  0  0  0  0  0  0  0  0  0
   59.8500   28.4330   46.9200 C   0  0  0  0  0  0  0  0  0  0  0  0
   58.5980   27.8910   46.7190 C   0  0  0  0  0  0  0  0  0  0  0  0
   58.1330   26.6770   47.4510 C   0  0  0  0  0  0  0  0  0  0  0  0
   57.2800   25.5690   46.3230 Cl  0  0  0  0  0  0  0  0  0  0  0  0
   57.7890   28.5100   45.8180 N   0  0  0  0  0  0  0  0  0  0  0  0
   58.1840   29.6020   45.1470 C   0  0  0  0  0  0  0  0  0  0  0  0
   57.0680   30.3150   44.0160 S   0  0  0  0  0  0  0  0  0  0  0  0
   55.7050   30.4740   44.6740 O   0  0  0  0  0  0  0  0  0  0  0  0
   56.8820   29.4490   42.8030 O   0  0  0  0  0  0  0  0  0  0  0  0
   57.5680   31.9110   43.4770 C   0  0  0  0  0  0  0  0  0  0  0  0
   57.9430   32.8130   44.5730 C   0  0  0  0  0  0  0  0  0  0  0  0
   58.9030   33.7840   44.3490 C   0  0  0  0  0  0  0  0  0  0  0  0
   59.3260   34.6740   45.2950 C   0  0  0  0  0  0  0  0  0  0  0  0
   58.7380   34.5770   46.5600 C   0  0  0  0  0  0  0  0  0  0  0  0
   57.7800   33.6120   46.7920 C   0  0  0  0  0  0  0  0  0  0  0  0
   57.3600   32.7170   45.8290 C   0  0  0  0  0  0  0  0  0  0  0  0
   59.3970   30.1260   45.3430 N   0  0  0  0  0  0  0  0  0  0  0  0
   60.7080   32.0400   47.7390 C   0  0  0  0  0  0  0  0  0  0  0  0
   59.4840   33.8390   51.4550 C   0  0  0  0  0  0  0  0  0  0  0  0
   58.6957   32.9956   54.5869 H   0  0  0  0  0  0  0  0  0  0  0  0
   59.9928   34.0899   53.9981 H   0  0  0  0  0  0  0  0  0  0  0  0
   58.2834   34.6418   53.9981 H   0  0  0  0  0  0  0  0  0  0  0  0
   57.3726   31.6983   52.9925 H   0  0  0  0  0  0  0  0  0  0  0  0
   57.1483   30.8730   50.6869 H   0  0  0  0  0  0  0  0  0  0  0  0
   58.4195   31.9362   48.8076 H   0  0  0  0  0  0  0  0  0  0  0  0
   62.6555   34.4174   49.2042 H   0  0  0  0  0  0  0  0  0  0  0  0
   64.4171   33.0238   48.1069 H   0  0  0  0  0  0  0  0  0  0  0  0
   63.7885   31.0260   46.7954 H   0  0  0  0  0  0  0  0  0  0  0  0
   60.5369   27.9649   47.6404 H   0  0  0  0  0  0  0  0  0  0  0  0
   59.0007   26.1583   47.8846 H   0  0  0  0  0  0  0  0  0  0  0  0
   57.4418   26.9803   48.2511 H   0  0  0  0  0  0  0  0  0  0  0  0
   58.4347   31.7965   42.8094 H   0  0  0  0  0  0  0  0  0  0  0  0
   56.7041   32.3642   42.9688 H   0  0  0  0  0  0  0  0  0  0  0  0
   59.3534   33.8429   43.3472 H   0  0  0  0  0  0  0  0  0  0  0  0
   60.0926   35.4308   45.0723 H   0  0  0  0  0  0  0  0  0  0  0  0
   59.0372   35.2652   47.3643 H   0  0  0  0  0  0  0  0  0  0  0  0
   57.3288   33.5529   47.7934 H   0  0  0  0  0  0  0  0  0  0  0  0
   56.5942   31.9583   46.0480 H   0  0  0  0  0  0  0  0  0  0  0  0
   59.6540   30.9720   44.7990 H   0  0  0  0  0  0  0  0  0  0  0  0
   59.6496   31.7597   47.6331 H   0  0  0  0  0  0  0  0  0  0  0  0
   60.1523   34.6854   51.6718 H   0  0  0  0  0  0  0  0  0  0  0  0
  1  2  1  0
  2  3  2  0
  3  4  1  0
  4  5  2  0
  5  6  1  0
  6  7  1  0
  7  8  1  0
  8  9  2  0
  9 10  1  0
 10 11  2  0
 11 12  1  0
 12 13  1  0
 13 14  2  0
 14 15  1  0
 15 16  2  0
 16 17  1  0
 17 18  1  0
 16 19  1  0
 19 20  2  0
 20 21  1  0
 21 22  2  0
 21 23  2  0
 21 24  1  0
 24 25  1  0
 25 26  2  0
 26 27  1  0
 27 28  2  0
 28 29  1  0
 29 30  2  0
 20 31  1  0
 12 32  2  0
  6 33  2  0
 33  2  1  0
 32  8  1  0
 31 14  1  0
 30 25  1  0
  1 34  1  0
  1 35  1  0
  1 36  1  0
  3 37  1  0
  4 38  1  0
  5 39  1  0
  9 40  1  0
 10 41  1  0
 11 42  1  0
 15 43  1  0
 17 44  1  0
 17 45  1  0
 24 46  1  0
 24 47  1  0
 26 48  1  0
 27 49  1  0
 28 50  1  0
 29 51  1  0
 30 52  1  0
 31 53  1  0
 32 54  1  0
 33 55  1  0
M  END
>  <smiles>  (47) 
Cc1cccc(Oc2cccc(N=c3cc(CCl)nc(S(=O)(=O)Cc4ccccc4)[nH]3)c2)c1

>  <score_type>  (47) 
oracle

>  <origin>  (47) 
adg

>  <m_score__min__energy>  (47) 
-11.630000000000001

>  <m_primary>  (47) 
energy

$$$$
47:0
     RDKit          3D

 63 67  0  0  1  0  0  0  0  0999 V2000
   66.9300   27.1130   50.9540 C   0  0  0  0  0  0  0  0  0  0  0  0
   66.6910   28.5090   51.1630 N   0  0  0  0  0  0  0  0  0  0  0  0
   67.7340   29.2150   51.8430 C   0  0  0  0  0  0  0  0  0  0  0  0
   67.5520   30.7000   51.6600 C   0  0  0  0  0  0  0  0  0  0  0  0
   66.3490   30.9540   50.9290 N   0  0  0  0  0  0  0  0  0  0  0  0
   66.0720   32.6120   50.6340 S   0  0  0  0  0  0  0  0  0  0  0  0
   66.1070   33.3890   51.8990 O   0  0  0  0  0  0  0  0  0  0  0  0
   67.1820   33.1320   49.7510 O   0  0  0  0  0  0  0  0  0  0  0  0
   64.5640   32.8450   49.8070 C   0  0  0  0  0  0  0  0  0  0  0  0
   64.4760   33.0510   48.4460 C   0  0  0  0  0  0  0  0  0  0  0  0
   63.2770   33.2370   47.7860 C   0  0  0  0  0  0  0  0  0  0  0  0
   62.1030   33.2110   48.5470 C   0  0  0  0  0  0  0  0  0  0  0  0
   60.8030   33.4070   47.8720 C   0  0  0  0  0  0  0  0  0  0  0  0
   60.1150   34.5920   48.0340 C   0  0  0  0  0  0  0  0  0  0  0  0
   58.8940   34.7420   47.3830 C   0  0  0  0  0  0  0  0  0  0  0  0
   58.4090   33.7130   46.6000 C   0  0  0  0  0  0  0  0  0  0  0  0
   57.2230   33.8440   45.9610 N   0  0  0  0  0  0  0  0  0  0  0  0
   56.7510   32.8410   45.1990 C   0  0  0  0  0  0  0  0  0  0  0  0
   57.4050   31.6760   45.0250 N   0  0  0  0  0  0  0  0  0  0  0  0
   58.5910   31.5440   45.6650 C   0  0  0  0  0  0  0  0  0  0  0  0
   59.2600   30.4570   45.5370 N   0  0  0  0  0  0  0  0  0  0  0  0
   58.6390   29.1770   45.5900 C   0  0  0  0  0  0  0  0  0  0  0  0
   58.3690   28.5450   44.3930 C   0  0  0  0  0  0  0  0  0  0  0  0
   57.7730   27.3110   44.3400 C   0  0  0  0  0  0  0  0  0  0  0  0
   57.4380   26.6970   45.5520 C   0  0  0  0  0  0  0  0  0  0  0  0
   56.6790   25.1240   45.4910 S   0  0  0  0  0  0  0  0  0  0  0  0
   56.6270   24.5460   43.8780 N   0  0  0  0  0  0  0  0  0  0  0  0
   57.4840   24.1600   46.3260 O   0  0  0  0  0  0  0  0  0  0  0  0
   55.2720   25.1710   46.0420 O   0  0  0  0  0  0  0  0  0  0  0  0
   57.7160   27.3430   46.7300 C   0  0  0  0  0  0  0  0  0  0  0  0
   58.3130   28.5820   46.8100 C   0  0  0  0  0  0  0  0  0  0  0  0
   59.1270   32.5330   46.4590 C   0  0  0  0  0  0  0  0  0  0  0  0
   60.3540   32.3620   47.1030 C   0  0  0  0  0  0  0  0  0  0  0  0
   62.1870   33.0050   49.9090 C   0  0  0  0  0  0  0  0  0  0  0  0
   63.3890   32.8200   50.5660 C   0  0  0  0  0  0  0  0  0  0  0  0
   65.2260   30.3430   51.6150 C   0  0  0  0  0  0  0  0  0  0  0  0
   65.3950   28.8400   51.6690 C   0  0  0  0  0  0  0  0  0  0  0  0
   67.0168   26.6062   51.9265 H   0  0  0  0  0  0  0  0  0  0  0  0
   66.0932   26.6785   50.3875 H   0  0  0  0  0  0  0  0  0  0  0  0
   67.8637   26.9816   50.3875 H   0  0  0  0  0  0  0  0  0  0  0  0
   67.6994   28.9727   52.9154 H   0  0  0  0  0  0  0  0  0  0  0  0
   68.7064   28.9151   51.4253 H   0  0  0  0  0  0  0  0  0  0  0  0
   67.4897   31.1845   52.6456 H   0  0  0  0  0  0  0  0  0  0  0  0
   68.4088   31.1050   51.1016 H   0  0  0  0  0  0  0  0  0  0  0  0
   65.4054   33.0680   47.8579 H   0  0  0  0  0  0  0  0  0  0  0  0
   63.2460   33.4001   46.6986 H   0  0  0  0  0  0  0  0  0  0  0  0
   60.5215   35.3983   48.6622 H   0  0  0  0  0  0  0  0  0  0  0  0
   58.3193   35.6737   47.4914 H   0  0  0  0  0  0  0  0  0  0  0  0
   56.6690   34.7200   46.0540 H   0  0  0  0  0  0  0  0  0  0  0  0
   55.7839   32.9787   44.6933 H   0  0  0  0  0  0  0  0  0  0  0  0
   58.6403   29.0467   43.4524 H   0  0  0  0  0  0  0  0  0  0  0  0
   57.5654   26.8206   43.3775 H   0  0  0  0  0  0  0  0  0  0  0  0
   56.4830   25.3100   43.2000 H   0  0  0  0  0  0  0  0  0  0  0  0
   57.4560   23.9560   43.7080 H   0  0  0  0  0  0  0  0  0  0  0  0
   57.4451   26.8399   47.6699 H   0  0  0  0  0  0  0  0  0  0  0  0
   58.5195   29.0711   47.7734 H   0  0  0  0  0  0  0  0  0  0  0  0
   60.9340   31.4331   46.9991 H   0  0  0  0  0  0  0  0  0  0  0  0
   61.2575   32.9873   50.4970 H   0  0  0  0  0  0  0  0  0  0  0  0
   63.4208   32.6579   51.6535 H   0  0  0  0  0  0  0  0  0  0  0  0
   65.1687   30.7383   52.6399 H   0  0  0  0  0  0  0  0  0  0  0  0
   64.3019   30.5787   51.0668 H   0  0  0  0  0  0  0  0  0  0  0  0
   65.3035   28.4938   52.7091 H   0  0  0  0  0  0  0  0  0  0  0  0
   64.6182   28.3521   51.0619 H   0  0  0  0  0  0  0  0  0  0  0  0
  1  2  1  0
  2  3  1  0
  3  4  1  0
  4  5  1  0
  5  6  1  0
  6  7  2  0
  6  8  2  0
  6  9  1  0
  9 10  2  0
 10 11  1  0
 11 12  2  0
 12 13  1  0
 13 14  2  0
 14 15  1  0
 15 16  2  0
 16 17  1  0
 17 18  1  0
 18 19  2  0
 19 20  1  0
 20 21  2  0
 21 22  1  0
 22 23  2  0
 23 24  1  0
 24 25  2  0
 25 26  1  0
 26 27  1  0
 26 28  2  0
 26 29  2  0
 25 30  1  0
 30 31  2  0
 20 32  1  0
 32 33  2  0
 12 34  1  0
 34 35  2  0
  5 36  1  0
 36 37  1  0
 37  2  1  0
 35  9  1  0
 33 13  1  0
 32 16  1  0
 31 22  1  0
  1 38  1  0
  1 39  1  0
  1 40  1  0
  3 41  1  0
  3 42  1  0
  4 43  1  0
  4 44  1  0
 10 45  1  0
 11 46  1  0
 14 47  1  0
 15 48  1  0
 17 49  1  0
 18 50  1  0
 23 51  1  0
 24 52  1  0
 27 53  1  0
 27 54  1  0
 30 55  1  0
 31 56  1  0
 33 57  1  0
 34 58  1  0
 35 59  1  0
 36 60  1  0
 36 61  1  0
 37 62  1  0
 37 63  1  0
M  END
>  <smiles>  (48) 
CN1CCN(S(=O)(=O)c2ccc(-c3ccc4[nH]cnc(=Nc5ccc(S(N)(=O)=O)cc5)c4c3)cc2)CC1

>  <score_type>  (48) 
oracle

>  <origin>  (48) 
adg

>  <m_score__min__energy>  (48) 
-11.27

>  <m_primary>  (48) 
energy

$$$$
48:0
     RDKit          3D

 40 43  0  0  0  0  0  0  0  0999 V2000
   55.8750   28.2150   45.2440 O   0  0  0  0  0  0  0  0  0  0  0  0
   57.0450   28.2320   45.7100 C   0  0  0  0  0  0  0  0  0  0  0  0
   57.5880   29.4840   46.1500 N   0  0  0  0  0  0  0  0  0  0  0  0
   57.7880   30.6650   45.3580 C   0  0  0  0  0  0  0  0  0  0  0  0
   58.1450   31.8970   45.9350 C   0  0  0  0  0  0  0  0  0  0  0  0
   58.3150   33.0280   45.1310 C   0  0  0  0  0  0  0  0  0  0  0  0
   58.1170   32.9420   43.7500 C   0  0  0  0  0  0  0  0  0  0  0  0
   57.7390   31.7260   43.1730 C   0  0  0  0  0  0  0  0  0  0  0  0
   57.5360   31.6460   41.8350 F   0  0  0  0  0  0  0  0  0  0  0  0
   57.5680   30.5940   43.9760 C   0  0  0  0  0  0  0  0  0  0  0  0
   57.8500   26.9850   45.6990 C   0  0  0  0  0  0  0  0  0  0  0  0
   57.3000   25.8320   45.1060 C   0  0  0  0  0  0  0  0  0  0  0  0
   57.9960   24.6240   45.1270 C   0  0  0  0  0  0  0  0  0  0  0  0
   59.2600   24.5510   45.7200 C   0  0  0  0  0  0  0  0  0  0  0  0
   59.8120   25.6750   46.3320 C   0  0  0  0  0  0  0  0  0  0  0  0
   59.1250   26.9030   46.3240 C   0  0  0  0  0  0  0  0  0  0  0  0
   59.7840   28.0810   46.9390 C   0  0  0  0  0  0  0  0  0  0  0  0
   60.5180   28.9830   46.1540 C   0  0  0  0  0  0  0  0  0  0  0  0
   61.1420   30.0760   46.7620 C   0  0  0  0  0  0  0  0  0  0  0  0
   61.0440   30.2560   48.1060 N   0  0  0  0  0  0  0  0  0  0  0  0
   60.3480   29.3920   48.8920 C   0  0  0  0  0  0  0  0  0  0  0  0
   59.7090   28.2870   48.3240 C   0  0  0  0  0  0  0  0  0  0  0  0
   59.9560   23.3380   45.6880 O   0  0  0  0  0  0  0  0  0  0  0  0
   59.5380   22.2670   44.8390 C   0  0  0  0  0  0  0  0  0  0  0  0
   58.0070   22.1810   44.8110 C   0  0  0  0  0  0  0  0  0  0  0  0
   57.4430   23.4710   44.5610 O   0  0  0  0  0  0  0  0  0  0  0  0
   58.2910   31.9709   47.0228 H   0  0  0  0  0  0  0  0  0  0  0  0
   58.6049   33.9867   45.5857 H   0  0  0  0  0  0  0  0  0  0  0  0
   58.2585   33.8307   43.1175 H   0  0  0  0  0  0  0  0  0  0  0  0
   57.2589   29.6419   43.5199 H   0  0  0  0  0  0  0  0  0  0  0  0
   56.3134   25.8849   44.6224 H   0  0  0  0  0  0  0  0  0  0  0  0
   60.7925   25.6015   46.8252 H   0  0  0  0  0  0  0  0  0  0  0  0
   60.6018   28.8311   45.0678 H   0  0  0  0  0  0  0  0  0  0  0  0
   61.7131   30.7915   46.1522 H   0  0  0  0  0  0  0  0  0  0  0  0
   60.2879   29.5633   49.9769 H   0  0  0  0  0  0  0  0  0  0  0  0
   59.1508   27.5833   48.9590 H   0  0  0  0  0  0  0  0  0  0  0  0
   59.9108   22.4447   43.8195 H   0  0  0  0  0  0  0  0  0  0  0  0
   59.9439   21.3213   45.2274 H   0  0  0  0  0  0  0  0  0  0  0  0
   57.6968   21.4886   44.0146 H   0  0  0  0  0  0  0  0  0  0  0  0
   57.6507   21.8170   45.7860 H   0  0  0  0  0  0  0  0  0  0  0  0
  1  2  2  0
  2  3  1  0
  3  4  1  0
  4  5  2  0
  5  6  1  0
  6  7  2  0
  7  8  1  0
  8  9  1  0
  8 10  2  0
  2 11  1  0
 11 12  2  0
 12 13  1  0
 13 14  2  0
 14 15  1  0
 15 16  2  0
 16 17  1  0
 17 18  2  0
 18 19  1  0
 19 20  2  0
 20 21  1  0
 21 22  2  0
 14 23  1  0
 23 24  1  0
 24 25  1  0
 25 26  1  0
 10  4  1  0
 16 11  1  0
 22 17  1  0
 26 13  1  0
  5 27  1  0
  6 28  1  0
  7 29  1  0
 10 30  1  0
 12 31  1  0
 15 32  1  0
 18 33  1  0
 19 34  1  0
 21 35  1  0
 22 36  1  0
 24 37  1  0
 24 38  1  0
 25 39  1  0
 25 40  1  0
M  CHG  1   3  -1
M  END
>  <UniqueID>  (49) 
42

>  <SMILES>  (49) 
O=C([N-]c1cccc(F)c1)c1cc2c(cc1-c1ccncc1)OCCO2

>  <Energy>  (49) 
61.05621375334965

>  <Genealogy>  (49) 
O=C([N-]c1cccc(F)c1)c1cc2c(cc1-c1ccncc1)OCCO2 (protonated)
O=C([N-]c1cccc(F)c1)c1cc2c(cc1-c1ccncc1)OCCO2 (3D coordinates assigned)
O=C([N-]c1cccc(F)c1)c1cc2c(cc1-c1ccncc1)OCCO2 (nonaromatic ring conformer: 61.05621375334965 kcal/mol)

>  <smiles>  (49) 
O=C(Nc1cccc(F)c1)c1cc2c(cc1-c1ccncc1)OCCO2

>  <score_type>  (49) 
oracle

>  <origin>  (49) 
adg

>  <m_score__min__energy>  (49) 
-8.5

>  <m_primary>  (49) 
energy

$$$$
49:0
     RDKit          3D

 45 47  0  0  0  0  0  0  0  0999 V2000
   54.7030   26.2730   45.9850 N   0  0  0  0  0  0  0  0  0  0  0  0
   56.2400   25.4870   46.0460 S   0  0  0  0  0  0  0  0  0  0  0  0
   56.1180   24.1260   45.4210 O   0  0  0  0  0  0  0  0  0  0  0  0
   56.6750   25.3430   47.4780 O   0  0  0  0  0  0  0  0  0  0  0  0
   57.4150   26.3940   45.1570 N   0  0  0  0  0  0  0  0  0  0  0  0
   57.7840   27.7590   45.3940 C   0  0  0  0  0  0  0  0  0  0  0  0
   59.1020   28.0230   45.7760 C   0  0  0  0  0  0  0  0  0  0  0  0
   59.5330   29.3360   45.9780 C   0  0  0  0  0  0  0  0  0  0  0  0
   58.6410   30.4080   45.8180 C   0  0  0  0  0  0  0  0  0  0  0  0
   59.0980   31.8010   46.0260 C   0  0  0  0  0  0  0  0  0  0  0  0
   60.3700   32.0440   46.5750 C   0  0  0  0  0  0  0  0  0  0  0  0
   60.8380   33.3580   46.7410 C   0  0  0  0  0  0  0  0  0  0  0  0
   62.2420   33.6100   47.2290 C   0  0  0  0  0  0  0  0  0  0  0  0
   62.3900   33.2290   48.6330 N   0  0  0  0  0  0  0  0  0  0  0  0
   62.0070   34.0530   49.7390 C   0  0  0  0  0  0  0  0  0  0  0  0
   62.8960   34.6830   50.3710 O   0  0  0  0  0  0  0  0  0  0  0  0
   60.6230   34.2260   50.0650 N   0  0  0  0  0  0  0  0  0  0  0  0
   59.7350   33.1850   50.4900 C   0  0  0  0  0  0  0  0  0  0  0  0
   59.7650   31.9600   49.8110 C   0  0  0  0  0  0  0  0  0  0  0  0
   58.9030   30.9210   50.1810 C   0  0  0  0  0  0  0  0  0  0  0  0
   58.9270   29.4150   49.2760 Cl  0  0  0  0  0  0  0  0  0  0  0  0
   58.0230   31.0910   51.2590 C   0  0  0  0  0  0  0  0  0  0  0  0
   57.1620   30.0570   51.6270 O   0  0  0  0  0  0  0  0  0  0  0  0
   58.0160   32.3030   51.9660 C   0  0  0  0  0  0  0  0  0  0  0  0
   58.8720   33.3460   51.5920 C   0  0  0  0  0  0  0  0  0  0  0  0
   58.8780   34.5200   52.3360 O   0  0  0  0  0  0  0  0  0  0  0  0
   60.0060   34.4360   46.3980 C   0  0  0  0  0  0  0  0  0  0  0  0
   58.7360   34.2040   45.8680 C   0  0  0  0  0  0  0  0  0  0  0  0
   58.2810   32.8950   45.6750 C   0  0  0  0  0  0  0  0  0  0  0  0
   57.0100   32.6930   45.1490 O   0  0  0  0  0  0  0  0  0  0  0  0
   57.3060   30.1440   45.4800 C   0  0  0  0  0  0  0  0  0  0  0  0
   56.8750   28.8300   45.2680 C   0  0  0  0  0  0  0  0  0  0  0  0
   55.5670   28.6170   44.9840 F   0  0  0  0  0  0  0  0  0  0  0  0
   54.7610   27.0930   46.6270 H   0  0  0  0  0  0  0  0  0  0  0  0
   59.8058   27.1898   45.9188 H   0  0  0  0  0  0  0  0  0  0  0  0
   60.5771   29.5311   46.2640 H   0  0  0  0  0  0  0  0  0  0  0  0
   61.0040   31.1974   46.8771 H   0  0  0  0  0  0  0  0  0  0  0  0
   62.9443   33.0206   46.6213 H   0  0  0  0  0  0  0  0  0  0  0  0
   62.4557   34.6850   47.1353 H   0  0  0  0  0  0  0  0  0  0  0  0
   60.4714   31.8135   48.9806 H   0  0  0  0  0  0  0  0  0  0  0  0
   56.9660   29.8510   52.6000 H   0  0  0  0  0  0  0  0  0  0  0  0
   57.3341   32.4345   52.8190 H   0  0  0  0  0  0  0  0  0  0  0  0
   60.3568   35.4678   46.5477 H   0  0  0  0  0  0  0  0  0  0  0  0
   58.0902   35.0535   45.6010 H   0  0  0  0  0  0  0  0  0  0  0  0
   56.5928   30.9756   45.3809 H   0  0  0  0  0  0  0  0  0  0  0  0
  1  2  1  0
  2  3  2  0
  2  4  2  0
  2  5  1  0
  5  6  1  0
  6  7  2  0
  7  8  1  0
  8  9  2  0
  9 10  1  0
 10 11  2  0
 11 12  1  0
 12 13  1  0
 13 14  1  0
 14 15  1  0
 15 16  2  0
 15 17  1  0
 17 18  1  0
 18 19  2  0
 19 20  1  0
 20 21  1  0
 20 22  2  0
 22 23  1  0
 22 24  1  0
 24 25  2  0
 25 26  1  0
 12 27  2  0
 27 28  1  0
 28 29  2  0
 29 30  1  0
  9 31  1  0
 31 32  2  0
 32 33  1  0
 32  6  1  0
 29 10  1  0
 25 18  1  0
  1 34  1  0
  7 35  1  0
  8 36  1  0
 11 37  1  0
 13 38  1  0
 13 39  1  0
 19 40  1  0
 23 41  1  0
 24 42  1  0
 27 43  1  0
 28 44  1  0
 31 45  1  0
M  CHG  6   1  -1   5  -1  14  -1  17  -1  26  -1  30  -1
M  END
>  <UniqueID>  (50) 
43

>  <SMILES>  (50) 
[NH-]S(=O)(=O)[N-]c1ccc(-c2cc(C[N-]C(=O)[N-]c3cc(Cl)c(O)cc3[O-])ccc2[O-])cc1F

>  <Energy>  (50) 
61.906580484728025

>  <Genealogy>  (50) 
[NH-]S(=O)(=O)[N-]c1ccc(-c2cc(C[N-]C(=O)[N-]c3cc(Cl)c(O)cc3[O-])ccc2[O-])cc1F (protonated)
[NH-]S(=O)(=O)[N-]c1ccc(-c2cc(C[N-]C(=O)[N-]c3cc(Cl)c(O)cc3[O-])ccc2[O-])cc1F (3D coordinates assigned)
[NH-]S(=O)(=O)[N-]c1ccc(-c2cc(C[N-]C(=O)[N-]c3cc(Cl)c(O)cc3[O-])ccc2[O-])cc1F (optimized conformer: 61.906580484728025 kcal/mol)

>  <smiles>  (50) 
NS(=O)(=O)Nc1ccc(-c2cc(CNC(=O)Nc3cc(Cl)c(O)cc3O)ccc2O)cc1F

>  <score_type>  (50) 
oracle

>  <origin>  (50) 
adg

>  <m_score__min__energy>  (50) 
-17.699999999999999

>  <m_primary>  (50) 
energy

$$$$
50:0
     RDKit          3D

 55 58  0  0  0  0  0  0  0  0999 V2000
   55.8680   19.3310   44.2980 C   0  0  0  0  0  0  0  0  0  0  0  0
   56.1940   20.3570   43.3650 O   0  0  0  0  0  0  0  0  0  0  0  0
   56.4740   21.6860   43.7150 C   0  0  0  0  0  0  0  0  0  0  0  0
   56.0330   22.7800   42.9470 C   0  0  0  0  0  0  0  0  0  0  0  0
   56.3380   24.0870   43.3390 C   0  0  0  0  0  0  0  0  0  0  0  0
   57.0890   24.3240   44.5020 C   0  0  0  0  0  0  0  0  0  0  0  0
   57.4050   25.6680   44.9030 N   0  0  0  0  0  0  0  0  0  0  0  0
   58.0970   26.6480   44.1440 C   0  0  0  0  0  0  0  0  0  0  0  0
   58.4680   26.4810   42.9500 O   0  0  0  0  0  0  0  0  0  0  0  0
   58.2770   27.8770   44.9110 C   0  0  0  0  0  0  0  0  0  0  0  0
   58.9050   28.9740   44.4640 C   0  0  0  0  0  0  0  0  0  0  0  0
   58.8920   30.2440   45.2150 C   0  0  0  0  0  0  0  0  0  0  0  0
   59.9990   30.5630   46.0110 C   0  0  0  0  0  0  0  0  0  0  0  0
   60.0710   31.7950   46.6570 C   0  0  0  0  0  0  0  0  0  0  0  0
   59.0410   32.7230   46.5140 C   0  0  0  0  0  0  0  0  0  0  0  0
   57.9130   32.4240   45.7260 C   0  0  0  0  0  0  0  0  0  0  0  0
   56.8580   33.3390   45.5790 O   0  0  0  0  0  0  0  0  0  0  0  0
   56.9590   34.5900   44.9070 C   0  0  0  0  0  0  0  0  0  0  0  0
   57.8300   31.1710   45.0760 C   0  0  0  0  0  0  0  0  0  0  0  0
   56.6900   30.8670   44.2460 N   0  0  0  0  0  0  0  0  0  0  0  0
   56.6710   31.2110   43.0470 O   0  0  0  0  0  0  0  0  0  0  0  0
   55.5840   30.2470   44.7770 O   0  0  0  0  0  0  0  0  0  0  0  0
   57.6520   27.6810   46.2740 C   0  0  2  0  0  0  0  0  0  0  0  0
   58.6650   27.8200   47.3920 C   0  0  0  0  0  0  0  0  0  0  0  0
   59.7370   26.9200   47.4760 C   0  0  0  0  0  0  0  0  0  0  0  0
   60.6450   27.0000   48.5320 C   0  0  0  0  0  0  0  0  0  0  0  0
   60.4970   27.9820   49.5130 C   0  0  0  0  0  0  0  0  0  0  0  0
   59.4360   28.9020   49.4470 C   0  0  0  0  0  0  0  0  0  0  0  0
   59.2740   29.9110   50.4600 N   0  0  0  0  0  0  0  0  0  0  0  0
   60.2040   30.7010   50.7250 O   0  0  0  0  0  0  0  0  0  0  0  0
   58.0940   30.0190   51.1590 O   0  0  0  0  0  0  0  0  0  0  0  0
   58.5220   28.8120   48.3810 C   0  0  0  0  0  0  0  0  0  0  0  0
   57.1360   26.2730   46.1670 C   0  0  0  0  0  0  0  0  0  0  0  0
   56.5480   25.6740   47.1080 O   0  0  0  0  0  0  0  0  0  0  0  0
   57.5280   23.2310   45.2660 C   0  0  0  0  0  0  0  0  0  0  0  0
   57.2200   21.9250   44.8740 C   0  0  0  0  0  0  0  0  0  0  0  0
   55.9898   19.7143   45.3219 H   0  0  0  0  0  0  0  0  0  0  0  0
   54.8253   19.0152   44.1463 H   0  0  0  0  0  0  0  0  0  0  0  0
   56.5372   18.4713   44.1463 H   0  0  0  0  0  0  0  0  0  0  0  0
   55.4453   22.6058   42.0336 H   0  0  0  0  0  0  0  0  0  0  0  0
   55.9875   24.9352   42.7326 H   0  0  0  0  0  0  0  0  0  0  0  0
   59.4467   28.9257   43.5078 H   0  0  0  0  0  0  0  0  0  0  0  0
   60.8166   29.8363   46.1269 H   0  0  0  0  0  0  0  0  0  0  0  0
   60.9435   32.0362   47.2820 H   0  0  0  0  0  0  0  0  0  0  0  0
   59.1098   33.6969   47.0208 H   0  0  0  0  0  0  0  0  0  0  0  0
   57.0244   35.4001   45.6482 H   0  0  0  0  0  0  0  0  0  0  0  0
   57.8605   34.5960   44.2768 H   0  0  0  0  0  0  0  0  0  0  0  0
   56.0701   34.7405   44.2768 H   0  0  0  0  0  0  0  0  0  0  0  0
   56.8815   28.4270   46.5187 H   0  0  0  0  0  0  0  0  0  0  0  0
   59.8627   26.1461   46.7044 H   0  0  0  0  0  0  0  0  0  0  0  0
   61.4804   26.2869   48.5919 H   0  0  0  0  0  0  0  0  0  0  0  0
   61.2159   28.0364   50.3438 H   0  0  0  0  0  0  0  0  0  0  0  0
   57.6863   29.5246   48.3196 H   0  0  0  0  0  0  0  0  0  0  0  0
   58.1178   23.4033   46.1784 H   0  0  0  0  0  0  0  0  0  0  0  0
   57.5675   21.0772   45.4827 H   0  0  0  0  0  0  0  0  0  0  0  0
  1  2  1  0
  2  3  1  0
  3  4  2  0
  4  5  1  0
  5  6  2  0
  6  7  1  0
  7  8  1  0
  8  9  2  0
  8 10  1  0
 10 11  2  3
 11 12  1  0
 12 13  2  0
 13 14  1  0
 14 15  2  0
 15 16  1  0
 16 17  1  0
 17 18  1  0
 16 19  2  0
 19 20  1  0
 20 21  2  0
 20 22  1  0
 10 23  1  0
 23 24  1  0
 24 25  2  0
 25 26  1  0
 26 27  2  0
 27 28  1  0
 28 29  1  0
 29 30  2  0
 29 31  1  0
 28 32  2  0
 23 33  1  0
 33 34  2  0
  6 35  1  0
 35 36  2  0
 36  3  1  0
 33  7  1  0
 19 12  1  0
 32 24  1  0
  1 37  1  0
  1 38  1  0
  1 39  1  0
  4 40  1  0
  5 41  1  0
 11 42  1  0
 13 43  1  0
 14 44  1  0
 15 45  1  0
 18 46  1  0
 18 47  1  0
 18 48  1  0
 23 49  1  1
 25 50  1  0
 26 51  1  0
 27 52  1  0
 32 53  1  0
 35 54  1  0
 36 55  1  0
M  CHG  4  20   1  22  -1  29   1  31  -1
M  END
>  <UniqueID>  (51) 
44

>  <SMILES>  (51) 
COc1ccc(N2C(=O)C(=Cc3cccc(OC)c3[N+](=O)[O-])[C@H](c3cccc([N+](=O)[O-])c3)C2=O)cc1

>  <Energy>  (51) 
90.51924829068007

>  <Genealogy>  (51) 
COc1ccc(N2C(=O)C(=Cc3cccc(OC)c3[N+](=O)[O-])[C@H](c3cccc([N+](=O)[O-])c3)C2=O)cc1 (chirality)
COc1ccc(N2C(=O)C(=Cc3cccc(OC)c3[N+](=O)[O-])[C@H](c3cccc([N+](=O)[O-])c3)C2=O)cc1 (3D coordinates assigned)
COc1ccc(N2C(=O)C(=Cc3cccc(OC)c3[N+](=O)[O-])[C@H](c3cccc([N+](=O)[O-])c3)C2=O)cc1 (nonaromatic ring conformer: 90.51924829068007 kcal/mol)

>  <smiles>  (51) 
COc1ccc(N2C(=O)C(=Cc3cccc(OC)c3[N+](=O)[O-])C(c3cccc([N+](=O)[O-])c3)C2=O)cc1

>  <score_type>  (51) 
oracle

>  <origin>  (51) 
adg

>  <m_score__min__energy>  (51) 
-9.1099999999999994

>  <m_primary>  (51) 
energy

$$$$
51:0
     RDKit          3D

 50 53  0  0  0  0  0  0  0  0999 V2000
   57.0300   31.1190   45.4540 O   0  0  0  0  0  0  0  0  0  0  0  0
   58.2710   31.3180   45.5010 C   0  0  0  0  0  0  0  0  0  0  0  0
   59.1970   30.2230   45.3900 N   0  0  0  0  0  0  0  0  0  0  0  0
   58.8690   28.8620   45.7150 C   0  0  0  0  0  0  0  0  0  0  0  0
   59.5250   28.2370   46.7840 C   0  0  0  0  0  0  0  0  0  0  0  0
   59.1710   26.9410   47.1700 C   0  0  0  0  0  0  0  0  0  0  0  0
   58.1780   26.2410   46.4600 C   0  0  0  0  0  0  0  0  0  0  0  0
   57.7370   24.8820   46.9300 C   0  0  0  0  0  0  0  0  0  0  0  0
   57.2460   24.0880   45.7900 N   0  0  0  0  0  0  0  0  0  0  0  0
   58.1050   23.2430   45.1500 C   0  0  0  0  0  0  0  0  0  0  0  0
   57.6660   22.4660   44.0750 C   0  0  0  0  0  0  0  0  0  0  0  0
   56.3380   22.5650   43.6760 C   0  0  0  0  0  0  0  0  0  0  0  0
   55.9100   21.8900   42.7000 O   0  0  0  0  0  0  0  0  0  0  0  0
   55.5000   23.3940   44.3440 N   0  0  0  0  0  0  0  0  0  0  0  0
   55.9340   24.1470   45.3920 C   0  0  0  0  0  0  0  0  0  0  0  0
   55.1160   24.8950   45.9870 O   0  0  0  0  0  0  0  0  0  0  0  0
   57.5610   26.8440   45.3560 C   0  0  0  0  0  0  0  0  0  0  0  0
   57.9060   28.1410   44.9860 C   0  0  0  0  0  0  0  0  0  0  0  0
   58.7600   32.6950   45.6990 C   0  0  0  0  0  0  0  0  0  0  0  0
   58.4720   33.6660   44.7320 C   0  0  0  0  0  0  0  0  0  0  0  0
   58.9550   34.9620   44.8790 C   0  0  0  0  0  0  0  0  0  0  0  0
   59.7260   35.2830   45.9950 C   0  0  0  0  0  0  0  0  0  0  0  0
   59.9690   34.3480   46.9430 N   0  0  0  0  0  0  0  0  0  0  0  0
   59.5060   33.0730   46.8420 C   0  0  0  0  0  0  0  0  0  0  0  0
   59.6690   32.1890   47.9700 N   0  0  0  0  0  0  0  0  0  0  0  0
   58.5370   32.0580   48.9040 C   0  0  0  0  0  0  0  0  0  0  0  0
   58.6580   30.8330   49.8430 C   0  0  0  0  0  0  0  0  0  0  0  0
   59.3420   29.7730   49.2090 O   0  0  0  0  0  0  0  0  0  0  0  0
   60.6860   30.1630   49.0100 C   0  0  0  0  0  0  0  0  0  0  0  0
   60.7690   31.2080   47.9000 C   0  0  0  0  0  0  0  0  0  0  0  0
   60.2110   30.4550   45.2910 H   0  0  0  0  0  0  0  0  0  0  0  0
   60.3230   28.7693   47.3224 H   0  0  0  0  0  0  0  0  0  0  0  0
   59.6690   26.4680   48.0293 H   0  0  0  0  0  0  0  0  0  0  0  0
   58.5885   24.3635   47.3949 H   0  0  0  0  0  0  0  0  0  0  0  0
   56.9257   24.9999   47.6634 H   0  0  0  0  0  0  0  0  0  0  0  0
   59.1511   23.1729   45.4829 H   0  0  0  0  0  0  0  0  0  0  0  0
   58.3584   21.7884   43.5540 H   0  0  0  0  0  0  0  0  0  0  0  0
   56.8031   26.2919   44.7809 H   0  0  0  0  0  0  0  0  0  0  0  0
   57.4209   28.6064   44.1153 H   0  0  0  0  0  0  0  0  0  0  0  0
   57.8627   33.4033   43.8546 H   0  0  0  0  0  0  0  0  0  0  0  0
   58.7305   35.7270   44.1211 H   0  0  0  0  0  0  0  0  0  0  0  0
   60.1374   36.2972   46.1054 H   0  0  0  0  0  0  0  0  0  0  0  0
   58.4860   32.9673   49.5208 H   0  0  0  0  0  0  0  0  0  0  0  0
   57.6293   31.9169   48.2989 H   0  0  0  0  0  0  0  0  0  0  0  0
   59.2103   31.1269   50.7478 H   0  0  0  0  0  0  0  0  0  0  0  0
   57.6456   30.4901   50.1027 H   0  0  0  0  0  0  0  0  0  0  0  0
   61.0830   30.5903   49.9427 H   0  0  0  0  0  0  0  0  0  0  0  0
   61.2780   29.2821   48.7208 H   0  0  0  0  0  0  0  0  0  0  0  0
   61.7260   31.7430   47.9888 H   0  0  0  0  0  0  0  0  0  0  0  0
   60.6900   30.6824   46.9369 H   0  0  0  0  0  0  0  0  0  0  0  0
  1  2  2  0
  2  3  1  0
  3  4  1  0
  4  5  2  0
  5  6  1  0
  6  7  2  0
  7  8  1  0
  8  9  1  0
  9 10  1  0
 10 11  2  0
 11 12  1  0
 12 13  2  0
 12 14  1  0
 14 15  1  0
 15 16  2  0
  7 17  1  0
 17 18  2  0
  2 19  1  0
 19 20  2  0
 20 21  1  0
 21 22  2  0
 22 23  1  0
 23 24  2  0
 24 25  1  0
 25 26  1  0
 26 27  1  0
 27 28  1  0
 28 29  1  0
 29 30  1  0
 18  4  1  0
 24 19  1  0
 30 25  1  0
 15  9  1  0
  3 31  1  0
  5 32  1  0
  6 33  1  0
  8 34  1  0
  8 35  1  0
 10 36  1  0
 11 37  1  0
 17 38  1  0
 18 39  1  0
 20 40  1  0
 21 41  1  0
 22 42  1  0
 26 43  1  0
 26 44  1  0
 27 45  1  0
 27 46  1  0
 29 47  1  0
 29 48  1  0
 30 49  1  0
 30 50  1  0
M  CHG  1  14  -1
M  END
>  <UniqueID>  (52) 
45

>  <SMILES>  (52) 
O=C(Nc1ccc(Cn2ccc(=O)[n-]c2=O)cc1)c1cccnc1N1CCOCC1

>  <Energy>  (52) 
73.97905267300919

>  <Genealogy>  (52) 
O=C(Nc1ccc(Cn2ccc(=O)[n-]c2=O)cc1)c1cccnc1N1CCOCC1 (protonated)
O=C(Nc1ccc(Cn2ccc(=O)[n-]c2=O)cc1)c1cccnc1N1CCOCC1 (3D coordinates assigned)
O=C(Nc1ccc(Cn2ccc(=O)[n-]c2=O)cc1)c1cccnc1N1CCOCC1 (nonaromatic ring conformer: 73.97905267300919 kcal/mol)

>  <smiles>  (52) 
O=C(Nc1ccc(Cn2ccc(=O)[nH]c2=O)cc1)c1cccnc1N1CCOCC1

>  <score_type>  (52) 
oracle

>  <origin>  (52) 
adg

>  <m_score__min__energy>  (52) 
-10.4

>  <m_primary>  (52) 
energy

$$$$
52:0
     RDKit          3D

 71 75  0  0  0  0  0  0  0  0999 V2000
   58.9180   33.6110   55.5670 C   0  0  0  0  0  0  0  0  0  0  0  0
   58.9800   34.5310   54.4280 N   0  0  0  0  0  0  0  0  0  0  0  0
   59.3270   35.9320   54.6600 C   0  0  0  0  0  0  0  0  0  0  0  0
   58.5990   34.1090   53.1070 C   0  0  0  0  0  0  0  0  0  0  0  0
   57.9170   34.8880   52.3860 O   0  0  0  0  0  0  0  0  0  0  0  0
   59.0090   32.7920   52.5620 C   0  0  0  0  0  0  0  0  0  0  0  0
   60.3670   32.4790   52.3800 C   0  0  0  0  0  0  0  0  0  0  0  0
   60.7440   31.2440   51.8460 C   0  0  0  0  0  0  0  0  0  0  0  0
   59.7720   30.3000   51.4720 C   0  0  0  0  0  0  0  0  0  0  0  0
   60.1700   28.9940   50.8860 C   0  0  0  0  0  0  0  0  0  0  0  0
   60.0240   28.7600   49.5120 C   0  0  0  0  0  0  0  0  0  0  0  0
   60.4140   27.5350   48.9730 C   0  0  0  0  0  0  0  0  0  0  0  0
   60.2610   27.3190   47.5970 O   0  0  0  0  0  0  0  0  0  0  0  0
   59.4640   28.0740   46.7230 C   0  0  0  0  0  0  0  0  0  0  0  0
   58.1070   27.7800   46.4780 C   0  0  0  0  0  0  0  0  0  0  0  0
   57.3470   28.6050   45.6430 C   0  0  0  0  0  0  0  0  0  0  0  0
   57.9170   29.7530   45.0730 C   0  0  0  0  0  0  0  0  0  0  0  0
   57.1050   30.6870   44.2710 C   0  0  0  0  0  0  0  0  0  0  0  0
   56.8420   30.3910   43.0770 O   0  0  0  0  0  0  0  0  0  0  0  0
   56.6400   31.9430   44.7810 N   0  0  0  0  0  0  0  0  0  0  0  0
   57.5800   33.3940   44.9510 S   0  0  0  0  0  0  0  0  0  0  0  0
   56.6630   34.5820   44.8710 O   0  0  0  0  0  0  0  0  0  0  0  0
   58.5690   33.4710   43.8240 O   0  0  0  0  0  0  0  0  0  0  0  0
   58.4740   33.4120   46.4730 C   0  0  0  0  0  0  0  0  0  0  0  0
   58.1970   32.4580   47.4620 C   0  0  0  0  0  0  0  0  0  0  0  0
   58.8650   32.5040   48.6910 C   0  0  0  0  0  0  0  0  0  0  0  0
   59.8190   33.4970   48.9330 C   0  0  0  0  0  0  0  0  0  0  0  0
   60.1060   34.4440   47.9460 C   0  0  0  0  0  0  0  0  0  0  0  0
   59.4410   34.3990   46.7170 C   0  0  0  0  0  0  0  0  0  0  0  0
   59.2750   30.0240   45.2870 C   0  0  0  0  0  0  0  0  0  0  0  0
   60.0370   29.1930   46.1120 C   0  0  0  0  0  0  0  0  0  0  0  0
   60.9680   26.5910   49.7790 N   0  0  0  0  0  0  0  0  0  0  0  0
   61.1300   26.7650   51.1220 C   0  0  0  0  0  0  0  0  0  0  0  0
   61.7210   25.6960   51.9080 N   0  0  0  0  0  0  0  0  0  0  0  0
   60.9200   24.5230   52.3070 C   0  0  0  0  0  0  0  0  0  0  0  0
   61.6240   23.6580   53.3560 C   0  0  0  0  0  0  0  0  0  0  0  0
   62.9870   23.4840   53.0460 O   0  0  0  0  0  0  0  0  0  0  0  0
   63.6420   24.7250   53.1670 C   0  0  0  0  0  0  0  0  0  0  0  0
   63.1870   25.6830   52.0660 C   0  0  0  0  0  0  0  0  0  0  0  0
   60.7110   27.9820   51.6970 C   0  0  0  0  0  0  0  0  0  0  0  0
   58.4140   30.6180   51.6440 C   0  0  0  0  0  0  0  0  0  0  0  0
   58.0380   31.8540   52.1780 C   0  0  0  0  0  0  0  0  0  0  0  0
   58.9567   34.1850   56.5045 H   0  0  0  0  0  0  0  0  0  0  0  0
   57.9793   33.0391   55.5257 H   0  0  0  0  0  0  0  0  0  0  0  0
   59.7715   32.9183   55.5257 H   0  0  0  0  0  0  0  0  0  0  0  0
   59.3745   36.1236   55.7421 H   0  0  0  0  0  0  0  0  0  0  0  0
   60.3056   36.1474   54.2062 H   0  0  0  0  0  0  0  0  0  0  0  0
   58.5620   36.5792   54.2062 H   0  0  0  0  0  0  0  0  0  0  0  0
   61.1385   33.2114   52.6599 H   0  0  0  0  0  0  0  0  0  0  0  0
   61.8107   31.0085   51.7172 H   0  0  0  0  0  0  0  0  0  0  0  0
   59.6030   29.5404   48.8610 H   0  0  0  0  0  0  0  0  0  0  0  0
   57.6444   26.8983   46.9455 H   0  0  0  0  0  0  0  0  0  0  0  0
   56.2973   28.3526   45.4322 H   0  0  0  0  0  0  0  0  0  0  0  0
   57.4525   31.6710   47.2716 H   0  0  0  0  0  0  0  0  0  0  0  0
   58.6392   31.7581   49.4673 H   0  0  0  0  0  0  0  0  0  0  0  0
   60.3432   33.5329   49.8994 H   0  0  0  0  0  0  0  0  0  0  0  0
   60.8561   35.2258   48.1364 H   0  0  0  0  0  0  0  0  0  0  0  0
   59.6767   35.1398   45.9388 H   0  0  0  0  0  0  0  0  0  0  0  0
   59.7429   30.8943   44.8036 H   0  0  0  0  0  0  0  0  0  0  0  0
   61.0993   29.4218   46.2826 H   0  0  0  0  0  0  0  0  0  0  0  0
   59.9645   24.8742   52.7238 H   0  0  0  0  0  0  0  0  0  0  0  0
   60.7686   23.9028   51.4112 H   0  0  0  0  0  0  0  0  0  0  0  0
   61.5396   24.1463   54.3381 H   0  0  0  0  0  0  0  0  0  0  0  0
   61.1425   22.6691   53.3699 H   0  0  0  0  0  0  0  0  0  0  0  0
   63.4069   25.1638   54.1479 H   0  0  0  0  0  0  0  0  0  0  0  0
   64.7261   24.5646   53.0719 H   0  0  0  0  0  0  0  0  0  0  0  0
   63.5248   26.6989   52.3188 H   0  0  0  0  0  0  0  0  0  0  0  0
   63.6253   25.3390   51.1175 H   0  0  0  0  0  0  0  0  0  0  0  0
   60.8076   28.1395   52.7814 H   0  0  0  0  0  0  0  0  0  0  0  0
   57.6417   29.8894   51.3565 H   0  0  0  0  0  0  0  0  0  0  0  0
   56.9712   32.0937   52.2984 H   0  0  0  0  0  0  0  0  0  0  0  0
  1  2  1  0
  2  3  1  0
  2  4  1  0
  4  5  2  0
  4  6  1  0
  6  7  2  0
  7  8  1  0
  8  9  2  0
  9 10  1  0
 10 11  2  0
 11 12  1  0
 12 13  1  0
 13 14  1  0
 14 15  2  0
 15 16  1  0
 16 17  2  0
 17 18  1  0
 18 19  2  0
 18 20  1  0
 20 21  1  0
 21 22  2  0
 21 23  2  0
 21 24  1  0
 24 25  2  0
 25 26  1  0
 26 27  2  0
 27 28  1  0
 28 29  2  0
 17 30  1  0
 30 31  2  0
 12 32  2  0
 32 33  1  0
 33 34  1  0
 34 35  1  0
 35 36  1  0
 36 37  1  0
 37 38  1  0
 38 39  1  0
 33 40  2  0
  9 41  1  0
 41 42  2  0
 42  6  1  0
 40 10  1  0
 31 14  1  0
 39 34  1  0
 29 24  1  0
  1 43  1  0
  1 44  1  0
  1 45  1  0
  3 46  1  0
  3 47  1  0
  3 48  1  0
  7 49  1  0
  8 50  1  0
 11 51  1  0
 15 52  1  0
 16 53  1  0
 25 54  1  0
 26 55  1  0
 27 56  1  0
 28 57  1  0
 29 58  1  0
 30 59  1  0
 31 60  1  0
 35 61  1  0
 35 62  1  0
 36 63  1  0
 36 64  1  0
 38 65  1  0
 38 66  1  0
 39 67  1  0
 39 68  1  0
 40 69  1  0
 41 70  1  0
 42 71  1  0
M  CHG  1  20  -1
M  END
>  <UniqueID>  (53) 
46

>  <SMILES>  (53) 
CN(C)C(=O)c1ccc(-c2cc(Oc3ccc(C(=O)[N-]S(=O)(=O)c4ccccc4)cc3)nc(N3CCOCC3)c2)cc1

>  <Energy>  (53) 
99.72821207590493

>  <Genealogy>  (53) 
CN(C)C(=O)c1ccc(-c2cc(Oc3ccc(C(=O)[N-]S(=O)(=O)c4ccccc4)cc3)nc(N3CCOCC3)c2)cc1 (protonated)
CN(C)C(=O)c1ccc(-c2cc(Oc3ccc(C(=O)[N-]S(=O)(=O)c4ccccc4)cc3)nc(N3CCOCC3)c2)cc1 (3D coordinates assigned)
CN(C)C(=O)c1ccc(-c2cc(Oc3ccc(C(=O)[N-]S(=O)(=O)c4ccccc4)cc3)nc(N3CCOCC3)c2)cc1 (nonaromatic ring conformer: 99.72821207590493 kcal/mol)

>  <smiles>  (53) 
CN(C)C(=O)c1ccc(-c2cc(Oc3ccc(C(=O)NS(=O)(=O)c4ccccc4)cc3)nc(N3CCOCC3)c2)cc1

>  <score_type>  (53) 
oracle

>  <origin>  (53) 
adg

>  <m_score__min__energy>  (53) 
-11.380000000000001

>  <m_primary>  (53) 
energy

$$$$
53:0
     RDKit          3D

 50 52  0  0  0  0  0  0  0  0999 V2000
   58.9740   28.7560   44.4800 C   0  0  0  0  0  0  0  0  0  0  0  0
   58.5740   29.2290   45.8080 N   0  0  0  0  0  0  0  0  0  0  0  0
   58.3540   28.3110   46.8990 C   0  0  0  0  0  0  0  0  0  0  0  0
   58.1420   28.7610   48.0590 O   0  0  0  0  0  0  0  0  0  0  0  0
   58.4190   26.8220   46.6870 C   0  0  0  0  0  0  0  0  0  0  0  0
   57.1500   26.1950   47.0440 N   0  0  0  0  0  0  0  0  0  0  0  0
   56.1140   25.8830   46.1060 C   0  0  0  0  0  0  0  0  0  0  0  0
   55.1380   26.6690   45.9900 O   0  0  0  0  0  0  0  0  0  0  0  0
   56.1790   24.6870   45.2470 C   0  0  0  0  0  0  0  0  0  0  0  0
   55.4900   23.5230   45.6230 C   0  0  0  0  0  0  0  0  0  0  0  0
   55.5430   22.3820   44.8180 C   0  0  0  0  0  0  0  0  0  0  0  0
   56.2950   22.3900   43.6410 C   0  0  0  0  0  0  0  0  0  0  0  0
   57.0020   23.5370   43.2700 C   0  0  0  0  0  0  0  0  0  0  0  0
   56.9520   24.6830   44.0720 C   0  0  0  0  0  0  0  0  0  0  0  0
   57.6850   25.7710   43.7210 F   0  0  0  0  0  0  0  0  0  0  0  0
   58.3520   30.6370   46.0060 C   0  0  0  0  0  0  0  0  0  0  0  0
   59.1170   31.3730   46.9310 C   0  0  0  0  0  0  0  0  0  0  0  0
   60.1210   30.6880   47.7030 N   0  0  0  0  0  0  0  0  0  0  0  0
   58.8940   32.7260   47.0780 N   0  0  0  0  0  0  0  0  0  0  0  0
   59.6310   33.5360   48.0730 C   0  0  0  0  0  0  0  0  0  0  0  0
   61.1200   33.4940   47.8210 C   0  0  0  0  0  0  0  0  0  0  0  0
   61.6320   33.8670   46.5650 C   0  0  0  0  0  0  0  0  0  0  0  0
   63.0100   33.8510   46.3300 C   0  0  0  0  0  0  0  0  0  0  0  0
   63.8900   33.4690   47.3450 C   0  0  0  0  0  0  0  0  0  0  0  0
   63.3940   33.1070   48.5990 C   0  0  0  0  0  0  0  0  0  0  0  0
   62.0160   33.1230   48.8400 C   0  0  0  0  0  0  0  0  0  0  0  0
   57.9520   33.3510   46.2930 C   0  0  0  0  0  0  0  0  0  0  0  0
   57.7540   34.5930   46.3940 O   0  0  0  0  0  0  0  0  0  0  0  0
   57.2170   32.6390   45.3980 N   0  0  0  0  0  0  0  0  0  0  0  0
   57.3930   31.3050   45.2430 C   0  0  0  0  0  0  0  0  0  0  0  0
   56.6980   30.6750   44.4000 O   0  0  0  0  0  0  0  0  0  0  0  0
   59.6810   27.9200   44.5861 H   0  0  0  0  0  0  0  0  0  0  0  0
   58.0848   28.4165   43.9285 H   0  0  0  0  0  0  0  0  0  0  0  0
   59.4564   29.5764   43.9285 H   0  0  0  0  0  0  0  0  0  0  0  0
   58.6381   26.6170   45.6287 H   0  0  0  0  0  0  0  0  0  0  0  0
   59.2113   26.4074   47.3276 H   0  0  0  0  0  0  0  0  0  0  0  0
   54.9060   23.5091   46.5551 H   0  0  0  0  0  0  0  0  0  0  0  0
   54.9918   21.4765   45.1116 H   0  0  0  0  0  0  0  0  0  0  0  0
   56.3308   21.4928   43.0056 H   0  0  0  0  0  0  0  0  0  0  0  0
   57.5989   23.5392   42.3460 H   0  0  0  0  0  0  0  0  0  0  0  0
   61.1240   30.9710   47.6530 H   0  0  0  0  0  0  0  0  0  0  0  0
   59.8820   29.9700   48.4190 H   0  0  0  0  0  0  0  0  0  0  0  0
   59.2866   34.5789   48.0119 H   0  0  0  0  0  0  0  0  0  0  0  0
   59.4362   33.1196   49.0723 H   0  0  0  0  0  0  0  0  0  0  0  0
   60.9441   34.1731   45.7631 H   0  0  0  0  0  0  0  0  0  0  0  0
   63.4020   34.1399   45.3436 H   0  0  0  0  0  0  0  0  0  0  0  0
   64.9736   33.4533   47.1566 H   0  0  0  0  0  0  0  0  0  0  0  0
   64.0879   32.8087   49.3987 H   0  0  0  0  0  0  0  0  0  0  0  0
   61.6310   32.8439   49.8319 H   0  0  0  0  0  0  0  0  0  0  0  0
   56.5020   33.1320   44.8150 H   0  0  0  0  0  0  0  0  0  0  0  0
  1  2  1  0
  2  3  1  0
  3  4  2  0
  3  5  1  0
  5  6  1  0
  6  7  1  0
  7  8  2  0
  7  9  1  0
  9 10  2  0
 10 11  1  0
 11 12  2  0
 12 13  1  0
 13 14  2  0
 14 15  1  0
  2 16  1  0
 16 17  2  0
 17 18  1  0
 17 19  1  0
 19 20  1  0
 20 21  1  0
 21 22  2  0
 22 23  1  0
 23 24  2  0
 24 25  1  0
 25 26  2  0
 19 27  1  0
 27 28  2  0
 27 29  1  0
 29 30  1  0
 30 31  2  0
 14  9  1  0
 30 16  1  0
 26 21  1  0
  1 32  1  0
  1 33  1  0
  1 34  1  0
  5 35  1  0
  5 36  1  0
 10 37  1  0
 11 38  1  0
 12 39  1  0
 13 40  1  0
 18 41  1  0
 18 42  1  0
 20 43  1  0
 20 44  1  0
 22 45  1  0
 23 46  1  0
 24 47  1  0
 25 48  1  0
 26 49  1  0
 29 50  1  0
M  CHG  1   6  -1
M  END
>  <UniqueID>  (54) 
47

>  <SMILES>  (54) 
CN(C(=O)C[N-]C(=O)c1ccccc1F)c1c(N)n(Cc2ccccc2)c(=O)[nH]c1=O

>  <Energy>  (54) 
71.54311258195777

>  <Genealogy>  (54) 
CN(C(=O)C[N-]C(=O)c1ccccc1F)c1c(N)n(Cc2ccccc2)c(=O)[nH]c1=O (protonated)
CN(C(=O)C[N-]C(=O)c1ccccc1F)c1c(N)n(Cc2ccccc2)c(=O)[nH]c1=O (3D coordinates assigned)
CN(C(=O)C[N-]C(=O)c1ccccc1F)c1c(N)n(Cc2ccccc2)c(=O)[nH]c1=O (optimized conformer: 71.54311258195777 kcal/mol)

>  <smiles>  (54) 
CN(C(=O)CNC(=O)c1ccccc1F)c1c(N)n(Cc2ccccc2)c(=O)[nH]c1=O

>  <score_type>  (54) 
oracle

>  <origin>  (54) 
adg

>  <m_score__min__energy>  (54) 
-11.26

>  <m_primary>  (54) 
energy

$$$$
54:0
     RDKit          3D

 64 66  0  0  0  0  0  0  0  0999 V2000
   56.4580   24.4790   47.4220 C   0  0  0  0  0  0  0  0  0  0  0  0
   56.3920   25.7240   46.6000 C   0  0  0  0  0  0  0  0  0  0  0  0
   55.2480   26.3920   46.3600 N   0  0  0  0  0  0  0  0  0  0  0  0
   55.5490   27.4020   45.5960 O   0  0  0  0  0  0  0  0  0  0  0  0
   56.8310   27.4290   45.3170 C   0  0  0  0  0  0  0  0  0  0  0  0
   57.3430   28.3720   44.5730 N   0  0  0  0  0  0  0  0  0  0  0  0
   56.9250   30.0530   44.4430 S   0  0  0  0  0  0  0  0  0  0  0  0
   55.4340   30.2340   44.5100 O   0  0  0  0  0  0  0  0  0  0  0  0
   57.3900   30.5470   43.1000 O   0  0  0  0  0  0  0  0  0  0  0  0
   57.7610   30.9950   45.6750 C   0  0  0  0  0  0  0  0  0  0  0  0
   58.4460   30.3640   46.7230 C   0  0  0  0  0  0  0  0  0  0  0  0
   59.0930   31.1270   47.7000 C   0  0  0  0  0  0  0  0  0  0  0  0
   59.0360   32.5290   47.6540 C   0  0  0  0  0  0  0  0  0  0  0  0
   59.6400   33.3280   48.6770 N   0  0  0  0  0  0  0  0  0  0  0  0
   59.2700   33.3020   50.0560 C   0  0  0  0  0  0  0  0  0  0  0  0
   59.6700   34.2290   50.8090 O   0  0  0  0  0  0  0  0  0  0  0  0
   58.5040   32.2100   50.5900 N   0  0  0  0  0  0  0  0  0  0  0  0
   57.9770   32.2030   51.9620 C   0  0  1  0  0  0  0  0  0  0  0  0
   56.9800   31.0810   52.1310 C   0  0  0  0  0  0  0  0  0  0  0  0
   56.9880   30.0960   51.3430 O   0  0  0  0  0  0  0  0  0  0  0  0
   56.0320   31.1340   53.2010 N   0  0  0  0  0  0  0  0  0  0  0  0
   55.2620   29.9810   53.6610 C   0  0  0  0  0  0  0  0  0  0  0  0
   54.3050   29.4710   52.5740 C   0  0  0  0  0  0  0  0  0  0  0  0
   53.1410   30.4060   52.3750 C   0  0  0  0  0  0  0  0  0  0  0  0
   52.9090   31.0020   51.1220 C   0  0  0  0  0  0  0  0  0  0  0  0
   51.8460   31.8970   50.9570 C   0  0  0  0  0  0  0  0  0  0  0  0
   51.0120   32.2010   52.0350 C   0  0  0  0  0  0  0  0  0  0  0  0
   51.2410   31.6150   53.2850 C   0  0  0  0  0  0  0  0  0  0  0  0
   52.3030   30.7250   53.4560 C   0  0  0  0  0  0  0  0  0  0  0  0
   59.1260   32.1400   53.0110 C   0  0  0  0  0  0  0  0  0  0  0  0
   59.4500   33.5020   53.6450 C   0  0  0  0  0  0  0  0  0  0  0  0
   60.3960   31.5090   52.4220 C   0  0  0  0  0  0  0  0  0  0  0  0
   58.3200   33.1570   46.6280 C   0  0  0  0  0  0  0  0  0  0  0  0
   57.6970   32.3940   45.6350 C   0  0  0  0  0  0  0  0  0  0  0  0
   57.4440   26.3360   45.9360 C   0  0  0  0  0  0  0  0  0  0  0  0
   58.8730   25.8860   45.9710 C   0  0  0  0  0  0  0  0  0  0  0  0
   56.4440   24.7434   48.4897 H   0  0  0  0  0  0  0  0  0  0  0  0
   55.5924   23.8407   47.1909 H   0  0  0  0  0  0  0  0  0  0  0  0
   57.3862   23.9358   47.1909 H   0  0  0  0  0  0  0  0  0  0  0  0
   58.4745   29.2657   46.7768 H   0  0  0  0  0  0  0  0  0  0  0  0
   59.6484   30.6271   48.5072 H   0  0  0  0  0  0  0  0  0  0  0  0
   58.3480   31.3760   49.9790 H   0  0  0  0  0  0  0  0  0  0  0  0
   57.4464   33.1496   52.1419 H   0  0  0  0  0  0  0  0  0  0  0  0
   55.9570   29.1728   53.9326 H   0  0  0  0  0  0  0  0  0  0  0  0
   54.6625   30.2916   54.5294 H   0  0  0  0  0  0  0  0  0  0  0  0
   54.8566   29.3814   51.6265 H   0  0  0  0  0  0  0  0  0  0  0  0
   53.9109   28.4951   52.8937 H   0  0  0  0  0  0  0  0  0  0  0  0
   53.5640   30.7642   50.2709 H   0  0  0  0  0  0  0  0  0  0  0  0
   51.6670   32.3619   49.9763 H   0  0  0  0  0  0  0  0  0  0  0  0
   50.1745   32.9015   51.9015 H   0  0  0  0  0  0  0  0  0  0  0  0
   50.5837   31.8558   54.1335 H   0  0  0  0  0  0  0  0  0  0  0  0
   52.4842   30.2716   54.4417 H   0  0  0  0  0  0  0  0  0  0  0  0
   58.7504   31.4942   53.8183 H   0  0  0  0  0  0  0  0  0  0  0  0
   59.4283   33.4107   54.7410 H   0  0  0  0  0  0  0  0  0  0  0  0
   60.4506   33.8272   53.3239 H   0  0  0  0  0  0  0  0  0  0  0  0
   58.7030   34.2429   53.3239 H   0  0  0  0  0  0  0  0  0  0  0  0
   61.0555   31.1813   53.2391 H   0  0  0  0  0  0  0  0  0  0  0  0
   60.1215   30.6425   51.8025 H   0  0  0  0  0  0  0  0  0  0  0  0
   60.9208   32.2512   51.8025 H   0  0  0  0  0  0  0  0  0  0  0  0
   58.2471   34.2543   46.6027 H   0  0  0  0  0  0  0  0  0  0  0  0
   57.1546   32.8944   44.8193 H   0  0  0  0  0  0  0  0  0  0  0  0
   59.1995   25.7832   47.0164 H   0  0  0  0  0  0  0  0  0  0  0  0
   58.9644   24.9156   45.4612 H   0  0  0  0  0  0  0  0  0  0  0  0
   59.5040   26.6289   45.4612 H   0  0  0  0  0  0  0  0  0  0  0  0
  1  2  1  0
  2  3  1  0
  3  4  1  0
  4  5  1  0
  5  6  2  3
  6  7  1  0
  7  8  2  0
  7  9  2  0
  7 10  1  0
 10 11  2  0
 11 12  1  0
 12 13  2  0
 13 14  1  0
 14 15  1  0
 15 16  2  0
 15 17  1  0
 17 18  1  0
 18 19  1  0
 19 20  2  0
 19 21  1  0
 21 22  1  0
 22 23  1  0
 23 24  1  0
 24 25  2  0
 25 26  1  0
 26 27  2  0
 27 28  1  0
 28 29  2  0
 18 30  1  0
 30 31  1  0
 30 32  1  0
 13 33  1  0
 33 34  2  0
  5 35  1  0
 35 36  1  0
 35  2  2  0
 34 10  1  0
 29 24  1  0
  1 37  1  0
  1 38  1  0
  1 39  1  0
 11 40  1  0
 12 41  1  0
 17 42  1  0
 18 43  1  1
 22 44  1  0
 22 45  1  0
 23 46  1  0
 23 47  1  0
 25 48  1  0
 26 49  1  0
 27 50  1  0
 28 51  1  0
 29 52  1  0
 30 53  1  0
 31 54  1  0
 31 55  1  0
 31 56  1  0
 32 57  1  0
 32 58  1  0
 32 59  1  0
 33 60  1  0
 34 61  1  0
 36 62  1  0
 36 63  1  0
 36 64  1  0
M  CHG  3   3  -1  14  -1  21  -1
M  END
>  <UniqueID>  (55) 
48

>  <SMILES>  (55) 
Cc1[n-]oc(=NS(=O)(=O)c2ccc([N-]C(=O)N[C@@H](C(=O)[N-]CCc3ccccc3)C(C)C)cc2)c1C

>  <Energy>  (55) 
98.17446761607668

>  <Genealogy>  (55) 
Cc1[n-]oc(=NS(=O)(=O)c2ccc([N-]C(=O)NC(C(=O)[N-]CCc3ccccc3)C(C)C)cc2)c1C (protonated)
Cc1[n-]oc(=NS(=O)(=O)c2ccc([N-]C(=O)N[C@@H](C(=O)[N-]CCc3ccccc3)C(C)C)cc2)c1C (chirality)
Cc1[n-]oc(=NS(=O)(=O)c2ccc([N-]C(=O)N[C@@H](C(=O)[N-]CCc3ccccc3)C(C)C)cc2)c1C (3D coordinates assigned)
Cc1[n-]oc(=NS(=O)(=O)c2ccc([N-]C(=O)N[C@@H](C(=O)[N-]CCc3ccccc3)C(C)C)cc2)c1C (optimized conformer: 98.17446761607668 kcal/mol)

>  <smiles>  (55) 
Cc1[nH]oc(=NS(=O)(=O)c2ccc(NC(=O)NC(C(=O)NCCc3ccccc3)C(C)C)cc2)c1C

>  <score_type>  (55) 
oracle

>  <origin>  (55) 
adg

>  <m_score__min__energy>  (55) 
-14.289999999999999

>  <m_primary>  (55) 
energy

$$$$
55:0
     RDKit          3D

 46 48  0  0  0  0  0  0  0  0999 V2000
   55.1330   26.3650   45.9810 N   0  0  0  0  0  0  0  0  0  0  0  0
   56.8460   26.6160   45.9280 S   0  0  0  0  0  0  0  0  0  0  0  0
   57.4780   25.5480   45.0840 O   0  0  0  0  0  0  0  0  0  0  0  0
   57.4110   26.5400   47.3170 O   0  0  0  0  0  0  0  0  0  0  0  0
   57.1950   28.2040   45.2520 C   0  0  0  0  0  0  0  0  0  0  0  0
   58.5080   28.6850   45.1920 C   0  0  0  0  0  0  0  0  0  0  0  0
   58.7690   29.9640   44.6910 C   0  0  0  0  0  0  0  0  0  0  0  0
   57.7260   30.7690   44.2280 C   0  0  0  0  0  0  0  0  0  0  0  0
   58.0270   32.0900   43.7630 N   0  0  0  0  0  0  0  0  0  0  0  0
   57.9650   33.2810   44.5620 C   0  0  0  0  0  0  0  0  0  0  0  0
   56.9480   33.5320   45.2640 O   0  0  0  0  0  0  0  0  0  0  0  0
   59.1010   34.2560   44.5330 C   0  0  0  0  0  0  0  0  0  0  0  0
   60.0200   33.9870   45.6400 N   0  0  0  0  0  0  0  0  0  0  0  0
   59.6940   33.1530   46.7690 C   0  0  0  0  0  0  0  0  0  0  0  0
   58.7530   33.5510   47.7440 C   0  0  0  0  0  0  0  0  0  0  0  0
   58.4990   32.7410   48.8520 C   0  0  0  0  0  0  0  0  0  0  0  0
   59.1650   31.5190   49.0080 C   0  0  0  0  0  0  0  0  0  0  0  0
   58.9000   30.5630   50.4610 S   0  0  0  0  0  0  0  0  0  0  0  0
   60.1620   30.4760   51.2750 O   0  0  0  0  0  0  0  0  0  0  0  0
   58.4810   29.1780   50.0580 O   0  0  0  0  0  0  0  0  0  0  0  0
   57.6510   31.2780   51.4320 N   0  0  0  0  0  0  0  0  0  0  0  0
   56.5920   30.6460   51.8400 C   0  0  0  0  0  0  0  0  0  0  0  0
   55.3540   31.2060   51.7270 N   0  0  0  0  0  0  0  0  0  0  0  0
   54.2460   30.5440   52.1450 C   0  0  0  0  0  0  0  0  0  0  0  0
   54.3670   29.2660   52.7020 C   0  0  0  0  0  0  0  0  0  0  0  0
   55.6430   28.7130   52.8280 C   0  0  0  0  0  0  0  0  0  0  0  0
   56.7270   29.4100   52.3980 N   0  0  0  0  0  0  0  0  0  0  0  0
   60.0750   31.0990   48.0270 C   0  0  0  0  0  0  0  0  0  0  0  0
   60.3410   31.9150   46.9220 C   0  0  0  0  0  0  0  0  0  0  0  0
   56.4040   30.2900   44.2960 C   0  0  0  0  0  0  0  0  0  0  0  0
   56.1460   29.0120   44.8030 C   0  0  0  0  0  0  0  0  0  0  0  0
   54.7440   27.0660   46.6470 H   0  0  0  0  0  0  0  0  0  0  0  0
   59.3386   28.0537   45.5407 H   0  0  0  0  0  0  0  0  0  0  0  0
   59.8028   30.3387   44.6614 H   0  0  0  0  0  0  0  0  0  0  0  0
   59.6407   34.1582   43.5795 H   0  0  0  0  0  0  0  0  0  0  0  0
   58.7034   35.2767   44.6337 H   0  0  0  0  0  0  0  0  0  0  0  0
   60.9230   34.5130   45.6400 H   0  0  0  0  0  0  0  0  0  0  0  0
   58.2172   34.5048   47.6296 H   0  0  0  0  0  0  0  0  0  0  0  0
   57.7697   33.0652   49.6089 H   0  0  0  0  0  0  0  0  0  0  0  0
   53.2548   31.0108   52.0463 H   0  0  0  0  0  0  0  0  0  0  0  0
   53.4775   28.7099   53.0329 H   0  0  0  0  0  0  0  0  0  0  0  0
   55.7702   27.7157   53.2742 H   0  0  0  0  0  0  0  0  0  0  0  0
   60.5802   30.1269   48.1264 H   0  0  0  0  0  0  0  0  0  0  0  0
   61.0655   31.5833   46.1637 H   0  0  0  0  0  0  0  0  0  0  0  0
   55.5726   30.9216   43.9499 H   0  0  0  0  0  0  0  0  0  0  0  0
   55.1116   28.6405   44.8487 H   0  0  0  0  0  0  0  0  0  0  0  0
  1  2  1  0
  2  3  2  0
  2  4  2  0
  2  5  1  0
  5  6  2  0
  6  7  1  0
  7  8  2  0
  8  9  1  0
  9 10  1  0
 10 11  2  0
 10 12  1  0
 12 13  1  0
 13 14  1  0
 14 15  2  0
 15 16  1  0
 16 17  2  0
 17 18  1  0
 18 19  2  0
 18 20  2  0
 18 21  1  0
 21 22  2  3
 22 23  1  0
 23 24  2  0
 24 25  1  0
 25 26  2  0
 26 27  1  0
 17 28  1  0
 28 29  2  0
  8 30  1  0
 30 31  2  0
 31  5  1  0
 29 14  1  0
 27 22  1  0
  1 32  1  0
  6 33  1  0
  7 34  1  0
 12 35  1  0
 12 36  1  0
 13 37  1  0
 15 38  1  0
 16 39  1  0
 24 40  1  0
 25 41  1  0
 26 42  1  0
 28 43  1  0
 29 44  1  0
 30 45  1  0
 31 46  1  0
M  CHG  3   1  -1   9  -1  27  -1
M  END
>  <UniqueID>  (56) 
49

>  <SMILES>  (56) 
[NH-]S(=O)(=O)c1ccc([N-]C(=O)CNc2ccc(S(=O)(=O)N=c3nccc[n-]3)cc2)cc1

>  <Energy>  (56) 
52.27376657342199

>  <Genealogy>  (56) 
[NH-]S(=O)(=O)c1ccc([N-]C(=O)CNc2ccc(S(=O)(=O)N=c3nccc[n-]3)cc2)cc1 (protonated)
[NH-]S(=O)(=O)c1ccc([N-]C(=O)CNc2ccc(S(=O)(=O)N=c3nccc[n-]3)cc2)cc1 (3D coordinates assigned)
[NH-]S(=O)(=O)c1ccc([N-]C(=O)CNc2ccc(S(=O)(=O)N=c3nccc[n-]3)cc2)cc1 (optimized conformer: 52.27376657342199 kcal/mol)

>  <smiles>  (56) 
NS(=O)(=O)c1ccc(NC(=O)CNc2ccc(S(=O)(=O)N=c3nccc[nH]3)cc2)cc1

>  <score_type>  (56) 
oracle

>  <origin>  (56) 
adg

>  <m_score__min__energy>  (56) 
-13.1

>  <m_primary>  (56) 
energy

$$$$
56:0
     RDKit          3D

 46 48  0  0  0  0  0  0  0  0999 V2000
   55.4650   29.1100   44.8740 N   0  0  0  0  0  0  0  0  0  0  0  0
   56.2080   29.9150   43.9600 C   0  0  0  0  0  0  0  0  0  0  0  0
   56.0570   29.7360   42.7210 O   0  0  0  0  0  0  0  0  0  0  0  0
   57.1440   30.9500   44.4570 C   0  0  0  0  0  0  0  0  0  0  0  0
   57.7660   30.8070   45.7120 C   0  0  0  0  0  0  0  0  0  0  0  0
   58.6510   31.7810   46.1810 C   0  0  0  0  0  0  0  0  0  0  0  0
   58.9220   32.9250   45.4100 C   0  0  0  0  0  0  0  0  0  0  0  0
   59.8120   33.9230   45.8330 O   0  0  0  0  0  0  0  0  0  0  0  0
   61.0000   33.7040   46.5470 C   0  0  0  0  0  0  0  0  0  0  0  0
   62.1230   33.8380   45.9900 O   0  0  0  0  0  0  0  0  0  0  0  0
   60.9330   33.2250   47.9710 C   0  0  1  0  0  0  0  0  0  0  0  0
   59.6470   33.6190   48.6650 C   0  0  0  0  0  0  0  0  0  0  0  0
   59.3840   32.4950   49.6600 C   0  0  0  0  0  0  0  0  0  0  0  0
   60.2820   31.3670   49.3390 N   0  0  0  0  0  0  0  0  0  0  0  0
   59.5440   30.0850   49.2720 C   0  0  0  0  0  0  0  0  0  0  0  0
   60.3760   28.9730   48.6100 C   0  0  0  0  0  0  0  0  0  0  0  0
   59.8130   28.5160   47.2870 C   0  0  0  0  0  0  0  0  0  0  0  0
   58.6430   27.7390   47.2400 C   0  0  0  0  0  0  0  0  0  0  0  0
   58.1310   27.3090   46.0130 C   0  0  0  0  0  0  0  0  0  0  0  0
   58.7740   27.6590   44.8220 C   0  0  0  0  0  0  0  0  0  0  0  0
   58.1320   27.1140   43.2830 Cl  0  0  0  0  0  0  0  0  0  0  0  0
   59.9280   28.4470   44.8590 C   0  0  0  0  0  0  0  0  0  0  0  0
   60.4430   28.8800   46.0850 C   0  0  0  0  0  0  0  0  0  0  0  0
   60.9520   31.7110   48.0770 C   0  0  0  0  0  0  0  0  0  0  0  0
   58.3210   33.0600   44.1540 C   0  0  0  0  0  0  0  0  0  0  0  0
   57.4360   32.0860   43.6820 C   0  0  0  0  0  0  0  0  0  0  0  0
   54.4730   29.3400   45.1070 H   0  0  0  0  0  0  0  0  0  0  0  0
   57.5534   29.9210   46.3283 H   0  0  0  0  0  0  0  0  0  0  0  0
   59.1384   31.6521   47.1587 H   0  0  0  0  0  0  0  0  0  0  0  0
   61.8143   33.6905   48.4363 H   0  0  0  0  0  0  0  0  0  0  0  0
   59.7668   34.5795   49.1876 H   0  0  0  0  0  0  0  0  0  0  0  0
   58.8156   33.7509   47.9569 H   0  0  0  0  0  0  0  0  0  0  0  0
   59.5839   32.8495   50.6820 H   0  0  0  0  0  0  0  0  0  0  0  0
   58.3345   32.1720   49.5958 H   0  0  0  0  0  0  0  0  0  0  0  0
   59.2827   29.7722   50.2937 H   0  0  0  0  0  0  0  0  0  0  0  0
   58.6432   30.2439   48.6610 H   0  0  0  0  0  0  0  0  0  0  0  0
   61.3955   29.3511   48.4440 H   0  0  0  0  0  0  0  0  0  0  0  0
   60.3614   28.1068   49.2878 H   0  0  0  0  0  0  0  0  0  0  0  0
   58.1279   27.4681   48.1734 H   0  0  0  0  0  0  0  0  0  0  0  0
   57.2197   26.6936   45.9841 H   0  0  0  0  0  0  0  0  0  0  0  0
   60.4319   28.7270   43.9222 H   0  0  0  0  0  0  0  0  0  0  0  0
   61.3455   29.5085   46.1084 H   0  0  0  0  0  0  0  0  0  0  0  0
   61.9892   31.3447   48.0864 H   0  0  0  0  0  0  0  0  0  0  0  0
   60.4418   31.2481   47.2194 H   0  0  0  0  0  0  0  0  0  0  0  0
   58.5465   33.9394   43.5329 H   0  0  0  0  0  0  0  0  0  0  0  0
   56.9642   32.2096   42.6960 H   0  0  0  0  0  0  0  0  0  0  0  0
  1  2  1  0
  2  3  2  0
  2  4  1  0
  4  5  2  0
  5  6  1  0
  6  7  2  0
  7  8  1  0
  8  9  1  0
  9 10  2  0
  9 11  1  0
 11 12  1  0
 12 13  1  0
 13 14  1  0
 14 15  1  0
 15 16  1  0
 16 17  1  0
 17 18  2  0
 18 19  1  0
 19 20  2  0
 20 21  1  0
 20 22  1  0
 22 23  2  0
 14 24  1  0
  7 25  1  0
 25 26  2  0
 26  4  1  0
 24 11  1  0
 23 17  1  0
  1 27  1  0
  5 28  1  0
  6 29  1  0
 11 30  1  1
 12 31  1  0
 12 32  1  0
 13 33  1  0
 13 34  1  0
 15 35  1  0
 15 36  1  0
 16 37  1  0
 16 38  1  0
 18 39  1  0
 19 40  1  0
 22 41  1  0
 23 42  1  0
 24 43  1  0
 24 44  1  0
 25 45  1  0
 26 46  1  0
M  CHG  1   1  -1
M  END
>  <UniqueID>  (57) 
50

>  <SMILES>  (57) 
[NH-]C(=O)c1ccc(OC(=O)[C@H]2CCN(CCc3ccc(Cl)cc3)C2)cc1

>  <Energy>  (57) 
53.854729541911766

>  <Genealogy>  (57) 
[NH-]C(=O)c1ccc(OC(=O)C2CCN(CCc3ccc(Cl)cc3)C2)cc1 (protonated)
[NH-]C(=O)c1ccc(OC(=O)[C@H]2CCN(CCc3ccc(Cl)cc3)C2)cc1 (chirality)
[NH-]C(=O)c1ccc(OC(=O)[C@H]2CCN(CCc3ccc(Cl)cc3)C2)cc1 (3D coordinates assigned)
[NH-]C(=O)c1ccc(OC(=O)[C@H]2CCN(CCc3ccc(Cl)cc3)C2)cc1 (nonaromatic ring conformer: 53.854729541911766 kcal/mol)

>  <smiles>  (57) 
NC(=O)c1ccc(OC(=O)C2CCN(CCc3ccc(Cl)cc3)C2)cc1

>  <score_type>  (57) 
oracle

>  <origin>  (57) 
adg

>  <m_score__min__energy>  (57) 
-11.359999999999999

>  <m_primary>  (57) 
energy

$$$$
57:0
     RDKit          3D

 48 50  0  0  0  0  0  0  0  0999 V2000
   61.1928   34.0533   50.6357 H   0  0  0  0  0  0  0  0  0  0  0  0
   60.3550   33.5450   50.1360 C   0  0  0  0  0  0  0  0  0  0  0  0
   60.4070   33.3030   48.7990 N   0  0  0  0  0  0  0  0  0  0  0  0
   59.4030   32.6720   48.1300 C   0  0  0  0  0  0  0  0  0  0  0  0
   59.5390   32.4960   46.8460 N   0  0  0  0  0  0  0  0  0  0  0  0
   59.5390   31.2700   46.0930 C   0  0  0  0  0  0  0  0  0  0  0  0
   60.5310   30.4930   46.1440 O   0  0  0  0  0  0  0  0  0  0  0  0
   58.4290   30.9760   45.1530 C   0  0  0  0  0  0  0  0  0  0  0  0
   58.4150   31.6020   43.8930 C   0  0  0  0  0  0  0  0  0  0  0  0
   59.2389   32.2739   43.6105 H   0  0  0  0  0  0  0  0  0  0  0  0
   57.3670   31.3800   42.9970 C   0  0  0  0  0  0  0  0  0  0  0  0
   57.3610   32.1830   41.4370 Cl  0  0  0  0  0  0  0  0  0  0  0  0
   56.3270   30.5150   43.3390 C   0  0  0  0  0  0  0  0  0  0  0  0
   55.5018   30.3435   42.6321 H   0  0  0  0  0  0  0  0  0  0  0  0
   56.3300   29.8670   44.5740 C   0  0  0  0  0  0  0  0  0  0  0  0
   55.3090   28.9680   44.8650 O   0  0  0  0  0  0  0  0  0  0  0  0
   57.3680   30.1020   45.5000 C   0  0  0  0  0  0  0  0  0  0  0  0
   57.4000   29.3920   46.7480 N   0  0  0  0  0  0  0  0  0  0  0  0
   58.2430   28.2760   47.0570 C   0  0  0  0  0  0  0  0  0  0  0  0
   58.1550   27.2380   46.3470 O   0  0  0  0  0  0  0  0  0  0  0  0
   59.2480   28.3280   48.1360 C   0  0  0  0  0  0  0  0  0  0  0  0
   59.4600   29.5890   49.2350 S   0  0  0  0  0  0  0  0  0  0  0  0
   60.7790   28.9120   50.0270 C   0  0  0  0  0  0  0  0  0  0  0  0
   61.5520   29.5690   51.1260 C   0  0  0  0  0  0  0  0  0  0  0  0
   62.0288   28.7951   51.7455 H   0  0  0  0  0  0  0  0  0  0  0  0
   60.8616   30.1712   51.7348 H   0  0  0  0  0  0  0  0  0  0  0  0
   62.6320   30.4880   50.5490 C   0  0  0  0  0  0  0  0  0  0  0  0
   63.5040   29.8836   50.2586 H   0  0  0  0  0  0  0  0  0  0  0  0
   62.9180   31.2242   51.3146 H   0  0  0  0  0  0  0  0  0  0  0  0
   62.1270   31.2000   49.3740 N   0  0  0  0  0  0  0  0  0  0  0  0
   61.0910   31.2530   49.2550 H   0  0  0  0  0  0  0  0  0  0  0  0
   62.9520   31.8380   48.3790 C   0  0  0  0  0  0  0  0  0  0  0  0
   62.3300   32.3740   47.2070 N   0  0  0  0  0  0  0  0  0  0  0  0
   61.3000   32.2910   47.0700 H   0  0  0  0  0  0  0  0  0  0  0  0
   62.8950   32.8500   46.4680 H   0  0  0  0  0  0  0  0  0  0  0  0
   64.2390   31.9520   48.5300 N   0  0  0  0  0  0  0  0  0  0  0  0
   64.8670   32.0070   47.6970 H   0  0  0  0  0  0  0  0  0  0  0  0
   64.6920   32.0020   49.4670 H   0  0  0  0  0  0  0  0  0  0  0  0
   61.0950   27.7030   49.4200 C   0  0  0  0  0  0  0  0  0  0  0  0
   61.9342   27.0671   49.7384 H   0  0  0  0  0  0  0  0  0  0  0  0
   60.2380   27.3750   48.3620 C   0  0  0  0  0  0  0  0  0  0  0  0
   60.3372   26.4547   47.7677 H   0  0  0  0  0  0  0  0  0  0  0  0
   58.2520   32.2760   48.8460 C   0  0  0  0  0  0  0  0  0  0  0  0
   57.4169   31.7842   48.3256 H   0  0  0  0  0  0  0  0  0  0  0  0
   58.1830   32.5140   50.2200 C   0  0  0  0  0  0  0  0  0  0  0  0
   57.2945   32.2007   50.7878 H   0  0  0  0  0  0  0  0  0  0  0  0
   59.2400   33.1490   50.8740 C   0  0  0  0  0  0  0  0  0  0  0  0
   59.1610   33.4560   52.5990 Cl  0  0  0  0  0  0  0  0  0  0  0  0
  1  2  1  0
  2  3  1  0
  3  4  1  0
  4  5  2  0
  5  6  1  0
  6  7  2  0
  6  8  1  0
  8  9  2  0
  9 10  1  0
  9 11  1  0
 11 12  1  0
 11 13  2  0
 13 14  1  0
 13 15  1  0
 15 16  1  0
 15 17  2  0
 17 18  1  0
 18 19  1  0
 19 20  2  0
 19 21  1  0
 21 22  1  0
 22 23  1  0
 23 24  1  0
 24 25  1  0
 24 26  1  0
 24 27  1  0
 27 28  1  0
 27 29  1  0
 27 30  1  0
 30 31  1  0
 30 32  1  0
 32 33  1  0
 33 34  1  0
 33 35  1  0
 32 36  2  0
 36 37  1  0
 36 38  1  0
 23 39  2  0
 39 40  1  0
 39 41  1  0
 41 42  1  0
  4 43  1  0
 43 44  1  0
 43 45  2  0
 45 46  1  0
 45 47  1  0
 47 48  1  0
 47  2  2  0
 17  8  1  0
 41 21  2  0
M  CHG  4   3  -1  16  -1  18  -1  36   1
M  END
>  <UniqueID>  (58) 
51

>  <SMILES>  (58) 
NC(=[NH2+])NCCc1ccc(C(=O)[N-]c2c([O-])cc(Cl)cc2C(=O)/N=c2\ccc(Cl)c[n-]2)s1

>  <Energy>  (58) 
88.33832408080723

>  <Genealogy>  (58) 
NC(=[NH2+])NCCc1ccc(C(=O)[N-]c2c([O-])cc(Cl)cc2C(=O)N=c2ccc(Cl)c[n-]2)s1 (protonated)
NC(=[NH2+])NCCc1ccc(C(=O)[N-]c2c([O-])cc(Cl)cc2C(=O)/N=c2\ccc(Cl)c[n-]2)s1 (cis-trans isomerization)
NC(=[NH2+])NCCc1ccc(C(=O)[N-]c2c([O-])cc(Cl)cc2C(=O)/N=c2\ccc(Cl)c[n-]2)s1 (3D coordinates assigned)
NC(=[NH2+])NCCc1ccc(C(=O)[N-]c2c([O-])cc(Cl)cc2C(=O)/N=c2\ccc(Cl)c[n-]2)s1 (optimized conformer: 88.33832408080723 kcal/mol)

>  <smiles>  (58) 
N=C(N)NCCc1ccc(C(=O)Nc2c(O)cc(Cl)cc2C(=O)N=c2ccc(Cl)c[nH]2)s1

>  <score_type>  (58) 
oracle

>  <origin>  (58) 
adg

>  <m_score__min__energy>  (58) 
-13.27

>  <m_primary>  (58) 
energy

$$$$
58:0
     RDKit          3D

 39 41  0  0  1  0  0  0  0  0999 V2000
   56.2790   21.1780   42.7680 O   0  0  0  0  0  0  0  0  0  0  0  0
   56.7470   21.4090   43.9160 C   0  0  0  0  0  0  0  0  0  0  0  0
   56.9120   20.3520   44.7980 O   0  0  0  0  0  0  0  0  0  0  0  0
   57.0820   22.7880   44.2390 C   0  0  0  0  0  0  0  0  0  0  0  0
   57.5550   23.0900   45.4970 C   0  0  0  0  0  0  0  0  0  0  0  0
   57.8850   24.4110   45.8320 C   0  0  0  0  0  0  0  0  0  0  0  0
   57.7550   25.4480   44.9440 C   0  0  0  0  0  0  0  0  0  0  0  0
   58.0630   26.7970   45.2030 N   0  0  0  0  0  0  0  0  0  0  0  0
   57.1360   27.8160   45.5200 C   0  0  0  0  0  0  0  0  0  0  0  0
   55.9050   27.6280   45.6090 O   0  0  0  0  0  0  0  0  0  0  0  0
   57.6030   29.1900   45.7680 C   0  0  0  0  0  0  0  0  0  0  0  0
   58.4990   29.4960   46.7690 C   0  0  0  0  0  0  0  0  0  0  0  0
   58.9370   30.7450   47.0110 N   0  0  0  0  0  0  0  0  0  0  0  0
   58.4770   31.7470   46.2370 C   0  0  0  0  0  0  0  0  0  0  0  0
   58.8640   32.9620   46.4270 N   0  0  0  0  0  0  0  0  0  0  0  0
   60.0480   33.2800   47.1490 C   0  0  0  0  0  0  0  0  0  0  0  0
   61.2070   33.4500   46.3930 C   0  0  0  0  0  0  0  0  0  0  0  0
   62.4010   33.7590   47.0080 C   0  0  0  0  0  0  0  0  0  0  0  0
   62.4190   33.8950   48.3800 C   0  0  0  0  0  0  0  0  0  0  0  0
   63.6220   34.2010   48.9390 F   0  0  0  0  0  0  0  0  0  0  0  0
   61.2760   33.7310   49.1580 C   0  0  0  0  0  0  0  0  0  0  0  0
   60.0770   33.4190   48.5260 C   0  0  0  0  0  0  0  0  0  0  0  0
   58.9210   33.2470   49.2410 F   0  0  0  0  0  0  0  0  0  0  0  0
   57.6140   31.4770   45.2640 N   0  0  0  0  0  0  0  0  0  0  0  0
   57.1430   30.2490   44.9790 C   0  0  0  0  0  0  0  0  0  0  0  0
   56.0030   29.9440   43.6840 Cl  0  0  0  0  0  0  0  0  0  0  0  0
   57.2800   25.1320   43.6860 C   0  0  0  0  0  0  0  0  0  0  0  0
   56.9540   23.8340   43.3520 C   0  0  0  0  0  0  0  0  0  0  0  0
   57.5080   19.5620   44.5030 H   0  0  0  0  0  0  0  0  0  0  0  0
   57.6745   22.2904   46.2429 H   0  0  0  0  0  0  0  0  0  0  0  0
   58.2617   24.6232   46.8435 H   0  0  0  0  0  0  0  0  0  0  0  0
   59.0780   27.1090   45.1630 H   0  0  0  0  0  0  0  0  0  0  0  0
   58.8749   28.6785   47.4018 H   0  0  0  0  0  0  0  0  0  0  0  0
   59.6210   30.9740   47.7780 H   0  0  0  0  0  0  0  0  0  0  0  0
   61.1682   33.3369   45.2995 H   0  0  0  0  0  0  0  0  0  0  0  0
   63.3192   33.8941   46.4175 H   0  0  0  0  0  0  0  0  0  0  0  0
   61.3204   33.8459   50.2511 H   0  0  0  0  0  0  0  0  0  0  0  0
   57.1596   25.9292   42.9377 H   0  0  0  0  0  0  0  0  0  0  0  0
   56.5777   23.6265   42.3394 H   0  0  0  0  0  0  0  0  0  0  0  0
  1  2  2  0
  2  3  1  0
  2  4  1  0
  4  5  2  0
  5  6  1  0
  6  7  2  0
  7  8  1  0
  8  9  1  0
  9 10  2  0
  9 11  1  0
 11 12  2  0
 12 13  1  0
 13 14  1  0
 14 15  2  0
 15 16  1  0
 16 17  2  0
 17 18  1  0
 18 19  2  0
 19 20  1  0
 19 21  1  0
 21 22  2  0
 22 23  1  0
 14 24  1  0
 24 25  2  0
 25 26  1  0
  7 27  1  0
 27 28  2  0
 28  4  1  0
 25 11  1  0
 22 16  1  0
  3 29  1  0
  5 30  1  0
  6 31  1  0
  8 32  1  0
 12 33  1  0
 13 34  1  0
 17 35  1  0
 18 36  1  0
 21 37  1  0
 27 38  1  0
 28 39  1  0
M  END
>  <smiles>  (59) 
O=C(O)c1ccc(NC(=O)c2c[nH]c(=Nc3ccc(F)cc3F)nc2Cl)cc1

>  <score_type>  (59) 
oracle

>  <origin>  (59) 
adg

>  <m_score__min__energy>  (59) 
-8.3200000000000003

>  <m_primary>  (59) 
energy

$$$$
59:0
     RDKit          3D

 40 42  0  0  0  0  0  0  0  0999 V2000
   58.4420   27.7740   46.7820 O   0  0  0  0  0  0  0  0  0  0  0  0
   57.6420   28.0140   45.8390 C   0  0  0  0  0  0  0  0  0  0  0  0
   56.9360   26.9310   45.2140 N   0  0  0  0  0  0  0  0  0  0  0  0
   57.4260   25.5790   45.1640 C   0  0  0  0  0  0  0  0  0  0  0  0
   58.4660   25.1900   46.0240 C   0  0  0  0  0  0  0  0  0  0  0  0
   58.9410   23.8750   46.0120 C   0  0  0  0  0  0  0  0  0  0  0  0
   58.3740   22.9330   45.1480 C   0  0  0  0  0  0  0  0  0  0  0  0
   57.3250   23.3030   44.3010 C   0  0  0  0  0  0  0  0  0  0  0  0
   56.5960   22.1140   43.2350 Cl  0  0  0  0  0  0  0  0  0  0  0  0
   56.8480   24.6190   44.3120 C   0  0  0  0  0  0  0  0  0  0  0  0
   57.3980   29.4200   45.4290 C   0  0  0  0  0  0  0  0  0  0  0  0
   58.4310   30.3700   45.5620 C   0  0  0  0  0  0  0  0  0  0  0  0
   58.2400   31.7020   45.1540 C   0  0  0  0  0  0  0  0  0  0  0  0
   59.2790   32.6850   45.2410 N   0  0  0  0  0  0  0  0  0  0  0  0
   59.3310   33.9960   46.3730 S   0  0  0  0  0  0  0  0  0  0  0  0
   59.2500   35.2990   45.6270 O   0  0  0  0  0  0  0  0  0  0  0  0
   58.1820   33.8960   47.3400 O   0  0  0  0  0  0  0  0  0  0  0  0
   60.8420   33.9060   47.2770 C   0  0  0  0  0  0  0  0  0  0  0  0
   62.0370   33.5480   46.6350 C   0  0  0  0  0  0  0  0  0  0  0  0
   63.2340   33.4880   47.3580 C   0  0  0  0  0  0  0  0  0  0  0  0
   63.2440   33.7870   48.7230 C   0  0  0  0  0  0  0  0  0  0  0  0
   62.0590   34.1460   49.3670 C   0  0  0  0  0  0  0  0  0  0  0  0
   60.8600   34.2070   48.6490 C   0  0  0  0  0  0  0  0  0  0  0  0
   59.7170   34.5630   49.2930 F   0  0  0  0  0  0  0  0  0  0  0  0
   57.0010   32.0850   44.6280 C   0  0  0  0  0  0  0  0  0  0  0  0
   55.9750   31.1540   44.4870 C   0  0  0  0  0  0  0  0  0  0  0  0
   56.1670   29.8220   44.8680 C   0  0  0  0  0  0  0  0  0  0  0  0
   55.1410   28.9090   44.6500 O   0  0  0  0  0  0  0  0  0  0  0  0
   55.9720   27.1200   44.8620 H   0  0  0  0  0  0  0  0  0  0  0  0
   58.9099   25.9249   46.7117 H   0  0  0  0  0  0  0  0  0  0  0  0
   59.7616   23.5812   46.6830 H   0  0  0  0  0  0  0  0  0  0  0  0
   58.7534   21.9006   45.1347 H   0  0  0  0  0  0  0  0  0  0  0  0
   56.0165   24.9047   43.6509 H   0  0  0  0  0  0  0  0  0  0  0  0
   59.3976   30.0658   45.9899 H   0  0  0  0  0  0  0  0  0  0  0  0
   62.0332   33.3138   45.5602 H   0  0  0  0  0  0  0  0  0  0  0  0
   64.1683   33.2051   46.8509 H   0  0  0  0  0  0  0  0  0  0  0  0
   64.1856   33.7394   49.2897 H   0  0  0  0  0  0  0  0  0  0  0  0
   62.0679   34.3815   50.4415 H   0  0  0  0  0  0  0  0  0  0  0  0
   56.8363   33.1292   44.3237 H   0  0  0  0  0  0  0  0  0  0  0  0
   55.0058   31.4687   44.0727 H   0  0  0  0  0  0  0  0  0  0  0  0
  1  2  2  0
  2  3  1  0
  3  4  1  0
  4  5  2  0
  5  6  1  0
  6  7  2  0
  7  8  1  0
  8  9  1  0
  8 10  2  0
  2 11  1  0
 11 12  2  0
 12 13  1  0
 13 14  1  0
 14 15  1  0
 15 16  2  0
 15 17  2  0
 15 18  1  0
 18 19  2  0
 19 20  1  0
 20 21  2  0
 21 22  1  0
 22 23  2  0
 23 24  1  0
 13 25  2  0
 25 26  1  0
 26 27  2  0
 27 28  1  0
 10  4  1  0
 27 11  1  0
 23 18  1  0
  3 29  1  0
  5 30  1  0
  6 31  1  0
  7 32  1  0
 10 33  1  0
 12 34  1  0
 19 35  1  0
 20 36  1  0
 21 37  1  0
 22 38  1  0
 25 39  1  0
 26 40  1  0
M  CHG  2  14  -1  28  -1
M  END
>  <UniqueID>  (60) 
52

>  <SMILES>  (60) 
O=C(Nc1cccc(Cl)c1)c1cc([N-]S(=O)(=O)c2ccccc2F)ccc1[O-]

>  <Energy>  (60) 
55.22997651203512

>  <Genealogy>  (60) 
O=C(Nc1cccc(Cl)c1)c1cc([N-]S(=O)(=O)c2ccccc2F)ccc1[O-] (protonated)
O=C(Nc1cccc(Cl)c1)c1cc([N-]S(=O)(=O)c2ccccc2F)ccc1[O-] (3D coordinates assigned)
O=C(Nc1cccc(Cl)c1)c1cc([N-]S(=O)(=O)c2ccccc2F)ccc1[O-] (optimized conformer: 55.22997651203512 kcal/mol)

>  <smiles>  (60) 
O=C(Nc1cccc(Cl)c1)c1cc(NS(=O)(=O)c2ccccc2F)ccc1O

>  <score_type>  (60) 
oracle

>  <origin>  (60) 
adg

>  <m_score__min__energy>  (60) 
-12.57

>  <m_primary>  (60) 
energy

$$$$
60:0
     RDKit          3D

 44 46  0  0  0  0  0  0  0  0999 V2000
   55.9730   23.1210   42.5850 N   0  0  0  0  0  0  0  0  0  0  0  0
   56.7960   22.7470   44.0580 S   0  0  0  0  0  0  0  0  0  0  0  0
   56.0390   21.6740   44.7890 O   0  0  0  0  0  0  0  0  0  0  0  0
   58.1790   22.2450   43.7550 O   0  0  0  0  0  0  0  0  0  0  0  0
   56.9020   24.1970   45.0500 C   0  0  0  0  0  0  0  0  0  0  0  0
   56.6410   24.1400   46.4270 C   0  0  0  0  0  0  0  0  0  0  0  0
   56.6810   25.3050   47.1970 C   0  0  0  0  0  0  0  0  0  0  0  0
   56.9840   26.5310   46.5970 C   0  0  0  0  0  0  0  0  0  0  0  0
   57.2670   26.5980   45.2270 C   0  0  0  0  0  0  0  0  0  0  0  0
   57.5220   27.8790   44.6350 N   0  0  0  0  0  0  0  0  0  0  0  0
   56.5610   28.9310   44.4890 C   0  0  0  0  0  0  0  0  0  0  0  0
   55.5510   28.9880   45.2420 O   0  0  0  0  0  0  0  0  0  0  0  0
   56.7910   29.9980   43.4750 C   0  0  0  0  0  0  0  0  0  0  0  0
   57.9540   30.7250   43.8530 O   0  0  0  0  0  0  0  0  0  0  0  0
   57.9990   31.7360   44.8260 C   0  0  0  0  0  0  0  0  0  0  0  0
   57.4450   33.0100   44.5980 C   0  0  0  0  0  0  0  0  0  0  0  0
   57.5430   34.0070   45.5710 C   0  0  0  0  0  0  0  0  0  0  0  0
   58.1900   33.7460   46.7780 C   0  0  0  0  0  0  0  0  0  0  0  0
   58.7380   32.4850   47.0210 C   0  0  0  0  0  0  0  0  0  0  0  0
   58.6390   31.4680   46.0560 C   0  0  0  0  0  0  0  0  0  0  0  0
   59.2210   30.1310   46.3360 C   0  0  0  0  0  0  0  0  0  0  0  0
   58.9590   29.4780   47.5550 C   0  0  0  0  0  0  0  0  0  0  0  0
   59.4960   28.2120   47.8070 C   0  0  0  0  0  0  0  0  0  0  0  0
   60.3020   27.5890   46.8510 C   0  0  0  0  0  0  0  0  0  0  0  0
   60.5760   28.2330   45.6430 C   0  0  0  0  0  0  0  0  0  0  0  0
   60.0420   29.5000   45.3850 C   0  0  0  0  0  0  0  0  0  0  0  0
   57.2090   25.4260   44.4530 C   0  0  0  0  0  0  0  0  0  0  0  0
   56.3050   22.4390   41.8670 H   0  0  0  0  0  0  0  0  0  0  0  0
   56.3050   24.0640   42.2820 H   0  0  0  0  0  0  0  0  0  0  0  0
   56.4044   23.1762   46.9015 H   0  0  0  0  0  0  0  0  0  0  0  0
   56.4739   25.2577   48.2763 H   0  0  0  0  0  0  0  0  0  0  0  0
   57.0002   27.4480   47.2043 H   0  0  0  0  0  0  0  0  0  0  0  0
   56.9407   29.5444   42.4841 H   0  0  0  0  0  0  0  0  0  0  0  0
   55.9214   30.6699   43.4255 H   0  0  0  0  0  0  0  0  0  0  0  0
   56.9321   33.2213   43.6481 H   0  0  0  0  0  0  0  0  0  0  0  0
   57.1088   35.0003   45.3846 H   0  0  0  0  0  0  0  0  0  0  0  0
   58.2689   34.5350   47.5404 H   0  0  0  0  0  0  0  0  0  0  0  0
   59.2505   32.2862   47.9738 H   0  0  0  0  0  0  0  0  0  0  0  0
   58.3287   29.9661   48.3130 H   0  0  0  0  0  0  0  0  0  0  0  0
   59.2834   27.7054   48.7600 H   0  0  0  0  0  0  0  0  0  0  0  0
   60.7206   26.5914   47.0500 H   0  0  0  0  0  0  0  0  0  0  0  0
   61.2133   27.7430   44.8922 H   0  0  0  0  0  0  0  0  0  0  0  0
   60.2655   30.0049   44.4336 H   0  0  0  0  0  0  0  0  0  0  0  0
   57.4059   25.4746   43.3719 H   0  0  0  0  0  0  0  0  0  0  0  0
  1  2  1  0
  2  3  2  0
  2  4  2  0
  2  5  1  0
  5  6  2  0
  6  7  1  0
  7  8  2  0
  8  9  1  0
  9 10  1  0
 10 11  1  0
 11 12  2  0
 11 13  1  0
 13 14  1  0
 14 15  1  0
 15 16  2  0
 16 17  1  0
 17 18  2  0
 18 19  1  0
 19 20  2  0
 20 21  1  0
 21 22  2  0
 22 23  1  0
 23 24  2  0
 24 25  1  0
 25 26  2  0
  9 27  2  0
 27  5  1  0
 20 15  1  0
 26 21  1  0
  1 28  1  0
  1 29  1  0
  6 30  1  0
  7 31  1  0
  8 32  1  0
 13 33  1  0
 13 34  1  0
 16 35  1  0
 17 36  1  0
 18 37  1  0
 19 38  1  0
 22 39  1  0
 23 40  1  0
 24 41  1  0
 25 42  1  0
 26 43  1  0
 27 44  1  0
M  CHG  1  10  -1
M  END
>  <UniqueID>  (61) 
53

>  <SMILES>  (61) 
NS(=O)(=O)c1cccc([N-]C(=O)COc2ccccc2-c2ccccc2)c1

>  <Energy>  (61) 
52.197481129856136

>  <Genealogy>  (61) 
NS(=O)(=O)c1cccc([N-]C(=O)COc2ccccc2-c2ccccc2)c1 (protonated)
NS(=O)(=O)c1cccc([N-]C(=O)COc2ccccc2-c2ccccc2)c1 (3D coordinates assigned)
NS(=O)(=O)c1cccc([N-]C(=O)COc2ccccc2-c2ccccc2)c1 (optimized conformer: 52.197481129856136 kcal/mol)

>  <smiles>  (61) 
NS(=O)(=O)c1cccc(NC(=O)COc2ccccc2-c2ccccc2)c1

>  <score_type>  (61) 
oracle

>  <origin>  (61) 
adg

>  <m_score__min__energy>  (61) 
-10.59

>  <m_primary>  (61) 
energy

$$$$
61:0
     RDKit          3D

 47 51  0  0  0  0  0  0  0  0999 V2000
   60.5550   31.7230   49.5870 C   0  0  0  0  0  0  0  0  0  0  0  0
   61.4140   32.2490   48.3990 C   0  0  1  0  0  0  0  0  0  0  0  0
   61.8800   31.0800   47.5090 C   0  0  0  0  0  0  0  0  0  0  0  0
   60.6810   30.4470   46.7450 C   0  0  0  0  0  0  0  0  0  0  0  0
   59.7730   31.4850   46.0050 C   0  0  1  0  0  0  0  0  0  0  0  0
   58.5120   30.8880   45.3780 C   0  0  0  0  0  0  0  0  0  0  0  0
   58.5010   29.5680   44.8800 C   0  0  0  0  0  0  0  0  0  0  0  0
   57.3760   29.0570   44.2300 C   0  0  0  0  0  0  0  0  0  0  0  0
   56.2480   29.8570   44.0390 C   0  0  0  0  0  0  0  0  0  0  0  0
   55.1200   29.3530   43.3970 O   0  0  0  0  0  0  0  0  0  0  0  0
   56.2520   31.1760   44.4930 C   0  0  0  0  0  0  0  0  0  0  0  0
   57.3770   31.7120   45.1400 C   0  0  0  0  0  0  0  0  0  0  0  0
   57.2880   33.1390   45.6430 C   0  0  0  0  0  0  0  0  0  0  0  0
   58.6340   33.7240   46.0790 C   0  0  0  0  0  0  0  0  0  0  0  0
   59.4010   32.6950   46.9160 C   0  0  2  0  0  0  0  0  0  0  0  0
   60.7080   33.2630   47.4860 C   0  0  1  0  0  0  0  0  0  0  0  0
   60.7410   34.5650   48.2780 C   0  0  0  0  0  0  0  0  0  0  0  0
   62.0510   34.4110   48.9880 C   0  0  0  0  0  0  0  0  0  0  0  0
   62.4710   33.1410   48.9880 C   0  0  0  0  0  0  0  0  0  0  0  0
   63.7040   32.6720   49.6470 C   0  0  0  0  0  0  0  0  0  0  0  0
   63.8810   31.5110   50.3700 C   0  0  0  0  0  0  0  0  0  0  0  0
   65.1550   31.4570   50.8020 N   0  0  0  0  0  0  0  0  0  0  0  0
   65.6990   32.5930   50.3190 C   0  0  0  0  0  0  0  0  0  0  0  0
   67.5150   33.0920   50.6030 Br  0  0  0  0  0  0  0  0  0  0  0  0
   64.8440   33.3170   49.6340 O   0  0  0  0  0  0  0  0  0  0  0  0
   61.0274   32.0123   50.5374 H   0  0  0  0  0  0  0  0  0  0  0  0
   59.5465   32.1586   49.5313 H   0  0  0  0  0  0  0  0  0  0  0  0
   60.4845   30.6267   49.5313 H   0  0  0  0  0  0  0  0  0  0  0  0
   62.6140   31.4536   46.7799 H   0  0  0  0  0  0  0  0  0  0  0  0
   62.3318   30.3097   48.1512 H   0  0  0  0  0  0  0  0  0  0  0  0
   61.0796   29.7436   45.9991 H   0  0  0  0  0  0  0  0  0  0  0  0
   60.0493   29.9550   47.4993 H   0  0  0  0  0  0  0  0  0  0  0  0
   60.3950   31.8428   45.1713 H   0  0  0  0  0  0  0  0  0  0  0  0
   59.3905   28.9331   45.0055 H   0  0  0  0  0  0  0  0  0  0  0  0
   57.3785   28.0188   43.8665 H   0  0  0  0  0  0  0  0  0  0  0  0
   55.1960   28.7480   42.5880 H   0  0  0  0  0  0  0  0  0  0  0  0
   55.3620   31.8046   44.3421 H   0  0  0  0  0  0  0  0  0  0  0  0
   56.8817   33.7667   44.8362 H   0  0  0  0  0  0  0  0  0  0  0  0
   56.6404   33.1262   46.5321 H   0  0  0  0  0  0  0  0  0  0  0  0
   59.2250   33.9836   45.1883 H   0  0  0  0  0  0  0  0  0  0  0  0
   58.4590   34.6260   46.6838 H   0  0  0  0  0  0  0  0  0  0  0  0
   58.7507   32.4018   47.7533 H   0  0  0  0  0  0  0  0  0  0  0  0
   61.1883   33.4912   46.5231 H   0  0  0  0  0  0  0  0  0  0  0  0
   60.7369   35.4441   47.6169 H   0  0  0  0  0  0  0  0  0  0  0  0
   59.8753   34.7258   48.9373 H   0  0  0  0  0  0  0  0  0  0  0  0
   62.6013   35.2421   49.4533 H   0  0  0  0  0  0  0  0  0  0  0  0
   63.1075   30.7529   50.5623 H   0  0  0  0  0  0  0  0  0  0  0  0
  2  1  1  1
  2  3  1  0
  3  4  1  0
  4  5  1  0
  5  6  1  0
  6  7  2  0
  7  8  1  0
  8  9  2  0
  9 10  1  0
  9 11  1  0
 11 12  2  0
 12 13  1  0
 13 14  1  0
 14 15  1  0
 15 16  1  0
 16 17  1  0
 17 18  1  0
 18 19  2  0
 19 20  1  0
 20 21  2  0
 21 22  1  0
 22 23  2  0
 23 24  1  0
 23 25  1  0
 16  2  1  0
 25 20  1  0
 19  2  1  0
 15  5  1  0
 12  6  1  0
  1 26  1  0
  1 27  1  0
  1 28  1  0
  3 29  1  0
  3 30  1  0
  4 31  1  0
  4 32  1  0
  5 33  1  6
  7 34  1  0
  8 35  1  0
 10 36  1  0
 11 37  1  0
 13 38  1  0
 13 39  1  0
 14 40  1  0
 14 41  1  0
 15 42  1  1
 16 43  1  6
 17 44  1  0
 17 45  1  0
 18 46  1  0
 21 47  1  0
M  END
>  <UniqueID>  (62) 
54

>  <SMILES>  (62) 
C[C@@]12CC[C@H]3c4ccc(O)cc4CCC3C1CC=C2c1cnc(Br)o1

>  <Energy>  (62) 
104.24713365985232

>  <Genealogy>  (62) 
C[C@@]12CC[C@H]3c4ccc(O)cc4CCC3C1CC=C2c1cnc(Br)o1 (chirality)
C[C@@]12CC[C@H]3c4ccc(O)cc4CCC3C1CC=C2c1cnc(Br)o1 (3D coordinates assigned)
C[C@@]12CC[C@H]3c4ccc(O)cc4CCC3C1CC=C2c1cnc(Br)o1 (nonaromatic ring conformer: 104.24713365985232 kcal/mol)

>  <smiles>  (62) 
CC12CCC3c4ccc(O)cc4CCC3C1CC=C2c1cnc(Br)o1

>  <score_type>  (62) 
oracle

>  <origin>  (62) 
adg

>  <m_score__min__energy>  (62) 
-9.0899999999999999

>  <m_primary>  (62) 
energy

$$$$
62:0
     RDKit          3D

 60 65  0  0  0  0  0  0  0  0999 V2000
   57.9330   27.1500   44.1090 C   0  0  0  0  0  0  0  0  0  0  0  0
   58.5820   27.3930   45.4390 C   0  0  0  0  0  0  0  0  0  0  0  0
   59.6370   26.6130   45.8030 N   0  0  0  0  0  0  0  0  0  0  0  0
   60.2610   26.7490   47.0010 C   0  0  0  0  0  0  0  0  0  0  0  0
   59.8250   27.7120   47.9240 C   0  0  0  0  0  0  0  0  0  0  0  0
   60.4980   27.8670   49.2390 C   0  0  0  0  0  0  0  0  0  0  0  0
   60.7980   29.1390   49.7370 C   0  0  0  0  0  0  0  0  0  0  0  0
   61.4340   29.2860   50.9650 C   0  0  0  0  0  0  0  0  0  0  0  0
   61.7860   28.1670   51.7460 C   0  0  0  0  0  0  0  0  0  0  0  0
   61.4750   26.8590   51.2560 C   0  0  0  0  0  0  0  0  0  0  0  0
   60.8380   26.7410   50.0050 C   0  0  0  0  0  0  0  0  0  0  0  0
   61.7130   25.5360   51.9850 C   0  0  0  0  0  0  0  0  0  0  0  0
   62.5440   25.5410   53.2720 C   0  0  0  0  0  0  0  0  0  0  0  0
   63.8180   26.3180   53.0990 C   0  0  0  0  0  0  0  0  0  0  0  0
   65.0640   25.6670   53.1210 C   0  0  0  0  0  0  0  0  0  0  0  0
   66.2450   26.4060   53.0130 C   0  0  0  0  0  0  0  0  0  0  0  0
   66.1930   27.7960   52.8950 C   0  0  0  0  0  0  0  0  0  0  0  0
   64.9600   28.4520   52.8810 C   0  0  0  0  0  0  0  0  0  0  0  0
   63.7630   27.7180   52.9720 C   0  0  0  0  0  0  0  0  0  0  0  0
   62.4890   28.3920   52.9880 N   0  0  0  0  0  0  0  0  0  0  0  0
   58.7420   28.5310   47.5680 C   0  0  0  0  0  0  0  0  0  0  0  0
   58.1320   28.3990   46.3180 C   0  0  0  0  0  0  0  0  0  0  0  0
   57.0440   29.2660   45.9880 N   0  0  0  0  0  0  0  0  0  0  0  0
   57.1890   30.5420   44.8220 S   0  0  0  0  0  0  0  0  0  0  0  0
   58.0580   30.0860   43.6820 O   0  0  0  0  0  0  0  0  0  0  0  0
   55.8200   30.8890   44.3070 O   0  0  0  0  0  0  0  0  0  0  0  0
   57.9340   31.9600   45.5650 C   0  0  0  0  0  0  0  0  0  0  0  0
   57.2350   33.1780   45.6000 C   0  0  0  0  0  0  0  0  0  0  0  0
   57.8070   34.3070   46.1920 C   0  0  0  0  0  0  0  0  0  0  0  0
   59.0810   34.2370   46.7600 C   0  0  0  0  0  0  0  0  0  0  0  0
   59.7910   33.0290   46.7410 C   0  0  0  0  0  0  0  0  0  0  0  0
   61.0680   32.9330   47.3110 C   0  0  0  0  0  0  0  0  0  0  0  0
   61.7500   31.7150   47.2840 C   0  0  0  0  0  0  0  0  0  0  0  0
   61.1510   30.6050   46.6870 C   0  0  0  0  0  0  0  0  0  0  0  0
   59.9120   30.7110   46.1360 N   0  0  0  0  0  0  0  0  0  0  0  0
   59.2170   31.8830   46.1420 C   0  0  0  0  0  0  0  0  0  0  0  0
   56.9130   26.7681   44.2631 H   0  0  0  0  0  0  0  0  0  0  0  0
   57.8901   28.0930   43.5442 H   0  0  0  0  0  0  0  0  0  0  0  0
   58.5199   26.4107   43.5442 H   0  0  0  0  0  0  0  0  0  0  0  0
   61.1138   26.1002   47.2498 H   0  0  0  0  0  0  0  0  0  0  0  0
   60.5286   30.0309   49.1523 H   0  0  0  0  0  0  0  0  0  0  0  0
   61.6669   30.2957   51.3340 H   0  0  0  0  0  0  0  0  0  0  0  0
   60.6006   25.7391   49.6179 H   0  0  0  0  0  0  0  0  0  0  0  0
   60.7250   25.1251   52.2399 H   0  0  0  0  0  0  0  0  0  0  0  0
   62.3194   24.9491   51.2794 H   0  0  0  0  0  0  0  0  0  0  0  0
   61.9522   25.9989   54.0783 H   0  0  0  0  0  0  0  0  0  0  0  0
   62.8037   24.5013   53.5204 H   0  0  0  0  0  0  0  0  0  0  0  0
   65.1093   24.5727   53.2235 H   0  0  0  0  0  0  0  0  0  0  0  0
   67.2173   25.8916   53.0210 H   0  0  0  0  0  0  0  0  0  0  0  0
   67.1244   28.3755   52.8129 H   0  0  0  0  0  0  0  0  0  0  0  0
   64.9245   29.5483   52.7984 H   0  0  0  0  0  0  0  0  0  0  0  0
   62.6030   29.4170   53.1470 H   0  0  0  0  0  0  0  0  0  0  0  0
   61.9280   28.0520   53.8040 H   0  0  0  0  0  0  0  0  0  0  0  0
   58.3704   29.2832   48.2793 H   0  0  0  0  0  0  0  0  0  0  0  0
   56.2298   33.2434   45.1580 H   0  0  0  0  0  0  0  0  0  0  0  0
   57.2510   35.2559   46.2108 H   0  0  0  0  0  0  0  0  0  0  0  0
   59.5270   35.1300   47.2222 H   0  0  0  0  0  0  0  0  0  0  0  0
   61.5314   33.8145   47.7781 H   0  0  0  0  0  0  0  0  0  0  0  0
   62.7520   31.6310   47.7300 H   0  0  0  0  0  0  0  0  0  0  0  0
   61.6821   29.6420   46.6620 H   0  0  0  0  0  0  0  0  0  0  0  0
  1  2  1  0
  2  3  2  0
  3  4  1  0
  4  5  2  0
  5  6  1  0
  6  7  2  0
  7  8  1  0
  8  9  2  0
  9 10  1  0
 10 11  2  0
 10 12  1  0
 12 13  1  0
 13 14  1  0
 14 15  2  0
 15 16  1  0
 16 17  2  0
 17 18  1  0
 18 19  2  0
 19 20  1  0
  5 21  1  0
 21 22  2  0
 22 23  1  0
 23 24  1  0
 24 25  2  0
 24 26  2  0
 24 27  1  0
 27 28  2  0
 28 29  1  0
 29 30  2  0
 30 31  1  0
 31 32  2  0
 32 33  1  0
 33 34  2  0
 34 35  1  0
 35 36  2  0
 22  2  1  0
 36 27  1  0
 11  6  1  0
 19 14  1  0
 36 31  1  0
 20  9  1  0
  1 37  1  0
  1 38  1  0
  1 39  1  0
  4 40  1  0
  7 41  1  0
  8 42  1  0
 11 43  1  0
 12 44  1  0
 12 45  1  0
 13 46  1  0
 13 47  1  0
 15 48  1  0
 16 49  1  0
 17 50  1  0
 18 51  1  0
 20 52  1  0
 20 53  1  0
 21 54  1  0
 28 55  1  0
 29 56  1  0
 30 57  1  0
 32 58  1  0
 33 59  1  0
 34 60  1  0
M  CHG  2  20   1  23  -1
M  END
>  <UniqueID>  (63) 
55

>  <SMILES>  (63) 
Cc1ncc(-c2ccc3c(c2)CCc2ccccc2[NH2+]3)cc1[N-]S(=O)(=O)c1cccc2cccnc12

>  <Energy>  (63) 
101.27391880255927

>  <Genealogy>  (63) 
Cc1ncc(-c2ccc3c(c2)CCc2ccccc2[NH2+]3)cc1[N-]S(=O)(=O)c1cccc2cccnc12 (protonated)
Cc1ncc(-c2ccc3c(c2)CCc2ccccc2[NH2+]3)cc1[N-]S(=O)(=O)c1cccc2cccnc12 (3D coordinates assigned)
Cc1ncc(-c2ccc3c(c2)CCc2ccccc2[NH2+]3)cc1[N-]S(=O)(=O)c1cccc2cccnc12 (nonaromatic ring conformer: 101.27391880255927 kcal/mol)

>  <smiles>  (63) 
Cc1ncc(-c2ccc3c(c2)CCc2ccccc2N3)cc1NS(=O)(=O)c1cccc2cccnc12

>  <score_type>  (63) 
oracle

>  <origin>  (63) 
adg

>  <m_score__min__energy>  (63) 
-9.4100000000000001

>  <m_primary>  (63) 
energy

$$$$
63:0
     RDKit          3D

 38 39  0  0  0  0  0  0  0  0999 V2000
   57.2780   20.8620   45.4890 C   0  0  0  0  0  0  0  0  0  0  0  0
   57.0300   20.8870   47.2520 S   0  0  0  0  0  0  0  0  0  0  0  0
   55.6530   20.3660   47.5510 O   0  0  0  0  0  0  0  0  0  0  0  0
   58.0390   20.0080   47.9360 O   0  0  0  0  0  0  0  0  0  0  0  0
   57.1520   22.5110   47.8500 N   0  0  0  0  0  0  0  0  0  0  0  0
   57.1070   23.7030   47.0550 C   0  0  0  0  0  0  0  0  0  0  0  0
   58.2670   24.1000   46.3820 C   0  0  0  0  0  0  0  0  0  0  0  0
   58.2730   25.2580   45.6000 C   0  0  0  0  0  0  0  0  0  0  0  0
   57.1210   26.0490   45.4910 C   0  0  0  0  0  0  0  0  0  0  0  0
   57.1610   27.2330   44.6750 N   0  0  0  0  0  0  0  0  0  0  0  0
   57.8160   28.4560   45.0500 C   0  0  0  0  0  0  0  0  0  0  0  0
   59.1740   28.4230   45.3890 C   0  0  0  0  0  0  0  0  0  0  0  0
   59.8390   29.5920   45.7610 C   0  0  0  0  0  0  0  0  0  0  0  0
   59.1510   30.8050   45.8130 C   0  0  0  0  0  0  0  0  0  0  0  0
   57.7800   30.8550   45.5050 C   0  0  0  0  0  0  0  0  0  0  0  0
   57.0350   32.0810   45.5660 N   0  0  0  0  0  0  0  0  0  0  0  0
   57.6870   33.6640   45.2940 S   0  0  0  0  0  0  0  0  0  0  0  0
   58.4990   34.2130   46.7770 C   0  0  0  0  0  0  0  0  0  0  0  0
   56.5800   34.6210   44.9570 O   0  0  0  0  0  0  0  0  0  0  0  0
   58.6880   33.6200   44.1740 O   0  0  0  0  0  0  0  0  0  0  0  0
   57.1120   29.6770   45.1350 C   0  0  0  0  0  0  0  0  0  0  0  0
   55.7440   29.7210   44.8770 O   0  0  0  0  0  0  0  0  0  0  0  0
   55.9400   25.6340   46.1390 C   0  0  0  0  0  0  0  0  0  0  0  0
   54.7570   26.3520   45.9930 O   0  0  0  0  0  0  0  0  0  0  0  0
   55.9390   24.4760   46.9250 C   0  0  0  0  0  0  0  0  0  0  0  0
   58.3508   20.7539   45.2711 H   0  0  0  0  0  0  0  0  0  0  0  0
   56.7281   20.0147   45.0533 H   0  0  0  0  0  0  0  0  0  0  0  0
   56.9083   21.8020   45.0533 H   0  0  0  0  0  0  0  0  0  0  0  0
   59.1820   23.4957   46.4690 H   0  0  0  0  0  0  0  0  0  0  0  0
   59.1888   25.5511   45.0658 H   0  0  0  0  0  0  0  0  0  0  0  0
   56.6780   27.2020   43.7480 H   0  0  0  0  0  0  0  0  0  0  0  0
   59.7206   27.4688   45.3619 H   0  0  0  0  0  0  0  0  0  0  0  0
   60.9089   29.5573   46.0141 H   0  0  0  0  0  0  0  0  0  0  0  0
   59.6831   31.7252   46.0959 H   0  0  0  0  0  0  0  0  0  0  0  0
   57.9497   33.8416   47.6547 H   0  0  0  0  0  0  0  0  0  0  0  0
   59.5279   33.8245   46.7970 H   0  0  0  0  0  0  0  0  0  0  0  0
   58.5218   35.3126   46.7970 H   0  0  0  0  0  0  0  0  0  0  0  0
   55.0193   24.1685   47.4442 H   0  0  0  0  0  0  0  0  0  0  0  0
  1  2  1  0
  2  3  2  0
  2  4  2  0
  2  5  1  0
  5  6  1  0
  6  7  2  0
  7  8  1  0
  8  9  2  0
  9 10  1  0
 10 11  1  0
 11 12  2  0
 12 13  1  0
 13 14  2  0
 14 15  1  0
 15 16  1  0
 16 17  1  0
 17 18  1  0
 17 19  2  0
 17 20  2  0
 15 21  2  0
 21 22  1  0
  9 23  1  0
 23 24  1  0
 23 25  2  0
 25  6  1  0
 21 11  1  0
  1 26  1  0
  1 27  1  0
  1 28  1  0
  7 29  1  0
  8 30  1  0
 10 31  1  0
 12 32  1  0
 13 33  1  0
 14 34  1  0
 18 35  1  0
 18 36  1  0
 18 37  1  0
 25 38  1  0
M  CHG  4   5  -1  16  -1  22  -1  24  -1
M  END
>  <UniqueID>  (64) 
56

>  <SMILES>  (64) 
CS(=O)(=O)[N-]c1ccc(Nc2cccc([N-]S(C)(=O)=O)c2[O-])c([O-])c1

>  <Energy>  (64) 
44.89022904043777

>  <Genealogy>  (64) 
CS(=O)(=O)[N-]c1ccc(Nc2cccc([N-]S(C)(=O)=O)c2[O-])c([O-])c1 (protonated)
CS(=O)(=O)[N-]c1ccc(Nc2cccc([N-]S(C)(=O)=O)c2[O-])c([O-])c1 (3D coordinates assigned)
CS(=O)(=O)[N-]c1ccc(Nc2cccc([N-]S(C)(=O)=O)c2[O-])c([O-])c1 (optimized conformer: 44.89022904043777 kcal/mol)

>  <smiles>  (64) 
CS(=O)(=O)Nc1ccc(Nc2cccc(NS(C)(=O)=O)c2O)c(O)c1

>  <score_type>  (64) 
oracle

>  <origin>  (64) 
adg

>  <m_score__min__energy>  (64) 
-16.91

>  <m_primary>  (64) 
energy

$$$$
64:0
     RDKit          3D

 40 42  0  0  1  0  0  0  0  0999 V2000
   59.1910   33.4870   48.4150 C   0  0  0  0  0  0  0  0  0  0  0  0
   58.7810   33.4840   46.9760 C   0  0  0  0  0  0  0  0  0  0  0  0
   59.2130   34.4980   46.1580 C   0  0  0  0  0  0  0  0  0  0  0  0
   58.8370   34.5060   44.8110 C   0  0  0  0  0  0  0  0  0  0  0  0
   58.0230   33.4800   44.3180 C   0  0  0  0  0  0  0  0  0  0  0  0
   57.5880   32.4520   45.1590 C   0  0  0  0  0  0  0  0  0  0  0  0
   56.7620   31.4220   44.6260 N   0  0  0  0  0  0  0  0  0  0  0  0
   56.9290   30.1730   44.8880 C   0  0  0  0  0  0  0  0  0  0  0  0
   58.2100   29.6970   45.0660 C   0  0  0  0  0  0  0  0  0  0  0  0
   58.3830   28.3610   45.3440 C   0  0  0  0  0  0  0  0  0  0  0  0
   57.2490   27.5840   45.4250 C   0  0  0  0  0  0  0  0  0  0  0  0
   57.2830   26.3240   45.6790 N   0  0  0  0  0  0  0  0  0  0  0  0
   58.3510   25.4830   45.2500 C   0  0  0  0  0  0  0  0  0  0  0  0
   57.8510   24.2120   44.6210 C   0  0  0  0  0  0  0  0  0  0  0  0
   58.5100   23.0040   44.8010 C   0  0  0  0  0  0  0  0  0  0  0  0
   58.0720   21.8240   44.2350 C   0  0  0  0  0  0  0  0  0  0  0  0
   56.9350   21.8220   43.4540 C   0  0  0  0  0  0  0  0  0  0  0  0
   56.2630   22.9940   43.2580 C   0  0  0  0  0  0  0  0  0  0  0  0
   55.1530   22.9820   42.4940 F   0  0  0  0  0  0  0  0  0  0  0  0
   56.7190   24.1770   43.8360 C   0  0  0  0  0  0  0  0  0  0  0  0
   56.0080   28.1160   45.2380 N   0  0  0  0  0  0  0  0  0  0  0  0
   55.8320   29.4000   44.9700 N   0  0  0  0  0  0  0  0  0  0  0  0
   57.9790   32.4670   46.5000 C   0  0  0  0  0  0  0  0  0  0  0  0
   58.2941   33.4804   49.0518 H   0  0  0  0  0  0  0  0  0  0  0  0
   59.7967   32.5933   48.6255 H   0  0  0  0  0  0  0  0  0  0  0  0
   59.7836   34.3895   48.6255 H   0  0  0  0  0  0  0  0  0  0  0  0
   59.8509   35.2992   46.5594 H   0  0  0  0  0  0  0  0  0  0  0  0
   59.1782   35.3120   44.1447 H   0  0  0  0  0  0  0  0  0  0  0  0
   57.7230   33.4826   43.2597 H   0  0  0  0  0  0  0  0  0  0  0  0
   59.0757   30.3711   44.9874 H   0  0  0  0  0  0  0  0  0  0  0  0
   59.3844   27.9316   45.4952 H   0  0  0  0  0  0  0  0  0  0  0  0
   58.9583   26.0287   44.5129 H   0  0  0  0  0  0  0  0  0  0  0  0
   58.9460   25.2124   46.1347 H   0  0  0  0  0  0  0  0  0  0  0  0
   59.4189   22.9863   45.4203 H   0  0  0  0  0  0  0  0  0  0  0  0
   58.6268   20.8897   44.4058 H   0  0  0  0  0  0  0  0  0  0  0  0
   56.5749   20.8892   42.9956 H   0  0  0  0  0  0  0  0  0  0  0  0
   56.1602   25.1082   43.6609 H   0  0  0  0  0  0  0  0  0  0  0  0
   55.1440   27.5290   45.3000 H   0  0  0  0  0  0  0  0  0  0  0  0
   54.8820   29.8260   44.8240 H   0  0  0  0  0  0  0  0  0  0  0  0
   57.6470   31.6667   47.1777 H   0  0  0  0  0  0  0  0  0  0  0  0
  1  2  1  0
  2  3  2  0
  3  4  1  0
  4  5  2  0
  5  6  1  0
  6  7  1  0
  7  8  2  0
  8  9  1  0
  9 10  2  0
 10 11  1  0
 11 12  2  0
 12 13  1  0
 13 14  1  0
 14 15  2  0
 15 16  1  0
 16 17  2  0
 17 18  1  0
 18 19  1  0
 18 20  2  0
 11 21  1  0
 21 22  1  0
  6 23  2  0
 23  2  1  0
 22  8  1  0
 20 14  1  0
  1 24  1  0
  1 25  1  0
  1 26  1  0
  3 27  1  0
  4 28  1  0
  5 29  1  0
  9 30  1  0
 10 31  1  0
 13 32  1  0
 13 33  1  0
 15 34  1  0
 16 35  1  0
 17 36  1  0
 20 37  1  0
 21 38  1  0
 22 39  1  0
 23 40  1  0
M  END
>  <smiles>  (65) 
Cc1cccc(N=c2ccc(=NCc3cccc(F)c3)[nH][nH]2)c1

>  <score_type>  (65) 
oracle

>  <origin>  (65) 
adg

>  <m_score__min__energy>  (65) 
-8.6600000000000001

>  <m_primary>  (65) 
energy

$$$$
65:0
     RDKit          3D

 32 33  0  0  0  0  0  0  0  0999 V2000
   55.1280   29.3190   44.6240 N   0  0  0  0  0  0  0  0  0  0  0  0
   56.6830   30.0290   44.3730 S   0  0  0  0  0  0  0  0  0  0  0  0
   57.0100   30.0120   42.9060 O   0  0  0  0  0  0  0  0  0  0  0  0
   56.6650   31.4560   44.8460 O   0  0  0  0  0  0  0  0  0  0  0  0
   57.8970   29.1170   45.2640 C   0  0  0  0  0  0  0  0  0  0  0  0
   59.1270   29.7050   45.5870 C   0  0  0  0  0  0  0  0  0  0  0  0
   60.0860   28.9790   46.2960 C   0  0  0  0  0  0  0  0  0  0  0  0
   59.8200   27.6680   46.6980 C   0  0  0  0  0  0  0  0  0  0  0  0
   58.5770   27.0780   46.4070 C   0  0  0  0  0  0  0  0  0  0  0  0
   58.2660   25.7290   46.7870 N   0  0  0  0  0  0  0  0  0  0  0  0
   56.9570   25.1710   46.9560 C   0  0  0  0  0  0  0  0  0  0  0  0
   56.7060   24.3840   47.9080 O   0  0  0  0  0  0  0  0  0  0  0  0
   55.8750   25.5340   45.9950 C   0  0  0  0  0  0  0  0  0  0  0  0
   54.7640   24.6040   46.1530 N   0  0  0  0  0  0  0  0  0  0  0  0
   54.4530   23.5060   45.2840 C   0  0  0  0  0  0  0  0  0  0  0  0
   53.2600   23.1130   45.2220 O   0  0  0  0  0  0  0  0  0  0  0  0
   55.4730   22.7860   44.4980 C   0  0  0  0  0  0  0  0  0  0  0  0
   55.8850   23.0520   43.1950 C   0  0  0  0  0  0  0  0  0  0  0  0
   56.8260   22.1360   42.7110 C   0  0  0  0  0  0  0  0  0  0  0  0
   57.1530   21.1370   43.6180 C   0  0  0  0  0  0  0  0  0  0  0  0
   56.2610   21.3920   45.0180 S   0  0  0  0  0  0  0  0  0  0  0  0
   57.6280   27.8040   45.6740 C   0  0  0  0  0  0  0  0  0  0  0  0
   54.9380   29.3560   45.6510 H   0  0  0  0  0  0  0  0  0  0  0  0
   59.3375   30.7405   45.2815 H   0  0  0  0  0  0  0  0  0  0  0  0
   61.0543   29.4410   46.5388 H   0  0  0  0  0  0  0  0  0  0  0  0
   60.5847   27.0956   47.2436 H   0  0  0  0  0  0  0  0  0  0  0  0
   55.5297   26.5583   46.1991 H   0  0  0  0  0  0  0  0  0  0  0  0
   56.2600   25.4794   44.9660 H   0  0  0  0  0  0  0  0  0  0  0  0
   55.5078   23.8994   42.6037 H   0  0  0  0  0  0  0  0  0  0  0  0
   57.2659   22.2015   41.7049 H   0  0  0  0  0  0  0  0  0  0  0  0
   57.8710   20.3209   43.4491 H   0  0  0  0  0  0  0  0  0  0  0  0
   56.6642   27.3394   45.4185 H   0  0  0  0  0  0  0  0  0  0  0  0
  1  2  1  0
  2  3  2  0
  2  4  2  0
  2  5  1  0
  5  6  2  0
  6  7  1  0
  7  8  2  0
  8  9  1  0
  9 10  1  0
 10 11  1  0
 11 12  2  0
 11 13  1  0
 13 14  1  0
 14 15  1  0
 15 16  2  0
 15 17  1  0
 17 18  2  0
 18 19  1  0
 19 20  2  0
 20 21  1  0
  9 22  2  0
 22  5  1  0
 21 17  1  0
  1 23  1  0
  6 24  1  0
  7 25  1  0
  8 26  1  0
 13 27  1  0
 13 28  1  0
 18 29  1  0
 19 30  1  0
 20 31  1  0
 22 32  1  0
M  CHG  3   1  -1  10  -1  14  -1
M  END
>  <UniqueID>  (66) 
57

>  <SMILES>  (66) 
[NH-]S(=O)(=O)c1cccc([N-]C(=O)C[N-]C(=O)c2cccs2)c1

>  <Energy>  (66) 
62.50972872669589

>  <Genealogy>  (66) 
[NH-]S(=O)(=O)c1cccc([N-]C(=O)C[N-]C(=O)c2cccs2)c1 (protonated)
[NH-]S(=O)(=O)c1cccc([N-]C(=O)C[N-]C(=O)c2cccs2)c1 (3D coordinates assigned)
[NH-]S(=O)(=O)c1cccc([N-]C(=O)C[N-]C(=O)c2cccs2)c1 (optimized conformer: 62.50972872669589 kcal/mol)

>  <smiles>  (66) 
NS(=O)(=O)c1cccc(NC(=O)CNC(=O)c2cccs2)c1

>  <score_type>  (66) 
oracle

>  <origin>  (66) 
adg

>  <m_score__min__energy>  (66) 
-13.02

>  <m_primary>  (66) 
energy

$$$$
66:0
     RDKit          3D

 51 53  0  0  1  0  0  0  0  0999 V2000
   57.7790   26.7230   45.5430 C   0  0  0  0  0  0  0  0  0  0  0  0
   57.3010   28.0970   45.2490 C   0  0  0  0  0  0  0  0  0  0  0  0
   56.0100   28.4690   45.1930 N   0  0  0  0  0  0  0  0  0  0  0  0
   55.9530   29.7610   44.9070 N   0  0  0  0  0  0  0  0  0  0  0  0
   57.2060   30.2400   44.7750 C   0  0  0  0  0  0  0  0  0  0  0  0
   57.6380   31.5120   44.4840 O   0  0  0  0  0  0  0  0  0  0  0  0
   58.6300   32.2090   45.2530 C   0  0  2  0  0  0  0  0  0  0  0  0
   58.4370   32.0110   46.5670 O   0  0  0  0  0  0  0  0  0  0  0  0
   58.0310   33.0340   47.3710 C   0  0  1  0  0  0  0  0  0  0  0  0
   58.3790   32.6890   48.8040 C   0  0  0  0  0  0  0  0  0  0  0  0
   59.7310   32.7960   49.0630 O   0  0  0  0  0  0  0  0  0  0  0  0
   58.5290   34.3930   47.0140 C   0  0  1  0  0  0  0  0  0  0  0  0
   59.2710   34.9130   48.0740 O   0  0  0  0  0  0  0  0  0  0  0  0
   59.4200   34.4110   45.7950 C   0  0  2  0  0  0  0  0  0  0  0  0
   59.5730   35.7100   45.3450 O   0  0  0  0  0  0  0  0  0  0  0  0
   58.6740   33.6100   44.7470 C   0  0  2  0  0  0  0  0  0  0  0  0
   57.4240   34.1980   44.6060 O   0  0  0  0  0  0  0  0  0  0  0  0
   58.1030   29.1880   44.9900 C   0  0  0  0  0  0  0  0  0  0  0  0
   59.5890   29.2780   44.9420 C   0  0  0  0  0  0  0  0  0  0  0  0
   60.1880   29.6080   46.2600 C   0  0  0  0  0  0  0  0  0  0  0  0
   60.0090   28.8150   47.3870 C   0  0  0  0  0  0  0  0  0  0  0  0
   60.6120   29.2160   48.5670 C   0  0  0  0  0  0  0  0  0  0  0  0
   60.3730   28.1330   50.1270 Br  0  0  0  0  0  0  0  0  0  0  0  0
   61.3740   30.3690   48.6430 C   0  0  0  0  0  0  0  0  0  0  0  0
   61.5470   31.1460   47.5300 C   0  0  0  0  0  0  0  0  0  0  0  0
   62.3800   32.3880   47.6580 C   0  0  0  0  0  0  0  0  0  0  0  0
   61.5850   33.5360   47.5680 O   0  0  0  0  0  0  0  0  0  0  0  0
   60.9570   30.7630   46.3560 C   0  0  0  0  0  0  0  0  0  0  0  0
   57.8296   26.5776   46.6322 H   0  0  0  0  0  0  0  0  0  0  0  0
   57.0826   25.9914   45.1074 H   0  0  0  0  0  0  0  0  0  0  0  0
   58.7791   26.5816   45.1074 H   0  0  0  0  0  0  0  0  0  0  0  0
   55.1440   27.8790   45.3420 H   0  0  0  0  0  0  0  0  0  0  0  0
   59.6504   31.8197   45.1220 H   0  0  0  0  0  0  0  0  0  0  0  0
   56.9442   33.1182   47.2236 H   0  0  0  0  0  0  0  0  0  0  0  0
   57.8370   33.3738   49.4727 H   0  0  0  0  0  0  0  0  0  0  0  0
   58.0893   31.6416   48.9741 H   0  0  0  0  0  0  0  0  0  0  0  0
   60.0760   33.7210   49.1060 H   0  0  0  0  0  0  0  0  0  0  0  0
   57.6328   34.9921   46.7953 H   0  0  0  0  0  0  0  0  0  0  0  0
   60.2160   34.6820   48.0640 H   0  0  0  0  0  0  0  0  0  0  0  0
   60.4180   34.0016   46.0103 H   0  0  0  0  0  0  0  0  0  0  0  0
   58.8230   35.8940   44.7180 H   0  0  0  0  0  0  0  0  0  0  0  0
   59.1424   33.5973   43.7518 H   0  0  0  0  0  0  0  0  0  0  0  0
   56.7080   33.5350   44.4940 H   0  0  0  0  0  0  0  0  0  0  0  0
   59.9891   28.3098   44.6065 H   0  0  0  0  0  0  0  0  0  0  0  0
   59.8495   30.0899   44.2470 H   0  0  0  0  0  0  0  0  0  0  0  0
   59.4061   27.8960   47.3429 H   0  0  0  0  0  0  0  0  0  0  0  0
   61.8396   30.6601   49.5962 H   0  0  0  0  0  0  0  0  0  0  0  0
   62.8910   32.3797   48.6321 H   0  0  0  0  0  0  0  0  0  0  0  0
   63.1135   32.4043   46.8384 H   0  0  0  0  0  0  0  0  0  0  0  0
   60.6410   33.2570   47.6140 H   0  0  0  0  0  0  0  0  0  0  0  0
   61.0952   31.3876   45.4611 H   0  0  0  0  0  0  0  0  0  0  0  0
  1  2  1  0
  2  3  1  0
  3  4  1  0
  4  5  2  0
  5  6  1  0
  6  7  1  0
  7  8  1  0
  8  9  1  0
  9 10  1  0
 10 11  1  0
  9 12  1  0
 12 13  1  0
 12 14  1  0
 14 15  1  0
 14 16  1  0
 16 17  1  0
  5 18  1  0
 18 19  1  0
 19 20  1  0
 20 21  2  0
 21 22  1  0
 22 23  1  0
 22 24  2  0
 24 25  1  0
 25 26  1  0
 26 27  1  0
 25 28  2  0
 18  2  2  0
 28 20  1  0
 16  7  1  0
  1 29  1  0
  1 30  1  0
  1 31  1  0
  3 32  1  0
  7 33  1  6
  9 34  1  1
 10 35  1  0
 10 36  1  0
 11 37  1  0
 12 38  1  6
 13 39  1  0
 14 40  1  1
 15 41  1  0
 16 42  1  6
 17 43  1  0
 19 44  1  0
 19 45  1  0
 21 46  1  0
 24 47  1  0
 26 48  1  0
 26 49  1  0
 27 50  1  0
 28 51  1  0
M  END
>  <smiles>  (67) 
Cc1[nH]nc(OC2OC(CO)C(O)C(O)C2O)c1Cc1cc(Br)cc(CO)c1

>  <score_type>  (67) 
oracle

>  <origin>  (67) 
adg

>  <m_score__min__energy>  (67) 
-8.6899999999999995

>  <m_primary>  (67) 
energy

$$$$
67:0
     RDKit          3D

 53 56  0  0  0  0  0  0  0  0999 V2000
   58.1570   21.8500   44.5810 C   0  0  0  0  0  0  0  0  0  0  0  0
   56.8170   22.4200   44.2390 C   0  0  0  0  0  0  0  0  0  0  0  0
   56.2690   22.3560   43.0090 N   0  0  0  0  0  0  0  0  0  0  0  0
   55.1040   22.9330   43.0790 O   0  0  0  0  0  0  0  0  0  0  0  0
   54.8600   23.3690   44.2930 C   0  0  0  0  0  0  0  0  0  0  0  0
   53.6070   24.0740   44.6980 C   0  0  0  0  0  0  0  0  0  0  0  0
   55.9330   23.0450   45.1020 C   0  0  0  0  0  0  0  0  0  0  0  0
   56.1290   23.3710   46.5570 C   0  0  0  0  0  0  0  0  0  0  0  0
   55.9010   24.7580   46.8100 O   0  0  0  0  0  0  0  0  0  0  0  0
   56.7990   25.7970   46.5080 C   0  0  0  0  0  0  0  0  0  0  0  0
   58.0520   25.7900   47.1280 C   0  0  0  0  0  0  0  0  0  0  0  0
   58.9760   26.8060   46.8700 C   0  0  0  0  0  0  0  0  0  0  0  0
   58.6590   27.8340   45.9790 C   0  0  0  0  0  0  0  0  0  0  0  0
   57.4120   27.8530   45.3330 C   0  0  0  0  0  0  0  0  0  0  0  0
   57.0810   28.9210   44.3650 C   0  0  0  0  0  0  0  0  0  0  0  0
   57.1740   28.7020   43.1260 O   0  0  0  0  0  0  0  0  0  0  0  0
   56.5870   30.1810   44.8380 N   0  0  0  0  0  0  0  0  0  0  0  0
   57.3730   31.3010   45.2630 C   0  0  0  0  0  0  0  0  0  0  0  0
   57.3510   32.5260   44.5740 C   0  0  0  0  0  0  0  0  0  0  0  0
   58.1780   33.5770   44.9830 C   0  0  0  0  0  0  0  0  0  0  0  0
   59.0370   33.4130   46.0770 C   0  0  0  0  0  0  0  0  0  0  0  0
   60.1240   34.7150   46.5620 S   0  0  0  0  0  0  0  0  0  0  0  0
   59.8740   35.0470   48.0060 O   0  0  0  0  0  0  0  0  0  0  0  0
   59.8800   35.9400   45.7250 O   0  0  0  0  0  0  0  0  0  0  0  0
   61.7770   34.2210   46.3640 N   0  0  0  0  0  0  0  0  0  0  0  0
   62.4390   33.5360   47.2480 C   0  0  0  0  0  0  0  0  0  0  0  0
   61.9680   32.3230   47.6430 N   0  0  0  0  0  0  0  0  0  0  0  0
   62.6430   31.5710   48.5520 C   0  0  0  0  0  0  0  0  0  0  0  0
   63.8390   32.0400   49.0940 C   0  0  0  0  0  0  0  0  0  0  0  0
   64.3090   33.2870   48.6840 C   0  0  0  0  0  0  0  0  0  0  0  0
   63.6040   34.0100   47.7750 N   0  0  0  0  0  0  0  0  0  0  0  0
   59.0570   32.1940   46.7650 C   0  0  0  0  0  0  0  0  0  0  0  0
   58.2380   31.1400   46.3520 C   0  0  0  0  0  0  0  0  0  0  0  0
   56.4820   26.8350   45.6110 C   0  0  0  0  0  0  0  0  0  0  0  0
   58.2673   21.8031   45.6745 H   0  0  0  0  0  0  0  0  0  0  0  0
   58.2430   20.8374   44.1600 H   0  0  0  0  0  0  0  0  0  0  0  0
   58.9461   22.4903   44.1600 H   0  0  0  0  0  0  0  0  0  0  0  0
   53.5445   24.1092   45.7957 H   0  0  0  0  0  0  0  0  0  0  0  0
   53.6173   25.0988   44.2983 H   0  0  0  0  0  0  0  0  0  0  0  0
   52.7365   23.5333   44.2983 H   0  0  0  0  0  0  0  0  0  0  0  0
   55.4240   22.7762   47.1563 H   0  0  0  0  0  0  0  0  0  0  0  0
   57.1674   23.1327   46.8309 H   0  0  0  0  0  0  0  0  0  0  0  0
   58.3124   24.9789   47.8239 H   0  0  0  0  0  0  0  0  0  0  0  0
   59.9558   26.7962   47.3700 H   0  0  0  0  0  0  0  0  0  0  0  0
   59.3895   28.6325   45.7823 H   0  0  0  0  0  0  0  0  0  0  0  0
   56.6817   32.6583   43.7111 H   0  0  0  0  0  0  0  0  0  0  0  0
   58.1538   34.5355   44.4438 H   0  0  0  0  0  0  0  0  0  0  0  0
   62.2458   30.5925   48.8600 H   0  0  0  0  0  0  0  0  0  0  0  0
   64.3983   31.4406   49.8274 H   0  0  0  0  0  0  0  0  0  0  0  0
   65.2485   33.6846   49.0955 H   0  0  0  0  0  0  0  0  0  0  0  0
   59.7196   32.0655   47.6336 H   0  0  0  0  0  0  0  0  0  0  0  0
   58.2730   30.1786   46.8853 H   0  0  0  0  0  0  0  0  0  0  0  0
   55.4966   26.8500   45.1224 H   0  0  0  0  0  0  0  0  0  0  0  0
  1  2  1  0
  2  3  2  0
  3  4  1  0
  4  5  1  0
  5  6  1  0
  5  7  2  0
  7  8  1  0
  8  9  1  0
  9 10  1  0
 10 11  2  0
 11 12  1  0
 12 13  2  0
 13 14  1  0
 14 15  1  0
 15 16  2  0
 15 17  1  0
 17 18  1  0
 18 19  2  0
 19 20  1  0
 20 21  2  0
 21 22  1  0
 22 23  2  0
 22 24  2  0
 22 25  1  0
 25 26  2  3
 26 27  1  0
 27 28  2  0
 28 29  1  0
 29 30  2  0
 30 31  1  0
 21 32  1  0
 32 33  2  0
 14 34  2  0
  7  2  1  0
 34 10  1  0
 33 18  1  0
 31 26  1  0
  1 35  1  0
  1 36  1  0
  1 37  1  0
  6 38  1  0
  6 39  1  0
  6 40  1  0
  8 41  1  0
  8 42  1  0
 11 43  1  0
 12 44  1  0
 13 45  1  0
 19 46  1  0
 20 47  1  0
 28 48  1  0
 29 49  1  0
 30 50  1  0
 32 51  1  0
 33 52  1  0
 34 53  1  0
M  CHG  2  17  -1  31  -1
M  END
>  <UniqueID>  (68) 
58

>  <SMILES>  (68) 
Cc1noc(C)c1COc1cccc(C(=O)[N-]c2ccc(S(=O)(=O)N=c3nccc[n-]3)cc2)c1

>  <Energy>  (68) 
92.67056541493754

>  <Genealogy>  (68) 
Cc1noc(C)c1COc1cccc(C(=O)[N-]c2ccc(S(=O)(=O)N=c3nccc[n-]3)cc2)c1 (protonated)
Cc1noc(C)c1COc1cccc(C(=O)[N-]c2ccc(S(=O)(=O)N=c3nccc[n-]3)cc2)c1 (3D coordinates assigned)
Cc1noc(C)c1COc1cccc(C(=O)[N-]c2ccc(S(=O)(=O)N=c3nccc[n-]3)cc2)c1 (optimized conformer: 92.67056541493754 kcal/mol)

>  <smiles>  (68) 
Cc1noc(C)c1COc1cccc(C(=O)Nc2ccc(S(=O)(=O)N=c3nccc[nH]3)cc2)c1

>  <score_type>  (68) 
oracle

>  <origin>  (68) 
adg

>  <m_score__min__energy>  (68) 
-12.199999999999999

>  <m_primary>  (68) 
energy

$$$$
68:0
     RDKit          3D

 43 46  0  0  1  0  0  0  0  0999 V2000
   60.4100   34.1480   47.9290 C   0  0  0  0  0  0  0  0  0  0  0  0
   59.5800   33.3580   48.6910 C   0  0  0  0  0  0  0  0  0  0  0  0
   59.7210   31.9910   48.6840 C   0  0  0  0  0  0  0  0  0  0  0  0
   60.6690   31.3070   47.9420 C   0  0  0  0  0  0  0  0  0  0  0  0
   60.8060   29.8270   47.9370 C   0  0  0  0  0  0  0  0  0  0  0  0
   56.6950   30.8590   44.8630 N   0  0  0  0  0  0  0  0  0  0  0  0
   57.2920   29.8160   45.3370 C   0  0  0  0  0  0  0  0  0  0  0  0
   58.1920   29.9350   46.3270 N   0  0  0  0  0  0  0  0  0  0  0  0
   58.8540   28.8960   46.8700 C   0  0  0  0  0  0  0  0  0  0  0  0
   59.6400   29.0930   47.8010 N   0  0  0  0  0  0  0  0  0  0  0  0
   57.3580   32.1090   44.9080 C   0  0  0  0  0  0  0  0  0  0  0  0
   57.0340   32.9430   45.9840 C   0  0  0  0  0  0  0  0  0  0  0  0
   57.6090   34.1800   46.1380 C   0  0  0  0  0  0  0  0  0  0  0  0
   58.5280   34.5910   45.1950 C   0  0  0  0  0  0  0  0  0  0  0  0
   58.8640   33.7710   44.1120 C   0  0  0  0  0  0  0  0  0  0  0  0
   58.2790   32.5180   43.9580 C   0  0  0  0  0  0  0  0  0  0  0  0
   57.0450   28.5810   44.8700 N   0  0  0  0  0  0  0  0  0  0  0  0
   57.6910   27.5250   45.3910 C   0  0  0  0  0  0  0  0  0  0  0  0
   57.4040   26.2920   44.8740 C   0  0  0  0  0  0  0  0  0  0  0  0
   58.0810   25.2230   45.4160 C   0  0  0  0  0  0  0  0  0  0  0  0
   58.9980   25.3070   46.4130 C   0  0  0  0  0  0  0  0  0  0  0  0
   59.2970   26.5820   46.9500 C   0  0  0  0  0  0  0  0  0  0  0  0
   58.6220   27.6270   46.4100 C   0  0  0  0  0  0  0  0  0  0  0  0
   61.5030   32.1340   47.1730 C   0  0  0  0  0  0  0  0  0  0  0  0
   61.3670   33.5090   47.1770 C   0  0  0  0  0  0  0  0  0  0  0  0
   60.3119   35.2436   47.9219 H   0  0  0  0  0  0  0  0  0  0  0  0
   58.7987   33.8237   49.3097 H   0  0  0  0  0  0  0  0  0  0  0  0
   59.0350   31.4009   49.3095 H   0  0  0  0  0  0  0  0  0  0  0  0
   61.4687   29.5569   47.1016 H   0  0  0  0  0  0  0  0  0  0  0  0
   61.1933   29.5702   48.9340 H   0  0  0  0  0  0  0  0  0  0  0  0
   58.3650   30.9070   46.6720 H   0  0  0  0  0  0  0  0  0  0  0  0
   56.2990   32.5982   46.7262 H   0  0  0  0  0  0  0  0  0  0  0  0
   57.3445   34.8249   46.9889 H   0  0  0  0  0  0  0  0  0  0  0  0
   59.0037   35.5777   45.2958 H   0  0  0  0  0  0  0  0  0  0  0  0
   59.5998   34.1214   43.3732 H   0  0  0  0  0  0  0  0  0  0  0  0
   58.5402   31.8716   43.1072 H   0  0  0  0  0  0  0  0  0  0  0  0
   56.3470   28.4860   44.1030 H   0  0  0  0  0  0  0  0  0  0  0  0
   56.6693   26.1610   44.0659 H   0  0  0  0  0  0  0  0  0  0  0  0
   57.8620   24.2244   45.0100 H   0  0  0  0  0  0  0  0  0  0  0  0
   59.4976   24.4046   46.7951 H   0  0  0  0  0  0  0  0  0  0  0  0
   60.0325   26.7171   47.7567 H   0  0  0  0  0  0  0  0  0  0  0  0
   62.2855   31.6752   46.5508 H   0  0  0  0  0  0  0  0  0  0  0  0
   62.0471   34.1124   46.5578 H   0  0  0  0  0  0  0  0  0  0  0  0
  1  2  2  0
  2  3  1  0
  3  4  2  0
  4  5  1  0
  5  6  1  0
  6  7  2  0
  7  8  1  0
  8  9  1  0
  9 10  2  0
 10 11  1  0
 11 12  2  0
 12 13  1  0
 13 14  2  0
 14 15  1  0
 15 16  2  0
  9 17  1  0
 17 18  1  0
 18 19  2  0
 19 20  1  0
 20 21  2  0
 21 22  1  0
 22 23  2  0
  4 24  1  0
 24 25  2  0
 25  1  1  0
 23  7  1  0
 16 11  1  0
 23 18  1  0
  1 26  1  0
  2 27  1  0
  3 28  1  0
  5 29  1  0
  5 30  1  0
  8 31  1  0
 12 32  1  0
 13 33  1  0
 14 34  1  0
 15 35  1  0
 16 36  1  0
 17 37  1  0
 19 38  1  0
 20 39  1  0
 21 40  1  0
 22 41  1  0
 24 42  1  0
 25 43  1  0
M  END
>  <smiles>  (69) 
c1ccc(CN=c2[nH]c(=Nc3ccccc3)[nH]c3ccccc23)cc1

>  <score_type>  (69) 
oracle

>  <origin>  (69) 
adg

>  <m_score__min__energy>  (69) 
-8.8000000000000007

>  <m_primary>  (69) 
energy

$$$$
69:0
     RDKit          3D

 41 44  0  0  0  0  0  0  0  0999 V2000
   58.9060   24.0970   45.4110 O   0  0  0  0  0  0  0  0  0  0  0  0
   58.1730   24.1270   46.4370 C   0  0  0  0  0  0  0  0  0  0  0  0
   57.3680   22.9960   46.7890 N   0  0  0  0  0  0  0  0  0  0  0  0
   55.9970   22.7730   46.4270 C   0  0  0  0  0  0  0  0  0  0  0  0
   55.3250   21.5760   46.7430 C   0  0  0  0  0  0  0  0  0  0  0  0
   53.9960   21.3920   46.3510 C   0  0  0  0  0  0  0  0  0  0  0  0
   53.3310   22.3890   45.6310 C   0  0  0  0  0  0  0  0  0  0  0  0
   52.0100   22.2040   45.2440 O   0  0  0  0  0  0  0  0  0  0  0  0
   54.0000   23.5690   45.2950 C   0  0  0  0  0  0  0  0  0  0  0  0
   55.3290   23.7560   45.6840 C   0  0  0  0  0  0  0  0  0  0  0  0
   58.1260   25.2650   47.2510 O   0  0  0  0  0  0  0  0  0  0  0  0
   58.0170   26.5870   46.7940 C   0  0  0  0  0  0  0  0  0  0  0  0
   56.8570   26.9590   46.1070 C   0  0  0  0  0  0  0  0  0  0  0  0
   56.6890   28.2650   45.6350 C   0  0  0  0  0  0  0  0  0  0  0  0
   55.5220   28.5810   44.9480 O   0  0  0  0  0  0  0  0  0  0  0  0
   57.6940   29.2320   45.8620 C   0  0  0  0  0  0  0  0  0  0  0  0
   57.5940   30.5670   45.4220 C   0  0  0  0  0  0  0  0  0  0  0  0
   56.5850   30.9750   44.7880 O   0  0  0  0  0  0  0  0  0  0  0  0
   58.6300   31.4610   45.6960 C   0  0  0  0  0  0  0  0  0  0  0  0
   59.7590   31.0140   46.4060 C   0  0  0  0  0  0  0  0  0  0  0  0
   60.8900   31.9210   46.7290 C   0  0  0  0  0  0  0  0  0  0  0  0
   62.0580   31.4540   47.3630 C   0  0  0  0  0  0  0  0  0  0  0  0
   63.1020   32.3350   47.6640 C   0  0  0  0  0  0  0  0  0  0  0  0
   62.9910   33.6900   47.3420 C   0  0  0  0  0  0  0  0  0  0  0  0
   61.8330   34.1680   46.7260 C   0  0  0  0  0  0  0  0  0  0  0  0
   60.7860   33.2910   46.4240 C   0  0  0  0  0  0  0  0  0  0  0  0
   59.8170   29.7490   46.8130 O   0  0  0  0  0  0  0  0  0  0  0  0
   58.8580   28.8600   46.5750 C   0  0  0  0  0  0  0  0  0  0  0  0
   59.0110   27.5490   47.0400 C   0  0  0  0  0  0  0  0  0  0  0  0
   55.8474   20.7841   47.2997 H   0  0  0  0  0  0  0  0  0  0  0  0
   53.4719   20.4602   46.6097 H   0  0  0  0  0  0  0  0  0  0  0  0
   53.4797   24.3517   44.7235 H   0  0  0  0  0  0  0  0  0  0  0  0
   55.8547   24.6812   45.4052 H   0  0  0  0  0  0  0  0  0  0  0  0
   56.0658   26.2143   45.9355 H   0  0  0  0  0  0  0  0  0  0  0  0
   58.5642   32.5062   45.3596 H   0  0  0  0  0  0  0  0  0  0  0  0
   62.1497   30.3892   47.6232 H   0  0  0  0  0  0  0  0  0  0  0  0
   64.0121   31.9603   48.1552 H   0  0  0  0  0  0  0  0  0  0  0  0
   63.8158   34.3799   47.5738 H   0  0  0  0  0  0  0  0  0  0  0  0
   61.7438   35.2359   46.4778 H   0  0  0  0  0  0  0  0  0  0  0  0
   59.8738   33.6753   45.9442 H   0  0  0  0  0  0  0  0  0  0  0  0
   59.9149   27.2700   47.6014 H   0  0  0  0  0  0  0  0  0  0  0  0
  1  2  2  0
  2  3  1  0
  3  4  1  0
  4  5  2  0
  5  6  1  0
  6  7  2  0
  7  8  1  0
  7  9  1  0
  9 10  2  0
  2 11  1  0
 11 12  1  0
 12 13  2  0
 13 14  1  0
 14 15  1  0
 14 16  2  0
 16 17  1  0
 17 18  2  0
 17 19  1  0
 19 20  2  0
 20 21  1  0
 21 22  2  0
 22 23  1  0
 23 24  2  0
 24 25  1  0
 25 26  2  0
 20 27  1  0
 27 28  1  0
 28 29  2  0
 10  4  1  0
 29 12  1  0
 28 16  1  0
 26 21  1  0
  5 30  1  0
  6 31  1  0
  9 32  1  0
 10 33  1  0
 13 34  1  0
 19 35  1  0
 22 36  1  0
 23 37  1  0
 24 38  1  0
 25 39  1  0
 26 40  1  0
 29 41  1  0
M  CHG  3   3  -1   8  -1  15  -1
M  END
>  <UniqueID>  (70) 
59

>  <SMILES>  (70) 
O=C([N-]c1ccc([O-])cc1)Oc1cc([O-])c2c(=O)cc(-c3ccccc3)oc2c1

>  <Energy>  (70) 
64.9015184609219

>  <Genealogy>  (70) 
O=C([N-]c1ccc([O-])cc1)Oc1cc([O-])c2c(=O)cc(-c3ccccc3)oc2c1 (protonated)
O=C([N-]c1ccc([O-])cc1)Oc1cc([O-])c2c(=O)cc(-c3ccccc3)oc2c1 (3D coordinates assigned)
O=C([N-]c1ccc([O-])cc1)Oc1cc([O-])c2c(=O)cc(-c3ccccc3)oc2c1 (optimized conformer: 64.9015184609219 kcal/mol)

>  <smiles>  (70) 
O=C(Nc1ccc(O)cc1)Oc1cc(O)c2c(=O)cc(-c3ccccc3)oc2c1

>  <score_type>  (70) 
oracle

>  <origin>  (70) 
adg

>  <m_score__min__energy>  (70) 
-14.48

>  <m_primary>  (70) 
energy

$$$$
70:0
     RDKit          3D

 54 56  0  0  0  0  0  0  0  0999 V2000
   56.1330   21.8380   44.5480 C   0  0  0  0  0  0  0  0  0  0  0  0
   55.5570   23.1430   44.5710 O   0  0  0  0  0  0  0  0  0  0  0  0
   56.2930   24.3410   44.5040 C   0  0  0  0  0  0  0  0  0  0  0  0
   57.0410   24.6970   43.3620 C   0  0  0  0  0  0  0  0  0  0  0  0
   57.7710   25.8860   43.3410 C   0  0  0  0  0  0  0  0  0  0  0  0
   57.7940   26.7170   44.4690 C   0  0  0  0  0  0  0  0  0  0  0  0
   58.7900   28.2060   44.4660 S   0  0  0  0  0  0  0  0  0  0  0  0
   57.7220   29.1000   45.6540 C   0  0  0  0  0  0  0  0  0  0  0  0
   56.5190   29.6820   44.9650 C   0  0  0  0  0  0  0  0  0  0  0  0
   55.4810   28.9800   44.8650 O   0  0  0  0  0  0  0  0  0  0  0  0
   56.4860   31.0370   44.4950 N   0  0  0  0  0  0  0  0  0  0  0  0
   57.4180   32.0770   44.8190 C   0  0  0  0  0  0  0  0  0  0  0  0
   57.8470   32.2770   46.1420 C   0  0  0  0  0  0  0  0  0  0  0  0
   58.7830   33.2780   46.4420 C   0  0  0  0  0  0  0  0  0  0  0  0
   59.3610   33.4800   48.0990 S   0  0  0  0  0  0  0  0  0  0  0  0
   58.4710   32.6970   49.0260 O   0  0  0  0  0  0  0  0  0  0  0  0
   59.2810   34.9310   48.4850 O   0  0  0  0  0  0  0  0  0  0  0  0
   61.0110   32.9260   48.2690 N   0  0  0  0  0  0  0  0  0  0  0  0
   61.3730   32.0540   47.1410 C   0  0  0  0  0  0  0  0  0  0  0  0
   62.8080   31.5250   47.3330 C   0  0  0  0  0  0  0  0  0  0  0  0
   63.6450   32.3860   48.0870 O   0  0  0  0  0  0  0  0  0  0  0  0
   63.3360   33.7410   47.8390 C   0  0  0  0  0  0  0  0  0  0  0  0
   61.9390   34.0740   48.4010 C   0  0  0  0  0  0  0  0  0  0  0  0
   59.2830   34.0890   45.4120 C   0  0  0  0  0  0  0  0  0  0  0  0
   58.8890   33.8670   44.0910 C   0  0  0  0  0  0  0  0  0  0  0  0
   57.9790   32.8450   43.7870 C   0  0  0  0  0  0  0  0  0  0  0  0
   57.6320   32.5910   42.4650 O   0  0  0  0  0  0  0  0  0  0  0  0
   57.0550   26.3760   45.6010 C   0  0  0  0  0  0  0  0  0  0  0  0
   56.2930   25.1900   45.6230 C   0  0  0  0  0  0  0  0  0  0  0  0
   55.5520   24.8050   46.7550 O   0  0  0  0  0  0  0  0  0  0  0  0
   55.8870   23.7090   47.6000 C   0  0  0  0  0  0  0  0  0  0  0  0
   56.2878   21.4873   45.5790 H   0  0  0  0  0  0  0  0  0  0  0  0
   55.4560   21.1476   44.0236 H   0  0  0  0  0  0  0  0  0  0  0  0
   57.0993   21.8729   44.0236 H   0  0  0  0  0  0  0  0  0  0  0  0
   57.0488   24.0342   42.4841 H   0  0  0  0  0  0  0  0  0  0  0  0
   58.3294   26.1715   42.4373 H   0  0  0  0  0  0  0  0  0  0  0  0
   57.3865   28.4000   46.4334 H   0  0  0  0  0  0  0  0  0  0  0  0
   58.3031   29.9216   46.0981 H   0  0  0  0  0  0  0  0  0  0  0  0
   57.4463   31.6445   46.9478 H   0  0  0  0  0  0  0  0  0  0  0  0
   60.6738   31.2061   47.0953 H   0  0  0  0  0  0  0  0  0  0  0  0
   61.3188   32.6284   46.2045 H   0  0  0  0  0  0  0  0  0  0  0  0
   62.7528   30.5560   47.8507 H   0  0  0  0  0  0  0  0  0  0  0  0
   63.2542   31.4456   46.3307 H   0  0  0  0  0  0  0  0  0  0  0  0
   64.0867   34.3810   48.3258 H   0  0  0  0  0  0  0  0  0  0  0  0
   63.3410   33.9200   46.7537 H   0  0  0  0  0  0  0  0  0  0  0  0
   62.0351   34.3350   49.4653 H   0  0  0  0  0  0  0  0  0  0  0  0
   61.5283   34.9169   47.8258 H   0  0  0  0  0  0  0  0  0  0  0  0
   59.9869   34.9014   45.6457 H   0  0  0  0  0  0  0  0  0  0  0  0
   59.2944   34.4968   43.2854 H   0  0  0  0  0  0  0  0  0  0  0  0
   56.9600   31.8730   42.2240 H   0  0  0  0  0  0  0  0  0  0  0  0
   57.0665   27.0355   46.4813 H   0  0  0  0  0  0  0  0  0  0  0  0
   55.7934   24.0153   48.6523 H   0  0  0  0  0  0  0  0  0  0  0  0
   55.2043   22.8699   47.4002 H   0  0  0  0  0  0  0  0  0  0  0  0
   56.9221   23.3950   47.4002 H   0  0  0  0  0  0  0  0  0  0  0  0
  1  2  1  0
  2  3  1  0
  3  4  2  0
  4  5  1  0
  5  6  2  0
  6  7  1  0
  7  8  1  0
  8  9  1  0
  9 10  2  0
  9 11  1  0
 11 12  1  0
 12 13  2  0
 13 14  1  0
 14 15  1  0
 15 16  2  0
 15 17  2  0
 15 18  1  0
 18 19  1  0
 19 20  1  0
 20 21  1  0
 21 22  1  0
 22 23  1  0
 14 24  2  0
 24 25  1  0
 25 26  2  0
 26 27  1  0
  6 28  1  0
 28 29  2  0
 29 30  1  0
 30 31  1  0
 29  3  1  0
 26 12  1  0
 23 18  1  0
  1 32  1  0
  1 33  1  0
  1 34  1  0
  4 35  1  0
  5 36  1  0
  8 37  1  0
  8 38  1  0
 13 39  1  0
 19 40  1  0
 19 41  1  0
 20 42  1  0
 20 43  1  0
 22 44  1  0
 22 45  1  0
 23 46  1  0
 23 47  1  0
 24 48  1  0
 25 49  1  0
 27 50  1  0
 28 51  1  0
 31 52  1  0
 31 53  1  0
 31 54  1  0
M  CHG  1  11  -1
M  END
>  <UniqueID>  (71) 
60

>  <SMILES>  (71) 
COc1ccc(SCC(=O)[N-]c2cc(S(=O)(=O)N3CCOCC3)ccc2O)cc1OC

>  <Energy>  (71) 
59.294143268839406

>  <Genealogy>  (71) 
COc1ccc(SCC(=O)[N-]c2cc(S(=O)(=O)N3CCOCC3)ccc2O)cc1OC (protonated)
COc1ccc(SCC(=O)[N-]c2cc(S(=O)(=O)N3CCOCC3)ccc2O)cc1OC (3D coordinates assigned)
COc1ccc(SCC(=O)[N-]c2cc(S(=O)(=O)N3CCOCC3)ccc2O)cc1OC (nonaromatic ring conformer: 59.294143268839406 kcal/mol)

>  <smiles>  (71) 
COc1ccc(SCC(=O)Nc2cc(S(=O)(=O)N3CCOCC3)ccc2O)cc1OC

>  <score_type>  (71) 
oracle

>  <origin>  (71) 
adg

>  <m_score__min__energy>  (71) 
-10.26

>  <m_primary>  (71) 
energy

$$$$
71:0
     RDKit          3D

 67 70  0  0  0  0  0  0  0  0999 V2000
   56.9810   20.9390   42.9520 C   0  0  0  0  0  0  0  0  0  0  0  0
   55.9110   21.7040   43.4960 O   0  0  0  0  0  0  0  0  0  0  0  0
   56.0720   22.9020   44.2090 C   0  0  0  0  0  0  0  0  0  0  0  0
   57.2890   23.6080   44.2180 C   0  0  0  0  0  0  0  0  0  0  0  0
   57.4100   24.8000   44.9330 C   0  0  0  0  0  0  0  0  0  0  0  0
   56.3160   25.3180   45.6400 C   0  0  0  0  0  0  0  0  0  0  0  0
   56.4330   26.6410   46.3560 C   0  0  0  0  0  0  0  0  0  0  0  0
   56.9130   27.7460   45.4170 C   0  0  0  0  0  0  0  0  0  0  0  0
   55.8730   28.7540   45.2460 N   0  0  0  0  0  0  0  0  0  0  0  0
   55.9310   29.8520   44.3280 C   0  0  0  0  0  0  0  0  0  0  0  0
   55.1380   30.8150   44.4890 O   0  0  0  0  0  0  0  0  0  0  0  0
   56.9280   29.9130   43.2010 C   0  0  0  0  0  0  0  0  0  0  0  0
   58.1140   30.8310   43.5340 C   0  0  0  0  0  0  0  0  0  0  0  0
   58.5960   30.6150   44.9150 N   0  0  0  0  0  0  0  0  0  0  0  0
   59.2400   29.4540   45.2410 C   0  0  0  0  0  0  0  0  0  0  0  0
   59.4260   28.5620   44.3640 O   0  0  0  0  0  0  0  0  0  0  0  0
   59.6930   29.2440   46.5470 C   0  0  0  0  0  0  0  0  0  0  0  0
   60.3470   28.0480   46.8980 C   0  0  0  0  0  0  0  0  0  0  0  0
   60.7600   27.8270   48.2090 C   0  0  0  0  0  0  0  0  0  0  0  0
   60.5120   28.7840   49.1870 C   0  0  0  0  0  0  0  0  0  0  0  0
   59.8800   29.9820   48.8540 C   0  0  0  0  0  0  0  0  0  0  0  0
   59.4790   30.2520   47.5200 C   0  0  0  0  0  0  0  0  0  0  0  0
   58.8850   31.4430   47.1430 N   0  0  0  0  0  0  0  0  0  0  0  0
   58.7410   32.5950   48.0660 C   0  0  0  0  0  0  0  0  0  0  0  0
   60.0900   33.1630   48.4440 C   0  0  0  0  0  0  0  0  0  0  0  0
   60.3350   33.6240   49.7480 C   0  0  0  0  0  0  0  0  0  0  0  0
   61.5840   34.1520   50.0880 C   0  0  0  0  0  0  0  0  0  0  0  0
   62.6000   34.2170   49.1340 C   0  0  0  0  0  0  0  0  0  0  0  0
   62.3800   33.7390   47.8340 C   0  0  0  0  0  0  0  0  0  0  0  0
   63.4560   33.8440   46.7950 C   0  0  0  0  0  0  0  0  0  0  0  0
   61.1200   33.2280   47.4900 C   0  0  0  0  0  0  0  0  0  0  0  0
   58.4260   31.6000   45.8550 C   0  0  0  0  0  0  0  0  0  0  0  0
   57.8500   32.6780   45.5240 O   0  0  0  0  0  0  0  0  0  0  0  0
   55.1030   24.6150   45.6380 C   0  0  0  0  0  0  0  0  0  0  0  0
   54.9790   23.4000   44.9350 C   0  0  0  0  0  0  0  0  0  0  0  0
   53.7900   22.6570   44.9360 O   0  0  0  0  0  0  0  0  0  0  0  0
   52.6320   22.9980   45.6880 C   0  0  0  0  0  0  0  0  0  0  0  0
   57.5791   20.5114   43.7702 H   0  0  0  0  0  0  0  0  0  0  0  0
   56.5731   20.1266   42.3327 H   0  0  0  0  0  0  0  0  0  0  0  0
   57.6178   21.5878   42.3327 H   0  0  0  0  0  0  0  0  0  0  0  0
   58.1511   23.2175   43.6574 H   0  0  0  0  0  0  0  0  0  0  0  0
   58.3701   25.3368   44.9420 H   0  0  0  0  0  0  0  0  0  0  0  0
   55.4475   26.9176   46.7589 H   0  0  0  0  0  0  0  0  0  0  0  0
   57.1704   26.5313   47.1648 H   0  0  0  0  0  0  0  0  0  0  0  0
   57.8102   28.2192   45.8426 H   0  0  0  0  0  0  0  0  0  0  0  0
   57.1476   27.3050   44.4370 H   0  0  0  0  0  0  0  0  0  0  0  0
   57.3070   28.8989   43.0063 H   0  0  0  0  0  0  0  0  0  0  0  0
   56.4180   30.3225   42.3166 H   0  0  0  0  0  0  0  0  0  0  0  0
   58.9351   30.6228   42.8323 H   0  0  0  0  0  0  0  0  0  0  0  0
   57.7779   31.8746   43.4453 H   0  0  0  0  0  0  0  0  0  0  0  0
   60.5332   27.2822   46.1306 H   0  0  0  0  0  0  0  0  0  0  0  0
   61.2826   26.8953   48.4713 H   0  0  0  0  0  0  0  0  0  0  0  0
   60.8155   28.5955   50.2274 H   0  0  0  0  0  0  0  0  0  0  0  0
   59.6894   30.7295   49.6382 H   0  0  0  0  0  0  0  0  0  0  0  0
   58.1471   33.3784   47.5725 H   0  0  0  0  0  0  0  0  0  0  0  0
   58.2397   32.2479   48.9815 H   0  0  0  0  0  0  0  0  0  0  0  0
   59.5397   33.5693   50.5059 H   0  0  0  0  0  0  0  0  0  0  0  0
   61.7661   34.5169   51.1096 H   0  0  0  0  0  0  0  0  0  0  0  0
   63.5772   34.6447   49.4025 H   0  0  0  0  0  0  0  0  0  0  0  0
   64.4343   33.9395   47.2887 H   0  0  0  0  0  0  0  0  0  0  0  0
   63.4487   32.9409   46.1670 H   0  0  0  0  0  0  0  0  0  0  0  0
   63.2743   34.7287   46.1670 H   0  0  0  0  0  0  0  0  0  0  0  0
   60.9363   32.8750   46.4645 H   0  0  0  0  0  0  0  0  0  0  0  0
   54.2401   25.0155   46.1903 H   0  0  0  0  0  0  0  0  0  0  0  0
   52.8595   22.9310   46.7621 H   0  0  0  0  0  0  0  0  0  0  0  0
   52.3241   24.0249   45.4417 H   0  0  0  0  0  0  0  0  0  0  0  0
   51.8167   22.3018   45.4417 H   0  0  0  0  0  0  0  0  0  0  0  0
  1  2  1  0
  2  3  1  0
  3  4  2  0
  4  5  1  0
  5  6  2  0
  6  7  1  0
  7  8  1  0
  8  9  1  0
  9 10  1  0
 10 11  2  0
 10 12  1  0
 12 13  1  0
 13 14  1  0
 14 15  1  0
 15 16  2  0
 15 17  1  0
 17 18  2  0
 18 19  1  0
 19 20  2  0
 20 21  1  0
 21 22  2  0
 22 23  1  0
 23 24  1  0
 24 25  1  0
 25 26  2  0
 26 27  1  0
 27 28  2  0
 28 29  1  0
 29 30  1  0
 29 31  2  0
 23 32  1  0
 32 33  2  0
  6 34  1  0
 34 35  2  0
 35 36  1  0
 36 37  1  0
 35  3  1  0
 32 14  1  0
 22 17  1  0
 31 25  1  0
  1 38  1  0
  1 39  1  0
  1 40  1  0
  4 41  1  0
  5 42  1  0
  7 43  1  0
  7 44  1  0
  8 45  1  0
  8 46  1  0
 12 47  1  0
 12 48  1  0
 13 49  1  0
 13 50  1  0
 18 51  1  0
 19 52  1  0
 20 53  1  0
 21 54  1  0
 24 55  1  0
 24 56  1  0
 26 57  1  0
 27 58  1  0
 28 59  1  0
 30 60  1  0
 30 61  1  0
 30 62  1  0
 31 63  1  0
 34 64  1  0
 37 65  1  0
 37 66  1  0
 37 67  1  0
M  CHG  1   9  -1
M  END
>  <UniqueID>  (72) 
61

>  <SMILES>  (72) 
COc1ccc(CC[N-]C(=O)CCn2c(=O)c3ccccc3n(Cc3cccc(C)c3)c2=O)cc1OC

>  <Energy>  (72) 
77.95020578778878

>  <Genealogy>  (72) 
COc1ccc(CC[N-]C(=O)CCn2c(=O)c3ccccc3n(Cc3cccc(C)c3)c2=O)cc1OC (protonated)
COc1ccc(CC[N-]C(=O)CCn2c(=O)c3ccccc3n(Cc3cccc(C)c3)c2=O)cc1OC (3D coordinates assigned)
COc1ccc(CC[N-]C(=O)CCn2c(=O)c3ccccc3n(Cc3cccc(C)c3)c2=O)cc1OC (optimized conformer: 77.95020578778878 kcal/mol)

>  <smiles>  (72) 
COc1ccc(CCNC(=O)CCn2c(=O)c3ccccc3n(Cc3cccc(C)c3)c2=O)cc1OC

>  <score_type>  (72) 
oracle

>  <origin>  (72) 
adg

>  <m_score__min__energy>  (72) 
-11.9

>  <m_primary>  (72) 
energy

$$$$
72:0
     RDKit          3D

 34 36  0  0  0  0  0  0  0  0999 V2000
   56.7760   29.1690   43.1230 N   0  0  0  0  0  0  0  0  0  0  0  0
   57.1320   30.5500   44.1050 S   0  0  0  0  0  0  0  0  0  0  0  0
   55.8350   31.1920   44.5100 O   0  0  0  0  0  0  0  0  0  0  0  0
   57.9380   31.5210   43.2910 O   0  0  0  0  0  0  0  0  0  0  0  0
   58.0410   30.1140   45.5610 C   0  0  0  0  0  0  0  0  0  0  0  0
   58.2830   28.7640   45.8620 C   0  0  0  0  0  0  0  0  0  0  0  0
   58.9350   28.3990   47.0500 C   0  0  0  0  0  0  0  0  0  0  0  0
   59.0810   26.9710   47.4060 C   0  0  0  0  0  0  0  0  0  0  0  0
   59.3240   26.6580   48.6010 O   0  0  0  0  0  0  0  0  0  0  0  0
   58.9140   25.9220   46.4350 N   0  0  0  0  0  0  0  0  0  0  0  0
   57.9950   25.8610   45.5470 N   0  0  0  0  0  0  0  0  0  0  0  0
   56.6500   25.4130   45.7720 C   0  0  0  0  0  0  0  0  0  0  0  0
   55.5200   26.2110   45.7930 C   0  0  0  0  0  0  0  0  0  0  0  0
   55.5210   27.5890   45.6190 O   0  0  0  0  0  0  0  0  0  0  0  0
   54.3930   25.4850   45.9780 N   0  0  0  0  0  0  0  0  0  0  0  0
   54.8330   24.2150   46.0910 C   0  0  0  0  0  0  0  0  0  0  0  0
   54.0480   23.0810   46.2820 C   0  0  0  0  0  0  0  0  0  0  0  0
   54.6960   21.8360   46.3840 C   0  0  0  0  0  0  0  0  0  0  0  0
   56.1050   21.7540   46.3090 C   0  0  0  0  0  0  0  0  0  0  0  0
   56.8980   20.1960   46.4470 Cl  0  0  0  0  0  0  0  0  0  0  0  0
   56.8760   22.9150   46.1210 C   0  0  0  0  0  0  0  0  0  0  0  0
   56.2020   24.1300   45.9920 C   0  0  0  0  0  0  0  0  0  0  0  0
   59.4000   29.3990   47.9140 C   0  0  0  0  0  0  0  0  0  0  0  0
   59.1870   30.7440   47.6120 C   0  0  0  0  0  0  0  0  0  0  0  0
   58.5050   31.1090   46.4470 C   0  0  0  0  0  0  0  0  0  0  0  0
   58.2440   32.8230   46.1430 Cl  0  0  0  0  0  0  0  0  0  0  0  0
   56.4400   28.4100   43.7560 H   0  0  0  0  0  0  0  0  0  0  0  0
   57.6700   28.8520   42.6870 H   0  0  0  0  0  0  0  0  0  0  0  0
   57.9578   27.9834   45.1585 H   0  0  0  0  0  0  0  0  0  0  0  0
   52.9528   23.1561   46.3512 H   0  0  0  0  0  0  0  0  0  0  0  0
   54.1020   20.9206   46.5230 H   0  0  0  0  0  0  0  0  0  0  0  0
   57.9741   22.8669   46.0771 H   0  0  0  0  0  0  0  0  0  0  0  0
   59.9353   29.1224   48.8343 H   0  0  0  0  0  0  0  0  0  0  0  0
   59.5579   31.5227   48.2947 H   0  0  0  0  0  0  0  0  0  0  0  0
  1  2  1  0
  2  3  2  0
  2  4  2  0
  2  5  1  0
  5  6  2  0
  6  7  1  0
  7  8  1  0
  8  9  2  0
  8 10  1  0
 10 11  2  3
 11 12  1  0
 12 13  2  0
 13 14  1  0
 13 15  1  0
 15 16  1  0
 16 17  2  0
 17 18  1  0
 18 19  2  0
 19 20  1  0
 19 21  1  0
 21 22  2  0
  7 23  2  0
 23 24  1  0
 24 25  2  0
 25 26  1  0
 25  5  1  0
 22 12  1  0
 22 16  1  0
  1 27  1  0
  1 28  1  0
  6 29  1  0
 17 30  1  0
 18 31  1  0
 21 32  1  0
 23 33  1  0
 24 34  1  0
M  CHG  2  14  -1  15  -1
M  END
>  <UniqueID>  (73) 
62

>  <SMILES>  (73) 
NS(=O)(=O)c1cc(C(=O)N=Nc2c([O-])[n-]c3ccc(Cl)cc23)ccc1Cl

>  <Energy>  (73) 
83.26124531989278

>  <Genealogy>  (73) 
NS(=O)(=O)c1cc(C(=O)N=Nc2c([O-])[n-]c3ccc(Cl)cc23)ccc1Cl (protonated)
NS(=O)(=O)c1cc(C(=O)N=Nc2c([O-])[n-]c3ccc(Cl)cc23)ccc1Cl (3D coordinates assigned)
NS(=O)(=O)c1cc(C(=O)N=Nc2c([O-])[n-]c3ccc(Cl)cc23)ccc1Cl (optimized conformer: 83.26124531989278 kcal/mol)

>  <smiles>  (73) 
NS(=O)(=O)c1cc(C(=O)N=Nc2c(O)[nH]c3ccc(Cl)cc23)ccc1Cl

>  <score_type>  (73) 
oracle

>  <origin>  (73) 
adg

>  <m_score__min__energy>  (73) 
-13.890000000000001

>  <m_primary>  (73) 
energy

$$$$
73:0
     RDKit          3D

 42 44  0  0  0  0  0  0  0  0999 V2000
   55.7430   31.5770   45.2410 H   0  0  0  0  0  0  0  0  0  0  0  0
   56.6500   31.6760   44.8530 O   0  0  0  0  0  0  0  0  0  0  0  0
   57.0880   33.2570   45.2130 S   0  0  0  0  0  0  0  0  0  0  0  0
   57.3800   33.4220   46.9680 C   0  0  0  0  0  0  0  0  0  0  0  0
   57.1799   32.4773   47.4948 H   0  0  0  0  0  0  0  0  0  0  0  0
   56.7299   34.1654   47.4525 H   0  0  0  0  0  0  0  0  0  0  0  0
   58.8270   33.7730   47.0230 C   0  0  0  0  0  0  0  0  0  0  0  0
   59.4880   33.8380   45.8380 C   0  0  0  0  0  0  0  0  0  0  0  0
   60.8120   33.7510   46.0310 N   0  0  0  0  0  0  0  0  0  0  0  0
   61.5200   33.6700   45.2700 H   0  0  0  0  0  0  0  0  0  0  0  0
   61.0440   33.6520   47.3400 N   0  0  0  0  0  0  0  0  0  0  0  0
   62.3880   33.4150   47.9340 C   0  0  0  0  0  0  0  0  0  0  0  0
   63.5060   33.8350   46.9500 C   0  0  0  0  0  0  0  0  0  0  0  0
   64.3883   34.1664   47.5173 H   0  0  0  0  0  0  0  0  0  0  0  0
   63.7781   32.9778   46.3166 H   0  0  0  0  0  0  0  0  0  0  0  0
   63.1464   34.6593   46.3166 H   0  0  0  0  0  0  0  0  0  0  0  0
   62.5460   31.9190   48.2470 C   0  0  0  0  0  0  0  0  0  0  0  0
   62.5615   31.7721   49.3370 H   0  0  0  0  0  0  0  0  0  0  0  0
   61.7016   31.3626   47.8140 H   0  0  0  0  0  0  0  0  0  0  0  0
   63.4880   31.5513   47.8140 H   0  0  0  0  0  0  0  0  0  0  0  0
   62.5750   34.2480   49.2240 C   0  0  0  0  0  0  0  0  0  0  0  0
   62.4299   33.6016   50.1021 H   0  0  0  0  0  0  0  0  0  0  0  0
   63.5904   34.6706   49.2436 H   0  0  0  0  0  0  0  0  0  0  0  0
   61.8377   35.0641   49.2436 H   0  0  0  0  0  0  0  0  0  0  0  0
   59.8340   33.6260   47.9740 C   0  0  0  0  0  0  0  0  0  0  0  0
   59.6890   33.3730   49.2460 N   0  0  0  0  0  0  0  0  0  0  0  0
   59.1810   32.1710   49.8490 C   0  0  0  0  0  0  0  0  0  0  0  0
   58.5710   32.2360   50.9490 O   0  0  0  0  0  0  0  0  0  0  0  0
   59.4550   30.8400   49.2450 C   0  0  0  0  0  0  0  0  0  0  0  0
   58.9040   30.5210   47.9870 C   0  0  0  0  0  0  0  0  0  0  0  0
   58.2773   31.2591   47.4651 H   0  0  0  0  0  0  0  0  0  0  0  0
   59.1450   29.2770   47.3950 C   0  0  0  0  0  0  0  0  0  0  0  0
   58.7129   29.0437   46.4107 H   0  0  0  0  0  0  0  0  0  0  0  0
   59.9330   28.3320   48.0520 C   0  0  0  0  0  0  0  0  0  0  0  0
   60.1138   27.3499   47.5907 H   0  0  0  0  0  0  0  0  0  0  0  0
   60.4920   28.6330   49.2950 C   0  0  0  0  0  0  0  0  0  0  0  0
   61.1203   27.8889   49.8063 H   0  0  0  0  0  0  0  0  0  0  0  0
   60.2580   29.8760   49.8950 C   0  0  0  0  0  0  0  0  0  0  0  0
   60.8260   30.1230   51.0990 F   0  0  0  0  0  0  0  0  0  0  0  0
   58.7260   33.5920   44.5900 C   0  0  0  0  0  0  0  0  0  0  0  0
   59.1284   32.7286   44.0400 H   0  0  0  0  0  0  0  0  0  0  0  0
   58.7657   34.4270   43.8750 H   0  0  0  0  0  0  0  0  0  0  0  0
  1  2  1  0
  3  2  1  1
  3  4  1  0
  4  5  1  0
  4  6  1  0
  4  7  1  0
  7  8  2  0
  8  9  1  0
  9 10  1  0
  9 11  1  0
 11 12  1  0
 12 13  1  0
 13 14  1  0
 13 15  1  0
 13 16  1  0
 12 17  1  0
 17 18  1  0
 17 19  1  0
 17 20  1  0
 12 21  1  0
 21 22  1  0
 21 23  1  0
 21 24  1  0
 11 25  1  0
 25 26  2  0
 26 27  1  0
 27 28  2  0
 27 29  1  0
 29 30  2  0
 30 31  1  0
 30 32  1  0
 32 33  1  0
 32 34  2  0
 34 35  1  0
 34 36  1  0
 36 37  1  0
 36 38  2  0
 38 39  1  0
  8 40  1  0
 40 41  1  0
 40 42  1  0
 40  3  1  0
 25  7  1  0
 38 29  1  0
M  CHG  1   3   1
M  END
>  <UniqueID>  (74) 
63

>  <SMILES>  (74) 
CC(C)(C)n1[nH]c2c(/c1=N\C(=O)c1ccccc1F)C[S@+](O)C2

>  <Energy>  (74) 
96.1245030532561

>  <Genealogy>  (74) 
CC(C)(C)n1[nH]c2c(c1=NC(=O)c1ccccc1F)C[S+](O)C2 (protonated)
CC(C)(C)n1[nH]c2c(c1=NC(=O)c1ccccc1F)C[S@+](O)C2 (chirality)
CC(C)(C)n1[nH]c2c(/c1=N\C(=O)c1ccccc1F)C[S@+](O)C2 (cis-trans isomerization)
CC(C)(C)n1[nH]c2c(/c1=N\C(=O)c1ccccc1F)C[S@+](O)C2 (3D coordinates assigned)
CC(C)(C)n1[nH]c2c(/c1=N\C(=O)c1ccccc1F)C[S@+](O)C2 (nonaromatic ring conformer: 96.1245030532561 kcal/mol)

>  <smiles>  (74) 
CC(C)(C)n1[nH]c2c(c1=NC(=O)c1ccccc1F)C[S+]([O-])C2

>  <score_type>  (74) 
oracle

>  <origin>  (74) 
adg

>  <m_score__min__energy>  (74) 
-5.9199999999999999

>  <m_primary>  (74) 
energy

$$$$
74:0
     RDKit          3D

 44 46  0  0  0  0  0  0  0  0999 V2000
   55.4200   29.1990   44.8720 O   0  0  0  0  0  0  0  0  0  0  0  0
   56.6580   29.3440   45.0980 C   0  0  0  0  0  0  0  0  0  0  0  0
   57.1510   30.6200   44.9910 O   0  0  0  0  0  0  0  0  0  0  0  0
   57.7130   31.0410   43.7710 C   0  0  0  0  0  0  0  0  0  0  0  0
   57.6940   32.5340   43.5640 C   0  0  0  0  0  0  0  0  0  0  0  0
   58.1210   33.2510   44.8030 C   0  0  0  0  0  0  0  0  0  0  0  0
   57.4100   33.2050   45.9800 C   0  0  0  0  0  0  0  0  0  0  0  0
   57.7720   33.8410   47.1260 C   0  0  0  0  0  0  0  0  0  0  0  0
   58.9350   34.6000   47.1440 C   0  0  0  0  0  0  0  0  0  0  0  0
   59.6810   34.6690   45.9660 C   0  0  0  0  0  0  0  0  0  0  0  0
   59.2840   34.0070   44.8140 C   0  0  0  0  0  0  0  0  0  0  0  0
   57.4020   28.1520   45.4450 C   0  0  0  0  0  0  0  0  0  0  0  0
   56.7030   26.9680   45.7120 C   0  0  0  0  0  0  0  0  0  0  0  0
   57.2980   25.8180   46.1270 C   0  0  0  0  0  0  0  0  0  0  0  0
   58.6680   25.7680   46.3060 C   0  0  0  0  0  0  0  0  0  0  0  0
   59.3670   26.9190   46.0460 C   0  0  0  0  0  0  0  0  0  0  0  0
   58.7630   28.0990   45.6200 C   0  0  0  0  0  0  0  0  0  0  0  0
   59.6860   29.2100   45.2790 C   0  0  0  0  0  0  0  0  0  0  0  0
   59.8130   30.0990   46.4540 C   0  0  0  0  0  0  0  0  0  0  0  0
   61.1270   30.4760   46.7860 C   0  0  0  0  0  0  0  0  0  0  0  0
   61.4020   31.3100   47.8430 C   0  0  0  0  0  0  0  0  0  0  0  0
   62.5820   31.6470   48.1390 O   0  0  0  0  0  0  0  0  0  0  0  0
   60.3450   31.7800   48.5850 C   0  0  0  0  0  0  0  0  0  0  0  0
   60.5520   32.5500   49.5680 O   0  0  0  0  0  0  0  0  0  0  0  0
   59.0950   31.4030   48.2440 N   0  0  0  0  0  0  0  0  0  0  0  0
   58.8540   30.5900   47.2100 N   0  0  0  0  0  0  0  0  0  0  0  0
   58.7588   30.7015   43.7376 H   0  0  0  0  0  0  0  0  0  0  0  0
   57.0969   30.6034   42.9717 H   0  0  0  0  0  0  0  0  0  0  0  0
   58.3803   32.7924   42.7441 H   0  0  0  0  0  0  0  0  0  0  0  0
   56.6668   32.8409   43.3175 H   0  0  0  0  0  0  0  0  0  0  0  0
   56.4836   32.6121   45.9950 H   0  0  0  0  0  0  0  0  0  0  0  0
   57.1503   33.7553   48.0294 H   0  0  0  0  0  0  0  0  0  0  0  0
   59.2568   35.1279   48.0539 H   0  0  0  0  0  0  0  0  0  0  0  0
   60.6066   35.2632   45.9513 H   0  0  0  0  0  0  0  0  0  0  0  0
   59.8955   34.0819   43.9027 H   0  0  0  0  0  0  0  0  0  0  0  0
   55.6111   26.9685   45.5784 H   0  0  0  0  0  0  0  0  0  0  0  0
   56.6871   24.9241   46.3210 H   0  0  0  0  0  0  0  0  0  0  0  0
   59.1728   24.8498   46.6407 H   0  0  0  0  0  0  0  0  0  0  0  0
   60.4587   26.9095   46.1807 H   0  0  0  0  0  0  0  0  0  0  0  0
   60.6731   28.8031   45.0144 H   0  0  0  0  0  0  0  0  0  0  0  0
   59.2910   29.7756   44.4222 H   0  0  0  0  0  0  0  0  0  0  0  0
   61.9607   30.0910   46.1804 H   0  0  0  0  0  0  0  0  0  0  0  0
   58.2890   31.7680   48.8210 H   0  0  0  0  0  0  0  0  0  0  0  0
   57.8650   30.3680   47.0340 H   0  0  0  0  0  0  0  0  0  0  0  0
  1  2  2  0
  2  3  1  0
  3  4  1  0
  4  5  1  0
  5  6  1  0
  6  7  2  0
  7  8  1  0
  8  9  2  0
  9 10  1  0
 10 11  2  0
  2 12  1  0
 12 13  2  0
 13 14  1  0
 14 15  2  0
 15 16  1  0
 16 17  2  0
 17 18  1  0
 18 19  1  0
 19 20  2  0
 20 21  1  0
 21 22  2  0
 21 23  1  0
 23 24  2  0
 23 25  1  0
 25 26  1  0
 11  6  1  0
 17 12  1  0
 26 19  1  0
  4 27  1  0
  4 28  1  0
  5 29  1  0
  5 30  1  0
  7 31  1  0
  8 32  1  0
  9 33  1  0
 10 34  1  0
 11 35  1  0
 13 36  1  0
 14 37  1  0
 15 38  1  0
 16 39  1  0
 18 40  1  0
 18 41  1  0
 20 42  1  0
 25 43  1  0
 26 44  1  0
M  END
>  <smiles>  (75) 
O=C(OCCc1ccccc1)c1ccccc1Cc1cc(=O)c(=O)[nH][nH]1

>  <score_type>  (75) 
oracle

>  <origin>  (75) 
adg

>  <m_score__min__energy>  (75) 
-8.7200000000000006

>  <m_primary>  (75) 
energy

$$$$
75:0
     RDKit          3D

 45 47  0  0  0  0  0  0  0  0999 V2000
   59.2680   35.5330   44.8880 C   0  0  0  0  0  0  0  0  0  0  0  0
   58.8730   34.1850   45.4220 C   0  0  0  0  0  0  0  0  0  0  0  0
   58.4590   33.1710   44.5430 C   0  0  0  0  0  0  0  0  0  0  0  0
   58.0870   31.9110   45.0330 C   0  0  0  0  0  0  0  0  0  0  0  0
   57.6800   30.8130   44.0850 C   0  0  0  0  0  0  0  0  0  0  0  0
   58.0210   29.4960   44.6530 N   0  0  0  0  0  0  0  0  0  0  0  0
   59.3380   29.1420   44.7430 C   0  0  0  0  0  0  0  0  0  0  0  0
   59.7080   27.8970   45.2410 C   0  0  0  0  0  0  0  0  0  0  0  0
   58.7260   27.0010   45.6470 C   0  0  0  0  0  0  0  0  0  0  0  0
   57.3690   27.3440   45.5560 C   0  0  0  0  0  0  0  0  0  0  0  0
   56.3330   26.3650   45.9890 C   0  0  0  0  0  0  0  0  0  0  0  0
   55.1150   26.6900   46.0060 O   0  0  0  0  0  0  0  0  0  0  0  0
   56.7270   25.0600   46.4380 N   0  0  0  0  0  0  0  0  0  0  0  0
   57.2950   24.0150   45.6340 C   0  0  0  0  0  0  0  0  0  0  0  0
   56.5710   23.5510   44.5280 C   0  0  0  0  0  0  0  0  0  0  0  0
   57.0790   22.5220   43.7310 C   0  0  0  0  0  0  0  0  0  0  0  0
   58.3090   21.9360   44.0430 C   0  0  0  0  0  0  0  0  0  0  0  0
   59.0300   22.3710   45.1590 C   0  0  0  0  0  0  0  0  0  0  0  0
   60.2460   21.7650   45.4710 O   0  0  0  0  0  0  0  0  0  0  0  0
   58.5220   23.4050   45.9590 C   0  0  0  0  0  0  0  0  0  0  0  0
   57.0330   28.6210   45.0420 C   0  0  0  0  0  0  0  0  0  0  0  0
   55.8220   28.9580   44.9380 O   0  0  0  0  0  0  0  0  0  0  0  0
   58.1420   31.6630   46.4120 C   0  0  0  0  0  0  0  0  0  0  0  0
   58.5540   32.6670   47.3020 C   0  0  0  0  0  0  0  0  0  0  0  0
   58.6100   32.3920   48.7790 C   0  0  0  0  0  0  0  0  0  0  0  0
   58.9200   33.9290   46.8040 C   0  0  0  0  0  0  0  0  0  0  0  0
   59.3300   34.9300   47.6810 O   0  0  0  0  0  0  0  0  0  0  0  0
   59.4680   36.2156   45.7271 H   0  0  0  0  0  0  0  0  0  0  0  0
   60.1745   35.4325   44.2730 H   0  0  0  0  0  0  0  0  0  0  0  0
   58.4507   35.9376   44.2730 H   0  0  0  0  0  0  0  0  0  0  0  0
   58.4263   33.3669   43.4611 H   0  0  0  0  0  0  0  0  0  0  0  0
   56.5946   30.8647   43.9140 H   0  0  0  0  0  0  0  0  0  0  0  0
   58.2172   30.9432   43.1340 H   0  0  0  0  0  0  0  0  0  0  0  0
   60.1146   29.8500   44.4178 H   0  0  0  0  0  0  0  0  0  0  0  0
   60.7710   27.6233   45.3131 H   0  0  0  0  0  0  0  0  0  0  0  0
   59.0151   26.0161   46.0424 H   0  0  0  0  0  0  0  0  0  0  0  0
   55.5964   23.9997   44.2855 H   0  0  0  0  0  0  0  0  0  0  0  0
   56.5101   22.1726   42.8568 H   0  0  0  0  0  0  0  0  0  0  0  0
   58.7103   21.1313   43.4095 H   0  0  0  0  0  0  0  0  0  0  0  0
   60.4220   20.7910   45.2580 H   0  0  0  0  0  0  0  0  0  0  0  0
   59.0838   23.7406   46.8432 H   0  0  0  0  0  0  0  0  0  0  0  0
   57.8598   30.6730   46.7996 H   0  0  0  0  0  0  0  0  0  0  0  0
   58.4204   33.3233   49.3328 H   0  0  0  0  0  0  0  0  0  0  0  0
   57.8452   31.6465   49.0424 H   0  0  0  0  0  0  0  0  0  0  0  0
   59.6054   32.0050   49.0424 H   0  0  0  0  0  0  0  0  0  0  0  0
  1  2  1  0
  2  3  2  0
  3  4  1  0
  4  5  1  0
  5  6  1  0
  6  7  1  0
  7  8  2  0
  8  9  1  0
  9 10  2  0
 10 11  1  0
 11 12  2  0
 11 13  1  0
 13 14  1  0
 14 15  2  0
 15 16  1  0
 16 17  2  0
 17 18  1  0
 18 19  1  0
 18 20  2  0
 10 21  1  0
 21 22  2  0
  4 23  2  0
 23 24  1  0
 24 25  1  0
 24 26  2  0
 26 27  1  0
 26  2  1  0
 21  6  1  0
 20 14  1  0
  1 28  1  0
  1 29  1  0
  1 30  1  0
  3 31  1  0
  5 32  1  0
  5 33  1  0
  7 34  1  0
  8 35  1  0
  9 36  1  0
 15 37  1  0
 16 38  1  0
 17 39  1  0
 19 40  1  0
 20 41  1  0
 23 42  1  0
 25 43  1  0
 25 44  1  0
 25 45  1  0
M  CHG  2  13  -1  27  -1
M  END
>  <UniqueID>  (76) 
64

>  <SMILES>  (76) 
Cc1cc(Cn2cccc(C(=O)[N-]c3cccc(O)c3)c2=O)cc(C)c1[O-]

>  <Energy>  (76) 
54.836317713930576

>  <Genealogy>  (76) 
Cc1cc(Cn2cccc(C(=O)[N-]c3cccc(O)c3)c2=O)cc(C)c1[O-] (protonated)
Cc1cc(Cn2cccc(C(=O)[N-]c3cccc(O)c3)c2=O)cc(C)c1[O-] (3D coordinates assigned)
Cc1cc(Cn2cccc(C(=O)[N-]c3cccc(O)c3)c2=O)cc(C)c1[O-] (optimized conformer: 54.836317713930576 kcal/mol)

>  <smiles>  (76) 
Cc1cc(Cn2cccc(C(=O)Nc3cccc(O)c3)c2=O)cc(C)c1O

>  <score_type>  (76) 
oracle

>  <origin>  (76) 
adg

>  <m_score__min__energy>  (76) 
-12.02

>  <m_primary>  (76) 
energy

$$$$
76:0
     RDKit          3D

 49 51  0  0  0  0  0  0  0  0999 V2000
   59.3770   35.1430   45.4140 C   0  0  0  0  0  0  0  0  0  0  0  0
   58.7010   33.8340   45.1320 C   0  0  0  0  0  0  0  0  0  0  0  0
   58.4470   33.4280   43.8120 C   0  0  0  0  0  0  0  0  0  0  0  0
   57.8660   32.1810   43.5590 C   0  0  0  0  0  0  0  0  0  0  0  0
   57.5230   31.3320   44.6190 C   0  0  0  0  0  0  0  0  0  0  0  0
   56.8190   29.7440   44.2970 S   0  0  0  0  0  0  0  0  0  0  0  0
   55.4270   29.7200   44.8730 O   0  0  0  0  0  0  0  0  0  0  0  0
   56.7210   29.5210   42.8120 O   0  0  0  0  0  0  0  0  0  0  0  0
   57.7450   28.4380   44.9930 N   0  0  0  0  0  0  0  0  0  0  0  0
   59.0330   28.2220   44.3230 C   0  0  0  0  0  0  0  0  0  0  0  0
   60.1810   28.8950   45.0290 C   0  0  0  0  0  0  0  0  0  0  0  0
   61.3150   28.8910   44.4850 O   0  0  0  0  0  0  0  0  0  0  0  0
   60.0040   29.6550   46.2350 N   0  0  0  0  0  0  0  0  0  0  0  0
   60.2530   29.2080   47.5760 C   0  0  0  0  0  0  0  0  0  0  0  0
   60.1440   27.8490   47.9180 C   0  0  0  0  0  0  0  0  0  0  0  0
   60.4020   27.4250   49.2270 C   0  0  0  0  0  0  0  0  0  0  0  0
   60.7870   28.3470   50.1990 C   0  0  0  0  0  0  0  0  0  0  0  0
   60.9390   29.6940   49.8610 C   0  0  0  0  0  0  0  0  0  0  0  0
   60.6880   30.1320   48.5490 C   0  0  0  0  0  0  0  0  0  0  0  0
   60.8900   31.5160   48.2090 N   0  0  0  0  0  0  0  0  0  0  0  0
   61.9290   31.8370   47.2180 C   0  0  0  0  0  0  0  0  0  0  0  0
   62.0180   33.3460   46.9230 C   0  0  0  0  0  0  0  0  0  0  0  0
   61.7960   34.1160   48.0840 O   0  0  0  0  0  0  0  0  0  0  0  0
   60.4540   33.9500   48.4860 C   0  0  0  0  0  0  0  0  0  0  0  0
   60.2300   32.5400   49.0320 C   0  0  0  0  0  0  0  0  0  0  0  0
   57.7920   31.7320   45.9330 C   0  0  0  0  0  0  0  0  0  0  0  0
   58.3760   32.9750   46.1890 C   0  0  0  0  0  0  0  0  0  0  0  0
   59.4528   35.2897   46.5015 H   0  0  0  0  0  0  0  0  0  0  0  0
   60.3850   35.1375   44.9736 H   0  0  0  0  0  0  0  0  0  0  0  0
   58.7890   35.9617   44.9736 H   0  0  0  0  0  0  0  0  0  0  0  0
   58.7057   34.0925   42.9745 H   0  0  0  0  0  0  0  0  0  0  0  0
   57.6775   31.8654   42.5222 H   0  0  0  0  0  0  0  0  0  0  0  0
   57.9430   28.6980   45.9870 H   0  0  0  0  0  0  0  0  0  0  0  0
   59.2309   27.1407   44.2830 H   0  0  0  0  0  0  0  0  0  0  0  0
   58.9601   28.6622   43.3176 H   0  0  0  0  0  0  0  0  0  0  0  0
   59.8542   27.1142   47.1525 H   0  0  0  0  0  0  0  0  0  0  0  0
   60.3006   26.3615   49.4892 H   0  0  0  0  0  0  0  0  0  0  0  0
   60.9710   28.0143   51.2312 H   0  0  0  0  0  0  0  0  0  0  0  0
   61.2573   30.4168   50.6267 H   0  0  0  0  0  0  0  0  0  0  0  0
   62.9011   31.4951   47.6029 H   0  0  0  0  0  0  0  0  0  0  0  0
   61.6636   31.3285   46.2794 H   0  0  0  0  0  0  0  0  0  0  0  0
   63.0194   33.5743   46.5293 H   0  0  0  0  0  0  0  0  0  0  0  0
   61.2398   33.5994   46.1880 H   0  0  0  0  0  0  0  0  0  0  0  0
   60.2175   34.6839   49.2705 H   0  0  0  0  0  0  0  0  0  0  0  0
   59.7999   34.1026   47.6149 H   0  0  0  0  0  0  0  0  0  0  0  0
   60.6332   32.4874   50.0541 H   0  0  0  0  0  0  0  0  0  0  0  0
   59.1485   32.3397   49.0183 H   0  0  0  0  0  0  0  0  0  0  0  0
   57.5419   31.0632   46.7697 H   0  0  0  0  0  0  0  0  0  0  0  0
   58.5815   33.2803   47.2256 H   0  0  0  0  0  0  0  0  0  0  0  0
  1  2  1  0
  2  3  2  0
  3  4  1  0
  4  5  2  0
  5  6  1  0
  6  7  2  0
  6  8  2  0
  6  9  1  0
  9 10  1  0
 10 11  1  0
 11 12  2  0
 11 13  1  0
 13 14  1  0
 14 15  2  0
 15 16  1  0
 16 17  2  0
 17 18  1  0
 18 19  2  0
 19 20  1  0
 20 21  1  0
 21 22  1  0
 22 23  1  0
 23 24  1  0
 24 25  1  0
  5 26  1  0
 26 27  2  0
 27  2  1  0
 19 14  1  0
 25 20  1  0
  1 28  1  0
  1 29  1  0
  1 30  1  0
  3 31  1  0
  4 32  1  0
  9 33  1  0
 10 34  1  0
 10 35  1  0
 15 36  1  0
 16 37  1  0
 17 38  1  0
 18 39  1  0
 21 40  1  0
 21 41  1  0
 22 42  1  0
 22 43  1  0
 24 44  1  0
 24 45  1  0
 25 46  1  0
 25 47  1  0
 26 48  1  0
 27 49  1  0
M  CHG  1  13  -1
M  END
>  <UniqueID>  (77) 
65

>  <SMILES>  (77) 
Cc1ccc(S(=O)(=O)NCC(=O)[N-]c2ccccc2N2CCOCC2)cc1

>  <Energy>  (77) 
62.81207942812652

>  <Genealogy>  (77) 
Cc1ccc(S(=O)(=O)NCC(=O)[N-]c2ccccc2N2CCOCC2)cc1 (protonated)
Cc1ccc(S(=O)(=O)NCC(=O)[N-]c2ccccc2N2CCOCC2)cc1 (3D coordinates assigned)
Cc1ccc(S(=O)(=O)NCC(=O)[N-]c2ccccc2N2CCOCC2)cc1 (nonaromatic ring conformer: 62.81207942812652 kcal/mol)

>  <smiles>  (77) 
Cc1ccc(S(=O)(=O)NCC(=O)Nc2ccccc2N2CCOCC2)cc1

>  <score_type>  (77) 
oracle

>  <origin>  (77) 
adg

>  <m_score__min__energy>  (77) 
-11.23

>  <m_primary>  (77) 
energy

$$$$
77:0
     RDKit          3D

 38 39  0  0  0  0  0  0  0  0999 V2000
   60.7920   29.3370   45.6400 C   0  0  0  0  0  0  0  0  0  0  0  0
   59.7490   30.0590   46.3610 N   0  0  0  0  0  0  0  0  0  0  0  0
   58.5160   30.3570   45.6920 C   0  0  0  0  0  0  0  0  0  0  0  0
   57.7100   29.3310   45.3060 N   0  0  0  0  0  0  0  0  0  0  0  0
   56.5100   29.5590   44.7170 C   0  0  0  0  0  0  0  0  0  0  0  0
   56.0890   30.8300   44.5030 N   0  0  0  0  0  0  0  0  0  0  0  0
   56.8550   31.8910   44.8640 C   0  0  0  0  0  0  0  0  0  0  0  0
   58.1060   31.6870   45.4640 C   0  0  0  0  0  0  0  0  0  0  0  0
   58.9690   32.8440   45.7870 C   0  0  0  0  0  0  0  0  0  0  0  0
   59.2840   33.6590   44.8770 O   0  0  0  0  0  0  0  0  0  0  0  0
   59.4440   33.0490   47.1260 N   0  0  0  0  0  0  0  0  0  0  0  0
   60.1860   34.2450   47.5190 C   0  0  0  0  0  0  0  0  0  0  0  0
   61.5600   33.8680   48.0010 C   0  0  0  0  0  0  0  0  0  0  0  0
   61.9050   34.0020   49.3570 C   0  0  0  0  0  0  0  0  0  0  0  0
   63.1770   33.6260   49.8000 C   0  0  0  0  0  0  0  0  0  0  0  0
   64.1110   33.1110   48.8960 C   0  0  0  0  0  0  0  0  0  0  0  0
   65.3440   32.7470   49.3280 F   0  0  0  0  0  0  0  0  0  0  0  0
   63.7730   32.9690   47.5470 C   0  0  0  0  0  0  0  0  0  0  0  0
   62.5020   33.3440   47.1000 C   0  0  0  0  0  0  0  0  0  0  0  0
   59.8260   30.1190   48.0980 S   0  0  0  0  0  0  0  0  0  0  0  0
   60.1680   28.5080   48.7810 C   0  0  0  0  0  0  0  0  0  0  0  0
   58.5200   30.6210   48.6440 O   0  0  0  0  0  0  0  0  0  0  0  0
   60.9310   31.0490   48.5170 O   0  0  0  0  0  0  0  0  0  0  0  0
   61.4755   28.8639   46.3604 H   0  0  0  0  0  0  0  0  0  0  0  0
   60.3322   28.5629   45.0080 H   0  0  0  0  0  0  0  0  0  0  0  0
   61.3546   30.0399   45.0080 H   0  0  0  0  0  0  0  0  0  0  0  0
   55.8776   28.7121   44.4126 H   0  0  0  0  0  0  0  0  0  0  0  0
   56.4932   32.9143   44.6853 H   0  0  0  0  0  0  0  0  0  0  0  0
   59.2930   32.3060   47.8440 H   0  0  0  0  0  0  0  0  0  0  0  0
   60.2763   34.9175   46.6532 H   0  0  0  0  0  0  0  0  0  0  0  0
   59.6462   34.7514   48.3328 H   0  0  0  0  0  0  0  0  0  0  0  0
   61.1721   34.4039   50.0720 H   0  0  0  0  0  0  0  0  0  0  0  0
   63.4432   33.7356   50.8617 H   0  0  0  0  0  0  0  0  0  0  0  0
   64.5074   32.5619   46.8364 H   0  0  0  0  0  0  0  0  0  0  0  0
   62.2387   33.2282   46.0383 H   0  0  0  0  0  0  0  0  0  0  0  0
   60.1558   28.5653   49.8794 H   0  0  0  0  0  0  0  0  0  0  0  0
   59.4010   27.7959   48.4425 H   0  0  0  0  0  0  0  0  0  0  0  0
   61.1582   28.1689   48.4425 H   0  0  0  0  0  0  0  0  0  0  0  0
  1  2  1  0
  2  3  1  0
  3  4  2  0
  4  5  1  0
  5  6  2  0
  6  7  1  0
  7  8  2  0
  8  9  1  0
  9 10  2  0
  9 11  1  0
 11 12  1  0
 12 13  1  0
 13 14  2  0
 14 15  1  0
 15 16  2  0
 16 17  1  0
 16 18  1  0
 18 19  2  0
  2 20  1  0
 20 21  1  0
 20 22  2  0
 20 23  2  0
  8  3  1  0
 19 13  1  0
  1 24  1  0
  1 25  1  0
  1 26  1  0
  5 27  1  0
  7 28  1  0
 11 29  1  0
 12 30  1  0
 12 31  1  0
 14 32  1  0
 15 33  1  0
 18 34  1  0
 19 35  1  0
 21 36  1  0
 21 37  1  0
 21 38  1  0
M  END
>  <UniqueID>  (78) 
66

>  <SMILES>  (78) 
CN(c1ncncc1C(=O)NCc1ccc(F)cc1)S(C)(=O)=O

>  <Energy>  (78) 
41.548737052527436

>  <Genealogy>  (78) 
CN(c1ncncc1C(=O)NCc1ccc(F)cc1)S(C)(=O)=O (3D coordinates assigned)
CN(c1ncncc1C(=O)NCc1ccc(F)cc1)S(C)(=O)=O (optimized conformer: 41.548737052527436 kcal/mol)

>  <smiles>  (78) 
CN(c1ncncc1C(=O)NCc1ccc(F)cc1)S(C)(=O)=O

>  <score_type>  (78) 
oracle

>  <origin>  (78) 
adg

>  <m_score__min__energy>  (78) 
-6.6299999999999999

>  <m_primary>  (78) 
energy

$$$$
78:0
     RDKit          3D

 60 63  0  0  0  0  0  0  0  0999 V2000
   54.4410   30.4780   52.2700 C   0  0  0  0  0  0  0  0  0  0  0  0
   55.5670   30.8780   52.8660 C   0  0  0  0  0  0  0  0  0  0  0  0
   56.8510   31.1130   52.1600 C   0  0  0  0  0  0  0  0  0  0  0  0
   57.5420   30.0070   51.6370 C   0  0  0  0  0  0  0  0  0  0  0  0
   58.7480   30.1780   50.9510 C   0  0  0  0  0  0  0  0  0  0  0  0
   59.2790   31.4630   50.7570 C   0  0  0  0  0  0  0  0  0  0  0  0
   60.5590   31.6550   50.0350 C   0  0  0  0  0  0  0  0  0  0  0  0
   61.7330   32.0850   50.6290 C   0  0  0  0  0  0  0  0  0  0  0  0
   62.6800   32.1400   49.6270 C   0  0  0  0  0  0  0  0  0  0  0  0
   64.0770   32.5690   49.8160 C   0  0  0  0  0  0  0  0  0  0  0  0
   64.5600   33.4190   49.0180 O   0  0  0  0  0  0  0  0  0  0  0  0
   64.9120   31.9770   50.8360 N   0  0  0  0  0  0  0  0  0  0  0  0
   64.7140   30.5760   51.2370 C   0  0  0  0  0  0  0  0  0  0  0  0
   65.8540   30.1040   52.1450 C   0  0  0  0  0  0  0  0  0  0  0  0
   67.1510   30.4500   51.5320 N   0  0  0  0  0  0  0  0  0  0  0  0
   68.2570   29.8850   52.3280 C   0  0  0  0  0  0  0  0  0  0  0  0
   67.3360   31.9180   51.3200 C   0  0  0  0  0  0  0  0  0  0  0  0
   66.0280   32.7310   51.4220 C   0  0  0  0  0  0  0  0  0  0  0  0
   62.0600   31.7230   48.4560 C   0  0  0  0  0  0  0  0  0  0  0  0
   62.7090   31.5660   47.1090 C   0  0  0  0  0  0  0  0  0  0  0  0
   60.7640   31.4290   48.7130 N   0  0  0  0  0  0  0  0  0  0  0  0
   59.7640   31.0870   47.7400 C   0  0  0  0  0  0  0  0  0  0  0  0
   59.0730   32.0930   47.0470 C   0  0  0  0  0  0  0  0  0  0  0  0
   58.1260   31.7540   46.0770 C   0  0  0  0  0  0  0  0  0  0  0  0
   57.8640   30.4070   45.7860 C   0  0  0  0  0  0  0  0  0  0  0  0
   56.6690   29.9760   44.5690 S   0  0  0  0  0  0  0  0  0  0  0  0
   55.5650   28.8270   45.2360 N   0  0  0  0  0  0  0  0  0  0  0  0
   55.9170   31.2030   44.1330 O   0  0  0  0  0  0  0  0  0  0  0  0
   57.3570   29.3800   43.3720 O   0  0  0  0  0  0  0  0  0  0  0  0
   58.5460   29.4030   46.4860 C   0  0  0  0  0  0  0  0  0  0  0  0
   59.4930   29.7400   47.4560 C   0  0  0  0  0  0  0  0  0  0  0  0
   58.5910   32.5710   51.2780 C   0  0  0  0  0  0  0  0  0  0  0  0
   57.3890   32.4010   51.9670 C   0  0  0  0  0  0  0  0  0  0  0  0
   53.5281   30.3257   52.8646 H   0  0  0  0  0  0  0  0  0  0  0  0
   54.4263   30.3008   51.1845 H   0  0  0  0  0  0  0  0  0  0  0  0
   55.5411   31.0445   53.9530 H   0  0  0  0  0  0  0  0  0  0  0  0
   57.1296   28.9958   51.7688 H   0  0  0  0  0  0  0  0  0  0  0  0
   59.2842   29.3003   50.5608 H   0  0  0  0  0  0  0  0  0  0  0  0
   61.8816   32.3337   51.6902 H   0  0  0  0  0  0  0  0  0  0  0  0
   63.7609   30.4872   51.7790 H   0  0  0  0  0  0  0  0  0  0  0  0
   64.7003   29.9490   50.3333 H   0  0  0  0  0  0  0  0  0  0  0  0
   65.7693   30.5965   53.1249 H   0  0  0  0  0  0  0  0  0  0  0  0
   65.7904   29.0135   52.2741 H   0  0  0  0  0  0  0  0  0  0  0  0
   68.0336   29.9991   53.3990 H   0  0  0  0  0  0  0  0  0  0  0  0
   68.3725   28.8174   52.0893 H   0  0  0  0  0  0  0  0  0  0  0  0
   69.1897   30.4171   52.0893 H   0  0  0  0  0  0  0  0  0  0  0  0
   68.0375   32.2926   52.0799 H   0  0  0  0  0  0  0  0  0  0  0  0
   67.7159   32.0488   50.2960 H   0  0  0  0  0  0  0  0  0  0  0  0
   65.8105   32.9372   52.4804 H   0  0  0  0  0  0  0  0  0  0  0  0
   66.1499   33.6754   50.8714 H   0  0  0  0  0  0  0  0  0  0  0  0
   63.7704   31.3092   47.2411 H   0  0  0  0  0  0  0  0  0  0  0  0
   62.2045   30.7640   46.5502 H   0  0  0  0  0  0  0  0  0  0  0  0
   62.6269   32.5099   46.5502 H   0  0  0  0  0  0  0  0  0  0  0  0
   59.2774   33.1510   47.2680 H   0  0  0  0  0  0  0  0  0  0  0  0
   57.5841   32.5462   45.5397 H   0  0  0  0  0  0  0  0  0  0  0  0
   54.6940   29.3460   45.4820 H   0  0  0  0  0  0  0  0  0  0  0  0
   58.3348   28.3451   46.2708 H   0  0  0  0  0  0  0  0  0  0  0  0
   60.0279   28.9468   47.9989 H   0  0  0  0  0  0  0  0  0  0  0  0
   59.0030   33.5818   51.1419 H   0  0  0  0  0  0  0  0  0  0  0  0
   56.8576   33.2793   52.3624 H   0  0  0  0  0  0  0  0  0  0  0  0
  1  2  2  0
  2  3  1  0
  3  4  2  0
  4  5  1  0
  5  6  2  0
  6  7  1  0
  7  8  2  0
  8  9  1  0
  9 10  1  0
 10 11  2  0
 10 12  1  0
 12 13  1  0
 13 14  1  0
 14 15  1  0
 15 16  1  0
 15 17  1  0
 17 18  1  0
  9 19  2  0
 19 20  1  0
 19 21  1  0
 21 22  1  0
 22 23  2  0
 23 24  1  0
 24 25  2  0
 25 26  1  0
 26 27  1  0
 26 28  2  0
 26 29  2  0
 25 30  1  0
 30 31  2  0
  6 32  1  0
 32 33  2  0
 33  3  1  0
 21  7  1  0
 31 22  1  0
 18 12  1  0
  1 34  1  0
  1 35  1  0
  2 36  1  0
  4 37  1  0
  5 38  1  0
  8 39  1  0
 13 40  1  0
 13 41  1  0
 14 42  1  0
 14 43  1  0
 16 44  1  0
 16 45  1  0
 16 46  1  0
 17 47  1  0
 17 48  1  0
 18 49  1  0
 18 50  1  0
 20 51  1  0
 20 52  1  0
 20 53  1  0
 23 54  1  0
 24 55  1  0
 27 56  1  0
 30 57  1  0
 31 58  1  0
 32 59  1  0
 33 60  1  0
M  CHG  1  27  -1
M  END
>  <UniqueID>  (79) 
67

>  <SMILES>  (79) 
C=Cc1ccc(-c2cc(C(=O)N3CCN(C)CC3)c(C)n2-c2ccc(S([NH-])(=O)=O)cc2)cc1

>  <Energy>  (79) 
111.85159129149022

>  <Genealogy>  (79) 
C=Cc1ccc(-c2cc(C(=O)N3CCN(C)CC3)c(C)n2-c2ccc(S([NH-])(=O)=O)cc2)cc1 (protonated)
C=Cc1ccc(-c2cc(C(=O)N3CCN(C)CC3)c(C)n2-c2ccc(S([NH-])(=O)=O)cc2)cc1 (3D coordinates assigned)
C=Cc1ccc(-c2cc(C(=O)N3CCN(C)CC3)c(C)n2-c2ccc(S([NH-])(=O)=O)cc2)cc1 (nonaromatic ring conformer: 111.85159129149022 kcal/mol)

>  <smiles>  (79) 
C=Cc1ccc(-c2cc(C(=O)N3CCN(C)CC3)c(C)n2-c2ccc(S(N)(=O)=O)cc2)cc1

>  <score_type>  (79) 
oracle

>  <origin>  (79) 
adg

>  <m_score__min__energy>  (79) 
-11.19

>  <m_primary>  (79) 
energy

$$$$
79:0
     RDKit          3D

 40 42  0  0  0  0  0  0  0  0999 V2000
   59.7560   34.1800   48.6740 C   0  0  0  0  0  0  0  0  0  0  0  0
   59.3490   34.0220   47.2430 C   0  0  0  0  0  0  0  0  0  0  0  0
   58.7780   32.8230   46.7980 C   0  0  0  0  0  0  0  0  0  0  0  0
   58.4150   32.6830   45.4460 C   0  0  0  0  0  0  0  0  0  0  0  0
   57.8060   31.4200   44.9540 C   0  0  0  0  0  0  0  0  0  0  0  0
   57.2940   31.3360   43.6460 C   0  0  0  0  0  0  0  0  0  0  0  0
   56.7300   30.1450   43.1830 C   0  0  0  0  0  0  0  0  0  0  0  0
   56.6610   29.0280   44.0190 C   0  0  0  0  0  0  0  0  0  0  0  0
   57.1450   29.1020   45.3360 C   0  0  0  0  0  0  0  0  0  0  0  0
   57.0970   27.9710   46.2190 N   0  0  0  0  0  0  0  0  0  0  0  0
   56.4090   26.7360   45.9760 C   0  0  0  0  0  0  0  0  0  0  0  0
   55.1510   26.7280   46.0240 O   0  0  0  0  0  0  0  0  0  0  0  0
   57.1310   25.4910   45.6220 C   0  0  0  0  0  0  0  0  0  0  0  0
   58.4850   25.3220   45.9580 C   0  0  0  0  0  0  0  0  0  0  0  0
   59.1580   24.1460   45.6180 C   0  0  0  0  0  0  0  0  0  0  0  0
   58.4900   23.1100   44.9420 C   0  0  0  0  0  0  0  0  0  0  0  0
   59.2310   21.8620   44.5330 C   0  0  0  0  0  0  0  0  0  0  0  0
   60.4090   22.1840   43.8830 F   0  0  0  0  0  0  0  0  0  0  0  0
   58.4600   21.0950   43.6780 F   0  0  0  0  0  0  0  0  0  0  0  0
   59.5280   21.1200   45.6610 F   0  0  0  0  0  0  0  0  0  0  0  0
   57.1490   23.2980   44.5670 C   0  0  0  0  0  0  0  0  0  0  0  0
   56.4760   24.4750   44.9080 C   0  0  0  0  0  0  0  0  0  0  0  0
   57.7310   30.2900   45.7890 C   0  0  0  0  0  0  0  0  0  0  0  0
   58.6410   33.7580   44.5710 C   0  0  0  0  0  0  0  0  0  0  0  0
   59.2170   34.9350   45.0540 C   0  0  0  0  0  0  0  0  0  0  0  0
   59.5560   35.0410   46.3640 N   0  0  0  0  0  0  0  0  0  0  0  0
   58.9310   33.8597   49.3273 H   0  0  0  0  0  0  0  0  0  0  0  0
   60.6431   33.5609   48.8734 H   0  0  0  0  0  0  0  0  0  0  0  0
   59.9931   35.2355   48.8734 H   0  0  0  0  0  0  0  0  0  0  0  0
   58.6141   31.9943   47.5026 H   0  0  0  0  0  0  0  0  0  0  0  0
   57.3382   32.2135   42.9842 H   0  0  0  0  0  0  0  0  0  0  0  0
   56.3388   30.0864   42.1566 H   0  0  0  0  0  0  0  0  0  0  0  0
   56.2270   28.0888   43.6456 H   0  0  0  0  0  0  0  0  0  0  0  0
   59.0188   26.1215   46.4926 H   0  0  0  0  0  0  0  0  0  0  0  0
   60.2196   24.0296   45.8814 H   0  0  0  0  0  0  0  0  0  0  0  0
   56.6250   22.5136   44.0012 H   0  0  0  0  0  0  0  0  0  0  0  0
   55.4241   24.6062   44.6143 H   0  0  0  0  0  0  0  0  0  0  0  0
   58.1376   30.3406   46.8098 H   0  0  0  0  0  0  0  0  0  0  0  0
   58.3654   33.6733   43.5095 H   0  0  0  0  0  0  0  0  0  0  0  0
   59.3964   35.7784   44.3710 H   0  0  0  0  0  0  0  0  0  0  0  0
  1  2  1  0
  2  3  2  0
  3  4  1  0
  4  5  1  0
  5  6  2  0
  6  7  1  0
  7  8  2  0
  8  9  1  0
  9 10  1  0
 10 11  1  0
 11 12  2  0
 11 13  1  0
 13 14  2  0
 14 15  1  0
 15 16  2  0
 16 17  1  0
 17 18  1  0
 17 19  1  0
 17 20  1  0
 16 21  1  0
 21 22  2  0
  9 23  2  0
  4 24  2  0
 24 25  1  0
 25 26  2  0
 26  2  1  0
 23  5  1  0
 22 13  1  0
  1 27  1  0
  1 28  1  0
  1 29  1  0
  3 30  1  0
  6 31  1  0
  7 32  1  0
  8 33  1  0
 14 34  1  0
 15 35  1  0
 21 36  1  0
 22 37  1  0
 23 38  1  0
 24 39  1  0
 25 40  1  0
M  CHG  1  10  -1
M  END
>  <UniqueID>  (80) 
68

>  <SMILES>  (80) 
Cc1cc(-c2cccc([N-]C(=O)c3ccc(C(F)(F)F)cc3)c2)ccn1

>  <Energy>  (80) 
54.801832082271126

>  <Genealogy>  (80) 
Cc1cc(-c2cccc([N-]C(=O)c3ccc(C(F)(F)F)cc3)c2)ccn1 (protonated)
Cc1cc(-c2cccc([N-]C(=O)c3ccc(C(F)(F)F)cc3)c2)ccn1 (3D coordinates assigned)
Cc1cc(-c2cccc([N-]C(=O)c3ccc(C(F)(F)F)cc3)c2)ccn1 (optimized conformer: 54.801832082271126 kcal/mol)

>  <smiles>  (80) 
Cc1cc(-c2cccc(NC(=O)c3ccc(C(F)(F)F)cc3)c2)ccn1

>  <score_type>  (80) 
oracle

>  <origin>  (80) 
adg

>  <m_score__min__energy>  (80) 
-9.6099999999999994

>  <m_primary>  (80) 
energy

$$$$
80:0
     RDKit          3D

 60 64  0  0  0  0  0  0  0  0999 V2000
   58.2220   22.3950   51.4820 C   0  0  0  0  0  0  0  0  0  0  0  0
   58.4040   20.8650   50.5950 S   0  0  0  0  0  0  0  0  0  0  0  0
   57.6640   19.7790   51.3310 O   0  0  0  0  0  0  0  0  0  0  0  0
   59.8680   20.5240   50.5050 O   0  0  0  0  0  0  0  0  0  0  0  0
   57.7440   21.0620   49.0000 N   0  0  0  0  0  0  0  0  0  0  0  0
   56.4810   21.6710   48.6990 C   0  0  0  0  0  0  0  0  0  0  0  0
   55.4530   21.5810   49.6440 C   0  0  0  0  0  0  0  0  0  0  0  0
   54.2200   22.1910   49.4070 C   0  0  0  0  0  0  0  0  0  0  0  0
   53.9980   22.8820   48.2120 C   0  0  0  0  0  0  0  0  0  0  0  0
   55.0040   22.9600   47.2440 C   0  0  0  0  0  0  0  0  0  0  0  0
   54.7490   23.6870   46.0330 N   0  0  0  0  0  0  0  0  0  0  0  0
   55.1140   25.0510   45.7920 C   0  0  0  0  0  0  0  0  0  0  0  0
   54.2160   25.9250   45.6340 O   0  0  0  0  0  0  0  0  0  0  0  0
   56.5410   25.4490   45.8020 C   0  0  0  0  0  0  0  0  0  0  0  0
   57.5500   24.4870   45.6110 C   0  0  0  0  0  0  0  0  0  0  0  0
   58.8950   24.8600   45.6340 C   0  0  0  0  0  0  0  0  0  0  0  0
   59.2500   26.1930   45.8590 C   0  0  0  0  0  0  0  0  0  0  0  0
   58.2600   27.1710   46.0640 C   0  0  0  0  0  0  0  0  0  0  0  0
   58.6370   28.5750   46.3520 C   0  0  0  0  0  0  0  0  0  0  0  0
   59.4060   28.9290   47.4180 N   0  0  0  0  0  0  0  0  0  0  0  0
   59.4530   30.2670   47.3160 C   0  0  0  0  0  0  0  0  0  0  0  0
   60.0790   31.1640   48.1780 C   0  0  0  0  0  0  0  0  0  0  0  0
   59.9520   32.5440   47.8940 C   0  0  0  0  0  0  0  0  0  0  0  0
   60.6420   33.7460   48.9820 S   0  0  0  0  0  0  0  0  0  0  0  0
   59.7230   34.9330   49.0860 O   0  0  0  0  0  0  0  0  0  0  0  0
   60.7900   33.1300   50.3460 O   0  0  0  0  0  0  0  0  0  0  0  0
   62.2040   34.2280   48.3570 N   0  0  0  0  0  0  0  0  0  0  0  0
   63.2590   34.1580   49.3910 C   0  0  0  0  0  0  0  0  0  0  0  0
   64.1060   32.8760   49.2920 C   0  0  0  0  0  0  0  0  0  0  0  0
   63.3280   31.8120   48.7950 O   0  0  0  0  0  0  0  0  0  0  0  0
   63.0140   32.0370   47.4330 C   0  0  0  0  0  0  0  0  0  0  0  0
   62.5600   33.4860   47.1350 C   0  0  0  0  0  0  0  0  0  0  0  0
   59.2080   32.9710   46.7670 C   0  0  0  0  0  0  0  0  0  0  0  0
   58.5910   32.0310   45.9210 C   0  0  0  0  0  0  0  0  0  0  0  0
   58.7370   30.6820   46.2370 C   0  0  0  0  0  0  0  0  0  0  0  0
   58.2030   29.6270   45.6050 N   0  0  0  0  0  0  0  0  0  0  0  0
   56.9060   26.7920   46.0220 C   0  0  0  0  0  0  0  0  0  0  0  0
   56.2550   22.3710   47.4990 C   0  0  0  0  0  0  0  0  0  0  0  0
   58.2456   22.1967   52.5637 H   0  0  0  0  0  0  0  0  0  0  0  0
   59.0458   23.0735   51.2155 H   0  0  0  0  0  0  0  0  0  0  0  0
   57.2620   22.8614   51.2155 H   0  0  0  0  0  0  0  0  0  0  0  0
   55.6175   21.0261   50.5794 H   0  0  0  0  0  0  0  0  0  0  0  0
   53.4220   22.1280   50.1614 H   0  0  0  0  0  0  0  0  0  0  0  0
   53.0270   23.3667   48.0324 H   0  0  0  0  0  0  0  0  0  0  0  0
   57.2773   23.4347   45.4426 H   0  0  0  0  0  0  0  0  0  0  0  0
   59.6772   24.1032   45.4747 H   0  0  0  0  0  0  0  0  0  0  0  0
   60.3119   26.4795   45.8759 H   0  0  0  0  0  0  0  0  0  0  0  0
   60.6518   30.8120   49.0486 H   0  0  0  0  0  0  0  0  0  0  0  0
   63.9226   35.0277   49.2757 H   0  0  0  0  0  0  0  0  0  0  0  0
   62.7618   34.1520   50.3722 H   0  0  0  0  0  0  0  0  0  0  0  0
   64.9539   33.0529   48.6139 H   0  0  0  0  0  0  0  0  0  0  0  0
   64.4734   32.6121   50.2947 H   0  0  0  0  0  0  0  0  0  0  0  0
   63.9080   31.8212   46.8294 H   0  0  0  0  0  0  0  0  0  0  0  0
   62.1713   31.3760   47.1820 H   0  0  0  0  0  0  0  0  0  0  0  0
   63.3798   34.0152   46.6271 H   0  0  0  0  0  0  0  0  0  0  0  0
   61.6612   33.4315   46.5031 H   0  0  0  0  0  0  0  0  0  0  0  0
   59.1118   34.0454   46.5515 H   0  0  0  0  0  0  0  0  0  0  0  0
   58.0135   32.3501   45.0408 H   0  0  0  0  0  0  0  0  0  0  0  0
   56.1236   27.5524   46.1624 H   0  0  0  0  0  0  0  0  0  0  0  0
   57.0618   22.4578   46.7563 H   0  0  0  0  0  0  0  0  0  0  0  0
  1  2  1  0
  2  3  2  0
  2  4  2  0
  2  5  1  0
  5  6  1  0
  6  7  2  0
  7  8  1  0
  8  9  2  0
  9 10  1  0
 10 11  1  0
 11 12  1  0
 12 13  2  0
 12 14  1  0
 14 15  2  0
 15 16  1  0
 16 17  2  0
 17 18  1  0
 18 19  1  0
 19 20  2  0
 20 21  1  0
 21 22  2  0
 22 23  1  0
 23 24  1  0
 24 25  2  0
 24 26  2  0
 24 27  1  0
 27 28  1  0
 28 29  1  0
 29 30  1  0
 30 31  1  0
 31 32  1  0
 23 33  2  0
 33 34  1  0
 34 35  2  0
 35 36  1  0
 18 37  2  0
 10 38  2  0
 38  6  1  0
 37 14  1  0
 36 19  1  0
 35 21  1  0
 32 27  1  0
  1 39  1  0
  1 40  1  0
  1 41  1  0
  7 42  1  0
  8 43  1  0
  9 44  1  0
 15 45  1  0
 16 46  1  0
 17 47  1  0
 22 48  1  0
 28 49  1  0
 28 50  1  0
 29 51  1  0
 29 52  1  0
 31 53  1  0
 31 54  1  0
 32 55  1  0
 32 56  1  0
 33 57  1  0
 34 58  1  0
 37 59  1  0
 38 60  1  0
M  CHG  3   5  -1  11  -1  36  -1
M  END
>  <UniqueID>  (81) 
69

>  <SMILES>  (81) 
CS(=O)(=O)[N-]c1cccc([N-]C(=O)c2cccc(-c3nc4cc(S(=O)(=O)N5CCOCC5)ccc4[n-]3)c2)c1

>  <Energy>  (81) 
115.72052797647818

>  <Genealogy>  (81) 
CS(=O)(=O)[N-]c1cccc([N-]C(=O)c2cccc(-c3nc4cc(S(=O)(=O)N5CCOCC5)ccc4[n-]3)c2)c1 (protonated)
CS(=O)(=O)[N-]c1cccc([N-]C(=O)c2cccc(-c3nc4cc(S(=O)(=O)N5CCOCC5)ccc4[n-]3)c2)c1 (3D coordinates assigned)
CS(=O)(=O)[N-]c1cccc([N-]C(=O)c2cccc(-c3nc4cc(S(=O)(=O)N5CCOCC5)ccc4[n-]3)c2)c1 (nonaromatic ring conformer: 115.72052797647818 kcal/mol)

>  <smiles>  (81) 
CS(=O)(=O)Nc1cccc(NC(=O)c2cccc(-c3nc4cc(S(=O)(=O)N5CCOCC5)ccc4[nH]3)c2)c1

>  <score_type>  (81) 
oracle

>  <origin>  (81) 
adg

>  <m_score__min__energy>  (81) 
-15.210000000000001

>  <m_primary>  (81) 
energy

$$$$
81:0
     RDKit          3D

 51 54  0  0  0  0  0  0  0  0999 V2000
   63.4580   33.9590   46.5090 C   0  0  0  0  0  0  0  0  0  0  0  0
   63.0760   32.9440   47.4970 N   0  0  0  0  0  0  0  0  0  0  0  0
   62.1270   32.0460   47.1920 N   0  0  0  0  0  0  0  0  0  0  0  0
   61.7230   31.0900   48.0810 C   0  0  0  0  0  0  0  0  0  0  0  0
   60.6800   30.1030   47.7050 C   0  0  0  0  0  0  0  0  0  0  0  0
   60.7740   29.3970   46.4950 C   0  0  0  0  0  0  0  0  0  0  0  0
   59.7940   28.4680   46.1340 C   0  0  0  0  0  0  0  0  0  0  0  0
   58.6950   28.2270   46.9800 C   0  0  0  0  0  0  0  0  0  0  0  0
   57.6630   27.2800   46.6380 N   0  0  0  0  0  0  0  0  0  0  0  0
   56.8940   27.3080   45.3940 C   0  0  0  0  0  0  0  0  0  0  0  0
   56.6750   28.7160   44.9380 C   0  0  0  0  0  0  0  0  0  0  0  0
   55.4600   29.2920   44.8660 N   0  0  0  0  0  0  0  0  0  0  0  0
   55.6590   30.5410   44.4860 N   0  0  0  0  0  0  0  0  0  0  0  0
   56.9880   30.6910   44.3400 C   0  0  0  0  0  0  0  0  0  0  0  0
   57.6420   31.9920   43.9840 C   0  0  0  0  0  0  0  0  0  0  0  0
   57.1310   33.1390   44.8660 C   0  0  0  0  0  0  0  0  0  0  0  0
   58.1470   33.5400   45.9060 C   0  0  0  0  0  0  0  0  0  0  0  0
   59.0810   34.5520   45.6290 C   0  0  0  0  0  0  0  0  0  0  0  0
   60.0000   34.9480   46.6040 C   0  0  0  0  0  0  0  0  0  0  0  0
   59.9880   34.3450   47.8650 C   0  0  0  0  0  0  0  0  0  0  0  0
   59.0550   33.3450   48.1520 C   0  0  0  0  0  0  0  0  0  0  0  0
   58.1350   32.9440   47.1780 C   0  0  0  0  0  0  0  0  0  0  0  0
   57.6720   29.5690   44.6330 N   0  0  0  0  0  0  0  0  0  0  0  0
   58.6020   28.9320   48.1890 C   0  0  0  0  0  0  0  0  0  0  0  0
   59.5840   29.8600   48.5490 C   0  0  0  0  0  0  0  0  0  0  0  0
   62.3110   31.0560   49.3500 C   0  0  0  0  0  0  0  0  0  0  0  0
   63.2860   31.9890   49.6770 C   0  0  0  0  0  0  0  0  0  0  0  0
   63.6640   32.9410   48.7340 C   0  0  0  0  0  0  0  0  0  0  0  0
   64.5450   33.7930   49.0340 O   0  0  0  0  0  0  0  0  0  0  0  0
   63.7995   34.8663   47.0287 H   0  0  0  0  0  0  0  0  0  0  0  0
   64.2711   33.5695   45.8787 H   0  0  0  0  0  0  0  0  0  0  0  0
   62.5899   34.2022   45.8787 H   0  0  0  0  0  0  0  0  0  0  0  0
   61.6660   32.0860   46.2540 H   0  0  0  0  0  0  0  0  0  0  0  0
   61.6273   29.5768   45.8245 H   0  0  0  0  0  0  0  0  0  0  0  0
   59.8821   27.9220   45.1832 H   0  0  0  0  0  0  0  0  0  0  0  0
   57.4360   26.5220   47.3220 H   0  0  0  0  0  0  0  0  0  0  0  0
   57.4451   26.7585   44.6166 H   0  0  0  0  0  0  0  0  0  0  0  0
   55.9155   26.8385   45.5730 H   0  0  0  0  0  0  0  0  0  0  0  0
   58.7292   31.8942   44.1195 H   0  0  0  0  0  0  0  0  0  0  0  0
   57.3969   32.2262   42.9375 H   0  0  0  0  0  0  0  0  0  0  0  0
   56.9118   34.0082   44.2284 H   0  0  0  0  0  0  0  0  0  0  0  0
   56.2260   32.7932   45.3870 H   0  0  0  0  0  0  0  0  0  0  0  0
   59.0889   35.0346   44.6405 H   0  0  0  0  0  0  0  0  0  0  0  0
   60.7342   35.7356   46.3789 H   0  0  0  0  0  0  0  0  0  0  0  0
   60.7127   34.6575   48.6312 H   0  0  0  0  0  0  0  0  0  0  0  0
   59.0442   32.8726   49.1453 H   0  0  0  0  0  0  0  0  0  0  0  0
   57.3995   32.1593   47.4087 H   0  0  0  0  0  0  0  0  0  0  0  0
   57.7489   28.7532   48.8600 H   0  0  0  0  0  0  0  0  0  0  0  0
   59.4974   30.4042   49.5010 H   0  0  0  0  0  0  0  0  0  0  0  0
   62.0033   30.2959   50.0832 H   0  0  0  0  0  0  0  0  0  0  0  0
   63.7553   31.9761   50.6718 H   0  0  0  0  0  0  0  0  0  0  0  0
  1  2  1  0
  2  3  1  0
  3  4  2  0
  4  5  1  0
  5  6  2  0
  6  7  1  0
  7  8  2  0
  8  9  1  0
  9 10  1  0
 10 11  1  0
 11 12  2  0
 12 13  1  0
 13 14  1  0
 14 15  1  0
 15 16  1  0
 16 17  1  0
 17 18  2  0
 18 19  1  0
 19 20  2  0
 20 21  1  0
 21 22  2  0
 14 23  2  0
  8 24  1  0
 24 25  2  0
  4 26  1  0
 26 27  2  0
 27 28  1  0
 28 29  2  0
 28  2  1  0
 25  5  1  0
 23 11  1  0
 22 17  1  0
  1 30  1  0
  1 31  1  0
  1 32  1  0
  3 33  1  0
  6 34  1  0
  7 35  1  0
  9 36  1  0
 10 37  1  0
 10 38  1  0
 15 39  1  0
 15 40  1  0
 16 41  1  0
 16 42  1  0
 18 43  1  0
 19 44  1  0
 20 45  1  0
 21 46  1  0
 22 47  1  0
 24 48  1  0
 25 49  1  0
 26 50  1  0
 27 51  1  0
M  CHG  2   3   1  13  -1
M  END
>  <UniqueID>  (82) 
70

>  <SMILES>  (82) 
Cn1[nH+]c(-c2ccc(NCc3n[n-]c(CCc4ccccc4)n3)cc2)ccc1=O

>  <Energy>  (82) 
87.9968465350368

>  <Genealogy>  (82) 
Cn1[nH+]c(-c2ccc(NCc3n[n-]c(CCc4ccccc4)n3)cc2)ccc1=O (protonated)
Cn1[nH+]c(-c2ccc(NCc3n[n-]c(CCc4ccccc4)n3)cc2)ccc1=O (3D coordinates assigned)
Cn1[nH+]c(-c2ccc(NCc3n[n-]c(CCc4ccccc4)n3)cc2)ccc1=O (optimized conformer: 87.9968465350368 kcal/mol)

>  <smiles>  (82) 
Cn1nc(-c2ccc(NCc3n[nH]c(CCc4ccccc4)n3)cc2)ccc1=O

>  <score_type>  (82) 
oracle

>  <origin>  (82) 
adg

>  <m_score__min__energy>  (82) 
-9.3200000000000003

>  <m_primary>  (82) 
energy

$$$$
82:0
     RDKit          3D

 46 48  0  0  0  0  0  0  0  0999 V2000
   57.3800   22.4430   47.4490 N   0  0  0  0  0  0  0  0  0  0  0  0
   57.9310   23.0760   45.9390 S   0  0  0  0  0  0  0  0  0  0  0  0
   59.2580   22.4630   45.5900 O   0  0  0  0  0  0  0  0  0  0  0  0
   56.9420   22.7340   44.8600 O   0  0  0  0  0  0  0  0  0  0  0  0
   58.0940   24.8240   46.0640 C   0  0  0  0  0  0  0  0  0  0  0  0
   59.3260   25.3940   46.4110 C   0  0  0  0  0  0  0  0  0  0  0  0
   59.4540   26.7810   46.5100 C   0  0  0  0  0  0  0  0  0  0  0  0
   58.3590   27.6080   46.2480 C   0  0  0  0  0  0  0  0  0  0  0  0
   57.1250   27.0490   45.8670 C   0  0  0  0  0  0  0  0  0  0  0  0
   55.9700   27.8600   45.6080 N   0  0  0  0  0  0  0  0  0  0  0  0
   55.9040   28.9970   44.7380 C   0  0  0  0  0  0  0  0  0  0  0  0
   54.8150   29.3430   44.2060 O   0  0  0  0  0  0  0  0  0  0  0  0
   57.1400   29.7910   44.4760 C   0  0  0  0  0  0  0  0  0  0  0  0
   56.9250   31.1680   44.9050 N   0  0  0  0  0  0  0  0  0  0  0  0
   57.6800   32.2960   44.4450 C   0  0  0  0  0  0  0  0  0  0  0  0
   57.7770   32.4930   43.2050 O   0  0  0  0  0  0  0  0  0  0  0  0
   58.3750   33.2110   45.3720 C   0  0  0  0  0  0  0  0  0  0  0  0
   58.9790   34.3770   44.8800 C   0  0  0  0  0  0  0  0  0  0  0  0
   59.6280   35.2550   45.7510 C   0  0  0  0  0  0  0  0  0  0  0  0
   59.6680   34.9820   47.1200 C   0  0  0  0  0  0  0  0  0  0  0  0
   59.0540   33.8340   47.6320 C   0  0  0  0  0  0  0  0  0  0  0  0
   59.1100   33.5970   49.0460 N   0  0  0  0  0  0  0  0  0  0  0  0
   60.4710   32.9380   49.8920 S   0  0  0  0  0  0  0  0  0  0  0  0
   60.1730   31.5320   50.3320 O   0  0  0  0  0  0  0  0  0  0  0  0
   60.7810   33.7970   51.0850 O   0  0  0  0  0  0  0  0  0  0  0  0
   61.8550   32.9200   48.8180 C   0  0  0  0  0  0  0  0  0  0  0  0
   62.7730   33.9480   48.6650 C   0  0  0  0  0  0  0  0  0  0  0  0
   63.7670   33.6550   47.7240 C   0  0  0  0  0  0  0  0  0  0  0  0
   63.6280   32.4020   47.1380 C   0  0  0  0  0  0  0  0  0  0  0  0
   62.2670   31.6570   47.7900 S   0  0  0  0  0  0  0  0  0  0  0  0
   58.3950   32.9540   46.7530 C   0  0  0  0  0  0  0  0  0  0  0  0
   56.9980   25.6560   45.7940 C   0  0  0  0  0  0  0  0  0  0  0  0
   57.7640   23.0640   48.1970 H   0  0  0  0  0  0  0  0  0  0  0  0
   60.1943   24.7475   46.6059 H   0  0  0  0  0  0  0  0  0  0  0  0
   60.4198   27.2237   46.7951 H   0  0  0  0  0  0  0  0  0  0  0  0
   58.4617   28.6993   46.3398 H   0  0  0  0  0  0  0  0  0  0  0  0
   57.9813   29.3580   45.0369 H   0  0  0  0  0  0  0  0  0  0  0  0
   57.3714   29.7707   43.4008 H   0  0  0  0  0  0  0  0  0  0  0  0
   58.9415   34.6011   43.8037 H   0  0  0  0  0  0  0  0  0  0  0  0
   60.1085   36.1631   45.3580 H   0  0  0  0  0  0  0  0  0  0  0  0
   60.1857   35.6742   47.8002 H   0  0  0  0  0  0  0  0  0  0  0  0
   62.7251   34.8941   49.2242 H   0  0  0  0  0  0  0  0  0  0  0  0
   64.5812   34.3504   47.4720 H   0  0  0  0  0  0  0  0  0  0  0  0
   64.2948   31.9705   46.3769 H   0  0  0  0  0  0  0  0  0  0  0  0
   57.8926   32.0595   47.1499 H   0  0  0  0  0  0  0  0  0  0  0  0
   56.0296   25.2106   45.5224 H   0  0  0  0  0  0  0  0  0  0  0  0
  1  2  1  0
  2  3  2  0
  2  4  2  0
  2  5  1  0
  5  6  2  0
  6  7  1  0
  7  8  2  0
  8  9  1  0
  9 10  1  0
 10 11  1  0
 11 12  2  0
 11 13  1  0
 13 14  1  0
 14 15  1  0
 15 16  2  0
 15 17  1  0
 17 18  2  0
 18 19  1  0
 19 20  2  0
 20 21  1  0
 21 22  1  0
 22 23  1  0
 23 24  2  0
 23 25  2  0
 23 26  1  0
 26 27  2  0
 27 28  1  0
 28 29  2  0
 29 30  1  0
 21 31  2  0
  9 32  2  0
 32  5  1  0
 31 17  1  0
 30 26  1  0
  1 33  1  0
  6 34  1  0
  7 35  1  0
  8 36  1  0
 13 37  1  0
 13 38  1  0
 18 39  1  0
 19 40  1  0
 20 41  1  0
 27 42  1  0
 28 43  1  0
 29 44  1  0
 31 45  1  0
 32 46  1  0
M  CHG  4   1  -1  10  -1  14  -1  22  -1
M  END
>  <UniqueID>  (83) 
71

>  <SMILES>  (83) 
[NH-]S(=O)(=O)c1cccc([N-]C(=O)C[N-]C(=O)c2cccc([N-]S(=O)(=O)c3cccs3)c2)c1

>  <Energy>  (83) 
83.96591190657571

>  <Genealogy>  (83) 
[NH-]S(=O)(=O)c1cccc([N-]C(=O)C[N-]C(=O)c2cccc([N-]S(=O)(=O)c3cccs3)c2)c1 (protonated)
[NH-]S(=O)(=O)c1cccc([N-]C(=O)C[N-]C(=O)c2cccc([N-]S(=O)(=O)c3cccs3)c2)c1 (3D coordinates assigned)
[NH-]S(=O)(=O)c1cccc([N-]C(=O)C[N-]C(=O)c2cccc([N-]S(=O)(=O)c3cccs3)c2)c1 (optimized conformer: 83.96591190657571 kcal/mol)

>  <smiles>  (83) 
NS(=O)(=O)c1cccc(NC(=O)CNC(=O)c2cccc(NS(=O)(=O)c3cccs3)c2)c1

>  <score_type>  (83) 
oracle

>  <origin>  (83) 
adg

>  <m_score__min__energy>  (83) 
-15.949999999999999

>  <m_primary>  (83) 
energy

$$$$
83:0
     RDKit          3D

 44 45  0  0  0  0  0  0  0  0999 V2000
   61.9560   31.5870   47.3390 C   0  0  0  0  0  0  0  0  0  0  0  0
   61.6650   33.0360   47.4870 N   0  0  0  0  0  0  0  0  0  0  0  0
   62.6940   33.8360   46.7750 C   0  0  0  0  0  0  0  0  0  0  0  0
   61.8040   33.3540   48.9360 C   0  0  0  0  0  0  0  0  0  0  0  0
   60.3150   33.3460   46.9510 C   0  0  0  0  0  0  0  0  0  0  0  0
   60.1250   34.2920   45.9010 C   0  0  0  0  0  0  0  0  0  0  0  0
   58.8600   34.5780   45.3900 C   0  0  0  0  0  0  0  0  0  0  0  0
   57.7390   33.9410   45.8980 C   0  0  0  0  0  0  0  0  0  0  0  0
   57.8730   33.0130   46.9230 C   0  0  0  0  0  0  0  0  0  0  0  0
   59.1390   32.6980   47.4590 C   0  0  0  0  0  0  0  0  0  0  0  0
   59.2520   31.7600   48.5010 O   0  0  0  0  0  0  0  0  0  0  0  0
   58.9730   30.3620   48.4210 C   0  0  0  0  0  0  0  0  0  0  0  0
   59.3360   29.8190   47.0350 C   0  0  0  0  0  0  0  0  0  0  0  0
   58.1430   29.1060   46.3920 C   0  0  0  0  0  0  0  0  0  0  0  0
   57.7670   29.7710   45.0950 C   0  0  0  0  0  0  0  0  0  0  0  0
   58.5310   30.8410   44.5990 C   0  0  0  0  0  0  0  0  0  0  0  0
   58.1600   31.4800   43.4120 C   0  0  0  0  0  0  0  0  0  0  0  0
   57.0200   31.0640   42.7190 C   0  0  0  0  0  0  0  0  0  0  0  0
   56.2470   30.0090   43.2140 C   0  0  0  0  0  0  0  0  0  0  0  0
   56.6140   29.3680   44.4000 C   0  0  0  0  0  0  0  0  0  0  0  0
   62.0482   31.1280   48.3344 H   0  0  0  0  0  0  0  0  0  0  0  0
   61.1371   31.1031   46.7865 H   0  0  0  0  0  0  0  0  0  0  0  0
   62.8982   31.4568   46.7865 H   0  0  0  0  0  0  0  0  0  0  0  0
   63.3406   34.3387   47.5094 H   0  0  0  0  0  0  0  0  0  0  0  0
   63.3031   33.1719   46.1441 H   0  0  0  0  0  0  0  0  0  0  0  0
   62.2005   34.5900   46.1441 H   0  0  0  0  0  0  0  0  0  0  0  0
   61.4343   32.5081   49.5341 H   0  0  0  0  0  0  0  0  0  0  0  0
   62.8631   33.5346   49.1718 H   0  0  0  0  0  0  0  0  0  0  0  0
   61.2172   34.2540   49.1718 H   0  0  0  0  0  0  0  0  0  0  0  0
   61.0006   34.8102   45.4829 H   0  0  0  0  0  0  0  0  0  0  0  0
   58.7510   35.3133   44.5791 H   0  0  0  0  0  0  0  0  0  0  0  0
   56.7436   34.1701   45.4898 H   0  0  0  0  0  0  0  0  0  0  0  0
   56.9771   32.5157   47.3231 H   0  0  0  0  0  0  0  0  0  0  0  0
   59.5626   29.8313   49.1831 H   0  0  0  0  0  0  0  0  0  0  0  0
   57.8982   30.2040   48.5939 H   0  0  0  0  0  0  0  0  0  0  0  0
   59.6442   30.6557   46.3908 H   0  0  0  0  0  0  0  0  0  0  0  0
   60.1564   29.0949   47.1475 H   0  0  0  0  0  0  0  0  0  0  0  0
   58.4107   28.0571   46.1966 H   0  0  0  0  0  0  0  0  0  0  0  0
   57.2857   29.1572   47.0793 H   0  0  0  0  0  0  0  0  0  0  0  0
   59.4240   31.1770   45.1464 H   0  0  0  0  0  0  0  0  0  0  0  0
   58.7663   32.3113   43.0231 H   0  0  0  0  0  0  0  0  0  0  0  0
   56.7307   31.5664   41.7842 H   0  0  0  0  0  0  0  0  0  0  0  0
   55.3488   29.6833   42.6689 H   0  0  0  0  0  0  0  0  0  0  0  0
   55.9981   28.5448   44.7912 H   0  0  0  0  0  0  0  0  0  0  0  0
  1  2  1  0
  2  3  1  0
  2  4  1  0
  2  5  1  0
  5  6  2  0
  6  7  1  0
  7  8  2  0
  8  9  1  0
  9 10  2  0
 10 11  1  0
 11 12  1  0
 12 13  1  0
 13 14  1  0
 14 15  1  0
 15 16  2  0
 16 17  1  0
 17 18  2  0
 18 19  1  0
 19 20  2  0
 10  5  1  0
 20 15  1  0
  1 21  1  0
  1 22  1  0
  1 23  1  0
  3 24  1  0
  3 25  1  0
  3 26  1  0
  4 27  1  0
  4 28  1  0
  4 29  1  0
  6 30  1  0
  7 31  1  0
  8 32  1  0
  9 33  1  0
 12 34  1  0
 12 35  1  0
 13 36  1  0
 13 37  1  0
 14 38  1  0
 14 39  1  0
 16 40  1  0
 17 41  1  0
 18 42  1  0
 19 43  1  0
 20 44  1  0
M  CHG  1   2   1
M  END
>  <UniqueID>  (84) 
72

>  <SMILES>  (84) 
C[N+](C)(C)c1ccccc1OCCCc1ccccc1

>  <Energy>  (84) 
57.08107937162946

>  <Genealogy>  (84) 
C[N+](C)(C)c1ccccc1OCCCc1ccccc1 (3D coordinates assigned)
C[N+](C)(C)c1ccccc1OCCCc1ccccc1 (optimized conformer: 57.08107937162946 kcal/mol)

>  <smiles>  (84) 
C[N+](C)(C)c1ccccc1OCCCc1ccccc1

>  <score_type>  (84) 
oracle

>  <origin>  (84) 
adg

>  <m_score__min__energy>  (84) 
-4.8200000000000003

>  <m_primary>  (84) 
energy

$$$$
84:0
     RDKit          3D

 68 73  0  0  0  0  0  0  0  0999 V2000
   58.4470   32.6790   49.3260 C   0  0  0  0  0  0  0  0  0  0  0  0
   58.9290   31.4080   48.6630 C   0  0  0  0  0  0  0  0  0  0  0  0
   59.0810   30.2150   49.4190 C   0  0  0  0  0  0  0  0  0  0  0  0
   58.6930   30.1480   50.8450 C   0  0  0  0  0  0  0  0  0  0  0  0
   57.4300   29.7930   51.2100 N   0  0  0  0  0  0  0  0  0  0  0  0
   57.2490   29.8270   52.5500 C   0  0  0  0  0  0  0  0  0  0  0  0
   55.9700   29.5860   53.1760 N   0  0  0  0  0  0  0  0  0  0  0  0
   54.8540   29.0170   52.4130 C   0  0  0  0  0  0  0  0  0  0  0  0
   53.8440   30.1130   52.0550 C   0  0  0  0  0  0  0  0  0  0  0  0
   52.8360   30.3620   53.1920 C   0  0  0  0  0  0  0  0  0  0  0  0
   53.4620   30.5100   54.5940 C   0  0  0  0  0  0  0  0  0  0  0  0
   54.4190   29.3960   55.0710 C   0  0  0  0  0  0  0  0  0  0  0  0
   55.8820   29.5700   54.6410 C   0  0  0  0  0  0  0  0  0  0  0  0
   58.6570   30.3120   53.3430 S   0  0  0  0  0  0  0  0  0  0  0  0
   59.5390   30.4570   51.9130 C   0  0  0  0  0  0  0  0  0  0  0  0
   60.8630   31.0050   51.7980 N   0  0  0  0  0  0  0  0  0  0  0  0
   61.1260   32.3390   51.3410 C   0  0  0  0  0  0  0  0  0  0  0  0
   60.2420   33.2310   51.4550 O   0  0  0  0  0  0  0  0  0  0  0  0
   62.4380   32.7090   50.7740 C   0  0  0  0  0  0  0  0  0  0  0  0
   62.7040   33.7720   49.9090 C   0  0  0  0  0  0  0  0  0  0  0  0
   64.0210   33.7970   49.5880 N   0  0  0  0  0  0  0  0  0  0  0  0
   64.5850   32.7810   50.2170 N   0  0  0  0  0  0  0  0  0  0  0  0
   65.8900   32.4190   50.1770 C   0  0  0  0  0  0  0  0  0  0  0  0
   66.2800   31.2910   50.9110 C   0  0  0  0  0  0  0  0  0  0  0  0
   65.3040   30.5910   51.6490 C   0  0  0  0  0  0  0  0  0  0  0  0
   64.0050   31.0080   51.6460 N   0  0  0  0  0  0  0  0  0  0  0  0
   63.6710   32.1090   50.9290 C   0  0  0  0  0  0  0  0  0  0  0  0
   59.5640   29.0550   48.7950 C   0  0  0  0  0  0  0  0  0  0  0  0
   59.8840   29.0600   47.4380 C   0  0  0  0  0  0  0  0  0  0  0  0
   59.7110   30.2180   46.6830 C   0  0  0  0  0  0  0  0  0  0  0  0
   59.2250   31.3870   47.2760 C   0  0  0  0  0  0  0  0  0  0  0  0
   59.0270   32.5410   46.4450 N   0  0  0  0  0  0  0  0  0  0  0  0
   60.0770   33.5600   46.3570 C   0  0  0  0  0  0  0  0  0  0  0  0
   59.4670   34.9120   45.9760 C   0  0  0  0  0  0  0  0  0  0  0  0
   58.6390   34.7800   44.8370 O   0  0  0  0  0  0  0  0  0  0  0  0
   57.5060   33.9990   45.1660 C   0  0  0  0  0  0  0  0  0  0  0  0
   57.9100   32.5570   45.4960 C   0  0  0  0  0  0  0  0  0  0  0  0
   58.4914   32.5620   50.4189 H   0  0  0  0  0  0  0  0  0  0  0  0
   59.0893   33.5182   49.0207 H   0  0  0  0  0  0  0  0  0  0  0  0
   57.4098   32.8812   49.0207 H   0  0  0  0  0  0  0  0  0  0  0  0
   55.2401   28.5628   51.4886 H   0  0  0  0  0  0  0  0  0  0  0  0
   54.3527   28.2534   53.0258 H   0  0  0  0  0  0  0  0  0  0  0  0
   54.3896   31.0466   51.8533 H   0  0  0  0  0  0  0  0  0  0  0  0
   53.2822   29.7812   51.1694 H   0  0  0  0  0  0  0  0  0  0  0  0
   52.2855   31.2867   52.9642 H   0  0  0  0  0  0  0  0  0  0  0  0
   52.1921   29.4711   53.2341 H   0  0  0  0  0  0  0  0  0  0  0  0
   54.0254   31.4547   54.6048 H   0  0  0  0  0  0  0  0  0  0  0  0
   52.6093   30.4613   55.2872 H   0  0  0  0  0  0  0  0  0  0  0  0
   54.3875   29.3665   56.1702 H   0  0  0  0  0  0  0  0  0  0  0  0
   54.0682   28.4663   54.5991 H   0  0  0  0  0  0  0  0  0  0  0  0
   56.2700   30.5185   55.0407 H   0  0  0  0  0  0  0  0  0  0  0  0
   56.4780   28.7322   55.0320 H   0  0  0  0  0  0  0  0  0  0  0  0
   61.6690   30.3770   52.0070 H   0  0  0  0  0  0  0  0  0  0  0  0
   61.9531   34.4865   49.5408 H   0  0  0  0  0  0  0  0  0  0  0  0
   66.6201   32.9924   49.5870 H   0  0  0  0  0  0  0  0  0  0  0  0
   67.3283   30.9578   50.9114 H   0  0  0  0  0  0  0  0  0  0  0  0
   65.5916   29.7030   52.2310 H   0  0  0  0  0  0  0  0  0  0  0  0
   59.6914   28.1333   49.3816 H   0  0  0  0  0  0  0  0  0  0  0  0
   60.2738   28.1479   46.9626 H   0  0  0  0  0  0  0  0  0  0  0  0
   59.9589   30.2125   45.6113 H   0  0  0  0  0  0  0  0  0  0  0  0
   60.5800   33.6493   47.3312 H   0  0  0  0  0  0  0  0  0  0  0  0
   60.8037   33.2628   45.5866 H   0  0  0  0  0  0  0  0  0  0  0  0
   58.8670   35.2882   46.8177 H   0  0  0  0  0  0  0  0  0  0  0  0
   60.2800   35.6158   45.7444 H   0  0  0  0  0  0  0  0  0  0  0  0
   57.0055   34.4414   46.0400 H   0  0  0  0  0  0  0  0  0  0  0  0
   56.8274   33.9836   44.3004 H   0  0  0  0  0  0  0  0  0  0  0  0
   57.0506   32.0328   45.9396 H   0  0  0  0  0  0  0  0  0  0  0  0
   58.2236   32.0545   44.5691 H   0  0  0  0  0  0  0  0  0  0  0  0
  1  2  1  0
  2  3  2  0
  3  4  1  0
  4  5  1  0
  5  6  2  0
  6  7  1  0
  7  8  1  0
  8  9  1  0
  9 10  1  0
 10 11  1  0
 11 12  1  0
 12 13  1  0
  6 14  1  0
 14 15  1  0
 15 16  1  0
 16 17  1  0
 17 18  2  0
 17 19  1  0
 19 20  1  0
 20 21  2  0
 21 22  1  0
 22 23  1  0
 23 24  2  0
 24 25  1  0
 25 26  2  0
 26 27  1  0
  3 28  1  0
 28 29  2  0
 29 30  1  0
 30 31  2  0
 31 32  1  0
 32 33  1  0
 33 34  1  0
 34 35  1  0
 35 36  1  0
 36 37  1  0
 31  2  1  0
 37 32  1  0
 15  4  2  0
 27 19  2  0
 13  7  1  0
 27 22  1  0
  1 38  1  0
  1 39  1  0
  1 40  1  0
  8 41  1  0
  8 42  1  0
  9 43  1  0
  9 44  1  0
 10 45  1  0
 10 46  1  0
 11 47  1  0
 11 48  1  0
 12 49  1  0
 12 50  1  0
 13 51  1  0
 13 52  1  0
 16 53  1  0
 20 54  1  0
 23 55  1  0
 24 56  1  0
 25 57  1  0
 28 58  1  0
 29 59  1  0
 30 60  1  0
 33 61  1  0
 33 62  1  0
 34 63  1  0
 34 64  1  0
 36 65  1  0
 36 66  1  0
 37 67  1  0
 37 68  1  0
M  END
>  <UniqueID>  (85) 
73

>  <SMILES>  (85) 
Cc1c(-c2nc(N3CCCCCC3)sc2NC(=O)c2cnn3cccnc23)cccc1N1CCOCC1

>  <Energy>  (85) 
160.0541494687425

>  <Genealogy>  (85) 
Cc1c(-c2nc(N3CCCCCC3)sc2NC(=O)c2cnn3cccnc23)cccc1N1CCOCC1 (3D coordinates assigned)
Cc1c(-c2nc(N3CCCCCC3)sc2NC(=O)c2cnn3cccnc23)cccc1N1CCOCC1 (nonaromatic ring conformer: 160.0541494687425 kcal/mol)

>  <smiles>  (85) 
Cc1c(-c2nc(N3CCCCCC3)sc2NC(=O)c2cnn3cccnc23)cccc1N1CCOCC1

>  <score_type>  (85) 
oracle

>  <origin>  (85) 
adg

>  <m_score__min__energy>  (85) 
-7.0300000000000002

>  <m_primary>  (85) 
energy

$$$$
85:0
     RDKit          3D

 37 38  0  0  0  0  0  0  0  0999 V2000
   55.8940   30.2020   44.8120 O   0  0  0  0  0  0  0  0  0  0  0  0
   56.9060   29.9180   44.1170 C   0  0  0  0  0  0  0  0  0  0  0  0
   57.0190   28.5970   43.5730 N   0  0  0  0  0  0  0  0  0  0  0  0
   58.1960   27.7390   43.6800 C   0  0  0  0  0  0  0  0  0  0  0  0
   57.9290   26.5430   44.5960 C   0  0  0  0  0  0  0  0  0  0  0  0
   57.0120   27.0700   46.0880 S   0  0  0  0  0  0  0  0  0  0  0  0
   58.4420   27.0140   47.2250 C   0  0  0  0  0  0  0  0  0  0  0  0
   59.2340   28.2930   47.1590 C   0  0  0  0  0  0  0  0  0  0  0  0
   60.0490   28.5630   46.0470 C   0  0  0  0  0  0  0  0  0  0  0  0
   60.7990   29.7410   45.9920 C   0  0  0  0  0  0  0  0  0  0  0  0
   60.7450   30.6570   47.0450 C   0  0  0  0  0  0  0  0  0  0  0  0
   59.9390   30.3960   48.1570 C   0  0  0  0  0  0  0  0  0  0  0  0
   59.1860   29.2190   48.2190 C   0  0  0  0  0  0  0  0  0  0  0  0
   58.4130   28.9810   49.3090 F   0  0  0  0  0  0  0  0  0  0  0  0
   57.9020   30.9190   43.8500 N   0  0  0  0  0  0  0  0  0  0  0  0
   58.1020   32.0850   44.6680 C   0  0  0  0  0  0  0  0  0  0  0  0
   57.8660   32.0060   46.0500 C   0  0  0  0  0  0  0  0  0  0  0  0
   58.0290   33.1330   46.8620 C   0  0  0  0  0  0  0  0  0  0  0  0
   58.4150   34.3520   46.2980 C   0  0  0  0  0  0  0  0  0  0  0  0
   58.6300   34.4470   44.9210 C   0  0  0  0  0  0  0  0  0  0  0  0
   58.4690   33.3220   44.1060 C   0  0  0  0  0  0  0  0  0  0  0  0
   58.4637   27.3709   42.6786 H   0  0  0  0  0  0  0  0  0  0  0  0
   59.0188   28.3293   44.1097 H   0  0  0  0  0  0  0  0  0  0  0  0
   57.3341   25.7954   44.0509 H   0  0  0  0  0  0  0  0  0  0  0  0
   58.8918   26.1100   44.9050 H   0  0  0  0  0  0  0  0  0  0  0  0
   58.0787   26.8684   48.2530 H   0  0  0  0  0  0  0  0  0  0  0  0
   59.0954   26.1812   46.9257 H   0  0  0  0  0  0  0  0  0  0  0  0
   60.0970   27.8440   45.2159 H   0  0  0  0  0  0  0  0  0  0  0  0
   61.4333   29.9473   45.1173 H   0  0  0  0  0  0  0  0  0  0  0  0
   61.3364   31.5834   46.9993 H   0  0  0  0  0  0  0  0  0  0  0  0
   59.8969   31.1183   48.9855 H   0  0  0  0  0  0  0  0  0  0  0  0
   58.4650   30.8370   42.9740 H   0  0  0  0  0  0  0  0  0  0  0  0
   57.5509   31.0515   46.4968 H   0  0  0  0  0  0  0  0  0  0  0  0
   57.8532   33.0599   47.9454 H   0  0  0  0  0  0  0  0  0  0  0  0
   58.5495   35.2364   46.9382 H   0  0  0  0  0  0  0  0  0  0  0  0
   58.9265   35.4086   44.4768 H   0  0  0  0  0  0  0  0  0  0  0  0
   58.6299   33.4043   43.0209 H   0  0  0  0  0  0  0  0  0  0  0  0
  1  2  2  0
  2  3  1  0
  3  4  1  0
  4  5  1  0
  5  6  1  0
  6  7  1  0
  7  8  1  0
  8  9  2  0
  9 10  1  0
 10 11  2  0
 11 12  1  0
 12 13  2  0
 13 14  1  0
  2 15  1  0
 15 16  1  0
 16 17  2  0
 17 18  1  0
 18 19  2  0
 19 20  1  0
 20 21  2  0
 13  8  1  0
 21 16  1  0
  4 22  1  0
  4 23  1  0
  5 24  1  0
  5 25  1  0
  7 26  1  0
  7 27  1  0
  9 28  1  0
 10 29  1  0
 11 30  1  0
 12 31  1  0
 15 32  1  0
 17 33  1  0
 18 34  1  0
 19 35  1  0
 20 36  1  0
 21 37  1  0
M  CHG  1   3  -1
M  END
>  <UniqueID>  (86) 
74

>  <SMILES>  (86) 
O=C([N-]CCSCc1ccccc1F)Nc1ccccc1

>  <Energy>  (86) 
33.564145142501104

>  <Genealogy>  (86) 
O=C([N-]CCSCc1ccccc1F)Nc1ccccc1 (protonated)
O=C([N-]CCSCc1ccccc1F)Nc1ccccc1 (3D coordinates assigned)
O=C([N-]CCSCc1ccccc1F)Nc1ccccc1 (optimized conformer: 33.564145142501104 kcal/mol)

>  <smiles>  (86) 
O=C(NCCSCc1ccccc1F)Nc1ccccc1

>  <score_type>  (86) 
oracle

>  <origin>  (86) 
adg

>  <m_score__min__energy>  (86) 
-8.8399999999999999

>  <m_primary>  (86) 
energy

$$$$
86:0
     RDKit          3D

 50 52  0  0  0  0  0  0  0  0999 V2000
   51.2950   32.3070   50.3720 N   0  0  0  0  0  0  0  0  0  0  0  0
   51.4390   31.7840   52.0150 S   0  0  0  0  0  0  0  0  0  0  0  0
   51.3960   32.9760   52.9290 O   0  0  0  0  0  0  0  0  0  0  0  0
   50.2890   30.8680   52.3320 O   0  0  0  0  0  0  0  0  0  0  0  0
   52.9630   30.9320   52.2380 C   0  0  0  0  0  0  0  0  0  0  0  0
   52.9710   29.6010   52.6770 C   0  0  0  0  0  0  0  0  0  0  0  0
   54.1830   28.9350   52.8720 C   0  0  0  0  0  0  0  0  0  0  0  0
   55.3930   29.5950   52.6440 C   0  0  0  0  0  0  0  0  0  0  0  0
   55.3970   30.9400   52.2300 C   0  0  0  0  0  0  0  0  0  0  0  0
   56.6180   31.6500   51.9770 N   0  0  0  0  0  0  0  0  0  0  0  0
   57.7460   31.1520   51.2470 C   0  0  0  0  0  0  0  0  0  0  0  0
   57.7270   30.0000   50.7350 O   0  0  0  0  0  0  0  0  0  0  0  0
   58.9820   31.9900   51.1310 C   0  0  0  0  0  0  0  0  0  0  0  0
   58.8870   32.8990   49.9700 N   0  0  0  0  0  0  0  0  0  0  0  0
   60.1390   33.6810   49.7970 C   0  0  0  0  0  0  0  0  0  0  0  0
   60.2680   34.3130   48.3930 C   0  0  0  0  0  0  0  0  0  0  0  0
   58.9020   34.4700   47.7200 C   0  0  0  0  0  0  0  0  0  0  0  0
   58.1520   33.1190   47.6220 C   0  0  1  0  0  0  0  0  0  0  0  0
   58.3450   32.4750   46.2650 C   0  0  0  0  0  0  0  0  0  0  0  0
   59.4810   32.5070   45.7210 O   0  0  0  0  0  0  0  0  0  0  0  0
   57.2970   31.7340   45.6270 N   0  0  0  0  0  0  0  0  0  0  0  0
   57.4230   30.4510   44.9980 C   0  0  0  0  0  0  0  0  0  0  0  0
   56.8170   30.1790   43.7590 C   0  0  0  0  0  0  0  0  0  0  0  0
   56.9860   28.9310   43.1530 C   0  0  0  0  0  0  0  0  0  0  0  0
   57.7750   27.9530   43.7660 C   0  0  0  0  0  0  0  0  0  0  0  0
   57.9330   26.7450   43.1690 F   0  0  0  0  0  0  0  0  0  0  0  0
   58.4050   28.2280   44.9860 C   0  0  0  0  0  0  0  0  0  0  0  0
   59.4110   27.0140   45.7590 Cl  0  0  0  0  0  0  0  0  0  0  0  0
   58.2360   29.4790   45.5920 C   0  0  0  0  0  0  0  0  0  0  0  0
   58.5700   32.1430   48.7440 C   0  0  0  0  0  0  0  0  0  0  0  0
   54.1780   31.5950   52.0130 C   0  0  0  0  0  0  0  0  0  0  0  0
   50.2810   32.2520   50.1250 H   0  0  0  0  0  0  0  0  0  0  0  0
   52.0212   29.0801   52.8683 H   0  0  0  0  0  0  0  0  0  0  0  0
   54.1849   27.8870   53.2063 H   0  0  0  0  0  0  0  0  0  0  0  0
   56.3445   29.0623   52.7884 H   0  0  0  0  0  0  0  0  0  0  0  0
   59.1021   32.5859   52.0478 H   0  0  0  0  0  0  0  0  0  0  0  0
   59.8484   31.3267   50.9920 H   0  0  0  0  0  0  0  0  0  0  0  0
   60.1557   34.4860   50.5465 H   0  0  0  0  0  0  0  0  0  0  0  0
   60.9813   32.9848   49.9227 H   0  0  0  0  0  0  0  0  0  0  0  0
   60.7351   35.3043   48.4889 H   0  0  0  0  0  0  0  0  0  0  0  0
   60.8846   33.6477   47.7707 H   0  0  0  0  0  0  0  0  0  0  0  0
   58.2939   35.1733   48.3079 H   0  0  0  0  0  0  0  0  0  0  0  0
   59.0644   34.8463   46.6992 H   0  0  0  0  0  0  0  0  0  0  0  0
   57.0827   33.3426   47.7510 H   0  0  0  0  0  0  0  0  0  0  0  0
   56.2081   30.9506   43.2651 H   0  0  0  0  0  0  0  0  0  0  0  0
   56.4969   28.7176   42.1911 H   0  0  0  0  0  0  0  0  0  0  0  0
   58.7458   29.6993   46.5415 H   0  0  0  0  0  0  0  0  0  0  0  0
   57.7441   31.4456   48.9481 H   0  0  0  0  0  0  0  0  0  0  0  0
   59.4592   31.5802   48.4237 H   0  0  0  0  0  0  0  0  0  0  0  0
   54.1738   32.6379   51.6633 H   0  0  0  0  0  0  0  0  0  0  0  0
  1  2  1  0
  2  3  2  0
  2  4  2  0
  2  5  1  0
  5  6  2  0
  6  7  1  0
  7  8  2  0
  8  9  1  0
  9 10  1  0
 10 11  1  0
 11 12  2  0
 11 13  1  0
 13 14  1  0
 14 15  1  0
 15 16  1  0
 16 17  1  0
 17 18  1  0
 18 19  1  0
 19 20  2  0
 19 21  1  0
 21 22  1  0
 22 23  2  0
 23 24  1  0
 24 25  2  0
 25 26  1  0
 25 27  1  0
 27 28  1  0
 27 29  2  0
 18 30  1  0
  9 31  2  0
 31  5  1  0
 30 14  1  0
 29 22  1  0
  1 32  1  0
  6 33  1  0
  7 34  1  0
  8 35  1  0
 13 36  1  0
 13 37  1  0
 15 38  1  0
 15 39  1  0
 16 40  1  0
 16 41  1  0
 17 42  1  0
 17 43  1  0
 18 44  1  1
 23 45  1  0
 24 46  1  0
 29 47  1  0
 30 48  1  0
 30 49  1  0
 31 50  1  0
M  CHG  3   1  -1  10  -1  21  -1
M  END
>  <UniqueID>  (87) 
75

>  <SMILES>  (87) 
[NH-]S(=O)(=O)c1cccc([N-]C(=O)CN2CCC[C@@H](C(=O)[N-]c3ccc(F)c(Cl)c3)C2)c1

>  <Energy>  (87) 
65.25845411298306

>  <Genealogy>  (87) 
[NH-]S(=O)(=O)c1cccc([N-]C(=O)CN2CCCC(C(=O)[N-]c3ccc(F)c(Cl)c3)C2)c1 (protonated)
[NH-]S(=O)(=O)c1cccc([N-]C(=O)CN2CCC[C@@H](C(=O)[N-]c3ccc(F)c(Cl)c3)C2)c1 (chirality)
[NH-]S(=O)(=O)c1cccc([N-]C(=O)CN2CCC[C@@H](C(=O)[N-]c3ccc(F)c(Cl)c3)C2)c1 (3D coordinates assigned)
[NH-]S(=O)(=O)c1cccc([N-]C(=O)CN2CCC[C@@H](C(=O)[N-]c3ccc(F)c(Cl)c3)C2)c1 (nonaromatic ring conformer: 65.25845411298306 kcal/mol)

>  <smiles>  (87) 
NS(=O)(=O)c1cccc(NC(=O)CN2CCCC(C(=O)Nc3ccc(F)c(Cl)c3)C2)c1

>  <score_type>  (87) 
oracle

>  <origin>  (87) 
adg

>  <m_score__min__energy>  (87) 
-13.92

>  <m_primary>  (87) 
energy

$$$$
87:0
     RDKit          3D

 55 57  0  0  0  0  0  0  0  0999 V2000
   63.0480   32.4790   50.2060 C   0  0  0  0  0  0  0  0  0  0  0  0
   62.2760   31.3510   49.5990 C   0  0  0  0  0  0  0  0  0  0  0  0
   62.2410   31.0850   48.2800 N   0  0  0  0  0  0  0  0  0  0  0  0
   61.4830   30.0450   48.0930 O   0  0  0  0  0  0  0  0  0  0  0  0
   61.0110   29.6060   49.2380 C   0  0  0  0  0  0  0  0  0  0  0  0
   60.1130   28.4200   49.3670 C   0  0  0  0  0  0  0  0  0  0  0  0
   61.4920   30.4150   50.2600 C   0  0  0  0  0  0  0  0  0  0  0  0
   61.2380   30.2960   51.7090 C   0  0  0  0  0  0  0  0  0  0  0  0
   62.0010   30.8670   52.5350 O   0  0  0  0  0  0  0  0  0  0  0  0
   60.1470   29.5490   52.1630 O   0  0  0  0  0  0  0  0  0  0  0  0
   59.0350   30.1360   52.8300 C   0  0  0  0  0  0  0  0  0  0  0  0
   57.7900   29.9230   52.0200 C   0  0  0  0  0  0  0  0  0  0  0  0
   57.0070   28.9860   52.3270 O   0  0  0  0  0  0  0  0  0  0  0  0
   57.4800   30.7410   50.8830 N   0  0  0  0  0  0  0  0  0  0  0  0
   58.3160   31.7620   50.3210 C   0  0  0  0  0  0  0  0  0  0  0  0
   58.8700   32.7780   51.1170 C   0  0  0  0  0  0  0  0  0  0  0  0
   59.6640   33.7710   50.5360 C   0  0  0  0  0  0  0  0  0  0  0  0
   59.9010   33.7640   49.1590 C   0  0  0  0  0  0  0  0  0  0  0  0
   59.3300   32.7700   48.3530 C   0  0  0  0  0  0  0  0  0  0  0  0
   59.6600   32.7300   46.6250 S   0  0  0  0  0  0  0  0  0  0  0  0
   59.3890   34.0860   46.0340 O   0  0  0  0  0  0  0  0  0  0  0  0
   61.1040   32.3910   46.3760 O   0  0  0  0  0  0  0  0  0  0  0  0
   58.6450   31.5450   45.8710 N   0  0  0  0  0  0  0  0  0  0  0  0
   59.0060   30.1650   45.9260 C   0  0  0  0  0  0  0  0  0  0  0  0
   60.1810   29.7220   45.3040 C   0  0  0  0  0  0  0  0  0  0  0  0
   60.5340   28.3700   45.3560 C   0  0  0  0  0  0  0  0  0  0  0  0
   59.7160   27.4580   46.0320 C   0  0  0  0  0  0  0  0  0  0  0  0
   58.5440   27.8970   46.6570 C   0  0  0  0  0  0  0  0  0  0  0  0
   58.1900   29.2490   46.6060 C   0  0  0  0  0  0  0  0  0  0  0  0
   57.3930   32.0440   44.7800 S   0  0  0  0  0  0  0  0  0  0  0  0
   58.0840   32.3060   43.1630 C   0  0  0  0  0  0  0  0  0  0  0  0
   56.3340   30.9790   44.7110 O   0  0  0  0  0  0  0  0  0  0  0  0
   56.7640   33.3190   45.2680 O   0  0  0  0  0  0  0  0  0  0  0  0
   58.5280   31.7790   48.9370 C   0  0  0  0  0  0  0  0  0  0  0  0
   62.9995   32.4082   51.3026 H   0  0  0  0  0  0  0  0  0  0  0  0
   64.0973   32.4220   49.8809 H   0  0  0  0  0  0  0  0  0  0  0  0
   62.6149   33.4365   49.8809 H   0  0  0  0  0  0  0  0  0  0  0  0
   62.7340   31.6070   47.5210 H   0  0  0  0  0  0  0  0  0  0  0  0
   59.9466   28.2002   50.4319 H   0  0  0  0  0  0  0  0  0  0  0  0
   59.1494   28.6352   48.8821 H   0  0  0  0  0  0  0  0  0  0  0  0
   60.5815   27.5509   48.8821 H   0  0  0  0  0  0  0  0  0  0  0  0
   58.9128   29.6685   53.8182 H   0  0  0  0  0  0  0  0  0  0  0  0
   59.2108   31.2151   52.9513 H   0  0  0  0  0  0  0  0  0  0  0  0
   58.6786   32.7923   52.2001 H   0  0  0  0  0  0  0  0  0  0  0  0
   60.1033   34.5598   51.1644 H   0  0  0  0  0  0  0  0  0  0  0  0
   60.5366   34.5397   48.7071 H   0  0  0  0  0  0  0  0  0  0  0  0
   60.8262   30.4384   44.7744 H   0  0  0  0  0  0  0  0  0  0  0  0
   61.4553   28.0232   44.8652 H   0  0  0  0  0  0  0  0  0  0  0  0
   59.9948   26.3947   46.0720 H   0  0  0  0  0  0  0  0  0  0  0  0
   57.9014   27.1794   47.1881 H   0  0  0  0  0  0  0  0  0  0  0  0
   57.2700   29.5947   47.1000 H   0  0  0  0  0  0  0  0  0  0  0  0
   59.1085   32.6944   43.2606 H   0  0  0  0  0  0  0  0  0  0  0  0
   58.1039   31.3530   42.6140 H   0  0  0  0  0  0  0  0  0  0  0  0
   57.4671   33.0326   42.6140 H   0  0  0  0  0  0  0  0  0  0  0  0
   58.0622   31.0097   48.3036 H   0  0  0  0  0  0  0  0  0  0  0  0
  1  2  1  0
  2  3  2  0
  3  4  1  0
  4  5  1  0
  5  6  1  0
  5  7  2  0
  7  8  1  0
  8  9  2  0
  8 10  1  0
 10 11  1  0
 11 12  1  0
 12 13  2  0
 12 14  1  0
 14 15  1  0
 15 16  2  0
 16 17  1  0
 17 18  2  0
 18 19  1  0
 19 20  1  0
 20 21  2  0
 20 22  2  0
 20 23  1  0
 23 24  1  0
 24 25  2  0
 25 26  1  0
 26 27  2  0
 27 28  1  0
 28 29  2  0
 23 30  1  0
 30 31  1  0
 30 32  2  0
 30 33  2  0
 19 34  2  0
  7  2  1  0
 34 15  1  0
 29 24  1  0
  1 35  1  0
  1 36  1  0
  1 37  1  0
  3 38  1  0
  6 39  1  0
  6 40  1  0
  6 41  1  0
 11 42  1  0
 11 43  1  0
 16 44  1  0
 17 45  1  0
 18 46  1  0
 25 47  1  0
 26 48  1  0
 27 49  1  0
 28 50  1  0
 29 51  1  0
 31 52  1  0
 31 53  1  0
 31 54  1  0
 34 55  1  0
M  CHG  2   3   1  14  -1
M  END
>  <UniqueID>  (88) 
76

>  <SMILES>  (88) 
Cc1[nH+]oc(C)c1C(=O)OCC(=O)[N-]c1cccc(S(=O)(=O)N(c2ccccc2)S(C)(=O)=O)c1

>  <Energy>  (88) 
91.31951513919644

>  <Genealogy>  (88) 
Cc1[nH+]oc(C)c1C(=O)OCC(=O)[N-]c1cccc(S(=O)(=O)N(c2ccccc2)S(C)(=O)=O)c1 (protonated)
Cc1[nH+]oc(C)c1C(=O)OCC(=O)[N-]c1cccc(S(=O)(=O)N(c2ccccc2)S(C)(=O)=O)c1 (3D coordinates assigned)
Cc1[nH+]oc(C)c1C(=O)OCC(=O)[N-]c1cccc(S(=O)(=O)N(c2ccccc2)S(C)(=O)=O)c1 (optimized conformer: 91.31951513919644 kcal/mol)

>  <smiles>  (88) 
Cc1noc(C)c1C(=O)OCC(=O)Nc1cccc(S(=O)(=O)N(c2ccccc2)S(C)(=O)=O)c1

>  <score_type>  (88) 
oracle

>  <origin>  (88) 
adg

>  <m_score__min__energy>  (88) 
-12.19

>  <m_primary>  (88) 
energy

$$$$
88:0
     RDKit          3D

 50 52  0  0  0  0  0  0  0  0999 V2000
   53.8200   24.8960   45.6080 C   0  0  0  0  0  0  0  0  0  0  0  0
   54.5750   26.0840   45.8190 O   0  0  0  0  0  0  0  0  0  0  0  0
   55.9660   26.1160   46.0080 C   0  0  0  0  0  0  0  0  0  0  0  0
   56.6890   24.9910   46.4510 C   0  0  0  0  0  0  0  0  0  0  0  0
   58.0740   25.0630   46.6140 C   0  0  0  0  0  0  0  0  0  0  0  0
   58.7540   26.2540   46.3430 C   0  0  0  0  0  0  0  0  0  0  0  0
   60.5350   26.3350   46.5330 S   0  0  0  0  0  0  0  0  0  0  0  0
   60.4850   27.9860   47.2290 C   0  0  0  0  0  0  0  0  0  0  0  0
   60.7860   29.0910   46.4270 C   0  0  0  0  0  0  0  0  0  0  0  0
   60.7500   30.3780   46.9680 C   0  0  0  0  0  0  0  0  0  0  0  0
   60.4210   30.5630   48.3150 C   0  0  0  0  0  0  0  0  0  0  0  0
   60.1330   29.4600   49.1370 C   0  0  0  0  0  0  0  0  0  0  0  0
   59.7550   29.6850   50.5790 C   0  0  0  0  0  0  0  0  0  0  0  0
   60.3980   30.8120   51.0630 F   0  0  0  0  0  0  0  0  0  0  0  0
   60.1100   28.6070   51.3710 F   0  0  0  0  0  0  0  0  0  0  0  0
   58.3860   29.8740   50.6670 F   0  0  0  0  0  0  0  0  0  0  0  0
   60.1550   28.1680   48.5780 C   0  0  0  0  0  0  0  0  0  0  0  0
   58.0440   27.3760   45.9040 C   0  0  0  0  0  0  0  0  0  0  0  0
   56.6570   27.3090   45.7340 C   0  0  0  0  0  0  0  0  0  0  0  0
   55.9560   28.4460   45.2310 N   0  0  0  0  0  0  0  0  0  0  0  0
   56.6090   29.3710   43.9220 S   0  0  0  0  0  0  0  0  0  0  0  0
   57.6660   28.5610   43.2250 O   0  0  0  0  0  0  0  0  0  0  0  0
   55.5200   29.6940   42.9370 O   0  0  0  0  0  0  0  0  0  0  0  0
   57.3180   30.8590   44.5440 C   0  0  0  0  0  0  0  0  0  0  0  0
   57.5320   31.9540   43.6950 C   0  0  0  0  0  0  0  0  0  0  0  0
   58.1620   33.1050   44.1790 C   0  0  0  0  0  0  0  0  0  0  0  0
   58.6030   33.1690   45.5060 C   0  0  0  0  0  0  0  0  0  0  0  0
   59.2400   34.3400   45.9440 O   0  0  0  0  0  0  0  0  0  0  0  0
   59.9910   34.4600   47.1190 C   0  0  0  0  0  0  0  0  0  0  0  0
   61.3850   33.9300   47.1480 C   0  0  0  0  0  0  0  0  0  0  0  0
   59.4790   34.9200   48.1760 O   0  0  0  0  0  0  0  0  0  0  0  0
   58.3650   32.0780   46.3630 C   0  0  0  0  0  0  0  0  0  0  0  0
   57.7300   30.9290   45.8810 C   0  0  0  0  0  0  0  0  0  0  0  0
   53.5430   24.4602   46.5793 H   0  0  0  0  0  0  0  0  0  0  0  0
   52.9087   25.1366   45.0408 H   0  0  0  0  0  0  0  0  0  0  0  0
   54.4248   24.1731   45.0408 H   0  0  0  0  0  0  0  0  0  0  0  0
   56.1601   24.0516   46.6695 H   0  0  0  0  0  0  0  0  0  0  0  0
   58.6320   24.1793   46.9569 H   0  0  0  0  0  0  0  0  0  0  0  0
   61.0513   28.9466   45.3693 H   0  0  0  0  0  0  0  0  0  0  0  0
   60.9806   31.2471   46.3343 H   0  0  0  0  0  0  0  0  0  0  0  0
   60.3875   31.5795   48.7340 H   0  0  0  0  0  0  0  0  0  0  0  0
   59.9117   27.2968   49.2040 H   0  0  0  0  0  0  0  0  0  0  0  0
   58.5777   28.3141   45.6917 H   0  0  0  0  0  0  0  0  0  0  0  0
   57.2037   31.9077   42.6461 H   0  0  0  0  0  0  0  0  0  0  0  0
   58.3121   33.9666   43.5118 H   0  0  0  0  0  0  0  0  0  0  0  0
   61.7088   33.8069   48.1920 H   0  0  0  0  0  0  0  0  0  0  0  0
   61.4179   32.9566   46.6367 H   0  0  0  0  0  0  0  0  0  0  0  0
   62.0563   34.6357   46.6367 H   0  0  0  0  0  0  0  0  0  0  0  0
   58.6797   32.1294   47.4158 H   0  0  0  0  0  0  0  0  0  0  0  0
   57.5534   30.0772   46.5542 H   0  0  0  0  0  0  0  0  0  0  0  0
  1  2  1  0
  2  3  1  0
  3  4  2  0
  4  5  1  0
  5  6  2  0
  6  7  1  0
  7  8  1  0
  8  9  2  0
  9 10  1  0
 10 11  2  0
 11 12  1  0
 12 13  1  0
 13 14  1  0
 13 15  1  0
 13 16  1  0
 12 17  2  0
  6 18  1  0
 18 19  2  0
 19 20  1  0
 20 21  1  0
 21 22  2  0
 21 23  2  0
 21 24  1  0
 24 25  2  0
 25 26  1  0
 26 27  2  0
 27 28  1  0
 28 29  1  0
 29 30  1  0
 29 31  2  0
 27 32  1  0
 32 33  2  0
 19  3  1  0
 33 24  1  0
 17  8  1  0
  1 34  1  0
  1 35  1  0
  1 36  1  0
  4 37  1  0
  5 38  1  0
  9 39  1  0
 10 40  1  0
 11 41  1  0
 17 42  1  0
 18 43  1  0
 25 44  1  0
 26 45  1  0
 30 46  1  0
 30 47  1  0
 30 48  1  0
 32 49  1  0
 33 50  1  0
M  CHG  1  20  -1
M  END
>  <UniqueID>  (89) 
77

>  <SMILES>  (89) 
COc1ccc(Sc2cccc(C(F)(F)F)c2)cc1[N-]S(=O)(=O)c1ccc(OC(C)=O)cc1

>  <Energy>  (89) 
57.9727408268805

>  <Genealogy>  (89) 
COc1ccc(Sc2cccc(C(F)(F)F)c2)cc1[N-]S(=O)(=O)c1ccc(OC(C)=O)cc1 (protonated)
COc1ccc(Sc2cccc(C(F)(F)F)c2)cc1[N-]S(=O)(=O)c1ccc(OC(C)=O)cc1 (3D coordinates assigned)
COc1ccc(Sc2cccc(C(F)(F)F)c2)cc1[N-]S(=O)(=O)c1ccc(OC(C)=O)cc1 (optimized conformer: 57.9727408268805 kcal/mol)

>  <smiles>  (89) 
COc1ccc(Sc2cccc(C(F)(F)F)c2)cc1NS(=O)(=O)c1ccc(OC(C)=O)cc1

>  <score_type>  (89) 
oracle

>  <origin>  (89) 
adg

>  <m_score__min__energy>  (89) 
-10.9

>  <m_primary>  (89) 
energy

$$$$
89:0
     RDKit          3D

 41 44  0  0  0  0  0  0  0  0999 V2000
   58.5130   25.0700   46.2980 F   0  0  0  0  0  0  0  0  0  0  0  0
   58.3320   26.3530   45.9030 C   0  0  0  0  0  0  0  0  0  0  0  0
   59.4360   27.1750   45.6700 C   0  0  0  0  0  0  0  0  0  0  0  0
   59.2520   28.4990   45.2620 C   0  0  0  0  0  0  0  0  0  0  0  0
   57.9560   29.0170   45.0820 C   0  0  0  0  0  0  0  0  0  0  0  0
   57.7900   30.4210   44.6460 C   0  0  0  0  0  0  0  0  0  0  0  0
   57.9970   30.8560   43.3820 N   0  0  0  0  0  0  0  0  0  0  0  0
   57.7410   32.1770   43.4530 C   0  0  0  0  0  0  0  0  0  0  0  0
   57.3890   32.4870   44.7460 C   0  0  0  0  0  0  0  0  0  0  0  0
   57.0560   33.8420   45.2910 C   0  0  0  0  0  0  0  0  0  0  0  0
   58.2710   34.6040   45.6210 N   0  0  0  0  0  0  0  0  0  0  0  0
   59.5170   33.8270   45.4760 C   0  0  0  0  0  0  0  0  0  0  0  0
   60.3610   33.8490   46.7180 C   0  0  0  0  0  0  0  0  0  0  0  0
   59.9320   34.2070   47.9910 C   0  0  0  0  0  0  0  0  0  0  0  0
   60.9320   34.0950   48.9650 C   0  0  0  0  0  0  0  0  0  0  0  0
   62.1440   33.6430   48.4490 C   0  0  0  0  0  0  0  0  0  0  0  0
   63.3490   33.4210   49.2000 N   0  0  0  0  0  0  0  0  0  0  0  0
   63.5810   33.8290   50.4640 C   0  0  0  0  0  0  0  0  0  0  0  0
   64.8510   33.4260   50.8300 C   0  0  0  0  0  0  0  0  0  0  0  0
   65.3490   32.7640   49.7230 C   0  0  0  0  0  0  0  0  0  0  0  0
   64.4170   32.7790   48.7520 N   0  0  0  0  0  0  0  0  0  0  0  0
   61.9770   33.3840   46.7930 S   0  0  0  0  0  0  0  0  0  0  0  0
   57.4290   31.3910   45.4570 O   0  0  0  0  0  0  0  0  0  0  0  0
   56.8470   28.1800   45.3190 C   0  0  0  0  0  0  0  0  0  0  0  0
   55.5780   28.6340   45.1600 F   0  0  0  0  0  0  0  0  0  0  0  0
   57.0400   26.8550   45.7270 C   0  0  0  0  0  0  0  0  0  0  0  0
   60.4532   26.7797   45.8079 H   0  0  0  0  0  0  0  0  0  0  0  0
   60.1266   29.1409   45.0803 H   0  0  0  0  0  0  0  0  0  0  0  0
   57.8031   32.8887   42.6165 H   0  0  0  0  0  0  0  0  0  0  0  0
   56.4787   34.3983   44.5378 H   0  0  0  0  0  0  0  0  0  0  0  0
   56.4709   33.7090   46.2130 H   0  0  0  0  0  0  0  0  0  0  0  0
   58.1930   34.9250   46.6150 H   0  0  0  0  0  0  0  0  0  0  0  0
   59.2563   32.7834   45.2460 H   0  0  0  0  0  0  0  0  0  0  0  0
   60.1036   34.2872   44.6672 H   0  0  0  0  0  0  0  0  0  0  0  0
   58.9086   34.5447   48.2113 H   0  0  0  0  0  0  0  0  0  0  0  0
   60.7765   34.3385   50.0264 H   0  0  0  0  0  0  0  0  0  0  0  0
   62.8773   34.3888   51.0976 H   0  0  0  0  0  0  0  0  0  0  0  0
   65.3559   33.5950   51.7925 H   0  0  0  0  0  0  0  0  0  0  0  0
   66.3440   32.3009   49.6481 H   0  0  0  0  0  0  0  0  0  0  0  0
   64.5190   32.3530   47.8050 H   0  0  0  0  0  0  0  0  0  0  0  0
   56.1708   26.2062   45.9099 H   0  0  0  0  0  0  0  0  0  0  0  0
  1  2  1  0
  2  3  2  0
  3  4  1  0
  4  5  2  0
  5  6  1  0
  6  7  2  0
  7  8  1  0
  8  9  2  0
  9 10  1  0
 10 11  1  0
 11 12  1  0
 12 13  1  0
 13 14  2  0
 14 15  1  0
 15 16  2  0
 16 17  1  0
 17 18  1  0
 18 19  2  0
 19 20  1  0
 20 21  2  0
 16 22  1  0
  9 23  1  0
  5 24  1  0
 24 25  1  0
 24 26  2  0
 26  2  1  0
 23  6  1  0
 22 13  1  0
 21 17  1  0
  3 27  1  0
  4 28  1  0
  8 29  1  0
 10 30  1  0
 10 31  1  0
 11 32  1  0
 12 33  1  0
 12 34  1  0
 14 35  1  0
 15 36  1  0
 18 37  1  0
 19 38  1  0
 20 39  1  0
 21 40  1  0
 26 41  1  0
M  CHG  1  21   1
M  END
>  <UniqueID>  (90) 
78

>  <SMILES>  (90) 
Fc1ccc(-c2ncc(CNCc3ccc(-n4ccc[nH+]4)s3)o2)c(F)c1

>  <Energy>  (90) 
131.56909096350165

>  <Genealogy>  (90) 
Fc1ccc(-c2ncc(CNCc3ccc(-n4ccc[nH+]4)s3)o2)c(F)c1 (protonated)
Fc1ccc(-c2ncc(CNCc3ccc(-n4ccc[nH+]4)s3)o2)c(F)c1 (3D coordinates assigned)
Fc1ccc(-c2ncc(CNCc3ccc(-n4ccc[nH+]4)s3)o2)c(F)c1 (optimized conformer: 131.56909096350165 kcal/mol)

>  <smiles>  (90) 
Fc1ccc(-c2ncc(CNCc3ccc(-n4cccn4)s3)o2)c(F)c1

>  <score_type>  (90) 
oracle

>  <origin>  (90) 
adg

>  <m_score__min__energy>  (90) 
-6.9400000000000004

>  <m_primary>  (90) 
energy

$$$$
90:0
     RDKit          3D

 45 47  0  0  0  0  0  0  0  0999 V2000
   52.1380   22.4470   45.4550 H   0  0  0  0  0  0  0  0  0  0  0  0
   53.0960   22.0610   45.6170 N   0  0  0  0  0  0  0  0  0  0  0  0
   54.1700   22.7010   45.2820 C   0  0  0  0  0  0  0  0  0  0  0  0
   55.1320   22.0630   44.5660 N   0  0  0  0  0  0  0  0  0  0  0  0
   56.2880   22.6740   44.1810 C   0  0  0  0  0  0  0  0  0  0  0  0
   57.2740   21.8790   43.3770 C   0  0  0  0  0  0  0  0  0  0  0  0
   57.9477   21.3358   44.0561 H   0  0  0  0  0  0  0  0  0  0  0  0
   56.7349   21.1599   42.7427 H   0  0  0  0  0  0  0  0  0  0  0  0
   57.8624   22.5583   42.7427 H   0  0  0  0  0  0  0  0  0  0  0  0
   56.5140   24.0260   44.5380 C   0  0  0  0  0  0  0  0  0  0  0  0
   57.7660   24.7820   44.1510 C   0  0  0  0  0  0  0  0  0  0  0  0
   58.5747   24.5248   44.8508 H   0  0  0  0  0  0  0  0  0  0  0  0
   58.0475   24.5014   43.1253 H   0  0  0  0  0  0  0  0  0  0  0  0
   57.5300   26.2250   44.1980 N   0  0  0  0  0  0  0  0  0  0  0  0
   56.6580   26.5880   43.7540 H   0  0  0  0  0  0  0  0  0  0  0  0
   58.4150   27.1260   44.8860 C   0  0  0  0  0  0  0  0  0  0  0  0
   59.3720   26.6620   45.5630 O   0  0  0  0  0  0  0  0  0  0  0  0
   58.2090   28.5930   44.8320 C   0  0  0  0  0  0  0  0  0  0  0  0
   56.9940   29.1430   44.3880 C   0  0  0  0  0  0  0  0  0  0  0  0
   56.1756   28.4779   44.0752 H   0  0  0  0  0  0  0  0  0  0  0  0
   56.8180   30.5290   44.3410 C   0  0  0  0  0  0  0  0  0  0  0  0
   55.8588   30.9470   44.0016 H   0  0  0  0  0  0  0  0  0  0  0  0
   57.8570   31.3900   44.7240 C   0  0  0  0  0  0  0  0  0  0  0  0
   57.6490   32.8820   44.7070 C   0  0  0  0  0  0  0  0  0  0  0  0
   58.0533   33.2943   43.7707 H   0  0  0  0  0  0  0  0  0  0  0  0
   56.5720   33.0944   44.7776 H   0  0  0  0  0  0  0  0  0  0  0  0
   58.3370   33.5060   45.8500 N   0  0  0  0  0  0  0  0  0  0  0  0
   58.1870   32.9530   47.0940 C   0  0  0  0  0  0  0  0  0  0  0  0
   57.5410   32.0722   47.2236 H   0  0  0  0  0  0  0  0  0  0  0  0
   58.8450   33.4950   48.1990 C   0  0  0  0  0  0  0  0  0  0  0  0
   58.7158   33.0476   49.1956 H   0  0  0  0  0  0  0  0  0  0  0  0
   59.6660   34.6060   48.0300 C   0  0  0  0  0  0  0  0  0  0  0  0
   60.1878   35.0439   48.8937 H   0  0  0  0  0  0  0  0  0  0  0  0
   59.8240   35.1610   46.7620 C   0  0  0  0  0  0  0  0  0  0  0  0
   60.4727   36.0377   46.6188 H   0  0  0  0  0  0  0  0  0  0  0  0
   59.1530   34.5970   45.6720 C   0  0  0  0  0  0  0  0  0  0  0  0
   59.3090   35.1070   44.5290 O   0  0  0  0  0  0  0  0  0  0  0  0
   59.0720   30.8460   45.1630 C   0  0  0  0  0  0  0  0  0  0  0  0
   59.8904   31.5131   45.4713 H   0  0  0  0  0  0  0  0  0  0  0  0
   59.2490   29.4610   45.2110 C   0  0  0  0  0  0  0  0  0  0  0  0
   60.2101   29.0456   45.5481 H   0  0  0  0  0  0  0  0  0  0  0  0
   55.5210   24.6990   45.2660 C   0  0  0  0  0  0  0  0  0  0  0  0
   55.6668   25.7539   45.5414 H   0  0  0  0  0  0  0  0  0  0  0  0
   54.3510   24.0410   45.6430 C   0  0  0  0  0  0  0  0  0  0  0  0
   53.5774   24.5702   46.2188 H   0  0  0  0  0  0  0  0  0  0  0  0
  1  2  1  0
  2  3  2  0
  3  4  1  0
  4  5  1  0
  5  6  1  0
  6  7  1  0
  6  8  1  0
  6  9  1  0
  5 10  2  0
 10 11  1  0
 11 12  1  0
 11 13  1  0
 11 14  1  0
 14 15  1  0
 14 16  1  0
 16 17  2  0
 16 18  1  0
 18 19  2  0
 19 20  1  0
 19 21  1  0
 21 22  1  0
 21 23  2  0
 23 24  1  0
 24 25  1  0
 24 26  1  0
 24 27  1  0
 27 28  1  0
 28 29  1  0
 28 30  2  0
 30 31  1  0
 30 32  1  0
 32 33  1  0
 32 34  2  0
 34 35  1  0
 34 36  1  0
 36 37  2  0
 23 38  1  0
 38 39  1  0
 38 40  2  0
 40 41  1  0
 10 42  1  0
 42 43  1  0
 42 44  2  0
 44 45  1  0
 44  3  1  0
 40 18  1  0
 36 27  1  0
M  CHG  1   4  -1
M  END
>  <UniqueID>  (91) 
79

>  <SMILES>  (91) 
[H]/N=c1\ccc(CNC(=O)c2ccc(Cn3ccccc3=O)cc2)c(C)[n-]1

>  <Energy>  (91) 
51.11499832024485

>  <Genealogy>  (91) 
Cc1[n-]c(=N)ccc1CNC(=O)c1ccc(Cn2ccccc2=O)cc1 (protonated)
[H]/N=c1\ccc(CNC(=O)c2ccc(Cn3ccccc3=O)cc2)c(C)[n-]1 (cis-trans isomerization)
[H]/N=c1\ccc(CNC(=O)c2ccc(Cn3ccccc3=O)cc2)c(C)[n-]1 (3D coordinates assigned)
[H]/N=c1\ccc(CNC(=O)c2ccc(Cn3ccccc3=O)cc2)c(C)[n-]1 (optimized conformer: 51.11499832024485 kcal/mol)

>  <smiles>  (91) 
Cc1[nH]c(=N)ccc1CNC(=O)c1ccc(Cn2ccccc2=O)cc1

>  <score_type>  (91) 
oracle

>  <origin>  (91) 
adg

>  <m_score__min__energy>  (91) 
-9.7400000000000002

>  <m_primary>  (91) 
energy

$$$$
91:0
     RDKit          3D

 39 41  0  0  0  0  0  0  0  0999 V2000
   59.3800   28.4630   46.9060 O   0  0  0  0  0  0  0  0  0  0  0  0
   58.2170   28.3370   46.4390 C   0  0  0  0  0  0  0  0  0  0  0  0
   57.4020   27.2550   46.9150 N   0  0  0  0  0  0  0  0  0  0  0  0
   57.1250   26.0190   46.2390 C   0  0  0  0  0  0  0  0  0  0  0  0
   58.1360   25.0750   45.9800 C   0  0  0  0  0  0  0  0  0  0  0  0
   57.8360   23.8860   45.3060 C   0  0  0  0  0  0  0  0  0  0  0  0
   59.1000   22.7100   44.9990 Cl  0  0  0  0  0  0  0  0  0  0  0  0
   56.5300   23.6400   44.8710 C   0  0  0  0  0  0  0  0  0  0  0  0
   55.5270   24.5840   45.1020 C   0  0  0  0  0  0  0  0  0  0  0  0
   55.8230   25.7730   45.7780 C   0  0  0  0  0  0  0  0  0  0  0  0
   54.8150   26.7060   45.9960 O   0  0  0  0  0  0  0  0  0  0  0  0
   57.7690   29.2410   45.3520 C   0  0  0  0  0  0  0  0  0  0  0  0
   56.9490   28.7140   44.3370 C   0  0  0  0  0  0  0  0  0  0  0  0
   56.5640   29.4990   43.2510 C   0  0  0  0  0  0  0  0  0  0  0  0
   57.0040   30.8180   43.1520 C   0  0  0  0  0  0  0  0  0  0  0  0
   57.8200   31.3600   44.1460 C   0  0  0  0  0  0  0  0  0  0  0  0
   58.2020   30.5910   45.2610 C   0  0  0  0  0  0  0  0  0  0  0  0
   59.0210   31.2390   46.3130 C   0  0  0  0  0  0  0  0  0  0  0  0
   58.4720   32.0440   47.1140 O   0  0  0  0  0  0  0  0  0  0  0  0
   60.4040   30.8900   46.4820 N   0  0  0  0  0  0  0  0  0  0  0  0
   61.3530   31.6890   47.2090 C   0  0  0  0  0  0  0  0  0  0  0  0
   61.9280   31.2330   48.4100 C   0  0  0  0  0  0  0  0  0  0  0  0
   62.8290   32.0410   49.1120 C   0  0  0  0  0  0  0  0  0  0  0  0
   63.1530   33.3120   48.6290 C   0  0  0  0  0  0  0  0  0  0  0  0
   62.5710   33.7810   47.4490 C   0  0  0  0  0  0  0  0  0  0  0  0
   61.6690   32.9750   46.7460 C   0  0  0  0  0  0  0  0  0  0  0  0
   59.1669   25.2727   46.3089 H   0  0  0  0  0  0  0  0  0  0  0  0
   56.2925   22.7026   44.3467 H   0  0  0  0  0  0  0  0  0  0  0  0
   54.5020   24.3925   44.7518 H   0  0  0  0  0  0  0  0  0  0  0  0
   56.6077   27.6703   44.4012 H   0  0  0  0  0  0  0  0  0  0  0  0
   55.9124   29.0771   42.4716 H   0  0  0  0  0  0  0  0  0  0  0  0
   56.7076   31.4325   42.2892 H   0  0  0  0  0  0  0  0  0  0  0  0
   58.1684   32.3996   44.0570 H   0  0  0  0  0  0  0  0  0  0  0  0
   60.7210   29.9630   46.1190 H   0  0  0  0  0  0  0  0  0  0  0  0
   61.6679   30.2372   48.7983 H   0  0  0  0  0  0  0  0  0  0  0  0
   63.2829   31.6756   50.0450 H   0  0  0  0  0  0  0  0  0  0  0  0
   63.8668   33.9433   49.1785 H   0  0  0  0  0  0  0  0  0  0  0  0
   62.8218   34.7837   47.0726 H   0  0  0  0  0  0  0  0  0  0  0  0
   61.2041   33.3525   45.8233 H   0  0  0  0  0  0  0  0  0  0  0  0
  1  2  2  0
  2  3  1  0
  3  4  1  0
  4  5  2  0
  5  6  1  0
  6  7  1  0
  6  8  2  0
  8  9  1  0
  9 10  2  0
 10 11  1  0
  2 12  1  0
 12 13  2  0
 13 14  1  0
 14 15  2  0
 15 16  1  0
 16 17  2  0
 17 18  1  0
 18 19  2  0
 18 20  1  0
 20 21  1  0
 21 22  2  0
 22 23  1  0
 23 24  2  0
 24 25  1  0
 25 26  2  0
 10  4  1  0
 17 12  1  0
 26 21  1  0
  5 27  1  0
  8 28  1  0
  9 29  1  0
 13 30  1  0
 14 31  1  0
 15 32  1  0
 16 33  1  0
 20 34  1  0
 22 35  1  0
 23 36  1  0
 24 37  1  0
 25 38  1  0
 26 39  1  0
M  CHG  2   3  -1  11  -1
M  END
>  <UniqueID>  (92) 
80

>  <SMILES>  (92) 
O=C([N-]c1cc(Cl)ccc1[O-])c1ccccc1C(=O)Nc1ccccc1

>  <Energy>  (92) 
58.23132235441764

>  <Genealogy>  (92) 
O=C([N-]c1cc(Cl)ccc1[O-])c1ccccc1C(=O)Nc1ccccc1 (protonated)
O=C([N-]c1cc(Cl)ccc1[O-])c1ccccc1C(=O)Nc1ccccc1 (3D coordinates assigned)
O=C([N-]c1cc(Cl)ccc1[O-])c1ccccc1C(=O)Nc1ccccc1 (optimized conformer: 58.23132235441764 kcal/mol)

>  <smiles>  (92) 
O=C(Nc1ccccc1)c1ccccc1C(=O)Nc1cc(Cl)ccc1O

>  <score_type>  (92) 
oracle

>  <origin>  (92) 
adg

>  <m_score__min__energy>  (92) 
-13.359999999999999

>  <m_primary>  (92) 
energy

$$$$
92:0
     RDKit          3D

 47 49  0  0  0  0  0  0  0  0999 V2000
   60.9826   31.1908   48.4359 H   0  0  0  0  0  0  0  0  0  0  0  0
   60.3990   30.5290   47.7790 C   0  0  0  0  0  0  0  0  0  0  0  0
   60.7800   30.3550   46.4460 C   0  0  0  0  0  0  0  0  0  0  0  0
   61.6655   30.8777   46.0554 H   0  0  0  0  0  0  0  0  0  0  0  0
   60.0380   29.5180   45.6080 C   0  0  0  0  0  0  0  0  0  0  0  0
   60.3436   29.3806   44.5603 H   0  0  0  0  0  0  0  0  0  0  0  0
   58.9020   28.8510   46.1000 C   0  0  0  0  0  0  0  0  0  0  0  0
   58.1220   27.9170   45.2100 C   0  0  0  0  0  0  0  0  0  0  0  0
   58.5534   26.9080   45.2859 H   0  0  0  0  0  0  0  0  0  0  0  0
   58.1831   28.2933   44.1782 H   0  0  0  0  0  0  0  0  0  0  0  0
   56.6430   27.8580   45.6130 C   0  0  0  0  0  0  0  0  0  0  0  0
   56.5518   28.0939   46.6835 H   0  0  0  0  0  0  0  0  0  0  0  0
   56.2633   26.8460   45.4088 H   0  0  0  0  0  0  0  0  0  0  0  0
   55.8530   28.8180   44.8420 N   0  0  0  0  0  0  0  0  0  0  0  0
   54.8840   28.5420   44.5610 H   0  0  0  0  0  0  0  0  0  0  0  0
   56.3890   30.0610   44.3720 C   0  0  0  0  0  0  0  0  0  0  0  0
   56.6580   31.0730   45.2440 N   0  0  0  0  0  0  0  0  0  0  0  0
   57.1840   32.2540   44.8150 C   0  0  0  0  0  0  0  0  0  0  0  0
   57.3990   33.2430   45.6330 N   0  0  0  0  0  0  0  0  0  0  0  0
   58.5780   33.5280   46.4060 C   0  0  0  0  0  0  0  0  0  0  0  0
   59.7800   33.7270   45.7180 C   0  0  0  0  0  0  0  0  0  0  0  0
   59.7885   33.6993   44.6184 H   0  0  0  0  0  0  0  0  0  0  0  0
   60.9670   33.9600   46.4110 C   0  0  0  0  0  0  0  0  0  0  0  0
   61.9003   34.1315   45.8547 H   0  0  0  0  0  0  0  0  0  0  0  0
   60.9780   33.9770   47.8170 C   0  0  0  0  0  0  0  0  0  0  0  0
   62.1530   34.2080   48.5500 O   0  0  0  0  0  0  0  0  0  0  0  0
   63.3680   33.4870   48.3760 C   0  0  0  0  0  0  0  0  0  0  0  0
   63.7900   33.2366   49.3605 H   0  0  0  0  0  0  0  0  0  0  0  0
   63.1681   32.5612   47.8165 H   0  0  0  0  0  0  0  0  0  0  0  0
   64.0848   34.1060   47.8165 H   0  0  0  0  0  0  0  0  0  0  0  0
   59.7850   33.7540   48.5210 C   0  0  0  0  0  0  0  0  0  0  0  0
   59.8350   33.7620   49.9240 O   0  0  0  0  0  0  0  0  0  0  0  0
   59.2600   32.7640   50.7590 C   0  0  0  0  0  0  0  0  0  0  0  0
   59.4157   33.0342   51.8139 H   0  0  0  0  0  0  0  0  0  0  0  0
   58.1816   32.6914   50.5544 H   0  0  0  0  0  0  0  0  0  0  0  0
   59.7381   31.7947   50.5544 H   0  0  0  0  0  0  0  0  0  0  0  0
   58.5870   33.5210   47.8130 C   0  0  0  0  0  0  0  0  0  0  0  0
   57.6541   33.3327   48.3645 H   0  0  0  0  0  0  0  0  0  0  0  0
   57.4390   32.4320   43.4920 N   0  0  0  0  0  0  0  0  0  0  0  0
   57.1820   31.4540   42.5870 C   0  0  0  0  0  0  0  0  0  0  0  0
   57.4320   31.6450   41.3680 O   0  0  0  0  0  0  0  0  0  0  0  0
   56.6410   30.2410   43.0100 C   0  0  0  0  0  0  0  0  0  0  0  0
   56.4174   29.4428   42.2869 H   0  0  0  0  0  0  0  0  0  0  0  0
   58.5300   29.0230   47.4430 C   0  0  0  0  0  0  0  0  0  0  0  0
   57.6494   28.4966   47.8398 H   0  0  0  0  0  0  0  0  0  0  0  0
   59.2760   29.8620   48.2780 C   0  0  0  0  0  0  0  0  0  0  0  0
   58.9786   29.9970   49.3284 H   0  0  0  0  0  0  0  0  0  0  0  0
  1  2  1  0
  2  3  2  0
  3  4  1  0
  3  5  1  0
  5  6  1  0
  5  7  2  0
  7  8  1  0
  8  9  1  0
  8 10  1  0
  8 11  1  0
 11 12  1  0
 11 13  1  0
 11 14  1  0
 14 15  1  0
 14 16  1  0
 16 17  1  0
 17 18  1  0
 18 19  2  0
 19 20  1  0
 20 21  2  0
 21 22  1  0
 21 23  1  0
 23 24  1  0
 23 25  2  0
 25 26  1  0
 26 27  1  0
 27 28  1  0
 27 29  1  0
 27 30  1  0
 25 31  1  0
 31 32  1  0
 32 33  1  0
 33 34  1  0
 33 35  1  0
 33 36  1  0
 31 37  2  0
 37 38  1  0
 18 39  1  0
 39 40  1  0
 40 41  2  0
 40 42  1  0
 42 43  1  0
  7 44  1  0
 44 45  1  0
 44 46  2  0
 46 47  1  0
 46  2  1  0
 42 16  2  0
 37 20  1  0
M  CHG  2  17  -1  39  -1
M  END
>  <UniqueID>  (93) 
81

>  <SMILES>  (93) 
COc1ccc(/N=c2\[n-]c(NCCc3ccccc3)cc(=O)[n-]2)cc1OC

>  <Energy>  (93) 
49.257397581724476

>  <Genealogy>  (93) 
COc1ccc(N=c2[n-]c(NCCc3ccccc3)cc(=O)[n-]2)cc1OC (protonated)
COc1ccc(/N=c2\[n-]c(NCCc3ccccc3)cc(=O)[n-]2)cc1OC (cis-trans isomerization)
COc1ccc(/N=c2\[n-]c(NCCc3ccccc3)cc(=O)[n-]2)cc1OC (3D coordinates assigned)
COc1ccc(/N=c2\[n-]c(NCCc3ccccc3)cc(=O)[n-]2)cc1OC (optimized conformer: 49.257397581724476 kcal/mol)

>  <smiles>  (93) 
COc1ccc(N=c2[nH]c(NCCc3ccccc3)cc(=O)[nH]2)cc1OC

>  <score_type>  (93) 
oracle

>  <origin>  (93) 
adg

>  <m_score__min__energy>  (93) 
-11.220000000000001

>  <m_primary>  (93) 
energy

$$$$
93:0
     RDKit          3D

 29 31  0  0  0  0  0  0  0  0999 V2000
   55.5640   23.7020   47.2150 C   0  0  0  0  0  0  0  0  0  0  0  0
   56.3700   24.6210   46.6860 C   0  0  0  0  0  0  0  0  0  0  0  0
   57.6580   24.3920   46.2430 C   0  0  0  0  0  0  0  0  0  0  0  0
   58.1240   25.6060   45.7760 C   0  0  0  0  0  0  0  0  0  0  0  0
   57.0960   26.5200   45.9570 C   0  0  0  0  0  0  0  0  0  0  0  0
   57.1520   27.8220   45.6280 C   0  0  0  0  0  0  0  0  0  0  0  0
   58.2710   28.5720   45.7830 N   0  0  0  0  0  0  0  0  0  0  0  0
   57.9180   29.7990   45.3490 C   0  0  0  0  0  0  0  0  0  0  0  0
   58.7290   30.8670   45.3000 C   0  0  0  0  0  0  0  0  0  0  0  0
   58.2960   32.2620   45.5250 C   0  0  0  0  0  0  0  0  0  0  0  0
   58.8270   33.0850   46.5000 C   0  0  0  0  0  0  0  0  0  0  0  0
   58.2010   34.3070   46.3630 C   0  0  0  0  0  0  0  0  0  0  0  0
   57.3250   34.1830   45.3040 C   0  0  0  0  0  0  0  0  0  0  0  0
   57.3880   32.9410   44.7930 N   0  0  0  0  0  0  0  0  0  0  0  0
   56.6050   29.7590   44.9370 C   0  0  0  0  0  0  0  0  0  0  0  0
   55.9390   30.7190   44.4640 O   0  0  0  0  0  0  0  0  0  0  0  0
   56.1160   28.5230   45.1120 N   0  0  0  0  0  0  0  0  0  0  0  0
   56.0260   25.9120   46.5140 N   0  0  0  0  0  0  0  0  0  0  0  0
   54.5508   23.9807   47.5401 H   0  0  0  0  0  0  0  0  0  0  0  0
   55.9116   22.6644   47.3267 H   0  0  0  0  0  0  0  0  0  0  0  0
   58.2026   23.4364   46.2588 H   0  0  0  0  0  0  0  0  0  0  0  0
   59.1157   25.8082   45.3451 H   0  0  0  0  0  0  0  0  0  0  0  0
   59.7917   30.6917   45.0765 H   0  0  0  0  0  0  0  0  0  0  0  0
   59.5967   32.8185   47.2393 H   0  0  0  0  0  0  0  0  0  0  0  0
   58.3676   35.2041   46.9774 H   0  0  0  0  0  0  0  0  0  0  0  0
   56.6699   34.9844   44.9317 H   0  0  0  0  0  0  0  0  0  0  0  0
   56.8560   32.6080   43.9590 H   0  0  0  0  0  0  0  0  0  0  0  0
   55.1490   28.1990   44.8880 H   0  0  0  0  0  0  0  0  0  0  0  0
   55.1080   26.3420   46.7680 H   0  0  0  0  0  0  0  0  0  0  0  0
  1  2  2  0
  2  3  1  0
  3  4  2  0
  4  5  1  0
  5  6  2  3
  6  7  1  0
  7  8  1  0
  8  9  2  3
  9 10  1  0
 10 11  2  0
 11 12  1  0
 12 13  2  0
 13 14  1  0
  8 15  1  0
 15 16  2  0
 15 17  1  0
  5 18  1  0
 18  2  1  0
 17  6  1  0
 14 10  1  0
  1 19  1  0
  1 20  1  0
  3 21  1  0
  4 22  1  0
  9 23  1  0
 11 24  1  0
 12 25  1  0
 13 26  1  0
 14 27  1  0
 17 28  1  0
 18 29  1  0
M  CHG  1   7  -1
M  END
>  <UniqueID>  (94) 
82

>  <SMILES>  (94) 
C=c1ccc(=c2[n-]c(=Cc3ccc[nH]3)c(=O)[nH]2)[nH]1

>  <Energy>  (94) 
117.01038638752827

>  <Genealogy>  (94) 
C=c1ccc(=c2[n-]c(=Cc3ccc[nH]3)c(=O)[nH]2)[nH]1 (protonated)
C=c1ccc(=c2[n-]c(=Cc3ccc[nH]3)c(=O)[nH]2)[nH]1 (3D coordinates assigned)
C=c1ccc(=c2[n-]c(=Cc3ccc[nH]3)c(=O)[nH]2)[nH]1 (optimized conformer: 117.01038638752827 kcal/mol)

>  <smiles>  (94) 
C=c1ccc(=c2[nH]c(=O)c(=Cc3ccc[nH]3)[nH]2)[nH]1

>  <score_type>  (94) 
oracle

>  <origin>  (94) 
adg

>  <m_score__min__energy>  (94) 
-8.5299999999999994

>  <m_primary>  (94) 
energy

$$$$
94:0
     RDKit          3D

 52 55  0  0  0  0  0  0  0  0999 V2000
   66.0030   33.9130   52.9820 H   0  0  0  0  0  0  0  0  0  0  0  0
   66.9950   33.7680   52.6870 N   0  0  0  0  0  0  0  0  0  0  0  0
   66.9560   33.0010   51.1400 S   0  0  0  0  0  0  0  0  0  0  0  0
   67.4250   31.5800   51.2750 O   0  0  0  0  0  0  0  0  0  0  0  0
   67.8750   33.7270   50.1960 O   0  0  0  0  0  0  0  0  0  0  0  0
   65.3140   33.0430   50.5100 C   0  0  0  0  0  0  0  0  0  0  0  0
   64.4450   34.0880   50.8540 C   0  0  0  0  0  0  0  0  0  0  0  0
   64.7766   34.8687   51.5544 H   0  0  0  0  0  0  0  0  0  0  0  0
   63.1590   34.1410   50.3100 C   0  0  0  0  0  0  0  0  0  0  0  0
   62.4786   34.9579   50.5924 H   0  0  0  0  0  0  0  0  0  0  0  0
   62.7310   33.1570   49.4050 C   0  0  0  0  0  0  0  0  0  0  0  0
   61.4400   33.2640   48.7780 N   0  0  0  0  0  0  0  0  0  0  0  0
   61.1990   32.8980   47.4250 C   0  0  0  0  0  0  0  0  0  0  0  0
   62.0390   32.2560   46.7370 O   0  0  0  0  0  0  0  0  0  0  0  0
   59.9440   33.4350   46.8920 C   0  0  0  0  0  0  0  0  0  0  0  0
   59.3220   33.0690   45.7620 C   0  0  0  0  0  0  0  0  0  0  0  0
   59.4208   33.7311   44.8891 H   0  0  0  0  0  0  0  0  0  0  0  0
   58.5140   31.8430   45.6020 C   0  0  0  0  0  0  0  0  0  0  0  0
   57.6840   31.6580   44.4830 C   0  0  0  0  0  0  0  0  0  0  0  0
   57.6001   32.4528   43.7271 H   0  0  0  0  0  0  0  0  0  0  0  0
   56.9650   30.4710   44.3250 C   0  0  0  0  0  0  0  0  0  0  0  0
   56.3045   30.3425   43.4548 H   0  0  0  0  0  0  0  0  0  0  0  0
   57.0820   29.4380   45.2750 C   0  0  0  0  0  0  0  0  0  0  0  0
   56.3810   28.2260   45.1670 O   0  0  0  0  0  0  0  0  0  0  0  0
   56.8990   26.9410   45.5120 C   0  0  0  0  0  0  0  0  0  0  0  0
   57.1908   26.4103   44.5937 H   0  0  0  0  0  0  0  0  0  0  0  0
   57.7721   27.0747   46.1676 H   0  0  0  0  0  0  0  0  0  0  0  0
   55.8680   26.1360   46.2390 C   0  0  0  0  0  0  0  0  0  0  0  0
   56.2170   25.3080   47.1220 O   0  0  0  0  0  0  0  0  0  0  0  0
   54.5190   26.3250   45.9670 O   0  0  0  0  0  0  0  0  0  0  0  0
   57.9360   29.6130   46.3700 C   0  0  0  0  0  0  0  0  0  0  0  0
   58.0426   28.8081   47.1122 H   0  0  0  0  0  0  0  0  0  0  0  0
   58.6550   30.8020   46.5290 C   0  0  0  0  0  0  0  0  0  0  0  0
   59.3344   30.9204   47.3859 H   0  0  0  0  0  0  0  0  0  0  0  0
   59.2620   34.6990   47.9680 S   0  0  0  0  0  0  0  0  0  0  0  0
   60.3530   34.0760   49.2480 C   0  0  0  0  0  0  0  0  0  0  0  0
   60.0430   34.2240   50.5060 N   0  0  0  0  0  0  0  0  0  0  0  0
   59.1670   33.3870   51.2720 C   0  0  0  0  0  0  0  0  0  0  0  0
   58.9990   33.5820   52.6540 C   0  0  0  0  0  0  0  0  0  0  0  0
   59.5556   34.3798   53.1675 H   0  0  0  0  0  0  0  0  0  0  0  0
   58.1260   32.7640   53.3770 C   0  0  0  0  0  0  0  0  0  0  0  0
   57.9786   32.9340   54.4537 H   0  0  0  0  0  0  0  0  0  0  0  0
   57.4400   31.7300   52.7330 C   0  0  0  0  0  0  0  0  0  0  0  0
   56.7462   31.0928   53.3010 H   0  0  0  0  0  0  0  0  0  0  0  0
   57.6360   31.5060   51.3670 C   0  0  0  0  0  0  0  0  0  0  0  0
   57.1053   30.6846   50.8634 H   0  0  0  0  0  0  0  0  0  0  0  0
   58.5060   32.3250   50.6400 C   0  0  0  0  0  0  0  0  0  0  0  0
   58.6719   32.1351   49.5693 H   0  0  0  0  0  0  0  0  0  0  0  0
   63.5970   32.1010   49.0780 C   0  0  0  0  0  0  0  0  0  0  0  0
   63.2616   31.3115   48.3894 H   0  0  0  0  0  0  0  0  0  0  0  0
   64.8830   32.0480   49.6230 C   0  0  0  0  0  0  0  0  0  0  0  0
   65.5587   31.2225   49.3546 H   0  0  0  0  0  0  0  0  0  0  0  0
  1  2  1  0
  2  3  1  0
  3  4  2  0
  3  5  2  0
  3  6  1  0
  6  7  2  0
  7  8  1  0
  7  9  1  0
  9 10  1  0
  9 11  2  0
 11 12  1  0
 12 13  1  0
 13 14  2  0
 13 15  1  0
 15 16  2  0
 16 17  1  0
 16 18  1  0
 18 19  2  0
 19 20  1  0
 19 21  1  0
 21 22  1  0
 21 23  2  0
 23 24  1  0
 24 25  1  0
 25 26  1  0
 25 27  1  0
 25 28  1  0
 28 29  2  0
 28 30  1  0
 23 31  1  0
 31 32  1  0
 31 33  2  0
 33 34  1  0
 15 35  1  0
 35 36  1  0
 36 37  2  3
 37 38  1  0
 38 39  2  0
 39 40  1  0
 39 41  1  0
 41 42  1  0
 41 43  2  0
 43 44  1  0
 43 45  1  0
 45 46  1  0
 45 47  2  0
 47 48  1  0
 11 49  1  0
 49 50  1  0
 49 51  2  0
 51 52  1  0
 51  6  1  0
 36 12  1  0
 47 38  1  0
 33 18  1  0
M  CHG  2   2  -1  30  -1
M  END
>  <UniqueID>  (95) 
83

>  <SMILES>  (95) 
[NH-]S(=O)(=O)c1ccc(N2C(=O)/C(=C\c3ccc(OCC(=O)[O-])cc3)SC2=Nc2ccccc2)cc1

>  <Energy>  (95) 
94.67219953120731

>  <Genealogy>  (95) 
[NH-]S(=O)(=O)c1ccc(N2C(=O)C(=Cc3ccc(OCC(=O)[O-])cc3)SC2=Nc2ccccc2)cc1 (protonated)
[NH-]S(=O)(=O)c1ccc(N2C(=O)/C(=C\c3ccc(OCC(=O)[O-])cc3)SC2=Nc2ccccc2)cc1 (cis-trans isomerization)
[NH-]S(=O)(=O)c1ccc(N2C(=O)/C(=C\c3ccc(OCC(=O)[O-])cc3)SC2=Nc2ccccc2)cc1 (3D coordinates assigned)
[NH-]S(=O)(=O)c1ccc(N2C(=O)/C(=C\c3ccc(OCC(=O)[O-])cc3)SC2=Nc2ccccc2)cc1 (nonaromatic ring conformer: 94.67219953120731 kcal/mol)

>  <smiles>  (95) 
NS(=O)(=O)c1ccc(N2C(=O)C(=Cc3ccc(OCC(=O)O)cc3)SC2=Nc2ccccc2)cc1

>  <score_type>  (95) 
oracle

>  <origin>  (95) 
adg

>  <m_score__min__energy>  (95) 
-12.789999999999999

>  <m_primary>  (95) 
energy

$$$$
