0:0
     RDKit          3D

 62 65  0  0  0  0  0  0  0  0999 V2000
   59.2290   29.2070   49.9520 O   0  0  0  0  0  0  0  0  0  0  0  0
   59.8920   28.3870   49.2610 C   0  0  0  0  0  0  0  0  0  0  0  0
   60.7090   27.3980   49.9140 N   0  0  0  0  0  0  0  0  0  0  0  0
   60.9090   27.3650   51.3350 C   0  0  0  0  0  0  0  0  0  0  0  0
   61.0150   25.9180   52.0930 S   0  0  0  0  0  0  0  0  0  0  0  0
   61.0130   28.5710   52.1070 N   0  0  0  0  0  0  0  0  0  0  0  0
   61.6650   29.7670   51.6440 C   0  0  0  0  0  0  0  0  0  0  0  0
   63.0100   29.7090   51.2470 C   0  0  0  0  0  0  0  0  0  0  0  0
   63.6620   30.8550   50.7810 C   0  0  0  0  0  0  0  0  0  0  0  0
   62.9720   32.0710   50.6870 C   0  0  0  0  0  0  0  0  0  0  0  0
   63.8040   33.5010   50.0830 S   0  0  0  0  0  0  0  0  0  0  0  0
   65.2810   33.2250   50.0600 O   0  0  0  0  0  0  0  0  0  0  0  0
   63.5380   34.6740   50.9860 O   0  0  0  0  0  0  0  0  0  0  0  0
   63.2420   33.8670   48.4690 N   0  0  0  0  0  0  0  0  0  0  0  0
   63.5500   32.7630   47.5300 C   0  0  0  0  0  0  0  0  0  0  0  0
   62.2920   31.9810   47.1130 C   0  0  0  0  0  0  0  0  0  0  0  0
   61.3100   32.8040   46.5050 O   0  0  0  0  0  0  0  0  0  0  0  0
   61.1940   34.0940   47.1000 C   0  0  0  0  0  0  0  0  0  0  0  0
   61.8080   34.2100   48.5060 C   0  0  0  0  0  0  0  0  0  0  0  0
   61.6240   32.1330   51.0670 C   0  0  0  0  0  0  0  0  0  0  0  0
   60.9720   30.9880   51.5360 C   0  0  0  0  0  0  0  0  0  0  0  0
   59.8080   28.4600   47.7830 C   0  0  0  0  0  0  0  0  0  0  0  0
   60.3920   27.4470   47.0020 C   0  0  0  0  0  0  0  0  0  0  0  0
   60.3210   27.4990   45.6060 C   0  0  0  0  0  0  0  0  0  0  0  0
   59.6800   28.5660   44.9740 C   0  0  0  0  0  0  0  0  0  0  0  0
   59.1100   29.5940   45.7350 C   0  0  0  0  0  0  0  0  0  0  0  0
   58.2960   30.9300   44.9210 S   0  0  0  0  0  0  0  0  0  0  0  0
   58.5300   30.8480   43.4380 O   0  0  0  0  0  0  0  0  0  0  0  0
   56.8200   30.8220   45.1810 O   0  0  0  0  0  0  0  0  0  0  0  0
   58.8970   32.4520   45.5430 N   0  0  0  0  0  0  0  0  0  0  0  0
   58.7170   33.5350   44.5660 C   0  0  0  0  0  0  0  0  0  0  0  0
   57.4160   34.2550   44.9010 C   0  0  0  0  0  0  0  0  0  0  0  0
   57.0180   33.7710   46.2850 C   0  0  0  0  0  0  0  0  0  0  0  0
   58.1510   32.8630   46.7390 C   0  0  0  0  0  0  0  0  0  0  0  0
   59.1750   29.5400   47.1370 C   0  0  0  0  0  0  0  0  0  0  0  0
   61.1440   26.6330   49.3540 H   0  0  0  0  0  0  0  0  0  0  0  0
   60.6470   28.5570   53.0860 H   0  0  0  0  0  0  0  0  0  0  0  0
   63.5552   28.7552   51.3028 H   0  0  0  0  0  0  0  0  0  0  0  0
   64.7207   30.8017   50.4871 H   0  0  0  0  0  0  0  0  0  0  0  0
   64.0183   33.1857   46.6289 H   0  0  0  0  0  0  0  0  0  0  0  0
   64.2254   32.0633   48.0441 H   0  0  0  0  0  0  0  0  0  0  0  0
   62.5857   31.1979   46.3985 H   0  0  0  0  0  0  0  0  0  0  0  0
   61.8489   31.5554   48.0254 H   0  0  0  0  0  0  0  0  0  0  0  0
   61.6976   34.8202   46.4450 H   0  0  0  0  0  0  0  0  0  0  0  0
   60.1173   34.2885   47.2137 H   0  0  0  0  0  0  0  0  0  0  0  0
   61.6911   35.2418   48.8689 H   0  0  0  0  0  0  0  0  0  0  0  0
   61.2907   33.5120   49.1807 H   0  0  0  0  0  0  0  0  0  0  0  0
   61.0775   33.0850   50.9961 H   0  0  0  0  0  0  0  0  0  0  0  0
   59.9113   31.0416   51.8223 H   0  0  0  0  0  0  0  0  0  0  0  0
   60.9080   26.6082   47.4920 H   0  0  0  0  0  0  0  0  0  0  0  0
   60.7719   26.6963   45.0040 H   0  0  0  0  0  0  0  0  0  0  0  0
   59.6226   28.5993   43.8760 H   0  0  0  0  0  0  0  0  0  0  0  0
   59.9110   32.3360   45.7730 H   0  0  0  0  0  0  0  0  0  0  0  0
   59.5604   34.2385   44.6279 H   0  0  0  0  0  0  0  0  0  0  0  0
   58.6783   33.1280   43.5448 H   0  0  0  0  0  0  0  0  0  0  0  0
   57.5715   35.3439   44.9063 H   0  0  0  0  0  0  0  0  0  0  0  0
   56.6334   34.0425   44.1578 H   0  0  0  0  0  0  0  0  0  0  0  0
   56.9081   34.6221   46.9731 H   0  0  0  0  0  0  0  0  0  0  0  0
   56.0528   33.2436   46.2711 H   0  0  0  0  0  0  0  0  0  0  0  0
   58.8151   33.4071   47.4267 H   0  0  0  0  0  0  0  0  0  0  0  0
   57.7535   31.9839   47.2674 H   0  0  0  0  0  0  0  0  0  0  0  0
   58.7280   30.3476   47.7354 H   0  0  0  0  0  0  0  0  0  0  0  0
  1  2  2  0
  2  3  1  0
  3  4  1  0
  4  5  2  0
  4  6  1  0
  6  7  1  0
  7  8  2  0
  8  9  1  0
  9 10  2  0
 10 11  1  0
 11 12  2  0
 11 13  2  0
 11 14  1  0
 14 15  1  0
 15 16  1  0
 16 17  1  0
 17 18  1  0
 18 19  1  0
 10 20  1  0
 20 21  2  0
  2 22  1  0
 22 23  2  0
 23 24  1  0
 24 25  2  0
 25 26  1  0
 26 27  1  0
 27 28  2  0
 27 29  2  0
 27 30  1  0
 30 31  1  0
 31 32  1  0
 32 33  1  0
 33 34  1  0
 26 35  2  0
 21  7  1  0
 35 22  1  0
 19 14  1  0
 34 30  1  0
  3 36  1  0
  6 37  1  0
  8 38  1  0
  9 39  1  0
 15 40  1  0
 15 41  1  0
 16 42  1  0
 16 43  1  0
 18 44  1  0
 18 45  1  0
 19 46  1  0
 19 47  1  0
 20 48  1  0
 21 49  1  0
 23 50  1  0
 24 51  1  0
 25 52  1  0
 30 53  1  0
 31 54  1  0
 31 55  1  0
 32 56  1  0
 32 57  1  0
 33 58  1  0
 33 59  1  0
 34 60  1  0
 34 61  1  0
 35 62  1  0
M  CHG  1  30   1
M  END
>  <UniqueID>  (1) 
1

>  <SMILES>  (1) 
O=C(NC(=S)Nc1ccc(S(=O)(=O)N2CCOCC2)cc1)c1cccc(S(=O)(=O)[NH+]2CCCC2)c1

>  <Energy>  (1) 
85.50111778432044

>  <Genealogy>  (1) 
O=C(NC(=S)Nc1ccc(S(=O)(=O)N2CCOCC2)cc1)c1cccc(S(=O)(=O)[NH+]2CCCC2)c1 (protonated)
O=C(NC(=S)Nc1ccc(S(=O)(=O)N2CCOCC2)cc1)c1cccc(S(=O)(=O)[NH+]2CCCC2)c1 (3D coordinates assigned)
O=C(NC(=S)Nc1ccc(S(=O)(=O)N2CCOCC2)cc1)c1cccc(S(=O)(=O)[NH+]2CCCC2)c1 (nonaromatic ring conformer: 85.50111778432044 kcal/mol)

>  <smiles>  (1) 
O=C(NC(=S)Nc1ccc(S(=O)(=O)N2CCOCC2)cc1)c1cccc(S(=O)(=O)N2CCCC2)c1

>  <score_type>  (1) 
oracle

>  <origin>  (1) 
adg

>  <m_score__min__energy>  (1) 
-8.9499999999999993

>  <m_primary>  (1) 
energy

$$$$
1:0
     RDKit          3D

 46 48  0  0  0  0  0  0  0  0999 V2000
   58.0310   30.6410   51.1040 C   0  0  0  0  0  0  0  0  0  0  0  0
   57.7290   32.0090   50.5030 C   0  0  0  0  0  0  0  0  0  0  0  0
   58.7170   32.3430   49.4700 N   0  0  0  0  0  0  0  0  0  0  0  0
   58.3170   32.3400   48.1980 N   0  0  0  0  0  0  0  0  0  0  0  0
   59.1340   32.6580   47.1610 C   0  0  0  0  0  0  0  0  0  0  0  0
   58.5740   32.5500   45.7970 C   0  0  0  0  0  0  0  0  0  0  0  0
   59.0820   33.2060   44.8470 O   0  0  0  0  0  0  0  0  0  0  0  0
   57.4930   31.6400   45.5380 N   0  0  0  0  0  0  0  0  0  0  0  0
   56.9030   31.4860   44.2110 C   0  0  0  0  0  0  0  0  0  0  0  0
   56.1140   30.2170   44.1390 C   0  0  0  0  0  0  0  0  0  0  0  0
   55.4670   29.9390   43.0940 O   0  0  0  0  0  0  0  0  0  0  0  0
   56.0950   29.3310   45.2630 N   0  0  0  0  0  0  0  0  0  0  0  0
   57.0390   28.2340   45.4410 C   0  0  0  0  0  0  0  0  0  0  0  0
   58.3110   28.7360   46.0650 C   0  0  0  0  0  0  0  0  0  0  0  0
   59.3940   29.1390   45.2640 C   0  0  0  0  0  0  0  0  0  0  0  0
   60.5630   29.6270   45.8550 C   0  0  0  0  0  0  0  0  0  0  0  0
   60.6600   29.7200   47.2460 C   0  0  0  0  0  0  0  0  0  0  0  0
   61.7950   30.1950   47.8170 F   0  0  0  0  0  0  0  0  0  0  0  0
   59.5850   29.3270   48.0490 C   0  0  0  0  0  0  0  0  0  0  0  0
   58.4140   28.8380   47.4630 C   0  0  0  0  0  0  0  0  0  0  0  0
   60.4660   33.0460   47.4350 C   0  0  0  0  0  0  0  0  0  0  0  0
   61.3580   33.4820   46.4290 C   0  0  0  0  0  0  0  0  0  0  0  0
   62.6660   33.8470   46.7500 C   0  0  0  0  0  0  0  0  0  0  0  0
   63.1050   33.8020   48.0720 C   0  0  0  0  0  0  0  0  0  0  0  0
   62.2320   33.4080   49.0850 C   0  0  0  0  0  0  0  0  0  0  0  0
   60.9070   33.0380   48.7820 C   0  0  0  0  0  0  0  0  0  0  0  0
   60.0020   32.6810   49.7970 C   0  0  0  0  0  0  0  0  0  0  0  0
   60.3720   32.6800   51.0050 O   0  0  0  0  0  0  0  0  0  0  0  0
   58.0155   30.7112   52.2016 H   0  0  0  0  0  0  0  0  0  0  0  0
   57.2707   29.9187   50.7720 H   0  0  0  0  0  0  0  0  0  0  0  0
   59.0247   30.3059   50.7720 H   0  0  0  0  0  0  0  0  0  0  0  0
   56.7253   31.9938   50.0532 H   0  0  0  0  0  0  0  0  0  0  0  0
   57.7748   32.7667   51.2991 H   0  0  0  0  0  0  0  0  0  0  0  0
   57.1010   31.0730   46.3240 H   0  0  0  0  0  0  0  0  0  0  0  0
   56.2385   32.3387   44.0079 H   0  0  0  0  0  0  0  0  0  0  0  0
   57.7085   31.4501   43.4627 H   0  0  0  0  0  0  0  0  0  0  0  0
   56.5903   27.4717   46.0949 H   0  0  0  0  0  0  0  0  0  0  0  0
   57.2706   27.7983   44.4579 H   0  0  0  0  0  0  0  0  0  0  0  0
   59.3211   29.0700   44.1686 H   0  0  0  0  0  0  0  0  0  0  0  0
   61.4083   29.9385   45.2238 H   0  0  0  0  0  0  0  0  0  0  0  0
   59.6609   29.4028   49.1438 H   0  0  0  0  0  0  0  0  0  0  0  0
   57.5699   28.5318   48.0984 H   0  0  0  0  0  0  0  0  0  0  0  0
   61.0182   33.5340   45.3841 H   0  0  0  0  0  0  0  0  0  0  0  0
   63.3541   34.1719   45.9556 H   0  0  0  0  0  0  0  0  0  0  0  0
   64.1415   34.0777   48.3164 H   0  0  0  0  0  0  0  0  0  0  0  0
   62.5803   33.3859   50.1282 H   0  0  0  0  0  0  0  0  0  0  0  0
  1  2  1  0
  2  3  1  0
  3  4  1  0
  4  5  2  0
  5  6  1  0
  6  7  2  0
  6  8  1  0
  8  9  1  0
  9 10  1  0
 10 11  2  0
 10 12  1  0
 12 13  1  0
 13 14  1  0
 14 15  2  0
 15 16  1  0
 16 17  2  0
 17 18  1  0
 17 19  1  0
 19 20  2  0
  5 21  1  0
 21 22  2  0
 22 23  1  0
 23 24  2  0
 24 25  1  0
 25 26  2  0
 26 27  1  0
 27 28  2  0
 27  3  1  0
 20 14  1  0
 26 21  1  0
  1 29  1  0
  1 30  1  0
  1 31  1  0
  2 32  1  0
  2 33  1  0
  8 34  1  0
  9 35  1  0
  9 36  1  0
 13 37  1  0
 13 38  1  0
 15 39  1  0
 16 40  1  0
 19 41  1  0
 20 42  1  0
 22 43  1  0
 23 44  1  0
 24 45  1  0
 25 46  1  0
M  CHG  1  12  -1
M  END
>  <UniqueID>  (2) 
2

>  <SMILES>  (2) 
CCn1nc(C(=O)NCC(=O)[N-]Cc2ccc(F)cc2)c2ccccc2c1=O

>  <Energy>  (2) 
52.0101870142416

>  <Genealogy>  (2) 
CCn1nc(C(=O)NCC(=O)[N-]Cc2ccc(F)cc2)c2ccccc2c1=O (protonated)
CCn1nc(C(=O)NCC(=O)[N-]Cc2ccc(F)cc2)c2ccccc2c1=O (3D coordinates assigned)
CCn1nc(C(=O)NCC(=O)[N-]Cc2ccc(F)cc2)c2ccccc2c1=O (optimized conformer: 52.0101870142416 kcal/mol)

>  <smiles>  (2) 
CCn1nc(C(=O)NCC(=O)NCc2ccc(F)cc2)c2ccccc2c1=O

>  <score_type>  (2) 
oracle

>  <origin>  (2) 
adg

>  <m_score__min__energy>  (2) 
-9.5800000000000001

>  <m_primary>  (2) 
energy

$$$$
2:0
     RDKit          3D

 39 41  0  0  0  0  0  0  0  0999 V2000
   59.7700   29.0940   52.1720 C   0  0  0  0  0  0  0  0  0  0  0  0
   58.4220   29.7670   52.1940 C   0  0  0  0  0  0  0  0  0  0  0  0
   57.5350   29.4660   53.2400 C   0  0  0  0  0  0  0  0  0  0  0  0
   56.2720   30.0550   53.2980 C   0  0  0  0  0  0  0  0  0  0  0  0
   55.8740   30.9710   52.3150 C   0  0  0  0  0  0  0  0  0  0  0  0
   54.5800   31.5910   52.3290 N   0  0  0  0  0  0  0  0  0  0  0  0
   53.0710   30.7620   52.5140 S   0  0  0  0  0  0  0  0  0  0  0  0
   53.3340   29.2980   52.7180 O   0  0  0  0  0  0  0  0  0  0  0  0
   52.3540   31.2950   53.7240 O   0  0  0  0  0  0  0  0  0  0  0  0
   52.0970   30.9670   51.0670 C   0  0  0  0  0  0  0  0  0  0  0  0
   52.1040   29.9100   49.7570 S   0  0  0  0  0  0  0  0  0  0  0  0
   51.0190   30.8560   48.8880 C   0  0  0  0  0  0  0  0  0  0  0  0
   50.5980   30.5740   47.7360 O   0  0  0  0  0  0  0  0  0  0  0  0
   50.6430   31.9670   49.5570 N   0  0  0  0  0  0  0  0  0  0  0  0
   51.2460   32.0290   50.7740 C   0  0  0  0  0  0  0  0  0  0  0  0
   51.0200   33.0890   51.6440 O   0  0  0  0  0  0  0  0  0  0  0  0
   56.7610   31.2970   51.2850 C   0  0  0  0  0  0  0  0  0  0  0  0
   58.0360   30.7150   51.2140 C   0  0  0  0  0  0  0  0  0  0  0  0
   59.1150   31.1780   49.8870 S   0  0  0  0  0  0  0  0  0  0  0  0
   58.8930   30.2770   48.7040 O   0  0  0  0  0  0  0  0  0  0  0  0
   60.5380   31.0570   50.3520 O   0  0  0  0  0  0  0  0  0  0  0  0
   58.7780   32.8110   49.4160 N   0  0  0  0  0  0  0  0  0  0  0  0
   58.8530   33.3250   48.0800 C   0  0  0  0  0  0  0  0  0  0  0  0
   57.7840   33.1900   47.1720 C   0  0  0  0  0  0  0  0  0  0  0  0
   57.8900   33.7060   45.8770 C   0  0  0  0  0  0  0  0  0  0  0  0
   59.0590   34.3570   45.4740 C   0  0  0  0  0  0  0  0  0  0  0  0
   60.1240   34.4970   46.3670 C   0  0  0  0  0  0  0  0  0  0  0  0
   60.0240   33.9880   47.6670 C   0  0  0  0  0  0  0  0  0  0  0  0
   61.3840   34.1780   48.7670 Cl  0  0  0  0  0  0  0  0  0  0  0  0
   60.1116   28.9235   53.2036 H   0  0  0  0  0  0  0  0  0  0  0  0
   59.6901   28.1301   51.6482 H   0  0  0  0  0  0  0  0  0  0  0  0
   60.4924   29.7372   51.6482 H   0  0  0  0  0  0  0  0  0  0  0  0
   57.8400   28.7568   54.0236 H   0  0  0  0  0  0  0  0  0  0  0  0
   55.5856   29.7995   54.1187 H   0  0  0  0  0  0  0  0  0  0  0  0
   56.4543   32.0222   50.5169 H   0  0  0  0  0  0  0  0  0  0  0  0
   56.8624   32.6765   47.4833 H   0  0  0  0  0  0  0  0  0  0  0  0
   57.0511   33.5993   45.1735 H   0  0  0  0  0  0  0  0  0  0  0  0
   59.1406   34.7592   44.4534 H   0  0  0  0  0  0  0  0  0  0  0  0
   61.0439   35.0087   46.0476 H   0  0  0  0  0  0  0  0  0  0  0  0
  1  2  1  0
  2  3  2  0
  3  4  1  0
  4  5  2  0
  5  6  1  0
  6  7  1  0
  7  8  2  0
  7  9  2  0
  7 10  1  0
 10 11  1  0
 11 12  1  0
 12 13  2  0
 12 14  1  0
 14 15  1  0
 15 16  1  0
  5 17  1  0
 17 18  2  0
 18 19  1  0
 19 20  2  0
 19 21  2  0
 19 22  1  0
 22 23  1  0
 23 24  2  0
 24 25  1  0
 25 26  2  0
 26 27  1  0
 27 28  2  0
 28 29  1  0
 18  2  1  0
 28 23  1  0
 15 10  2  0
  1 30  1  0
  1 31  1  0
  1 32  1  0
  3 33  1  0
  4 34  1  0
 17 35  1  0
 24 36  1  0
 25 37  1  0
 26 38  1  0
 27 39  1  0
M  CHG  4   6  -1  14  -1  16  -1  22  -1
M  END
>  <UniqueID>  (3) 
3

>  <SMILES>  (3) 
Cc1ccc([N-]S(=O)(=O)c2sc(=O)[n-]c2[O-])cc1S(=O)(=O)[N-]c1ccccc1Cl

>  <Energy>  (3) 
82.4483250767785

>  <Genealogy>  (3) 
Cc1ccc([N-]S(=O)(=O)c2sc(=O)[n-]c2[O-])cc1S(=O)(=O)[N-]c1ccccc1Cl (protonated)
Cc1ccc([N-]S(=O)(=O)c2sc(=O)[n-]c2[O-])cc1S(=O)(=O)[N-]c1ccccc1Cl (3D coordinates assigned)
Cc1ccc([N-]S(=O)(=O)c2sc(=O)[n-]c2[O-])cc1S(=O)(=O)[N-]c1ccccc1Cl (optimized conformer: 82.4483250767785 kcal/mol)

>  <smiles>  (3) 
Cc1ccc(NS(=O)(=O)c2sc(=O)[nH]c2O)cc1S(=O)(=O)Nc1ccccc1Cl

>  <score_type>  (3) 
oracle

>  <origin>  (3) 
adg

>  <m_score__min__energy>  (3) 
-17.73

>  <m_primary>  (3) 
energy

$$$$
3:0
     RDKit          3D

 46 48  0  0  0  0  0  0  0  0999 V2000
   58.5020   31.8600   43.8660 O   0  0  0  0  0  0  0  0  0  0  0  0
   57.4400   32.2210   44.4430 C   0  0  0  0  0  0  0  0  0  0  0  0
   57.2960   33.6640   44.8570 C   0  0  0  0  0  0  0  0  0  0  0  0
   57.6200   33.8730   46.3400 C   0  0  0  0  0  0  0  0  0  0  0  0
   58.9970   33.4820   46.6420 N   0  0  0  0  0  0  0  0  0  0  0  0
   60.0590   34.3050   46.8050 C   0  0  0  0  0  0  0  0  0  0  0  0
   59.9970   35.6930   46.7070 O   0  0  0  0  0  0  0  0  0  0  0  0
   61.1980   33.5720   47.0690 C   0  0  0  0  0  0  0  0  0  0  0  0
   60.8160   32.2480   47.0960 C   0  0  0  0  0  0  0  0  0  0  0  0
   59.4620   32.2230   46.8070 C   0  0  0  0  0  0  0  0  0  0  0  0
   58.6730   31.0790   46.6880 O   0  0  0  0  0  0  0  0  0  0  0  0
   61.7770   31.1060   47.2320 C   0  0  0  0  0  0  0  0  0  0  0  0
   63.1040   31.5930   47.8480 C   0  0  0  0  0  0  0  0  0  0  0  0
   63.5950   32.9070   47.1990 C   0  0  0  0  0  0  0  0  0  0  0  0
   62.5810   34.0530   47.3770 C   0  0  0  0  0  0  0  0  0  0  0  0
   56.3950   31.2530   44.6210 N   0  0  0  0  0  0  0  0  0  0  0  0
   56.3390   29.9240   44.0250 C   0  0  0  0  0  0  0  0  0  0  0  0
   57.1830   28.9790   44.8320 C   0  0  0  0  0  0  0  0  0  0  0  0
   58.4410   29.0200   44.7000 O   0  0  0  0  0  0  0  0  0  0  0  0
   56.6050   28.0440   45.7670 N   0  0  0  0  0  0  0  0  0  0  0  0
   56.7750   26.6250   45.6900 C   0  0  0  0  0  0  0  0  0  0  0  0
   58.0510   26.0790   45.4420 C   0  0  0  0  0  0  0  0  0  0  0  0
   58.2040   24.7020   45.2750 C   0  0  0  0  0  0  0  0  0  0  0  0
   57.0850   23.8610   45.3470 C   0  0  0  0  0  0  0  0  0  0  0  0
   55.8080   24.3980   45.5860 C   0  0  0  0  0  0  0  0  0  0  0  0
   54.4080   23.3290   45.6090 Cl  0  0  0  0  0  0  0  0  0  0  0  0
   55.6520   25.7820   45.7620 C   0  0  0  0  0  0  0  0  0  0  0  0
   54.3840   26.3240   45.9950 O   0  0  0  0  0  0  0  0  0  0  0  0
   57.9828   34.2762   44.2541 H   0  0  0  0  0  0  0  0  0  0  0  0
   56.2494   33.9605   44.6938 H   0  0  0  0  0  0  0  0  0  0  0  0
   57.4860   34.9358   46.5900 H   0  0  0  0  0  0  0  0  0  0  0  0
   56.9414   33.2452   46.9361 H   0  0  0  0  0  0  0  0  0  0  0  0
   58.2110   30.8520   45.8170 H   0  0  0  0  0  0  0  0  0  0  0  0
   61.3360   30.3363   47.8824 H   0  0  0  0  0  0  0  0  0  0  0  0
   61.9781   30.6872   46.2349 H   0  0  0  0  0  0  0  0  0  0  0  0
   62.9548   31.7626   48.9246 H   0  0  0  0  0  0  0  0  0  0  0  0
   63.8659   30.8200   47.6691 H   0  0  0  0  0  0  0  0  0  0  0  0
   64.5470   33.1995   47.6659 H   0  0  0  0  0  0  0  0  0  0  0  0
   63.7190   32.7276   46.1208 H   0  0  0  0  0  0  0  0  0  0  0  0
   62.6177   34.4125   48.4160 H   0  0  0  0  0  0  0  0  0  0  0  0
   62.8385   34.8704   46.6874 H   0  0  0  0  0  0  0  0  0  0  0  0
   55.2977   29.5695   44.0159 H   0  0  0  0  0  0  0  0  0  0  0  0
   56.7198   29.9675   42.9939 H   0  0  0  0  0  0  0  0  0  0  0  0
   58.9280   26.7400   45.3800 H   0  0  0  0  0  0  0  0  0  0  0  0
   59.2012   24.2773   45.0872 H   0  0  0  0  0  0  0  0  0  0  0  0
   57.2066   22.7756   45.2159 H   0  0  0  0  0  0  0  0  0  0  0  0
  1  2  2  0
  2  3  1  0
  3  4  1  0
  4  5  1  0
  5  6  1  0
  6  7  1  0
  6  8  2  0
  8  9  1  0
  9 10  2  0
 10 11  1  0
  9 12  1  0
 12 13  1  0
 13 14  1  0
 14 15  1  0
  2 16  1  0
 16 17  1  0
 17 18  1  0
 18 19  2  0
 18 20  1  0
 20 21  1  0
 21 22  2  0
 22 23  1  0
 23 24  2  0
 24 25  1  0
 25 26  1  0
 25 27  2  0
 27 28  1  0
 10  5  1  0
 27 21  1  0
 15  8  1  0
  3 29  1  0
  3 30  1  0
  4 31  1  0
  4 32  1  0
 11 33  1  0
 12 34  1  0
 12 35  1  0
 13 36  1  0
 13 37  1  0
 14 38  1  0
 14 39  1  0
 15 40  1  0
 15 41  1  0
 17 42  1  0
 17 43  1  0
 22 44  1  0
 23 45  1  0
 24 46  1  0
M  CHG  4   7  -1  16  -1  20  -1  28  -1
M  END
>  <UniqueID>  (4) 
4

>  <SMILES>  (4) 
O=C(CCn1c([O-])c2c(c1O)CCCC2)[N-]CC(=O)[N-]c1cccc(Cl)c1[O-]

>  <Energy>  (4) 
74.40903822911724

>  <Genealogy>  (4) 
O=C(CCn1c([O-])c2c(c1O)CCCC2)[N-]CC(=O)[N-]c1cccc(Cl)c1[O-] (protonated)
O=C(CCn1c([O-])c2c(c1O)CCCC2)[N-]CC(=O)[N-]c1cccc(Cl)c1[O-] (3D coordinates assigned)
O=C(CCn1c([O-])c2c(c1O)CCCC2)[N-]CC(=O)[N-]c1cccc(Cl)c1[O-] (nonaromatic ring conformer: 74.40903822911724 kcal/mol)

>  <smiles>  (4) 
O=C(CCn1c(O)c2c(c1O)CCCC2)NCC(=O)Nc1cccc(Cl)c1O

>  <score_type>  (4) 
oracle

>  <origin>  (4) 
adg

>  <m_score__min__energy>  (4) 
-16.280000000000001

>  <m_primary>  (4) 
energy

$$$$
4:0
     RDKit          3D

 55 58  0  0  0  0  0  0  0  0999 V2000
   59.7890   30.3480   46.7070 O   0  0  0  0  0  0  0  0  0  0  0  0
   60.1260   29.7210   47.7480 C   0  0  0  0  0  0  0  0  0  0  0  0
   60.2970   30.4290   48.9940 N   0  0  0  0  0  0  0  0  0  0  0  0
   60.2330   31.8950   49.0350 C   0  0  0  0  0  0  0  0  0  0  0  0
   61.3630   32.4930   48.2370 C   0  0  0  0  0  0  0  0  0  0  0  0
   61.0860   33.3360   47.1480 C   0  0  0  0  0  0  0  0  0  0  0  0
   62.1290   33.8540   46.3720 C   0  0  0  0  0  0  0  0  0  0  0  0
   63.4530   33.5330   46.6760 C   0  0  0  0  0  0  0  0  0  0  0  0
   63.7390   32.6930   47.7570 C   0  0  0  0  0  0  0  0  0  0  0  0
   62.7020   32.1700   48.5360 C   0  0  0  0  0  0  0  0  0  0  0  0
   63.0030   31.3530   49.5760 F   0  0  0  0  0  0  0  0  0  0  0  0
   60.7650   29.7000   50.1800 C   0  0  0  0  0  0  0  0  0  0  0  0
   60.2600   28.2590   50.1680 C   0  0  0  0  0  0  0  0  0  0  0  0
   60.7160   27.5500   48.8920 C   0  0  0  0  0  0  0  0  0  0  0  0
   60.3000   28.2930   47.7000 N   0  0  0  0  0  0  0  0  0  0  0  0
   60.1450   27.4500   46.1860 S   0  0  0  0  0  0  0  0  0  0  0  0
   60.2250   28.4540   45.0690 O   0  0  0  0  0  0  0  0  0  0  0  0
   61.2660   26.4610   46.0310 O   0  0  0  0  0  0  0  0  0  0  0  0
   58.6040   26.5860   46.1410 C   0  0  0  0  0  0  0  0  0  0  0  0
   58.6060   25.1840   46.2050 C   0  0  0  0  0  0  0  0  0  0  0  0
   57.4060   24.4720   46.1800 C   0  0  0  0  0  0  0  0  0  0  0  0
   56.1930   25.1520   46.0830 C   0  0  0  0  0  0  0  0  0  0  0  0
   56.1750   26.5470   46.0040 C   0  0  0  0  0  0  0  0  0  0  0  0
   57.3780   27.2780   46.0320 C   0  0  0  0  0  0  0  0  0  0  0  0
   57.3820   28.7110   45.9440 N   0  0  0  0  0  0  0  0  0  0  0  0
   56.7110   29.6420   44.6440 S   0  0  0  0  0  0  0  0  0  0  0  0
   57.0060   28.9530   43.3440 O   0  0  0  0  0  0  0  0  0  0  0  0
   55.2220   29.7350   44.8230 O   0  0  0  0  0  0  0  0  0  0  0  0
   57.4350   31.2470   44.6140 C   0  0  0  0  0  0  0  0  0  0  0  0
   57.5410   31.9930   45.7970 C   0  0  0  0  0  0  0  0  0  0  0  0
   58.0960   33.2770   45.7690 C   0  0  0  0  0  0  0  0  0  0  0  0
   58.5500   33.8180   44.5630 C   0  0  0  0  0  0  0  0  0  0  0  0
   58.4540   33.0730   43.3830 C   0  0  0  0  0  0  0  0  0  0  0  0
   57.9000   31.7900   43.4070 C   0  0  0  0  0  0  0  0  0  0  0  0
   59.2741   32.2279   48.6110 H   0  0  0  0  0  0  0  0  0  0  0  0
   60.3198   32.2267   50.0802 H   0  0  0  0  0  0  0  0  0  0  0  0
   60.0440   33.5902   46.9040 H   0  0  0  0  0  0  0  0  0  0  0  0
   61.9052   34.5148   45.5216 H   0  0  0  0  0  0  0  0  0  0  0  0
   64.2718   33.9409   46.0651 H   0  0  0  0  0  0  0  0  0  0  0  0
   64.7833   32.4428   47.9953 H   0  0  0  0  0  0  0  0  0  0  0  0
   61.8650   29.6961   50.1896 H   0  0  0  0  0  0  0  0  0  0  0  0
   60.3748   30.2018   51.0778 H   0  0  0  0  0  0  0  0  0  0  0  0
   60.6610   27.7262   51.0428 H   0  0  0  0  0  0  0  0  0  0  0  0
   59.1606   28.2638   50.2025 H   0  0  0  0  0  0  0  0  0  0  0  0
   61.8128   27.4669   48.8992 H   0  0  0  0  0  0  0  0  0  0  0  0
   60.2536   26.5524   48.8616 H   0  0  0  0  0  0  0  0  0  0  0  0
   59.5607   24.6422   46.2754 H   0  0  0  0  0  0  0  0  0  0  0  0
   57.4173   23.3735   46.2369 H   0  0  0  0  0  0  0  0  0  0  0  0
   55.2480   24.5892   46.0686 H   0  0  0  0  0  0  0  0  0  0  0  0
   55.2150   27.0773   45.9194 H   0  0  0  0  0  0  0  0  0  0  0  0
   57.1873   31.5680   46.7480 H   0  0  0  0  0  0  0  0  0  0  0  0
   58.1751   33.8615   46.6975 H   0  0  0  0  0  0  0  0  0  0  0  0
   58.9826   34.8291   44.5417 H   0  0  0  0  0  0  0  0  0  0  0  0
   58.8151   33.4976   42.4346 H   0  0  0  0  0  0  0  0  0  0  0  0
   57.8285   31.2052   42.4781 H   0  0  0  0  0  0  0  0  0  0  0  0
  1  2  2  0
  2  3  1  0
  3  4  1  0
  4  5  1  0
  5  6  2  0
  6  7  1  0
  7  8  2  0
  8  9  1  0
  9 10  2  0
 10 11  1  0
  3 12  1  0
 12 13  1  0
 13 14  1  0
 14 15  1  0
 15 16  1  0
 16 17  2  0
 16 18  2  0
 16 19  1  0
 19 20  2  0
 20 21  1  0
 21 22  2  0
 22 23  1  0
 23 24  2  0
 24 25  1  0
 25 26  1  0
 26 27  2  0
 26 28  2  0
 26 29  1  0
 29 30  2  0
 30 31  1  0
 31 32  2  0
 32 33  1  0
 33 34  2  0
 15  2  1  0
 24 19  1  0
 34 29  1  0
 10  5  1  0
  4 35  1  0
  4 36  1  0
  6 37  1  0
  7 38  1  0
  8 39  1  0
  9 40  1  0
 12 41  1  0
 12 42  1  0
 13 43  1  0
 13 44  1  0
 14 45  1  0
 14 46  1  0
 20 47  1  0
 21 48  1  0
 22 49  1  0
 23 50  1  0
 30 51  1  0
 31 52  1  0
 32 53  1  0
 33 54  1  0
 34 55  1  0
M  CHG  1  25  -1
M  END
>  <UniqueID>  (5) 
5

>  <SMILES>  (5) 
O=C1N(Cc2ccccc2F)CCCN1S(=O)(=O)c1ccccc1[N-]S(=O)(=O)c1ccccc1

>  <Energy>  (5) 
60.93187747026514

>  <Genealogy>  (5) 
O=C1N(Cc2ccccc2F)CCCN1S(=O)(=O)c1ccccc1[N-]S(=O)(=O)c1ccccc1 (protonated)
O=C1N(Cc2ccccc2F)CCCN1S(=O)(=O)c1ccccc1[N-]S(=O)(=O)c1ccccc1 (3D coordinates assigned)
O=C1N(Cc2ccccc2F)CCCN1S(=O)(=O)c1ccccc1[N-]S(=O)(=O)c1ccccc1 (nonaromatic ring conformer: 60.93187747026514 kcal/mol)

>  <smiles>  (5) 
O=C1N(Cc2ccccc2F)CCCN1S(=O)(=O)c1ccccc1NS(=O)(=O)c1ccccc1

>  <score_type>  (5) 
oracle

>  <origin>  (5) 
adg

>  <m_score__min__energy>  (5) 
-13.449999999999999

>  <m_primary>  (5) 
energy

$$$$
5:0
     RDKit          3D

 48 51  0  0  0  0  0  0  0  0999 V2000
   60.3130   26.7420   48.9570 O   0  0  0  0  0  0  0  0  0  0  0  0
   60.2280   27.0560   47.7390 C   0  0  0  0  0  0  0  0  0  0  0  0
   60.0960   25.9700   46.7150 C   0  0  0  0  0  0  0  0  0  0  0  0
   58.3370   25.5660   46.4200 S   0  0  0  0  0  0  0  0  0  0  0  0
   57.9360   27.1520   45.6910 C   0  0  0  0  0  0  0  0  0  0  0  0
   58.9350   27.9420   45.1770 N   0  0  0  0  0  0  0  0  0  0  0  0
   58.6580   29.1460   44.5960 C   0  0  0  0  0  0  0  0  0  0  0  0
   59.5800   29.8620   44.1260 O   0  0  0  0  0  0  0  0  0  0  0  0
   57.3300   29.5450   44.5380 C   0  0  0  0  0  0  0  0  0  0  0  0
   56.6720   30.6350   44.0250 C   0  0  0  0  0  0  0  0  0  0  0  0
   55.3450   30.4610   44.2500 N   0  0  0  0  0  0  0  0  0  0  0  0
   55.1510   29.3070   44.8820 N   0  0  0  0  0  0  0  0  0  0  0  0
   56.3610   28.7550   45.0570 C   0  0  0  0  0  0  0  0  0  0  0  0
   56.6330   27.5630   45.6380 N   0  0  0  0  0  0  0  0  0  0  0  0
   60.1850   28.4330   47.3330 N   0  0  0  0  0  0  0  0  0  0  0  0
   59.9380   29.5290   48.2300 C   0  0  0  0  0  0  0  0  0  0  0  0
   59.3250   29.3370   49.4800 C   0  0  0  0  0  0  0  0  0  0  0  0
   59.1000   30.4250   50.3270 C   0  0  0  0  0  0  0  0  0  0  0  0
   59.4950   31.7100   49.9440 C   0  0  0  0  0  0  0  0  0  0  0  0
   60.1270   31.9120   48.7090 C   0  0  0  0  0  0  0  0  0  0  0  0
   60.6570   33.5280   48.2330 S   0  0  0  0  0  0  0  0  0  0  0  0
   60.8690   34.3650   49.4650 O   0  0  0  0  0  0  0  0  0  0  0  0
   61.9730   33.4250   47.5110 O   0  0  0  0  0  0  0  0  0  0  0  0
   59.4850   34.3130   47.2000 N   0  0  0  0  0  0  0  0  0  0  0  0
   58.1420   33.6870   47.3180 C   0  0  0  0  0  0  0  0  0  0  0  0
   57.7130   32.9290   46.0540 C   0  0  0  0  0  0  0  0  0  0  0  0
   57.7330   33.8550   44.8270 C   0  0  0  0  0  0  0  0  0  0  0  0
   58.9030   34.8580   44.8530 C   0  0  0  0  0  0  0  0  0  0  0  0
   60.0040   34.4130   45.8190 C   0  0  0  0  0  0  0  0  0  0  0  0
   60.3540   30.8180   47.8620 C   0  0  0  0  0  0  0  0  0  0  0  0
   60.5519   26.3061   45.7720 H   0  0  0  0  0  0  0  0  0  0  0  0
   60.6068   25.0699   47.0878 H   0  0  0  0  0  0  0  0  0  0  0  0
   57.1370   31.4955   43.5217 H   0  0  0  0  0  0  0  0  0  0  0  0
   60.0980   28.6230   46.3080 H   0  0  0  0  0  0  0  0  0  0  0  0
   59.0214   28.3269   49.7924 H   0  0  0  0  0  0  0  0  0  0  0  0
   58.6099   30.2698   51.2995 H   0  0  0  0  0  0  0  0  0  0  0  0
   59.3097   32.5637   50.6124 H   0  0  0  0  0  0  0  0  0  0  0  0
   58.1591   32.9799   48.1604 H   0  0  0  0  0  0  0  0  0  0  0  0
   57.4163   34.4989   47.4734 H   0  0  0  0  0  0  0  0  0  0  0  0
   58.4049   32.0908   45.8842 H   0  0  0  0  0  0  0  0  0  0  0  0
   56.6878   32.5572   46.1976 H   0  0  0  0  0  0  0  0  0  0  0  0
   57.8207   33.2365   43.9216 H   0  0  0  0  0  0  0  0  0  0  0  0
   56.7991   34.4361   44.8361 H   0  0  0  0  0  0  0  0  0  0  0  0
   59.3268   34.9387   43.8411 H   0  0  0  0  0  0  0  0  0  0  0  0
   58.5165   35.8294   45.1951 H   0  0  0  0  0  0  0  0  0  0  0  0
   60.3832   33.4295   45.5046 H   0  0  0  0  0  0  0  0  0  0  0  0
   60.8114   35.1598   45.8000 H   0  0  0  0  0  0  0  0  0  0  0  0
   60.8634   30.9715   46.8992 H   0  0  0  0  0  0  0  0  0  0  0  0
  1  2  2  0
  2  3  1  0
  3  4  1  0
  4  5  1  0
  5  6  2  0
  6  7  1  0
  7  8  2  0
  7  9  1  0
  9 10  2  0
 10 11  1  0
 11 12  1  0
 12 13  2  0
 13 14  1  0
  2 15  1  0
 15 16  1  0
 16 17  2  0
 17 18  1  0
 18 19  2  0
 19 20  1  0
 20 21  1  0
 21 22  2  0
 21 23  2  0
 21 24  1  0
 24 25  1  0
 25 26  1  0
 26 27  1  0
 27 28  1  0
 28 29  1  0
 20 30  2  0
 14  5  1  0
 30 16  1  0
 13  9  1  0
 29 24  1  0
  3 31  1  0
  3 32  1  0
 10 33  1  0
 15 34  1  0
 17 35  1  0
 18 36  1  0
 19 37  1  0
 25 38  1  0
 25 39  1  0
 26 40  1  0
 26 41  1  0
 27 42  1  0
 27 43  1  0
 28 44  1  0
 28 45  1  0
 29 46  1  0
 29 47  1  0
 30 48  1  0
M  CHG  2  11  -1  14  -1
M  END
>  <UniqueID>  (6) 
6

>  <SMILES>  (6) 
O=C(CSc1nc(=O)c2c[n-]nc2[n-]1)Nc1cccc(S(=O)(=O)N2CCCCC2)c1

>  <Energy>  (6) 
94.98506490211429

>  <Genealogy>  (6) 
O=C(CSc1nc(=O)c2c[n-]nc2[n-]1)Nc1cccc(S(=O)(=O)N2CCCCC2)c1 (protonated)
O=C(CSc1nc(=O)c2c[n-]nc2[n-]1)Nc1cccc(S(=O)(=O)N2CCCCC2)c1 (3D coordinates assigned)
O=C(CSc1nc(=O)c2c[n-]nc2[n-]1)Nc1cccc(S(=O)(=O)N2CCCCC2)c1 (nonaromatic ring conformer: 94.98506490211429 kcal/mol)

>  <smiles>  (6) 
O=C(CSc1nc(=O)c2c[nH]nc2[nH]1)Nc1cccc(S(=O)(=O)N2CCCCC2)c1

>  <score_type>  (6) 
oracle

>  <origin>  (6) 
adg

>  <m_score__min__energy>  (6) 
-15.08

>  <m_primary>  (6) 
energy

$$$$
6:0
     RDKit          3D

 52 54  0  0  0  0  0  0  0  0999 V2000
   60.7560   28.6190   49.1150 C   0  0  0  0  0  0  0  0  0  0  0  0
   60.1140   27.5670   48.2610 C   0  0  0  0  0  0  0  0  0  0  0  0
   60.3010   26.3550   48.5580 O   0  0  0  0  0  0  0  0  0  0  0  0
   59.3310   27.9120   47.0980 N   0  0  0  0  0  0  0  0  0  0  0  0
   59.3900   29.2710   46.5330 C   0  0  0  0  0  0  0  0  0  0  0  0
   58.9440   29.2870   45.0650 C   0  0  0  0  0  0  0  0  0  0  0  0
   57.5540   28.6370   44.8500 C   0  0  0  0  0  0  0  0  0  0  0  0
   56.4600   29.6740   44.8350 C   0  0  0  0  0  0  0  0  0  0  0  0
   55.3040   29.3740   45.2410 O   0  0  0  0  0  0  0  0  0  0  0  0
   56.7230   30.9670   44.2740 N   0  0  0  0  0  0  0  0  0  0  0  0
   57.3320   32.0730   44.9540 C   0  0  0  0  0  0  0  0  0  0  0  0
   57.4340   33.3010   44.2880 C   0  0  0  0  0  0  0  0  0  0  0  0
   58.0260   34.3990   44.9180 C   0  0  0  0  0  0  0  0  0  0  0  0
   58.5410   34.2740   46.2100 C   0  0  0  0  0  0  0  0  0  0  0  0
   58.4770   33.0410   46.8740 C   0  0  0  0  0  0  0  0  0  0  0  0
   59.1830   32.8460   48.4760 S   0  0  0  0  0  0  0  0  0  0  0  0
   59.6200   34.1730   49.0340 O   0  0  0  0  0  0  0  0  0  0  0  0
   58.1460   32.2510   49.3860 O   0  0  0  0  0  0  0  0  0  0  0  0
   60.5520   31.7820   48.3920 N   0  0  0  0  0  0  0  0  0  0  0  0
   61.9080   32.2220   48.6080 C   0  0  0  0  0  0  0  0  0  0  0  0
   62.6490   31.7560   49.7090 C   0  0  0  0  0  0  0  0  0  0  0  0
   63.9590   32.1890   49.9120 C   0  0  0  0  0  0  0  0  0  0  0  0
   64.5320   33.0800   49.0090 C   0  0  0  0  0  0  0  0  0  0  0  0
   63.8170   33.5190   47.9400 N   0  0  0  0  0  0  0  0  0  0  0  0
   62.5330   33.1210   47.7120 C   0  0  0  0  0  0  0  0  0  0  0  0
   61.8170   33.6690   46.5140 C   0  0  0  0  0  0  0  0  0  0  0  0
   57.8770   31.9420   46.2440 C   0  0  0  0  0  0  0  0  0  0  0  0
   57.2280   27.5310   45.8830 C   0  0  0  0  0  0  0  0  0  0  0  0
   58.4950   26.8890   46.4510 C   0  0  0  0  0  0  0  0  0  0  0  0
   60.6053   28.3720   50.1763 H   0  0  0  0  0  0  0  0  0  0  0  0
   61.8335   28.6605   48.8976 H   0  0  0  0  0  0  0  0  0  0  0  0
   60.3002   29.5962   48.8976 H   0  0  0  0  0  0  0  0  0  0  0  0
   58.7287   29.9296   47.1151 H   0  0  0  0  0  0  0  0  0  0  0  0
   60.4316   29.6214   46.5821 H   0  0  0  0  0  0  0  0  0  0  0  0
   58.8997   30.3315   44.7230 H   0  0  0  0  0  0  0  0  0  0  0  0
   59.6756   28.6991   44.4913 H   0  0  0  0  0  0  0  0  0  0  0  0
   57.6025   28.1506   43.8646 H   0  0  0  0  0  0  0  0  0  0  0  0
   57.0460   33.4016   43.2636 H   0  0  0  0  0  0  0  0  0  0  0  0
   58.0865   35.3646   44.3946 H   0  0  0  0  0  0  0  0  0  0  0  0
   58.9969   35.1431   46.7068 H   0  0  0  0  0  0  0  0  0  0  0  0
   60.3640   30.8090   48.0640 H   0  0  0  0  0  0  0  0  0  0  0  0
   62.1925   31.0458   50.4141 H   0  0  0  0  0  0  0  0  0  0  0  0
   64.5343   31.8297   50.7779 H   0  0  0  0  0  0  0  0  0  0  0  0
   65.5641   33.4289   49.1608 H   0  0  0  0  0  0  0  0  0  0  0  0
   60.9839   34.3066   46.8447 H   0  0  0  0  0  0  0  0  0  0  0  0
   62.5168   34.2644   45.9092 H   0  0  0  0  0  0  0  0  0  0  0  0
   61.4250   32.8380   45.9092 H   0  0  0  0  0  0  0  0  0  0  0  0
   57.8321   30.9722   46.7611 H   0  0  0  0  0  0  0  0  0  0  0  0
   56.6531   27.9745   46.7093 H   0  0  0  0  0  0  0  0  0  0  0  0
   56.6487   26.7477   45.3722 H   0  0  0  0  0  0  0  0  0  0  0  0
   58.2157   26.1251   47.1916 H   0  0  0  0  0  0  0  0  0  0  0  0
   59.0628   26.4242   45.6315 H   0  0  0  0  0  0  0  0  0  0  0  0
  1  2  1  0
  2  3  2  0
  2  4  1  0
  4  5  1  0
  5  6  1  0
  6  7  1  0
  7  8  1  0
  8  9  2  0
  8 10  1  0
 10 11  1  0
 11 12  2  0
 12 13  1  0
 13 14  2  0
 14 15  1  0
 15 16  1  0
 16 17  2  0
 16 18  2  0
 16 19  1  0
 19 20  1  0
 20 21  2  0
 21 22  1  0
 22 23  2  0
 23 24  1  0
 24 25  2  0
 25 26  1  0
 15 27  2  0
  7 28  1  0
 28 29  1  0
 29  4  1  0
 27 11  1  0
 25 20  1  0
  1 30  1  0
  1 31  1  0
  1 32  1  0
  5 33  1  0
  5 34  1  0
  6 35  1  0
  6 36  1  0
  7 37  1  0
 12 38  1  0
 13 39  1  0
 14 40  1  0
 19 41  1  0
 21 42  1  0
 22 43  1  0
 23 44  1  0
 26 45  1  0
 26 46  1  0
 26 47  1  0
 27 48  1  0
 28 49  1  0
 28 50  1  0
 29 51  1  0
 29 52  1  0
M  CHG  1  10  -1
M  END
>  <UniqueID>  (7) 
7

>  <SMILES>  (7) 
CC(=O)N1CCC(C(=O)[N-]c2cccc(S(=O)(=O)Nc3cccnc3C)c2)CC1

>  <Energy>  (7) 
60.63067247567437

>  <Genealogy>  (7) 
CC(=O)N1CCC(C(=O)[N-]c2cccc(S(=O)(=O)Nc3cccnc3C)c2)CC1 (protonated)
CC(=O)N1CCC(C(=O)[N-]c2cccc(S(=O)(=O)Nc3cccnc3C)c2)CC1 (3D coordinates assigned)
CC(=O)N1CCC(C(=O)[N-]c2cccc(S(=O)(=O)Nc3cccnc3C)c2)CC1 (nonaromatic ring conformer: 60.63067247567437 kcal/mol)

>  <smiles>  (7) 
CC(=O)N1CCC(C(=O)Nc2cccc(S(=O)(=O)Nc3cccnc3C)c2)CC1

>  <score_type>  (7) 
oracle

>  <origin>  (7) 
adg

>  <m_score__min__energy>  (7) 
-10.76

>  <m_primary>  (7) 
energy

$$$$
7:0
     RDKit          3D

 73 78  0  0  0  0  0  0  0  0999 V2000
   58.2170   24.5660   47.1790 O   0  0  0  0  0  0  0  0  0  0  0  0
   59.1460   25.5260   46.4830 S   0  0  0  0  0  0  0  0  0  0  0  0
   60.3290   24.7390   45.9900 O   0  0  0  0  0  0  0  0  0  0  0  0
   59.7090   26.7350   47.6440 C   0  0  0  0  0  0  0  0  0  0  0  0
   60.3830   26.3430   48.8000 C   0  0  0  0  0  0  0  0  0  0  0  0
   60.6980   27.2810   49.7890 C   0  0  0  0  0  0  0  0  0  0  0  0
   60.3040   28.6360   49.6720 C   0  0  0  0  0  0  0  0  0  0  0  0
   60.4790   29.5530   50.8570 C   0  0  0  0  0  0  0  0  0  0  0  0
   60.9020   28.8590   52.3020 S   0  0  0  0  0  0  0  0  0  0  0  0
   60.3860   31.0070   50.7960 N   0  0  0  0  0  0  0  0  0  0  0  0
   61.1900   31.8170   51.7300 C   0  0  0  0  0  0  0  0  0  0  0  0
   61.4730   33.2090   51.1420 C   0  0  0  0  0  0  0  0  0  0  0  0
   60.2600   33.9140   50.6490 N   0  0  0  0  0  0  0  0  0  0  0  0
   60.4920   34.5450   49.3340 C   0  0  0  0  0  0  0  0  0  0  0  0
   61.4940   33.7480   48.5430 C   0  0  0  0  0  0  0  0  0  0  0  0
   62.8480   34.1520   48.5090 C   0  0  0  0  0  0  0  0  0  0  0  0
   63.7850   33.4010   47.7940 C   0  0  0  0  0  0  0  0  0  0  0  0
   63.3900   32.2420   47.1150 C   0  0  0  0  0  0  0  0  0  0  0  0
   62.0520   31.8330   47.1480 C   0  0  0  0  0  0  0  0  0  0  0  0
   61.1030   32.5830   47.8530 C   0  0  0  0  0  0  0  0  0  0  0  0
   59.0350   33.0850   50.6640 C   0  0  0  0  0  0  0  0  0  0  0  0
   59.2800   31.6820   50.1030 C   0  0  0  0  0  0  0  0  0  0  0  0
   59.6620   29.0200   48.4760 C   0  0  0  0  0  0  0  0  0  0  0  0
   59.3790   28.0850   47.4750 C   0  0  0  0  0  0  0  0  0  0  0  0
   58.3200   26.2420   45.1210 N   0  0  0  0  0  0  0  0  0  0  0  0
   59.1180   27.3560   44.5680 C   0  0  0  0  0  0  0  0  0  0  0  0
   58.2880   28.2120   43.6110 C   0  0  0  0  0  0  0  0  0  0  0  0
   57.0920   28.8570   44.3450 C   0  0  0  0  0  0  0  0  0  0  0  0
   57.3930   30.2950   44.6940 C   0  0  0  0  0  0  0  0  0  0  0  0
   57.7070   31.2900   43.7660 C   0  0  0  0  0  0  0  0  0  0  0  0
   58.0200   32.3980   44.5230 C   0  0  0  0  0  0  0  0  0  0  0  0
   58.4260   33.6730   44.1360 C   0  0  0  0  0  0  0  0  0  0  0  0
   58.6910   34.6120   45.1440 C   0  0  0  0  0  0  0  0  0  0  0  0
   58.5430   34.2600   46.5040 C   0  0  0  0  0  0  0  0  0  0  0  0
   58.1250   32.9640   46.8650 C   0  0  0  0  0  0  0  0  0  0  0  0
   57.8760   32.0520   45.8400 C   0  0  0  0  0  0  0  0  0  0  0  0
   57.5030   30.7680   45.9600 N   0  0  0  0  0  0  0  0  0  0  0  0
   56.6460   28.0640   45.5960 C   0  0  0  0  0  0  0  0  0  0  0  0
   56.9070   26.5620   45.4380 C   0  0  0  0  0  0  0  0  0  0  0  0
   60.6689   25.2894   48.9352 H   0  0  0  0  0  0  0  0  0  0  0  0
   61.2635   26.9592   50.6759 H   0  0  0  0  0  0  0  0  0  0  0  0
   60.6391   31.9301   52.6754 H   0  0  0  0  0  0  0  0  0  0  0  0
   62.1487   31.3064   51.9039 H   0  0  0  0  0  0  0  0  0  0  0  0
   61.9387   33.8269   51.9239 H   0  0  0  0  0  0  0  0  0  0  0  0
   62.1307   33.0603   50.2729 H   0  0  0  0  0  0  0  0  0  0  0  0
   59.5430   34.5879   48.7794 H   0  0  0  0  0  0  0  0  0  0  0  0
   60.8839   35.5611   49.4883 H   0  0  0  0  0  0  0  0  0  0  0  0
   63.1646   35.0584   49.0458 H   0  0  0  0  0  0  0  0  0  0  0  0
   64.8368   33.7217   47.7646 H   0  0  0  0  0  0  0  0  0  0  0  0
   64.1315   31.6528   46.5555 H   0  0  0  0  0  0  0  0  0  0  0  0
   61.7449   30.9192   46.6182 H   0  0  0  0  0  0  0  0  0  0  0  0
   60.0508   32.2625   47.8684 H   0  0  0  0  0  0  0  0  0  0  0  0
   58.6808   32.9949   51.7015 H   0  0  0  0  0  0  0  0  0  0  0  0
   58.2858   33.5776   50.0268 H   0  0  0  0  0  0  0  0  0  0  0  0
   58.3647   31.0841   50.2248 H   0  0  0  0  0  0  0  0  0  0  0  0
   59.5481   31.7787   49.0406 H   0  0  0  0  0  0  0  0  0  0  0  0
   59.3791   30.0727   48.3281 H   0  0  0  0  0  0  0  0  0  0  0  0
   58.8920   28.4139   46.5451 H   0  0  0  0  0  0  0  0  0  0  0  0
   59.4745   27.9868   45.3956 H   0  0  0  0  0  0  0  0  0  0  0  0
   59.9653   26.9322   44.0090 H   0  0  0  0  0  0  0  0  0  0  0  0
   58.9248   29.0057   43.1933 H   0  0  0  0  0  0  0  0  0  0  0  0
   57.9014   27.5672   42.8080 H   0  0  0  0  0  0  0  0  0  0  0  0
   56.2432   28.8298   43.6458 H   0  0  0  0  0  0  0  0  0  0  0  0
   57.7049   31.2073   42.6691 H   0  0  0  0  0  0  0  0  0  0  0  0
   58.5354   33.9354   43.0734 H   0  0  0  0  0  0  0  0  0  0  0  0
   59.0157   35.6277   44.8739 H   0  0  0  0  0  0  0  0  0  0  0  0
   58.7556   35.0031   47.2867 H   0  0  0  0  0  0  0  0  0  0  0  0
   57.9992   32.6809   47.9205 H   0  0  0  0  0  0  0  0  0  0  0  0
   57.3850   30.2380   46.8570 H   0  0  0  0  0  0  0  0  0  0  0  0
   57.2038   28.4328   46.4694 H   0  0  0  0  0  0  0  0  0  0  0  0
   55.5640   28.2120   45.7280 H   0  0  0  0  0  0  0  0  0  0  0  0
   56.6381   26.0601   46.3791 H   0  0  0  0  0  0  0  0  0  0  0  0
   56.2963   26.2125   44.5925 H   0  0  0  0  0  0  0  0  0  0  0  0
  1  2  2  0
  2  3  2  0
  2  4  1  0
  4  5  2  0
  5  6  1  0
  6  7  2  0
  7  8  1  0
  8  9  2  0
  8 10  1  0
 10 11  1  0
 11 12  1  0
 12 13  1  0
 13 14  1  0
 14 15  1  0
 15 16  2  0
 16 17  1  0
 17 18  2  0
 18 19  1  0
 19 20  2  0
 13 21  1  0
 21 22  1  0
  7 23  1  0
 23 24  2  0
  2 25  1  0
 25 26  1  0
 26 27  1  0
 27 28  1  0
 28 29  1  0
 29 30  2  0
 30 31  1  0
 31 32  2  0
 32 33  1  0
 33 34  2  0
 34 35  1  0
 35 36  2  0
 36 37  1  0
 28 38  1  0
 38 39  1  0
 24  4  1  0
 39 25  1  0
 22 10  1  0
 37 29  1  0
 20 15  1  0
 36 31  1  0
  5 40  1  0
  6 41  1  0
 11 42  1  0
 11 43  1  0
 12 44  1  0
 12 45  1  0
 14 46  1  0
 14 47  1  0
 16 48  1  0
 17 49  1  0
 18 50  1  0
 19 51  1  0
 20 52  1  0
 21 53  1  0
 21 54  1  0
 22 55  1  0
 22 56  1  0
 23 57  1  0
 24 58  1  0
 26 59  1  0
 26 60  1  0
 27 61  1  0
 27 62  1  0
 28 63  1  0
 30 64  1  0
 32 65  1  0
 33 66  1  0
 34 67  1  0
 35 68  1  0
 37 69  1  0
 38 70  1  0
 38 71  1  0
 39 72  1  0
 39 73  1  0
M  END
>  <UniqueID>  (8) 
8

>  <SMILES>  (8) 
O=S(=O)(c1ccc(C(=S)N2CCN(Cc3ccccc3)CC2)cc1)N1CCC(c2cc3ccccc3[nH]2)CC1

>  <Energy>  (8) 
142.21781115320044

>  <Genealogy>  (8) 
O=S(=O)(c1ccc(C(=S)N2CCN(Cc3ccccc3)CC2)cc1)N1CCC(c2cc3ccccc3[nH]2)CC1 (3D coordinates assigned)
O=S(=O)(c1ccc(C(=S)N2CCN(Cc3ccccc3)CC2)cc1)N1CCC(c2cc3ccccc3[nH]2)CC1 (nonaromatic ring conformer: 142.21781115320044 kcal/mol)

>  <smiles>  (8) 
O=S(=O)(c1ccc(C(=S)N2CCN(Cc3ccccc3)CC2)cc1)N1CCC(c2cc3ccccc3[nH]2)CC1

>  <score_type>  (8) 
oracle

>  <origin>  (8) 
adg

>  <m_score__min__energy>  (8) 
-11.08

>  <m_primary>  (8) 
energy

$$$$
8:0
     RDKit          3D

 69 73  0  0  0  0  0  0  0  0999 V2000
   63.7100   33.4450   45.7680 H   0  0  0  0  0  0  0  0  0  0  0  0
   62.9910   33.8570   46.4070 N   0  0  0  0  0  0  0  0  0  0  0  0
   62.9340   33.5330   47.6570 C   0  0  0  0  0  0  0  0  0  0  0  0
   64.0750   33.5210   48.4180 N   0  0  0  0  0  0  0  0  0  0  0  0
   64.0520   33.1820   49.7410 C   0  0  0  0  0  0  0  0  0  0  0  0
   65.2660   33.1660   50.5010 N   0  0  0  0  0  0  0  0  0  0  0  0
   66.2840   32.1530   50.1970 C   0  0  0  0  0  0  0  0  0  0  0  0
   65.9341   31.1720   50.5507 H   0  0  0  0  0  0  0  0  0  0  0  0
   66.4470   32.1307   49.1094 H   0  0  0  0  0  0  0  0  0  0  0  0
   67.6020   32.4910   50.8830 C   0  0  0  0  0  0  0  0  0  0  0  0
   67.5394   32.2327   51.9504 H   0  0  0  0  0  0  0  0  0  0  0  0
   68.4198   31.9183   50.4212 H   0  0  0  0  0  0  0  0  0  0  0  0
   67.8490   33.8730   50.7440 O   0  0  0  0  0  0  0  0  0  0  0  0
   67.0030   34.5990   51.6190 C   0  0  0  0  0  0  0  0  0  0  0  0
   67.3205   34.3998   52.6532 H   0  0  0  0  0  0  0  0  0  0  0  0
   67.0962   35.6609   51.3476 H   0  0  0  0  0  0  0  0  0  0  0  0
   65.5040   34.2290   51.4880 C   0  0  0  0  0  0  0  0  0  0  0  0
   65.1389   33.8875   52.4679 H   0  0  0  0  0  0  0  0  0  0  0  0
   64.9690   35.1268   51.1448 H   0  0  0  0  0  0  0  0  0  0  0  0
   62.8190   32.8530   50.3010 C   0  0  0  0  0  0  0  0  0  0  0  0
   61.7000   32.8700   49.5270 C   0  0  0  0  0  0  0  0  0  0  0  0
   61.7300   33.2080   48.2160 N   0  0  0  0  0  0  0  0  0  0  0  0
   60.6210   32.5730   50.3260 C   0  0  0  0  0  0  0  0  0  0  0  0
   59.2010   32.6290   49.9270 C   0  0  0  0  0  0  0  0  0  0  0  0
   58.9731   32.9852   48.9115 H   0  0  0  0  0  0  0  0  0  0  0  0
   58.1690   32.2800   50.7050 C   0  0  0  0  0  0  0  0  0  0  0  0
   57.3558   33.0102   50.8295 H   0  0  0  0  0  0  0  0  0  0  0  0
   58.0410   30.9910   51.4070 C   0  0  0  0  0  0  0  0  0  0  0  0
   57.8160   30.9630   52.6460 O   0  0  0  0  0  0  0  0  0  0  0  0
   58.2900   29.7660   50.7140 N   0  0  0  0  0  0  0  0  0  0  0  0
   59.4500   29.5520   49.8500 C   0  0  0  0  0  0  0  0  0  0  0  0
   60.0072   30.4961   49.7599 H   0  0  0  0  0  0  0  0  0  0  0  0
   60.0760   28.7684   50.3018 H   0  0  0  0  0  0  0  0  0  0  0  0
   59.0400   29.0940   48.4770 C   0  0  0  0  0  0  0  0  0  0  0  0
   58.8180   27.7330   48.2220 C   0  0  0  0  0  0  0  0  0  0  0  0
   58.9375   26.9974   49.0311 H   0  0  0  0  0  0  0  0  0  0  0  0
   58.4450   27.3070   46.9420 C   0  0  0  0  0  0  0  0  0  0  0  0
   58.2607   26.2392   46.7525 H   0  0  0  0  0  0  0  0  0  0  0  0
   58.3050   28.2360   45.8990 C   0  0  0  0  0  0  0  0  0  0  0  0
   57.7880   27.7970   44.5580 C   0  0  0  0  0  0  0  0  0  0  0  0
   58.6012   27.3296   43.9833 H   0  0  0  0  0  0  0  0  0  0  0  0
   56.9768   27.0662   44.6914 H   0  0  0  0  0  0  0  0  0  0  0  0
   57.2890   28.9660   43.8400 N   0  0  0  0  0  0  0  0  0  0  0  0
   57.7880   29.2660   42.9750 H   0  0  0  0  0  0  0  0  0  0  0  0
   56.2310   29.7840   44.3470 C   0  0  0  0  0  0  0  0  0  0  0  0
   55.2000   29.2480   44.8280 O   0  0  0  0  0  0  0  0  0  0  0  0
   56.3150   31.2090   44.2890 N   0  0  0  0  0  0  0  0  0  0  0  0
   57.7490   32.0400   43.7860 S   0  0  0  0  0  0  0  0  0  0  0  0
   57.4540   32.7720   42.5090 O   0  0  0  0  0  0  0  0  0  0  0  0
   58.8330   31.0360   43.5200 O   0  0  0  0  0  0  0  0  0  0  0  0
   58.3060   33.1650   45.0200 C   0  0  0  0  0  0  0  0  0  0  0  0
   59.2110   34.1860   44.6950 C   0  0  0  0  0  0  0  0  0  0  0  0
   59.5899   34.2756   43.6662 H   0  0  0  0  0  0  0  0  0  0  0  0
   59.6330   35.0900   45.6740 C   0  0  0  0  0  0  0  0  0  0  0  0
   60.3417   35.8903   45.4147 H   0  0  0  0  0  0  0  0  0  0  0  0
   59.1540   34.9770   46.9840 C   0  0  0  0  0  0  0  0  0  0  0  0
   59.4822   35.6908   47.7539 H   0  0  0  0  0  0  0  0  0  0  0  0
   58.2580   33.9560   47.3130 C   0  0  0  0  0  0  0  0  0  0  0  0
   57.8840   33.8646   48.3434 H   0  0  0  0  0  0  0  0  0  0  0  0
   57.8360   33.0500   46.3340 C   0  0  0  0  0  0  0  0  0  0  0  0
   57.1334   32.2455   46.5971 H   0  0  0  0  0  0  0  0  0  0  0  0
   58.5350   29.5950   46.1530 C   0  0  0  0  0  0  0  0  0  0  0  0
   58.4253   30.3297   45.3417 H   0  0  0  0  0  0  0  0  0  0  0  0
   58.9030   30.0210   47.4320 C   0  0  0  0  0  0  0  0  0  0  0  0
   59.0864   31.0890   47.6209 H   0  0  0  0  0  0  0  0  0  0  0  0
   61.1610   32.4230   51.6080 C   0  0  0  0  0  0  0  0  0  0  0  0
   60.5748   32.2002   52.5118 H   0  0  0  0  0  0  0  0  0  0  0  0
   62.5060   32.5900   51.5830 N   0  0  0  0  0  0  0  0  0  0  0  0
   63.1450   32.5810   52.4080 H   0  0  0  0  0  0  0  0  0  0  0  0
  1  2  1  0
  2  3  2  0
  3  4  1  0
  4  5  2  0
  5  6  1  0
  6  7  1  0
  7  8  1  0
  7  9  1  0
  7 10  1  0
 10 11  1  0
 10 12  1  0
 10 13  1  0
 13 14  1  0
 14 15  1  0
 14 16  1  0
 14 17  1  0
 17 18  1  0
 17 19  1  0
  5 20  1  0
 20 21  2  0
 21 22  1  0
 21 23  1  0
 23 24  1  0
 24 25  1  0
 24 26  2  3
 26 27  1  0
 26 28  1  0
 28 29  2  0
 28 30  1  0
 30 31  1  0
 31 32  1  0
 31 33  1  0
 31 34  1  0
 34 35  2  0
 35 36  1  0
 35 37  1  0
 37 38  1  0
 37 39  2  0
 39 40  1  0
 40 41  1  0
 40 42  1  0
 40 43  1  0
 43 44  1  0
 43 45  1  0
 45 46  2  0
 45 47  1  0
 47 48  1  0
 48 49  2  0
 48 50  2  0
 48 51  1  0
 51 52  2  0
 52 53  1  0
 52 54  1  0
 54 55  1  0
 54 56  2  0
 56 57  1  0
 56 58  1  0
 58 59  1  0
 58 60  2  0
 60 61  1  0
 39 62  1  0
 62 63  1  0
 62 64  2  0
 64 65  1  0
 23 66  2  0
 66 67  1  0
 66 68  1  0
 68 69  1  0
 22  3  1  0
 64 34  1  0
 17  6  1  0
 68 20  1  0
 60 51  1  0
M  CHG  3  22  -1  30  -1  47  -1
M  END
>  <UniqueID>  (9) 
9

>  <SMILES>  (9) 
[H]/N=c1\nc(N2CCOCC2)c2[nH]cc(C=CC(=O)[N-]Cc3ccc(CNC(=O)[N-]S(=O)(=O)c4ccccc4)cc3)c2[n-]1

>  <Energy>  (9) 
132.98135559076434

>  <Genealogy>  (9) 
N=c1nc(N2CCOCC2)c2[nH]cc(C=CC(=O)[N-]Cc3ccc(CNC(=O)[N-]S(=O)(=O)c4ccccc4)cc3)c2[n-]1 (protonated)
[H]/N=c1\nc(N2CCOCC2)c2[nH]cc(C=CC(=O)[N-]Cc3ccc(CNC(=O)[N-]S(=O)(=O)c4ccccc4)cc3)c2[n-]1 (cis-trans isomerization)
[H]/N=c1\nc(N2CCOCC2)c2[nH]cc(C=CC(=O)[N-]Cc3ccc(CNC(=O)[N-]S(=O)(=O)c4ccccc4)cc3)c2[n-]1 (3D coordinates assigned)
[H]/N=c1\nc(N2CCOCC2)c2[nH]cc(C=CC(=O)[N-]Cc3ccc(CNC(=O)[N-]S(=O)(=O)c4ccccc4)cc3)c2[n-]1 (nonaromatic ring conformer: 132.98135559076434 kcal/mol)

>  <smiles>  (9) 
N=c1nc(N2CCOCC2)c2[nH]cc(C=CC(=O)NCc3ccc(CNC(=O)NS(=O)(=O)c4ccccc4)cc3)c2[nH]1

>  <score_type>  (9) 
oracle

>  <origin>  (9) 
adg

>  <m_score__min__energy>  (9) 
-14.210000000000001

>  <m_primary>  (9) 
energy

$$$$
9:0
     RDKit          3D

 51 53  0  0  0  0  0  0  0  0999 V2000
   63.0440   33.8440   46.6240 C   0  0  0  0  0  0  0  0  0  0  0  0
   63.5470   33.7720   48.0630 C   0  0  0  0  0  0  0  0  0  0  0  0
   62.5600   34.3960   49.0580 C   0  0  0  0  0  0  0  0  0  0  0  0
   61.3090   33.6250   49.1410 N   0  0  0  0  0  0  0  0  0  0  0  0
   60.0150   34.3220   49.0640 C   0  0  0  0  0  0  0  0  0  0  0  0
   59.3870   34.1680   47.7020 C   0  0  0  0  0  0  0  0  0  0  0  0
   58.3520   33.2420   47.4960 C   0  0  0  0  0  0  0  0  0  0  0  0
   57.8160   33.0800   46.2160 C   0  0  0  0  0  0  0  0  0  0  0  0
   58.2890   33.8220   45.1810 N   0  0  0  0  0  0  0  0  0  0  0  0
   59.2810   34.7360   45.3530 C   0  0  0  0  0  0  0  0  0  0  0  0
   59.8480   34.9270   46.6160 C   0  0  0  0  0  0  0  0  0  0  0  0
   61.3640   32.2780   49.6530 C   0  0  0  0  0  0  0  0  0  0  0  0
   61.0280   32.0500   50.8490 O   0  0  0  0  0  0  0  0  0  0  0  0
   61.9110   31.1460   48.8310 C   0  0  0  0  0  0  0  0  0  0  0  0
   60.7930   30.5090   48.0520 C   0  0  0  0  0  0  0  0  0  0  0  0
   59.7830   29.8000   48.7210 C   0  0  0  0  0  0  0  0  0  0  0  0
   58.6780   29.3170   48.0180 C   0  0  0  0  0  0  0  0  0  0  0  0
   58.5730   29.5280   46.6320 C   0  0  0  0  0  0  0  0  0  0  0  0
   57.4330   29.0670   45.8950 N   0  0  0  0  0  0  0  0  0  0  0  0
   57.3620   27.8130   45.2040 C   0  0  0  0  0  0  0  0  0  0  0  0
   57.3600   27.8140   43.9450 O   0  0  0  0  0  0  0  0  0  0  0  0
   57.2420   26.5270   45.9340 C   0  0  0  0  0  0  0  0  0  0  0  0
   55.9840   26.0260   46.3130 C   0  0  0  0  0  0  0  0  0  0  0  0
   54.8190   26.7140   45.9940 O   0  0  0  0  0  0  0  0  0  0  0  0
   55.8940   24.8480   46.9820 N   0  0  0  0  0  0  0  0  0  0  0  0
   57.0040   24.1380   47.3040 C   0  0  0  0  0  0  0  0  0  0  0  0
   56.8970   23.0460   47.9190 O   0  0  0  0  0  0  0  0  0  0  0  0
   58.2310   24.6030   46.9590 N   0  0  0  0  0  0  0  0  0  0  0  0
   58.3780   25.7730   46.2900 C   0  0  0  0  0  0  0  0  0  0  0  0
   59.5350   26.1800   46.0170 O   0  0  0  0  0  0  0  0  0  0  0  0
   59.6050   30.1890   45.9570 C   0  0  0  0  0  0  0  0  0  0  0  0
   60.6990   30.6960   46.6640 C   0  0  0  0  0  0  0  0  0  0  0  0
   61.9551   33.9999   46.6236 H   0  0  0  0  0  0  0  0  0  0  0  0
   63.5344   34.6811   46.1056 H   0  0  0  0  0  0  0  0  0  0  0  0
   63.2799   32.9029   46.1056 H   0  0  0  0  0  0  0  0  0  0  0  0
   63.6999   32.7163   48.3316 H   0  0  0  0  0  0  0  0  0  0  0  0
   64.4863   34.3417   48.1195 H   0  0  0  0  0  0  0  0  0  0  0  0
   63.0276   34.4247   50.0533 H   0  0  0  0  0  0  0  0  0  0  0  0
   62.3152   35.4096   48.7077 H   0  0  0  0  0  0  0  0  0  0  0  0
   59.3364   33.9013   49.8206 H   0  0  0  0  0  0  0  0  0  0  0  0
   60.1874   35.3930   49.2465 H   0  0  0  0  0  0  0  0  0  0  0  0
   57.9655   32.6478   48.3371 H   0  0  0  0  0  0  0  0  0  0  0  0
   57.0101   32.3508   46.0461 H   0  0  0  0  0  0  0  0  0  0  0  0
   59.6380   35.3263   44.4962 H   0  0  0  0  0  0  0  0  0  0  0  0
   60.6496   35.6668   46.7575 H   0  0  0  0  0  0  0  0  0  0  0  0
   62.6704   31.5315   48.1347 H   0  0  0  0  0  0  0  0  0  0  0  0
   62.3695   30.3980   49.4945 H   0  0  0  0  0  0  0  0  0  0  0  0
   59.8626   29.6242   49.8039 H   0  0  0  0  0  0  0  0  0  0  0  0
   57.8865   28.7693   48.5504 H   0  0  0  0  0  0  0  0  0  0  0  0
   59.5552   30.3102   44.8648 H   0  0  0  0  0  0  0  0  0  0  0  0
   61.4897   31.2439   46.1304 H   0  0  0  0  0  0  0  0  0  0  0  0
  1  2  1  0
  2  3  1  0
  3  4  1  0
  4  5  1  0
  5  6  1  0
  6  7  2  0
  7  8  1  0
  8  9  2  0
  9 10  1  0
 10 11  2  0
  4 12  1  0
 12 13  2  0
 12 14  1  0
 14 15  1  0
 15 16  2  0
 16 17  1  0
 17 18  2  0
 18 19  1  0
 19 20  1  0
 20 21  2  0
 20 22  1  0
 22 23  2  0
 23 24  1  0
 23 25  1  0
 25 26  1  0
 26 27  2  0
 26 28  1  0
 28 29  1  0
 29 30  2  0
 18 31  1  0
 31 32  2  0
 11  6  1  0
 32 15  1  0
 29 22  1  0
  1 33  1  0
  1 34  1  0
  1 35  1  0
  2 36  1  0
  2 37  1  0
  3 38  1  0
  3 39  1  0
  5 40  1  0
  5 41  1  0
  7 42  1  0
  8 43  1  0
 10 44  1  0
 11 45  1  0
 14 46  1  0
 14 47  1  0
 16 48  1  0
 17 49  1  0
 31 50  1  0
 32 51  1  0
M  CHG  4  19  -1  24  -1  25  -1  28  -1
M  END
>  <UniqueID>  (10) 
10

>  <SMILES>  (10) 
CCCN(Cc1ccncc1)C(=O)Cc1ccc([N-]C(=O)c2c([O-])[n-]c(=O)[n-]c2=O)cc1

>  <Energy>  (10) 
56.747359909002384

>  <Genealogy>  (10) 
CCCN(Cc1ccncc1)C(=O)Cc1ccc([N-]C(=O)c2c([O-])[n-]c(=O)[n-]c2=O)cc1 (protonated)
CCCN(Cc1ccncc1)C(=O)Cc1ccc([N-]C(=O)c2c([O-])[n-]c(=O)[n-]c2=O)cc1 (3D coordinates assigned)
CCCN(Cc1ccncc1)C(=O)Cc1ccc([N-]C(=O)c2c([O-])[n-]c(=O)[n-]c2=O)cc1 (optimized conformer: 56.747359909002384 kcal/mol)

>  <smiles>  (10) 
CCCN(Cc1ccncc1)C(=O)Cc1ccc(NC(=O)c2c(O)[nH]c(=O)[nH]c2=O)cc1

>  <score_type>  (10) 
oracle

>  <origin>  (10) 
adg

>  <m_score__min__energy>  (10) 
-17.16

>  <m_primary>  (10) 
energy

$$$$
10:0
     RDKit          3D

 33 35  0  0  0  0  0  0  0  0999 V2000
   58.0990   32.3510   41.6350 C   0  0  0  0  0  0  0  0  0  0  0  0
   57.7330   31.9130   43.0300 C   0  0  0  0  0  0  0  0  0  0  0  0
   56.9740   30.7480   43.2060 C   0  0  0  0  0  0  0  0  0  0  0  0
   56.6340   30.3380   44.4970 C   0  0  0  0  0  0  0  0  0  0  0  0
   55.9520   29.2930   44.6650 O   0  0  0  0  0  0  0  0  0  0  0  0
   57.0240   31.0430   45.5520 O   0  0  0  0  0  0  0  0  0  0  0  0
   57.7450   32.1550   45.4460 C   0  0  0  0  0  0  0  0  0  0  0  0
   58.1190   32.8430   46.6040 C   0  0  0  0  0  0  0  0  0  0  0  0
   58.8770   34.0160   46.5260 C   0  0  0  0  0  0  0  0  0  0  0  0
   59.2220   34.6630   47.7230 O   0  0  0  0  0  0  0  0  0  0  0  0
   60.2700   34.2600   48.6050 C   0  0  1  0  0  0  0  0  0  0  0  0
   59.7770   33.2180   49.6150 C   0  0  0  0  0  0  0  0  0  0  0  0
   60.1920   31.8460   49.0750 C   0  0  0  0  0  0  0  0  0  0  0  0
   61.3720   32.0780   48.1380 C   0  0  0  0  0  0  0  0  0  0  0  0
   61.3020   33.5270   47.8330 C   0  0  0  0  0  0  0  0  0  0  0  0
   62.0310   34.0690   47.0180 O   0  0  0  0  0  0  0  0  0  0  0  0
   59.2650   34.5000   45.2630 C   0  0  0  0  0  0  0  0  0  0  0  0
   58.8970   33.8210   44.0990 C   0  0  0  0  0  0  0  0  0  0  0  0
   58.1330   32.6400   44.1730 C   0  0  0  0  0  0  0  0  0  0  0  0
   58.8035   33.1941   41.6884 H   0  0  0  0  0  0  0  0  0  0  0  0
   58.5695   31.5134   41.0993 H   0  0  0  0  0  0  0  0  0  0  0  0
   57.1911   32.6652   41.0993 H   0  0  0  0  0  0  0  0  0  0  0  0
   56.6487   30.1613   42.3343 H   0  0  0  0  0  0  0  0  0  0  0  0
   57.8137   32.4575   47.5879 H   0  0  0  0  0  0  0  0  0  0  0  0
   60.6381   35.1731   49.0957 H   0  0  0  0  0  0  0  0  0  0  0  0
   60.2401   33.3941   50.5971 H   0  0  0  0  0  0  0  0  0  0  0  0
   58.6861   33.2780   49.7428 H   0  0  0  0  0  0  0  0  0  0  0  0
   60.4909   31.1877   49.9040 H   0  0  0  0  0  0  0  0  0  0  0  0
   59.3579   31.3621   48.5458 H   0  0  0  0  0  0  0  0  0  0  0  0
   62.3213   31.8274   48.6339 H   0  0  0  0  0  0  0  0  0  0  0  0
   61.3281   31.4508   47.2354 H   0  0  0  0  0  0  0  0  0  0  0  0
   59.8630   35.4205   45.1917 H   0  0  0  0  0  0  0  0  0  0  0  0
   59.2059   34.2112   43.1180 H   0  0  0  0  0  0  0  0  0  0  0  0
  1  2  1  0
  2  3  2  0
  3  4  1  0
  4  5  2  0
  4  6  1  0
  6  7  1  0
  7  8  2  0
  8  9  1  0
  9 10  1  0
 10 11  1  0
 11 12  1  0
 12 13  1  0
 13 14  1  0
 14 15  1  0
 15 16  2  0
  9 17  2  0
 17 18  1  0
 18 19  2  0
 19  2  1  0
 19  7  1  0
 15 11  1  0
  1 20  1  0
  1 21  1  0
  1 22  1  0
  3 23  1  0
  8 24  1  0
 11 25  1  1
 12 26  1  0
 12 27  1  0
 13 28  1  0
 13 29  1  0
 14 30  1  0
 14 31  1  0
 17 32  1  0
 18 33  1  0
M  END
>  <UniqueID>  (11) 
11

>  <SMILES>  (11) 
Cc1cc(=O)oc2cc(O[C@H]3CCCC3=O)ccc12

>  <Energy>  (11) 
39.82406758099659

>  <Genealogy>  (11) 
Cc1cc(=O)oc2cc(O[C@H]3CCCC3=O)ccc12 (chirality)
Cc1cc(=O)oc2cc(O[C@H]3CCCC3=O)ccc12 (3D coordinates assigned)
Cc1cc(=O)oc2cc(O[C@H]3CCCC3=O)ccc12 (nonaromatic ring conformer: 39.82406758099659 kcal/mol)

>  <smiles>  (11) 
Cc1cc(=O)oc2cc(OC3CCCC3=O)ccc12

>  <score_type>  (11) 
oracle

>  <origin>  (11) 
adg

>  <m_score__min__energy>  (11) 
-7.5899999999999999

>  <m_primary>  (11) 
energy

$$$$
11:0
     RDKit          3D

 40 42  0  0  0  0  0  0  0  0999 V2000
   62.8950   33.8450   47.3160 C   0  0  0  0  0  0  0  0  0  0  0  0
   61.6530   33.1070   46.9120 C   0  0  0  0  0  0  0  0  0  0  0  0
   60.7470   33.6880   46.0120 C   0  0  0  0  0  0  0  0  0  0  0  0
   59.6080   32.9840   45.6070 C   0  0  0  0  0  0  0  0  0  0  0  0
   59.3680   31.6870   46.0870 C   0  0  0  0  0  0  0  0  0  0  0  0
   58.1920   30.9640   45.6690 N   0  0  0  0  0  0  0  0  0  0  0  0
   57.0850   31.6450   45.2330 C   0  0  0  0  0  0  0  0  0  0  0  0
   57.0820   32.9050   45.1840 O   0  0  0  0  0  0  0  0  0  0  0  0
   55.9790   30.9680   44.8350 N   0  0  0  0  0  0  0  0  0  0  0  0
   55.9280   29.6150   44.8590 C   0  0  0  0  0  0  0  0  0  0  0  0
   54.7700   28.9670   44.4440 O   0  0  0  0  0  0  0  0  0  0  0  0
   57.0330   28.8850   45.3080 C   0  0  0  0  0  0  0  0  0  0  0  0
   56.9890   27.4100   45.3430 C   0  0  0  0  0  0  0  0  0  0  0  0
   57.7960   26.7540   44.6320 O   0  0  0  0  0  0  0  0  0  0  0  0
   56.0370   26.7040   46.1460 N   0  0  0  0  0  0  0  0  0  0  0  0
   56.2730   25.3870   46.7260 C   0  0  0  0  0  0  0  0  0  0  0  0
   56.5420   24.4010   45.6270 C   0  0  0  0  0  0  0  0  0  0  0  0
   57.7850   23.7500   45.5470 C   0  0  0  0  0  0  0  0  0  0  0  0
   58.0220   22.8070   44.5430 C   0  0  0  0  0  0  0  0  0  0  0  0
   57.0190   22.4990   43.6190 C   0  0  0  0  0  0  0  0  0  0  0  0
   55.7750   23.1300   43.7030 C   0  0  0  0  0  0  0  0  0  0  0  0
   55.5330   24.0740   44.7060 C   0  0  0  0  0  0  0  0  0  0  0  0
   58.1810   29.5920   45.7020 C   0  0  0  0  0  0  0  0  0  0  0  0
   59.2050   28.9570   46.0830 O   0  0  0  0  0  0  0  0  0  0  0  0
   60.2840   31.1010   46.9740 C   0  0  0  0  0  0  0  0  0  0  0  0
   61.4230   31.8030   47.3790 C   0  0  0  0  0  0  0  0  0  0  0  0
   62.9585   33.8827   48.4135 H   0  0  0  0  0  0  0  0  0  0  0  0
   63.7774   33.3246   46.9154 H   0  0  0  0  0  0  0  0  0  0  0  0
   62.8598   34.8688   46.9154 H   0  0  0  0  0  0  0  0  0  0  0  0
   60.9329   34.7002   45.6236 H   0  0  0  0  0  0  0  0  0  0  0  0
   58.8967   33.4493   44.9087 H   0  0  0  0  0  0  0  0  0  0  0  0
   57.1416   25.4325   47.3993 H   0  0  0  0  0  0  0  0  0  0  0  0
   55.3862   25.0711   47.2950 H   0  0  0  0  0  0  0  0  0  0  0  0
   58.5740   23.9834   46.2770 H   0  0  0  0  0  0  0  0  0  0  0  0
   58.9994   22.3063   44.4797 H   0  0  0  0  0  0  0  0  0  0  0  0
   57.2090   21.7604   42.8263 H   0  0  0  0  0  0  0  0  0  0  0  0
   54.9846   22.8837   42.9788 H   0  0  0  0  0  0  0  0  0  0  0  0
   54.5495   24.5620   44.7739 H   0  0  0  0  0  0  0  0  0  0  0  0
   60.1048   30.0839   47.3526 H   0  0  0  0  0  0  0  0  0  0  0  0
   62.1416   31.3321   48.0660 H   0  0  0  0  0  0  0  0  0  0  0  0
  1  2  1  0
  2  3  2  0
  3  4  1  0
  4  5  2  0
  5  6  1  0
  6  7  1  0
  7  8  2  0
  7  9  1  0
  9 10  1  0
 10 11  1  0
 10 12  2  0
 12 13  1  0
 13 14  2  0
 13 15  1  0
 15 16  1  0
 16 17  1  0
 17 18  2  0
 18 19  1  0
 19 20  2  0
 20 21  1  0
 21 22  2  0
 12 23  1  0
 23 24  2  0
  5 25  1  0
 25 26  2  0
 26  2  1  0
 23  6  1  0
 22 17  1  0
  1 27  1  0
  1 28  1  0
  1 29  1  0
  3 30  1  0
  4 31  1  0
 16 32  1  0
 16 33  1  0
 18 34  1  0
 19 35  1  0
 20 36  1  0
 21 37  1  0
 22 38  1  0
 25 39  1  0
 26 40  1  0
M  CHG  3   9  -1  11  -1  15  -1
M  END
>  <UniqueID>  (12) 
12

>  <SMILES>  (12) 
Cc1ccc(-n2c(=O)[n-]c([O-])c(C(=O)[N-]Cc3ccccc3)c2=O)cc1

>  <Energy>  (12) 
58.258193100449

>  <Genealogy>  (12) 
Cc1ccc(-n2c(=O)[n-]c([O-])c(C(=O)[N-]Cc3ccccc3)c2=O)cc1 (protonated)
Cc1ccc(-n2c(=O)[n-]c([O-])c(C(=O)[N-]Cc3ccccc3)c2=O)cc1 (3D coordinates assigned)
Cc1ccc(-n2c(=O)[n-]c([O-])c(C(=O)[N-]Cc3ccccc3)c2=O)cc1 (optimized conformer: 58.258193100449 kcal/mol)

>  <smiles>  (12) 
Cc1ccc(-n2c(=O)[nH]c(O)c(C(=O)NCc3ccccc3)c2=O)cc1

>  <score_type>  (12) 
oracle

>  <origin>  (12) 
adg

>  <m_score__min__energy>  (12) 
-13.76

>  <m_primary>  (12) 
energy

$$$$
12:0
     RDKit          3D

 51 54  0  0  0  0  0  0  0  0999 V2000
   60.0750   34.2460   49.4790 O   0  0  0  0  0  0  0  0  0  0  0  0
   60.1540   34.1760   48.2240 C   0  0  0  0  0  0  0  0  0  0  0  0
   59.1740   34.7280   47.3560 N   0  0  0  0  0  0  0  0  0  0  0  0
   59.5850   34.4690   46.1580 C   0  0  0  0  0  0  0  0  0  0  0  0
   58.7760   34.7930   44.9400 C   0  0  0  0  0  0  0  0  0  0  0  0
   57.5250   33.9070   44.8430 C   0  0  0  0  0  0  0  0  0  0  0  0
   57.8670   32.4350   44.9090 C   0  0  0  0  0  0  0  0  0  0  0  0
   58.0900   31.8350   46.1580 C   0  0  0  0  0  0  0  0  0  0  0  0
   58.4600   30.4940   46.2370 C   0  0  0  0  0  0  0  0  0  0  0  0
   58.6090   29.7560   45.0650 C   0  0  0  0  0  0  0  0  0  0  0  0
   58.3940   30.3420   43.8560 N   0  0  0  0  0  0  0  0  0  0  0  0
   58.0330   31.6520   43.7470 C   0  0  0  0  0  0  0  0  0  0  0  0
   57.7890   32.3280   42.1380 Cl  0  0  0  0  0  0  0  0  0  0  0  0
   60.8070   33.7370   46.1010 N   0  0  0  0  0  0  0  0  0  0  0  0
   61.2500   33.4910   47.4680 C   0  0  0  0  0  0  0  0  0  0  0  0
   62.6160   34.1730   47.7220 C   0  0  0  0  0  0  0  0  0  0  0  0
   63.7680   33.2030   47.4250 C   0  0  0  0  0  0  0  0  0  0  0  0
   63.7220   31.9730   48.2640 N   0  0  0  0  0  0  0  0  0  0  0  0
   64.6930   32.0210   49.3750 C   0  0  0  0  0  0  0  0  0  0  0  0
   64.0130   32.4500   50.6510 C   0  0  0  0  0  0  0  0  0  0  0  0
   63.7230   33.8070   50.8800 C   0  0  0  0  0  0  0  0  0  0  0  0
   63.1000   34.2040   52.0670 C   0  0  0  0  0  0  0  0  0  0  0  0
   62.7620   33.2530   53.0330 C   0  0  0  0  0  0  0  0  0  0  0  0
   63.0460   31.9020   52.8130 C   0  0  0  0  0  0  0  0  0  0  0  0
   63.6680   31.4980   51.6280 C   0  0  0  0  0  0  0  0  0  0  0  0
   63.9380   30.1830   51.4330 F   0  0  0  0  0  0  0  0  0  0  0  0
   62.3710   31.6270   48.7700 C   0  0  0  0  0  0  0  0  0  0  0  0
   61.2800   31.9680   47.7500 C   0  0  0  0  0  0  0  0  0  0  0  0
   58.4647   35.8470   44.9876 H   0  0  0  0  0  0  0  0  0  0  0  0
   59.3993   34.6084   44.0526 H   0  0  0  0  0  0  0  0  0  0  0  0
   56.8503   34.1526   45.6764 H   0  0  0  0  0  0  0  0  0  0  0  0
   57.0453   34.1013   43.8724 H   0  0  0  0  0  0  0  0  0  0  0  0
   57.9722   32.4258   47.0783 H   0  0  0  0  0  0  0  0  0  0  0  0
   58.6328   30.0225   47.2157 H   0  0  0  0  0  0  0  0  0  0  0  0
   58.9012   28.6968   45.1171 H   0  0  0  0  0  0  0  0  0  0  0  0
   58.5150   29.7680   42.9920 H   0  0  0  0  0  0  0  0  0  0  0  0
   61.2810   33.4050   45.2310 H   0  0  0  0  0  0  0  0  0  0  0  0
   62.7074   35.0535   47.0690 H   0  0  0  0  0  0  0  0  0  0  0  0
   62.6704   34.4752   48.7783 H   0  0  0  0  0  0  0  0  0  0  0  0
   63.7142   32.9080   46.3667 H   0  0  0  0  0  0  0  0  0  0  0  0
   64.7075   33.7258   47.6574 H   0  0  0  0  0  0  0  0  0  0  0  0
   65.1314   31.0221   49.5163 H   0  0  0  0  0  0  0  0  0  0  0  0
   65.4804   32.7486   49.1288 H   0  0  0  0  0  0  0  0  0  0  0  0
   63.9874   34.5591   50.1221 H   0  0  0  0  0  0  0  0  0  0  0  0
   62.8756   35.2668   52.2406 H   0  0  0  0  0  0  0  0  0  0  0  0
   62.2725   33.5672   53.9666 H   0  0  0  0  0  0  0  0  0  0  0  0
   62.7792   31.1545   53.5747 H   0  0  0  0  0  0  0  0  0  0  0  0
   62.3354   30.5484   48.9830 H   0  0  0  0  0  0  0  0  0  0  0  0
   62.1849   32.2148   49.6810 H   0  0  0  0  0  0  0  0  0  0  0  0
   61.4826   31.4310   46.8116 H   0  0  0  0  0  0  0  0  0  0  0  0
   60.3054   31.6653   48.1605 H   0  0  0  0  0  0  0  0  0  0  0  0
  1  2  2  0
  2  3  1  0
  3  4  2  0
  4  5  1  0
  5  6  1  0
  6  7  1  0
  7  8  2  0
  8  9  1  0
  9 10  2  0
 10 11  1  0
 11 12  2  0
 12 13  1  0
  4 14  1  0
 14 15  1  0
 15 16  1  0
 16 17  1  0
 17 18  1  0
 18 19  1  0
 19 20  1  0
 20 21  2  0
 21 22  1  0
 22 23  2  0
 23 24  1  0
 24 25  2  0
 25 26  1  0
 18 27  1  0
 27 28  1  0
 15  2  1  0
 25 20  1  0
 12  7  1  0
 28 15  1  0
  5 29  1  0
  5 30  1  0
  6 31  1  0
  6 32  1  0
  8 33  1  0
  9 34  1  0
 10 35  1  0
 11 36  1  0
 14 37  1  0
 16 38  1  0
 16 39  1  0
 17 40  1  0
 17 41  1  0
 19 42  1  0
 19 43  1  0
 21 44  1  0
 22 45  1  0
 23 46  1  0
 24 47  1  0
 27 48  1  0
 27 49  1  0
 28 50  1  0
 28 51  1  0
M  CHG  1  11   1
M  END
>  <UniqueID>  (13) 
13

>  <SMILES>  (13) 
O=C1N=C(CCc2ccc[nH+]c2Cl)NC12CCN(Cc1ccccc1F)CC2

>  <Energy>  (13) 
75.38721743027781

>  <Genealogy>  (13) 
O=C1N=C(CCc2ccc[nH+]c2Cl)NC12CCN(Cc1ccccc1F)CC2 (protonated)
O=C1N=C(CCc2ccc[nH+]c2Cl)NC12CCN(Cc1ccccc1F)CC2 (3D coordinates assigned)
O=C1N=C(CCc2ccc[nH+]c2Cl)NC12CCN(Cc1ccccc1F)CC2 (nonaromatic ring conformer: 75.38721743027781 kcal/mol)

>  <smiles>  (13) 
O=C1N=C(CCc2cccnc2Cl)NC12CCN(Cc1ccccc1F)CC2

>  <score_type>  (13) 
oracle

>  <origin>  (13) 
adg

>  <m_score__min__energy>  (13) 
-8.1699999999999999

>  <m_primary>  (13) 
energy

$$$$
13:0
     RDKit          3D

 57 60  0  0  0  0  0  0  0  0999 V2000
   59.6996   27.2196   46.2254 H   0  0  0  0  0  0  0  0  0  0  0  0
   58.7220   27.6380   45.9440 C   0  0  0  0  0  0  0  0  0  0  0  0
   58.6470   28.9050   45.4620 N   0  0  0  0  0  0  0  0  0  0  0  0
   57.4740   29.4820   45.0940 C   0  0  0  0  0  0  0  0  0  0  0  0
   57.5100   30.7040   44.6340 N   0  0  0  0  0  0  0  0  0  0  0  0
   58.2240   31.8920   45.1240 C   0  0  1  0  0  0  0  0  0  0  0  0
   59.2999   31.7063   44.9901 H   0  0  0  0  0  0  0  0  0  0  0  0
   57.9070   33.1390   44.2760 C   0  0  0  0  0  0  0  0  0  0  0  0
   56.8412   33.3877   44.3866 H   0  0  0  0  0  0  0  0  0  0  0  0
   58.1441   32.9175   43.2249 H   0  0  0  0  0  0  0  0  0  0  0  0
   58.7530   34.3410   44.7260 C   0  0  0  0  0  0  0  0  0  0  0  0
   58.3250   35.2518   44.2818 H   0  0  0  0  0  0  0  0  0  0  0  0
   59.7828   34.1515   44.3891 H   0  0  0  0  0  0  0  0  0  0  0  0
   58.8090   34.5280   46.2700 C   0  0  2  0  0  0  0  0  0  0  0  0
   58.4594   35.5548   46.4528 H   0  0  0  0  0  0  0  0  0  0  0  0
   60.2160   34.4000   46.8020 C   0  0  0  0  0  0  0  0  0  0  0  0
   61.1630   34.0830   46.0320 O   0  0  0  0  0  0  0  0  0  0  0  0
   60.4600   34.5970   48.1990 N   0  0  0  0  0  0  0  0  0  0  0  0
   61.2330   33.6740   49.0210 C   0  0  0  0  0  0  0  0  0  0  0  0
   62.2906   33.7195   48.7218 H   0  0  0  0  0  0  0  0  0  0  0  0
   61.1288   33.9611   50.0777 H   0  0  0  0  0  0  0  0  0  0  0  0
   60.7260   32.2690   48.8420 C   0  0  0  0  0  0  0  0  0  0  0  0
   59.6440   31.8080   49.6110 C   0  0  0  0  0  0  0  0  0  0  0  0
   59.1815   32.4697   50.3581 H   0  0  0  0  0  0  0  0  0  0  0  0
   59.1530   30.5110   49.4300 C   0  0  0  0  0  0  0  0  0  0  0  0
   58.3078   30.1542   50.0369 H   0  0  0  0  0  0  0  0  0  0  0  0
   59.7340   29.6680   48.4800 C   0  0  0  0  0  0  0  0  0  0  0  0
   59.3485   28.6471   48.3414 H   0  0  0  0  0  0  0  0  0  0  0  0
   60.8060   30.1220   47.7050 C   0  0  0  0  0  0  0  0  0  0  0  0
   61.2611   29.4588   46.9546 H   0  0  0  0  0  0  0  0  0  0  0  0
   61.3000   31.4180   47.8830 C   0  0  0  0  0  0  0  0  0  0  0  0
   62.1415   31.7725   47.2696 H   0  0  0  0  0  0  0  0  0  0  0  0
   57.8550   33.5850   47.0330 C   0  0  0  0  0  0  0  0  0  0  0  0
   56.8184   33.8749   46.8062 H   0  0  0  0  0  0  0  0  0  0  0  0
   58.0804   33.6822   48.1053 H   0  0  0  0  0  0  0  0  0  0  0  0
   58.0470   32.1060   46.6510 C   0  0  0  0  0  0  0  0  0  0  0  0
   57.1643   31.5405   46.9842 H   0  0  0  0  0  0  0  0  0  0  0  0
   58.9677   31.7565   47.1411 H   0  0  0  0  0  0  0  0  0  0  0  0
   56.2860   28.7390   45.2230 C   0  0  0  0  0  0  0  0  0  0  0  0
   55.3230   29.1860   44.9352 H   0  0  0  0  0  0  0  0  0  0  0  0
   56.3310   27.4330   45.7170 C   0  0  0  0  0  0  0  0  0  0  0  0
   55.1370   26.7290   45.8370 O   0  0  0  0  0  0  0  0  0  0  0  0
   57.5640   26.8560   46.0870 C   0  0  0  0  0  0  0  0  0  0  0  0
   57.6720   25.4680   46.6140 C   0  0  0  0  0  0  0  0  0  0  0  0
   57.1420   25.1790   47.7210 O   0  0  0  0  0  0  0  0  0  0  0  0
   58.3330   24.4460   45.8540 N   0  0  0  0  0  0  0  0  0  0  0  0
   57.7580   23.6320   44.8230 C   0  0  0  0  0  0  0  0  0  0  0  0
   58.2720   22.3440   44.6180 C   0  0  0  0  0  0  0  0  0  0  0  0
   59.1111   21.9870   45.2332 H   0  0  0  0  0  0  0  0  0  0  0  0
   57.7260   21.5090   43.6370 C   0  0  0  0  0  0  0  0  0  0  0  0
   58.1439   20.5044   43.4751 H   0  0  0  0  0  0  0  0  0  0  0  0
   56.6500   21.9510   42.8630 C   0  0  0  0  0  0  0  0  0  0  0  0
   56.2250   21.2972   42.0871 H   0  0  0  0  0  0  0  0  0  0  0  0
   56.1140   23.2240   43.0750 C   0  0  0  0  0  0  0  0  0  0  0  0
   55.2623   23.5683   42.4700 H   0  0  0  0  0  0  0  0  0  0  0  0
   56.6580   24.0620   44.0550 C   0  0  0  0  0  0  0  0  0  0  0  0
   56.2256   25.0589   44.2260 H   0  0  0  0  0  0  0  0  0  0  0  0
  1  2  1  0
  2  3  1  0
  3  4  1  0
  4  5  2  0
  5  6  1  0
  6  7  1  1
  6  8  1  0
  8  9  1  0
  8 10  1  0
  8 11  1  0
 11 12  1  0
 11 13  1  0
 11 14  1  0
 14 15  1  6
 14 16  1  0
 16 17  2  0
 16 18  1  0
 18 19  1  0
 19 20  1  0
 19 21  1  0
 19 22  1  0
 22 23  2  0
 23 24  1  0
 23 25  1  0
 25 26  1  0
 25 27  2  0
 27 28  1  0
 27 29  1  0
 29 30  1  0
 29 31  2  0
 31 32  1  0
 14 33  1  0
 33 34  1  0
 33 35  1  0
 33 36  1  0
 36 37  1  0
 36 38  1  0
  4 39  1  0
 39 40  1  0
 39 41  2  0
 41 42  1  0
 41 43  1  0
 43 44  1  0
 44 45  2  0
 44 46  1  0
 46 47  1  0
 47 48  2  0
 48 49  1  0
 48 50  1  0
 50 51  1  0
 50 52  2  0
 52 53  1  0
 52 54  1  0
 54 55  1  0
 54 56  2  0
 56 57  1  0
 43  2  2  0
 56 47  1  0
 36  6  1  0
 31 22  1  0
M  CHG  4   3  -1  18  -1  42  -1  46  -1
M  END
>  <UniqueID>  (14) 
14

>  <SMILES>  (14) 
O=C([N-]c1ccccc1)c1c[n-]/c(=N/C2CCC(C(=O)[N-]Cc3ccccc3)CC2)cc1[O-]

>  <Energy>  (14) 
74.82590991863708

>  <Genealogy>  (14) 
O=C([N-]c1ccccc1)c1c[n-]c(=NC2CCC(C(=O)[N-]Cc3ccccc3)CC2)cc1[O-] (protonated)
O=C([N-]c1ccccc1)c1c[n-]/c(=N/C2CCC(C(=O)[N-]Cc3ccccc3)CC2)cc1[O-] (cis-trans isomerization)
O=C([N-]c1ccccc1)c1c[n-]/c(=N/C2CCC(C(=O)[N-]Cc3ccccc3)CC2)cc1[O-] (3D coordinates assigned)
O=C([N-]c1ccccc1)c1c[n-]/c(=N/C2CCC(C(=O)[N-]Cc3ccccc3)CC2)cc1[O-] (nonaromatic ring conformer: 74.82590991863708 kcal/mol)

>  <smiles>  (14) 
O=C(Nc1ccccc1)c1c[nH]c(=NC2CCC(C(=O)NCc3ccccc3)CC2)cc1O

>  <score_type>  (14) 
oracle

>  <origin>  (14) 
adg

>  <m_score__min__energy>  (14) 
-16.670000000000002

>  <m_primary>  (14) 
energy

$$$$
14:0
     RDKit          3D

 38 40  0  0  0  0  0  0  0  0999 V2000
   57.2310   31.5990   44.5050 C   0  0  0  0  0  0  0  0  0  0  0  0
   57.8310   32.6830   45.7860 S   0  0  0  0  0  0  0  0  0  0  0  0
   58.8600   33.6320   45.2390 O   0  0  0  0  0  0  0  0  0  0  0  0
   56.6680   33.4780   46.3080 O   0  0  0  0  0  0  0  0  0  0  0  0
   58.5000   31.7610   47.0950 N   0  0  0  0  0  0  0  0  0  0  0  0
   58.9530   32.2720   48.3580 C   0  0  0  0  0  0  0  0  0  0  0  0
   59.6340   33.4950   48.3630 C   0  0  0  0  0  0  0  0  0  0  0  0
   60.0710   34.0610   49.5610 C   0  0  0  0  0  0  0  0  0  0  0  0
   59.8430   33.4050   50.7700 C   0  0  0  0  0  0  0  0  0  0  0  0
   59.2000   32.1570   50.7870 C   0  0  0  0  0  0  0  0  0  0  0  0
   58.9340   31.4680   52.0990 C   0  0  0  0  0  0  0  0  0  0  0  0
   57.4940   31.0750   52.1840 C   0  0  0  0  0  0  0  0  0  0  0  0
   57.0540   29.8110   52.0010 N   0  0  0  0  0  0  0  0  0  0  0  0
   55.6980   29.7300   52.0450 C   0  0  0  0  0  0  0  0  0  0  0  0
   55.0360   30.9450   52.2480 C   0  0  0  0  0  0  0  0  0  0  0  0
   53.5680   31.1630   52.3260 C   0  0  0  0  0  0  0  0  0  0  0  0
   52.8710   30.8820   53.5170 C   0  0  0  0  0  0  0  0  0  0  0  0
   51.4910   31.0870   53.5970 C   0  0  0  0  0  0  0  0  0  0  0  0
   50.7870   31.5700   52.4920 C   0  0  0  0  0  0  0  0  0  0  0  0
   51.4640   31.8490   51.3030 C   0  0  0  0  0  0  0  0  0  0  0  0
   50.7620   32.3260   50.2030 O   0  0  0  0  0  0  0  0  0  0  0  0
   52.8460   31.6470   51.2170 C   0  0  0  0  0  0  0  0  0  0  0  0
   56.2160   32.1470   52.3720 S   0  0  0  0  0  0  0  0  0  0  0  0
   58.7550   31.5880   49.5770 C   0  0  0  0  0  0  0  0  0  0  0  0
   58.1760   30.3640   49.6030 F   0  0  0  0  0  0  0  0  0  0  0  0
   56.7465   30.7238   44.9624 H   0  0  0  0  0  0  0  0  0  0  0  0
   56.5023   32.1370   43.8809 H   0  0  0  0  0  0  0  0  0  0  0  0
   58.0739   31.2671   43.8809 H   0  0  0  0  0  0  0  0  0  0  0  0
   59.8265   34.0150   47.4130 H   0  0  0  0  0  0  0  0  0  0  0  0
   60.5967   35.0272   49.5517 H   0  0  0  0  0  0  0  0  0  0  0  0
   60.1681   33.8669   51.7139 H   0  0  0  0  0  0  0  0  0  0  0  0
   59.5627   30.5684   52.1727 H   0  0  0  0  0  0  0  0  0  0  0  0
   59.1713   32.1557   52.9241 H   0  0  0  0  0  0  0  0  0  0  0  0
   55.1601   28.7775   51.9293 H   0  0  0  0  0  0  0  0  0  0  0  0
   53.4172   30.4981   54.3912 H   0  0  0  0  0  0  0  0  0  0  0  0
   50.9575   30.8672   54.5335 H   0  0  0  0  0  0  0  0  0  0  0  0
   49.7008   31.7305   52.5581 H   0  0  0  0  0  0  0  0  0  0  0  0
   53.3726   31.8677   50.2768 H   0  0  0  0  0  0  0  0  0  0  0  0
  1  2  1  0
  2  3  2  0
  2  4  2  0
  2  5  1  0
  5  6  1  0
  6  7  2  0
  7  8  1  0
  8  9  2  0
  9 10  1  0
 10 11  1  0
 11 12  1  0
 12 13  2  0
 13 14  1  0
 14 15  2  0
 15 16  1  0
 16 17  2  0
 17 18  1  0
 18 19  2  0
 19 20  1  0
 20 21  1  0
 20 22  2  0
 15 23  1  0
 10 24  2  0
 24 25  1  0
 24  6  1  0
 23 12  1  0
 22 16  1  0
  1 26  1  0
  1 27  1  0
  1 28  1  0
  7 29  1  0
  8 30  1  0
  9 31  1  0
 11 32  1  0
 11 33  1  0
 14 34  1  0
 17 35  1  0
 18 36  1  0
 19 37  1  0
 22 38  1  0
M  CHG  2   5  -1  21  -1
M  END
>  <UniqueID>  (15) 
15

>  <SMILES>  (15) 
CS(=O)(=O)[N-]c1cccc(Cc2ncc(-c3cccc([O-])c3)s2)c1F

>  <Energy>  (15) 
72.80243216299706

>  <Genealogy>  (15) 
CS(=O)(=O)[N-]c1cccc(Cc2ncc(-c3cccc([O-])c3)s2)c1F (protonated)
CS(=O)(=O)[N-]c1cccc(Cc2ncc(-c3cccc([O-])c3)s2)c1F (3D coordinates assigned)
CS(=O)(=O)[N-]c1cccc(Cc2ncc(-c3cccc([O-])c3)s2)c1F (optimized conformer: 72.80243216299706 kcal/mol)

>  <smiles>  (15) 
CS(=O)(=O)Nc1cccc(Cc2ncc(-c3cccc(O)c3)s2)c1F

>  <score_type>  (15) 
oracle

>  <origin>  (15) 
adg

>  <m_score__min__energy>  (15) 
-13.460000000000001

>  <m_primary>  (15) 
energy

$$$$
15:0
     RDKit          3D

 55 58  0  0  0  0  0  0  0  0999 V2000
   57.3567   27.7040   46.9668 H   0  0  0  0  0  0  0  0  0  0  0  0
   57.3450   28.2340   46.0030 C   0  0  0  0  0  0  0  0  0  0  0  0
   57.0230   29.5540   45.9600 N   0  0  0  0  0  0  0  0  0  0  0  0
   56.9960   30.2570   44.7940 C   0  0  0  0  0  0  0  0  0  0  0  0
   56.6570   31.5130   44.7720 N   0  0  0  0  0  0  0  0  0  0  0  0
   57.5550   32.6330   44.8110 C   0  0  0  0  0  0  0  0  0  0  0  0
   57.5820   33.4200   43.8270 O   0  0  0  0  0  0  0  0  0  0  0  0
   58.5230   32.8370   45.9550 C   0  0  0  0  0  0  0  0  0  0  0  0
   59.1553   31.9400   46.0296 H   0  0  0  0  0  0  0  0  0  0  0  0
   57.7720   32.9960   47.2830 C   0  0  0  0  0  0  0  0  0  0  0  0
   57.1400   32.1111   47.4486 H   0  0  0  0  0  0  0  0  0  0  0  0
   57.1523   33.9035   47.2325 H   0  0  0  0  0  0  0  0  0  0  0  0
   58.7630   33.1370   48.4560 C   0  0  0  0  0  0  0  0  0  0  0  0
   59.1032   32.1311   48.7430 H   0  0  0  0  0  0  0  0  0  0  0  0
   58.2240   33.6515   49.2652 H   0  0  0  0  0  0  0  0  0  0  0  0
   59.9620   33.9650   48.1460 N   0  0  0  0  0  0  0  0  0  0  0  0
   61.2060   33.1710   48.0590 C   0  0  0  0  0  0  0  0  0  0  0  0
   61.8177   33.3562   48.9542 H   0  0  0  0  0  0  0  0  0  0  0  0
   61.7582   33.4701   47.1559 H   0  0  0  0  0  0  0  0  0  0  0  0
   60.8850   31.7010   47.9720 C   0  0  0  0  0  0  0  0  0  0  0  0
   60.6100   30.9750   49.1410 C   0  0  0  0  0  0  0  0  0  0  0  0
   60.6292   31.4813   50.1174 H   0  0  0  0  0  0  0  0  0  0  0  0
   60.3120   29.6120   49.0700 C   0  0  0  0  0  0  0  0  0  0  0  0
   60.0849   29.0509   49.9885 H   0  0  0  0  0  0  0  0  0  0  0  0
   60.3020   28.9610   47.8350 C   0  0  0  0  0  0  0  0  0  0  0  0
   60.0602   27.8892   47.7827 H   0  0  0  0  0  0  0  0  0  0  0  0
   60.5990   29.6680   46.6610 C   0  0  0  0  0  0  0  0  0  0  0  0
   60.5640   28.9730   45.3320 C   0  0  0  0  0  0  0  0  0  0  0  0
   60.5092   27.8855   45.4882 H   0  0  0  0  0  0  0  0  0  0  0  0
   59.6815   29.3071   44.7666 H   0  0  0  0  0  0  0  0  0  0  0  0
   61.4756   29.2168   44.7666 H   0  0  0  0  0  0  0  0  0  0  0  0
   60.8720   31.0420   46.7310 C   0  0  0  0  0  0  0  0  0  0  0  0
   61.0770   31.6067   45.8095 H   0  0  0  0  0  0  0  0  0  0  0  0
   59.7800   34.8410   46.9700 C   0  0  0  0  0  0  0  0  0  0  0  0
   60.7067   35.4108   46.8072 H   0  0  0  0  0  0  0  0  0  0  0  0
   58.9286   35.5063   47.1761 H   0  0  0  0  0  0  0  0  0  0  0  0
   59.4560   34.0460   45.6890 C   0  0  0  0  0  0  0  0  0  0  0  0
   60.3974   33.6756   45.2571 H   0  0  0  0  0  0  0  0  0  0  0  0
   58.9318   34.7249   45.0003 H   0  0  0  0  0  0  0  0  0  0  0  0
   57.2860   29.6050   43.5920 C   0  0  0  0  0  0  0  0  0  0  0  0
   57.2505   30.1557   42.6404 H   0  0  0  0  0  0  0  0  0  0  0  0
   57.6210   28.2500   43.6080 C   0  0  0  0  0  0  0  0  0  0  0  0
   57.8533   27.7326   42.6655 H   0  0  0  0  0  0  0  0  0  0  0  0
   57.6630   27.5440   44.8210 C   0  0  0  0  0  0  0  0  0  0  0  0
   57.9930   26.0970   44.8370 C   0  0  0  0  0  0  0  0  0  0  0  0
   58.9670   25.6910   45.5240 O   0  0  0  0  0  0  0  0  0  0  0  0
   57.2850   25.1450   44.0290 N   0  0  0  0  0  0  0  0  0  0  0  0
   57.4440   23.8530   44.0540 C   0  0  0  0  0  0  0  0  0  0  0  0
   56.5170   22.7920   43.1440 S   0  0  0  0  0  0  0  0  0  0  0  0
   57.3510   21.4330   43.6880 C   0  0  0  0  0  0  0  0  0  0  0  0
   57.1472   20.3916   43.3982 H   0  0  0  0  0  0  0  0  0  0  0  0
   58.3430   21.8570   44.5680 C   0  0  0  0  0  0  0  0  0  0  0  0
   59.0307   21.1583   45.0669 H   0  0  0  0  0  0  0  0  0  0  0  0
   58.3960   23.2010   44.7630 N   0  0  0  0  0  0  0  0  0  0  0  0
   59.1140   23.6540   45.3710 H   0  0  0  0  0  0  0  0  0  0  0  0
  1  2  1  0
  2  3  1  0
  3  4  1  0
  4  5  2  3
  5  6  1  0
  6  7  2  0
  6  8  1  0
  8  9  1  0
  8 10  1  0
 10 11  1  0
 10 12  1  0
 10 13  1  0
 13 14  1  0
 13 15  1  0
 13 16  1  0
 16 17  1  0
 17 18  1  0
 17 19  1  0
 17 20  1  0
 20 21  2  0
 21 22  1  0
 21 23  1  0
 23 24  1  0
 23 25  2  0
 25 26  1  0
 25 27  1  0
 27 28  1  0
 28 29  1  0
 28 30  1  0
 28 31  1  0
 27 32  2  0
 32 33  1  0
 16 34  1  0
 34 35  1  0
 34 36  1  0
 34 37  1  0
 37 38  1  0
 37 39  1  0
  4 40  1  0
 40 41  1  0
 40 42  2  0
 42 43  1  0
 42 44  1  0
 44 45  1  0
 45 46  2  0
 45 47  1  0
 47 48  2  0
 48 49  1  0
 49 50  1  0
 50 51  1  0
 50 52  2  0
 52 53  1  0
 52 54  1  0
 54 55  1  0
 44  2  2  0
 54 48  1  0
 37  8  1  0
 32 20  1  0
M  CHG  1   3  -1
M  END
>  <UniqueID>  (16) 
16

>  <SMILES>  (16) 
Cc1cccc(CN2CCC(C(=O)N=c3ccc(C(=O)/N=c4\[nH]ccs4)c[n-]3)CC2)c1

>  <Energy>  (16) 
109.05186414156368

>  <Genealogy>  (16) 
Cc1cccc(CN2CCC(C(=O)N=c3ccc(C(=O)N=c4[nH]ccs4)c[n-]3)CC2)c1 (protonated)
Cc1cccc(CN2CCC(C(=O)N=c3ccc(C(=O)/N=c4\[nH]ccs4)c[n-]3)CC2)c1 (cis-trans isomerization)
Cc1cccc(CN2CCC(C(=O)N=c3ccc(C(=O)/N=c4\[nH]ccs4)c[n-]3)CC2)c1 (3D coordinates assigned)
Cc1cccc(CN2CCC(C(=O)N=c3ccc(C(=O)/N=c4\[nH]ccs4)c[n-]3)CC2)c1 (nonaromatic ring conformer: 109.05186414156368 kcal/mol)

>  <smiles>  (16) 
Cc1cccc(CN2CCC(C(=O)N=c3ccc(C(=O)N=c4[nH]ccs4)c[nH]3)CC2)c1

>  <score_type>  (16) 
oracle

>  <origin>  (16) 
adg

>  <m_score__min__energy>  (16) 
-11.74

>  <m_primary>  (16) 
energy

$$$$
16:0
     RDKit          3D

 46 48  0  0  0  0  0  0  0  0999 V2000
   60.9782   27.1135   47.0024 H   0  0  0  0  0  0  0  0  0  0  0  0
   59.9340   27.2390   46.6800 C   0  0  0  0  0  0  0  0  0  0  0  0
   58.9280   26.7200   47.4270 N   0  0  0  0  0  0  0  0  0  0  0  0
   57.6270   26.8560   47.0610 C   0  0  0  0  0  0  0  0  0  0  0  0
   56.8343   26.4239   47.6895 H   0  0  0  0  0  0  0  0  0  0  0  0
   57.2890   27.5420   45.8900 C   0  0  0  0  0  0  0  0  0  0  0  0
   55.9750   27.6460   45.5740 F   0  0  0  0  0  0  0  0  0  0  0  0
   58.3170   28.0950   45.0880 C   0  0  0  0  0  0  0  0  0  0  0  0
   58.1060   28.7510   43.9810 N   0  0  0  0  0  0  0  0  0  0  0  0
   56.8920   29.9470   43.6470 S   0  0  0  0  0  0  0  0  0  0  0  0
   55.9960   30.1200   44.8430 O   0  0  0  0  0  0  0  0  0  0  0  0
   56.0840   29.5380   42.4470 O   0  0  0  0  0  0  0  0  0  0  0  0
   57.7080   31.4940   43.3000 C   0  0  0  0  0  0  0  0  0  0  0  0
   58.6651   31.2935   42.7962 H   0  0  0  0  0  0  0  0  0  0  0  0
   57.0588   32.1015   42.6524 H   0  0  0  0  0  0  0  0  0  0  0  0
   57.9680   32.2490   44.5740 C   0  0  0  0  0  0  0  0  0  0  0  0
   57.4060   33.5180   44.7730 C   0  0  0  0  0  0  0  0  0  0  0  0
   56.7886   33.9733   43.9847 H   0  0  0  0  0  0  0  0  0  0  0  0
   57.6270   34.2070   45.9690 C   0  0  0  0  0  0  0  0  0  0  0  0
   57.1927   35.2070   46.1152 H   0  0  0  0  0  0  0  0  0  0  0  0
   58.3990   33.6270   46.9790 C   0  0  0  0  0  0  0  0  0  0  0  0
   58.5763   34.1744   47.9165 H   0  0  0  0  0  0  0  0  0  0  0  0
   58.9480   32.3500   46.8010 C   0  0  0  0  0  0  0  0  0  0  0  0
   59.9350   31.6140   48.0600 S   0  0  0  0  0  0  0  0  0  0  0  0
   59.7080   30.1270   48.0430 O   0  0  0  0  0  0  0  0  0  0  0  0
   59.5290   32.1460   49.4080 O   0  0  0  0  0  0  0  0  0  0  0  0
   61.6200   31.9550   47.7630 N   0  0  0  0  0  0  0  0  0  0  0  0
   61.7450   33.0590   46.7910 C   0  0  0  0  0  0  0  0  0  0  0  0
   61.4729   32.6867   45.7923 H   0  0  0  0  0  0  0  0  0  0  0  0
   61.0730   33.8705   47.1069 H   0  0  0  0  0  0  0  0  0  0  0  0
   63.1840   33.6190   46.7410 C   0  0  0  0  0  0  0  0  0  0  0  0
   63.4749   33.7664   45.6905 H   0  0  0  0  0  0  0  0  0  0  0  0
   63.2046   34.5732   47.2880 H   0  0  0  0  0  0  0  0  0  0  0  0
   64.1370   32.6990   47.3770 N   0  0  0  0  0  0  0  0  0  0  0  0
   65.0990   33.1060   47.3110 H   0  0  0  0  0  0  0  0  0  0  0  0
   64.1340   31.7860   46.8640 H   0  0  0  0  0  0  0  0  0  0  0  0
   63.8060   32.4760   48.7950 C   0  0  0  0  0  0  0  0  0  0  0  0
   64.3239   31.5690   49.1401 H   0  0  0  0  0  0  0  0  0  0  0  0
   64.1290   33.3640   49.3582 H   0  0  0  0  0  0  0  0  0  0  0  0
   62.2910   32.2990   49.0250 C   0  0  0  0  0  0  0  0  0  0  0  0
   62.1266   31.4927   49.7549 H   0  0  0  0  0  0  0  0  0  0  0  0
   61.8743   33.2430   49.4060 H   0  0  0  0  0  0  0  0  0  0  0  0
   58.7330   31.6650   45.5980 C   0  0  0  0  0  0  0  0  0  0  0  0
   59.1656   30.6639   45.4541 H   0  0  0  0  0  0  0  0  0  0  0  0
   59.6470   27.9320   45.5030 C   0  0  0  0  0  0  0  0  0  0  0  0
   60.4655   28.3513   44.8995 H   0  0  0  0  0  0  0  0  0  0  0  0
  1  2  1  0
  2  3  1  0
  3  4  1  0
  4  5  1  0
  4  6  2  0
  6  7  1  0
  6  8  1  0
  8  9  2  0
  9 10  1  0
 10 11  2  0
 10 12  2  0
 10 13  1  0
 13 14  1  0
 13 15  1  0
 13 16  1  0
 16 17  2  0
 17 18  1  0
 17 19  1  0
 19 20  1  0
 19 21  2  0
 21 22  1  0
 21 23  1  0
 23 24  1  0
 24 25  2  0
 24 26  2  0
 24 27  1  0
 27 28  1  0
 28 29  1  0
 28 30  1  0
 28 31  1  0
 31 32  1  0
 31 33  1  0
 31 34  1  0
 34 35  1  0
 34 36  1  0
 34 37  1  0
 37 38  1  0
 37 39  1  0
 37 40  1  0
 40 41  1  0
 40 42  1  0
 23 43  2  0
 43 44  1  0
  8 45  1  0
 45 46  1  0
 45  2  2  0
 43 16  1  0
 40 27  1  0
M  CHG  2   3  -1  34   1
M  END
>  <UniqueID>  (17) 
17

>  <SMILES>  (17) 
O=S(=O)(Cc1cccc(S(=O)(=O)N2CC[NH2+]CC2)c1)/N=c1/cc[n-]cc1F

>  <Energy>  (17) 
56.60366914580827

>  <Genealogy>  (17) 
O=S(=O)(Cc1cccc(S(=O)(=O)N2CC[NH2+]CC2)c1)N=c1cc[n-]cc1F (protonated)
O=S(=O)(Cc1cccc(S(=O)(=O)N2CC[NH2+]CC2)c1)/N=c1/cc[n-]cc1F (cis-trans isomerization)
O=S(=O)(Cc1cccc(S(=O)(=O)N2CC[NH2+]CC2)c1)/N=c1/cc[n-]cc1F (3D coordinates assigned)
O=S(=O)(Cc1cccc(S(=O)(=O)N2CC[NH2+]CC2)c1)/N=c1/cc[n-]cc1F (nonaromatic ring conformer: 56.60366914580827 kcal/mol)

>  <smiles>  (17) 
O=S(=O)(Cc1cccc(S(=O)(=O)N2CCNCC2)c1)N=c1cc[nH]cc1F

>  <score_type>  (17) 
oracle

>  <origin>  (17) 
adg

>  <m_score__min__energy>  (17) 
-9.6899999999999995

>  <m_primary>  (17) 
energy

$$$$
17:0
     RDKit          3D

 35 37  0  0  0  0  0  0  0  0999 V2000
   57.0350   30.5970   42.7940 O   0  0  0  0  0  0  0  0  0  0  0  0
   57.0440   30.5100   44.0540 C   0  0  0  0  0  0  0  0  0  0  0  0
   56.6560   31.6310   44.8670 N   0  0  0  0  0  0  0  0  0  0  0  0
   57.4250   32.5830   45.3180 C   0  0  0  0  0  0  0  0  0  0  0  0
   57.4800   32.8700   46.6500 N   0  0  0  0  0  0  0  0  0  0  0  0
   58.2710   33.8570   47.1460 C   0  0  0  0  0  0  0  0  0  0  0  0
   59.0640   34.6150   46.2850 C   0  0  0  0  0  0  0  0  0  0  0  0
   59.0310   34.3480   44.9160 C   0  0  0  0  0  0  0  0  0  0  0  0
   58.2120   33.3290   44.4190 C   0  0  0  0  0  0  0  0  0  0  0  0
   58.1960   33.0800   43.0450 O   0  0  0  0  0  0  0  0  0  0  0  0
   57.4580   29.2410   44.6990 C   0  0  0  0  0  0  0  0  0  0  0  0
   58.8180   28.9010   44.8040 C   0  0  0  0  0  0  0  0  0  0  0  0
   59.2050   27.7100   45.4220 C   0  0  0  0  0  0  0  0  0  0  0  0
   58.2420   26.8410   45.9360 C   0  0  0  0  0  0  0  0  0  0  0  0
   56.8770   27.1510   45.8200 C   0  0  0  0  0  0  0  0  0  0  0  0
   55.8640   26.2890   46.3570 N   0  0  0  0  0  0  0  0  0  0  0  0
   55.2350   25.2000   45.6700 C   0  0  0  0  0  0  0  0  0  0  0  0
   53.9780   25.1360   45.6570 O   0  0  0  0  0  0  0  0  0  0  0  0
   56.0180   24.1950   44.9250 C   0  0  0  0  0  0  0  0  0  0  0  0
   57.2610   23.6980   45.3020 C   0  0  0  0  0  0  0  0  0  0  0  0
   57.7490   22.7120   44.4340 C   0  0  0  0  0  0  0  0  0  0  0  0
   56.8930   22.4180   43.3820 C   0  0  0  0  0  0  0  0  0  0  0  0
   55.5260   23.3850   43.5330 S   0  0  0  0  0  0  0  0  0  0  0  0
   56.4940   28.3570   45.2220 C   0  0  0  0  0  0  0  0  0  0  0  0
   58.2859   34.0583   48.2273 H   0  0  0  0  0  0  0  0  0  0  0  0
   59.7081   35.4142   46.6806 H   0  0  0  0  0  0  0  0  0  0  0  0
   59.6503   34.9401   44.2262 H   0  0  0  0  0  0  0  0  0  0  0  0
   57.6250   32.3540   42.6330 H   0  0  0  0  0  0  0  0  0  0  0  0
   59.5830   29.5781   44.3963 H   0  0  0  0  0  0  0  0  0  0  0  0
   60.2722   27.4562   45.5038 H   0  0  0  0  0  0  0  0  0  0  0  0
   58.5527   25.9104   46.4335 H   0  0  0  0  0  0  0  0  0  0  0  0
   57.8064   24.0442   46.1923 H   0  0  0  0  0  0  0  0  0  0  0  0
   58.7212   22.2166   44.5737 H   0  0  0  0  0  0  0  0  0  0  0  0
   57.0770   21.6802   42.5871 H   0  0  0  0  0  0  0  0  0  0  0  0
   55.4272   28.6178   45.1596 H   0  0  0  0  0  0  0  0  0  0  0  0
  1  2  2  0
  2  3  1  0
  3  4  2  3
  4  5  1  0
  5  6  1  0
  6  7  2  0
  7  8  1  0
  8  9  2  0
  9 10  1  0
  2 11  1  0
 11 12  2  0
 12 13  1  0
 13 14  2  0
 14 15  1  0
 15 16  1  0
 16 17  1  0
 17 18  2  0
 17 19  1  0
 19 20  2  0
 20 21  1  0
 21 22  2  0
 22 23  1  0
 15 24  2  0
  9  4  1  0
 24 11  1  0
 23 19  1  0
  6 25  1  0
  7 26  1  0
  8 27  1  0
 10 28  1  0
 12 29  1  0
 13 30  1  0
 14 31  1  0
 20 32  1  0
 21 33  1  0
 22 34  1  0
 24 35  1  0
M  CHG  2   5  -1  16  -1
M  END
>  <UniqueID>  (18) 
18

>  <SMILES>  (18) 
O=C(N=c1[n-]cccc1O)c1cccc([N-]C(=O)c2cccs2)c1

>  <Energy>  (18) 
73.88480989706031

>  <Genealogy>  (18) 
O=C(N=c1[n-]cccc1O)c1cccc([N-]C(=O)c2cccs2)c1 (protonated)
O=C(N=c1[n-]cccc1O)c1cccc([N-]C(=O)c2cccs2)c1 (3D coordinates assigned)
O=C(N=c1[n-]cccc1O)c1cccc([N-]C(=O)c2cccs2)c1 (optimized conformer: 73.88480989706031 kcal/mol)

>  <smiles>  (18) 
O=C(N=c1[nH]cccc1O)c1cccc(NC(=O)c2cccs2)c1

>  <score_type>  (18) 
oracle

>  <origin>  (18) 
adg

>  <m_score__min__energy>  (18) 
-11.41

>  <m_primary>  (18) 
energy

$$$$
18:0
     RDKit          3D

 64 67  0  0  0  0  0  0  0  0999 V2000
   55.1460   29.3150   44.5970 O   0  0  0  0  0  0  0  0  0  0  0  0
   56.3380   29.0070   44.8790 C   0  0  0  0  0  0  0  0  0  0  0  0
   56.6320   27.6380   45.2220 N   0  0  0  0  0  0  0  0  0  0  0  0
   57.9020   27.1280   45.7590 C   0  0  0  0  0  0  0  0  0  0  0  0
   59.0860   27.3900   44.8140 C   0  0  0  0  0  0  0  0  0  0  0  0
   59.5750   28.8520   44.8640 C   0  0  0  0  0  0  0  0  0  0  0  0
   58.6580   29.8370   44.1250 C   0  0  0  0  0  0  0  0  0  0  0  0
   57.3670   30.0720   44.8710 C   0  0  0  0  0  0  0  0  0  0  0  0
   57.1020   31.1760   45.5120 N   0  0  0  0  0  0  0  0  0  0  0  0
   57.6520   32.4920   45.3260 C   0  0  0  0  0  0  0  0  0  0  0  0
   57.0510   33.3490   44.6240 O   0  0  0  0  0  0  0  0  0  0  0  0
   58.9750   32.8160   45.9030 C   0  0  0  0  0  0  0  0  0  0  0  0
   59.8220   31.7950   46.3710 C   0  0  0  0  0  0  0  0  0  0  0  0
   61.0710   32.1060   46.9180 C   0  0  0  0  0  0  0  0  0  0  0  0
   61.5080   33.4390   46.9780 C   0  0  0  0  0  0  0  0  0  0  0  0
   62.9020   33.7650   47.4490 C   0  0  0  0  0  0  0  0  0  0  0  0
   62.9460   34.2590   48.9050 C   0  0  0  0  0  0  0  0  0  0  0  0
   62.7640   33.1400   49.9180 C   0  0  0  0  0  0  0  0  0  0  0  0
   63.9210   32.3980   50.2760 C   0  0  0  0  0  0  0  0  0  0  0  0
   65.1560   32.6830   49.6980 O   0  0  0  0  0  0  0  0  0  0  0  0
   63.8500   31.3730   51.2180 C   0  0  0  0  0  0  0  0  0  0  0  0
   62.6420   31.0660   51.8300 C   0  0  0  0  0  0  0  0  0  0  0  0
   61.4940   31.7820   51.5010 C   0  0  0  0  0  0  0  0  0  0  0  0
   61.5190   32.8130   50.5450 C   0  0  0  0  0  0  0  0  0  0  0  0
   59.9430   33.5580   50.1640 S   0  0  0  0  0  0  0  0  0  0  0  0
   59.2760   33.9710   51.4490 O   0  0  0  0  0  0  0  0  0  0  0  0
   60.0640   34.7940   49.3210 O   0  0  0  0  0  0  0  0  0  0  0  0
   58.9480   32.3960   49.3400 N   0  0  0  0  0  0  0  0  0  0  0  0
   58.5510   31.3330   50.2590 C   0  0  0  0  0  0  0  0  0  0  0  0
   59.1720   30.0370   49.8280 C   0  0  0  0  0  0  0  0  0  0  0  0
   59.0880   29.6150   48.4890 C   0  0  0  0  0  0  0  0  0  0  0  0
   59.6710   28.4040   48.0950 C   0  0  0  0  0  0  0  0  0  0  0  0
   60.3620   27.6210   49.0280 C   0  0  0  0  0  0  0  0  0  0  0  0
   60.9420   26.4590   48.6390 F   0  0  0  0  0  0  0  0  0  0  0  0
   60.4620   28.0440   50.3590 C   0  0  0  0  0  0  0  0  0  0  0  0
   59.8730   29.2470   50.7600 C   0  0  0  0  0  0  0  0  0  0  0  0
   60.6700   34.4560   46.4980 C   0  0  0  0  0  0  0  0  0  0  0  0
   59.4110   34.1490   45.9800 C   0  0  0  0  0  0  0  0  0  0  0  0
   55.8370   26.9600   45.1820 H   0  0  0  0  0  0  0  0  0  0  0  0
   58.1022   27.6219   46.7213 H   0  0  0  0  0  0  0  0  0  0  0  0
   57.8025   26.0389   45.8775 H   0  0  0  0  0  0  0  0  0  0  0  0
   59.9182   26.7305   45.1013 H   0  0  0  0  0  0  0  0  0  0  0  0
   58.7433   27.1891   43.7882 H   0  0  0  0  0  0  0  0  0  0  0  0
   59.6383   29.1608   45.9179 H   0  0  0  0  0  0  0  0  0  0  0  0
   60.5512   28.8811   44.3578 H   0  0  0  0  0  0  0  0  0  0  0  0
   59.1837   30.7967   44.0129 H   0  0  0  0  0  0  0  0  0  0  0  0
   58.4112   29.4032   43.1447 H   0  0  0  0  0  0  0  0  0  0  0  0
   59.4999   30.7452   46.3063 H   0  0  0  0  0  0  0  0  0  0  0  0
   61.7148   31.3016   47.3035 H   0  0  0  0  0  0  0  0  0  0  0  0
   63.5200   32.8587   47.3678 H   0  0  0  0  0  0  0  0  0  0  0  0
   63.2809   34.5796   46.8143 H   0  0  0  0  0  0  0  0  0  0  0  0
   63.9200   34.7381   49.0833 H   0  0  0  0  0  0  0  0  0  0  0  0
   62.1113   34.9628   49.0389 H   0  0  0  0  0  0  0  0  0  0  0  0
   64.7552   30.8046   51.4778 H   0  0  0  0  0  0  0  0  0  0  0  0
   62.5920   30.2576   52.5743 H   0  0  0  0  0  0  0  0  0  0  0  0
   60.5455   31.5354   52.0005 H   0  0  0  0  0  0  0  0  0  0  0  0
   58.8909   31.5817   51.2752 H   0  0  0  0  0  0  0  0  0  0  0  0
   57.4555   31.2336   50.2511 H   0  0  0  0  0  0  0  0  0  0  0  0
   58.5632   30.2375   47.7494 H   0  0  0  0  0  0  0  0  0  0  0  0
   59.5860   28.0675   47.0512 H   0  0  0  0  0  0  0  0  0  0  0  0
   61.0053   27.4284   51.0910 H   0  0  0  0  0  0  0  0  0  0  0  0
   59.9572   29.5773   51.8058 H   0  0  0  0  0  0  0  0  0  0  0  0
   61.0073   35.5025   46.5300 H   0  0  0  0  0  0  0  0  0  0  0  0
   58.7541   34.9584   45.6288 H   0  0  0  0  0  0  0  0  0  0  0  0
  1  2  2  0
  2  3  1  0
  3  4  1  0
  4  5  1  0
  5  6  1  0
  6  7  1  0
  7  8  1  0
  8  9  2  3
  9 10  1  0
 10 11  2  0
 10 12  1  0
 12 13  2  0
 13 14  1  0
 14 15  2  0
 15 16  1  0
 16 17  1  0
 17 18  1  0
 18 19  2  0
 19 20  1  0
 19 21  1  0
 21 22  2  0
 22 23  1  0
 23 24  2  0
 24 25  1  0
 25 26  2  0
 25 27  2  0
 25 28  1  0
 28 29  1  0
 29 30  1  0
 30 31  2  0
 31 32  1  0
 32 33  2  0
 33 34  1  0
 33 35  1  0
 35 36  2  0
 15 37  1  0
 37 38  2  0
  8  2  1  0
 38 12  1  0
 24 18  1  0
 36 30  1  0
  3 39  1  0
  4 40  1  0
  4 41  1  0
  5 42  1  0
  5 43  1  0
  6 44  1  0
  6 45  1  0
  7 46  1  0
  7 47  1  0
 13 48  1  0
 14 49  1  0
 16 50  1  0
 16 51  1  0
 17 52  1  0
 17 53  1  0
 21 54  1  0
 22 55  1  0
 23 56  1  0
 29 57  1  0
 29 58  1  0
 31 59  1  0
 32 60  1  0
 35 61  1  0
 36 62  1  0
 37 63  1  0
 38 64  1  0
M  CHG  2  20  -1  28  -1
M  END
>  <UniqueID>  (19) 
19

>  <SMILES>  (19) 
O=C1NCCCCC1=NC(=O)c1ccc(CCc2c([O-])cccc2S(=O)(=O)[N-]Cc2ccc(F)cc2)cc1

>  <Energy>  (19) 
75.26917966215035

>  <Genealogy>  (19) 
O=C1NCCCCC1=NC(=O)c1ccc(CCc2c([O-])cccc2S(=O)(=O)[N-]Cc2ccc(F)cc2)cc1 (protonated)
O=C1NCCCCC1=NC(=O)c1ccc(CCc2c([O-])cccc2S(=O)(=O)[N-]Cc2ccc(F)cc2)cc1 (3D coordinates assigned)
O=C1NCCCCC1=NC(=O)c1ccc(CCc2c([O-])cccc2S(=O)(=O)[N-]Cc2ccc(F)cc2)cc1 (nonaromatic ring conformer: 75.26917966215035 kcal/mol)

>  <smiles>  (19) 
O=C1NCCCCC1=NC(=O)c1ccc(CCc2c(O)cccc2S(=O)(=O)NCc2ccc(F)cc2)cc1

>  <score_type>  (19) 
oracle

>  <origin>  (19) 
adg

>  <m_score__min__energy>  (19) 
-12.57

>  <m_primary>  (19) 
energy

$$$$
19:0
     RDKit          3D

 55 58  0  0  0  0  0  0  0  0999 V2000
   63.3920   33.8620   46.3740 C   0  0  0  0  0  0  0  0  0  0  0  0
   63.3870   32.5670   47.1790 C   0  0  0  0  0  0  0  0  0  0  0  0
   62.0930   32.4130   47.9320 C   0  0  0  0  0  0  0  0  0  0  0  0
   61.6950   33.3860   48.8630 C   0  0  0  0  0  0  0  0  0  0  0  0
   60.5050   33.2310   49.5780 C   0  0  0  0  0  0  0  0  0  0  0  0
   59.7100   32.1010   49.3800 C   0  0  0  0  0  0  0  0  0  0  0  0
   60.1040   31.1090   48.4690 C   0  0  0  0  0  0  0  0  0  0  0  0
   59.2310   29.9010   48.2470 C   0  0  0  0  0  0  0  0  0  0  0  0
   59.7540   29.0660   47.1430 N   0  0  0  0  0  0  0  0  0  0  0  0
   59.6940   27.6190   47.4840 C   0  0  0  0  0  0  0  0  0  0  0  0
   59.6850   26.7320   46.2350 C   0  0  0  0  0  0  0  0  0  0  0  0
   58.4410   27.0050   45.3750 C   0  0  0  0  0  0  0  0  0  0  0  0
   57.9360   28.4670   45.5060 C   0  0  2  0  0  0  0  0  0  0  0  0
   57.2730   28.9430   44.2760 N   0  0  0  0  0  0  0  0  0  0  0  0
   56.5290   30.1940   44.4750 C   0  0  0  0  0  0  0  0  0  0  0  0
   57.3730   31.3770   44.1010 C   0  0  0  0  0  0  0  0  0  0  0  0
   57.7690   31.7420   42.8180 C   0  0  0  0  0  0  0  0  0  0  0  0
   58.4780   32.8940   42.8540 N   0  0  0  0  0  0  0  0  0  0  0  0
   58.5260   33.2610   44.1460 C   0  0  0  0  0  0  0  0  0  0  0  0
   59.1350   34.3950   44.6820 C   0  0  0  0  0  0  0  0  0  0  0  0
   59.0490   34.5930   46.0720 C   0  0  0  0  0  0  0  0  0  0  0  0
   58.3620   33.6650   46.8870 C   0  0  0  0  0  0  0  0  0  0  0  0
   57.7560   32.5290   46.3180 C   0  0  0  0  0  0  0  0  0  0  0  0
   57.8610   32.3590   44.9380 C   0  0  0  0  0  0  0  0  0  0  0  0
   59.1040   29.4090   45.8490 C   0  0  0  0  0  0  0  0  0  0  0  0
   61.2970   31.2720   47.7460 C   0  0  0  0  0  0  0  0  0  0  0  0
   63.3953   34.7209   47.0612 H   0  0  0  0  0  0  0  0  0  0  0  0
   64.2903   33.8962   45.7400 H   0  0  0  0  0  0  0  0  0  0  0  0
   62.4940   33.9031   45.7400 H   0  0  0  0  0  0  0  0  0  0  0  0
   63.5093   31.7154   46.4936 H   0  0  0  0  0  0  0  0  0  0  0  0
   64.2153   32.5973   47.9022 H   0  0  0  0  0  0  0  0  0  0  0  0
   62.3228   34.2737   49.0299 H   0  0  0  0  0  0  0  0  0  0  0  0
   60.1937   34.0014   50.2988 H   0  0  0  0  0  0  0  0  0  0  0  0
   58.7704   31.9875   49.9406 H   0  0  0  0  0  0  0  0  0  0  0  0
   59.2036   29.3022   49.1694 H   0  0  0  0  0  0  0  0  0  0  0  0
   58.2201   30.2428   47.9801 H   0  0  0  0  0  0  0  0  0  0  0  0
   60.5718   27.3620   48.0951 H   0  0  0  0  0  0  0  0  0  0  0  0
   58.7583   27.4392   48.0336 H   0  0  0  0  0  0  0  0  0  0  0  0
   60.5865   26.9396   45.6398 H   0  0  0  0  0  0  0  0  0  0  0  0
   59.6673   25.6791   46.5529 H   0  0  0  0  0  0  0  0  0  0  0  0
   58.6912   26.8114   44.3215 H   0  0  0  0  0  0  0  0  0  0  0  0
   57.6382   26.3415   45.7289 H   0  0  0  0  0  0  0  0  0  0  0  0
   57.1939   28.4756   46.3179 H   0  0  0  0  0  0  0  0  0  0  0  0
   56.6120   28.2110   43.9250 H   0  0  0  0  0  0  0  0  0  0  0  0
   55.6261   30.1812   43.8468 H   0  0  0  0  0  0  0  0  0  0  0  0
   56.2534   30.2771   45.5367 H   0  0  0  0  0  0  0  0  0  0  0  0
   57.5384   31.1747   41.9042 H   0  0  0  0  0  0  0  0  0  0  0  0
   58.8910   33.4000   42.0380 H   0  0  0  0  0  0  0  0  0  0  0  0
   59.6658   35.1120   44.0384 H   0  0  0  0  0  0  0  0  0  0  0  0
   59.5198   35.4764   46.5279 H   0  0  0  0  0  0  0  0  0  0  0  0
   58.3005   33.8314   47.9726 H   0  0  0  0  0  0  0  0  0  0  0  0
   57.2176   31.7998   46.9412 H   0  0  0  0  0  0  0  0  0  0  0  0
   59.8559   29.3439   45.0488 H   0  0  0  0  0  0  0  0  0  0  0  0
   58.6960   30.4265   45.9402 H   0  0  0  0  0  0  0  0  0  0  0  0
   61.6100   30.4994   47.0283 H   0  0  0  0  0  0  0  0  0  0  0  0
  1  2  1  0
  2  3  1  0
  3  4  2  0
  4  5  1  0
  5  6  2  0
  6  7  1  0
  7  8  1  0
  8  9  1  0
  9 10  1  0
 10 11  1  0
 11 12  1  0
 12 13  1  0
 13 14  1  0
 14 15  1  0
 15 16  1  0
 16 17  2  0
 17 18  1  0
 18 19  1  0
 19 20  2  0
 20 21  1  0
 21 22  2  0
 22 23  1  0
 23 24  2  0
 13 25  1  0
  7 26  2  0
 26  3  1  0
 25  9  1  0
 24 16  1  0
 24 19  1  0
  1 27  1  0
  1 28  1  0
  1 29  1  0
  2 30  1  0
  2 31  1  0
  4 32  1  0
  5 33  1  0
  6 34  1  0
  8 35  1  0
  8 36  1  0
 10 37  1  0
 10 38  1  0
 11 39  1  0
 11 40  1  0
 12 41  1  0
 12 42  1  0
 13 43  1  1
 14 44  1  0
 15 45  1  0
 15 46  1  0
 17 47  1  0
 18 48  1  0
 20 49  1  0
 21 50  1  0
 22 51  1  0
 23 52  1  0
 25 53  1  0
 25 54  1  0
 26 55  1  0
M  END
>  <UniqueID>  (20) 
20

>  <SMILES>  (20) 
CCc1cccc(CN2CCC[C@H](NCc3c[nH]c4ccccc34)C2)c1

>  <Energy>  (20) 
94.58976847789698

>  <Genealogy>  (20) 
CCc1cccc(CN2CCC[C@H](NCc3c[nH]c4ccccc34)C2)c1 (chirality)
CCc1cccc(CN2CCC[C@H](NCc3c[nH]c4ccccc34)C2)c1 (3D coordinates assigned)
CCc1cccc(CN2CCC[C@H](NCc3c[nH]c4ccccc34)C2)c1 (nonaromatic ring conformer: 94.58976847789698 kcal/mol)

>  <smiles>  (20) 
CCc1cccc(CN2CCCC(NCc3c[nH]c4ccccc34)C2)c1

>  <score_type>  (20) 
oracle

>  <origin>  (20) 
adg

>  <m_score__min__energy>  (20) 
-9.1799999999999997

>  <m_primary>  (20) 
energy

$$$$
20:0
     RDKit          3D

 49 51  0  0  0  0  0  0  0  0999 V2000
   60.4430   34.1330   49.7480 O   0  0  0  0  0  0  0  0  0  0  0  0
   60.1590   33.0360   49.1930 C   0  0  0  0  0  0  0  0  0  0  0  0
   61.0900   31.9420   49.2390 N   0  0  0  0  0  0  0  0  0  0  0  0
   62.4910   32.0970   49.5190 C   0  0  0  0  0  0  0  0  0  0  0  0
   63.2950   32.9720   48.7720 C   0  0  0  0  0  0  0  0  0  0  0  0
   64.6610   33.0850   49.0440 C   0  0  0  0  0  0  0  0  0  0  0  0
   65.2570   32.3180   50.0610 C   0  0  0  0  0  0  0  0  0  0  0  0
   66.6690   32.4480   50.3250 N   0  0  0  0  0  0  0  0  0  0  0  0
   67.3870   31.4420   50.4930 O   0  0  0  0  0  0  0  0  0  0  0  0
   67.2480   33.6930   50.4220 O   0  0  0  0  0  0  0  0  0  0  0  0
   64.4500   31.4230   50.7960 C   0  0  0  0  0  0  0  0  0  0  0  0
   64.9760   30.6480   51.7780 F   0  0  0  0  0  0  0  0  0  0  0  0
   63.0840   31.3130   50.5170 C   0  0  0  0  0  0  0  0  0  0  0  0
   58.8640   32.8810   48.5020 C   0  0  0  0  0  0  0  0  0  0  0  0
   57.8610   32.4670   49.1420 O   0  0  0  0  0  0  0  0  0  0  0  0
   58.7240   33.1780   47.0590 C   0  0  0  0  0  0  0  0  0  0  0  0
   59.0430   34.4050   46.6170 C   0  0  0  0  0  0  0  0  0  0  0  0
   58.8940   34.7720   45.1730 C   0  0  0  0  0  0  0  0  0  0  0  0
   57.6870   34.0550   44.5720 C   0  0  0  0  0  0  0  0  0  0  0  0
   57.8410   32.5420   44.7550 C   0  0  0  0  0  0  0  0  0  0  0  0
   58.1830   32.1880   46.1440 N   0  0  0  0  0  0  0  0  0  0  0  0
   58.1840   30.7600   46.5000 C   0  0  0  0  0  0  0  0  0  0  0  0
   58.1190   29.8890   45.2400 C   0  0  0  0  0  0  0  0  0  0  0  0
   57.9240   28.4400   45.6060 C   0  0  0  0  0  0  0  0  0  0  0  0
   59.0360   27.6430   45.9250 C   0  0  0  0  0  0  0  0  0  0  0  0
   58.8720   26.2900   46.2330 C   0  0  0  0  0  0  0  0  0  0  0  0
   57.5980   25.7170   46.2150 C   0  0  0  0  0  0  0  0  0  0  0  0
   56.4850   26.4970   45.8850 C   0  0  0  0  0  0  0  0  0  0  0  0
   56.6420   27.8530   45.5760 C   0  0  0  0  0  0  0  0  0  0  0  0
   55.5220   28.6060   45.2400 O   0  0  0  0  0  0  0  0  0  0  0  0
   60.7200   30.9730   49.1070 H   0  0  0  0  0  0  0  0  0  0  0  0
   62.8468   33.5729   47.9670 H   0  0  0  0  0  0  0  0  0  0  0  0
   65.2769   33.7815   48.4562 H   0  0  0  0  0  0  0  0  0  0  0  0
   62.4681   30.6026   51.0879 H   0  0  0  0  0  0  0  0  0  0  0  0
   59.4206   35.1541   47.3285 H   0  0  0  0  0  0  0  0  0  0  0  0
   58.7516   35.8593   45.0866 H   0  0  0  0  0  0  0  0  0  0  0  0
   59.8008   34.4693   44.6288 H   0  0  0  0  0  0  0  0  0  0  0  0
   56.7712   34.3932   45.0788 H   0  0  0  0  0  0  0  0  0  0  0  0
   57.6227   34.2873   43.4987 H   0  0  0  0  0  0  0  0  0  0  0  0
   56.8929   32.0531   44.4867 H   0  0  0  0  0  0  0  0  0  0  0  0
   58.6607   32.2019   44.1051 H   0  0  0  0  0  0  0  0  0  0  0  0
   59.1052   30.5263   47.0538 H   0  0  0  0  0  0  0  0  0  0  0  0
   57.3017   30.5493   47.1223 H   0  0  0  0  0  0  0  0  0  0  0  0
   57.2769   30.2203   44.6146 H   0  0  0  0  0  0  0  0  0  0  0  0
   59.0656   29.9912   44.6891 H   0  0  0  0  0  0  0  0  0  0  0  0
   60.0424   28.0870   45.9324 H   0  0  0  0  0  0  0  0  0  0  0  0
   59.7472   25.6752   46.4900 H   0  0  0  0  0  0  0  0  0  0  0  0
   57.4703   24.6524   46.4604 H   0  0  0  0  0  0  0  0  0  0  0  0
   55.4831   26.0433   45.8683 H   0  0  0  0  0  0  0  0  0  0  0  0
  1  2  2  0
  2  3  1  0
  3  4  1  0
  4  5  2  0
  5  6  1  0
  6  7  2  0
  7  8  1  0
  8  9  2  0
  8 10  1  0
  7 11  1  0
 11 12  1  0
 11 13  2  0
  2 14  1  0
 14 15  2  0
 14 16  1  0
 16 17  2  0
 17 18  1  0
 18 19  1  0
 19 20  1  0
 20 21  1  0
 21 22  1  0
 22 23  1  0
 23 24  1  0
 24 25  2  0
 25 26  1  0
 26 27  2  0
 27 28  1  0
 28 29  2  0
 29 30  1  0
 13  4  1  0
 21 16  1  0
 29 24  1  0
  3 31  1  0
  5 32  1  0
  6 33  1  0
 13 34  1  0
 17 35  1  0
 18 36  1  0
 18 37  1  0
 19 38  1  0
 19 39  1  0
 20 40  1  0
 20 41  1  0
 22 42  1  0
 22 43  1  0
 23 44  1  0
 23 45  1  0
 25 46  1  0
 26 47  1  0
 27 48  1  0
 28 49  1  0
M  CHG  3   8   1  10  -1  30  -1
M  END
>  <UniqueID>  (21) 
21

>  <SMILES>  (21) 
O=C(Nc1ccc([N+](=O)[O-])c(F)c1)C(=O)C1=CCCCN1CCc1ccccc1[O-]

>  <Energy>  (21) 
56.55951917535418

>  <Genealogy>  (21) 
O=C(Nc1ccc([N+](=O)[O-])c(F)c1)C(=O)C1=CCCCN1CCc1ccccc1[O-] (protonated)
O=C(Nc1ccc([N+](=O)[O-])c(F)c1)C(=O)C1=CCCCN1CCc1ccccc1[O-] (3D coordinates assigned)
O=C(Nc1ccc([N+](=O)[O-])c(F)c1)C(=O)C1=CCCCN1CCc1ccccc1[O-] (nonaromatic ring conformer: 56.55951917535418 kcal/mol)

>  <smiles>  (21) 
O=C(Nc1ccc([N+](=O)[O-])c(F)c1)C(=O)C1=CCCCN1CCc1ccccc1O

>  <score_type>  (21) 
oracle

>  <origin>  (21) 
adg

>  <m_score__min__energy>  (21) 
-12.369999999999999

>  <m_primary>  (21) 
energy

$$$$
21:0
     RDKit          3D

 56 59  0  0  0  0  0  0  0  0999 V2000
   65.5660   33.0920   50.3300 C   0  0  0  0  0  0  0  0  0  0  0  0
   64.7670   33.8400   51.0950 C   0  0  0  0  0  0  0  0  0  0  0  0
   63.4320   34.3370   50.6050 C   0  0  0  0  0  0  0  0  0  0  0  0
   62.5920   33.2070   50.1590 N   0  0  0  0  0  0  0  0  0  0  0  0
   62.6930   32.9900   48.6880 C   0  0  0  0  0  0  0  0  0  0  0  0
   61.3590   32.6260   48.0270 C   0  0  0  0  0  0  0  0  0  0  0  0
   60.3590   33.6440   48.3690 N   0  0  0  0  0  0  0  0  0  0  0  0
   59.5230   34.2430   47.3600 C   0  0  0  0  0  0  0  0  0  0  0  0
   59.2210   35.4640   47.4540 O   0  0  0  0  0  0  0  0  0  0  0  0
   58.9980   33.4610   46.2170 C   0  0  0  0  0  0  0  0  0  0  0  0
   58.3510   34.1150   45.1550 C   0  0  0  0  0  0  0  0  0  0  0  0
   57.8390   33.3820   44.0810 C   0  0  0  0  0  0  0  0  0  0  0  0
   57.9560   31.9910   44.0610 C   0  0  0  0  0  0  0  0  0  0  0  0
   58.5840   31.3230   45.1220 C   0  0  0  0  0  0  0  0  0  0  0  0
   58.6760   29.8860   45.1160 N   0  0  0  0  0  0  0  0  0  0  0  0
   59.7480   29.1620   45.5100 C   0  0  0  0  0  0  0  0  0  0  0  0
   61.0480   29.7400   45.9790 C   0  0  0  0  0  0  0  0  0  0  0  0
   59.4910   27.8120   45.3830 C   0  0  0  0  0  0  0  0  0  0  0  0
   58.1910   27.6970   44.9060 C   0  0  0  0  0  0  0  0  0  0  0  0
   57.5470   26.5520   44.6100 C   0  0  0  0  0  0  0  0  0  0  0  0
   56.9890   25.6340   45.6210 C   0  0  0  0  0  0  0  0  0  0  0  0
   57.6110   24.5100   46.0160 N   0  0  0  0  0  0  0  0  0  0  0  0
   56.7310   23.9480   46.8720 C   0  0  0  0  0  0  0  0  0  0  0  0
   56.9640   22.8670   47.4710 O   0  0  0  0  0  0  0  0  0  0  0  0
   55.5780   24.6310   47.0260 N   0  0  0  0  0  0  0  0  0  0  0  0
   55.7490   25.6890   46.2180 C   0  0  0  0  0  0  0  0  0  0  0  0
   54.7740   26.6520   45.9970 O   0  0  0  0  0  0  0  0  0  0  0  0
   57.7170   29.0030   44.7390 C   0  0  0  0  0  0  0  0  0  0  0  0
   56.5160   29.3610   44.2540 C   0  0  0  0  0  0  0  0  0  0  0  0
   59.0990   32.0590   46.1980 C   0  0  0  0  0  0  0  0  0  0  0  0
   60.3090   34.1610   49.7400 C   0  0  0  0  0  0  0  0  0  0  0  0
   61.2040   33.3280   50.6690 C   0  0  0  0  0  0  0  0  0  0  0  0
   66.5346   32.7460   50.7199 H   0  0  0  0  0  0  0  0  0  0  0  0
   65.2555   32.8218   49.3099 H   0  0  0  0  0  0  0  0  0  0  0  0
   65.0931   34.1009   52.1126 H   0  0  0  0  0  0  0  0  0  0  0  0
   62.9211   34.8676   51.4219 H   0  0  0  0  0  0  0  0  0  0  0  0
   63.5950   35.0165   49.7554 H   0  0  0  0  0  0  0  0  0  0  0  0
   63.0692   33.9144   48.2254 H   0  0  0  0  0  0  0  0  0  0  0  0
   63.3716   32.1381   48.5341 H   0  0  0  0  0  0  0  0  0  0  0  0
   61.4873   32.5882   46.9352 H   0  0  0  0  0  0  0  0  0  0  0  0
   61.0238   31.6421   48.3871 H   0  0  0  0  0  0  0  0  0  0  0  0
   58.2469   35.2100   45.1690 H   0  0  0  0  0  0  0  0  0  0  0  0
   57.3423   33.9026   43.2489 H   0  0  0  0  0  0  0  0  0  0  0  0
   57.5550   31.4182   43.2118 H   0  0  0  0  0  0  0  0  0  0  0  0
   61.0695   29.7496   47.0787 H   0  0  0  0  0  0  0  0  0  0  0  0
   61.8794   29.1267   45.6013 H   0  0  0  0  0  0  0  0  0  0  0  0
   61.1497   30.7681   45.6013 H   0  0  0  0  0  0  0  0  0  0  0  0
   60.1812   26.9873   45.6144 H   0  0  0  0  0  0  0  0  0  0  0  0
   57.4298   26.2848   43.5494 H   0  0  0  0  0  0  0  0  0  0  0  0
   56.2525   30.4255   44.1683 H   0  0  0  0  0  0  0  0  0  0  0  0
   55.7963   28.5895   43.9427 H   0  0  0  0  0  0  0  0  0  0  0  0
   59.5859   31.5355   47.0340 H   0  0  0  0  0  0  0  0  0  0  0  0
   60.6563   35.2047   49.7449 H   0  0  0  0  0  0  0  0  0  0  0  0
   59.2720   34.1013   50.1021 H   0  0  0  0  0  0  0  0  0  0  0  0
   61.2317   33.8094   51.6577 H   0  0  0  0  0  0  0  0  0  0  0  0
   60.7781   32.3153   50.7253 H   0  0  0  0  0  0  0  0  0  0  0  0
  1  2  2  0
  2  3  1  0
  3  4  1  0
  4  5  1  0
  5  6  1  0
  6  7  1  0
  7  8  1  0
  8  9  2  0
  8 10  1  0
 10 11  2  0
 11 12  1  0
 12 13  2  0
 13 14  1  0
 14 15  1  0
 15 16  1  0
 16 17  1  0
 16 18  2  0
 18 19  1  0
 19 20  2  3
 20 21  1  0
 21 22  1  0
 22 23  1  0
 23 24  2  0
 23 25  1  0
 25 26  1  0
 26 27  1  0
 19 28  1  0
 28 29  2  0
 14 30  2  0
  7 31  1  0
 31 32  1  0
 32  4  1  0
 30 10  1  0
 28 15  1  0
 26 21  2  0
  1 33  1  0
  1 34  1  0
  2 35  1  0
  3 36  1  0
  3 37  1  0
  5 38  1  0
  5 39  1  0
  6 40  1  0
  6 41  1  0
 11 42  1  0
 12 43  1  0
 13 44  1  0
 17 45  1  0
 17 46  1  0
 17 47  1  0
 18 48  1  0
 20 49  1  0
 29 50  1  0
 29 51  1  0
 30 52  1  0
 31 53  1  0
 31 54  1  0
 32 55  1  0
 32 56  1  0
M  CHG  3  22  -1  25  -1  27  -1
M  END
>  <UniqueID>  (22) 
22

>  <SMILES>  (22) 
C=CCN1CCN(C(=O)c2cccc(-n3c(C)cc(=Cc4[n-]c(=O)[n-]c4[O-])c3=C)c2)CC1

>  <Energy>  (22) 
140.22320507479506

>  <Genealogy>  (22) 
C=CCN1CCN(C(=O)c2cccc(-n3c(C)cc(=Cc4[n-]c(=O)[n-]c4[O-])c3=C)c2)CC1 (protonated)
C=CCN1CCN(C(=O)c2cccc(-n3c(C)cc(=Cc4[n-]c(=O)[n-]c4[O-])c3=C)c2)CC1 (3D coordinates assigned)
C=CCN1CCN(C(=O)c2cccc(-n3c(C)cc(=Cc4[n-]c(=O)[n-]c4[O-])c3=C)c2)CC1 (nonaromatic ring conformer: 140.22320507479506 kcal/mol)

>  <smiles>  (22) 
C=CCN1CCN(C(=O)c2cccc(-n3c(C)cc(=Cc4[nH]c(=O)[nH]c4O)c3=C)c2)CC1

>  <score_type>  (22) 
oracle

>  <origin>  (22) 
adg

>  <m_score__min__energy>  (22) 
-17.32

>  <m_primary>  (22) 
energy

$$$$
22:0
     RDKit          3D

 42 44  0  0  0  0  0  0  0  0999 V2000
   60.9503   30.6253   49.3379 H   0  0  0  0  0  0  0  0  0  0  0  0
   60.5140   30.2200   48.4130 C   0  0  0  0  0  0  0  0  0  0  0  0
   59.3500   29.4510   48.4690 C   0  0  0  0  0  0  0  0  0  0  0  0
   58.8682   29.2543   49.4381 H   0  0  0  0  0  0  0  0  0  0  0  0
   58.7950   28.9300   47.2950 C   0  0  0  0  0  0  0  0  0  0  0  0
   57.8725   28.3327   47.3421 H   0  0  0  0  0  0  0  0  0  0  0  0
   59.4130   29.1680   46.0570 C   0  0  0  0  0  0  0  0  0  0  0  0
   58.8380   28.5900   44.7910 C   0  0  0  0  0  0  0  0  0  0  0  0
   59.3371   27.6338   44.5751 H   0  0  0  0  0  0  0  0  0  0  0  0
   59.0035   29.3094   43.9755 H   0  0  0  0  0  0  0  0  0  0  0  0
   57.3970   28.3580   44.9160 N   0  0  0  0  0  0  0  0  0  0  0  0
   56.4720   29.6400   44.1840 S   0  0  0  0  0  0  0  0  0  0  0  0
   55.1500   29.7540   44.8880 O   0  0  0  0  0  0  0  0  0  0  0  0
   56.2130   29.3430   42.7320 O   0  0  0  0  0  0  0  0  0  0  0  0
   57.3340   31.1680   44.3510 C   0  0  0  0  0  0  0  0  0  0  0  0
   57.7500   31.8840   43.2220 C   0  0  0  0  0  0  0  0  0  0  0  0
   57.5332   31.4957   42.2159 H   0  0  0  0  0  0  0  0  0  0  0  0
   58.4390   33.0890   43.3690 C   0  0  0  0  0  0  0  0  0  0  0  0
   58.7735   33.6418   42.4787 H   0  0  0  0  0  0  0  0  0  0  0  0
   58.7050   33.5950   44.6440 C   0  0  0  0  0  0  0  0  0  0  0  0
   59.2421   34.5488   44.7525 H   0  0  0  0  0  0  0  0  0  0  0  0
   58.2900   32.8920   45.7900 C   0  0  0  0  0  0  0  0  0  0  0  0
   58.5320   33.4570   47.1410 C   0  0  0  0  0  0  0  0  0  0  0  0
   57.8100   33.0930   48.1070 O   0  0  0  0  0  0  0  0  0  0  0  0
   59.6190   34.3570   47.3970 N   0  0  0  0  0  0  0  0  0  0  0  0
   60.8720   34.0180   47.4740 C   0  0  0  0  0  0  0  0  0  0  0  0
   61.6910   33.8260   48.9270 S   0  0  0  0  0  0  0  0  0  0  0  0
   63.1490   33.4690   48.1610 C   0  0  0  0  0  0  0  0  0  0  0  0
   64.4130   33.0840   48.8510 C   0  0  0  0  0  0  0  0  0  0  0  0
   64.2647   33.1292   49.9400 H   0  0  0  0  0  0  0  0  0  0  0  0
   64.6918   32.0602   48.5611 H   0  0  0  0  0  0  0  0  0  0  0  0
   65.2152   33.7785   48.5611 H   0  0  0  0  0  0  0  0  0  0  0  0
   62.9510   33.4990   46.7840 C   0  0  0  0  0  0  0  0  0  0  0  0
   63.7523   33.2860   46.0611 H   0  0  0  0  0  0  0  0  0  0  0  0
   61.6830   33.8140   46.4080 N   0  0  0  0  0  0  0  0  0  0  0  0
   61.3970   33.9030   45.4090 H   0  0  0  0  0  0  0  0  0  0  0  0
   57.6060   31.6720   45.6310 C   0  0  0  0  0  0  0  0  0  0  0  0
   57.2820   31.1090   46.5187 H   0  0  0  0  0  0  0  0  0  0  0  0
   60.5770   29.9530   46.0070 C   0  0  0  0  0  0  0  0  0  0  0  0
   61.0589   30.1576   45.0396 H   0  0  0  0  0  0  0  0  0  0  0  0
   61.1250   30.4750   47.1820 C   0  0  0  0  0  0  0  0  0  0  0  0
   62.0379   31.0870   47.1380 H   0  0  0  0  0  0  0  0  0  0  0  0
  1  2  1  0
  2  3  2  0
  3  4  1  0
  3  5  1  0
  5  6  1  0
  5  7  2  0
  7  8  1  0
  8  9  1  0
  8 10  1  0
  8 11  1  0
 11 12  1  0
 12 13  2  0
 12 14  2  0
 12 15  1  0
 15 16  2  0
 16 17  1  0
 16 18  1  0
 18 19  1  0
 18 20  2  0
 20 21  1  0
 20 22  1  0
 22 23  1  0
 23 24  2  0
 23 25  1  0
 25 26  2  0
 26 27  1  0
 27 28  1  0
 28 29  1  0
 29 30  1  0
 29 31  1  0
 29 32  1  0
 28 33  2  0
 33 34  1  0
 33 35  1  0
 35 36  1  0
 22 37  2  0
 37 38  1  0
  7 39  1  0
 39 40  1  0
 39 41  2  0
 41 42  1  0
 41  2  1  0
 37 15  1  0
 35 26  1  0
M  CHG  1  11  -1
M  END
>  <UniqueID>  (23) 
23

>  <SMILES>  (23) 
Cc1c[nH]/c(=N\C(=O)c2cccc(S(=O)(=O)[N-]Cc3ccccc3)c2)s1

>  <Energy>  (23) 
76.07943924475406

>  <Genealogy>  (23) 
Cc1c[nH]c(=NC(=O)c2cccc(S(=O)(=O)[N-]Cc3ccccc3)c2)s1 (protonated)
Cc1c[nH]/c(=N\C(=O)c2cccc(S(=O)(=O)[N-]Cc3ccccc3)c2)s1 (cis-trans isomerization)
Cc1c[nH]/c(=N\C(=O)c2cccc(S(=O)(=O)[N-]Cc3ccccc3)c2)s1 (3D coordinates assigned)
Cc1c[nH]/c(=N\C(=O)c2cccc(S(=O)(=O)[N-]Cc3ccccc3)c2)s1 (optimized conformer: 76.07943924475406 kcal/mol)

>  <smiles>  (23) 
Cc1c[nH]c(=NC(=O)c2cccc(S(=O)(=O)NCc3ccccc3)c2)s1

>  <score_type>  (23) 
oracle

>  <origin>  (23) 
adg

>  <m_score__min__energy>  (23) 
-10.74

>  <m_primary>  (23) 
energy

$$$$
23:0
     RDKit          3D

 34 35  0  0  0  0  0  0  0  0999 V2000
   56.9300   25.5170   46.8460 N   0  0  0  0  0  0  0  0  0  0  0  0
   57.5040   26.7790   46.5060 C   0  0  0  0  0  0  0  0  0  0  0  0
   58.6710   27.4120   47.4740 S   0  0  0  0  0  0  0  0  0  0  0  0
   57.1670   27.3930   45.2510 N   0  0  0  0  0  0  0  0  0  0  0  0
   57.4680   28.7570   44.9160 C   0  0  0  0  0  0  0  0  0  0  0  0
   58.7980   29.1260   44.6800 C   0  0  0  0  0  0  0  0  0  0  0  0
   59.1190   30.4430   44.3480 C   0  0  0  0  0  0  0  0  0  0  0  0
   58.1150   31.4150   44.2330 C   0  0  0  0  0  0  0  0  0  0  0  0
   58.4830   32.7690   43.9050 N   0  0  0  0  0  0  0  0  0  0  0  0
   58.2800   33.9200   44.7880 C   0  0  0  0  0  0  0  0  0  0  0  0
   59.0640   33.7580   46.0680 C   0  0  0  0  0  0  0  0  0  0  0  0
   60.4460   34.0220   46.0770 C   0  0  0  0  0  0  0  0  0  0  0  0
   61.1840   33.8840   47.2550 C   0  0  0  0  0  0  0  0  0  0  0  0
   60.5510   33.4930   48.4370 C   0  0  0  0  0  0  0  0  0  0  0  0
   59.1750   33.2460   48.4430 C   0  0  0  0  0  0  0  0  0  0  0  0
   58.4290   33.3820   47.2680 C   0  0  0  0  0  0  0  0  0  0  0  0
   57.0930   33.1470   47.3040 F   0  0  0  0  0  0  0  0  0  0  0  0
   56.7750   31.0370   44.4310 C   0  0  0  0  0  0  0  0  0  0  0  0
   56.4470   29.7130   44.7610 C   0  0  0  0  0  0  0  0  0  0  0  0
   55.1110   29.3420   44.9110 O   0  0  0  0  0  0  0  0  0  0  0  0
   57.2010   25.0250   47.7270 H   0  0  0  0  0  0  0  0  0  0  0  0
   56.2210   25.0740   46.2210 H   0  0  0  0  0  0  0  0  0  0  0  0
   56.7690   26.7830   44.5020 H   0  0  0  0  0  0  0  0  0  0  0  0
   59.5956   28.3724   44.7568 H   0  0  0  0  0  0  0  0  0  0  0  0
   60.1691   30.7210   44.1750 H   0  0  0  0  0  0  0  0  0  0  0  0
   58.9710   32.9470   42.9980 H   0  0  0  0  0  0  0  0  0  0  0  0
   58.6143   34.8329   44.2733 H   0  0  0  0  0  0  0  0  0  0  0  0
   57.2106   33.9902   45.0358 H   0  0  0  0  0  0  0  0  0  0  0  0
   60.9482   34.3389   45.1511 H   0  0  0  0  0  0  0  0  0  0  0  0
   62.2657   34.0837   47.2517 H   0  0  0  0  0  0  0  0  0  0  0  0
   61.1347   33.3795   49.3624 H   0  0  0  0  0  0  0  0  0  0  0  0
   58.6770   32.9434   49.3760 H   0  0  0  0  0  0  0  0  0  0  0  0
   55.9764   31.7862   44.3262 H   0  0  0  0  0  0  0  0  0  0  0  0
   54.7460   28.4910   44.5000 H   0  0  0  0  0  0  0  0  0  0  0  0
  1  2  1  0
  2  3  2  0
  2  4  1  0
  4  5  1  0
  5  6  2  0
  6  7  1  0
  7  8  2  0
  8  9  1  0
  9 10  1  0
 10 11  1  0
 11 12  2  0
 12 13  1  0
 13 14  2  0
 14 15  1  0
 15 16  2  0
 16 17  1  0
  8 18  1  0
 18 19  2  0
 19 20  1  0
 19  5  1  0
 16 11  1  0
  1 21  1  0
  1 22  1  0
  4 23  1  0
  6 24  1  0
  7 25  1  0
  9 26  1  0
 10 27  1  0
 10 28  1  0
 12 29  1  0
 13 30  1  0
 14 31  1  0
 15 32  1  0
 18 33  1  0
 20 34  1  0
M  END
>  <UniqueID>  (24) 
24

>  <SMILES>  (24) 
NC(=S)Nc1ccc(NCc2ccccc2F)cc1O

>  <Energy>  (24) 
38.65432794360479

>  <Genealogy>  (24) 
NC(=S)Nc1ccc(NCc2ccccc2F)cc1O (3D coordinates assigned)
NC(=S)Nc1ccc(NCc2ccccc2F)cc1O (optimized conformer: 38.65432794360479 kcal/mol)

>  <smiles>  (24) 
NC(=S)Nc1ccc(NCc2ccccc2F)cc1O

>  <score_type>  (24) 
oracle

>  <origin>  (24) 
adg

>  <m_score__min__energy>  (24) 
-7.5

>  <m_primary>  (24) 
energy

$$$$
24:0
     RDKit          3D

 52 55  0  0  0  0  0  0  0  0999 V2000
   61.5301   31.5821   46.4272 H   0  0  0  0  0  0  0  0  0  0  0  0
   61.9470   32.3270   47.1210 C   0  0  0  0  0  0  0  0  0  0  0  0
   61.1600   32.8720   48.0870 N   0  0  0  0  0  0  0  0  0  0  0  0
   61.6350   33.7980   48.9680 C   0  0  0  0  0  0  0  0  0  0  0  0
   60.8620   34.3150   49.8750 N   0  0  0  0  0  0  0  0  0  0  0  0
   60.1290   33.4060   51.1620 S   0  0  0  0  0  0  0  0  0  0  0  0
   58.6930   33.8240   51.3080 O   0  0  0  0  0  0  0  0  0  0  0  0
   60.8590   33.6990   52.4420 O   0  0  0  0  0  0  0  0  0  0  0  0
   60.1900   31.6850   50.7960 C   0  0  0  0  0  0  0  0  0  0  0  0
   61.4120   30.9970   50.8050 C   0  0  0  0  0  0  0  0  0  0  0  0
   62.3319   31.5167   51.1110 H   0  0  0  0  0  0  0  0  0  0  0  0
   61.4640   29.6520   50.4260 C   0  0  0  0  0  0  0  0  0  0  0  0
   62.4231   29.1138   50.4473 H   0  0  0  0  0  0  0  0  0  0  0  0
   60.3020   28.9880   50.0200 C   0  0  0  0  0  0  0  0  0  0  0  0
   60.3960   27.6360   49.5490 N   0  0  0  0  0  0  0  0  0  0  0  0
   60.4010   27.2380   48.1700 C   0  0  0  0  0  0  0  0  0  0  0  0
   61.1980   26.3360   47.7980 O   0  0  0  0  0  0  0  0  0  0  0  0
   59.5160   27.8830   47.1730 C   0  0  0  0  0  0  0  0  0  0  0  0
   58.4750   27.1540   46.5770 C   0  0  0  0  0  0  0  0  0  0  0  0
   58.3716   26.0785   46.7835 H   0  0  0  0  0  0  0  0  0  0  0  0
   57.5700   27.7880   45.7230 C   0  0  0  0  0  0  0  0  0  0  0  0
   56.7524   27.2118   45.2652 H   0  0  0  0  0  0  0  0  0  0  0  0
   57.7000   29.1570   45.4470 C   0  0  0  0  0  0  0  0  0  0  0  0
   56.4870   29.9930   44.4730 S   0  0  0  0  0  0  0  0  0  0  0  0
   56.7970   29.7640   43.0200 O   0  0  0  0  0  0  0  0  0  0  0  0
   55.1360   29.4000   44.7610 O   0  0  0  0  0  0  0  0  0  0  0  0
   56.4030   31.7110   44.7680 N   0  0  0  0  0  0  0  0  0  0  0  0
   57.5800   32.4350   44.2790 C   0  0  0  0  0  0  0  0  0  0  0  0
   58.3385   31.7070   43.9553 H   0  0  0  0  0  0  0  0  0  0  0  0
   57.2680   33.0745   43.4401 H   0  0  0  0  0  0  0  0  0  0  0  0
   58.1680   33.3100   45.3440 C   0  0  0  0  0  0  0  0  0  0  0  0
   57.8830   33.1990   46.6220 O   0  0  0  0  0  0  0  0  0  0  0  0
   58.5740   34.0980   47.2860 C   0  0  0  0  0  0  0  0  0  0  0  0
   58.5376   34.2480   48.3751 H   0  0  0  0  0  0  0  0  0  0  0  0
   59.3530   34.8260   46.4080 C   0  0  0  0  0  0  0  0  0  0  0  0
   60.0381   35.6492   46.6590 H   0  0  0  0  0  0  0  0  0  0  0  0
   59.0990   34.3130   45.1530 C   0  0  0  0  0  0  0  0  0  0  0  0
   59.5442   34.6349   44.2000 H   0  0  0  0  0  0  0  0  0  0  0  0
   58.7770   29.8700   45.9860 C   0  0  0  0  0  0  0  0  0  0  0  0
   58.9131   30.9317   45.7324 H   0  0  0  0  0  0  0  0  0  0  0  0
   59.6790   29.2390   46.8440 C   0  0  0  0  0  0  0  0  0  0  0  0
   60.5221   29.8065   47.2649 H   0  0  0  0  0  0  0  0  0  0  0  0
   59.0680   29.6610   50.0750 C   0  0  0  0  0  0  0  0  0  0  0  0
   58.1406   29.1268   49.8209 H   0  0  0  0  0  0  0  0  0  0  0  0
   59.0160   31.0050   50.4510 C   0  0  0  0  0  0  0  0  0  0  0  0
   58.0500   31.5306   50.4761 H   0  0  0  0  0  0  0  0  0  0  0  0
   62.9740   34.1980   48.8930 C   0  0  0  0  0  0  0  0  0  0  0  0
   63.3730   34.9369   49.6035 H   0  0  0  0  0  0  0  0  0  0  0  0
   63.8000   33.6500   47.9070 C   0  0  0  0  0  0  0  0  0  0  0  0
   64.8542   33.9565   47.8382 H   0  0  0  0  0  0  0  0  0  0  0  0
   63.2840   32.7130   47.0100 C   0  0  0  0  0  0  0  0  0  0  0  0
   63.9236   32.2837   46.2247 H   0  0  0  0  0  0  0  0  0  0  0  0
  1  2  1  0
  2  3  1  0
  3  4  1  0
  4  5  2  0
  5  6  1  0
  6  7  2  0
  6  8  2  0
  6  9  1  0
  9 10  2  0
 10 11  1  0
 10 12  1  0
 12 13  1  0
 12 14  2  0
 14 15  1  0
 15 16  1  0
 16 17  2  0
 16 18  1  0
 18 19  2  0
 19 20  1  0
 19 21  1  0
 21 22  1  0
 21 23  2  0
 23 24  1  0
 24 25  2  0
 24 26  2  0
 24 27  1  0
 27 28  1  0
 28 29  1  0
 28 30  1  0
 28 31  1  0
 31 32  1  0
 32 33  1  0
 33 34  1  0
 33 35  2  0
 35 36  1  0
 35 37  1  0
 37 38  1  0
 23 39  1  0
 39 40  1  0
 39 41  2  0
 41 42  1  0
 14 43  1  0
 43 44  1  0
 43 45  2  0
 45 46  1  0
  4 47  1  0
 47 48  1  0
 47 49  2  0
 49 50  1  0
 49 51  1  0
 51 52  1  0
 51  2  2  0
 45  9  1  0
 41 18  1  0
 37 31  2  0
M  CHG  3   3  -1  15  -1  27  -1
M  END
>  <UniqueID>  (25) 
25

>  <SMILES>  (25) 
O=C([N-]c1ccc(S(=O)(=O)/N=c2/cccc[n-]2)cc1)c1ccc(S(=O)(=O)[N-]Cc2ccco2)cc1

>  <Energy>  (25) 
87.06847094020318

>  <Genealogy>  (25) 
O=C([N-]c1ccc(S(=O)(=O)N=c2cccc[n-]2)cc1)c1ccc(S(=O)(=O)[N-]Cc2ccco2)cc1 (protonated)
O=C([N-]c1ccc(S(=O)(=O)/N=c2/cccc[n-]2)cc1)c1ccc(S(=O)(=O)[N-]Cc2ccco2)cc1 (cis-trans isomerization)
O=C([N-]c1ccc(S(=O)(=O)/N=c2/cccc[n-]2)cc1)c1ccc(S(=O)(=O)[N-]Cc2ccco2)cc1 (3D coordinates assigned)
O=C([N-]c1ccc(S(=O)(=O)/N=c2/cccc[n-]2)cc1)c1ccc(S(=O)(=O)[N-]Cc2ccco2)cc1 (optimized conformer: 87.06847094020318 kcal/mol)

>  <smiles>  (25) 
O=C(Nc1ccc(S(=O)(=O)N=c2cccc[nH]2)cc1)c1ccc(S(=O)(=O)NCc2ccco2)cc1

>  <score_type>  (25) 
oracle

>  <origin>  (25) 
adg

>  <m_score__min__energy>  (25) 
-13.699999999999999

>  <m_primary>  (25) 
energy

$$$$
25:0
     RDKit          3D

 50 53  0  0  0  0  0  0  0  0999 V2000
   55.9840   24.8660   44.1370 H   0  0  0  0  0  0  0  0  0  0  0  0
   56.0150   23.8760   43.9210 O   0  0  0  0  0  0  0  0  0  0  0  0
   56.4230   22.9330   44.8640 C   0  0  0  0  0  0  0  0  0  0  0  0
   56.8540   21.6730   44.4260 C   0  0  0  0  0  0  0  0  0  0  0  0
   56.8163   21.4235   43.3553 H   0  0  0  0  0  0  0  0  0  0  0  0
   57.3300   20.7350   45.3400 C   0  0  0  0  0  0  0  0  0  0  0  0
   57.6647   19.7447   44.9977 H   0  0  0  0  0  0  0  0  0  0  0  0
   57.3770   21.0660   46.6920 C   0  0  0  0  0  0  0  0  0  0  0  0
   57.7664   20.3412   47.4221 H   0  0  0  0  0  0  0  0  0  0  0  0
   56.9420   22.2840   47.1100 N   0  0  0  0  0  0  0  0  0  0  0  0
   56.4490   23.2230   46.2550 C   0  0  0  0  0  0  0  0  0  0  0  0
   56.0490   24.3550   46.7650 N   0  0  0  0  0  0  0  0  0  0  0  0
   56.1440   25.6670   46.1940 C   0  0  0  0  0  0  0  0  0  0  0  0
   55.0950   26.3390   46.0140 O   0  0  0  0  0  0  0  0  0  0  0  0
   57.4310   26.2020   45.7230 C   0  0  0  0  0  0  0  0  0  0  0  0
   58.1347   26.6473   46.4417 H   0  0  0  0  0  0  0  0  0  0  0  0
   57.7400   26.1510   44.4630 N   0  0  0  0  0  0  0  0  0  0  0  0
   58.0460   27.2900   43.6450 C   0  0  0  0  0  0  0  0  0  0  0  0
   58.6060   27.0970   42.5340 O   0  0  0  0  0  0  0  0  0  0  0  0
   57.7080   28.6760   44.0470 C   0  0  0  0  0  0  0  0  0  0  0  0
   58.2420   29.2220   45.2250 C   0  0  0  0  0  0  0  0  0  0  0  0
   58.8996   28.6118   45.8616 H   0  0  0  0  0  0  0  0  0  0  0  0
   57.9510   30.5000   45.5830 N   0  0  0  0  0  0  0  0  0  0  0  0
   57.1480   31.2960   44.8220 C   0  0  0  0  0  0  0  0  0  0  0  0
   56.8570   32.6070   45.2160 O   0  0  0  0  0  0  0  0  0  0  0  0
   57.8470   33.5260   45.5800 C   0  0  0  0  0  0  0  0  0  0  0  0
   58.2850   34.4500   44.6240 C   0  0  0  0  0  0  0  0  0  0  0  0
   57.8355   34.4512   43.6200 H   0  0  0  0  0  0  0  0  0  0  0  0
   59.2880   35.3700   44.9350 C   0  0  0  0  0  0  0  0  0  0  0  0
   59.6251   36.0921   44.1768 H   0  0  0  0  0  0  0  0  0  0  0  0
   59.8640   35.3750   46.2070 C   0  0  0  0  0  0  0  0  0  0  0  0
   60.6587   36.0966   46.4472 H   0  0  0  0  0  0  0  0  0  0  0  0
   59.4310   34.4620   47.1780 C   0  0  0  0  0  0  0  0  0  0  0  0
   58.4060   33.5470   46.8780 C   0  0  0  0  0  0  0  0  0  0  0  0
   57.8860   32.6910   48.0080 C   0  0  0  0  0  0  0  0  0  0  0  0
   57.2786   33.3134   48.6816 H   0  0  0  0  0  0  0  0  0  0  0  0
   57.2775   31.8790   47.5834 H   0  0  0  0  0  0  0  0  0  0  0  0
   59.0480   32.0710   48.8050 C   0  0  0  0  0  0  0  0  0  0  0  0
   58.6581   31.7383   49.7783 H   0  0  0  0  0  0  0  0  0  0  0  0
   59.4409   31.2451   48.1938 H   0  0  0  0  0  0  0  0  0  0  0  0
   60.2380   33.0340   49.0630 C   0  0  0  0  0  0  0  0  0  0  0  0
   60.4245   33.0684   50.1465 H   0  0  0  0  0  0  0  0  0  0  0  0
   61.0923   32.6382   48.4942 H   0  0  0  0  0  0  0  0  0  0  0  0
   60.0080   34.4720   48.5680 C   0  0  0  0  0  0  0  0  0  0  0  0
   59.3087   34.9817   49.2471 H   0  0  0  0  0  0  0  0  0  0  0  0
   60.9717   35.0020   48.5507 H   0  0  0  0  0  0  0  0  0  0  0  0
   56.6140   30.8020   43.6310 C   0  0  0  0  0  0  0  0  0  0  0  0
   55.9729   31.4399   43.0048 H   0  0  0  0  0  0  0  0  0  0  0  0
   56.8990   29.4930   43.2400 C   0  0  0  0  0  0  0  0  0  0  0  0
   56.4892   29.1001   42.2978 H   0  0  0  0  0  0  0  0  0  0  0  0
  1  2  1  0
  2  3  1  0
  3  4  2  0
  4  5  1  0
  4  6  1  0
  6  7  1  0
  6  8  2  0
  8  9  1  0
  8 10  1  0
 10 11  1  0
 11 12  2  3
 12 13  1  0
 13 14  2  0
 13 15  1  0
 15 16  1  0
 15 17  2  0
 17 18  1  0
 18 19  2  0
 18 20  1  0
 20 21  2  0
 21 22  1  0
 21 23  1  0
 23 24  2  0
 24 25  1  0
 25 26  1  0
 26 27  2  0
 27 28  1  0
 27 29  1  0
 29 30  1  0
 29 31  2  0
 31 32  1  0
 31 33  1  0
 33 34  2  0
 34 35  1  0
 35 36  1  0
 35 37  1  0
 35 38  1  0
 38 39  1  0
 38 40  1  0
 38 41  1  0
 41 42  1  0
 41 43  1  0
 41 44  1  0
 44 45  1  0
 44 46  1  0
 24 47  1  0
 47 48  1  0
 47 49  2  0
 49 50  1  0
 11  3  1  0
 49 20  1  0
 34 26  1  0
 44 33  1  0
M  CHG  1  10  -1
M  END
>  <UniqueID>  (26) 
26

>  <SMILES>  (26) 
O=C(/C=N/C(=O)c1ccc(Oc2cccc3c2CCCC3)nc1)N=c1[n-]cccc1O

>  <Energy>  (26) 
83.7883943587933

>  <Genealogy>  (26) 
O=C(C=NC(=O)c1ccc(Oc2cccc3c2CCCC3)nc1)N=c1[n-]cccc1O (protonated)
O=C(/C=N/C(=O)c1ccc(Oc2cccc3c2CCCC3)nc1)N=c1[n-]cccc1O (cis-trans isomerization)
O=C(/C=N/C(=O)c1ccc(Oc2cccc3c2CCCC3)nc1)N=c1[n-]cccc1O (3D coordinates assigned)
O=C(/C=N/C(=O)c1ccc(Oc2cccc3c2CCCC3)nc1)N=c1[n-]cccc1O (nonaromatic ring conformer: 83.7883943587933 kcal/mol)

>  <smiles>  (26) 
O=C(C=NC(=O)c1ccc(Oc2cccc3c2CCCC3)nc1)N=c1[nH]cccc1O

>  <score_type>  (26) 
oracle

>  <origin>  (26) 
adg

>  <m_score__min__energy>  (26) 
-11.49

>  <m_primary>  (26) 
energy

$$$$
26:0
     RDKit          3D

 44 47  0  0  0  0  0  0  0  0999 V2000
   57.8190   28.5170   55.5280 H   0  0  0  0  0  0  0  0  0  0  0  0
   57.9040   29.1190   54.6790 N   0  0  0  0  0  0  0  0  0  0  0  0
   56.8660   29.4690   53.9870 C   0  0  0  0  0  0  0  0  0  0  0  0
   56.9920   30.4240   53.0280 N   0  0  0  0  0  0  0  0  0  0  0  0
   55.9430   30.8300   52.2710 C   0  0  0  0  0  0  0  0  0  0  0  0
   56.0916   31.6004   51.5000 H   0  0  0  0  0  0  0  0  0  0  0  0
   54.6710   30.2750   52.4640 C   0  0  0  0  0  0  0  0  0  0  0  0
   53.5440   30.7760   51.6410 C   0  0  0  0  0  0  0  0  0  0  0  0
   53.1500   30.0790   50.4870 C   0  0  0  0  0  0  0  0  0  0  0  0
   53.7033   29.1814   50.1737 H   0  0  0  0  0  0  0  0  0  0  0  0
   52.0580   30.5210   49.7350 C   0  0  0  0  0  0  0  0  0  0  0  0
   51.7507   29.9669   48.8358 H   0  0  0  0  0  0  0  0  0  0  0  0
   51.3550   31.6660   50.1230 C   0  0  0  0  0  0  0  0  0  0  0  0
   50.2640   32.0940   49.3760 O   0  0  0  0  0  0  0  0  0  0  0  0
   51.7500   32.3760   51.2630 C   0  0  0  0  0  0  0  0  0  0  0  0
   51.0580   33.5160   51.6510 O   0  0  0  0  0  0  0  0  0  0  0  0
   52.8450   31.9370   52.0160 C   0  0  0  0  0  0  0  0  0  0  0  0
   53.1602   32.5027   52.9051 H   0  0  0  0  0  0  0  0  0  0  0  0
   54.5030   29.2670   53.4470 C   0  0  0  0  0  0  0  0  0  0  0  0
   53.1850   28.6180   53.6460 C   0  0  0  0  0  0  0  0  0  0  0  0
   52.2410   29.2240   54.4150 N   0  0  0  0  0  0  0  0  0  0  0  0
   51.0180   28.6660   54.5930 C   0  0  0  0  0  0  0  0  0  0  0  0
   50.1650   29.2410   55.3180 O   0  0  0  0  0  0  0  0  0  0  0  0
   50.7100   27.4940   53.9830 N   0  0  0  0  0  0  0  0  0  0  0  0
   51.6090   26.8460   53.1920 C   0  0  0  0  0  0  0  0  0  0  0  0
   51.2160   25.5840   52.5190 C   0  0  0  0  0  0  0  0  0  0  0  0
   50.3660   25.6220   51.3980 C   0  0  0  0  0  0  0  0  0  0  0  0
   49.9870   26.5877   51.0322 H   0  0  0  0  0  0  0  0  0  0  0  0
   50.0000   24.4400   50.7460 C   0  0  0  0  0  0  0  0  0  0  0  0
   49.3288   24.4788   49.8754 H   0  0  0  0  0  0  0  0  0  0  0  0
   50.4850   23.2100   51.1980 C   0  0  0  0  0  0  0  0  0  0  0  0
   50.1922   22.2812   50.6865 H   0  0  0  0  0  0  0  0  0  0  0  0
   51.3420   23.1610   52.3000 C   0  0  0  0  0  0  0  0  0  0  0  0
   51.7290   22.1932   52.6516 H   0  0  0  0  0  0  0  0  0  0  0  0
   51.7090   24.3390   52.9570 C   0  0  0  0  0  0  0  0  0  0  0  0
   52.3873   24.2936   53.8218 H   0  0  0  0  0  0  0  0  0  0  0  0
   52.8890   27.3950   53.0310 C   0  0  0  0  0  0  0  0  0  0  0  0
   53.6490   26.8732   52.4309 H   0  0  0  0  0  0  0  0  0  0  0  0
   55.6190   28.8610   54.2140 C   0  0  0  0  0  0  0  0  0  0  0  0
   55.4810   27.5440   55.4470 S   0  0  0  0  0  0  0  0  0  0  0  0
   55.8180   26.2170   54.2480 C   0  0  0  0  0  0  0  0  0  0  0  0
   56.0541   25.2874   54.7866 H   0  0  0  0  0  0  0  0  0  0  0  0
   54.9313   26.0597   53.6163 H   0  0  0  0  0  0  0  0  0  0  0  0
   56.6723   26.5018   53.6163 H   0  0  0  0  0  0  0  0  0  0  0  0
  1  2  1  0
  2  3  2  0
  3  4  1  0
  4  5  1  0
  5  6  1  0
  5  7  2  0
  7  8  1  0
  8  9  2  0
  9 10  1  0
  9 11  1  0
 11 12  1  0
 11 13  2  0
 13 14  1  0
 13 15  1  0
 15 16  1  0
 15 17  2  0
 17 18  1  0
  7 19  1  0
 19 20  1  0
 20 21  2  0
 21 22  1  0
 22 23  2  0
 22 24  1  0
 24 25  1  0
 25 26  1  0
 26 27  2  0
 27 28  1  0
 27 29  1  0
 29 30  1  0
 29 31  2  0
 31 32  1  0
 31 33  1  0
 33 34  1  0
 33 35  2  0
 35 36  1  0
 25 37  2  0
 37 38  1  0
 19 39  2  0
 39 40  1  0
 40 41  1  0
 41 42  1  0
 41 43  1  0
 41 44  1  0
 39  3  1  0
 17  8  1  0
 37 20  1  0
 35 26  1  0
M  CHG  4   4  -1  14  -1  16  -1  24  -1
M  END
>  <UniqueID>  (27) 
27

>  <SMILES>  (27) 
[H]/N=c1\[n-]cc(-c2ccc([O-])c([O-])c2)c(-c2cc(-c3ccccc3)[n-]c(=O)n2)c1SC

>  <Energy>  (27) 
64.14623544074016

>  <Genealogy>  (27) 
CSc1c(-c2cc(-c3ccccc3)[n-]c(=O)n2)c(-c2ccc([O-])c([O-])c2)c[n-]c1=N (protonated)
[H]/N=c1\[n-]cc(-c2ccc([O-])c([O-])c2)c(-c2cc(-c3ccccc3)[n-]c(=O)n2)c1SC (cis-trans isomerization)
[H]/N=c1\[n-]cc(-c2ccc([O-])c([O-])c2)c(-c2cc(-c3ccccc3)[n-]c(=O)n2)c1SC (3D coordinates assigned)
[H]/N=c1\[n-]cc(-c2ccc([O-])c([O-])c2)c(-c2cc(-c3ccccc3)[n-]c(=O)n2)c1SC (optimized conformer: 64.14623544074016 kcal/mol)

>  <smiles>  (27) 
CSc1c(-c2cc(-c3ccccc3)[nH]c(=O)n2)c(-c2ccc(O)c(O)c2)c[nH]c1=N

>  <score_type>  (27) 
oracle

>  <origin>  (27) 
adg

>  <m_score__min__energy>  (27) 
-14.68

>  <m_primary>  (27) 
energy

$$$$
27:0
     RDKit          3D

 49 51  0  0  0  0  0  0  0  0999 V2000
   58.6076   31.4278   47.9320 H   0  0  0  0  0  0  0  0  0  0  0  0
   59.5290   30.9490   47.5690 C   0  0  0  0  0  0  0  0  0  0  0  0
   60.4120   31.6930   46.8860 C   0  0  0  0  0  0  0  0  0  0  0  0
   60.1658   31.9709   45.8506 H   0  0  0  0  0  0  0  0  0  0  0  0
   61.7020   32.1620   47.4490 C   0  0  0  0  0  0  0  0  0  0  0  0
   62.5590   33.0440   46.7590 C   0  0  0  0  0  0  0  0  0  0  0  0
   62.2823   33.4027   45.7566 H   0  0  0  0  0  0  0  0  0  0  0  0
   63.7600   33.4660   47.3420 C   0  0  0  0  0  0  0  0  0  0  0  0
   64.4255   34.1492   46.7940 H   0  0  0  0  0  0  0  0  0  0  0  0
   64.1150   33.0220   48.6170 C   0  0  0  0  0  0  0  0  0  0  0  0
   65.0618   33.3503   49.0707 H   0  0  0  0  0  0  0  0  0  0  0  0
   63.2660   32.1600   49.3160 C   0  0  0  0  0  0  0  0  0  0  0  0
   63.5434   31.8138   50.3226 H   0  0  0  0  0  0  0  0  0  0  0  0
   62.0640   31.7360   48.7390 C   0  0  0  0  0  0  0  0  0  0  0  0
   61.3970   31.0641   49.2990 H   0  0  0  0  0  0  0  0  0  0  0  0
   59.7400   29.5110   47.8560 C   0  0  0  0  0  0  0  0  0  0  0  0
   60.6970   28.8200   47.3090 N   0  0  0  0  0  0  0  0  0  0  0  0
   60.8660   28.7180   45.9440 O   0  0  0  0  0  0  0  0  0  0  0  0
   60.1500   27.7460   45.1980 C   0  0  0  0  0  0  0  0  0  0  0  0
   60.5187   27.7357   44.1617 H   0  0  0  0  0  0  0  0  0  0  0  0
   60.2987   26.7553   45.6524 H   0  0  0  0  0  0  0  0  0  0  0  0
   58.6900   28.0810   45.2040 C   0  0  0  0  0  0  0  0  0  0  0  0
   58.3010   29.3510   44.9180 N   0  0  0  0  0  0  0  0  0  0  0  0
   56.9930   29.7250   44.9710 C   0  0  0  0  0  0  0  0  0  0  0  0
   56.6320   30.9430   44.6820 N   0  0  0  0  0  0  0  0  0  0  0  0
   57.3790   32.1480   44.9340 C   0  0  0  0  0  0  0  0  0  0  0  0
   57.3310   32.7890   46.1890 C   0  0  0  0  0  0  0  0  0  0  0  0
   56.7395   32.3484   47.0051 H   0  0  0  0  0  0  0  0  0  0  0  0
   58.0290   33.9790   46.4030 C   0  0  0  0  0  0  0  0  0  0  0  0
   57.9987   34.4634   47.3901 H   0  0  0  0  0  0  0  0  0  0  0  0
   58.7650   34.5550   45.3670 C   0  0  0  0  0  0  0  0  0  0  0  0
   59.3195   35.4890   45.5408 H   0  0  0  0  0  0  0  0  0  0  0  0
   58.7990   33.9480   44.1100 C   0  0  0  0  0  0  0  0  0  0  0  0
   59.3735   34.4112   43.2943 H   0  0  0  0  0  0  0  0  0  0  0  0
   58.1030   32.7480   43.8810 C   0  0  0  0  0  0  0  0  0  0  0  0
   58.1360   32.1100   42.5180 C   0  0  0  0  0  0  0  0  0  0  0  0
   58.1925   31.0168   42.6261 H   0  0  0  0  0  0  0  0  0  0  0  0
   57.2228   32.3771   41.9659 H   0  0  0  0  0  0  0  0  0  0  0  0
   59.0167   32.4699   41.9659 H   0  0  0  0  0  0  0  0  0  0  0  0
   56.0450   28.8050   45.3030 N   0  0  0  0  0  0  0  0  0  0  0  0
   55.0370   29.0860   45.3350 H   0  0  0  0  0  0  0  0  0  0  0  0
   56.3910   27.5230   45.6070 C   0  0  0  0  0  0  0  0  0  0  0  0
   55.5020   26.6880   45.9270 O   0  0  0  0  0  0  0  0  0  0  0  0
   57.7300   27.1340   45.5710 C   0  0  0  0  0  0  0  0  0  0  0  0
   58.0237   26.1050   45.8257 H   0  0  0  0  0  0  0  0  0  0  0  0
   58.7040   28.7840   48.6540 C   0  0  0  0  0  0  0  0  0  0  0  0
   58.9029   28.9236   49.7268 H   0  0  0  0  0  0  0  0  0  0  0  0
   57.7078   29.1822   48.4109 H   0  0  0  0  0  0  0  0  0  0  0  0
   58.7396   27.7118   48.4109 H   0  0  0  0  0  0  0  0  0  0  0  0
  1  2  1  0
  2  3  2  0
  3  4  1  0
  3  5  1  0
  5  6  2  0
  6  7  1  0
  6  8  1  0
  8  9  1  0
  8 10  2  0
 10 11  1  0
 10 12  1  0
 12 13  1  0
 12 14  2  0
 14 15  1  0
  2 16  1  0
 16 17  2  0
 17 18  1  0
 18 19  1  0
 19 20  1  0
 19 21  1  0
 19 22  1  0
 22 23  1  0
 23 24  1  0
 24 25  2  0
 25 26  1  0
 26 27  2  0
 27 28  1  0
 27 29  1  0
 29 30  1  0
 29 31  2  0
 31 32  1  0
 31 33  1  0
 33 34  1  0
 33 35  2  0
 35 36  1  0
 36 37  1  0
 36 38  1  0
 36 39  1  0
 24 40  1  0
 40 41  1  0
 40 42  1  0
 42 43  2  0
 42 44  1  0
 44 45  1  0
 16 46  1  0
 46 47  1  0
 46 48  1  0
 46 49  1  0
 14  5  1  0
 44 22  2  0
 35 26  1  0
M  CHG  1  23  -1
M  END
>  <UniqueID>  (28) 
28

>  <SMILES>  (28) 
C/C(C=Cc1ccccc1)=N/OCc1cc(=O)[nH]/c(=N/c2ccccc2C)[n-]1

>  <Energy>  (28) 
58.58682010112135

>  <Genealogy>  (28) 
CC(C=Cc1ccccc1)=NOCc1cc(=O)[nH]c(=Nc2ccccc2C)[n-]1 (protonated)
C/C(C=Cc1ccccc1)=N/OCc1cc(=O)[nH]/c(=N/c2ccccc2C)[n-]1 (cis-trans isomerization)
C/C(C=Cc1ccccc1)=N/OCc1cc(=O)[nH]/c(=N/c2ccccc2C)[n-]1 (3D coordinates assigned)
C/C(C=Cc1ccccc1)=N/OCc1cc(=O)[nH]/c(=N/c2ccccc2C)[n-]1 (optimized conformer: 58.58682010112135 kcal/mol)

>  <smiles>  (28) 
CC(C=Cc1ccccc1)=NOCc1cc(=O)[nH]c(=Nc2ccccc2C)[nH]1

>  <score_type>  (28) 
oracle

>  <origin>  (28) 
adg

>  <m_score__min__energy>  (28) 
-10.56

>  <m_primary>  (28) 
energy

$$$$
28:0
     RDKit          3D

 55 58  0  0  0  0  0  0  0  0999 V2000
   60.2240   30.0610   46.1420 O   0  0  0  0  0  0  0  0  0  0  0  0
   59.2570   29.9950   46.9570 C   0  0  0  0  0  0  0  0  0  0  0  0
   57.9510   29.3820   46.5290 C   0  0  0  0  0  0  0  0  0  0  0  0
   57.5180   29.8600   45.1620 C   0  0  0  0  0  0  0  0  0  0  0  0
   58.2840   30.8190   44.4730 C   0  0  0  0  0  0  0  0  0  0  0  0
   57.8520   31.3240   43.2420 C   0  0  0  0  0  0  0  0  0  0  0  0
   56.6510   30.8790   42.6890 C   0  0  0  0  0  0  0  0  0  0  0  0
   55.8820   29.9230   43.3620 C   0  0  0  0  0  0  0  0  0  0  0  0
   56.3090   29.4130   44.5930 C   0  0  0  0  0  0  0  0  0  0  0  0
   55.5250   28.4700   45.2510 O   0  0  0  0  0  0  0  0  0  0  0  0
   59.3710   30.5940   48.2560 N   0  0  0  0  0  0  0  0  0  0  0  0
   60.6030   31.1670   48.7180 C   0  0  0  0  0  0  0  0  0  0  0  0
   61.4490   30.4060   49.5340 C   0  0  0  0  0  0  0  0  0  0  0  0
   62.6130   30.9680   50.0680 C   0  0  0  0  0  0  0  0  0  0  0  0
   62.9550   32.2910   49.7720 C   0  0  0  0  0  0  0  0  0  0  0  0
   64.1430   32.8680   50.3360 N   0  0  0  0  0  0  0  0  0  0  0  0
   64.0010   33.8330   51.4340 C   0  0  0  0  0  0  0  0  0  0  0  0
   65.3340   34.5350   51.7480 C   0  0  0  0  0  0  0  0  0  0  0  0
   66.3890   33.5950   51.7850 O   0  0  0  0  0  0  0  0  0  0  0  0
   66.6180   33.1180   50.4730 C   0  0  0  0  0  0  0  0  0  0  0  0
   65.4370   32.2750   49.9720 C   0  0  0  0  0  0  0  0  0  0  0  0
   62.1280   33.0500   48.9300 C   0  0  0  0  0  0  0  0  0  0  0  0
   60.9560   32.4940   48.3950 C   0  0  0  0  0  0  0  0  0  0  0  0
   60.1560   33.2590   47.4800 N   0  0  0  0  0  0  0  0  0  0  0  0
   60.8100   33.9660   46.3800 C   0  0  0  0  0  0  0  0  0  0  0  0
   59.8190   34.1690   45.2320 C   0  0  0  0  0  0  0  0  0  0  0  0
   58.6160   34.7540   45.6970 O   0  0  0  0  0  0  0  0  0  0  0  0
   57.9620   33.8710   46.5900 C   0  0  0  0  0  0  0  0  0  0  0  0
   58.7990   33.6750   47.8570 C   0  0  0  0  0  0  0  0  0  0  0  0
   58.0647   28.2882   46.5024 H   0  0  0  0  0  0  0  0  0  0  0  0
   57.1811   29.6864   47.2533 H   0  0  0  0  0  0  0  0  0  0  0  0
   59.2305   31.1745   44.9063 H   0  0  0  0  0  0  0  0  0  0  0  0
   58.4590   32.0716   42.7103 H   0  0  0  0  0  0  0  0  0  0  0  0
   56.3084   31.2798   41.7236 H   0  0  0  0  0  0  0  0  0  0  0  0
   54.9376   29.5709   42.9213 H   0  0  0  0  0  0  0  0  0  0  0  0
   58.4940   30.7980   48.7900 H   0  0  0  0  0  0  0  0  0  0  0  0
   61.1963   29.3588   49.7566 H   0  0  0  0  0  0  0  0  0  0  0  0
   63.2614   30.3674   50.7229 H   0  0  0  0  0  0  0  0  0  0  0  0
   63.2569   34.5912   51.1487 H   0  0  0  0  0  0  0  0  0  0  0  0
   63.6803   33.2862   52.3330 H   0  0  0  0  0  0  0  0  0  0  0  0
   65.5421   35.2830   50.9688 H   0  0  0  0  0  0  0  0  0  0  0  0
   65.2571   35.0240   52.7303 H   0  0  0  0  0  0  0  0  0  0  0  0
   66.7572   33.9761   49.7990 H   0  0  0  0  0  0  0  0  0  0  0  0
   67.5166   32.4836   50.4861 H   0  0  0  0  0  0  0  0  0  0  0  0
   65.4961   32.1969   48.8764 H   0  0  0  0  0  0  0  0  0  0  0  0
   65.5018   31.2845   50.4459 H   0  0  0  0  0  0  0  0  0  0  0  0
   62.4003   34.0879   48.6877 H   0  0  0  0  0  0  0  0  0  0  0  0
   61.1637   34.9454   46.7345 H   0  0  0  0  0  0  0  0  0  0  0  0
   61.6632   33.3709   46.0222 H   0  0  0  0  0  0  0  0  0  0  0  0
   60.2722   34.8296   44.4782 H   0  0  0  0  0  0  0  0  0  0  0  0
   59.5848   33.1876   44.7938 H   0  0  0  0  0  0  0  0  0  0  0  0
   56.9833   34.2919   46.8639 H   0  0  0  0  0  0  0  0  0  0  0  0
   57.8302   32.8972   46.0957 H   0  0  0  0  0  0  0  0  0  0  0  0
   58.8463   34.6208   48.4166 H   0  0  0  0  0  0  0  0  0  0  0  0
   58.3376   32.9016   48.4887 H   0  0  0  0  0  0  0  0  0  0  0  0
  1  2  2  0
  2  3  1  0
  3  4  1  0
  4  5  2  0
  5  6  1  0
  6  7  2  0
  7  8  1  0
  8  9  2  0
  9 10  1  0
  2 11  1  0
 11 12  1  0
 12 13  2  0
 13 14  1  0
 14 15  2  0
 15 16  1  0
 16 17  1  0
 17 18  1  0
 18 19  1  0
 19 20  1  0
 20 21  1  0
 15 22  1  0
 22 23  2  0
 23 24  1  0
 24 25  1  0
 25 26  1  0
 26 27  1  0
 27 28  1  0
 28 29  1  0
  9  4  1  0
 23 12  1  0
 29 24  1  0
 21 16  1  0
  3 30  1  0
  3 31  1  0
  5 32  1  0
  6 33  1  0
  7 34  1  0
  8 35  1  0
 11 36  1  0
 13 37  1  0
 14 38  1  0
 17 39  1  0
 17 40  1  0
 18 41  1  0
 18 42  1  0
 20 43  1  0
 20 44  1  0
 21 45  1  0
 21 46  1  0
 22 47  1  0
 25 48  1  0
 25 49  1  0
 26 50  1  0
 26 51  1  0
 28 52  1  0
 28 53  1  0
 29 54  1  0
 29 55  1  0
M  CHG  1  10  -1
M  END
>  <UniqueID>  (29) 
29

>  <SMILES>  (29) 
O=C(Cc1ccccc1[O-])Nc1ccc(N2CCOCC2)cc1N1CCOCC1

>  <Energy>  (29) 
73.18738143867725

>  <Genealogy>  (29) 
O=C(Cc1ccccc1[O-])Nc1ccc(N2CCOCC2)cc1N1CCOCC1 (protonated)
O=C(Cc1ccccc1[O-])Nc1ccc(N2CCOCC2)cc1N1CCOCC1 (3D coordinates assigned)
O=C(Cc1ccccc1[O-])Nc1ccc(N2CCOCC2)cc1N1CCOCC1 (nonaromatic ring conformer: 73.18738143867725 kcal/mol)

>  <smiles>  (29) 
O=C(Cc1ccccc1O)Nc1ccc(N2CCOCC2)cc1N1CCOCC1

>  <score_type>  (29) 
oracle

>  <origin>  (29) 
adg

>  <m_score__min__energy>  (29) 
-11.039999999999999

>  <m_primary>  (29) 
energy

$$$$
29:0
     RDKit          3D

 45 47  0  0  0  0  0  0  0  0999 V2000
   56.5810   29.7070   44.7060 C   0  0  0  0  0  0  0  0  0  0  0  0
   56.9440   28.5490   45.5920 C   0  0  0  0  0  0  0  0  0  0  0  0
   56.1110   27.4720   45.6320 N   0  0  0  0  0  0  0  0  0  0  0  0
   56.3910   26.3680   46.3730 C   0  0  0  0  0  0  0  0  0  0  0  0
   55.5870   25.3990   46.3810 O   0  0  0  0  0  0  0  0  0  0  0  0
   57.5710   26.3060   47.1160 C   0  0  0  0  0  0  0  0  0  0  0  0
   58.4440   27.3920   47.1000 C   0  0  0  0  0  0  0  0  0  0  0  0
   58.1280   28.5400   46.3620 C   0  0  0  0  0  0  0  0  0  0  0  0
   59.0480   29.6910   46.3970 C   0  0  0  0  0  0  0  0  0  0  0  0
   60.2470   29.5210   46.0470 O   0  0  0  0  0  0  0  0  0  0  0  0
   58.6060   30.9920   46.8420 N   0  0  0  0  0  0  0  0  0  0  0  0
   58.5270   31.3220   48.2760 C   0  0  0  0  0  0  0  0  0  0  0  0
   59.8230   31.8790   48.7990 C   0  0  0  0  0  0  0  0  0  0  0  0
   59.7970   32.6340   49.8080 O   0  0  0  0  0  0  0  0  0  0  0  0
   61.0570   31.6360   48.1030 N   0  0  0  0  0  0  0  0  0  0  0  0
   62.3640   31.9310   48.6270 C   0  0  0  0  0  0  0  0  0  0  0  0
   62.8700   31.2810   49.7700 C   0  0  0  0  0  0  0  0  0  0  0  0
   64.1560   31.5690   50.2350 C   0  0  0  0  0  0  0  0  0  0  0  0
   64.9540   32.4980   49.5620 C   0  0  0  0  0  0  0  0  0  0  0  0
   66.5700   32.8550   50.1470 Cl  0  0  0  0  0  0  0  0  0  0  0  0
   64.4680   33.1330   48.4170 C   0  0  0  0  0  0  0  0  0  0  0  0
   63.1830   32.8470   47.9470 C   0  0  0  0  0  0  0  0  0  0  0  0
   58.2490   32.0110   45.8480 C   0  0  0  0  0  0  0  0  0  0  0  0
   59.0840   33.2360   46.0360 C   0  0  0  0  0  0  0  0  0  0  0  0
   58.6130   34.5320   46.1020 C   0  0  0  0  0  0  0  0  0  0  0  0
   59.7230   35.3170   46.3250 C   0  0  0  0  0  0  0  0  0  0  0  0
   60.7980   34.4530   46.3830 C   0  0  0  0  0  0  0  0  0  0  0  0
   60.3850   33.2190   46.2080 O   0  0  0  0  0  0  0  0  0  0  0  0
   56.3095   30.5731   45.3274 H   0  0  0  0  0  0  0  0  0  0  0  0
   57.4409   29.9665   44.0710 H   0  0  0  0  0  0  0  0  0  0  0  0
   55.7269   29.4292   44.0710 H   0  0  0  0  0  0  0  0  0  0  0  0
   57.8092   25.4098   47.7076 H   0  0  0  0  0  0  0  0  0  0  0  0
   59.3845   27.3477   47.6688 H   0  0  0  0  0  0  0  0  0  0  0  0
   57.7336   32.0691   48.4252 H   0  0  0  0  0  0  0  0  0  0  0  0
   58.3094   30.3947   48.8263 H   0  0  0  0  0  0  0  0  0  0  0  0
   60.9990   31.2900   47.1210 H   0  0  0  0  0  0  0  0  0  0  0  0
   62.2495   30.5428   50.2992 H   0  0  0  0  0  0  0  0  0  0  0  0
   64.5410   31.0633   51.1328 H   0  0  0  0  0  0  0  0  0  0  0  0
   65.0980   33.8601   47.8837 H   0  0  0  0  0  0  0  0  0  0  0  0
   62.8108   33.3428   47.0383 H   0  0  0  0  0  0  0  0  0  0  0  0
   58.4185   31.6080   44.8386 H   0  0  0  0  0  0  0  0  0  0  0  0
   57.1895   32.2780   45.9749 H   0  0  0  0  0  0  0  0  0  0  0  0
   57.5705   34.8674   45.9983 H   0  0  0  0  0  0  0  0  0  0  0  0
   59.7476   36.4112   46.4347 H   0  0  0  0  0  0  0  0  0  0  0  0
   61.8429   34.7530   46.5505 H   0  0  0  0  0  0  0  0  0  0  0  0
  1  2  1  0
  2  3  1  0
  3  4  1  0
  4  5  2  0
  4  6  1  0
  6  7  2  0
  7  8  1  0
  8  9  1  0
  9 10  2  0
  9 11  1  0
 11 12  1  0
 12 13  1  0
 13 14  2  0
 13 15  1  0
 15 16  1  0
 16 17  2  0
 17 18  1  0
 18 19  2  0
 19 20  1  0
 19 21  1  0
 21 22  2  0
 11 23  1  0
 23 24  1  0
 24 25  2  0
 25 26  1  0
 26 27  2  0
 27 28  1  0
  8  2  2  0
 22 16  1  0
 28 24  1  0
  1 29  1  0
  1 30  1  0
  1 31  1  0
  6 32  1  0
  7 33  1  0
 12 34  1  0
 12 35  1  0
 15 36  1  0
 17 37  1  0
 18 38  1  0
 21 39  1  0
 22 40  1  0
 23 41  1  0
 23 42  1  0
 25 43  1  0
 26 44  1  0
 27 45  1  0
M  CHG  1   3  -1
M  END
>  <UniqueID>  (30) 
30

>  <SMILES>  (30) 
Cc1[n-]c(=O)ccc1C(=O)N(CC(=O)Nc1ccc(Cl)cc1)Cc1ccco1

>  <Energy>  (30) 
78.25949719916899

>  <Genealogy>  (30) 
Cc1[n-]c(=O)ccc1C(=O)N(CC(=O)Nc1ccc(Cl)cc1)Cc1ccco1 (protonated)
Cc1[n-]c(=O)ccc1C(=O)N(CC(=O)Nc1ccc(Cl)cc1)Cc1ccco1 (3D coordinates assigned)
Cc1[n-]c(=O)ccc1C(=O)N(CC(=O)Nc1ccc(Cl)cc1)Cc1ccco1 (optimized conformer: 78.25949719916899 kcal/mol)

>  <smiles>  (30) 
Cc1[nH]c(=O)ccc1C(=O)N(CC(=O)Nc1ccc(Cl)cc1)Cc1ccco1

>  <score_type>  (30) 
oracle

>  <origin>  (30) 
adg

>  <m_score__min__energy>  (30) 
-9.9299999999999997

>  <m_primary>  (30) 
energy

$$$$
30:0
     RDKit          3D

 44 46  0  0  0  0  0  0  0  0999 V2000
   62.8200   33.8470   47.7410 C   0  0  0  0  0  0  0  0  0  0  0  0
   61.5830   33.3800   47.0340 C   0  0  0  0  0  0  0  0  0  0  0  0
   60.7590   34.3040   46.3710 C   0  0  0  0  0  0  0  0  0  0  0  0
   59.5860   33.8770   45.7410 C   0  0  0  0  0  0  0  0  0  0  0  0
   59.2200   32.5240   45.7740 C   0  0  0  0  0  0  0  0  0  0  0  0
   57.7350   31.9870   44.9970 S   0  0  0  0  0  0  0  0  0  0  0  0
   56.6410   32.9860   45.2510 O   0  0  0  0  0  0  0  0  0  0  0  0
   57.9670   31.8790   43.5160 O   0  0  0  0  0  0  0  0  0  0  0  0
   57.2970   30.4400   45.6410 N   0  0  0  0  0  0  0  0  0  0  0  0
   56.5810   29.4530   44.8930 C   0  0  0  0  0  0  0  0  0  0  0  0
   55.3820   29.6670   44.5830 O   0  0  0  0  0  0  0  0  0  0  0  0
   57.1840   28.1980   44.5590 N   0  0  0  0  0  0  0  0  0  0  0  0
   57.9150   27.4250   45.3160 C   0  0  0  0  0  0  0  0  0  0  0  0
   59.2490   27.8030   45.5150 C   0  0  0  0  0  0  0  0  0  0  0  0
   60.1140   26.9800   46.2350 C   0  0  0  0  0  0  0  0  0  0  0  0
   59.6640   25.8140   46.7620 N   0  0  0  0  0  0  0  0  0  0  0  0
   58.3710   25.4230   46.6260 C   0  0  0  0  0  0  0  0  0  0  0  0
   57.4510   26.2240   45.9310 C   0  0  0  0  0  0  0  0  0  0  0  0
   56.0320   25.8200   45.9920 C   0  0  0  0  0  0  0  0  0  0  0  0
   55.1410   26.7080   46.0210 O   0  0  0  0  0  0  0  0  0  0  0  0
   55.6410   24.4410   45.9480 N   0  0  0  0  0  0  0  0  0  0  0  0
   55.1300   23.7540   44.7650 C   0  0  0  0  0  0  0  0  0  0  0  0
   56.1630   22.8300   44.2010 C   0  0  0  0  0  0  0  0  0  0  0  0
   57.5030   22.8180   44.5320 C   0  0  0  0  0  0  0  0  0  0  0  0
   58.0570   21.7990   43.7880 C   0  0  0  0  0  0  0  0  0  0  0  0
   57.0240   21.2560   43.0500 C   0  0  0  0  0  0  0  0  0  0  0  0
   55.9070   21.8940   43.3180 O   0  0  0  0  0  0  0  0  0  0  0  0
   60.0280   31.6060   46.4580 C   0  0  0  0  0  0  0  0  0  0  0  0
   61.2010   32.0310   47.0880 C   0  0  0  0  0  0  0  0  0  0  0  0
   62.6650   33.7885   48.8285 H   0  0  0  0  0  0  0  0  0  0  0  0
   63.6685   33.2073   47.4566 H   0  0  0  0  0  0  0  0  0  0  0  0
   63.0340   34.8878   47.4566 H   0  0  0  0  0  0  0  0  0  0  0  0
   61.0375   35.3679   46.3472 H   0  0  0  0  0  0  0  0  0  0  0  0
   58.9484   34.6049   45.2179 H   0  0  0  0  0  0  0  0  0  0  0  0
   59.6160   28.7538   45.1012 H   0  0  0  0  0  0  0  0  0  0  0  0
   61.1637   27.2770   46.3760 H   0  0  0  0  0  0  0  0  0  0  0  0
   58.0411   24.4696   47.0645 H   0  0  0  0  0  0  0  0  0  0  0  0
   54.2385   23.1724   45.0424 H   0  0  0  0  0  0  0  0  0  0  0  0
   54.8745   24.5052   44.0032 H   0  0  0  0  0  0  0  0  0  0  0  0
   58.0198   23.4820   45.2405 H   0  0  0  0  0  0  0  0  0  0  0  0
   59.1103   21.4819   43.7830 H   0  0  0  0  0  0  0  0  0  0  0  0
   57.1213   20.4171   42.3451 H   0  0  0  0  0  0  0  0  0  0  0  0
   59.7377   30.5458   46.4993 H   0  0  0  0  0  0  0  0  0  0  0  0
   61.8269   31.3053   47.6281 H   0  0  0  0  0  0  0  0  0  0  0  0
  1  2  1  0
  2  3  2  0
  3  4  1  0
  4  5  2  0
  5  6  1  0
  6  7  2  0
  6  8  2  0
  6  9  1  0
  9 10  1  0
 10 11  2  0
 10 12  1  0
 12 13  2  3
 13 14  1  0
 14 15  2  0
 15 16  1  0
 16 17  1  0
 17 18  2  0
 18 19  1  0
 19 20  2  0
 19 21  1  0
 21 22  1  0
 22 23  1  0
 23 24  2  0
 24 25  1  0
 25 26  2  0
 26 27  1  0
  5 28  1  0
 28 29  2  0
 29  2  1  0
 18 13  1  0
 27 23  1  0
  1 30  1  0
  1 31  1  0
  1 32  1  0
  3 33  1  0
  4 34  1  0
 14 35  1  0
 15 36  1  0
 17 37  1  0
 22 38  1  0
 22 39  1  0
 24 40  1  0
 25 41  1  0
 26 42  1  0
 28 43  1  0
 29 44  1  0
M  CHG  3   9  -1  16  -1  21  -1
M  END
>  <UniqueID>  (31) 
31

>  <SMILES>  (31) 
Cc1ccc(S(=O)(=O)[N-]C(=O)N=c2cc[n-]cc2C(=O)[N-]Cc2ccco2)cc1

>  <Energy>  (31) 
92.52418023220471

>  <Genealogy>  (31) 
Cc1ccc(S(=O)(=O)[N-]C(=O)N=c2cc[n-]cc2C(=O)[N-]Cc2ccco2)cc1 (protonated)
Cc1ccc(S(=O)(=O)[N-]C(=O)N=c2cc[n-]cc2C(=O)[N-]Cc2ccco2)cc1 (3D coordinates assigned)
Cc1ccc(S(=O)(=O)[N-]C(=O)N=c2cc[n-]cc2C(=O)[N-]Cc2ccco2)cc1 (optimized conformer: 92.52418023220471 kcal/mol)

>  <smiles>  (31) 
Cc1ccc(S(=O)(=O)NC(=O)N=c2cc[nH]cc2C(=O)NCc2ccco2)cc1

>  <score_type>  (31) 
oracle

>  <origin>  (31) 
adg

>  <m_score__min__energy>  (31) 
-14.08

>  <m_primary>  (31) 
energy

$$$$
31:0
     RDKit          3D

 35 37  0  0  0  0  0  0  0  0999 V2000
   57.0720   34.2400   45.1990 C   0  0  0  0  0  0  0  0  0  0  0  0
   58.2400   33.6950   44.4970 N   0  0  0  0  0  0  0  0  0  0  0  0
   59.5750   34.2240   44.7990 C   0  0  0  0  0  0  0  0  0  0  0  0
   59.8040   34.2630   46.2810 C   0  0  0  0  0  0  0  0  0  0  0  0
   60.5710   33.3770   47.0150 C   0  0  0  0  0  0  0  0  0  0  0  0
   60.5370   33.8330   48.3180 C   0  0  0  0  0  0  0  0  0  0  0  0
   59.7940   34.9520   48.3980 N   0  0  0  0  0  0  0  0  0  0  0  0
   59.3460   35.2240   47.1590 C   0  0  0  0  0  0  0  0  0  0  0  0
   58.1040   32.5030   43.6940 C   0  0  0  0  0  0  0  0  0  0  0  0
   58.5110   32.5060   42.5000 O   0  0  0  0  0  0  0  0  0  0  0  0
   57.5010   31.2680   44.2360 C   0  0  0  0  0  0  0  0  0  0  0  0
   56.2680   30.8010   43.7510 C   0  0  0  0  0  0  0  0  0  0  0  0
   55.7180   29.6150   44.2450 C   0  0  0  0  0  0  0  0  0  0  0  0
   56.3930   28.8790   45.2230 C   0  0  0  0  0  0  0  0  0  0  0  0
   57.6160   29.3540   45.7340 C   0  0  0  0  0  0  0  0  0  0  0  0
   58.1780   30.5270   45.2190 C   0  0  0  0  0  0  0  0  0  0  0  0
   58.4240   28.5130   47.1040 S   0  0  0  0  0  0  0  0  0  0  0  0
   58.1720   26.8480   46.4170 C   0  0  0  0  0  0  0  0  0  0  0  0
   56.7020   26.6100   46.2450 C   0  0  0  0  0  0  0  0  0  0  0  0
   56.1930   25.5180   46.6070 O   0  0  0  0  0  0  0  0  0  0  0  0
   55.8820   27.6010   45.6200 N   0  0  0  0  0  0  0  0  0  0  0  0
   57.2297   34.1664   46.2851 H   0  0  0  0  0  0  0  0  0  0  0  0
   56.9352   35.2949   44.9190 H   0  0  0  0  0  0  0  0  0  0  0  0
   56.1757   33.6671   44.9190 H   0  0  0  0  0  0  0  0  0  0  0  0
   60.3338   33.5784   44.3327 H   0  0  0  0  0  0  0  0  0  0  0  0
   59.6497   35.2469   44.4013 H   0  0  0  0  0  0  0  0  0  0  0  0
   61.1004   32.4896   46.6378 H   0  0  0  0  0  0  0  0  0  0  0  0
   61.0437   33.3514   49.1673 H   0  0  0  0  0  0  0  0  0  0  0  0
   59.6050   35.5090   49.2600 H   0  0  0  0  0  0  0  0  0  0  0  0
   58.7119   36.0809   46.8875 H   0  0  0  0  0  0  0  0  0  0  0  0
   55.7325   31.3720   42.9782 H   0  0  0  0  0  0  0  0  0  0  0  0
   54.7499   29.2592   43.8626 H   0  0  0  0  0  0  0  0  0  0  0  0
   59.1561   30.8713   45.5860 H   0  0  0  0  0  0  0  0  0  0  0  0
   58.6749   26.7712   45.4417 H   0  0  0  0  0  0  0  0  0  0  0  0
   58.5935   26.0958   47.1000 H   0  0  0  0  0  0  0  0  0  0  0  0
  1  2  1  0
  2  3  1  0
  3  4  1  0
  4  5  1  0
  5  6  2  0
  6  7  1  0
  7  8  1  0
  2  9  1  0
  9 10  2  0
  9 11  1  0
 11 12  2  0
 12 13  1  0
 13 14  2  0
 14 15  1  0
 15 16  2  0
 15 17  1  0
 17 18  1  0
 18 19  1  0
 19 20  2  0
 19 21  1  0
  8  4  2  0
 16 11  1  0
 21 14  1  0
  1 22  1  0
  1 23  1  0
  1 24  1  0
  3 25  1  0
  3 26  1  0
  5 27  1  0
  6 28  1  0
  7 29  1  0
  8 30  1  0
 12 31  1  0
 13 32  1  0
 16 33  1  0
 18 34  1  0
 18 35  1  0
M  CHG  1  21  -1
M  END
>  <UniqueID>  (32) 
32

>  <SMILES>  (32) 
CN(Cc1cc[nH]c1)C(=O)c1ccc2c(c1)SCC(=O)[N-]2

>  <Energy>  (32) 
68.62341732247107

>  <Genealogy>  (32) 
CN(Cc1cc[nH]c1)C(=O)c1ccc2c(c1)SCC(=O)[N-]2 (protonated)
CN(Cc1cc[nH]c1)C(=O)c1ccc2c(c1)SCC(=O)[N-]2 (3D coordinates assigned)
CN(Cc1cc[nH]c1)C(=O)c1ccc2c(c1)SCC(=O)[N-]2 (nonaromatic ring conformer: 68.62341732247107 kcal/mol)

>  <smiles>  (32) 
CN(Cc1cc[nH]c1)C(=O)c1ccc2c(c1)SCC(=O)N2

>  <score_type>  (32) 
oracle

>  <origin>  (32) 
adg

>  <m_score__min__energy>  (32) 
-9.6600000000000001

>  <m_primary>  (32) 
energy

$$$$
32:0
     RDKit          3D

 51 53  0  0  0  0  0  0  0  0999 V2000
   56.3980   19.3040   48.1340 C   0  0  0  0  0  0  0  0  0  0  0  0
   56.2860   20.3490   47.0700 C   0  0  0  0  0  0  0  0  0  0  0  0
   57.4230   20.7960   46.3930 C   0  0  0  0  0  0  0  0  0  0  0  0
   57.3050   21.7570   45.3780 C   0  0  0  0  0  0  0  0  0  0  0  0
   58.5500   22.1880   44.6470 C   0  0  0  0  0  0  0  0  0  0  0  0
   56.0230   22.2820   45.0620 C   0  0  0  0  0  0  0  0  0  0  0  0
   55.8380   23.3220   44.0140 C   0  0  0  0  0  0  0  0  0  0  0  0
   55.5230   22.9930   42.8380 O   0  0  0  0  0  0  0  0  0  0  0  0
   56.0290   24.7030   44.3360 N   0  0  0  0  0  0  0  0  0  0  0  0
   55.3300   25.4490   45.7350 S   0  0  0  0  0  0  0  0  0  0  0  0
   55.7500   24.6870   46.9600 O   0  0  0  0  0  0  0  0  0  0  0  0
   53.8310   25.4440   45.6210 O   0  0  0  0  0  0  0  0  0  0  0  0
   55.8780   27.0880   45.8670 N   0  0  0  0  0  0  0  0  0  0  0  0
   57.2490   27.4260   45.6290 C   0  0  0  0  0  0  0  0  0  0  0  0
   58.2290   26.4390   45.8150 C   0  0  0  0  0  0  0  0  0  0  0  0
   59.5810   26.7350   45.6380 C   0  0  0  0  0  0  0  0  0  0  0  0
   59.9690   28.0250   45.2800 C   0  0  0  0  0  0  0  0  0  0  0  0
   59.0090   29.0230   45.1000 C   0  0  0  0  0  0  0  0  0  0  0  0
   57.6370   28.7450   45.2690 C   0  0  0  0  0  0  0  0  0  0  0  0
   56.6470   29.8300   45.0280 C   0  0  0  0  0  0  0  0  0  0  0  0
   55.4290   29.5570   44.8530 O   0  0  0  0  0  0  0  0  0  0  0  0
   57.0940   31.1880   44.9180 N   0  0  0  0  0  0  0  0  0  0  0  0
   57.8340   31.9240   45.9070 C   0  0  0  0  0  0  0  0  0  0  0  0
   58.2370   31.3240   47.1130 C   0  0  0  0  0  0  0  0  0  0  0  0
   58.9730   32.0480   48.0520 C   0  0  0  0  0  0  0  0  0  0  0  0
   59.3310   33.3710   47.7930 C   0  0  0  0  0  0  0  0  0  0  0  0
   60.2620   34.2750   48.9730 Cl  0  0  0  0  0  0  0  0  0  0  0  0
   58.9580   33.9710   46.5870 C   0  0  0  0  0  0  0  0  0  0  0  0
   58.2220   33.2510   45.6310 C   0  0  0  0  0  0  0  0  0  0  0  0
   57.8280   33.9090   44.3360 C   0  0  0  0  0  0  0  0  0  0  0  0
   54.9050   21.7900   45.7750 C   0  0  0  0  0  0  0  0  0  0  0  0
   53.7460   22.2240   45.5410 O   0  0  0  0  0  0  0  0  0  0  0  0
   55.0670   20.8470   46.7390 N   0  0  0  0  0  0  0  0  0  0  0  0
   56.3468   19.7814   49.1237 H   0  0  0  0  0  0  0  0  0  0  0  0
   55.5717   18.5853   48.0305 H   0  0  0  0  0  0  0  0  0  0  0  0
   57.3578   18.7767   48.0305 H   0  0  0  0  0  0  0  0  0  0  0  0
   58.4124   20.3938   46.6562 H   0  0  0  0  0  0  0  0  0  0  0  0
   59.3285   22.4575   45.3760 H   0  0  0  0  0  0  0  0  0  0  0  0
   58.9091   21.3619   44.0157 H   0  0  0  0  0  0  0  0  0  0  0  0
   58.3214   23.0593   44.0157 H   0  0  0  0  0  0  0  0  0  0  0  0
   55.1630   27.8470   45.9080 H   0  0  0  0  0  0  0  0  0  0  0  0
   57.9281   25.4210   46.1034 H   0  0  0  0  0  0  0  0  0  0  0  0
   60.3396   25.9514   45.7808 H   0  0  0  0  0  0  0  0  0  0  0  0
   61.0348   28.2576   45.1388 H   0  0  0  0  0  0  0  0  0  0  0  0
   59.3271   30.0389   44.8229 H   0  0  0  0  0  0  0  0  0  0  0  0
   57.9703   30.2767   47.3178 H   0  0  0  0  0  0  0  0  0  0  0  0
   59.2715   31.5741   48.9987 H   0  0  0  0  0  0  0  0  0  0  0  0
   59.2426   35.0141   46.3849 H   0  0  0  0  0  0  0  0  0  0  0  0
   57.2736   34.8349   44.5490 H   0  0  0  0  0  0  0  0  0  0  0  0
   58.7318   34.1479   43.7563 H   0  0  0  0  0  0  0  0  0  0  0  0
   57.1907   33.2251   43.7563 H   0  0  0  0  0  0  0  0  0  0  0  0
  1  2  1  0
  2  3  2  0
  3  4  1  0
  4  5  1  0
  4  6  2  0
  6  7  1  0
  7  8  2  0
  7  9  1  0
  9 10  1  0
 10 11  2  0
 10 12  2  0
 10 13  1  0
 13 14  1  0
 14 15  2  0
 15 16  1  0
 16 17  2  0
 17 18  1  0
 18 19  2  0
 19 20  1  0
 20 21  2  0
 20 22  1  0
 22 23  1  0
 23 24  2  0
 24 25  1  0
 25 26  2  0
 26 27  1  0
 26 28  1  0
 28 29  2  0
 29 30  1  0
  6 31  1  0
 31 32  2  0
 31 33  1  0
 33  2  1  0
 19 14  1  0
 29 23  1  0
  1 34  1  0
  1 35  1  0
  1 36  1  0
  3 37  1  0
  5 38  1  0
  5 39  1  0
  5 40  1  0
 13 41  1  0
 15 42  1  0
 16 43  1  0
 17 44  1  0
 18 45  1  0
 24 46  1  0
 25 47  1  0
 28 48  1  0
 30 49  1  0
 30 50  1  0
 30 51  1  0
M  CHG  3   9  -1  22  -1  33  -1
M  END
>  <UniqueID>  (33) 
33

>  <SMILES>  (33) 
Cc1cc(C)c(C(=O)[N-]S(=O)(=O)Nc2ccccc2C(=O)[N-]c2ccc(Cl)cc2C)c(=O)[n-]1

>  <Energy>  (33) 
73.27711012452089

>  <Genealogy>  (33) 
Cc1cc(C)c(C(=O)[N-]S(=O)(=O)Nc2ccccc2C(=O)[N-]c2ccc(Cl)cc2C)c(=O)[n-]1 (protonated)
Cc1cc(C)c(C(=O)[N-]S(=O)(=O)Nc2ccccc2C(=O)[N-]c2ccc(Cl)cc2C)c(=O)[n-]1 (3D coordinates assigned)
Cc1cc(C)c(C(=O)[N-]S(=O)(=O)Nc2ccccc2C(=O)[N-]c2ccc(Cl)cc2C)c(=O)[n-]1 (optimized conformer: 73.27711012452089 kcal/mol)

>  <smiles>  (33) 
Cc1cc(C)c(C(=O)NS(=O)(=O)Nc2ccccc2C(=O)Nc2ccc(Cl)cc2C)c(=O)[nH]1

>  <score_type>  (33) 
oracle

>  <origin>  (33) 
adg

>  <m_score__min__energy>  (33) 
-14.289999999999999

>  <m_primary>  (33) 
energy

$$$$
33:0
     RDKit          3D

 47 49  0  0  0  0  0  0  0  0999 V2000
   53.6220   25.9460   46.3020 H   0  0  0  0  0  0  0  0  0  0  0  0
   54.4470   25.9480   45.6600 N   0  0  0  0  0  0  0  0  0  0  0  0
   55.6510   25.7960   46.1050 C   0  0  0  0  0  0  0  0  0  0  0  0
   56.6270   26.6580   45.7190 N   0  0  0  0  0  0  0  0  0  0  0  0
   57.9070   26.5260   46.1640 C   0  0  0  0  0  0  0  0  0  0  0  0
   58.9020   27.4870   45.7610 N   0  0  0  0  0  0  0  0  0  0  0  0
   58.8490   28.0750   44.4200 C   0  0  0  0  0  0  0  0  0  0  0  0
   59.4444   27.4586   43.7304 H   0  0  0  0  0  0  0  0  0  0  0  0
   57.8011   28.1102   44.0874 H   0  0  0  0  0  0  0  0  0  0  0  0
   59.4160   29.5090   44.4380 C   0  0  0  0  0  0  0  0  0  0  0  0
   60.4956   29.4657   44.2316 H   0  0  0  0  0  0  0  0  0  0  0  0
   58.8849   30.0918   43.6710 H   0  0  0  0  0  0  0  0  0  0  0  0
   59.2060   30.1780   45.7450 N   0  0  0  0  0  0  0  0  0  0  0  0
   57.7760   30.4300   46.0390 C   0  0  0  0  0  0  0  0  0  0  0  0
   57.2767   29.4714   46.2435 H   0  0  0  0  0  0  0  0  0  0  0  0
   57.7104   31.0939   46.9136 H   0  0  0  0  0  0  0  0  0  0  0  0
   57.0940   31.1020   44.8750 C   0  0  0  0  0  0  0  0  0  0  0  0
   56.0700   30.5640   44.3810 O   0  0  0  0  0  0  0  0  0  0  0  0
   57.5960   32.3050   44.2750 N   0  0  0  0  0  0  0  0  0  0  0  0
   57.5830   33.6410   44.8680 C   0  0  0  0  0  0  0  0  0  0  0  0
   57.7876   34.3831   44.0822 H   0  0  0  0  0  0  0  0  0  0  0  0
   56.5933   33.8100   45.3174 H   0  0  0  0  0  0  0  0  0  0  0  0
   58.6240   33.7740   45.9510 C   0  0  0  0  0  0  0  0  0  0  0  0
   58.2890   33.5360   47.2940 C   0  0  0  0  0  0  0  0  0  0  0  0
   57.2581   33.2592   47.5599 H   0  0  0  0  0  0  0  0  0  0  0  0
   59.2590   33.6490   48.2950 C   0  0  0  0  0  0  0  0  0  0  0  0
   58.9840   33.4802   49.3466 H   0  0  0  0  0  0  0  0  0  0  0  0
   60.5820   33.9770   47.9620 C   0  0  0  0  0  0  0  0  0  0  0  0
   61.6130   34.1400   49.0400 C   0  0  0  0  0  0  0  0  0  0  0  0
   61.1290   34.0635   50.0248 H   0  0  0  0  0  0  0  0  0  0  0  0
   62.3731   33.3509   48.9427 H   0  0  0  0  0  0  0  0  0  0  0  0
   62.0926   35.1251   48.9427 H   0  0  0  0  0  0  0  0  0  0  0  0
   60.9190   34.2100   46.6210 C   0  0  0  0  0  0  0  0  0  0  0  0
   61.9507   34.4836   46.3549 H   0  0  0  0  0  0  0  0  0  0  0  0
   59.9500   34.0960   45.6220 C   0  0  0  0  0  0  0  0  0  0  0  0
   60.2277   34.2596   44.5703 H   0  0  0  0  0  0  0  0  0  0  0  0
   59.8890   29.4640   46.8560 C   0  0  0  0  0  0  0  0  0  0  0  0
   60.9129   29.8565   46.9430 H   0  0  0  0  0  0  0  0  0  0  0  0
   59.2927   29.6387   47.7637 H   0  0  0  0  0  0  0  0  0  0  0  0
   59.9690   27.9360   46.6580 C   0  0  0  0  0  0  0  0  0  0  0  0
   60.9446   27.6766   46.2210 H   0  0  0  0  0  0  0  0  0  0  0  0
   59.8513   27.4405   47.6330 H   0  0  0  0  0  0  0  0  0  0  0  0
   58.2140   25.4900   47.0590 C   0  0  0  0  0  0  0  0  0  0  0  0
   59.2350   25.3715   47.4507 H   0  0  0  0  0  0  0  0  0  0  0  0
   57.2000   24.6140   47.4420 C   0  0  0  0  0  0  0  0  0  0  0  0
   57.4191   23.7882   48.1348 H   0  0  0  0  0  0  0  0  0  0  0  0
   55.9420   24.7800   46.9600 N   0  0  0  0  0  0  0  0  0  0  0  0
  1  2  1  0
  2  3  2  0
  3  4  1  0
  4  5  2  0
  5  6  1  0
  6  7  1  0
  7  8  1  0
  7  9  1  0
  7 10  1  0
 10 11  1  0
 10 12  1  0
 10 13  1  0
 13 14  1  0
 14 15  1  0
 14 16  1  0
 14 17  1  0
 17 18  2  0
 17 19  1  0
 19 20  1  0
 20 21  1  0
 20 22  1  0
 20 23  1  0
 23 24  2  0
 24 25  1  0
 24 26  1  0
 26 27  1  0
 26 28  2  0
 28 29  1  0
 29 30  1  0
 29 31  1  0
 29 32  1  0
 28 33  1  0
 33 34  1  0
 33 35  2  0
 35 36  1  0
 13 37  1  0
 37 38  1  0
 37 39  1  0
 37 40  1  0
 40 41  1  0
 40 42  1  0
  5 43  1  0
 43 44  1  0
 43 45  2  0
 45 46  1  0
 45 47  1  0
 47  3  1  0
 40  6  1  0
 35 23  1  0
M  CHG  2  19  -1  47  -1
M  END
>  <UniqueID>  (34) 
34

>  <SMILES>  (34) 
[H]/N=c1/nc(N2CCN(CC(=O)[N-]Cc3ccc(C)cc3)CC2)cc[n-]1

>  <Energy>  (34) 
55.83597341397891

>  <Genealogy>  (34) 
Cc1ccc(C[N-]C(=O)CN2CCN(c3cc[n-]c(=N)n3)CC2)cc1 (protonated)
[H]/N=c1/nc(N2CCN(CC(=O)[N-]Cc3ccc(C)cc3)CC2)cc[n-]1 (cis-trans isomerization)
[H]/N=c1/nc(N2CCN(CC(=O)[N-]Cc3ccc(C)cc3)CC2)cc[n-]1 (3D coordinates assigned)
[H]/N=c1/nc(N2CCN(CC(=O)[N-]Cc3ccc(C)cc3)CC2)cc[n-]1 (nonaromatic ring conformer: 55.83597341397891 kcal/mol)

>  <smiles>  (34) 
Cc1ccc(CNC(=O)CN2CCN(c3cc[nH]c(=N)n3)CC2)cc1

>  <score_type>  (34) 
oracle

>  <origin>  (34) 
adg

>  <m_score__min__energy>  (34) 
-11.960000000000001

>  <m_primary>  (34) 
energy

$$$$
34:0
     RDKit          3D

 66 69  0  0  1  0  0  0  0  0999 V2000
   55.7340   30.1880   43.0280 C   0  0  0  0  0  0  0  0  0  0  0  0
   56.9120   29.3630   43.3950 C   0  0  0  0  0  0  0  0  0  0  0  0
   57.0460   28.1940   42.6930 N   0  0  0  0  0  0  0  0  0  0  0  0
   58.0550   27.3390   42.9220 C   0  0  0  0  0  0  0  0  0  0  0  0
   58.1490   26.2510   42.2490 N   0  0  0  0  0  0  0  0  0  0  0  0
   58.9370   27.6530   43.8560 N   0  0  0  0  0  0  0  0  0  0  0  0
   58.8530   28.7990   44.5820 C   0  0  0  0  0  0  0  0  0  0  0  0
   59.7680   28.9900   45.4440 N   0  0  0  0  0  0  0  0  0  0  0  0
   60.7780   28.0850   45.8740 C   0  0  0  0  0  0  0  0  0  0  0  0
   60.3320   27.1970   47.0370 C   0  0  0  0  0  0  0  0  0  0  0  0
   59.1590   26.3920   46.6060 C   0  0  0  0  0  0  0  0  0  0  0  0
   59.2830   25.1430   46.0270 C   0  0  0  0  0  0  0  0  0  0  0  0
   58.1230   24.4850   45.6700 C   0  0  0  0  0  0  0  0  0  0  0  0
   56.8640   25.0080   45.8640 C   0  0  0  0  0  0  0  0  0  0  0  0
   56.7670   26.2730   46.4530 C   0  0  0  0  0  0  0  0  0  0  0  0
   57.9080   26.9770   46.8290 C   0  0  0  0  0  0  0  0  0  0  0  0
   57.7800   28.2280   47.4090 O   0  0  0  0  0  0  0  0  0  0  0  0
   57.8200   29.7170   44.3770 C   0  0  0  0  0  0  0  0  0  0  0  0
   57.6950   30.9550   45.1000 C   0  0  0  0  0  0  0  0  0  0  0  0
   57.7550   30.8850   46.3710 O   0  0  0  0  0  0  0  0  0  0  0  0
   57.5160   32.2390   44.5630 N   0  0  0  0  0  0  0  0  0  0  0  0
   57.3980   33.4630   45.3620 C   0  0  0  0  0  0  0  0  0  0  0  0
   58.4800   33.4910   46.3670 C   0  0  0  0  0  0  0  0  0  0  0  0
   59.7650   33.8480   46.0340 C   0  0  0  0  0  0  0  0  0  0  0  0
   60.7880   33.8930   46.9860 C   0  0  0  0  0  0  0  0  0  0  0  0
   60.5430   33.5750   48.3170 C   0  0  0  0  0  0  0  0  0  0  0  0
   61.8710   33.6530   49.4200 S   0  0  0  0  0  0  0  0  0  0  0  0
   61.3700   34.1870   50.7350 O   0  0  0  0  0  0  0  0  0  0  0  0
   62.9170   34.6420   48.9530 O   0  0  0  0  0  0  0  0  0  0  0  0
   62.5610   32.0800   49.5760 N   0  0  0  0  0  0  0  0  0  0  0  0
   63.8990   32.0330   49.0070 C   0  0  0  0  0  0  0  0  0  0  0  0
   63.6720   31.8400   47.5070 C   0  0  0  0  0  0  0  0  0  0  0  0
   62.2530   31.3630   47.3530 C   0  0  0  0  0  0  0  0  0  0  0  0
   61.7770   31.1690   48.7580 C   0  0  0  0  0  0  0  0  0  0  0  0
   59.2580   33.2160   48.6550 C   0  0  0  0  0  0  0  0  0  0  0  0
   58.2410   33.1740   47.7020 C   0  0  0  0  0  0  0  0  0  0  0  0
   55.2329   30.5389   43.9422 H   0  0  0  0  0  0  0  0  0  0  0  0
   56.0632   31.0539   42.4349 H   0  0  0  0  0  0  0  0  0  0  0  0
   55.0328   29.5826   42.4349 H   0  0  0  0  0  0  0  0  0  0  0  0
   56.3500   27.9350   41.9490 H   0  0  0  0  0  0  0  0  0  0  0  0
   58.1370   26.2970   41.2080 H   0  0  0  0  0  0  0  0  0  0  0  0
   59.7280   26.9650   44.0250 H   0  0  0  0  0  0  0  0  0  0  0  0
   61.0539   27.4400   45.0268 H   0  0  0  0  0  0  0  0  0  0  0  0
   61.6285   28.6863   46.2277 H   0  0  0  0  0  0  0  0  0  0  0  0
   61.1544   26.5259   47.3256 H   0  0  0  0  0  0  0  0  0  0  0  0
   60.0582   27.8223   47.8996 H   0  0  0  0  0  0  0  0  0  0  0  0
   60.2706   24.6895   45.8568 H   0  0  0  0  0  0  0  0  0  0  0  0
   58.2089   23.4912   45.2064 H   0  0  0  0  0  0  0  0  0  0  0  0
   55.9645   24.4495   45.5657 H   0  0  0  0  0  0  0  0  0  0  0  0
   55.7752   26.7180   46.6216 H   0  0  0  0  0  0  0  0  0  0  0  0
   58.3110   29.0230   47.0500 H   0  0  0  0  0  0  0  0  0  0  0  0
   57.4630   32.3740   43.5460 H   0  0  0  0  0  0  0  0  0  0  0  0
   57.4828   34.3412   44.7051 H   0  0  0  0  0  0  0  0  0  0  0  0
   56.4217   33.4820   45.8684 H   0  0  0  0  0  0  0  0  0  0  0  0
   59.9948   34.1054   44.9895 H   0  0  0  0  0  0  0  0  0  0  0  0
   61.8026   34.1846   46.6770 H   0  0  0  0  0  0  0  0  0  0  0  0
   64.4370   32.9727   49.2009 H   0  0  0  0  0  0  0  0  0  0  0  0
   64.5107   31.2298   49.4437 H   0  0  0  0  0  0  0  0  0  0  0  0
   63.8138   32.7921   46.9746 H   0  0  0  0  0  0  0  0  0  0  0  0
   64.3851   31.1170   47.0843 H   0  0  0  0  0  0  0  0  0  0  0  0
   61.6421   32.1167   46.8346 H   0  0  0  0  0  0  0  0  0  0  0  0
   62.1800   30.4442   46.7526 H   0  0  0  0  0  0  0  0  0  0  0  0
   60.7066   31.4104   48.8357 H   0  0  0  0  0  0  0  0  0  0  0  0
   61.9006   30.1260   49.0849 H   0  0  0  0  0  0  0  0  0  0  0  0
   59.0284   32.9567   49.6991 H   0  0  0  0  0  0  0  0  0  0  0  0
   57.2262   32.8837   48.0118 H   0  0  0  0  0  0  0  0  0  0  0  0
  1  2  1  0
  2  3  1  0
  3  4  1  0
  4  5  2  3
  4  6  1  0
  6  7  1  0
  7  8  2  0
  8  9  1  0
  9 10  1  0
 10 11  1  0
 11 12  2  0
 12 13  1  0
 13 14  2  0
 14 15  1  0
 15 16  2  0
 16 17  1  0
  7 18  1  0
 18 19  1  0
 19 20  2  0
 19 21  1  0
 21 22  1  0
 22 23  1  0
 23 24  2  0
 24 25  1  0
 25 26  2  0
 26 27  1  0
 27 28  2  0
 27 29  2  0
 27 30  1  0
 30 31  1  0
 31 32  1  0
 32 33  1  0
 33 34  1  0
 26 35  1  0
 35 36  2  0
 18  2  2  0
 36 23  1  0
 16 11  1  0
 34 30  1  0
  1 37  1  0
  1 38  1  0
  1 39  1  0
  3 40  1  0
  5 41  1  0
  6 42  1  0
  9 43  1  0
  9 44  1  0
 10 45  1  0
 10 46  1  0
 12 47  1  0
 13 48  1  0
 14 49  1  0
 15 50  1  0
 17 51  1  0
 21 52  1  0
 22 53  1  0
 22 54  1  0
 24 55  1  0
 25 56  1  0
 31 57  1  0
 31 58  1  0
 32 59  1  0
 32 60  1  0
 33 61  1  0
 33 62  1  0
 34 63  1  0
 34 64  1  0
 35 65  1  0
 36 66  1  0
M  END
>  <smiles>  (35) 
Cc1[nH]c(=N)[nH]c(=NCCc2ccccc2O)c1C(=O)NCc1ccc(S(=O)(=O)N2CCCC2)cc1

>  <score_type>  (35) 
oracle

>  <origin>  (35) 
adg

>  <m_score__min__energy>  (35) 
-9.1699999999999999

>  <m_primary>  (35) 
energy

$$$$
35:0
     RDKit          3D

 61 64  0  0  0  0  0  0  0  0999 V2000
   57.5140   25.3060   44.4680 C   0  0  0  0  0  0  0  0  0  0  0  0
   56.9110   26.1500   45.9120 S   0  0  0  0  0  0  0  0  0  0  0  0
   57.5440   25.5580   47.1400 O   0  0  0  0  0  0  0  0  0  0  0  0
   55.4200   25.9820   46.0100 O   0  0  0  0  0  0  0  0  0  0  0  0
   57.3110   27.8600   45.8000 C   0  0  0  0  0  0  0  0  0  0  0  0
   58.2680   28.4180   46.6570 C   0  0  0  0  0  0  0  0  0  0  0  0
   58.5830   29.7780   46.5740 C   0  0  0  0  0  0  0  0  0  0  0  0
   57.9420   30.6020   45.6310 C   0  0  0  0  0  0  0  0  0  0  0  0
   58.2910   32.0410   45.5280 C   0  0  0  0  0  0  0  0  0  0  0  0
   57.6610   32.8630   44.5770 C   0  0  0  0  0  0  0  0  0  0  0  0
   57.9660   34.2240   44.5050 C   0  0  0  0  0  0  0  0  0  0  0  0
   58.8980   34.7820   45.3820 C   0  0  0  0  0  0  0  0  0  0  0  0
   59.5440   33.9770   46.3340 C   0  0  0  0  0  0  0  0  0  0  0  0
   60.4970   34.5860   47.3290 C   0  0  0  0  0  0  0  0  0  0  0  0
   61.7890   33.8090   47.3560 C   0  0  0  0  0  0  0  0  0  0  0  0
   62.5620   33.9080   46.4110 O   0  0  0  0  0  0  0  0  0  0  0  0
   62.1030   32.9360   48.4720 N   0  0  0  0  0  0  0  0  0  0  0  0
   62.0230   33.6760   49.7450 C   0  0  0  0  0  0  0  0  0  0  0  0
   62.2280   32.7220   50.9420 C   0  0  0  0  0  0  0  0  0  0  0  0
   63.2360   31.6590   50.6880 N   0  0  0  0  0  0  0  0  0  0  0  0
   62.6350   30.3180   50.5080 C   0  0  0  0  0  0  0  0  0  0  0  0
   61.1440   30.3900   50.7000 C   0  0  0  0  0  0  0  0  0  0  0  0
   60.5810   30.3130   51.9860 C   0  0  0  0  0  0  0  0  0  0  0  0
   59.1940   30.3750   52.1500 C   0  0  0  0  0  0  0  0  0  0  0  0
   58.3600   30.5090   51.0360 C   0  0  0  0  0  0  0  0  0  0  0  0
   57.0150   30.5690   51.1990 F   0  0  0  0  0  0  0  0  0  0  0  0
   58.9130   30.5830   49.7540 C   0  0  0  0  0  0  0  0  0  0  0  0
   60.2990   30.5220   49.5850 C   0  0  0  0  0  0  0  0  0  0  0  0
   64.1670   32.0050   49.5970 C   0  0  0  0  0  0  0  0  0  0  0  0
   63.4320   32.3040   48.2720 C   0  0  0  0  0  0  0  0  0  0  0  0
   59.2410   32.6080   46.3980 C   0  0  0  0  0  0  0  0  0  0  0  0
   56.9750   30.0370   44.7800 C   0  0  0  0  0  0  0  0  0  0  0  0
   56.6600   28.6770   44.8670 C   0  0  0  0  0  0  0  0  0  0  0  0
   58.1280   24.4466   44.7753 H   0  0  0  0  0  0  0  0  0  0  0  0
   56.6627   24.9525   43.8677 H   0  0  0  0  0  0  0  0  0  0  0  0
   58.1243   25.9967   43.8677 H   0  0  0  0  0  0  0  0  0  0  0  0
   58.7744   27.7833   47.3991 H   0  0  0  0  0  0  0  0  0  0  0  0
   59.3371   30.2064   47.2507 H   0  0  0  0  0  0  0  0  0  0  0  0
   56.9229   32.4312   43.8850 H   0  0  0  0  0  0  0  0  0  0  0  0
   57.4705   34.8581   43.7551 H   0  0  0  0  0  0  0  0  0  0  0  0
   59.1271   35.8565   45.3270 H   0  0  0  0  0  0  0  0  0  0  0  0
   60.7053   35.6273   47.0422 H   0  0  0  0  0  0  0  0  0  0  0  0
   60.0394   34.5560   48.3288 H   0  0  0  0  0  0  0  0  0  0  0  0
   61.3780   32.1810   48.5040 H   0  0  0  0  0  0  0  0  0  0  0  0
   62.8036   34.4508   49.7624 H   0  0  0  0  0  0  0  0  0  0  0  0
   61.0275   34.1370   49.8253 H   0  0  0  0  0  0  0  0  0  0  0  0
   62.5583   33.3153   51.8074 H   0  0  0  0  0  0  0  0  0  0  0  0
   61.2665   32.2192   51.1231 H   0  0  0  0  0  0  0  0  0  0  0  0
   62.8541   29.9542   49.4933 H   0  0  0  0  0  0  0  0  0  0  0  0
   63.0612   29.6294   51.2524 H   0  0  0  0  0  0  0  0  0  0  0  0
   61.2332   30.2037   52.8650 H   0  0  0  0  0  0  0  0  0  0  0  0
   58.7577   30.3182   53.1582 H   0  0  0  0  0  0  0  0  0  0  0  0
   58.2567   30.6893   48.8777 H   0  0  0  0  0  0  0  0  0  0  0  0
   60.7304   30.5776   48.5746 H   0  0  0  0  0  0  0  0  0  0  0  0
   64.7417   32.8955   49.8915 H   0  0  0  0  0  0  0  0  0  0  0  0
   64.8250   31.1397   49.4290 H   0  0  0  0  0  0  0  0  0  0  0  0
   64.0554   32.9827   47.6714 H   0  0  0  0  0  0  0  0  0  0  0  0
   63.2645   31.3418   47.7658 H   0  0  0  0  0  0  0  0  0  0  0  0
   59.7514   31.9716   47.1359 H   0  0  0  0  0  0  0  0  0  0  0  0
   56.4625   30.6696   44.0403 H   0  0  0  0  0  0  0  0  0  0  0  0
   55.8980   28.2474   44.2001 H   0  0  0  0  0  0  0  0  0  0  0  0
  1  2  1  0
  2  3  2  0
  2  4  2  0
  2  5  1  0
  5  6  2  0
  6  7  1  0
  7  8  2  0
  8  9  1  0
  9 10  2  0
 10 11  1  0
 11 12  2  0
 12 13  1  0
 13 14  1  0
 14 15  1  0
 15 16  2  0
 15 17  1  0
 17 18  1  0
 18 19  1  0
 19 20  1  0
 20 21  1  0
 21 22  1  0
 22 23  2  0
 23 24  1  0
 24 25  2  0
 25 26  1  0
 25 27  1  0
 27 28  2  0
 20 29  1  0
 29 30  1  0
 13 31  2  0
  8 32  1  0
 32 33  2  0
 33  5  1  0
 31  9  1  0
 30 17  1  0
 28 22  1  0
  1 34  1  0
  1 35  1  0
  1 36  1  0
  6 37  1  0
  7 38  1  0
 10 39  1  0
 11 40  1  0
 12 41  1  0
 14 42  1  0
 14 43  1  0
 17 44  1  0
 18 45  1  0
 18 46  1  0
 19 47  1  0
 19 48  1  0
 21 49  1  0
 21 50  1  0
 23 51  1  0
 24 52  1  0
 27 53  1  0
 28 54  1  0
 29 55  1  0
 29 56  1  0
 30 57  1  0
 30 58  1  0
 31 59  1  0
 32 60  1  0
 33 61  1  0
M  CHG  1  17   1
M  END
>  <UniqueID>  (36) 
35

>  <SMILES>  (36) 
CS(=O)(=O)c1ccc(-c2cccc(CC(=O)[NH+]3CCN(Cc4ccc(F)cc4)CC3)c2)cc1

>  <Energy>  (36) 
77.00007885557207

>  <Genealogy>  (36) 
CS(=O)(=O)c1ccc(-c2cccc(CC(=O)[NH+]3CCN(Cc4ccc(F)cc4)CC3)c2)cc1 (protonated)
CS(=O)(=O)c1ccc(-c2cccc(CC(=O)[NH+]3CCN(Cc4ccc(F)cc4)CC3)c2)cc1 (3D coordinates assigned)
CS(=O)(=O)c1ccc(-c2cccc(CC(=O)[NH+]3CCN(Cc4ccc(F)cc4)CC3)c2)cc1 (nonaromatic ring conformer: 77.00007885557207 kcal/mol)

>  <smiles>  (36) 
CS(=O)(=O)c1ccc(-c2cccc(CC(=O)N3CCN(Cc4ccc(F)cc4)CC3)c2)cc1

>  <score_type>  (36) 
oracle

>  <origin>  (36) 
adg

>  <m_score__min__energy>  (36) 
-8.6500000000000004

>  <m_primary>  (36) 
energy

$$$$
36:0
     RDKit          3D

 47 50  0  0  0  0  0  0  0  0999 V2000
   57.1748   30.0627   52.0978 H   0  0  0  0  0  0  0  0  0  0  0  0
   56.1720   30.5140   52.0700 C   0  0  0  0  0  0  0  0  0  0  0  0
   55.9800   31.3887   51.4312 H   0  0  0  0  0  0  0  0  0  0  0  0
   55.1820   29.9970   52.8160 C   0  0  0  0  0  0  0  0  0  0  0  0
   53.8600   30.4580   52.8870 C   0  0  0  0  0  0  0  0  0  0  0  0
   53.3310   31.5010   52.2110 C   0  0  0  0  0  0  0  0  0  0  0  0
   53.6470   32.5094   52.5163 H   0  0  0  0  0  0  0  0  0  0  0  0
   52.3630   31.4050   51.0950 C   0  0  0  0  0  0  0  0  0  0  0  0
   52.3660   30.4750   50.1220 N   0  0  0  0  0  0  0  0  0  0  0  0
   51.3290   30.8350   49.3360 C   0  0  0  0  0  0  0  0  0  0  0  0
   51.0050   30.1910   48.3050 O   0  0  0  0  0  0  0  0  0  0  0  0
   50.6700   31.9400   49.7410 N   0  0  0  0  0  0  0  0  0  0  0  0
   51.3390   32.2900   50.8510 C   0  0  0  0  0  0  0  0  0  0  0  0
   51.0200   33.3980   51.6260 O   0  0  0  0  0  0  0  0  0  0  0  0
   53.2190   29.6430   53.8150 C   0  0  0  0  0  0  0  0  0  0  0  0
   52.1701   29.7161   54.1382 H   0  0  0  0  0  0  0  0  0  0  0  0
   54.1530   28.7250   54.2520 C   0  0  0  0  0  0  0  0  0  0  0  0
   53.8920   27.6690   55.2840 C   0  0  0  0  0  0  0  0  0  0  0  0
   53.9994   28.1037   56.2887 H   0  0  0  0  0  0  0  0  0  0  0  0
   52.8706   27.2798   55.1602 H   0  0  0  0  0  0  0  0  0  0  0  0
   54.6144   26.8488   55.1602 H   0  0  0  0  0  0  0  0  0  0  0  0
   55.3430   28.9400   53.6520 N   0  0  0  0  0  0  0  0  0  0  0  0
   56.5440   28.1800   53.8760 C   0  0  0  0  0  0  0  0  0  0  0  0
   56.5170   26.7810   53.8660 C   0  0  0  0  0  0  0  0  0  0  0  0
   55.3520   26.1180   53.6510 F   0  0  0  0  0  0  0  0  0  0  0  0
   57.6900   26.0610   54.0940 C   0  0  0  0  0  0  0  0  0  0  0  0
   57.6752   24.9612   54.0795 H   0  0  0  0  0  0  0  0  0  0  0  0
   58.8890   26.7470   54.3420 C   0  0  0  0  0  0  0  0  0  0  0  0
   60.1100   26.0200   54.5780 N   0  0  0  0  0  0  0  0  0  0  0  0
   60.6350   25.8560   55.9400 C   0  0  0  0  0  0  0  0  0  0  0  0
   60.0823   26.5191   56.6218 H   0  0  0  0  0  0  0  0  0  0  0  0
   60.5097   24.8058   56.2422 H   0  0  0  0  0  0  0  0  0  0  0  0
   62.1360   26.2110   55.9950 C   0  0  0  0  0  0  0  0  0  0  0  0
   62.2374   27.2447   56.3571 H   0  0  0  0  0  0  0  0  0  0  0  0
   62.6178   25.4871   56.6686 H   0  0  0  0  0  0  0  0  0  0  0  0
   62.8090   26.1050   54.6850 N   0  0  0  0  0  0  0  0  0  0  0  0
   63.8220   25.9000   54.8520 H   0  0  0  0  0  0  0  0  0  0  0  0
   62.2520   25.0240   53.8670 C   0  0  0  0  0  0  0  0  0  0  0  0
   62.8672   24.8915   52.9648 H   0  0  0  0  0  0  0  0  0  0  0  0
   62.2476   24.0887   54.4459 H   0  0  0  0  0  0  0  0  0  0  0  0
   60.8190   25.3830   53.4610 C   0  0  0  0  0  0  0  0  0  0  0  0
   60.8479   26.0772   52.6082 H   0  0  0  0  0  0  0  0  0  0  0  0
   60.2874   24.4610   53.1830 H   0  0  0  0  0  0  0  0  0  0  0  0
   58.8920   28.1140   54.3450 N   0  0  0  0  0  0  0  0  0  0  0  0
   59.7850   28.6340   54.4940 H   0  0  0  0  0  0  0  0  0  0  0  0
   57.7570   28.8330   54.1230 C   0  0  0  0  0  0  0  0  0  0  0  0
   57.7937   29.9323   54.1379 H   0  0  0  0  0  0  0  0  0  0  0  0
  1  2  1  0
  2  3  1  0
  2  4  2  0
  4  5  1  0
  5  6  2  0
  6  7  1  0
  6  8  1  0
  8  9  1  0
  9 10  1  0
 10 11  2  0
 10 12  1  0
 12 13  1  0
 13 14  1  0
  5 15  1  0
 15 16  1  0
 15 17  2  0
 17 18  1  0
 18 19  1  0
 18 20  1  0
 18 21  1  0
 17 22  1  0
 22 23  1  0
 23 24  2  0
 24 25  1  0
 24 26  1  0
 26 27  1  0
 26 28  2  0
 28 29  1  0
 29 30  1  0
 30 31  1  0
 30 32  1  0
 30 33  1  0
 33 34  1  0
 33 35  1  0
 33 36  1  0
 36 37  1  0
 36 38  1  0
 38 39  1  0
 38 40  1  0
 38 41  1  0
 41 42  1  0
 41 43  1  0
 28 44  1  0
 44 45  1  0
 44 46  2  0
 46 47  1  0
 22  4  1  0
 46 23  1  0
 13  8  2  0
 41 29  1  0
M  CHG  4   9  -1  12  -1  14  -1  44   1
M  END
>  <UniqueID>  (37) 
36

>  <SMILES>  (37) 
C=c1/c(=C/c2[n-]c(=O)[n-]c2[O-])cc(C)n1-c1c[nH+]c(N2CCNCC2)cc1F

>  <Energy>  (37) 
126.28705352260465

>  <Genealogy>  (37) 
C=c1c(=Cc2[n-]c(=O)[n-]c2[O-])cc(C)n1-c1c[nH+]c(N2CCNCC2)cc1F (protonated)
C=c1/c(=C/c2[n-]c(=O)[n-]c2[O-])cc(C)n1-c1c[nH+]c(N2CCNCC2)cc1F (cis-trans isomerization)
C=c1/c(=C/c2[n-]c(=O)[n-]c2[O-])cc(C)n1-c1c[nH+]c(N2CCNCC2)cc1F (3D coordinates assigned)
C=c1/c(=C/c2[n-]c(=O)[n-]c2[O-])cc(C)n1-c1c[nH+]c(N2CCNCC2)cc1F (nonaromatic ring conformer: 126.28705352260465 kcal/mol)

>  <smiles>  (37) 
C=c1c(=Cc2[nH]c(=O)[nH]c2O)cc(C)n1-c1cnc(N2CCNCC2)cc1F

>  <score_type>  (37) 
oracle

>  <origin>  (37) 
adg

>  <m_score__min__energy>  (37) 
-14.23

>  <m_primary>  (37) 
energy

$$$$
37:0
     RDKit          3D

 62 65  0  0  0  0  0  0  0  0999 V2000
   60.3380   32.7480   46.3090 N   0  0  0  0  0  0  0  0  0  0  0  0
   58.7090   32.8250   46.8810 S   0  0  0  0  0  0  0  0  0  0  0  0
   58.5220   31.8090   47.9710 O   0  0  0  0  0  0  0  0  0  0  0  0
   58.4380   34.1940   47.4370 O   0  0  0  0  0  0  0  0  0  0  0  0
   57.5650   32.4760   45.5560 C   0  0  0  0  0  0  0  0  0  0  0  0
   57.5400   31.0060   45.2550 C   0  0  0  0  0  0  0  0  0  0  0  0
   56.5090   30.4520   44.4830 C   0  0  0  0  0  0  0  0  0  0  0  0
   56.5110   29.1250   44.1880 N   0  0  0  0  0  0  0  0  0  0  0  0
   57.5000   28.2930   44.6180 C   0  0  0  0  0  0  0  0  0  0  0  0
   57.4780   26.9280   44.2980 O   0  0  0  0  0  0  0  0  0  0  0  0
   57.2400   25.9000   45.2200 C   0  0  0  0  0  0  0  0  0  0  0  0
   58.2170   24.9100   45.3790 C   0  0  0  0  0  0  0  0  0  0  0  0
   58.0350   23.8750   46.2990 C   0  0  0  0  0  0  0  0  0  0  0  0
   56.8640   23.8150   47.0740 C   0  0  0  0  0  0  0  0  0  0  0  0
   56.6760   22.7170   48.0870 C   0  0  0  0  0  0  0  0  0  0  0  0
   57.2900   21.5410   47.6510 O   0  0  0  0  0  0  0  0  0  0  0  0
   55.8980   24.8230   46.9420 C   0  0  0  0  0  0  0  0  0  0  0  0
   56.0850   25.8690   46.0320 C   0  0  0  0  0  0  0  0  0  0  0  0
   55.1450   26.8910   45.9740 O   0  0  0  0  0  0  0  0  0  0  0  0
   58.5570   28.8060   45.3810 C   0  0  0  0  0  0  0  0  0  0  0  0
   59.6030   27.9420   45.8220 N   0  0  0  0  0  0  0  0  0  0  0  0
   59.6190   27.2650   47.4170 S   0  0  0  0  0  0  0  0  0  0  0  0
   58.2220   26.8630   47.7990 O   0  0  0  0  0  0  0  0  0  0  0  0
   60.5030   26.0500   47.4330 O   0  0  0  0  0  0  0  0  0  0  0  0
   60.2190   28.4740   48.5550 C   0  0  0  0  0  0  0  0  0  0  0  0
   60.0240   28.2820   49.9300 C   0  0  0  0  0  0  0  0  0  0  0  0
   60.4740   29.2320   50.8450 C   0  0  0  0  0  0  0  0  0  0  0  0
   61.1420   30.3730   50.3970 C   0  0  0  0  0  0  0  0  0  0  0  0
   61.3670   30.5730   49.0250 C   0  0  0  0  0  0  0  0  0  0  0  0
   62.0790   31.7390   48.5760 N   0  0  0  0  0  0  0  0  0  0  0  0
   62.9900   31.6210   47.4300 C   0  0  0  0  0  0  0  0  0  0  0  0
   63.7800   32.9160   47.2270 C   0  0  0  0  0  0  0  0  0  0  0  0
   62.8840   34.0730   47.2970 N   0  0  0  0  0  0  0  0  0  0  0  0
   62.2280   34.2210   48.6120 C   0  0  0  0  0  0  0  0  0  0  0  0
   62.1520   32.9210   49.4390 C   0  0  0  0  0  0  0  0  0  0  0  0
   60.8970   29.6190   48.1030 C   0  0  0  0  0  0  0  0  0  0  0  0
   61.0770   29.8190   46.7720 F   0  0  0  0  0  0  0  0  0  0  0  0
   58.5740   30.1690   45.6960 C   0  0  0  0  0  0  0  0  0  0  0  0
   60.9480   33.1300   47.0630 H   0  0  0  0  0  0  0  0  0  0  0  0
   60.5820   31.7380   46.2030 H   0  0  0  0  0  0  0  0  0  0  0  0
   56.5572   32.8016   45.8531 H   0  0  0  0  0  0  0  0  0  0  0  0
   57.8890   33.0176   44.6551 H   0  0  0  0  0  0  0  0  0  0  0  0
   55.6952   31.0938   44.1145 H   0  0  0  0  0  0  0  0  0  0  0  0
   59.1353   24.9476   44.7746 H   0  0  0  0  0  0  0  0  0  0  0  0
   58.8108   23.1042   46.4174 H   0  0  0  0  0  0  0  0  0  0  0  0
   57.1230   23.0260   49.0434 H   0  0  0  0  0  0  0  0  0  0  0  0
   55.5995   22.5307   48.2151 H   0  0  0  0  0  0  0  0  0  0  0  0
   56.6310   20.8120   47.7800 H   0  0  0  0  0  0  0  0  0  0  0  0
   54.9872   24.7910   47.5580 H   0  0  0  0  0  0  0  0  0  0  0  0
   59.5129   27.3764   50.2887 H   0  0  0  0  0  0  0  0  0  0  0  0
   60.3027   29.0826   51.9213 H   0  0  0  0  0  0  0  0  0  0  0  0
   61.4945   31.1203   51.1232 H   0  0  0  0  0  0  0  0  0  0  0  0
   63.6929   30.7947   47.6119 H   0  0  0  0  0  0  0  0  0  0  0  0
   62.3949   31.4260   46.5256 H   0  0  0  0  0  0  0  0  0  0  0  0
   64.5453   33.0014   48.0125 H   0  0  0  0  0  0  0  0  0  0  0  0
   64.2583   32.8925   46.2367 H   0  0  0  0  0  0  0  0  0  0  0  0
   62.1470   33.9650   46.5610 H   0  0  0  0  0  0  0  0  0  0  0  0
   62.7898   34.9662   49.1943 H   0  0  0  0  0  0  0  0  0  0  0  0
   61.1901   34.5252   48.4113 H   0  0  0  0  0  0  0  0  0  0  0  0
   63.0488   32.8469   50.0716 H   0  0  0  0  0  0  0  0  0  0  0  0
   61.2407   32.9560   50.0541 H   0  0  0  0  0  0  0  0  0  0  0  0
   59.4006   30.5846   46.2910 H   0  0  0  0  0  0  0  0  0  0  0  0
  1  2  1  0
  2  3  2  0
  2  4  2  0
  2  5  1  0
  5  6  1  0
  6  7  2  0
  7  8  1  0
  8  9  2  0
  9 10  1  0
 10 11  1  0
 11 12  2  0
 12 13  1  0
 13 14  2  0
 14 15  1  0
 15 16  1  0
 14 17  1  0
 17 18  2  0
 18 19  1  0
  9 20  1  0
 20 21  1  0
 21 22  1  0
 22 23  2  0
 22 24  2  0
 22 25  1  0
 25 26  2  0
 26 27  1  0
 27 28  2  0
 28 29  1  0
 29 30  1  0
 30 31  1  0
 31 32  1  0
 32 33  1  0
 33 34  1  0
 34 35  1  0
 29 36  2  0
 36 37  1  0
 20 38  2  0
 38  6  1  0
 18 11  1  0
 36 25  1  0
 35 30  1  0
  1 39  1  0
  1 40  1  0
  5 41  1  0
  5 42  1  0
  7 43  1  0
 12 44  1  0
 13 45  1  0
 15 46  1  0
 15 47  1  0
 16 48  1  0
 17 49  1  0
 26 50  1  0
 27 51  1  0
 28 52  1  0
 31 53  1  0
 31 54  1  0
 32 55  1  0
 32 56  1  0
 33 57  1  0
 34 58  1  0
 34 59  1  0
 35 60  1  0
 35 61  1  0
 38 62  1  0
M  CHG  2  19  -1  21  -1
M  END
>  <UniqueID>  (38) 
37

>  <SMILES>  (38) 
NS(=O)(=O)Cc1cnc(Oc2ccc(CO)cc2[O-])c([N-]S(=O)(=O)c2cccc(N3CCNCC3)c2F)c1

>  <Energy>  (38) 
82.14102403381895

>  <Genealogy>  (38) 
NS(=O)(=O)Cc1cnc(Oc2ccc(CO)cc2[O-])c([N-]S(=O)(=O)c2cccc(N3CCNCC3)c2F)c1 (protonated)
NS(=O)(=O)Cc1cnc(Oc2ccc(CO)cc2[O-])c([N-]S(=O)(=O)c2cccc(N3CCNCC3)c2F)c1 (3D coordinates assigned)
NS(=O)(=O)Cc1cnc(Oc2ccc(CO)cc2[O-])c([N-]S(=O)(=O)c2cccc(N3CCNCC3)c2F)c1 (nonaromatic ring conformer: 82.14102403381895 kcal/mol)

>  <smiles>  (38) 
NS(=O)(=O)Cc1cnc(Oc2ccc(CO)cc2O)c(NS(=O)(=O)c2cccc(N3CCNCC3)c2F)c1

>  <score_type>  (38) 
oracle

>  <origin>  (38) 
adg

>  <m_score__min__energy>  (38) 
-14.98

>  <m_primary>  (38) 
energy

$$$$
38:0
     RDKit          3D

 51 53  0  0  0  0  0  0  0  0999 V2000
   59.7780   26.2280   45.9390 O   0  0  0  0  0  0  0  0  0  0  0  0
   58.6720   26.8270   46.0250 C   0  0  0  0  0  0  0  0  0  0  0  0
   57.7830   26.9120   44.8200 C   0  0  0  0  0  0  0  0  0  0  0  0
   58.2830   27.9580   43.8100 C   0  0  0  0  0  0  0  0  0  0  0  0
   58.5760   29.3440   44.4140 C   0  0  0  0  0  0  0  0  0  0  0  0
   57.2540   30.5220   44.1540 S   0  0  0  0  0  0  0  0  0  0  0  0
   56.0010   30.0880   44.8620 O   0  0  0  0  0  0  0  0  0  0  0  0
   56.9620   30.6500   42.6840 O   0  0  0  0  0  0  0  0  0  0  0  0
   57.7620   32.0770   44.8050 C   0  0  0  0  0  0  0  0  0  0  0  0
   57.4350   32.4440   46.1200 C   0  0  0  0  0  0  0  0  0  0  0  0
   57.8350   33.6870   46.6210 C   0  0  0  0  0  0  0  0  0  0  0  0
   58.5570   34.5710   45.8120 C   0  0  0  0  0  0  0  0  0  0  0  0
   58.8780   34.2120   44.4980 C   0  0  0  0  0  0  0  0  0  0  0  0
   58.4800   32.9690   43.9930 C   0  0  0  0  0  0  0  0  0  0  0  0
   58.2570   27.4670   47.2430 N   0  0  0  0  0  0  0  0  0  0  0  0
   58.9000   28.3780   47.9140 C   0  0  0  0  0  0  0  0  0  0  0  0
   59.7490   28.0570   48.9130 N   0  0  0  0  0  0  0  0  0  0  0  0
   60.2720   29.1630   49.5070 C   0  0  0  0  0  0  0  0  0  0  0  0
   59.8300   30.3660   48.9760 C   0  0  0  0  0  0  0  0  0  0  0  0
   60.3020   31.9610   49.5330 S   0  0  0  0  0  0  0  0  0  0  0  0
   60.7670   31.8550   50.9580 O   0  0  0  0  0  0  0  0  0  0  0  0
   59.1180   32.8870   49.4670 O   0  0  0  0  0  0  0  0  0  0  0  0
   61.5910   32.5710   48.5260 N   0  0  0  0  0  0  0  0  0  0  0  0
   62.2880   31.4520   47.8680 C   0  0  0  0  0  0  0  0  0  0  0  0
   63.5580   31.9540   47.1560 C   0  0  0  0  0  0  0  0  0  0  0  0
   63.4790   33.4470   46.7980 C   0  0  0  0  0  0  0  0  0  0  0  0
   62.0520   33.8400   46.4040 C   0  0  0  0  0  0  0  0  0  0  0  0
   61.0410   33.5100   47.5250 C   0  0  0  0  0  0  0  0  0  0  0  0
   58.7510   30.0520   47.7270 S   0  0  0  0  0  0  0  0  0  0  0  0
   57.7553   25.9283   44.3286 H   0  0  0  0  0  0  0  0  0  0  0  0
   56.7809   27.2159   45.1569 H   0  0  0  0  0  0  0  0  0  0  0  0
   59.2099   27.5794   43.3545 H   0  0  0  0  0  0  0  0  0  0  0  0
   57.4712   28.1008   43.0816 H   0  0  0  0  0  0  0  0  0  0  0  0
   58.7321   29.2274   45.4966 H   0  0  0  0  0  0  0  0  0  0  0  0
   59.4690   29.7386   43.9072 H   0  0  0  0  0  0  0  0  0  0  0  0
   56.8635   31.7531   46.7571 H   0  0  0  0  0  0  0  0  0  0  0  0
   57.5814   33.9701   47.6532 H   0  0  0  0  0  0  0  0  0  0  0  0
   58.8721   35.5475   46.2084 H   0  0  0  0  0  0  0  0  0  0  0  0
   59.4440   34.9078   43.8612 H   0  0  0  0  0  0  0  0  0  0  0  0
   58.7301   32.6906   42.9586 H   0  0  0  0  0  0  0  0  0  0  0  0
   60.9874   29.1081   50.3408 H   0  0  0  0  0  0  0  0  0  0  0  0
   62.5683   30.7045   48.6248 H   0  0  0  0  0  0  0  0  0  0  0  0
   61.6157   31.0020   47.1227 H   0  0  0  0  0  0  0  0  0  0  0  0
   64.4209   31.7952   47.8195 H   0  0  0  0  0  0  0  0  0  0  0  0
   63.6612   31.3895   46.2175 H   0  0  0  0  0  0  0  0  0  0  0  0
   63.7892   34.0431   47.6689 H   0  0  0  0  0  0  0  0  0  0  0  0
   64.1449   33.6392   45.9438 H   0  0  0  0  0  0  0  0  0  0  0  0
   62.0220   34.9211   46.2032 H   0  0  0  0  0  0  0  0  0  0  0  0
   61.7720   33.2661   45.5083 H   0  0  0  0  0  0  0  0  0  0  0  0
   60.7615   34.4442   48.0340 H   0  0  0  0  0  0  0  0  0  0  0  0
   60.1699   33.0274   47.0577 H   0  0  0  0  0  0  0  0  0  0  0  0
  1  2  2  0
  2  3  1  0
  3  4  1  0
  4  5  1  0
  5  6  1  0
  6  7  2  0
  6  8  2  0
  6  9  1  0
  9 10  2  0
 10 11  1  0
 11 12  2  0
 12 13  1  0
 13 14  2  0
  2 15  1  0
 15 16  2  3
 16 17  1  0
 17 18  1  0
 18 19  2  0
 19 20  1  0
 20 21  2  0
 20 22  2  0
 20 23  1  0
 23 24  1  0
 24 25  1  0
 25 26  1  0
 26 27  1  0
 27 28  1  0
 19 29  1  0
 14  9  1  0
 29 16  1  0
 28 23  1  0
  3 30  1  0
  3 31  1  0
  4 32  1  0
  4 33  1  0
  5 34  1  0
  5 35  1  0
 10 36  1  0
 11 37  1  0
 12 38  1  0
 13 39  1  0
 14 40  1  0
 18 41  1  0
 24 42  1  0
 24 43  1  0
 25 44  1  0
 25 45  1  0
 26 46  1  0
 26 47  1  0
 27 48  1  0
 27 49  1  0
 28 50  1  0
 28 51  1  0
M  CHG  1  17  -1
M  END
>  <UniqueID>  (39) 
38

>  <SMILES>  (39) 
O=C(CCCS(=O)(=O)c1ccccc1)N=c1[n-]cc(S(=O)(=O)N2CCCCC2)s1

>  <Energy>  (39) 
81.75437204582728

>  <Genealogy>  (39) 
O=C(CCCS(=O)(=O)c1ccccc1)N=c1[n-]cc(S(=O)(=O)N2CCCCC2)s1 (protonated)
O=C(CCCS(=O)(=O)c1ccccc1)N=c1[n-]cc(S(=O)(=O)N2CCCCC2)s1 (3D coordinates assigned)
O=C(CCCS(=O)(=O)c1ccccc1)N=c1[n-]cc(S(=O)(=O)N2CCCCC2)s1 (nonaromatic ring conformer: 81.75437204582728 kcal/mol)

>  <smiles>  (39) 
O=C(CCCS(=O)(=O)c1ccccc1)N=c1[nH]cc(S(=O)(=O)N2CCCCC2)s1

>  <score_type>  (39) 
oracle

>  <origin>  (39) 
adg

>  <m_score__min__energy>  (39) 
-12.33

>  <m_primary>  (39) 
energy

$$$$
39:0
     RDKit          3D

 77 81  0  0  0  0  0  0  0  0999 V2000
   61.8050   33.6760   51.0660 H   0  0  0  0  0  0  0  0  0  0  0  0
   61.0300   33.6950   51.6920 O   0  0  0  0  0  0  0  0  0  0  0  0
   59.8510   33.7740   50.9300 C   0  0  2  0  0  0  0  0  0  0  0  0
   59.3309   34.7110   51.1779 H   0  0  0  0  0  0  0  0  0  0  0  0
   58.9310   32.6200   51.2830 C   0  0  0  0  0  0  0  0  0  0  0  0
   58.0020   32.7280   52.3350 C   0  0  0  0  0  0  0  0  0  0  0  0
   57.9647   33.6457   52.9403 H   0  0  0  0  0  0  0  0  0  0  0  0
   57.1270   31.6750   52.6140 C   0  0  0  0  0  0  0  0  0  0  0  0
   56.4078   31.7641   53.4416 H   0  0  0  0  0  0  0  0  0  0  0  0
   57.1630   30.5080   51.8440 C   0  0  0  0  0  0  0  0  0  0  0  0
   56.4764   29.6786   52.0689 H   0  0  0  0  0  0  0  0  0  0  0  0
   58.0710   30.3970   50.7900 C   0  0  0  0  0  0  0  0  0  0  0  0
   58.0966   29.4802   50.1827 H   0  0  0  0  0  0  0  0  0  0  0  0
   58.9470   31.4460   50.5040 C   0  0  0  0  0  0  0  0  0  0  0  0
   59.6536   31.3554   49.6658 H   0  0  0  0  0  0  0  0  0  0  0  0
   60.1570   33.8400   49.4120 C   0  0  0  0  0  0  0  0  0  0  0  0
   59.7979   34.8041   49.0227 H   0  0  0  0  0  0  0  0  0  0  0  0
   59.6462   32.9912   48.9339 H   0  0  0  0  0  0  0  0  0  0  0  0
   61.5930   33.7180   49.1140 N   0  0  0  0  0  0  0  0  0  0  0  0
   62.0700   33.2260   49.9080 H   0  0  0  0  0  0  0  0  0  0  0  0
   61.8600   32.9920   47.8630 C   0  0  0  0  0  0  0  0  0  0  0  0
   61.3978   31.9952   47.9155 H   0  0  0  0  0  0  0  0  0  0  0  0
   62.9475   32.8948   47.7292 H   0  0  0  0  0  0  0  0  0  0  0  0
   61.2750   33.7600   46.6700 C   0  0  0  0  0  0  0  0  0  0  0  0
   61.9986   33.7340   45.8419 H   0  0  0  0  0  0  0  0  0  0  0  0
   61.0779   34.7923   46.9949 H   0  0  0  0  0  0  0  0  0  0  0  0
   59.9730   33.1650   46.1970 C   0  0  0  0  0  0  0  0  0  0  0  0
   59.1920   33.8340   45.2410 C   0  0  0  0  0  0  0  0  0  0  0  0
   59.5147   34.8140   44.8597 H   0  0  0  0  0  0  0  0  0  0  0  0
   58.0060   33.2610   44.7710 C   0  0  0  0  0  0  0  0  0  0  0  0
   57.4172   33.7789   43.9996 H   0  0  0  0  0  0  0  0  0  0  0  0
   57.5630   32.0320   45.2760 C   0  0  0  0  0  0  0  0  0  0  0  0
   56.3450   31.4730   44.7680 N   0  0  0  0  0  0  0  0  0  0  0  0
   56.2520   30.0510   43.7780 S   0  0  0  0  0  0  0  0  0  0  0  0
   56.6630   30.3520   42.3610 O   0  0  0  0  0  0  0  0  0  0  0  0
   54.8280   29.5640   43.7590 O   0  0  0  0  0  0  0  0  0  0  0  0
   57.2790   28.8030   44.4820 C   0  0  0  0  0  0  0  0  0  0  0  0
   56.7490   27.9140   45.4280 C   0  0  0  0  0  0  0  0  0  0  0  0
   55.6771   27.9481   45.6726 H   0  0  0  0  0  0  0  0  0  0  0  0
   57.5780   26.9860   46.0600 C   0  0  0  0  0  0  0  0  0  0  0  0
   57.1540   26.2818   46.7909 H   0  0  0  0  0  0  0  0  0  0  0  0
   58.9520   26.9470   45.7670 C   0  0  0  0  0  0  0  0  0  0  0  0
   59.8480   25.9840   46.4950 C   0  0  0  0  0  0  0  0  0  0  0  0
   60.8956   26.1990   46.2375 H   0  0  0  0  0  0  0  0  0  0  0  0
   59.5863   24.9586   46.1950 H   0  0  0  0  0  0  0  0  0  0  0  0
   59.6760   26.1100   47.9060 O   0  0  0  0  0  0  0  0  0  0  0  0
   60.2640   27.1080   48.7020 C   0  0  0  0  0  0  0  0  0  0  0  0
   60.7980   26.8440   49.9800 C   0  0  0  0  0  0  0  0  0  0  0  0
   60.7481   25.8269   50.3960 H   0  0  0  0  0  0  0  0  0  0  0  0
   61.3910   27.8720   50.7200 C   0  0  0  0  0  0  0  0  0  0  0  0
   61.8061   27.6554   51.7154 H   0  0  0  0  0  0  0  0  0  0  0  0
   61.4630   29.1810   50.2060 C   0  0  0  0  0  0  0  0  0  0  0  0
   62.1080   30.2530   51.0080 C   0  0  0  0  0  0  0  0  0  0  0  0
   62.8310   31.2430   50.4140 N   0  0  0  0  0  0  0  0  0  0  0  0
   63.3370   32.1210   51.3010 C   0  0  0  0  0  0  0  0  0  0  0  0
   64.0300   33.1550   50.9210 N   0  0  0  0  0  0  0  0  0  0  0  0
   63.8440   34.5370   51.2670 C   0  0  0  0  0  0  0  0  0  0  0  0
   63.0610   35.2300   50.5690 O   0  0  0  0  0  0  0  0  0  0  0  0
   64.5920   35.2040   52.3810 C   0  0  0  0  0  0  0  0  0  0  0  0
   64.1996   34.8541   53.3472 H   0  0  0  0  0  0  0  0  0  0  0  0
   65.6605   34.9534   52.3068 H   0  0  0  0  0  0  0  0  0  0  0  0
   64.4650   36.2941   52.3068 H   0  0  0  0  0  0  0  0  0  0  0  0
   62.8830   31.7250   52.8740 S   0  0  0  0  0  0  0  0  0  0  0  0
   62.0250   30.3580   52.4010 C   0  0  0  0  0  0  0  0  0  0  0  0
   61.4915   29.6668   53.0701 H   0  0  0  0  0  0  0  0  0  0  0  0
   60.9090   29.4380   48.9360 C   0  0  0  0  0  0  0  0  0  0  0  0
   60.9435   30.4569   48.5229 H   0  0  0  0  0  0  0  0  0  0  0  0
   60.3160   28.4110   48.1960 C   0  0  0  0  0  0  0  0  0  0  0  0
   59.8865   28.6294   47.2071 H   0  0  0  0  0  0  0  0  0  0  0  0
   59.4760   27.8210   44.8020 C   0  0  0  0  0  0  0  0  0  0  0  0
   60.5452   27.7786   44.5470 H   0  0  0  0  0  0  0  0  0  0  0  0
   58.6440   28.7450   44.1640 C   0  0  0  0  0  0  0  0  0  0  0  0
   59.0608   29.4290   43.4101 H   0  0  0  0  0  0  0  0  0  0  0  0
   58.3350   31.3680   46.2440 C   0  0  0  0  0  0  0  0  0  0  0  0
   57.9951   30.4033   46.6486 H   0  0  0  0  0  0  0  0  0  0  0  0
   59.5340   31.9290   46.6950 C   0  0  0  0  0  0  0  0  0  0  0  0
   60.1373   31.3974   47.4456 H   0  0  0  0  0  0  0  0  0  0  0  0
  1  2  1  0
  2  3  1  0
  3  4  1  1
  3  5  1  0
  5  6  2  0
  6  7  1  0
  6  8  1  0
  8  9  1  0
  8 10  2  0
 10 11  1  0
 10 12  1  0
 12 13  1  0
 12 14  2  0
 14 15  1  0
  3 16  1  0
 16 17  1  0
 16 18  1  0
 16 19  1  0
 19 20  1  0
 19 21  1  0
 21 22  1  0
 21 23  1  0
 21 24  1  0
 24 25  1  0
 24 26  1  0
 24 27  1  0
 27 28  2  0
 28 29  1  0
 28 30  1  0
 30 31  1  0
 30 32  2  0
 32 33  1  0
 33 34  1  0
 34 35  2  0
 34 36  2  0
 34 37  1  0
 37 38  2  0
 38 39  1  0
 38 40  1  0
 40 41  1  0
 40 42  2  0
 42 43  1  0
 43 44  1  0
 43 45  1  0
 43 46  1  0
 46 47  1  0
 47 48  2  0
 48 49  1  0
 48 50  1  0
 50 51  1  0
 50 52  2  0
 52 53  1  0
 53 54  1  0
 54 55  1  0
 55 56  2  0
 56 57  1  0
 57 58  2  0
 57 59  1  0
 59 60  1  0
 59 61  1  0
 59 62  1  0
 55 63  1  0
 63 64  1  0
 64 65  1  0
 52 66  1  0
 66 67  1  0
 66 68  2  0
 68 69  1  0
 42 70  1  0
 70 71  1  0
 70 72  2  0
 72 73  1  0
 32 74  1  0
 74 75  1  0
 74 76  2  0
 76 77  1  0
 14  5  1  0
 76 27  1  0
 72 37  1  0
 68 47  1  0
 64 53  2  0
M  CHG  2  33  -1  54  -1
M  END
>  <UniqueID>  (40) 
39

>  <SMILES>  (40) 
CC(=O)/N=c1/[n-]c(-c2ccc(OCc3ccc(S(=O)(=O)[N-]c4ccc(CCNC[C@H](O)c5ccccc5)cc4)cc3)cc2)cs1

>  <Energy>  (40) 
120.5885570157179

>  <Genealogy>  (40) 
CC(=O)N=c1[n-]c(-c2ccc(OCc3ccc(S(=O)(=O)[N-]c4ccc(CCNCC(O)c5ccccc5)cc4)cc3)cc2)cs1 (protonated)
CC(=O)N=c1[n-]c(-c2ccc(OCc3ccc(S(=O)(=O)[N-]c4ccc(CCNC[C@H](O)c5ccccc5)cc4)cc3)cc2)cs1 (chirality)
CC(=O)/N=c1/[n-]c(-c2ccc(OCc3ccc(S(=O)(=O)[N-]c4ccc(CCNC[C@H](O)c5ccccc5)cc4)cc3)cc2)cs1 (cis-trans isomerization)
CC(=O)/N=c1/[n-]c(-c2ccc(OCc3ccc(S(=O)(=O)[N-]c4ccc(CCNC[C@H](O)c5ccccc5)cc4)cc3)cc2)cs1 (3D coordinates assigned)
CC(=O)/N=c1/[n-]c(-c2ccc(OCc3ccc(S(=O)(=O)[N-]c4ccc(CCNC[C@H](O)c5ccccc5)cc4)cc3)cc2)cs1 (optimized conformer: 120.5885570157179 kcal/mol)

>  <smiles>  (40) 
CC(=O)N=c1[nH]c(-c2ccc(OCc3ccc(S(=O)(=O)Nc4ccc(CCNCC(O)c5ccccc5)cc4)cc3)cc2)cs1

>  <score_type>  (40) 
oracle

>  <origin>  (40) 
adg

>  <m_score__min__energy>  (40) 
-14.460000000000001

>  <m_primary>  (40) 
energy

$$$$
40:0
     RDKit          3D

 42 46  0  0  0  0  0  0  0  0999 V2000
   58.6287   29.6283   43.3746 H   0  0  0  0  0  0  0  0  0  0  0  0
   58.3910   30.1030   44.3380 C   0  0  0  0  0  0  0  0  0  0  0  0
   58.0810   31.3570   44.5070 N   0  0  0  0  0  0  0  0  0  0  0  0
   57.8450   31.5360   45.8750 N   0  0  0  0  0  0  0  0  0  0  0  0
   58.2040   32.5810   46.6330 C   0  0  0  0  0  0  0  0  0  0  0  0
   58.2480   33.8020   46.1960 N   0  0  0  0  0  0  0  0  0  0  0  0
   59.4760   34.5900   46.1800 C   0  0  0  0  0  0  0  0  0  0  0  0
   59.1349   35.3854   45.5011 H   0  0  0  0  0  0  0  0  0  0  0  0
   60.7230   33.7370   46.3070 C   0  0  0  0  0  0  0  0  0  0  0  0
   60.6398   32.6403   46.3254 H   0  0  0  0  0  0  0  0  0  0  0  0
   61.6698   33.6557   45.7530 H   0  0  0  0  0  0  0  0  0  0  0  0
   60.2370   34.5570   47.4930 C   0  0  0  0  0  0  0  0  0  0  0  0
   59.8018   34.0536   48.3689 H   0  0  0  0  0  0  0  0  0  0  0  0
   60.6859   35.3146   48.1522 H   0  0  0  0  0  0  0  0  0  0  0  0
   58.6540   32.1880   47.8490 N   0  0  0  0  0  0  0  0  0  0  0  0
   58.5760   30.8340   47.7600 C   0  0  0  0  0  0  0  0  0  0  0  0
   59.2770   29.9520   48.7120 C   0  0  0  0  0  0  0  0  0  0  0  0
   60.3580   29.1860   48.2460 C   0  0  0  0  0  0  0  0  0  0  0  0
   60.6423   29.2335   47.1844 H   0  0  0  0  0  0  0  0  0  0  0  0
   61.0740   28.3660   49.1170 C   0  0  0  0  0  0  0  0  0  0  0  0
   61.9098   27.7594   48.7382 H   0  0  0  0  0  0  0  0  0  0  0  0
   60.7320   28.3140   50.4670 C   0  0  0  0  0  0  0  0  0  0  0  0
   61.2919   27.6586   51.1504 H   0  0  0  0  0  0  0  0  0  0  0  0
   59.6790   29.0930   50.9540 C   0  0  0  0  0  0  0  0  0  0  0  0
   59.4203   29.0516   52.0223 H   0  0  0  0  0  0  0  0  0  0  0  0
   58.9460   29.9300   50.0920 C   0  0  0  0  0  0  0  0  0  0  0  0
   57.8310   30.7390   50.6490 C   0  0  0  0  0  0  0  0  0  0  0  0
   56.9520   30.1970   51.3700 O   0  0  0  0  0  0  0  0  0  0  0  0
   57.7390   32.1410   50.3850 N   0  0  0  0  0  0  0  0  0  0  0  0
   56.9770   32.7070   50.8220 H   0  0  0  0  0  0  0  0  0  0  0  0
   58.3790   32.6100   49.7070 H   0  0  0  0  0  0  0  0  0  0  0  0
   58.0460   30.4510   46.5730 N   0  0  0  0  0  0  0  0  0  0  0  0
   58.3720   29.4240   45.6430 C   0  0  0  0  0  0  0  0  0  0  0  0
   58.4520   28.1050   45.8520 C   0  0  0  0  0  0  0  0  0  0  0  0
   59.4520   27.6484   45.8902 H   0  0  0  0  0  0  0  0  0  0  0  0
   57.2850   27.2270   46.0340 C   0  0  0  0  0  0  0  0  0  0  0  0
   57.3600   26.0010   46.5810 N   0  0  0  0  0  0  0  0  0  0  0  0
   56.0890   25.5480   46.5060 C   0  0  0  0  0  0  0  0  0  0  0  0
   55.7470   24.4180   46.9410 O   0  0  0  0  0  0  0  0  0  0  0  0
   55.2170   26.3970   45.9230 N   0  0  0  0  0  0  0  0  0  0  0  0
   55.9920   27.4510   45.6190 C   0  0  0  0  0  0  0  0  0  0  0  0
   55.5310   28.5730   44.9430 O   0  0  0  0  0  0  0  0  0  0  0  0
  1  2  1  0
  2  3  2  0
  3  4  1  0
  4  5  1  0
  5  6  2  0
  6  7  1  0
  7  8  1  0
  7  9  1  0
  9 10  1  0
  9 11  1  0
  9 12  1  0
 12 13  1  0
 12 14  1  0
  5 15  1  0
 15 16  2  0
 16 17  1  0
 17 18  2  0
 18 19  1  0
 18 20  1  0
 20 21  1  0
 20 22  2  0
 22 23  1  0
 22 24  1  0
 24 25  1  0
 24 26  2  0
 26 27  1  0
 27 28  2  0
 27 29  1  0
 29 30  1  0
 29 31  1  0
 16 32  1  0
 32 33  1  0
 33 34  2  0
 34 35  1  0
 34 36  1  0
 36 37  1  0
 37 38  1  0
 38 39  2  0
 38 40  1  0
 40 41  1  0
 41 42  1  0
 33  2  1  0
 41 36  2  0
 32  4  1  0
 12  7  1  0
 26 17  1  0
M  CHG  3  37  -1  40  -1  42  -1
M  END
>  <UniqueID>  (41) 
40

>  <SMILES>  (41) 
NC(=O)c1ccccc1-c1n/c(=N\C2CC2)n2n1/C(=C\c1[n-]c(=O)[n-]c1[O-])C=N2

>  <Energy>  (41) 
447.8041210112862

>  <Genealogy>  (41) 
NC(=O)c1ccccc1-c1nc(=NC2CC2)n2n1C(=Cc1[n-]c(=O)[n-]c1[O-])C=N2 (protonated)
NC(=O)c1ccccc1-c1n/c(=N\C2CC2)n2n1/C(=C\c1[n-]c(=O)[n-]c1[O-])C=N2 (cis-trans isomerization)
NC(=O)c1ccccc1-c1n/c(=N\C2CC2)n2n1/C(=C\c1[n-]c(=O)[n-]c1[O-])C=N2 (3D coordinates assigned)
NC(=O)c1ccccc1-c1n/c(=N\C2CC2)n2n1/C(=C\c1[n-]c(=O)[n-]c1[O-])C=N2 (nonaromatic ring conformer: 447.8041210112862 kcal/mol)

>  <smiles>  (41) 
NC(=O)c1ccccc1-c1nc(=NC2CC2)n2n1C(=Cc1[nH]c(=O)[nH]c1O)C=N2

>  <score_type>  (41) 
oracle

>  <origin>  (41) 
adg

>  <m_score__min__energy>  (41) 
-15.18

>  <m_primary>  (41) 
energy

$$$$
41:0
     RDKit          3D

 57 60  0  0  0  0  0  0  0  0999 V2000
   57.3860   30.0310   51.5020 O   0  0  0  0  0  0  0  0  0  0  0  0
   58.4530   30.7000   51.5060 C   0  0  0  0  0  0  0  0  0  0  0  0
   58.4520   32.0610   52.1490 C   0  0  0  0  0  0  0  0  0  0  0  0
   59.2130   33.0350   51.3060 C   0  0  0  0  0  0  0  0  0  0  0  0
   60.1490   33.7040   51.8240 O   0  0  0  0  0  0  0  0  0  0  0  0
   58.8710   33.2170   49.9250 N   0  0  0  0  0  0  0  0  0  0  0  0
   59.7480   33.9240   48.9950 C   0  0  0  0  0  0  0  0  0  0  0  0
   59.1620   33.8880   47.6150 C   0  0  0  0  0  0  0  0  0  0  0  0
   59.7680   34.5940   46.5650 C   0  0  0  0  0  0  0  0  0  0  0  0
   59.1770   34.5820   45.3000 C   0  0  0  0  0  0  0  0  0  0  0  0
   57.9900   33.8790   45.0940 C   0  0  0  0  0  0  0  0  0  0  0  0
   57.4060   33.1970   46.1650 C   0  0  0  0  0  0  0  0  0  0  0  0
   57.9970   33.2190   47.3910 N   0  0  0  0  0  0  0  0  0  0  0  0
   59.6500   30.0930   50.9990 N   0  0  0  0  0  0  0  0  0  0  0  0
   59.9100   29.7570   49.6300 C   0  0  0  0  0  0  0  0  0  0  0  0
   60.0820   30.7850   48.6950 C   0  0  0  0  0  0  0  0  0  0  0  0
   60.2850   30.4820   47.3440 C   0  0  0  0  0  0  0  0  0  0  0  0
   60.3270   29.1480   46.9240 C   0  0  0  0  0  0  0  0  0  0  0  0
   60.4330   28.7480   45.1800 S   0  0  0  0  0  0  0  0  0  0  0  0
   58.6620   28.9340   44.9610 C   0  0  0  0  0  0  0  0  0  0  0  0
   58.1440   30.1400   44.4760 C   0  0  0  0  0  0  0  0  0  0  0  0
   56.7640   30.3060   44.3450 C   0  0  0  0  0  0  0  0  0  0  0  0
   55.8940   29.2800   44.7250 C   0  0  0  0  0  0  0  0  0  0  0  0
   56.4040   28.0750   45.2420 C   0  0  0  0  0  0  0  0  0  0  0  0
   55.5470   27.0070   45.6690 N   0  0  0  0  0  0  0  0  0  0  0  0
   55.9640   25.7200   46.1480 C   0  0  0  0  0  0  0  0  0  0  0  0
   56.3440   25.5830   47.3420 O   0  0  0  0  0  0  0  0  0  0  0  0
   56.0070   24.5630   45.2240 C   0  0  0  0  0  0  0  0  0  0  0  0
   56.6280   24.6740   43.9680 C   0  0  0  0  0  0  0  0  0  0  0  0
   56.6510   23.5740   43.1070 C   0  0  0  0  0  0  0  0  0  0  0  0
   56.0790   22.4010   43.4830 N   0  0  0  0  0  0  0  0  0  0  0  0
   55.4740   22.2600   44.6900 C   0  0  0  0  0  0  0  0  0  0  0  0
   55.4270   23.3340   45.5820 C   0  0  0  0  0  0  0  0  0  0  0  0
   57.7920   27.8970   45.3220 C   0  0  0  0  0  0  0  0  0  0  0  0
   60.2280   28.1180   47.8660 C   0  0  0  0  0  0  0  0  0  0  0  0
   60.0370   28.4200   49.2170 C   0  0  0  0  0  0  0  0  0  0  0  0
   57.4145   32.4095   52.2588 H   0  0  0  0  0  0  0  0  0  0  0  0
   58.9327   31.9905   53.1359 H   0  0  0  0  0  0  0  0  0  0  0  0
   58.0070   32.7660   49.5500 H   0  0  0  0  0  0  0  0  0  0  0  0
   59.8558   34.9698   49.3185 H   0  0  0  0  0  0  0  0  0  0  0  0
   60.7335   33.4354   48.9833 H   0  0  0  0  0  0  0  0  0  0  0  0
   60.7003   35.1520   46.7367 H   0  0  0  0  0  0  0  0  0  0  0  0
   59.6467   35.1260   44.4673 H   0  0  0  0  0  0  0  0  0  0  0  0
   57.5190   33.8616   44.1001 H   0  0  0  0  0  0  0  0  0  0  0  0
   56.4679   32.6419   46.0171 H   0  0  0  0  0  0  0  0  0  0  0  0
   60.0575   31.8345   49.0236 H   0  0  0  0  0  0  0  0  0  0  0  0
   60.4116   31.2931   46.6118 H   0  0  0  0  0  0  0  0  0  0  0  0
   58.8247   30.9580   44.1977 H   0  0  0  0  0  0  0  0  0  0  0  0
   56.3603   31.2465   43.9418 H   0  0  0  0  0  0  0  0  0  0  0  0
   54.8074   29.4151   44.6195 H   0  0  0  0  0  0  0  0  0  0  0  0
   57.0940   25.6230   43.6642 H   0  0  0  0  0  0  0  0  0  0  0  0
   57.1336   23.6582   42.1221 H   0  0  0  0  0  0  0  0  0  0  0  0
   55.0194   21.2972   44.9665 H   0  0  0  0  0  0  0  0  0  0  0  0
   54.9381   23.2182   46.5605 H   0  0  0  0  0  0  0  0  0  0  0  0
   58.2007   26.9370   45.6704 H   0  0  0  0  0  0  0  0  0  0  0  0
   60.3006   27.0691   47.5426 H   0  0  0  0  0  0  0  0  0  0  0  0
   59.9860   27.6093   49.9587 H   0  0  0  0  0  0  0  0  0  0  0  0
  1  2  2  0
  2  3  1  0
  3  4  1  0
  4  5  2  0
  4  6  1  0
  6  7  1  0
  7  8  1  0
  8  9  2  0
  9 10  1  0
 10 11  2  0
 11 12  1  0
 12 13  2  0
  2 14  1  0
 14 15  1  0
 15 16  2  0
 16 17  1  0
 17 18  2  0
 18 19  1  0
 19 20  1  0
 20 21  2  0
 21 22  1  0
 22 23  2  0
 23 24  1  0
 24 25  1  0
 25 26  1  0
 26 27  2  0
 26 28  1  0
 28 29  2  0
 29 30  1  0
 30 31  2  0
 31 32  1  0
 32 33  2  0
 24 34  2  0
 18 35  1  0
 35 36  2  0
 13  8  1  0
 36 15  1  0
 34 20  1  0
 33 28  1  0
  3 37  1  0
  3 38  1  0
  6 39  1  0
  7 40  1  0
  7 41  1  0
  9 42  1  0
 10 43  1  0
 11 44  1  0
 12 45  1  0
 16 46  1  0
 17 47  1  0
 21 48  1  0
 22 49  1  0
 23 50  1  0
 29 51  1  0
 30 52  1  0
 32 53  1  0
 33 54  1  0
 34 55  1  0
 35 56  1  0
 36 57  1  0
M  CHG  2  14  -1  25  -1
M  END
>  <UniqueID>  (42) 
41

>  <SMILES>  (42) 
O=C(CC(=O)NCc1ccccn1)[N-]c1ccc(Sc2cccc([N-]C(=O)c3ccncc3)c2)cc1

>  <Energy>  (42) 
61.905417710216895

>  <Genealogy>  (42) 
O=C(CC(=O)NCc1ccccn1)[N-]c1ccc(Sc2cccc([N-]C(=O)c3ccncc3)c2)cc1 (protonated)
O=C(CC(=O)NCc1ccccn1)[N-]c1ccc(Sc2cccc([N-]C(=O)c3ccncc3)c2)cc1 (3D coordinates assigned)
O=C(CC(=O)NCc1ccccn1)[N-]c1ccc(Sc2cccc([N-]C(=O)c3ccncc3)c2)cc1 (optimized conformer: 61.905417710216895 kcal/mol)

>  <smiles>  (42) 
O=C(CC(=O)Nc1ccc(Sc2cccc(NC(=O)c3ccncc3)c2)cc1)NCc1ccccn1

>  <score_type>  (42) 
oracle

>  <origin>  (42) 
adg

>  <m_score__min__energy>  (42) 
-12.369999999999999

>  <m_primary>  (42) 
energy

$$$$
42:0
     RDKit          3D

 67 70  0  0  0  0  0  0  0  0999 V2000
   60.5680   29.4820   46.4960 C   0  0  0  0  0  0  0  0  0  0  0  0
   59.3790   29.5650   47.4460 C   0  0  0  0  0  0  0  0  0  0  0  0
   58.1590   29.0620   46.8120 N   0  0  0  0  0  0  0  0  0  0  0  0
   57.5420   29.6400   45.6380 C   0  0  0  0  0  0  0  0  0  0  0  0
   58.0490   30.8190   45.0530 C   0  0  0  0  0  0  0  0  0  0  0  0
   57.4320   31.3850   43.9320 C   0  0  0  0  0  0  0  0  0  0  0  0
   57.9170   32.6580   43.3700 C   0  0  0  0  0  0  0  0  0  0  0  0
   58.4580   32.6820   42.2320 O   0  0  0  0  0  0  0  0  0  0  0  0
   57.7920   33.8640   44.1230 N   0  0  0  0  0  0  0  0  0  0  0  0
   57.5010   33.8790   45.5540 C   0  0  0  0  0  0  0  0  0  0  0  0
   58.7970   33.8270   46.3150 C   0  0  0  0  0  0  0  0  0  0  0  0
   60.0230   34.0850   45.6820 C   0  0  0  0  0  0  0  0  0  0  0  0
   61.2280   33.9050   46.3750 C   0  0  0  0  0  0  0  0  0  0  0  0
   61.2170   33.4390   47.7000 C   0  0  0  0  0  0  0  0  0  0  0  0
   62.4700   33.1370   48.4180 C   0  0  0  0  0  0  0  0  0  0  0  0
   63.5400   32.9310   47.7840 O   0  0  0  0  0  0  0  0  0  0  0  0
   62.4500   33.0720   49.8450 N   0  0  0  0  0  0  0  0  0  0  0  0
   62.1990   31.8540   50.6110 C   0  0  0  0  0  0  0  0  0  0  0  0
   60.7160   31.6330   50.8090 C   0  0  0  0  0  0  0  0  0  0  0  0
   60.1600   30.3870   50.4760 C   0  0  0  0  0  0  0  0  0  0  0  0
   58.7980   30.1380   50.6750 C   0  0  0  0  0  0  0  0  0  0  0  0
   57.9680   31.1240   51.2220 C   0  0  0  0  0  0  0  0  0  0  0  0
   56.6000   30.8610   51.3280 O   0  0  0  0  0  0  0  0  0  0  0  0
   58.5250   32.3610   51.6200 C   0  0  0  0  0  0  0  0  0  0  0  0
   57.7610   33.3630   52.2280 O   0  0  0  0  0  0  0  0  0  0  0  0
   58.3210   34.5760   52.7280 C   0  0  0  0  0  0  0  0  0  0  0  0
   59.8860   32.6120   51.3940 C   0  0  0  0  0  0  0  0  0  0  0  0
   59.9880   33.2220   48.3420 C   0  0  0  0  0  0  0  0  0  0  0  0
   58.7890   33.4380   47.6640 C   0  0  0  0  0  0  0  0  0  0  0  0
   56.2990   30.7750   43.3880 C   0  0  0  0  0  0  0  0  0  0  0  0
   55.7850   29.6120   43.9480 C   0  0  0  0  0  0  0  0  0  0  0  0
   56.4120   29.0120   45.0540 C   0  0  0  0  0  0  0  0  0  0  0  0
   55.9270   27.7760   45.6130 N   0  0  0  0  0  0  0  0  0  0  0  0
   56.6280   26.5340   45.7630 C   0  0  0  0  0  0  0  0  0  0  0  0
   57.8530   26.5040   46.0540 O   0  0  0  0  0  0  0  0  0  0  0  0
   55.8870   25.2760   45.6270 C   0  0  0  0  0  0  0  0  0  0  0  0
   56.3900   24.0880   45.1320 C   0  0  0  0  0  0  0  0  0  0  0  0
   55.3540   23.1840   45.2180 C   0  0  0  0  0  0  0  0  0  0  0  0
   54.2830   23.8790   45.7540 C   0  0  0  0  0  0  0  0  0  0  0  0
   54.6320   25.1230   45.9840 O   0  0  0  0  0  0  0  0  0  0  0  0
   61.4989   29.4170   47.0785 H   0  0  0  0  0  0  0  0  0  0  0  0
   60.4691   28.5886   45.8620 H   0  0  0  0  0  0  0  0  0  0  0  0
   60.5942   30.3805   45.8620 H   0  0  0  0  0  0  0  0  0  0  0  0
   59.5925   28.9630   48.3415 H   0  0  0  0  0  0  0  0  0  0  0  0
   59.2219   30.6196   47.7162 H   0  0  0  0  0  0  0  0  0  0  0  0
   57.7680   28.1820   47.2170 H   0  0  0  0  0  0  0  0  0  0  0  0
   58.9402   31.2993   45.4832 H   0  0  0  0  0  0  0  0  0  0  0  0
   56.9586   34.8009   45.8109 H   0  0  0  0  0  0  0  0  0  0  0  0
   56.8791   33.0106   45.8171 H   0  0  0  0  0  0  0  0  0  0  0  0
   60.0382   34.4299   44.6376 H   0  0  0  0  0  0  0  0  0  0  0  0
   62.1844   34.1292   45.8801 H   0  0  0  0  0  0  0  0  0  0  0  0
   62.6213   30.9950   50.0690 H   0  0  0  0  0  0  0  0  0  0  0  0
   62.6723   31.9578   51.5985 H   0  0  0  0  0  0  0  0  0  0  0  0
   60.8018   29.5993   50.0546 H   0  0  0  0  0  0  0  0  0  0  0  0
   58.3759   29.1602   50.3997 H   0  0  0  0  0  0  0  0  0  0  0  0
   55.8940   31.5760   51.2200 H   0  0  0  0  0  0  0  0  0  0  0  0
   58.3126   34.5578   53.8278 H   0  0  0  0  0  0  0  0  0  0  0  0
   59.3566   34.6763   52.3709 H   0  0  0  0  0  0  0  0  0  0  0  0
   57.7257   35.4293   52.3709 H   0  0  0  0  0  0  0  0  0  0  0  0
   60.3122   33.5858   51.6768 H   0  0  0  0  0  0  0  0  0  0  0  0
   59.9706   32.8792   49.3871 H   0  0  0  0  0  0  0  0  0  0  0  0
   57.8317   33.3029   48.1888 H   0  0  0  0  0  0  0  0  0  0  0  0
   55.8096   31.2193   42.5087 H   0  0  0  0  0  0  0  0  0  0  0  0
   54.8789   29.1564   43.5220 H   0  0  0  0  0  0  0  0  0  0  0  0
   57.4046   23.9029   44.7496 H   0  0  0  0  0  0  0  0  0  0  0  0
   55.3736   22.1250   44.9211 H   0  0  0  0  0  0  0  0  0  0  0  0
   53.2894   23.4526   45.9565 H   0  0  0  0  0  0  0  0  0  0  0  0
  1  2  1  0
  2  3  1  0
  3  4  1  0
  4  5  2  0
  5  6  1  0
  6  7  1  0
  7  8  2  0
  7  9  1  0
  9 10  1  0
 10 11  1  0
 11 12  2  0
 12 13  1  0
 13 14  2  0
 14 15  1  0
 15 16  2  0
 15 17  1  0
 17 18  1  0
 18 19  1  0
 19 20  2  0
 20 21  1  0
 21 22  2  0
 22 23  1  0
 22 24  1  0
 24 25  1  0
 25 26  1  0
 24 27  2  0
 14 28  1  0
 28 29  2  0
  6 30  2  0
 30 31  1  0
 31 32  2  0
 32 33  1  0
 33 34  1  0
 34 35  2  0
 34 36  1  0
 36 37  2  0
 37 38  1  0
 38 39  2  0
 39 40  1  0
 32  4  1  0
 40 36  1  0
 29 11  1  0
 27 19  1  0
  1 41  1  0
  1 42  1  0
  1 43  1  0
  2 44  1  0
  2 45  1  0
  3 46  1  0
  5 47  1  0
 10 48  1  0
 10 49  1  0
 12 50  1  0
 13 51  1  0
 18 52  1  0
 18 53  1  0
 20 54  1  0
 21 55  1  0
 23 56  1  0
 26 57  1  0
 26 58  1  0
 26 59  1  0
 27 60  1  0
 28 61  1  0
 29 62  1  0
 30 63  1  0
 31 64  1  0
 37 65  1  0
 38 66  1  0
 39 67  1  0
M  CHG  3   9  -1  17  -1  33  -1
M  END
>  <UniqueID>  (43) 
42

>  <SMILES>  (43) 
CCNc1cc(C(=O)[N-]Cc2ccc(C(=O)[N-]Cc3ccc(O)c(OC)c3)cc2)ccc1[N-]C(=O)c1ccco1

>  <Energy>  (43) 
116.85460927793358

>  <Genealogy>  (43) 
CCNc1cc(C(=O)[N-]Cc2ccc(C(=O)[N-]Cc3ccc(O)c(OC)c3)cc2)ccc1[N-]C(=O)c1ccco1 (protonated)
CCNc1cc(C(=O)[N-]Cc2ccc(C(=O)[N-]Cc3ccc(O)c(OC)c3)cc2)ccc1[N-]C(=O)c1ccco1 (3D coordinates assigned)
CCNc1cc(C(=O)[N-]Cc2ccc(C(=O)[N-]Cc3ccc(O)c(OC)c3)cc2)ccc1[N-]C(=O)c1ccco1 (optimized conformer: 116.85460927793358 kcal/mol)

>  <smiles>  (43) 
CCNc1cc(C(=O)NCc2ccc(C(=O)NCc3ccc(O)c(OC)c3)cc2)ccc1NC(=O)c1ccco1

>  <score_type>  (43) 
oracle

>  <origin>  (43) 
adg

>  <m_score__min__energy>  (43) 
-13.66

>  <m_primary>  (43) 
energy

$$$$
43:0
     RDKit          3D

 49 52  0  0  0  0  0  0  0  0999 V2000
   59.1494   23.7208   45.9150 H   0  0  0  0  0  0  0  0  0  0  0  0
   59.4890   24.7640   45.9950 C   0  0  0  0  0  0  0  0  0  0  0  0
   60.5648   24.9912   46.0278 H   0  0  0  0  0  0  0  0  0  0  0  0
   58.5850   25.7660   46.0530 C   0  0  0  0  0  0  0  0  0  0  0  0
   59.0330   27.1060   46.1560 C   0  0  0  0  0  0  0  0  0  0  0  0
   60.2700   27.3610   46.1470 O   0  0  0  0  0  0  0  0  0  0  0  0
   58.0780   28.1460   46.2250 C   0  0  0  0  0  0  0  0  0  0  0  0
   58.3790   29.4570   46.3480 C   0  0  0  0  0  0  0  0  0  0  0  0
   58.8990   29.7638   47.2675 H   0  0  0  0  0  0  0  0  0  0  0  0
   58.0770   30.5170   45.3670 C   0  0  0  0  0  0  0  0  0  0  0  0
   57.7840   30.1970   44.0320 C   0  0  0  0  0  0  0  0  0  0  0  0
   57.7395   29.1439   43.7172 H   0  0  0  0  0  0  0  0  0  0  0  0
   57.5490   31.2120   43.1030 C   0  0  0  0  0  0  0  0  0  0  0  0
   57.3025   30.9564   42.0619 H   0  0  0  0  0  0  0  0  0  0  0  0
   57.6260   32.5520   43.4920 C   0  0  0  0  0  0  0  0  0  0  0  0
   57.4359   33.3476   42.7566 H   0  0  0  0  0  0  0  0  0  0  0  0
   57.9460   32.8880   44.8220 C   0  0  0  0  0  0  0  0  0  0  0  0
   58.0410   34.2160   45.2660 O   0  0  0  0  0  0  0  0  0  0  0  0
   59.2550   34.9570   45.3980 C   0  0  0  0  0  0  0  0  0  0  0  0
   59.8506   34.8399   44.4807 H   0  0  0  0  0  0  0  0  0  0  0  0
   59.0060   36.0161   45.5600 H   0  0  0  0  0  0  0  0  0  0  0  0
   60.0570   34.4640   46.5740 C   0  0  0  0  0  0  0  0  0  0  0  0
   61.3290   33.9040   46.3750 C   0  0  0  0  0  0  0  0  0  0  0  0
   61.7367   33.8188   45.3569 H   0  0  0  0  0  0  0  0  0  0  0  0
   62.0800   33.4540   47.4660 C   0  0  0  0  0  0  0  0  0  0  0  0
   63.0732   33.0099   47.3035 H   0  0  0  0  0  0  0  0  0  0  0  0
   61.5700   33.5680   48.7620 C   0  0  0  0  0  0  0  0  0  0  0  0
   62.1603   33.2106   49.6186 H   0  0  0  0  0  0  0  0  0  0  0  0
   60.3100   34.1360   48.9700 C   0  0  0  0  0  0  0  0  0  0  0  0
   59.9105   34.2279   49.9908 H   0  0  0  0  0  0  0  0  0  0  0  0
   59.5560   34.5880   47.8810 C   0  0  0  0  0  0  0  0  0  0  0  0
   58.5681   35.0418   48.0487 H   0  0  0  0  0  0  0  0  0  0  0  0
   58.1840   31.8630   45.7460 C   0  0  0  0  0  0  0  0  0  0  0  0
   58.4580   32.1165   46.7807 H   0  0  0  0  0  0  0  0  0  0  0  0
   56.7650   27.8230   46.1340 N   0  0  0  0  0  0  0  0  0  0  0  0
   56.3330   26.5440   46.0240 C   0  0  0  0  0  0  0  0  0  0  0  0
   55.0930   26.3240   45.9540 O   0  0  0  0  0  0  0  0  0  0  0  0
   57.2290   25.5090   45.9970 N   0  0  0  0  0  0  0  0  0  0  0  0
   56.7140   24.1650   45.9070 C   0  0  0  0  0  0  0  0  0  0  0  0
   56.2630   23.5040   47.0590 C   0  0  0  0  0  0  0  0  0  0  0  0
   56.3010   24.0119   48.0340 H   0  0  0  0  0  0  0  0  0  0  0  0
   55.7650   22.2000   46.9700 C   0  0  0  0  0  0  0  0  0  0  0  0
   55.4102   21.6841   47.8744 H   0  0  0  0  0  0  0  0  0  0  0  0
   55.7180   21.5520   45.7320 C   0  0  0  0  0  0  0  0  0  0  0  0
   55.3258   20.5266   45.6632 H   0  0  0  0  0  0  0  0  0  0  0  0
   56.1690   22.2060   44.5810 C   0  0  0  0  0  0  0  0  0  0  0  0
   56.1318   21.6947   43.6078 H   0  0  0  0  0  0  0  0  0  0  0  0
   56.6670   23.5090   44.6670 C   0  0  0  0  0  0  0  0  0  0  0  0
   57.0229   24.0215   43.7611 H   0  0  0  0  0  0  0  0  0  0  0  0
  1  2  1  0
  2  3  1  0
  2  4  2  0
  4  5  1  0
  5  6  2  0
  5  7  1  0
  7  8  2  0
  8  9  1  0
  8 10  1  0
 10 11  2  0
 11 12  1  0
 11 13  1  0
 13 14  1  0
 13 15  2  0
 15 16  1  0
 15 17  1  0
 17 18  1  0
 18 19  1  0
 19 20  1  0
 19 21  1  0
 19 22  1  0
 22 23  2  0
 23 24  1  0
 23 25  1  0
 25 26  1  0
 25 27  2  0
 27 28  1  0
 27 29  1  0
 29 30  1  0
 29 31  2  0
 31 32  1  0
 17 33  2  0
 33 34  1  0
  7 35  1  0
 35 36  1  0
 36 37  2  0
 36 38  1  0
 38 39  1  0
 39 40  2  0
 40 41  1  0
 40 42  1  0
 42 43  1  0
 42 44  2  0
 44 45  1  0
 44 46  1  0
 46 47  1  0
 46 48  2  0
 48 49  1  0
 38  4  1  0
 48 39  1  0
 33 10  1  0
 31 22  1  0
M  CHG  1  35  -1
M  END
>  <UniqueID>  (44) 
43

>  <SMILES>  (44) 
C=c1c(=O)/c(=C\c2cccc(OCc3ccccc3)c2)[n-]c(=O)n1-c1ccccc1

>  <Energy>  (44) 
82.20877664517455

>  <Genealogy>  (44) 
C=c1c(=O)c(=Cc2cccc(OCc3ccccc3)c2)[n-]c(=O)n1-c1ccccc1 (protonated)
C=c1c(=O)/c(=C\c2cccc(OCc3ccccc3)c2)[n-]c(=O)n1-c1ccccc1 (cis-trans isomerization)
C=c1c(=O)/c(=C\c2cccc(OCc3ccccc3)c2)[n-]c(=O)n1-c1ccccc1 (3D coordinates assigned)
C=c1c(=O)/c(=C\c2cccc(OCc3ccccc3)c2)[n-]c(=O)n1-c1ccccc1 (optimized conformer: 82.20877664517455 kcal/mol)

>  <smiles>  (44) 
C=c1c(=O)c(=Cc2cccc(OCc3ccccc3)c2)[nH]c(=O)n1-c1ccccc1

>  <score_type>  (44) 
oracle

>  <origin>  (44) 
adg

>  <m_score__min__energy>  (44) 
-10.56

>  <m_primary>  (44) 
energy

$$$$
44:0
     RDKit          3D

 63 66  0  0  0  0  0  0  0  0999 V2000
   60.9860   28.6680   47.9430 O   0  0  0  0  0  0  0  0  0  0  0  0
   60.7470   27.6130   48.5900 C   0  0  0  0  0  0  0  0  0  0  0  0
   60.4640   26.3420   47.8490 C   0  0  0  0  0  0  0  0  0  0  0  0
   59.0860   26.4080   47.2490 C   0  0  0  0  0  0  0  0  0  0  0  0
   58.1290   25.4280   47.5530 C   0  0  0  0  0  0  0  0  0  0  0  0
   56.8260   25.5410   47.0640 C   0  0  0  0  0  0  0  0  0  0  0  0
   56.4600   26.6390   46.2800 C   0  0  0  0  0  0  0  0  0  0  0  0
   55.1510   26.7440   45.8200 O   0  0  0  0  0  0  0  0  0  0  0  0
   57.4090   27.6320   45.9690 C   0  0  0  0  0  0  0  0  0  0  0  0
   57.0170   28.8550   45.1800 C   0  0  0  0  0  0  0  0  0  0  0  0
   58.1880   29.7250   44.9160 N   0  0  0  0  0  0  0  0  0  0  0  0
   58.4610   30.6420   46.0490 C   0  0  0  0  0  0  0  0  0  0  0  0
   57.7660   32.0120   45.8880 C   0  0  0  0  0  0  0  0  0  0  0  0
   56.6320   31.9010   45.0550 O   0  0  0  0  0  0  0  0  0  0  0  0
   57.0350   31.6180   43.7280 C   0  0  0  0  0  0  0  0  0  0  0  0
   58.0790   30.4780   43.6460 C   0  0  0  0  0  0  0  0  0  0  0  0
   58.7200   27.5070   46.4570 C   0  0  0  0  0  0  0  0  0  0  0  0
   60.6890   27.6350   50.0220 N   0  0  0  0  0  0  0  0  0  0  0  0
   60.5780   28.8850   50.7790 C   0  0  1  0  0  0  0  0  0  0  0  0
   61.8770   29.7050   50.5910 C   0  0  0  0  0  0  0  0  0  0  0  0
   61.6730   31.1960   50.8980 C   0  0  0  0  0  0  0  0  0  0  0  0
   60.5250   31.8410   50.0680 C   0  0  1  0  0  0  0  0  0  0  0  0
   61.0440   32.8050   49.0750 N   0  0  0  0  0  0  0  0  0  0  0  0
   62.4840   33.0810   48.9320 C   0  0  0  0  0  0  0  0  0  0  0  0
   62.8930   32.9740   47.4540 C   0  0  0  0  0  0  0  0  0  0  0  0
   61.9960   33.8140   46.5810 C   0  0  0  0  0  0  0  0  0  0  0  0
   60.7070   34.0000   46.8840 C   0  0  0  0  0  0  0  0  0  0  0  0
   60.1560   33.4490   48.1360 C   0  0  0  0  0  0  0  0  0  0  0  0
   58.9210   33.5600   48.3800 O   0  0  0  0  0  0  0  0  0  0  0  0
   59.6060   30.8030   49.3890 C   0  0  0  0  0  0  0  0  0  0  0  0
   59.2990   29.6530   50.3560 C   0  0  0  0  0  0  0  0  0  0  0  0
   61.2068   26.2111   47.0483 H   0  0  0  0  0  0  0  0  0  0  0  0
   60.5210   25.4915   48.5443 H   0  0  0  0  0  0  0  0  0  0  0  0
   58.4064   24.5672   48.1791 H   0  0  0  0  0  0  0  0  0  0  0  0
   56.0843   24.7627   47.2967 H   0  0  0  0  0  0  0  0  0  0  0  0
   56.5827   28.5381   44.2203 H   0  0  0  0  0  0  0  0  0  0  0  0
   56.2852   29.4276   45.7687 H   0  0  0  0  0  0  0  0  0  0  0  0
   58.1019   30.1721   46.9765 H   0  0  0  0  0  0  0  0  0  0  0  0
   59.5459   30.8212   46.0774 H   0  0  0  0  0  0  0  0  0  0  0  0
   57.4530   32.3767   46.8775 H   0  0  0  0  0  0  0  0  0  0  0  0
   58.4749   32.7165   45.4285 H   0  0  0  0  0  0  0  0  0  0  0  0
   56.1483   31.3245   43.1469 H   0  0  0  0  0  0  0  0  0  0  0  0
   57.5060   32.5267   43.3250 H   0  0  0  0  0  0  0  0  0  0  0  0
   57.7821   29.7830   42.8468 H   0  0  0  0  0  0  0  0  0  0  0  0
   59.0589   30.9327   43.4387 H   0  0  0  0  0  0  0  0  0  0  0  0
   59.4669   28.2778   46.2161 H   0  0  0  0  0  0  0  0  0  0  0  0
   60.4940   26.7360   50.5210 H   0  0  0  0  0  0  0  0  0  0  0  0
   60.4714   28.6816   51.8548 H   0  0  0  0  0  0  0  0  0  0  0  0
   62.6480   29.3067   51.2669 H   0  0  0  0  0  0  0  0  0  0  0  0
   62.1822   29.6163   49.5379 H   0  0  0  0  0  0  0  0  0  0  0  0
   61.4351   31.3036   51.9665 H   0  0  0  0  0  0  0  0  0  0  0  0
   62.6039   31.7159   50.6278 H   0  0  0  0  0  0  0  0  0  0  0  0
   59.9053   32.3869   50.7946 H   0  0  0  0  0  0  0  0  0  0  0  0
   62.6989   34.0961   49.2973 H   0  0  0  0  0  0  0  0  0  0  0  0
   63.0537   32.3460   49.5195 H   0  0  0  0  0  0  0  0  0  0  0  0
   63.9308   33.3212   47.3423 H   0  0  0  0  0  0  0  0  0  0  0  0
   62.8013   31.9234   47.1411 H   0  0  0  0  0  0  0  0  0  0  0  0
   62.4102   34.2834   45.6765 H   0  0  0  0  0  0  0  0  0  0  0  0
   60.0572   34.5644   46.1990 H   0  0  0  0  0  0  0  0  0  0  0  0
   58.6649   31.2897   49.0931 H   0  0  0  0  0  0  0  0  0  0  0  0
   60.1156   30.3990   48.5018 H   0  0  0  0  0  0  0  0  0  0  0  0
   58.8198   30.0656   51.2561 H   0  0  0  0  0  0  0  0  0  0  0  0
   58.6359   28.9445   49.8379 H   0  0  0  0  0  0  0  0  0  0  0  0
  1  2  2  0
  2  3  1  0
  3  4  1  0
  4  5  2  0
  5  6  1  0
  6  7  2  0
  7  8  1  0
  7  9  1  0
  9 10  1  0
 10 11  1  0
 11 12  1  0
 12 13  1  0
 13 14  1  0
 14 15  1  0
 15 16  1  0
  9 17  2  0
  2 18  1  0
 18 19  1  0
 19 20  1  0
 20 21  1  0
 21 22  1  0
 22 23  1  0
 23 24  1  0
 24 25  1  0
 25 26  1  0
 26 27  2  0
 27 28  1  0
 28 29  2  0
 22 30  1  0
 30 31  1  0
 17  4  1  0
 31 19  1  0
 16 11  1  0
 28 23  1  0
  3 32  1  0
  3 33  1  0
  5 34  1  0
  6 35  1  0
 10 36  1  0
 10 37  1  0
 12 38  1  0
 12 39  1  0
 13 40  1  0
 13 41  1  0
 15 42  1  0
 15 43  1  0
 16 44  1  0
 16 45  1  0
 17 46  1  0
 18 47  1  0
 19 48  1  1
 20 49  1  0
 20 50  1  0
 21 51  1  0
 21 52  1  0
 22 53  1  1
 24 54  1  0
 24 55  1  0
 25 56  1  0
 25 57  1  0
 26 58  1  0
 27 59  1  0
 30 60  1  0
 30 61  1  0
 31 62  1  0
 31 63  1  0
M  CHG  1   8  -1
M  END
>  <UniqueID>  (45) 
44

>  <SMILES>  (45) 
O=C(Cc1ccc([O-])c(CN2CCOCC2)c1)NC1CCC(N2CCC=CC2=O)CC1

>  <Energy>  (45) 
74.25696089716085

>  <Genealogy>  (45) 
O=C(Cc1ccc([O-])c(CN2CCOCC2)c1)NC1CCC(N2CCC=CC2=O)CC1 (protonated)
O=C(Cc1ccc([O-])c(CN2CCOCC2)c1)NC1CCC(N2CCC=CC2=O)CC1 (3D coordinates assigned)
O=C(Cc1ccc([O-])c(CN2CCOCC2)c1)NC1CCC(N2CCC=CC2=O)CC1 (nonaromatic ring conformer: 74.25696089716085 kcal/mol)

>  <smiles>  (45) 
O=C(Cc1ccc(O)c(CN2CCOCC2)c1)NC1CCC(N2CCC=CC2=O)CC1

>  <score_type>  (45) 
oracle

>  <origin>  (45) 
adg

>  <m_score__min__energy>  (45) 
-12.220000000000001

>  <m_primary>  (45) 
energy

$$$$
45:0
     RDKit          3D

 42 44  0  0  0  0  0  0  0  0999 V2000
   59.7740   27.6680   46.0430 C   0  0  0  0  0  0  0  0  0  0  0  0
   58.5580   28.4210   45.5680 C   0  0  0  0  0  0  0  0  0  0  0  0
   57.3510   27.7810   45.2400 C   0  0  0  0  0  0  0  0  0  0  0  0
   57.1060   26.2950   45.2070 C   0  0  0  0  0  0  0  0  0  0  0  0
   56.0190   25.8890   46.1520 C   0  0  0  0  0  0  0  0  0  0  0  0
   56.2850   25.1710   47.1520 O   0  0  0  0  0  0  0  0  0  0  0  0
   54.7190   26.3400   45.9540 O   0  0  0  0  0  0  0  0  0  0  0  0
   56.2420   28.9570   44.7540 S   0  0  0  0  0  0  0  0  0  0  0  0
   57.3010   30.2220   45.0410 C   0  0  0  0  0  0  0  0  0  0  0  0
   57.0040   31.4340   44.8720 O   0  0  0  0  0  0  0  0  0  0  0  0
   58.5100   29.7910   45.4800 N   0  0  0  0  0  0  0  0  0  0  0  0
   59.6020   30.7030   45.8600 C   0  0  0  0  0  0  0  0  0  0  0  0
   59.4550   31.1350   47.2960 C   0  0  0  0  0  0  0  0  0  0  0  0
   58.9400   32.4050   47.5990 C   0  0  0  0  0  0  0  0  0  0  0  0
   58.7910   32.8070   48.9290 C   0  0  0  0  0  0  0  0  0  0  0  0
   59.1660   31.9500   49.9750 C   0  0  0  0  0  0  0  0  0  0  0  0
   58.9830   32.3680   51.3830 C   0  0  0  0  0  0  0  0  0  0  0  0
   59.7930   33.4060   51.8740 C   0  0  0  0  0  0  0  0  0  0  0  0
   59.6110   33.9020   53.1650 C   0  0  0  0  0  0  0  0  0  0  0  0
   58.6160   33.3700   53.9820 C   0  0  0  0  0  0  0  0  0  0  0  0
   57.8100   32.3290   53.5190 C   0  0  0  0  0  0  0  0  0  0  0  0
   57.9860   31.8020   52.2260 C   0  0  0  0  0  0  0  0  0  0  0  0
   57.1500   30.6440   51.8200 C   0  0  0  0  0  0  0  0  0  0  0  0
   57.6600   29.5060   51.6420 O   0  0  0  0  0  0  0  0  0  0  0  0
   55.7760   30.7920   51.6750 O   0  0  0  0  0  0  0  0  0  0  0  0
   59.6750   30.6780   49.6720 C   0  0  0  0  0  0  0  0  0  0  0  0
   59.8260   30.2750   48.3420 C   0  0  0  0  0  0  0  0  0  0  0  0
   59.7919   27.6569   47.1428 H   0  0  0  0  0  0  0  0  0  0  0  0
   59.7359   26.6352   45.6664 H   0  0  0  0  0  0  0  0  0  0  0  0
   60.6816   28.1623   45.6664 H   0  0  0  0  0  0  0  0  0  0  0  0
   56.8170   26.0045   44.1862 H   0  0  0  0  0  0  0  0  0  0  0  0
   58.0329   25.7891   45.5150 H   0  0  0  0  0  0  0  0  0  0  0  0
   60.5650   30.1864   45.7344 H   0  0  0  0  0  0  0  0  0  0  0  0
   59.5617   31.5934   45.2153 H   0  0  0  0  0  0  0  0  0  0  0  0
   58.6522   33.0872   46.7855 H   0  0  0  0  0  0  0  0  0  0  0  0
   58.3776   33.8005   49.1572 H   0  0  0  0  0  0  0  0  0  0  0  0
   60.5791   33.8321   51.2333 H   0  0  0  0  0  0  0  0  0  0  0  0
   60.2533   34.7134   53.5380 H   0  0  0  0  0  0  0  0  0  0  0  0
   58.4652   33.7715   54.9949 H   0  0  0  0  0  0  0  0  0  0  0  0
   57.0278   31.9155   54.1725 H   0  0  0  0  0  0  0  0  0  0  0  0
   59.9569   29.9938   50.4859 H   0  0  0  0  0  0  0  0  0  0  0  0
   60.2370   29.2804   48.1141 H   0  0  0  0  0  0  0  0  0  0  0  0
  1  2  1  0
  2  3  2  0
  3  4  1  0
  4  5  1  0
  5  6  2  0
  5  7  1  0
  3  8  1  0
  8  9  1  0
  9 10  2  0
  9 11  1  0
 11 12  1  0
 12 13  1  0
 13 14  2  0
 14 15  1  0
 15 16  2  0
 16 17  1  0
 17 18  2  0
 18 19  1  0
 19 20  2  0
 20 21  1  0
 21 22  2  0
 22 23  1  0
 23 24  2  0
 23 25  1  0
 16 26  1  0
 26 27  2  0
 11  2  1  0
 27 13  1  0
 22 17  1  0
  1 28  1  0
  1 29  1  0
  1 30  1  0
  4 31  1  0
  4 32  1  0
 12 33  1  0
 12 34  1  0
 14 35  1  0
 15 36  1  0
 18 37  1  0
 19 38  1  0
 20 39  1  0
 21 40  1  0
 26 41  1  0
 27 42  1  0
M  CHG  2   7  -1  25  -1
M  END
>  <UniqueID>  (46) 
45

>  <SMILES>  (46) 
Cc1c(CC(=O)[O-])sc(=O)n1Cc1ccc(-c2ccccc2C(=O)[O-])cc1

>  <Energy>  (46) 
85.61351226058298

>  <Genealogy>  (46) 
Cc1c(CC(=O)[O-])sc(=O)n1Cc1ccc(-c2ccccc2C(=O)[O-])cc1 (protonated)
Cc1c(CC(=O)[O-])sc(=O)n1Cc1ccc(-c2ccccc2C(=O)[O-])cc1 (3D coordinates assigned)
Cc1c(CC(=O)[O-])sc(=O)n1Cc1ccc(-c2ccccc2C(=O)[O-])cc1 (optimized conformer: 85.61351226058298 kcal/mol)

>  <smiles>  (46) 
Cc1c(CC(=O)O)sc(=O)n1Cc1ccc(-c2ccccc2C(=O)O)cc1

>  <score_type>  (46) 
oracle

>  <origin>  (46) 
adg

>  <m_score__min__energy>  (46) 
-12.800000000000001

>  <m_primary>  (46) 
energy

$$$$
46:0
     RDKit          3D

 48 50  0  0  0  0  0  0  0  0999 V2000
   56.8040   28.6180   45.2280 C   0  0  0  0  0  0  0  0  0  0  0  0
   57.7070   27.7970   45.7870 C   0  0  0  0  0  0  0  0  0  0  0  0
   57.8490   26.4150   45.5750 C   0  0  0  0  0  0  0  0  0  0  0  0
   57.2730   25.5920   44.6760 C   0  0  0  0  0  0  0  0  0  0  0  0
   56.0340   24.8190   44.8900 C   0  0  0  0  0  0  0  0  0  0  0  0
   54.9510   25.3930   45.5710 C   0  0  0  0  0  0  0  0  0  0  0  0
   55.0090   26.7110   46.0080 O   0  0  0  0  0  0  0  0  0  0  0  0
   53.8290   24.6620   45.8010 N   0  0  0  0  0  0  0  0  0  0  0  0
   53.7400   23.3690   45.3970 C   0  0  0  0  0  0  0  0  0  0  0  0
   52.6900   22.7130   45.6160 O   0  0  0  0  0  0  0  0  0  0  0  0
   54.7850   22.7820   44.7590 N   0  0  0  0  0  0  0  0  0  0  0  0
   55.9290   23.4690   44.5070 C   0  0  0  0  0  0  0  0  0  0  0  0
   56.8870   22.8860   43.9330 O   0  0  0  0  0  0  0  0  0  0  0  0
   58.7720   25.9730   46.5090 C   0  0  0  0  0  0  0  0  0  0  0  0
   59.2010   27.0830   47.2050 C   0  0  0  0  0  0  0  0  0  0  0  0
   60.2230   27.0560   48.3020 C   0  0  0  0  0  0  0  0  0  0  0  0
   58.5570   28.1880   46.7710 N   0  0  0  0  0  0  0  0  0  0  0  0
   58.7480   29.5210   47.2780 C   0  0  0  0  0  0  0  0  0  0  0  0
   58.9720   29.7330   48.6420 C   0  0  0  0  0  0  0  0  0  0  0  0
   59.1640   31.0260   49.1300 C   0  0  0  0  0  0  0  0  0  0  0  0
   59.1400   32.1350   48.2640 C   0  0  0  0  0  0  0  0  0  0  0  0
   59.4210   33.4860   48.8110 C   0  0  0  0  0  0  0  0  0  0  0  0
   59.6570   33.7000   50.2750 C   0  0  0  0  0  0  0  0  0  0  0  0
   59.5310   34.4700   48.0310 O   0  0  0  0  0  0  0  0  0  0  0  0
   58.9020   31.9250   46.8820 C   0  0  0  0  0  0  0  0  0  0  0  0
   58.7810   33.0350   45.9770 N   0  0  0  0  0  0  0  0  0  0  0  0
   57.5220   33.1460   44.7900 S   0  0  0  0  0  0  0  0  0  0  0  0
   58.1540   32.7160   43.1820 C   0  0  0  0  0  0  0  0  0  0  0  0
   57.0200   34.5620   44.7410 O   0  0  0  0  0  0  0  0  0  0  0  0
   56.3860   32.2340   45.1610 O   0  0  0  0  0  0  0  0  0  0  0  0
   58.7090   30.6160   46.4060 C   0  0  0  0  0  0  0  0  0  0  0  0
   56.8019   29.6882   45.4824 H   0  0  0  0  0  0  0  0  0  0  0  0
   56.0661   28.2206   44.5155 H   0  0  0  0  0  0  0  0  0  0  0  0
   57.7687   25.4876   43.6996 H   0  0  0  0  0  0  0  0  0  0  0  0
   59.0999   24.9347   46.6653 H   0  0  0  0  0  0  0  0  0  0  0  0
   59.7145   27.0694   49.2773 H   0  0  0  0  0  0  0  0  0  0  0  0
   60.8284   26.1415   48.2167 H   0  0  0  0  0  0  0  0  0  0  0  0
   60.8758   27.9372   48.2167 H   0  0  0  0  0  0  0  0  0  0  0  0
   58.9969   28.8773   49.3327 H   0  0  0  0  0  0  0  0  0  0  0  0
   59.3363   31.1805   50.2054 H   0  0  0  0  0  0  0  0  0  0  0  0
   58.9641   33.0717   50.8538 H   0  0  0  0  0  0  0  0  0  0  0  0
   60.6934   33.4274   50.5230 H   0  0  0  0  0  0  0  0  0  0  0  0
   59.4868   34.7581   50.5230 H   0  0  0  0  0  0  0  0  0  0  0  0
   59.5140   33.7790   45.9690 H   0  0  0  0  0  0  0  0  0  0  0  0
   59.0586   32.1006   43.2961 H   0  0  0  0  0  0  0  0  0  0  0  0
   57.3917   32.1483   42.6282 H   0  0  0  0  0  0  0  0  0  0  0  0
   58.4022   33.6335   42.6282 H   0  0  0  0  0  0  0  0  0  0  0  0
   58.5249   30.4499   45.3343 H   0  0  0  0  0  0  0  0  0  0  0  0
  1  2  2  0
  2  3  1  0
  3  4  2  3
  4  5  1  0
  5  6  2  0
  6  7  1  0
  6  8  1  0
  8  9  1  0
  9 10  2  0
  9 11  1  0
 11 12  1  0
 12 13  2  0
  3 14  1  0
 14 15  2  0
 15 16  1  0
 15 17  1  0
 17 18  1  0
 18 19  2  0
 19 20  1  0
 20 21  2  0
 21 22  1  0
 22 23  1  0
 22 24  2  0
 21 25  1  0
 25 26  1  0
 26 27  1  0
 27 28  1  0
 27 29  2  0
 27 30  2  0
 25 31  2  0
 17  2  1  0
 31 18  1  0
 12  5  1  0
  1 32  1  0
  1 33  1  0
  4 34  1  0
 14 35  1  0
 16 36  1  0
 16 37  1  0
 16 38  1  0
 19 39  1  0
 20 40  1  0
 23 41  1  0
 23 42  1  0
 23 43  1  0
 26 44  1  0
 28 45  1  0
 28 46  1  0
 28 47  1  0
 31 48  1  0
M  CHG  3   7  -1   8  -1  11  -1
M  END
>  <UniqueID>  (47) 
46

>  <SMILES>  (47) 
C=c1c(=Cc2c([O-])[n-]c(=O)[n-]c2=O)cc(C)n1-c1ccc(C(C)=O)c(NS(C)(=O)=O)c1

>  <Energy>  (47) 
102.23220335111003

>  <Genealogy>  (47) 
C=c1c(=Cc2c([O-])[n-]c(=O)[n-]c2=O)cc(C)n1-c1ccc(C(C)=O)c(NS(C)(=O)=O)c1 (protonated)
C=c1c(=Cc2c([O-])[n-]c(=O)[n-]c2=O)cc(C)n1-c1ccc(C(C)=O)c(NS(C)(=O)=O)c1 (3D coordinates assigned)
C=c1c(=Cc2c([O-])[n-]c(=O)[n-]c2=O)cc(C)n1-c1ccc(C(C)=O)c(NS(C)(=O)=O)c1 (optimized conformer: 102.23220335111003 kcal/mol)

>  <smiles>  (47) 
C=c1c(=Cc2c(O)[nH]c(=O)[nH]c2=O)cc(C)n1-c1ccc(C(C)=O)c(NS(C)(=O)=O)c1

>  <score_type>  (47) 
oracle

>  <origin>  (47) 
adg

>  <m_score__min__energy>  (47) 
-16.25

>  <m_primary>  (47) 
energy

$$$$
47:0
     RDKit          3D

 67 70  0  0  0  0  0  0  0  0999 V2000
   56.9201   31.2009   51.5347 H   0  0  0  0  0  0  0  0  0  0  0  0
   55.8290   31.2170   51.6730 C   0  0  0  0  0  0  0  0  0  0  0  0
   55.2265   32.0074   51.2016 H   0  0  0  0  0  0  0  0  0  0  0  0
   55.2320   30.2710   52.4180 C   0  0  0  0  0  0  0  0  0  0  0  0
   53.8560   30.1650   52.6810 C   0  0  0  0  0  0  0  0  0  0  0  0
   52.8510   31.0430   52.4950 C   0  0  0  0  0  0  0  0  0  0  0  0
   52.6245   31.7327   53.3215 H   0  0  0  0  0  0  0  0  0  0  0  0
   52.0310   31.1560   51.2780 C   0  0  0  0  0  0  0  0  0  0  0  0
   52.0630   30.2860   50.2510 N   0  0  0  0  0  0  0  0  0  0  0  0
   51.2700   30.8670   49.3260 C   0  0  0  0  0  0  0  0  0  0  0  0
   51.0350   30.3390   48.2090 O   0  0  0  0  0  0  0  0  0  0  0  0
   50.7580   32.0630   49.6880 N   0  0  0  0  0  0  0  0  0  0  0  0
   51.2600   32.2370   50.9210 C   0  0  0  0  0  0  0  0  0  0  0  0
   51.0220   33.3600   51.7020 O   0  0  0  0  0  0  0  0  0  0  0  0
   53.6640   28.9170   53.2470 C   0  0  0  0  0  0  0  0  0  0  0  0
   52.7015   28.4689   53.5348 H   0  0  0  0  0  0  0  0  0  0  0  0
   54.9100   28.3430   53.3810 C   0  0  0  0  0  0  0  0  0  0  0  0
   55.1620   27.0120   54.0240 C   0  0  0  0  0  0  0  0  0  0  0  0
   55.1409   27.1235   55.1181 H   0  0  0  0  0  0  0  0  0  0  0  0
   54.3825   26.3010   53.7128 H   0  0  0  0  0  0  0  0  0  0  0  0
   56.1475   26.6351   53.7128 H   0  0  0  0  0  0  0  0  0  0  0  0
   55.8690   29.1660   52.8950 N   0  0  0  0  0  0  0  0  0  0  0  0
   57.3100   28.8600   52.8710 C   0  0  0  0  0  0  0  0  0  0  0  0
   57.4863   27.9274   53.4270 H   0  0  0  0  0  0  0  0  0  0  0  0
   57.6225   28.7564   51.8214 H   0  0  0  0  0  0  0  0  0  0  0  0
   58.1280   29.9730   53.5030 C   0  0  0  0  0  0  0  0  0  0  0  0
   57.7830   30.4050   54.8000 C   0  0  0  0  0  0  0  0  0  0  0  0
   56.9133   29.9597   55.3053 H   0  0  0  0  0  0  0  0  0  0  0  0
   58.5260   31.3870   55.4520 C   0  0  0  0  0  0  0  0  0  0  0  0
   58.2266   31.7277   56.4541 H   0  0  0  0  0  0  0  0  0  0  0  0
   59.6460   31.9370   54.8370 C   0  0  0  0  0  0  0  0  0  0  0  0
   60.2317   32.7115   55.3538 H   0  0  0  0  0  0  0  0  0  0  0  0
   60.0270   31.5080   53.5670 C   0  0  0  0  0  0  0  0  0  0  0  0
   60.9254   31.9348   53.0972 H   0  0  0  0  0  0  0  0  0  0  0  0
   59.2780   30.5360   52.8770 C   0  0  0  0  0  0  0  0  0  0  0  0
   59.8430   30.0260   51.2730 S   0  0  0  0  0  0  0  0  0  0  0  0
   61.0300   30.8650   50.8890 O   0  0  0  0  0  0  0  0  0  0  0  0
   60.2430   28.5760   51.2960 O   0  0  0  0  0  0  0  0  0  0  0  0
   58.5960   30.2480   50.0770 N   0  0  0  0  0  0  0  0  0  0  0  0
   57.7170   29.8420   50.4750 H   0  0  0  0  0  0  0  0  0  0  0  0
   58.3720   31.6790   49.8560 C   0  0  0  0  0  0  0  0  0  0  0  0
   57.2931   31.8675   49.7538 H   0  0  0  0  0  0  0  0  0  0  0  0
   58.7693   32.2436   50.7123 H   0  0  0  0  0  0  0  0  0  0  0  0
   59.0900   32.1300   48.5780 C   0  0  0  0  0  0  0  0  0  0  0  0
   58.4205   32.7903   48.0072 H   0  0  0  0  0  0  0  0  0  0  0  0
   60.0099   32.6579   48.8698 H   0  0  0  0  0  0  0  0  0  0  0  0
   59.4830   30.9360   47.6950 C   0  0  0  0  0  0  0  0  0  0  0  0
   60.4384   31.1561   47.1962 H   0  0  0  0  0  0  0  0  0  0  0  0
   59.5784   30.0444   48.3321 H   0  0  0  0  0  0  0  0  0  0  0  0
   58.4500   30.6750   46.6690 N   0  0  0  0  0  0  0  0  0  0  0  0
   58.3580   31.8000   45.7170 C   0  0  0  0  0  0  0  0  0  0  0  0
   58.0196   32.6975   46.2554 H   0  0  0  0  0  0  0  0  0  0  0  0
   59.3523   31.9612   45.2750 H   0  0  0  0  0  0  0  0  0  0  0  0
   57.3640   31.4940   44.5770 C   0  0  0  0  0  0  0  0  0  0  0  0
   56.6488   32.3251   44.4885 H   0  0  0  0  0  0  0  0  0  0  0  0
   57.9266   31.3738   43.6394 H   0  0  0  0  0  0  0  0  0  0  0  0
   56.6260   30.2470   44.8510 N   0  0  0  0  0  0  0  0  0  0  0  0
   55.6360   29.9950   43.7950 C   0  0  0  0  0  0  0  0  0  0  0  0
   54.6666   29.7482   44.2525 H   0  0  0  0  0  0  0  0  0  0  0  0
   55.5286   30.8944   43.1709 H   0  0  0  0  0  0  0  0  0  0  0  0
   55.9717   29.1537   43.1709 H   0  0  0  0  0  0  0  0  0  0  0  0
   57.5620   29.1100   44.9580 C   0  0  0  0  0  0  0  0  0  0  0  0
   57.0127   28.2267   45.3158 H   0  0  0  0  0  0  0  0  0  0  0  0
   57.9957   28.9239   43.9644 H   0  0  0  0  0  0  0  0  0  0  0  0
   58.7120   29.4180   45.9400 C   0  0  0  0  0  0  0  0  0  0  0  0
   58.8014   28.5931   46.6622 H   0  0  0  0  0  0  0  0  0  0  0  0
   59.6461   29.5270   45.3694 H   0  0  0  0  0  0  0  0  0  0  0  0
  1  2  1  0
  2  3  1  0
  2  4  2  0
  4  5  1  0
  5  6  2  0
  6  7  1  0
  6  8  1  0
  8  9  1  0
  9 10  1  0
 10 11  2  0
 10 12  1  0
 12 13  1  0
 13 14  1  0
  5 15  1  0
 15 16  1  0
 15 17  2  0
 17 18  1  0
 18 19  1  0
 18 20  1  0
 18 21  1  0
 17 22  1  0
 22 23  1  0
 23 24  1  0
 23 25  1  0
 23 26  1  0
 26 27  2  0
 27 28  1  0
 27 29  1  0
 29 30  1  0
 29 31  2  0
 31 32  1  0
 31 33  1  0
 33 34  1  0
 33 35  2  0
 35 36  1  0
 36 37  2  0
 36 38  2  0
 36 39  1  0
 39 40  1  0
 39 41  1  0
 41 42  1  0
 41 43  1  0
 41 44  1  0
 44 45  1  0
 44 46  1  0
 44 47  1  0
 47 48  1  0
 47 49  1  0
 47 50  1  0
 50 51  1  0
 51 52  1  0
 51 53  1  0
 51 54  1  0
 54 55  1  0
 54 56  1  0
 54 57  1  0
 57 58  1  0
 58 59  1  0
 58 60  1  0
 58 61  1  0
 57 62  1  0
 62 63  1  0
 62 64  1  0
 62 65  1  0
 65 66  1  0
 65 67  1  0
 22  4  1  0
 35 26  1  0
 65 50  1  0
 13  8  2  0
M  CHG  3   9  -1  12  -1  14  -1
M  END
>  <UniqueID>  (48) 
47

>  <SMILES>  (48) 
C=c1/c(=C\c2[n-]c(=O)[n-]c2[O-])cc(C)n1Cc1ccccc1S(=O)(=O)NCCCN1CCN(C)CC1

>  <Energy>  (48) 
144.23564459108417

>  <Genealogy>  (48) 
C=c1c(=Cc2[n-]c(=O)[n-]c2[O-])cc(C)n1Cc1ccccc1S(=O)(=O)NCCCN1CCN(C)CC1 (protonated)
C=c1/c(=C\c2[n-]c(=O)[n-]c2[O-])cc(C)n1Cc1ccccc1S(=O)(=O)NCCCN1CCN(C)CC1 (cis-trans isomerization)
C=c1/c(=C\c2[n-]c(=O)[n-]c2[O-])cc(C)n1Cc1ccccc1S(=O)(=O)NCCCN1CCN(C)CC1 (3D coordinates assigned)
C=c1/c(=C\c2[n-]c(=O)[n-]c2[O-])cc(C)n1Cc1ccccc1S(=O)(=O)NCCCN1CCN(C)CC1 (nonaromatic ring conformer: 144.23564459108417 kcal/mol)

>  <smiles>  (48) 
C=c1c(=Cc2[nH]c(=O)[nH]c2O)cc(C)n1Cc1ccccc1S(=O)(=O)NCCCN1CCN(C)CC1

>  <score_type>  (48) 
oracle

>  <origin>  (48) 
adg

>  <m_score__min__energy>  (48) 
-17.579999999999998

>  <m_primary>  (48) 
energy

$$$$
48:0
     RDKit          3D

 39 41  0  0  0  0  0  0  0  0999 V2000
   55.3980   27.8340   44.8040 H   0  0  0  0  0  0  0  0  0  0  0  0
   55.5330   28.7750   45.2370 N   0  0  0  0  0  0  0  0  0  0  0  0
   56.5560   29.5150   44.9460 C   0  0  0  0  0  0  0  0  0  0  0  0
   56.3610   30.7930   44.5150 N   0  0  0  0  0  0  0  0  0  0  0  0
   57.3980   31.6150   44.2070 C   0  0  0  0  0  0  0  0  0  0  0  0
   57.2016   32.6405   43.8608 H   0  0  0  0  0  0  0  0  0  0  0  0
   58.7110   31.1610   44.3290 C   0  0  0  0  0  0  0  0  0  0  0  0
   59.5534   31.8237   44.0818 H   0  0  0  0  0  0  0  0  0  0  0  0
   58.9450   29.8570   44.7680 C   0  0  0  0  0  0  0  0  0  0  0  0
   59.9767   29.4878   44.8644 H   0  0  0  0  0  0  0  0  0  0  0  0
   57.8680   29.0150   45.0870 C   0  0  0  0  0  0  0  0  0  0  0  0
   58.1290   27.6260   45.5300 C   0  0  0  0  0  0  0  0  0  0  0  0
   57.3980   26.5730   44.9610 C   0  0  0  0  0  0  0  0  0  0  0  0
   56.6321   26.7832   44.1999 H   0  0  0  0  0  0  0  0  0  0  0  0
   57.6440   25.2510   45.3630 C   0  0  0  0  0  0  0  0  0  0  0  0
   56.8930   24.1540   44.8120 N   0  0  0  0  0  0  0  0  0  0  0  0
   56.9840   23.8780   43.3710 C   0  0  0  0  0  0  0  0  0  0  0  0
   56.4591   24.6731   42.8211 H   0  0  0  0  0  0  0  0  0  0  0  0
   58.0477   23.8454   43.0927 H   0  0  0  0  0  0  0  0  0  0  0  0
   56.3510   22.5230   43.0150 C   0  0  0  0  0  0  0  0  0  0  0  0
   55.2577   22.6387   42.9792 H   0  0  0  0  0  0  0  0  0  0  0  0
   56.7460   22.2059   42.0386 H   0  0  0  0  0  0  0  0  0  0  0  0
   56.7060   21.4350   44.0550 C   0  0  0  0  0  0  0  0  0  0  0  0
   56.1030   20.5481   43.8105 H   0  0  0  0  0  0  0  0  0  0  0  0
   58.1290   21.0740   43.9700 N   0  0  0  0  0  0  0  0  0  0  0  0
   58.4580   20.6410   44.8640 H   0  0  0  0  0  0  0  0  0  0  0  0
   58.7050   21.9220   43.7650 H   0  0  0  0  0  0  0  0  0  0  0  0
   58.2710   20.3900   43.1910 H   0  0  0  0  0  0  0  0  0  0  0  0
   56.3290   21.8580   45.5060 C   0  0  0  0  0  0  0  0  0  0  0  0
   55.4556   21.2699   45.8243 H   0  0  0  0  0  0  0  0  0  0  0  0
   57.2105   21.6709   46.1369 H   0  0  0  0  0  0  0  0  0  0  0  0
   55.9860   23.3490   45.6400 C   0  0  0  0  0  0  0  0  0  0  0  0
   54.9497   23.5146   45.3103 H   0  0  0  0  0  0  0  0  0  0  0  0
   56.0978   23.6501   46.6921 H   0  0  0  0  0  0  0  0  0  0  0  0
   58.5750   25.0110   46.3270 N   0  0  0  0  0  0  0  0  0  0  0  0
   59.2990   26.0090   46.8990 C   0  0  0  0  0  0  0  0  0  0  0  0
   60.0477   25.7708   47.6689 H   0  0  0  0  0  0  0  0  0  0  0  0
   59.0960   27.3360   46.5130 C   0  0  0  0  0  0  0  0  0  0  0  0
   60.0190   28.6020   47.3150 Cl  0  0  0  0  0  0  0  0  0  0  0  0
  1  2  1  0
  2  3  2  0
  3  4  1  0
  4  5  1  0
  5  6  1  0
  5  7  2  0
  7  8  1  0
  7  9  1  0
  9 10  1  0
  9 11  2  0
 11 12  1  0
 12 13  2  0
 13 14  1  0
 13 15  1  0
 15 16  1  0
 16 17  1  0
 17 18  1  0
 17 19  1  0
 17 20  1  0
 20 21  1  0
 20 22  1  0
 20 23  1  0
 23 24  1  0
 23 25  1  0
 25 26  1  0
 25 27  1  0
 25 28  1  0
 23 29  1  0
 29 30  1  0
 29 31  1  0
 29 32  1  0
 32 33  1  0
 32 34  1  0
 15 35  2  0
 35 36  1  0
 36 37  1  0
 36 38  2  0
 38 39  1  0
 11  3  1  0
 38 12  1  0
 32 16  1  0
M  CHG  2   4  -1  25   1
M  END
>  <UniqueID>  (49) 
48

>  <SMILES>  (49) 
[H]/N=c1\[n-]cccc1-c1cc(N2CCC([NH3+])CC2)ncc1Cl

>  <Energy>  (49) 
55.75448084268631

>  <Genealogy>  (49) 
N=c1[n-]cccc1-c1cc(N2CCC([NH3+])CC2)ncc1Cl (protonated)
[H]/N=c1\[n-]cccc1-c1cc(N2CCC([NH3+])CC2)ncc1Cl (cis-trans isomerization)
[H]/N=c1\[n-]cccc1-c1cc(N2CCC([NH3+])CC2)ncc1Cl (3D coordinates assigned)
[H]/N=c1\[n-]cccc1-c1cc(N2CCC([NH3+])CC2)ncc1Cl (nonaromatic ring conformer: 55.75448084268631 kcal/mol)

>  <smiles>  (49) 
N=c1[nH]cccc1-c1cc(N2CCC(N)CC2)ncc1Cl

>  <score_type>  (49) 
oracle

>  <origin>  (49) 
adg

>  <m_score__min__energy>  (49) 
-8.3699999999999992

>  <m_primary>  (49) 
energy

$$$$
49:0
     RDKit          3D

 50 52  0  0  0  0  0  0  0  0999 V2000
   56.7010   22.3800   44.0280 C   0  0  0  0  0  0  0  0  0  0  0  0
   56.5290   23.6730   44.7510 C   0  0  0  0  0  0  0  0  0  0  0  0
   55.3170   24.2840   45.0480 C   0  0  0  0  0  0  0  0  0  0  0  0
   55.4740   25.5370   45.6480 C   0  0  0  0  0  0  0  0  0  0  0  0
   54.3950   26.3420   45.9900 O   0  0  0  0  0  0  0  0  0  0  0  0
   56.8020   25.9150   45.8300 C   0  0  0  0  0  0  0  0  0  0  0  0
   57.2930   27.1760   46.4090 C   0  0  0  0  0  0  0  0  0  0  0  0
   57.7260   27.1740   47.5910 O   0  0  0  0  0  0  0  0  0  0  0  0
   57.2760   28.4100   45.6810 N   0  0  0  0  0  0  0  0  0  0  0  0
   58.2200   28.7290   44.2610 S   0  0  0  0  0  0  0  0  0  0  0  0
   57.7010   27.9160   43.1080 O   0  0  0  0  0  0  0  0  0  0  0  0
   59.6570   28.3750   44.5170 O   0  0  0  0  0  0  0  0  0  0  0  0
   58.0950   30.4610   43.8450 C   0  0  0  0  0  0  0  0  0  0  0  0
   56.9790   31.0790   44.6230 C   0  0  0  0  0  0  0  0  0  0  0  0
   55.8120   30.6100   44.5420 O   0  0  0  0  0  0  0  0  0  0  0  0
   57.2650   32.1540   45.5210 N   0  0  0  0  0  0  0  0  0  0  0  0
   58.5690   32.4680   46.0290 C   0  0  0  0  0  0  0  0  0  0  0  0
   59.3710   31.5030   46.6650 C   0  0  0  0  0  0  0  0  0  0  0  0
   60.6890   31.8020   47.0160 C   0  0  0  0  0  0  0  0  0  0  0  0
   61.2310   33.0580   46.7160 C   0  0  0  0  0  0  0  0  0  0  0  0
   62.9340   33.3820   47.0300 S   0  0  0  0  0  0  0  0  0  0  0  0
   63.4240   34.4090   46.0460 O   0  0  0  0  0  0  0  0  0  0  0  0
   63.7280   32.1230   46.8120 O   0  0  0  0  0  0  0  0  0  0  0  0
   63.2090   33.9600   48.6610 N   0  0  0  0  0  0  0  0  0  0  0  0
   61.9550   34.2750   49.3810 C   0  0  0  0  0  0  0  0  0  0  0  0
   61.5710   33.2020   50.4130 C   0  0  0  0  0  0  0  0  0  0  0  0
   62.0110   31.9340   49.9910 O   0  0  0  0  0  0  0  0  0  0  0  0
   63.4210   31.8700   50.0620 C   0  0  0  0  0  0  0  0  0  0  0  0
   64.1270   33.0910   49.4230 C   0  0  0  0  0  0  0  0  0  0  0  0
   60.4230   34.0330   46.1150 C   0  0  0  0  0  0  0  0  0  0  0  0
   59.1000   33.7380   45.7740 C   0  0  0  0  0  0  0  0  0  0  0  0
   57.7840   24.7030   45.1990 S   0  0  0  0  0  0  0  0  0  0  0  0
   56.8096   21.5637   44.7573 H   0  0  0  0  0  0  0  0  0  0  0  0
   55.8198   22.1929   43.3967 H   0  0  0  0  0  0  0  0  0  0  0  0
   57.6004   22.4297   43.3967 H   0  0  0  0  0  0  0  0  0  0  0  0
   54.3381   23.8302   44.8339 H   0  0  0  0  0  0  0  0  0  0  0  0
   59.0396   30.9671   44.0931 H   0  0  0  0  0  0  0  0  0  0  0  0
   57.8951   30.5668   42.7685 H   0  0  0  0  0  0  0  0  0  0  0  0
   58.9578   30.5080   46.8869 H   0  0  0  0  0  0  0  0  0  0  0  0
   61.3037   31.0484   47.5299 H   0  0  0  0  0  0  0  0  0  0  0  0
   62.0820   35.2347   49.9034 H   0  0  0  0  0  0  0  0  0  0  0  0
   61.1482   34.3184   48.6346 H   0  0  0  0  0  0  0  0  0  0  0  0
   62.0384   33.4446   51.3788 H   0  0  0  0  0  0  0  0  0  0  0  0
   60.4760   33.1829   50.5164 H   0  0  0  0  0  0  0  0  0  0  0  0
   63.7142   31.8128   51.1207 H   0  0  0  0  0  0  0  0  0  0  0  0
   63.7338   30.9813   49.4942 H   0  0  0  0  0  0  0  0  0  0  0  0
   64.5883   33.6870   50.2242 H   0  0  0  0  0  0  0  0  0  0  0  0
   64.8737   32.7032   48.7145 H   0  0  0  0  0  0  0  0  0  0  0  0
   60.8315   35.0338   45.9110 H   0  0  0  0  0  0  0  0  0  0  0  0
   58.4722   34.5084   45.3024 H   0  0  0  0  0  0  0  0  0  0  0  0
  1  2  1  0
  2  3  2  0
  3  4  1  0
  4  5  1  0
  4  6  2  0
  6  7  1  0
  7  8  2  0
  7  9  1  0
  9 10  1  0
 10 11  2  0
 10 12  2  0
 10 13  1  0
 13 14  1  0
 14 15  2  0
 14 16  1  0
 16 17  1  0
 17 18  2  0
 18 19  1  0
 19 20  2  0
 20 21  1  0
 21 22  2  0
 21 23  2  0
 21 24  1  0
 24 25  1  0
 25 26  1  0
 26 27  1  0
 27 28  1  0
 28 29  1  0
 20 30  1  0
 30 31  2  0
  6 32  1  0
 32  2  1  0
 31 17  1  0
 29 24  1  0
  1 33  1  0
  1 34  1  0
  1 35  1  0
  3 36  1  0
 13 37  1  0
 13 38  1  0
 18 39  1  0
 19 40  1  0
 25 41  1  0
 25 42  1  0
 26 43  1  0
 26 44  1  0
 28 45  1  0
 28 46  1  0
 29 47  1  0
 29 48  1  0
 30 49  1  0
 31 50  1  0
M  CHG  3   5  -1   9  -1  16  -1
M  END
>  <UniqueID>  (50) 
49

>  <SMILES>  (50) 
Cc1cc([O-])c(C(=O)[N-]S(=O)(=O)CC(=O)[N-]c2ccc(S(=O)(=O)N3CCOCC3)cc2)s1

>  <Energy>  (50) 
92.75004532182295

>  <Genealogy>  (50) 
Cc1cc([O-])c(C(=O)[N-]S(=O)(=O)CC(=O)[N-]c2ccc(S(=O)(=O)N3CCOCC3)cc2)s1 (protonated)
Cc1cc([O-])c(C(=O)[N-]S(=O)(=O)CC(=O)[N-]c2ccc(S(=O)(=O)N3CCOCC3)cc2)s1 (3D coordinates assigned)
Cc1cc([O-])c(C(=O)[N-]S(=O)(=O)CC(=O)[N-]c2ccc(S(=O)(=O)N3CCOCC3)cc2)s1 (nonaromatic ring conformer: 92.75004532182295 kcal/mol)

>  <smiles>  (50) 
Cc1cc(O)c(C(=O)NS(=O)(=O)CC(=O)Nc2ccc(S(=O)(=O)N3CCOCC3)cc2)s1

>  <score_type>  (50) 
oracle

>  <origin>  (50) 
adg

>  <m_score__min__energy>  (50) 
-16.789999999999999

>  <m_primary>  (50) 
energy

$$$$
50:0
     RDKit          3D

 41 43  0  0  0  0  0  0  0  0999 V2000
   58.0929   28.4892   44.3335 H   0  0  0  0  0  0  0  0  0  0  0  0
   58.3290   27.8750   45.2150 C   0  0  0  0  0  0  0  0  0  0  0  0
   59.4360   28.1280   45.8530 N   0  0  0  0  0  0  0  0  0  0  0  0
   59.6340   28.2460   47.2740 C   0  0  0  0  0  0  0  0  0  0  0  0
   60.3080   27.2280   47.9750 C   0  0  0  0  0  0  0  0  0  0  0  0
   60.6175   26.3145   47.4462 H   0  0  0  0  0  0  0  0  0  0  0  0
   60.5860   27.3680   49.3320 C   0  0  0  0  0  0  0  0  0  0  0  0
   61.0878   26.5587   49.8827 H   0  0  0  0  0  0  0  0  0  0  0  0
   60.2230   28.5410   49.9840 C   0  0  0  0  0  0  0  0  0  0  0  0
   60.4379   28.6639   51.0558 H   0  0  0  0  0  0  0  0  0  0  0  0
   59.6030   29.5350   49.2970 N   0  0  0  0  0  0  0  0  0  0  0  0
   59.2930   29.4380   47.9750 C   0  0  0  0  0  0  0  0  0  0  0  0
   58.7010   30.4640   47.4230 N   0  0  0  0  0  0  0  0  0  0  0  0
   59.2790   31.7210   47.0500 C   0  0  0  0  0  0  0  0  0  0  0  0
   60.5600   32.0570   47.4990 C   0  0  0  0  0  0  0  0  0  0  0  0
   61.1212   31.3535   48.1316 H   0  0  0  0  0  0  0  0  0  0  0  0
   61.1340   33.2930   47.1440 C   0  0  0  0  0  0  0  0  0  0  0  0
   62.4220   33.6680   47.5540 O   0  0  0  0  0  0  0  0  0  0  0  0
   63.5820   32.8560   47.4050 C   0  0  0  0  0  0  0  0  0  0  0  0
   63.9696   32.5846   48.3980 H   0  0  0  0  0  0  0  0  0  0  0  0
   63.3212   31.9422   46.8509 H   0  0  0  0  0  0  0  0  0  0  0  0
   64.3513   33.4138   46.8509 H   0  0  0  0  0  0  0  0  0  0  0  0
   60.4030   34.1860   46.3500 C   0  0  0  0  0  0  0  0  0  0  0  0
   60.8492   35.1493   46.0619 H   0  0  0  0  0  0  0  0  0  0  0  0
   59.1030   33.8630   45.9170 C   0  0  0  0  0  0  0  0  0  0  0  0
   58.3350   34.7320   45.1270 O   0  0  0  0  0  0  0  0  0  0  0  0
   56.9430   34.5720   44.8750 C   0  0  0  0  0  0  0  0  0  0  0  0
   56.4021   34.5098   45.8308 H   0  0  0  0  0  0  0  0  0  0  0  0
   56.5731   35.4335   44.2997 H   0  0  0  0  0  0  0  0  0  0  0  0
   56.7782   33.6490   44.2997 H   0  0  0  0  0  0  0  0  0  0  0  0
   58.5450   32.6350   46.2840 C   0  0  0  0  0  0  0  0  0  0  0  0
   57.5213   32.3847   45.9686 H   0  0  0  0  0  0  0  0  0  0  0  0
   57.3660   26.8150   45.5970 C   0  0  0  0  0  0  0  0  0  0  0  0
   55.9910   27.0950   45.6150 C   0  0  0  0  0  0  0  0  0  0  0  0
   55.5200   28.3490   45.2470 O   0  0  0  0  0  0  0  0  0  0  0  0
   55.1060   26.1310   45.9810 N   0  0  0  0  0  0  0  0  0  0  0  0
   55.5280   24.8950   46.3480 C   0  0  0  0  0  0  0  0  0  0  0  0
   54.6890   24.0170   46.6770 O   0  0  0  0  0  0  0  0  0  0  0  0
   56.8530   24.6070   46.3680 N   0  0  0  0  0  0  0  0  0  0  0  0
   57.7790   25.5350   46.0130 C   0  0  0  0  0  0  0  0  0  0  0  0
   59.0020   25.2400   46.0810 O   0  0  0  0  0  0  0  0  0  0  0  0
  1  2  1  0
  2  3  2  3
  3  4  1  0
  4  5  2  0
  5  6  1  0
  5  7  1  0
  7  8  1  0
  7  9  2  0
  9 10  1  0
  9 11  1  0
 11 12  1  0
 12 13  2  0
 13 14  1  0
 14 15  2  0
 15 16  1  0
 15 17  1  0
 17 18  1  0
 18 19  1  0
 19 20  1  0
 19 21  1  0
 19 22  1  0
 17 23  2  0
 23 24  1  0
 23 25  1  0
 25 26  1  0
 26 27  1  0
 27 28  1  0
 27 29  1  0
 27 30  1  0
 25 31  2  0
 31 32  1  0
  2 33  1  0
 33 34  2  0
 34 35  1  0
 34 36  1  0
 36 37  1  0
 37 38  2  0
 37 39  1  0
 39 40  1  0
 40 41  2  0
 12  4  1  0
 31 14  1  0
 40 33  1  0
M  CHG  4  11  -1  35  -1  36  -1  39  -1
M  END
>  <UniqueID>  (51) 
50

>  <SMILES>  (51) 
COc1cc(/N=c2/[n-]cccc2N=Cc2c([O-])[n-]c(=O)[n-]c2=O)cc(OC)c1

>  <Energy>  (51) 
70.88070607986423

>  <Genealogy>  (51) 
COc1cc(N=c2[n-]cccc2N=Cc2c([O-])[n-]c(=O)[n-]c2=O)cc(OC)c1 (protonated)
COc1cc(/N=c2/[n-]cccc2N=Cc2c([O-])[n-]c(=O)[n-]c2=O)cc(OC)c1 (cis-trans isomerization)
COc1cc(/N=c2/[n-]cccc2N=Cc2c([O-])[n-]c(=O)[n-]c2=O)cc(OC)c1 (3D coordinates assigned)
COc1cc(/N=c2/[n-]cccc2N=Cc2c([O-])[n-]c(=O)[n-]c2=O)cc(OC)c1 (optimized conformer: 70.88070607986423 kcal/mol)

>  <smiles>  (51) 
COc1cc(N=c2[nH]cccc2N=Cc2c(O)[nH]c(=O)[nH]c2=O)cc(OC)c1

>  <score_type>  (51) 
oracle

>  <origin>  (51) 
adg

>  <m_score__min__energy>  (51) 
-15.58

>  <m_primary>  (51) 
energy

$$$$
51:0
     RDKit          3D

 36 38  0  0  1  0  0  0  0  0999 V2000
   60.3270   29.2740   47.4260 C   0  0  0  0  0  0  0  0  0  0  0  0
   59.7360   30.1390   46.6540 C   0  0  0  0  0  0  0  0  0  0  0  0
   59.8440   31.4430   47.0470 N   0  0  0  0  0  0  0  0  0  0  0  0
   59.2870   32.4310   46.3520 C   0  0  0  0  0  0  0  0  0  0  0  0
   59.4340   33.7330   46.8020 C   0  0  0  0  0  0  0  0  0  0  0  0
   60.2010   33.9850   48.0350 C   0  0  0  0  0  0  0  0  0  0  0  0
   58.8780   34.7710   46.1150 C   0  0  0  0  0  0  0  0  0  0  0  0
   58.1490   34.5460   44.9430 C   0  0  0  0  0  0  0  0  0  0  0  0
   57.9870   33.2540   44.4730 C   0  0  0  0  0  0  0  0  0  0  0  0
   58.5670   32.2490   45.2010 C   0  0  0  0  0  0  0  0  0  0  0  0
   58.4370   30.9300   44.7730 C   0  0  0  0  0  0  0  0  0  0  0  0
   59.0320   29.9010   45.5200 C   0  0  0  0  0  0  0  0  0  0  0  0
   58.8830   28.6980   45.0830 C   0  0  0  0  0  0  0  0  0  0  0  0
   57.9920   27.6550   45.5320 C   0  0  0  0  0  0  0  0  0  0  0  0
   56.6050   27.9020   45.5860 C   0  0  0  0  0  0  0  0  0  0  0  0
   56.1510   29.1760   45.2790 O   0  0  0  0  0  0  0  0  0  0  0  0
   55.7930   26.8870   45.9340 N   0  0  0  0  0  0  0  0  0  0  0  0
   58.4820   26.3690   45.8380 C   0  0  0  0  0  0  0  0  0  0  0  0
   55.4380   24.7720   46.5410 O   0  0  0  0  0  0  0  0  0  0  0  0
   57.5940   25.4160   46.1760 N   0  0  0  0  0  0  0  0  0  0  0  0
   56.2560   25.6540   46.2290 C   0  0  0  0  0  0  0  0  0  0  0  0
   59.7310   26.1400   45.7910 N   0  0  0  0  0  0  0  0  0  0  0  0
   60.2886   28.2022   47.1816 H   0  0  0  0  0  0  0  0  0  0  0  0
   60.8649   29.6146   48.3230 H   0  0  0  0  0  0  0  0  0  0  0  0
   59.5675   33.7769   48.9099 H   0  0  0  0  0  0  0  0  0  0  0  0
   61.0843   33.3298   48.0577 H   0  0  0  0  0  0  0  0  0  0  0  0
   60.5236   35.0364   48.0577 H   0  0  0  0  0  0  0  0  0  0  0  0
   59.0044   35.7984   46.4872 H   0  0  0  0  0  0  0  0  0  0  0  0
   57.7062   35.3920   44.3969 H   0  0  0  0  0  0  0  0  0  0  0  0
   57.4177   33.0437   43.5556 H   0  0  0  0  0  0  0  0  0  0  0  0
   57.8731   30.6966   43.8578 H   0  0  0  0  0  0  0  0  0  0  0  0
   59.5338   28.4243   44.2395 H   0  0  0  0  0  0  0  0  0  0  0  0
   55.7460   29.7520   46.0070 H   0  0  0  0  0  0  0  0  0  0  0  0
   54.7780   27.0950   45.9670 H   0  0  0  0  0  0  0  0  0  0  0  0
   57.8970   24.4380   46.4160 H   0  0  0  0  0  0  0  0  0  0  0  0
   60.4360   26.7690   45.3400 H   0  0  0  0  0  0  0  0  0  0  0  0
  1  2  2  0
  2  3  1  0
  3  4  2  0
  4  5  1  0
  5  6  1  0
  5  7  2  0
  7  8  1  0
  8  9  2  0
  9 10  1  0
 10 11  2  0
 11 12  1  0
 12 13  2  0
 13 14  1  0
 14 15  2  0
 15 16  1  0
 15 17  1  0
 17 18  1  0
 18 19  2  0
 18 20  1  0
 20 21  1  0
 21 22  2  3
 12  2  1  0
 21 14  1  0
 10  4  1  0
  1 23  1  0
  1 24  1  0
  6 25  1  0
  6 26  1  0
  6 27  1  0
  7 28  1  0
  8 29  1  0
  9 30  1  0
 11 31  1  0
 13 32  1  0
 16 33  1  0
 17 34  1  0
 20 35  1  0
 22 36  1  0
M  END
>  <smiles>  (52) 
C=c1nc2c(C)cccc2cc1=Cc1c(O)[nH]c(=O)[nH]c1=N

>  <score_type>  (52) 
oracle

>  <origin>  (52) 
adg

>  <m_score__min__energy>  (52) 
-8.6899999999999995

>  <m_primary>  (52) 
energy

$$$$
52:0
     RDKit          3D

 41 43  0  0  0  0  0  0  0  0999 V2000
   50.9970   32.3420   49.8620 N   0  0  0  0  0  0  0  0  0  0  0  0
   51.5960   31.9980   51.1090 C   0  0  0  0  0  0  0  0  0  0  0  0
   51.2830   32.6400   52.1480 O   0  0  0  0  0  0  0  0  0  0  0  0
   52.5910   30.9140   51.1760 C   0  0  0  0  0  0  0  0  0  0  0  0
   52.8770   30.2730   50.1310 O   0  0  0  0  0  0  0  0  0  0  0  0
   53.3140   30.6330   52.3840 N   0  0  0  0  0  0  0  0  0  0  0  0
   54.6030   30.5000   52.5160 C   0  0  0  0  0  0  0  0  0  0  0  0
   55.2290   29.2490   52.6540 C   0  0  0  0  0  0  0  0  0  0  0  0
   56.6140   29.1920   52.7690 C   0  0  0  0  0  0  0  0  0  0  0  0
   57.3550   30.3720   52.7380 C   0  0  0  0  0  0  0  0  0  0  0  0
   58.6120   30.3170   52.8370 O   0  0  0  0  0  0  0  0  0  0  0  0
   56.7110   31.5730   52.5970 N   0  0  0  0  0  0  0  0  0  0  0  0
   57.4530   32.8350   52.5150 C   0  0  0  0  0  0  0  0  0  0  0  0
   58.3510   32.8270   51.3080 C   0  0  0  0  0  0  0  0  0  0  0  0
   59.5270   33.5920   51.3020 C   0  0  0  0  0  0  0  0  0  0  0  0
   60.3530   33.6030   50.1770 C   0  0  0  0  0  0  0  0  0  0  0  0
   60.0030   32.8670   49.0420 C   0  0  0  0  0  0  0  0  0  0  0  0
   58.8130   32.1250   49.0160 C   0  0  0  0  0  0  0  0  0  0  0  0
   58.4800   31.3670   47.8390 N   0  0  0  0  0  0  0  0  0  0  0  0
   58.3980   31.9360   46.5210 C   0  0  0  0  0  0  0  0  0  0  0  0
   58.8920   33.0720   46.2880 O   0  0  0  0  0  0  0  0  0  0  0  0
   57.7720   31.1830   45.4190 C   0  0  0  0  0  0  0  0  0  0  0  0
   57.4090   31.7050   44.1830 C   0  0  0  0  0  0  0  0  0  0  0  0
   56.8210   30.7590   43.3330 C   0  0  0  0  0  0  0  0  0  0  0  0
   56.7170   29.4930   43.8930 C   0  0  0  0  0  0  0  0  0  0  0  0
   57.3550   29.5520   45.4470 S   0  0  0  0  0  0  0  0  0  0  0  0
   57.9980   32.0950   50.1620 C   0  0  0  0  0  0  0  0  0  0  0  0
   55.3790   31.6150   52.4790 N   0  0  0  0  0  0  0  0  0  0  0  0
   49.9620   32.2960   49.7330 H   0  0  0  0  0  0  0  0  0  0  0  0
   54.6307   28.3261   52.6708 H   0  0  0  0  0  0  0  0  0  0  0  0
   57.1209   28.2225   52.8836 H   0  0  0  0  0  0  0  0  0  0  0  0
   56.7423   33.6707   52.4346 H   0  0  0  0  0  0  0  0  0  0  0  0
   58.0665   32.9524   53.4204 H   0  0  0  0  0  0  0  0  0  0  0  0
   59.7991   34.1854   52.1873 H   0  0  0  0  0  0  0  0  0  0  0  0
   61.2817   34.1925   50.1839 H   0  0  0  0  0  0  0  0  0  0  0  0
   60.6648   32.8695   48.1634 H   0  0  0  0  0  0  0  0  0  0  0  0
   58.3880   30.3320   47.9380 H   0  0  0  0  0  0  0  0  0  0  0  0
   57.5676   32.7562   43.9003 H   0  0  0  0  0  0  0  0  0  0  0  0
   56.4741   30.9973   42.3167 H   0  0  0  0  0  0  0  0  0  0  0  0
   56.2907   28.6046   43.4042 H   0  0  0  0  0  0  0  0  0  0  0  0
   57.0769   31.4936   50.1609 H   0  0  0  0  0  0  0  0  0  0  0  0
  1  2  1  0
  2  3  2  0
  2  4  1  0
  4  5  2  0
  4  6  1  0
  6  7  2  3
  7  8  1  0
  8  9  2  0
  9 10  1  0
 10 11  2  0
 10 12  1  0
 12 13  1  0
 13 14  1  0
 14 15  2  0
 15 16  1  0
 16 17  2  0
 17 18  1  0
 18 19  1  0
 19 20  1  0
 20 21  2  0
 20 22  1  0
 22 23  2  0
 23 24  1  0
 24 25  2  0
 25 26  1  0
 18 27  2  0
 12 28  1  0
 28  7  1  0
 27 14  1  0
 26 22  1  0
  1 29  1  0
  8 30  1  0
  9 31  1  0
 13 32  1  0
 13 33  1  0
 15 34  1  0
 16 35  1  0
 17 36  1  0
 19 37  1  0
 23 38  1  0
 24 39  1  0
 25 40  1  0
 27 41  1  0
M  CHG  2   1  -1  28  -1
M  END
>  <UniqueID>  (53) 
51

>  <SMILES>  (53) 
[NH-]C(=O)C(=O)N=c1ccc(=O)n(Cc2cccc(NC(=O)c3cccs3)c2)[n-]1

>  <Energy>  (53) 
81.03865506990046

>  <Genealogy>  (53) 
[NH-]C(=O)C(=O)N=c1ccc(=O)n(Cc2cccc(NC(=O)c3cccs3)c2)[n-]1 (protonated)
[NH-]C(=O)C(=O)N=c1ccc(=O)n(Cc2cccc(NC(=O)c3cccs3)c2)[n-]1 (3D coordinates assigned)
[NH-]C(=O)C(=O)N=c1ccc(=O)n(Cc2cccc(NC(=O)c3cccs3)c2)[n-]1 (optimized conformer: 81.03865506990046 kcal/mol)

>  <smiles>  (53) 
NC(=O)C(=O)N=c1ccc(=O)n(Cc2cccc(NC(=O)c3cccs3)c2)[nH]1

>  <score_type>  (53) 
oracle

>  <origin>  (53) 
adg

>  <m_score__min__energy>  (53) 
-13.42

>  <m_primary>  (53) 
energy

$$$$
53:0
     RDKit          3D

 43 46  0  0  0  0  0  0  0  0999 V2000
   58.0733   30.2030   42.8668 H   0  0  0  0  0  0  0  0  0  0  0  0
   57.8970   29.9600   43.9250 C   0  0  0  0  0  0  0  0  0  0  0  0
   56.6930   30.5310   44.5540 C   0  0  0  0  0  0  0  0  0  0  0  0
   55.7100   29.7960   44.8490 O   0  0  0  0  0  0  0  0  0  0  0  0
   56.6370   31.9500   44.7600 N   0  0  0  0  0  0  0  0  0  0  0  0
   57.3680   32.6340   45.5920 C   0  0  0  0  0  0  0  0  0  0  0  0
   57.5870   33.9660   45.4970 N   0  0  0  0  0  0  0  0  0  0  0  0
   58.3860   34.4120   46.5020 C   0  0  0  0  0  0  0  0  0  0  0  0
   58.6841   35.4663   46.6001 H   0  0  0  0  0  0  0  0  0  0  0  0
   58.7970   33.4290   47.3970 C   0  0  0  0  0  0  0  0  0  0  0  0
   59.7220   33.6300   48.5560 C   0  0  0  0  0  0  0  0  0  0  0  0
   59.5462   34.6240   48.9931 H   0  0  0  0  0  0  0  0  0  0  0  0
   59.5304   32.8500   49.3076 H   0  0  0  0  0  0  0  0  0  0  0  0
   61.1520   33.5330   48.1020 C   0  0  0  0  0  0  0  0  0  0  0  0
   61.4970   33.8460   46.7770 C   0  0  0  0  0  0  0  0  0  0  0  0
   60.7132   34.1317   46.0600 H   0  0  0  0  0  0  0  0  0  0  0  0
   62.8330   33.7960   46.3650 C   0  0  0  0  0  0  0  0  0  0  0  0
   63.0965   34.0361   45.3244 H   0  0  0  0  0  0  0  0  0  0  0  0
   63.8340   33.4410   47.2750 C   0  0  0  0  0  0  0  0  0  0  0  0
   64.8839   33.3999   46.9493 H   0  0  0  0  0  0  0  0  0  0  0  0
   63.5000   33.1380   48.6000 C   0  0  0  0  0  0  0  0  0  0  0  0
   64.7580   32.7040   49.7440 Cl  0  0  0  0  0  0  0  0  0  0  0  0
   62.1640   33.1880   49.0150 C   0  0  0  0  0  0  0  0  0  0  0  0
   61.9051   32.9566   50.0588 H   0  0  0  0  0  0  0  0  0  0  0  0
   58.1520   31.9520   46.9110 S   0  0  0  0  0  0  0  0  0  0  0  0
   58.7980   29.1690   44.5300 C   0  0  0  0  0  0  0  0  0  0  0  0
   59.8584   29.4414   44.4237 H   0  0  0  0  0  0  0  0  0  0  0  0
   58.4860   27.9630   45.3270 C   0  0  0  0  0  0  0  0  0  0  0  0
   58.6660   27.9390   46.7220 C   0  0  0  0  0  0  0  0  0  0  0  0
   59.0186   28.8416   47.2425 H   0  0  0  0  0  0  0  0  0  0  0  0
   58.4000   26.7760   47.4520 C   0  0  0  0  0  0  0  0  0  0  0  0
   58.5187   26.7741   48.5456 H   0  0  0  0  0  0  0  0  0  0  0  0
   57.9830   25.6150   46.7920 C   0  0  0  0  0  0  0  0  0  0  0  0
   57.7260   24.4820   47.5000 N   0  0  0  0  0  0  0  0  0  0  0  0
   57.3260   23.3330   46.8920 C   0  0  0  0  0  0  0  0  0  0  0  0
   57.0980   22.3060   47.5830 O   0  0  0  0  0  0  0  0  0  0  0  0
   57.1730   23.2930   45.5020 C   0  0  0  0  0  0  0  0  0  0  0  0
   56.8506   22.3650   45.0072 H   0  0  0  0  0  0  0  0  0  0  0  0
   57.4320   24.4380   44.7470 C   0  0  0  0  0  0  0  0  0  0  0  0
   57.3196   24.4149   43.6530 H   0  0  0  0  0  0  0  0  0  0  0  0
   57.8360   25.6180   45.3880 C   0  0  0  0  0  0  0  0  0  0  0  0
   58.0990   26.7880   44.6610 C   0  0  0  0  0  0  0  0  0  0  0  0
   58.0019   26.7858   43.5653 H   0  0  0  0  0  0  0  0  0  0  0  0
  1  2  1  0
  2  3  1  0
  3  4  2  0
  3  5  1  0
  5  6  2  0
  6  7  1  0
  7  8  1  0
  8  9  1  0
  8 10  2  0
 10 11  1  0
 11 12  1  0
 11 13  1  0
 11 14  1  0
 14 15  2  0
 15 16  1  0
 15 17  1  0
 17 18  1  0
 17 19  2  0
 19 20  1  0
 19 21  1  0
 21 22  1  0
 21 23  2  0
 23 24  1  0
 10 25  1  0
  2 26  2  3
 26 27  1  0
 26 28  1  0
 28 29  2  0
 29 30  1  0
 29 31  1  0
 31 32  1  0
 31 33  2  0
 33 34  1  0
 34 35  1  0
 35 36  2  0
 35 37  1  0
 37 38  1  0
 37 39  2  0
 39 40  1  0
 39 41  1  0
 41 42  2  0
 42 43  1  0
 25  6  1  0
 42 28  1  0
 23 14  1  0
 41 33  1  0
M  CHG  2   7  -1  34  -1
M  END
>  <UniqueID>  (54) 
52

>  <SMILES>  (54) 
O=C(C=Cc1ccc2[n-]c(=O)ccc2c1)/N=c1\[n-]cc(Cc2cccc(Cl)c2)s1

>  <Energy>  (54) 
88.74605894119661

>  <Genealogy>  (54) 
O=C(C=Cc1ccc2[n-]c(=O)ccc2c1)N=c1[n-]cc(Cc2cccc(Cl)c2)s1 (protonated)
O=C(C=Cc1ccc2[n-]c(=O)ccc2c1)/N=c1\[n-]cc(Cc2cccc(Cl)c2)s1 (cis-trans isomerization)
O=C(C=Cc1ccc2[n-]c(=O)ccc2c1)/N=c1\[n-]cc(Cc2cccc(Cl)c2)s1 (3D coordinates assigned)
O=C(C=Cc1ccc2[n-]c(=O)ccc2c1)/N=c1\[n-]cc(Cc2cccc(Cl)c2)s1 (optimized conformer: 88.74605894119661 kcal/mol)

>  <smiles>  (54) 
O=C(C=Cc1ccc2[nH]c(=O)ccc2c1)N=c1[nH]cc(Cc2cccc(Cl)c2)s1

>  <score_type>  (54) 
oracle

>  <origin>  (54) 
adg

>  <m_score__min__energy>  (54) 
-13.210000000000001

>  <m_primary>  (54) 
energy

$$$$
54:0
     RDKit          3D

 43 44  0  0  0  0  0  0  0  0999 V2000
   57.8387   27.0268   45.8879 H   0  0  0  0  0  0  0  0  0  0  0  0
   58.1350   27.9820   46.3460 C   0  0  0  0  0  0  0  0  0  0  0  0
   58.6390   28.0590   47.6070 N   0  0  0  0  0  0  0  0  0  0  0  0
   58.9080   29.3290   47.9690 C   0  0  0  0  0  0  0  0  0  0  0  0
   59.3930   29.6210   49.1410 N   0  0  0  0  0  0  0  0  0  0  0  0
   59.4580   30.9140   49.7630 C   0  0  0  0  0  0  0  0  0  0  0  0
   60.5520   31.4020   50.1560 O   0  0  0  0  0  0  0  0  0  0  0  0
   58.1970   31.6970   49.9540 C   0  0  0  0  0  0  0  0  0  0  0  0
   57.8985   32.1417   48.9932 H   0  0  0  0  0  0  0  0  0  0  0  0
   57.4111   31.0201   50.3203 H   0  0  0  0  0  0  0  0  0  0  0  0
   58.3920   32.7360   50.9110 O   0  0  0  0  0  0  0  0  0  0  0  0
   58.4150   32.5140   52.2920 C   0  0  0  0  0  0  0  0  0  0  0  0
   59.1860   33.1750   53.0390 O   0  0  0  0  0  0  0  0  0  0  0  0
   57.5060   31.4870   52.8880 C   0  0  0  0  0  0  0  0  0  0  0  0
   57.8502   30.4842   52.5949 H   0  0  0  0  0  0  0  0  0  0  0  0
   57.5235   31.5868   53.9833 H   0  0  0  0  0  0  0  0  0  0  0  0
   56.1370   31.6840   52.4150 N   0  0  0  0  0  0  0  0  0  0  0  0
   55.7900   32.6650   52.3280 H   0  0  0  0  0  0  0  0  0  0  0  0
   55.2830   30.5810   52.0640 C   0  0  0  0  0  0  0  0  0  0  0  0
   55.7130   29.3990   52.1600 O   0  0  0  0  0  0  0  0  0  0  0  0
   53.9010   30.7990   51.5910 C   0  0  0  0  0  0  0  0  0  0  0  0
   53.2220   31.9430   51.8270 N   0  0  0  0  0  0  0  0  0  0  0  0
   52.0210   31.7600   51.2510 C   0  0  0  0  0  0  0  0  0  0  0  0
   51.0150   32.7160   51.2660 O   0  0  0  0  0  0  0  0  0  0  0  0
   51.9170   30.5250   50.6520 C   0  0  0  0  0  0  0  0  0  0  0  0
   51.0482   30.1195   50.1128 H   0  0  0  0  0  0  0  0  0  0  0  0
   53.1270   29.9020   50.8680 C   0  0  0  0  0  0  0  0  0  0  0  0
   53.4205   28.8958   50.5344 H   0  0  0  0  0  0  0  0  0  0  0  0
   58.5230   30.4150   46.7380 S   0  0  0  0  0  0  0  0  0  0  0  0
   58.0200   29.2020   45.6730 C   0  0  0  0  0  0  0  0  0  0  0  0
   57.3940   29.4340   44.3050 C   0  0  0  0  0  0  0  0  0  0  0  0
   57.7410   28.2440   43.3920 C   0  0  0  0  0  0  0  0  0  0  0  0
   57.9958   27.3701   44.0096 H   0  0  0  0  0  0  0  0  0  0  0  0
   56.8753   28.0044   42.7570 H   0  0  0  0  0  0  0  0  0  0  0  0
   58.5998   28.5072   42.7570 H   0  0  0  0  0  0  0  0  0  0  0  0
   57.9260   30.7370   43.6700 C   0  0  0  0  0  0  0  0  0  0  0  0
   58.2136   31.4413   44.4645 H   0  0  0  0  0  0  0  0  0  0  0  0
   58.8032   30.5095   43.0465 H   0  0  0  0  0  0  0  0  0  0  0  0
   57.1402   31.1885   43.0465 H   0  0  0  0  0  0  0  0  0  0  0  0
   55.8590   29.5470   44.4350 C   0  0  0  0  0  0  0  0  0  0  0  0
   55.5817   29.5674   45.4993 H   0  0  0  0  0  0  0  0  0  0  0  0
   55.5170   30.4728   43.9492 H   0  0  0  0  0  0  0  0  0  0  0  0
   55.3852   28.6813   43.9492 H   0  0  0  0  0  0  0  0  0  0  0  0
  1  2  1  0
  2  3  1  0
  3  4  1  0
  4  5  2  0
  5  6  1  0
  6  7  2  0
  6  8  1  0
  8  9  1  0
  8 10  1  0
  8 11  1  0
 11 12  1  0
 12 13  2  0
 12 14  1  0
 14 15  1  0
 14 16  1  0
 14 17  1  0
 17 18  1  0
 17 19  1  0
 19 20  2  0
 19 21  1  0
 21 22  1  0
 22 23  1  0
 23 24  1  0
 23 25  2  0
 25 26  1  0
 25 27  1  0
 27 28  1  0
  4 29  1  0
 29 30  1  0
 30 31  1  0
 31 32  1  0
 32 33  1  0
 32 34  1  0
 32 35  1  0
 31 36  1  0
 36 37  1  0
 36 38  1  0
 36 39  1  0
 31 40  1  0
 40 41  1  0
 40 42  1  0
 40 43  1  0
 30  2  2  0
 27 21  2  0
M  CHG  3   3  -1  22  -1  24  -1
M  END
>  <UniqueID>  (55) 
53

>  <SMILES>  (55) 
CC(C)(C)c1c[n-]/c(=N/C(=O)COC(=O)CNC(=O)c2ccc([O-])[n-]2)s1

>  <Energy>  (55) 
92.351132804198

>  <Genealogy>  (55) 
CC(C)(C)c1c[n-]c(=NC(=O)COC(=O)CNC(=O)c2ccc([O-])[n-]2)s1 (protonated)
CC(C)(C)c1c[n-]/c(=N/C(=O)COC(=O)CNC(=O)c2ccc([O-])[n-]2)s1 (cis-trans isomerization)
CC(C)(C)c1c[n-]/c(=N/C(=O)COC(=O)CNC(=O)c2ccc([O-])[n-]2)s1 (3D coordinates assigned)
CC(C)(C)c1c[n-]/c(=N/C(=O)COC(=O)CNC(=O)c2ccc([O-])[n-]2)s1 (optimized conformer: 92.351132804198 kcal/mol)

>  <smiles>  (55) 
CC(C)(C)c1c[nH]c(=NC(=O)COC(=O)CNC(=O)c2ccc(O)[nH]2)s1

>  <score_type>  (55) 
oracle

>  <origin>  (55) 
adg

>  <m_score__min__energy>  (55) 
-14

>  <m_primary>  (55) 
energy

$$$$
55:0
     RDKit          3D

 34 35  0  0  0  0  0  0  0  0999 V2000
   55.1420   29.7920   44.7880 N   0  0  0  0  0  0  0  0  0  0  0  0
   56.7910   30.0740   44.3580 S   0  0  0  0  0  0  0  0  0  0  0  0
   56.8470   31.1210   43.2820 O   0  0  0  0  0  0  0  0  0  0  0  0
   57.5450   30.5570   45.5650 O   0  0  0  0  0  0  0  0  0  0  0  0
   57.5140   28.5560   43.7560 C   0  0  0  0  0  0  0  0  0  0  0  0
   57.8490   27.6490   44.8970 C   0  0  0  0  0  0  0  0  0  0  0  0
   59.1140   27.2280   45.2660 C   0  0  0  0  0  0  0  0  0  0  0  0
   58.9270   26.3290   46.2980 C   0  0  0  0  0  0  0  0  0  0  0  0
   59.9600   25.6580   46.9480 O   0  0  0  0  0  0  0  0  0  0  0  0
   57.6120   26.1770   46.5760 N   0  0  0  0  0  0  0  0  0  0  0  0
   57.0030   25.2380   47.5230 C   0  0  0  0  0  0  0  0  0  0  0  0
   57.4820   23.8040   47.2650 C   0  0  0  0  0  0  0  0  0  0  0  0
   57.0720   23.3160   45.8990 C   0  0  0  0  0  0  0  0  0  0  0  0
   57.8070   22.3060   45.2580 C   0  0  0  0  0  0  0  0  0  0  0  0
   57.3980   21.8190   44.0120 C   0  0  0  0  0  0  0  0  0  0  0  0
   56.2510   22.3340   43.4010 C   0  0  0  0  0  0  0  0  0  0  0  0
   55.8440   21.8480   42.1640 O   0  0  0  0  0  0  0  0  0  0  0  0
   55.5100   23.3360   44.0360 C   0  0  0  0  0  0  0  0  0  0  0  0
   55.9140   23.8230   45.2820 C   0  0  0  0  0  0  0  0  0  0  0  0
   56.9580   26.9750   45.7110 C   0  0  0  0  0  0  0  0  0  0  0  0
   55.5720   27.0780   45.6380 O   0  0  0  0  0  0  0  0  0  0  0  0
   55.1480   29.2190   45.6630 H   0  0  0  0  0  0  0  0  0  0  0  0
   56.7972   28.0521   43.0909 H   0  0  0  0  0  0  0  0  0  0  0  0
   58.4369   28.7939   43.2068 H   0  0  0  0  0  0  0  0  0  0  0  0
   60.0721   27.5442   44.8276 H   0  0  0  0  0  0  0  0  0  0  0  0
   60.6990   26.1540   47.4300 H   0  0  0  0  0  0  0  0  0  0  0  0
   57.2796   25.5303   48.5467 H   0  0  0  0  0  0  0  0  0  0  0  0
   55.9112   25.2700   47.3931 H   0  0  0  0  0  0  0  0  0  0  0  0
   58.5792   23.7760   47.3390 H   0  0  0  0  0  0  0  0  0  0  0  0
   57.0191   23.1476   48.0166 H   0  0  0  0  0  0  0  0  0  0  0  0
   58.7081   21.8960   45.7375 H   0  0  0  0  0  0  0  0  0  0  0  0
   57.9795   21.0301   43.5126 H   0  0  0  0  0  0  0  0  0  0  0  0
   54.6081   23.7412   43.5540 H   0  0  0  0  0  0  0  0  0  0  0  0
   55.3244   24.6055   45.7820 H   0  0  0  0  0  0  0  0  0  0  0  0
  1  2  1  0
  2  3  2  0
  2  4  2  0
  2  5  1  0
  5  6  1  0
  6  7  1  0
  7  8  2  0
  8  9  1  0
  8 10  1  0
 10 11  1  0
 11 12  1  0
 12 13  1  0
 13 14  2  0
 14 15  1  0
 15 16  2  0
 16 17  1  0
 16 18  1  0
 18 19  2  0
 10 20  1  0
 20 21  1  0
 20  6  2  0
 19 13  1  0
  1 22  1  0
  5 23  1  0
  5 24  1  0
  7 25  1  0
  9 26  1  0
 11 27  1  0
 11 28  1  0
 12 29  1  0
 12 30  1  0
 14 31  1  0
 15 32  1  0
 18 33  1  0
 19 34  1  0
M  CHG  3   1  -1  17  -1  21  -1
M  END
>  <UniqueID>  (56) 
54

>  <SMILES>  (56) 
[NH-]S(=O)(=O)Cc1cc(O)n(CCc2ccc([O-])cc2)c1[O-]

>  <Energy>  (56) 
50.090430496778104

>  <Genealogy>  (56) 
[NH-]S(=O)(=O)Cc1cc(O)n(CCc2ccc([O-])cc2)c1[O-] (protonated)
[NH-]S(=O)(=O)Cc1cc(O)n(CCc2ccc([O-])cc2)c1[O-] (3D coordinates assigned)
[NH-]S(=O)(=O)Cc1cc(O)n(CCc2ccc([O-])cc2)c1[O-] (optimized conformer: 50.090430496778104 kcal/mol)

>  <smiles>  (56) 
NS(=O)(=O)Cc1cc(O)n(CCc2ccc(O)cc2)c1O

>  <score_type>  (56) 
oracle

>  <origin>  (56) 
adg

>  <m_score__min__energy>  (56) 
-13.41

>  <m_primary>  (56) 
energy

$$$$
56:0
     RDKit          3D

 64 69  0  0  0  0  0  0  0  0999 V2000
   66.6250   32.8950   51.1760 C   0  0  0  0  0  0  0  0  0  0  0  0
   65.2720   33.3030   51.3550 O   0  0  0  0  0  0  0  0  0  0  0  0
   64.2940   33.2770   50.3470 C   0  0  0  0  0  0  0  0  0  0  0  0
   64.6350   32.7260   49.1040 C   0  0  0  0  0  0  0  0  0  0  0  0
   63.6970   32.6650   48.0680 C   0  0  0  0  0  0  0  0  0  0  0  0
   62.4050   33.1590   48.2650 C   0  0  0  0  0  0  0  0  0  0  0  0
   61.4860   33.0880   47.2640 N   0  0  0  0  0  0  0  0  0  0  0  0
   60.2150   33.5590   47.4070 C   0  0  0  0  0  0  0  0  0  0  0  0
   59.2550   33.4200   46.2840 C   0  0  0  0  0  0  0  0  0  0  0  0
   58.3740   34.4650   45.9460 C   0  0  0  0  0  0  0  0  0  0  0  0
   57.4540   34.3060   44.9080 C   0  0  0  0  0  0  0  0  0  0  0  0
   57.3970   33.1080   44.1970 C   0  0  0  0  0  0  0  0  0  0  0  0
   58.2710   32.0590   44.5110 C   0  0  0  0  0  0  0  0  0  0  0  0
   58.2350   30.8280   43.7790 N   0  0  0  0  0  0  0  0  0  0  0  0
   57.4690   29.4140   44.4280 S   0  0  0  0  0  0  0  0  0  0  0  0
   57.3820   28.3670   43.3520 O   0  0  0  0  0  0  0  0  0  0  0  0
   56.0730   29.7630   44.8620 O   0  0  0  0  0  0  0  0  0  0  0  0
   58.3550   28.7970   45.8170 C   0  0  0  0  0  0  0  0  0  0  0  0
   58.8040   27.4680   45.8380 C   0  0  0  0  0  0  0  0  0  0  0  0
   59.5310   26.9870   46.9290 C   0  0  0  0  0  0  0  0  0  0  0  0
   59.8190   27.8310   48.0080 C   0  0  0  0  0  0  0  0  0  0  0  0
   60.5360   27.3650   49.0590 N   0  0  0  0  0  0  0  0  0  0  0  0
   60.8380   28.1630   50.1140 C   0  0  0  0  0  0  0  0  0  0  0  0
   60.4310   29.4680   50.1420 N   0  0  0  0  0  0  0  0  0  0  0  0
   60.7700   30.2960   51.3120 C   0  0  0  0  0  0  0  0  0  0  0  0
   59.5650   31.0690   51.7780 C   0  0  0  0  0  0  0  0  0  0  0  0
   59.6820   32.4320   52.1020 C   0  0  0  0  0  0  0  0  0  0  0  0
   58.5690   33.1460   52.5530 C   0  0  0  0  0  0  0  0  0  0  0  0
   57.3340   32.5070   52.6900 C   0  0  0  0  0  0  0  0  0  0  0  0
   57.2100   31.1490   52.3780 C   0  0  0  0  0  0  0  0  0  0  0  0
   56.0130   30.5280   52.5130 F   0  0  0  0  0  0  0  0  0  0  0  0
   58.3220   30.4300   51.9280 C   0  0  0  0  0  0  0  0  0  0  0  0
   59.6900   29.9790   49.1060 C   0  0  0  0  0  0  0  0  0  0  0  0
   59.2920   31.1790   49.1380 O   0  0  0  0  0  0  0  0  0  0  0  0
   59.3720   29.1670   48.0010 C   0  0  0  0  0  0  0  0  0  0  0  0
   58.6380   29.6440   46.8990 C   0  0  0  0  0  0  0  0  0  0  0  0
   59.2140   32.2290   45.5370 C   0  0  0  0  0  0  0  0  0  0  0  0
   59.8300   34.1300   48.6340 C   0  0  0  0  0  0  0  0  0  0  0  0
   60.7500   34.2130   49.6810 C   0  0  0  0  0  0  0  0  0  0  0  0
   62.0500   33.7250   49.5070 C   0  0  0  0  0  0  0  0  0  0  0  0
   62.9930   33.7820   50.5440 C   0  0  0  0  0  0  0  0  0  0  0  0
   67.0980   32.7524   52.1588 H   0  0  0  0  0  0  0  0  0  0  0  0
   66.6516   31.9489   50.6155 H   0  0  0  0  0  0  0  0  0  0  0  0
   67.1702   33.6687   50.6155 H   0  0  0  0  0  0  0  0  0  0  0  0
   65.6512   32.3374   48.9415 H   0  0  0  0  0  0  0  0  0  0  0  0
   63.9767   32.2280   47.0980 H   0  0  0  0  0  0  0  0  0  0  0  0
   58.4108   35.4127   46.5033 H   0  0  0  0  0  0  0  0  0  0  0  0
   56.7714   35.1291   44.6501 H   0  0  0  0  0  0  0  0  0  0  0  0
   56.6632   32.9860   43.3866 H   0  0  0  0  0  0  0  0  0  0  0  0
   58.9340   30.6810   43.0150 H   0  0  0  0  0  0  0  0  0  0  0  0
   58.5824   26.8018   44.9912 H   0  0  0  0  0  0  0  0  0  0  0  0
   59.8779   25.9432   46.9405 H   0  0  0  0  0  0  0  0  0  0  0  0
   61.4167   27.7555   50.9561 H   0  0  0  0  0  0  0  0  0  0  0  0
   61.1199   29.6452   52.1269 H   0  0  0  0  0  0  0  0  0  0  0  0
   61.5604   31.0064   51.0280 H   0  0  0  0  0  0  0  0  0  0  0  0
   60.6533   32.9381   52.0001 H   0  0  0  0  0  0  0  0  0  0  0  0
   58.6652   34.2134   52.8007 H   0  0  0  0  0  0  0  0  0  0  0  0
   56.4589   33.0720   53.0433 H   0  0  0  0  0  0  0  0  0  0  0  0
   58.2235   29.3605   51.6906 H   0  0  0  0  0  0  0  0  0  0  0  0
   58.2846   30.6856   46.8860 H   0  0  0  0  0  0  0  0  0  0  0  0
   59.9282   31.4224   45.7590 H   0  0  0  0  0  0  0  0  0  0  0  0
   58.8065   34.5102   48.7681 H   0  0  0  0  0  0  0  0  0  0  0  0
   60.4535   34.6611   50.6408 H   0  0  0  0  0  0  0  0  0  0  0  0
   62.7163   34.2220   51.5135 H   0  0  0  0  0  0  0  0  0  0  0  0
  1  2  1  0
  2  3  1  0
  3  4  2  0
  4  5  1  0
  5  6  2  0
  6  7  1  0
  7  8  2  0
  8  9  1  0
  9 10  2  0
 10 11  1  0
 11 12  2  0
 12 13  1  0
 13 14  1  0
 14 15  1  0
 15 16  2  0
 15 17  2  0
 15 18  1  0
 18 19  2  0
 19 20  1  0
 20 21  2  0
 21 22  1  0
 22 23  2  0
 23 24  1  0
 24 25  1  0
 25 26  1  0
 26 27  2  0
 27 28  1  0
 28 29  2  0
 29 30  1  0
 30 31  1  0
 30 32  2  0
 24 33  1  0
 33 34  2  0
 33 35  1  0
 35 36  2  0
 13 37  2  0
  8 38  1  0
 38 39  2  0
 39 40  1  0
 40 41  2  0
 41  3  1  0
 40  6  1  0
 37  9  1  0
 36 18  1  0
 35 21  1  0
 32 26  1  0
  1 42  1  0
  1 43  1  0
  1 44  1  0
  4 45  1  0
  5 46  1  0
 10 47  1  0
 11 48  1  0
 12 49  1  0
 14 50  1  0
 19 51  1  0
 20 52  1  0
 23 53  1  0
 25 54  1  0
 25 55  1  0
 27 56  1  0
 28 57  1  0
 29 58  1  0
 32 59  1  0
 36 60  1  0
 37 61  1  0
 38 62  1  0
 39 63  1  0
 41 64  1  0
M  END
>  <UniqueID>  (57) 
55

>  <SMILES>  (57) 
COc1ccc2nc(-c3cccc(NS(=O)(=O)c4ccc5ncn(Cc6cccc(F)c6)c(=O)c5c4)c3)ccc2c1

>  <Energy>  (57) 
90.80428018196446

>  <Genealogy>  (57) 
COc1ccc2nc(-c3cccc(NS(=O)(=O)c4ccc5ncn(Cc6cccc(F)c6)c(=O)c5c4)c3)ccc2c1 (3D coordinates assigned)
COc1ccc2nc(-c3cccc(NS(=O)(=O)c4ccc5ncn(Cc6cccc(F)c6)c(=O)c5c4)c3)ccc2c1 (optimized conformer: 90.80428018196446 kcal/mol)

>  <smiles>  (57) 
COc1ccc2nc(-c3cccc(NS(=O)(=O)c4ccc5ncn(Cc6cccc(F)c6)c(=O)c5c4)c3)ccc2c1

>  <score_type>  (57) 
oracle

>  <origin>  (57) 
adg

>  <m_score__min__energy>  (57) 
-11.6

>  <m_primary>  (57) 
energy

$$$$
57:0
     RDKit          3D

 61 64  0  0  0  0  0  0  0  0999 V2000
   55.3450   30.4780   44.1780 O   0  0  0  0  0  0  0  0  0  0  0  0
   56.4900   30.1540   44.5950 C   0  0  0  0  0  0  0  0  0  0  0  0
   56.9040   28.7840   44.5700 N   0  0  0  0  0  0  0  0  0  0  0  0
   57.7210   28.2090   43.5060 C   0  0  0  0  0  0  0  0  0  0  0  0
   58.7530   27.2350   44.0810 C   0  0  0  0  0  0  0  0  0  0  0  0
   59.2470   27.7020   45.4240 C   0  0  0  0  0  0  0  0  0  0  0  0
   60.2490   28.6820   45.5140 C   0  0  0  0  0  0  0  0  0  0  0  0
   60.7540   29.0610   46.7620 C   0  0  0  0  0  0  0  0  0  0  0  0
   60.2670   28.4580   47.9260 C   0  0  0  0  0  0  0  0  0  0  0  0
   59.2690   27.4840   47.8450 C   0  0  0  0  0  0  0  0  0  0  0  0
   58.7620   27.1020   46.5990 C   0  0  0  0  0  0  0  0  0  0  0  0
   57.4010   31.1870   45.1270 C   0  0  0  0  0  0  0  0  0  0  0  0
   57.4980   32.4390   44.5040 C   0  0  0  0  0  0  0  0  0  0  0  0
   58.3530   33.4180   45.0120 C   0  0  0  0  0  0  0  0  0  0  0  0
   59.1130   33.1770   46.1730 C   0  0  0  0  0  0  0  0  0  0  0  0
   60.0220   34.1750   46.6890 N   0  0  0  0  0  0  0  0  0  0  0  0
   61.4500   34.2150   46.3650 C   0  0  0  0  0  0  0  0  0  0  0  0
   62.2570   33.5600   47.4540 C   0  0  0  0  0  0  0  0  0  0  0  0
   62.8640   32.3140   47.2310 C   0  0  0  0  0  0  0  0  0  0  0  0
   63.6570   31.7300   48.2230 C   0  0  0  0  0  0  0  0  0  0  0  0
   63.8560   32.3900   49.4380 C   0  0  0  0  0  0  0  0  0  0  0  0
   63.2640   33.6360   49.6630 C   0  0  0  0  0  0  0  0  0  0  0  0
   62.4720   34.2240   48.6720 C   0  0  0  0  0  0  0  0  0  0  0  0
   59.0000   31.9220   46.8160 C   0  0  0  0  0  0  0  0  0  0  0  0
   59.6450   31.6840   48.0730 N   0  0  0  0  0  0  0  0  0  0  0  0
   59.2190   32.5580   49.5090 S   0  0  0  0  0  0  0  0  0  0  0  0
   57.7610   32.3320   49.8090 O   0  0  0  0  0  0  0  0  0  0  0  0
   59.4580   34.0330   49.3360 O   0  0  0  0  0  0  0  0  0  0  0  0
   60.2140   31.9580   50.8430 C   0  0  0  0  0  0  0  0  0  0  0  0
   61.1280   30.9200   50.6020 C   0  0  0  0  0  0  0  0  0  0  0  0
   61.9460   30.4470   51.6310 C   0  0  0  0  0  0  0  0  0  0  0  0
   61.8690   31.0130   52.9030 C   0  0  0  0  0  0  0  0  0  0  0  0
   60.9680   32.0490   53.1540 C   0  0  0  0  0  0  0  0  0  0  0  0
   60.1410   32.5310   52.1330 C   0  0  0  0  0  0  0  0  0  0  0  0
   58.9490   33.9760   52.5580 Br  0  0  0  0  0  0  0  0  0  0  0  0
   58.1580   30.9360   46.2800 C   0  0  0  0  0  0  0  0  0  0  0  0
   57.0697   27.6705   42.8018 H   0  0  0  0  0  0  0  0  0  0  0  0
   58.2521   29.0223   42.9898 H   0  0  0  0  0  0  0  0  0  0  0  0
   58.2887   26.2441   44.1933 H   0  0  0  0  0  0  0  0  0  0  0  0
   59.6086   27.1842   43.3915 H   0  0  0  0  0  0  0  0  0  0  0  0
   60.6381   29.1533   44.5994 H   0  0  0  0  0  0  0  0  0  0  0  0
   61.5343   29.8335   46.8280 H   0  0  0  0  0  0  0  0  0  0  0  0
   60.6703   28.7510   48.9065 H   0  0  0  0  0  0  0  0  0  0  0  0
   58.8815   27.0169   48.7624 H   0  0  0  0  0  0  0  0  0  0  0  0
   57.9812   26.3296   46.5382 H   0  0  0  0  0  0  0  0  0  0  0  0
   56.8959   32.6513   43.6083 H   0  0  0  0  0  0  0  0  0  0  0  0
   58.4342   34.3883   44.5002 H   0  0  0  0  0  0  0  0  0  0  0  0
   59.6580   34.8890   47.3600 H   0  0  0  0  0  0  0  0  0  0  0  0
   61.6212   33.6827   45.4177 H   0  0  0  0  0  0  0  0  0  0  0  0
   61.7642   35.2651   46.2724 H   0  0  0  0  0  0  0  0  0  0  0  0
   62.7151   31.7955   46.2724 H   0  0  0  0  0  0  0  0  0  0  0  0
   64.1246   30.7501   48.0468 H   0  0  0  0  0  0  0  0  0  0  0  0
   64.4791   31.9287   50.2183 H   0  0  0  0  0  0  0  0  0  0  0  0
   63.4213   34.1544   50.6204 H   0  0  0  0  0  0  0  0  0  0  0  0
   62.0161   35.2096   48.8473 H   0  0  0  0  0  0  0  0  0  0  0  0
   60.2610   30.8480   48.1810 H   0  0  0  0  0  0  0  0  0  0  0  0
   61.2004   30.4769   49.5978 H   0  0  0  0  0  0  0  0  0  0  0  0
   62.6523   29.6263   51.4373 H   0  0  0  0  0  0  0  0  0  0  0  0
   62.5190   30.6427   53.7094 H   0  0  0  0  0  0  0  0  0  0  0  0
   60.9076   32.4892   54.1602 H   0  0  0  0  0  0  0  0  0  0  0  0
   58.0910   29.9537   46.7706 H   0  0  0  0  0  0  0  0  0  0  0  0
  1  2  2  0
  2  3  1  0
  3  4  1  0
  4  5  1  0
  5  6  1  0
  6  7  2  0
  7  8  1  0
  8  9  2  0
  9 10  1  0
 10 11  2  0
  2 12  1  0
 12 13  2  0
 13 14  1  0
 14 15  2  0
 15 16  1  0
 16 17  1  0
 17 18  1  0
 18 19  2  0
 19 20  1  0
 20 21  2  0
 21 22  1  0
 22 23  2  0
 15 24  1  0
 24 25  1  0
 25 26  1  0
 26 27  2  0
 26 28  2  0
 26 29  1  0
 29 30  2  0
 30 31  1  0
 31 32  2  0
 32 33  1  0
 33 34  2  0
 34 35  1  0
 24 36  2  0
 11  6  1  0
 36 12  1  0
 23 18  1  0
 34 29  1  0
  4 37  1  0
  4 38  1  0
  5 39  1  0
  5 40  1  0
  7 41  1  0
  8 42  1  0
  9 43  1  0
 10 44  1  0
 11 45  1  0
 13 46  1  0
 14 47  1  0
 16 48  1  0
 17 49  1  0
 17 50  1  0
 19 51  1  0
 20 52  1  0
 21 53  1  0
 22 54  1  0
 23 55  1  0
 25 56  1  0
 30 57  1  0
 31 58  1  0
 32 59  1  0
 33 60  1  0
 36 61  1  0
M  CHG  1   3  -1
M  END
>  <UniqueID>  (58) 
56

>  <SMILES>  (58) 
O=C([N-]CCc1ccccc1)c1ccc(NCc2ccccc2)c(NS(=O)(=O)c2ccccc2Br)c1

>  <Energy>  (58) 
72.52816346233107

>  <Genealogy>  (58) 
O=C([N-]CCc1ccccc1)c1ccc(NCc2ccccc2)c(NS(=O)(=O)c2ccccc2Br)c1 (protonated)
O=C([N-]CCc1ccccc1)c1ccc(NCc2ccccc2)c(NS(=O)(=O)c2ccccc2Br)c1 (3D coordinates assigned)
O=C([N-]CCc1ccccc1)c1ccc(NCc2ccccc2)c(NS(=O)(=O)c2ccccc2Br)c1 (optimized conformer: 72.52816346233107 kcal/mol)

>  <smiles>  (58) 
O=C(NCCc1ccccc1)c1ccc(NCc2ccccc2)c(NS(=O)(=O)c2ccccc2Br)c1

>  <score_type>  (58) 
oracle

>  <origin>  (58) 
adg

>  <m_score__min__energy>  (58) 
-11.529999999999999

>  <m_primary>  (58) 
energy

$$$$
58:0
     RDKit          3D

 55 57  0  0  0  0  0  0  0  0999 V2000
   58.2722   33.5558   42.9577 H   0  0  0  0  0  0  0  0  0  0  0  0
   57.8050   32.6270   43.3170 C   0  0  0  0  0  0  0  0  0  0  0  0
   57.5700   32.4370   44.6870 C   0  0  0  0  0  0  0  0  0  0  0  0
   57.9450   33.4680   45.6760 C   0  0  0  0  0  0  0  0  0  0  0  0
   57.3330   33.5550   46.7730 O   0  0  0  0  0  0  0  0  0  0  0  0
   59.2740   34.6240   45.3290 S   0  0  0  0  0  0  0  0  0  0  0  0
   59.6420   34.9080   47.0880 C   0  0  0  0  0  0  0  0  0  0  0  0
   58.9224   34.3526   47.7075 H   0  0  0  0  0  0  0  0  0  0  0  0
   60.6618   34.5605   47.3100 H   0  0  0  0  0  0  0  0  0  0  0  0
   59.5643   35.9826   47.3100 H   0  0  0  0  0  0  0  0  0  0  0  0
   56.9830   31.2830   45.1090 N   0  0  0  0  0  0  0  0  0  0  0  0
   56.5990   30.2960   44.2550 C   0  0  0  0  0  0  0  0  0  0  0  0
   56.0550   29.2220   44.7560 N   0  0  0  0  0  0  0  0  0  0  0  0
   56.7180   28.1400   45.4280 C   0  0  0  0  0  0  0  0  0  0  0  0
   56.0160   26.9890   45.8210 C   0  0  0  0  0  0  0  0  0  0  0  0
   54.9465   26.8949   45.5817 H   0  0  0  0  0  0  0  0  0  0  0  0
   56.6640   25.9610   46.5140 C   0  0  0  0  0  0  0  0  0  0  0  0
   55.9110   24.7940   46.8720 N   0  0  0  0  0  0  0  0  0  0  0  0
   54.6050   24.1270   45.9490 S   0  0  0  0  0  0  0  0  0  0  0  0
   53.6110   25.2050   45.6180 O   0  0  0  0  0  0  0  0  0  0  0  0
   53.9350   23.0310   46.7280 O   0  0  0  0  0  0  0  0  0  0  0  0
   55.2530   23.4510   44.4370 C   0  0  0  0  0  0  0  0  0  0  0  0
   55.9967   22.6751   44.6713 H   0  0  0  0  0  0  0  0  0  0  0  0
   54.4332   23.0084   43.8522 H   0  0  0  0  0  0  0  0  0  0  0  0
   55.7299   24.2514   43.8522 H   0  0  0  0  0  0  0  0  0  0  0  0
   58.0240   26.1010   46.8400 C   0  0  0  0  0  0  0  0  0  0  0  0
   58.5446   25.2926   47.3742 H   0  0  0  0  0  0  0  0  0  0  0  0
   58.7200   27.2650   46.4880 C   0  0  0  0  0  0  0  0  0  0  0  0
   60.4300   27.4130   46.8870 S   0  0  0  0  0  0  0  0  0  0  0  0
   60.8320   26.3220   47.8410 O   0  0  0  0  0  0  0  0  0  0  0  0
   61.2360   27.2680   45.6260 O   0  0  0  0  0  0  0  0  0  0  0  0
   60.7360   28.9760   47.6040 N   0  0  0  0  0  0  0  0  0  0  0  0
   60.4700   30.0460   46.6190 C   0  0  0  0  0  0  0  0  0  0  0  0
   61.3384   30.1444   45.9511 H   0  0  0  0  0  0  0  0  0  0  0  0
   59.5710   29.7785   46.0443 H   0  0  0  0  0  0  0  0  0  0  0  0
   60.2220   31.3850   47.3190 C   0  0  0  0  0  0  0  0  0  0  0  0
   61.0878   31.6232   47.9544 H   0  0  0  0  0  0  0  0  0  0  0  0
   60.0801   32.1585   46.5499 H   0  0  0  0  0  0  0  0  0  0  0  0
   59.0050   31.3330   48.1610 N   0  0  0  0  0  0  0  0  0  0  0  0
   59.0680   32.3510   49.2210 C   0  0  0  0  0  0  0  0  0  0  0  0
   59.0375   31.8589   50.2043 H   0  0  0  0  0  0  0  0  0  0  0  0
   60.0032   32.9222   49.1257 H   0  0  0  0  0  0  0  0  0  0  0  0
   58.2104   33.0332   49.1257 H   0  0  0  0  0  0  0  0  0  0  0  0
   58.7200   29.9870   48.7170 C   0  0  0  0  0  0  0  0  0  0  0  0
   58.2479   30.1052   49.7035 H   0  0  0  0  0  0  0  0  0  0  0  0
   58.0556   29.4669   48.0113 H   0  0  0  0  0  0  0  0  0  0  0  0
   59.9920   29.1360   48.8770 C   0  0  0  0  0  0  0  0  0  0  0  0
   60.6510   29.6223   49.6113 H   0  0  0  0  0  0  0  0  0  0  0  0
   59.6825   28.1343   49.2098 H   0  0  0  0  0  0  0  0  0  0  0  0
   58.0610   28.2840   45.7880 C   0  0  0  0  0  0  0  0  0  0  0  0
   58.6035   29.2027   45.5201 H   0  0  0  0  0  0  0  0  0  0  0  0
   56.8410   30.4550   42.8760 C   0  0  0  0  0  0  0  0  0  0  0  0
   56.5594   29.6612   42.1685 H   0  0  0  0  0  0  0  0  0  0  0  0
   57.4410   31.6280   42.4150 C   0  0  0  0  0  0  0  0  0  0  0  0
   57.6268   31.7643   41.3394 H   0  0  0  0  0  0  0  0  0  0  0  0
  1  2  1  0
  2  3  2  0
  3  4  1  0
  4  5  2  0
  4  6  1  0
  6  7  1  0
  7  8  1  0
  7  9  1  0
  7 10  1  0
  3 11  1  0
 11 12  1  0
 12 13  2  0
 13 14  1  0
 14 15  2  0
 15 16  1  0
 15 17  1  0
 17 18  1  0
 18 19  1  0
 19 20  2  0
 19 21  2  0
 19 22  1  0
 22 23  1  0
 22 24  1  0
 22 25  1  0
 17 26  2  0
 26 27  1  0
 26 28  1  0
 28 29  1  0
 29 30  2  0
 29 31  2  0
 29 32  1  0
 32 33  1  0
 33 34  1  0
 33 35  1  0
 33 36  1  0
 36 37  1  0
 36 38  1  0
 36 39  1  0
 39 40  1  0
 40 41  1  0
 40 42  1  0
 40 43  1  0
 39 44  1  0
 44 45  1  0
 44 46  1  0
 44 47  1  0
 47 48  1  0
 47 49  1  0
 28 50  2  0
 50 51  1  0
 12 52  1  0
 52 53  1  0
 52 54  2  0
 54 55  1  0
 54  2  1  0
 50 14  1  0
 47 32  1  0
M  CHG  2  11  -1  18  -1
M  END
>  <UniqueID>  (59) 
57

>  <SMILES>  (59) 
CSC(=O)c1ccc/c(=N\c2cc([N-]S(C)(=O)=O)cc(S(=O)(=O)N3CCN(C)CC3)c2)[n-]1

>  <Energy>  (59) 
70.42542769528256

>  <Genealogy>  (59) 
CSC(=O)c1cccc(=Nc2cc([N-]S(C)(=O)=O)cc(S(=O)(=O)N3CCN(C)CC3)c2)[n-]1 (protonated)
CSC(=O)c1ccc/c(=N\c2cc([N-]S(C)(=O)=O)cc(S(=O)(=O)N3CCN(C)CC3)c2)[n-]1 (cis-trans isomerization)
CSC(=O)c1ccc/c(=N\c2cc([N-]S(C)(=O)=O)cc(S(=O)(=O)N3CCN(C)CC3)c2)[n-]1 (3D coordinates assigned)
CSC(=O)c1ccc/c(=N\c2cc([N-]S(C)(=O)=O)cc(S(=O)(=O)N3CCN(C)CC3)c2)[n-]1 (nonaromatic ring conformer: 70.42542769528256 kcal/mol)

>  <smiles>  (59) 
CSC(=O)c1cccc(=Nc2cc(NS(C)(=O)=O)cc(S(=O)(=O)N3CCN(C)CC3)c2)[nH]1

>  <score_type>  (59) 
oracle

>  <origin>  (59) 
adg

>  <m_score__min__energy>  (59) 
-12.890000000000001

>  <m_primary>  (59) 
energy

$$$$
59:0
     RDKit          3D

 55 58  0  0  0  0  0  0  0  0999 V2000
   59.1221   34.3395   49.6613 H   0  0  0  0  0  0  0  0  0  0  0  0
   59.6700   34.2120   48.7160 C   0  0  0  0  0  0  0  0  0  0  0  0
   60.9880   33.7460   48.7300 C   0  0  0  0  0  0  0  0  0  0  0  0
   61.4772   33.5097   49.6865 H   0  0  0  0  0  0  0  0  0  0  0  0
   61.6850   33.5800   47.5290 C   0  0  0  0  0  0  0  0  0  0  0  0
   63.4810   32.9310   47.5500 Br  0  0  0  0  0  0  0  0  0  0  0  0
   61.0640   33.8840   46.3120 C   0  0  0  0  0  0  0  0  0  0  0  0
   61.6115   33.7463   45.3679 H   0  0  0  0  0  0  0  0  0  0  0  0
   59.7450   34.3640   46.2920 C   0  0  0  0  0  0  0  0  0  0  0  0
   59.0620   34.6610   44.9800 C   0  0  0  0  0  0  0  0  0  0  0  0
   59.6825   34.2692   44.1605 H   0  0  0  0  0  0  0  0  0  0  0  0
   58.9389   35.7513   44.9016 H   0  0  0  0  0  0  0  0  0  0  0  0
   57.6910   34.0310   44.8970 C   0  0  0  0  0  0  0  0  0  0  0  0
   56.7530   34.4900   45.6040 O   0  0  0  0  0  0  0  0  0  0  0  0
   57.4080   32.9120   44.0400 N   0  0  0  0  0  0  0  0  0  0  0  0
   57.3290   31.6570   44.3720 C   0  0  0  0  0  0  0  0  0  0  0  0
   56.1760   30.9760   44.5510 N   0  0  0  0  0  0  0  0  0  0  0  0
   56.3700   29.6950   44.8580 N   0  0  0  0  0  0  0  0  0  0  0  0
   57.6760   29.3490   44.9200 C   0  0  0  0  0  0  0  0  0  0  0  0
   58.1500   27.9930   45.2340 C   0  0  0  0  0  0  0  0  0  0  0  0
   59.2600   27.8470   45.8120 O   0  0  0  0  0  0  0  0  0  0  0  0
   57.3350   26.8510   44.9210 N   0  0  0  0  0  0  0  0  0  0  0  0
   56.3200   27.0100   44.7290 H   0  0  0  0  0  0  0  0  0  0  0  0
   57.8020   25.4910   44.9760 C   0  0  0  0  0  0  0  0  0  0  0  0
   58.9990   25.1510   45.6330 C   0  0  0  0  0  0  0  0  0  0  0  0
   59.5875   25.9314   46.1377 H   0  0  0  0  0  0  0  0  0  0  0  0
   59.4430   23.8270   45.6470 C   0  0  0  0  0  0  0  0  0  0  0  0
   60.3741   23.5663   46.1714 H   0  0  0  0  0  0  0  0  0  0  0  0
   58.7080   22.8330   44.9970 C   0  0  0  0  0  0  0  0  0  0  0  0
   59.0603   21.7911   45.0127 H   0  0  0  0  0  0  0  0  0  0  0  0
   57.5230   23.1600   44.3250 C   0  0  0  0  0  0  0  0  0  0  0  0
   56.6100   21.9230   43.4650 S   0  0  0  0  0  0  0  0  0  0  0  0
   57.5690   21.0890   42.6600 O   0  0  0  0  0  0  0  0  0  0  0  0
   55.6320   22.5710   42.5240 O   0  0  0  0  0  0  0  0  0  0  0  0
   55.7600   20.9070   44.6030 N   0  0  0  0  0  0  0  0  0  0  0  0
   56.6890   19.9060   45.1760 C   0  0  0  0  0  0  0  0  0  0  0  0
   56.8367   19.0965   44.4461 H   0  0  0  0  0  0  0  0  0  0  0  0
   57.6412   20.4083   45.4017 H   0  0  0  0  0  0  0  0  0  0  0  0
   56.1400   19.3100   46.4760 C   0  0  0  0  0  0  0  0  0  0  0  0
   55.1605   18.8512   46.2756 H   0  0  0  0  0  0  0  0  0  0  0  0
   56.8517   18.5559   46.8431 H   0  0  0  0  0  0  0  0  0  0  0  0
   55.9760   20.3940   47.5550 C   0  0  0  0  0  0  0  0  0  0  0  0
   55.1058   20.1412   48.1786 H   0  0  0  0  0  0  0  0  0  0  0  0
   56.9045   20.4198   48.1443 H   0  0  0  0  0  0  0  0  0  0  0  0
   55.7640   21.7970   46.9590 C   0  0  0  0  0  0  0  0  0  0  0  0
   55.1631   22.3967   47.6585 H   0  0  0  0  0  0  0  0  0  0  0  0
   56.7492   22.2591   46.7983 H   0  0  0  0  0  0  0  0  0  0  0  0
   55.0360   21.7240   45.6090 C   0  0  0  0  0  0  0  0  0  0  0  0
   54.0420   21.2814   45.7703 H   0  0  0  0  0  0  0  0  0  0  0  0
   54.9702   22.7488   45.2148 H   0  0  0  0  0  0  0  0  0  0  0  0
   57.0820   24.4900   44.3060 C   0  0  0  0  0  0  0  0  0  0  0  0
   56.1631   24.7517   43.7609 H   0  0  0  0  0  0  0  0  0  0  0  0
   58.6730   30.6680   44.5790 S   0  0  0  0  0  0  0  0  0  0  0  0
   59.0480   34.5160   47.5020 C   0  0  0  0  0  0  0  0  0  0  0  0
   58.0085   34.8757   47.4940 H   0  0  0  0  0  0  0  0  0  0  0  0
  1  2  1  0
  2  3  2  0
  3  4  1  0
  3  5  1  0
  5  6  1  0
  5  7  2  0
  7  8  1  0
  7  9  1  0
  9 10  1  0
 10 11  1  0
 10 12  1  0
 10 13  1  0
 13 14  2  0
 13 15  1  0
 15 16  2  0
 16 17  1  0
 17 18  1  0
 18 19  2  0
 19 20  1  0
 20 21  2  0
 20 22  1  0
 22 23  1  0
 22 24  1  0
 24 25  2  0
 25 26  1  0
 25 27  1  0
 27 28  1  0
 27 29  2  0
 29 30  1  0
 29 31  1  0
 31 32  1  0
 32 33  2  0
 32 34  2  0
 32 35  1  0
 35 36  1  0
 36 37  1  0
 36 38  1  0
 36 39  1  0
 39 40  1  0
 39 41  1  0
 39 42  1  0
 42 43  1  0
 42 44  1  0
 42 45  1  0
 45 46  1  0
 45 47  1  0
 45 48  1  0
 48 49  1  0
 48 50  1  0
 31 51  2  0
 51 52  1  0
 19 53  1  0
  9 54  2  0
 54 55  1  0
 54  2  1  0
 53 16  1  0
 51 24  1  0
 48 35  1  0
M  CHG  1  17  -1
M  END
>  <UniqueID>  (60) 
58

>  <SMILES>  (60) 
O=C(Cc1cccc(Br)c1)/N=c1\[n-]nc(C(=O)Nc2cccc(S(=O)(=O)N3CCCCC3)c2)s1

>  <Energy>  (60) 
103.7770057750086

>  <Genealogy>  (60) 
O=C(Cc1cccc(Br)c1)N=c1[n-]nc(C(=O)Nc2cccc(S(=O)(=O)N3CCCCC3)c2)s1 (protonated)
O=C(Cc1cccc(Br)c1)/N=c1\[n-]nc(C(=O)Nc2cccc(S(=O)(=O)N3CCCCC3)c2)s1 (cis-trans isomerization)
O=C(Cc1cccc(Br)c1)/N=c1\[n-]nc(C(=O)Nc2cccc(S(=O)(=O)N3CCCCC3)c2)s1 (3D coordinates assigned)
O=C(Cc1cccc(Br)c1)/N=c1\[n-]nc(C(=O)Nc2cccc(S(=O)(=O)N3CCCCC3)c2)s1 (nonaromatic ring conformer: 103.7770057750086 kcal/mol)

>  <smiles>  (60) 
O=C(Cc1cccc(Br)c1)N=c1[nH]nc(C(=O)Nc2cccc(S(=O)(=O)N3CCCCC3)c2)s1

>  <score_type>  (60) 
oracle

>  <origin>  (60) 
adg

>  <m_score__min__energy>  (60) 
-12.41

>  <m_primary>  (60) 
energy

$$$$
60:0
     RDKit          3D

 52 55  0  0  0  0  0  0  0  0999 V2000
   67.1950   33.1840   50.5460 C   0  0  0  0  0  0  0  0  0  0  0  0
   65.6730   33.2880   50.5600 C   0  0  0  0  0  0  0  0  0  0  0  0
   65.1190   32.7690   49.3510 O   0  0  0  0  0  0  0  0  0  0  0  0
   63.8930   33.1500   48.7830 C   0  0  0  0  0  0  0  0  0  0  0  0
   63.7940   33.1790   47.3870 C   0  0  0  0  0  0  0  0  0  0  0  0
   62.5980   33.5530   46.7650 C   0  0  0  0  0  0  0  0  0  0  0  0
   61.4800   33.9010   47.5370 C   0  0  0  0  0  0  0  0  0  0  0  0
   60.1960   34.3340   46.8740 C   0  0  0  0  0  0  0  0  0  0  0  0
   59.2670   33.1940   46.7240 N   0  0  0  0  0  0  0  0  0  0  0  0
   58.3720   33.0630   47.9040 C   0  0  0  0  0  0  0  0  0  0  0  0
   58.8690   32.0150   48.9060 C   0  0  0  0  0  0  0  0  0  0  0  0
   58.9530   30.6210   48.2610 C   0  0  0  0  0  0  0  0  0  0  0  0
   59.1850   30.6800   46.7270 C   0  0  2  0  0  0  0  0  0  0  0  0
   59.8720   29.4700   46.2290 N   0  0  0  0  0  0  0  0  0  0  0  0
   59.0190   28.3070   46.3190 C   0  0  0  0  0  0  0  0  0  0  0  0
   59.5510   27.0650   46.7590 C   0  0  0  0  0  0  0  0  0  0  0  0
   58.7370   25.9190   46.8310 C   0  0  0  0  0  0  0  0  0  0  0  0
   57.4030   26.0480   46.4550 C   0  0  0  0  0  0  0  0  0  0  0  0
   56.4600   25.0950   46.4430 N   0  0  0  0  0  0  0  0  0  0  0  0
   55.3750   25.7760   45.9960 C   0  0  0  0  0  0  0  0  0  0  0  0
   54.2530   25.2290   45.8380 O   0  0  0  0  0  0  0  0  0  0  0  0
   55.5860   27.0900   45.7290 N   0  0  0  0  0  0  0  0  0  0  0  0
   56.8850   27.2330   46.0310 C   0  0  0  0  0  0  0  0  0  0  0  0
   57.6550   28.3880   45.9470 C   0  0  0  0  0  0  0  0  0  0  0  0
   59.9950   31.9450   46.3750 C   0  0  0  0  0  0  0  0  0  0  0  0
   61.5770   33.8830   48.9360 C   0  0  0  0  0  0  0  0  0  0  0  0
   62.7720   33.5100   49.5570 C   0  0  0  0  0  0  0  0  0  0  0  0
   67.5703   33.1584   51.5797 H   0  0  0  0  0  0  0  0  0  0  0  0
   67.4948   32.2633   50.0241 H   0  0  0  0  0  0  0  0  0  0  0  0
   67.6173   34.0554   50.0241 H   0  0  0  0  0  0  0  0  0  0  0  0
   65.2800   32.7143   51.4123 H   0  0  0  0  0  0  0  0  0  0  0  0
   65.3925   34.3478   50.6503 H   0  0  0  0  0  0  0  0  0  0  0  0
   64.6648   32.9051   46.7733 H   0  0  0  0  0  0  0  0  0  0  0  0
   62.5343   33.5742   45.6671 H   0  0  0  0  0  0  0  0  0  0  0  0
   59.7171   35.1098   47.4895 H   0  0  0  0  0  0  0  0  0  0  0  0
   60.4329   34.7271   45.8743 H   0  0  0  0  0  0  0  0  0  0  0  0
   58.3139   34.0368   48.4122 H   0  0  0  0  0  0  0  0  0  0  0  0
   57.3865   32.7361   47.5406 H   0  0  0  0  0  0  0  0  0  0  0  0
   59.8682   32.3057   49.2626 H   0  0  0  0  0  0  0  0  0  0  0  0
   58.1558   31.9684   49.7422 H   0  0  0  0  0  0  0  0  0  0  0  0
   59.7866   30.0705   48.7215 H   0  0  0  0  0  0  0  0  0  0  0  0
   57.9889   30.1193   48.4308 H   0  0  0  0  0  0  0  0  0  0  0  0
   58.2031   30.7230   46.2329 H   0  0  0  0  0  0  0  0  0  0  0  0
   60.7610   29.3130   46.7610 H   0  0  0  0  0  0  0  0  0  0  0  0
   60.1340   29.6040   45.2250 H   0  0  0  0  0  0  0  0  0  0  0  0
   60.6107   26.9984   47.0465 H   0  0  0  0  0  0  0  0  0  0  0  0
   59.1411   24.9546   47.1726 H   0  0  0  0  0  0  0  0  0  0  0  0
   57.2175   29.3364   45.6018 H   0  0  0  0  0  0  0  0  0  0  0  0
   60.9453   31.9225   46.9286 H   0  0  0  0  0  0  0  0  0  0  0  0
   60.1645   31.9456   45.2881 H   0  0  0  0  0  0  0  0  0  0  0  0
   60.7073   34.1641   49.5480 H   0  0  0  0  0  0  0  0  0  0  0  0
   62.8378   33.4974   50.6550 H   0  0  0  0  0  0  0  0  0  0  0  0
  1  2  1  0
  2  3  1  0
  3  4  1  0
  4  5  2  0
  5  6  1  0
  6  7  2  0
  7  8  1  0
  8  9  1  0
  9 10  1  0
 10 11  1  0
 11 12  1  0
 12 13  1  0
 13 14  1  0
 14 15  1  0
 15 16  2  0
 16 17  1  0
 17 18  2  0
 18 19  1  0
 19 20  1  0
 20 21  2  0
 20 22  1  0
 22 23  1  0
 23 24  2  0
 13 25  1  0
  7 26  1  0
 26 27  2  0
 27  4  1  0
 25  9  1  0
 24 15  1  0
 23 18  1  0
  1 28  1  0
  1 29  1  0
  1 30  1  0
  2 31  1  0
  2 32  1  0
  5 33  1  0
  6 34  1  0
  8 35  1  0
  8 36  1  0
 10 37  1  0
 10 38  1  0
 11 39  1  0
 11 40  1  0
 12 41  1  0
 12 42  1  0
 13 43  1  6
 14 44  1  0
 14 45  1  0
 16 46  1  0
 17 47  1  0
 24 48  1  0
 25 49  1  0
 25 50  1  0
 26 51  1  0
 27 52  1  0
M  CHG  3  14   1  19  -1  22  -1
M  END
>  <UniqueID>  (61) 
59

>  <SMILES>  (61) 
CCOc1ccc(CN2CCC[C@H]([NH2+]c3ccc4[n-]c(=O)[n-]c4c3)C2)cc1

>  <Energy>  (61) 
98.05346521629025

>  <Genealogy>  (61) 
CCOc1ccc(CN2CCCC([NH2+]c3ccc4[n-]c(=O)[n-]c4c3)C2)cc1 (protonated)
CCOc1ccc(CN2CCC[C@H]([NH2+]c3ccc4[n-]c(=O)[n-]c4c3)C2)cc1 (chirality)
CCOc1ccc(CN2CCC[C@H]([NH2+]c3ccc4[n-]c(=O)[n-]c4c3)C2)cc1 (3D coordinates assigned)
CCOc1ccc(CN2CCC[C@H]([NH2+]c3ccc4[n-]c(=O)[n-]c4c3)C2)cc1 (nonaromatic ring conformer: 98.05346521629025 kcal/mol)

>  <smiles>  (61) 
CCOc1ccc(CN2CCCC(Nc3ccc4[nH]c(=O)[nH]c4c3)C2)cc1

>  <score_type>  (61) 
oracle

>  <origin>  (61) 
adg

>  <m_score__min__energy>  (61) 
-10.52

>  <m_primary>  (61) 
energy

$$$$
61:0
     RDKit          3D

 53 56  0  0  0  0  0  0  0  0999 V2000
   56.9640   30.4830   54.5340 C   0  0  0  0  0  0  0  0  0  0  0  0
   56.8960   31.5880   53.6400 O   0  0  0  0  0  0  0  0  0  0  0  0
   57.6380   31.6940   52.4530 C   0  0  0  0  0  0  0  0  0  0  0  0
   58.2620   32.8920   52.0570 C   0  0  0  0  0  0  0  0  0  0  0  0
   58.9930   32.9450   50.8660 C   0  0  0  0  0  0  0  0  0  0  0  0
   59.1210   31.8000   50.0600 C   0  0  0  0  0  0  0  0  0  0  0  0
   59.8420   31.8130   48.8580 O   0  0  0  0  0  0  0  0  0  0  0  0
   59.4110   31.1980   47.6790 C   0  0  0  0  0  0  0  0  0  0  0  0
   59.9470   30.0300   47.2500 N   0  0  0  0  0  0  0  0  0  0  0  0
   59.2400   29.7730   46.1340 C   0  0  0  0  0  0  0  0  0  0  0  0
   58.3210   30.7460   45.9050 C   0  0  0  0  0  0  0  0  0  0  0  0
   57.4310   30.6190   44.8370 C   0  0  0  0  0  0  0  0  0  0  0  0
   56.5330   31.4780   44.6350 O   0  0  0  0  0  0  0  0  0  0  0  0
   57.5420   29.5160   44.0200 N   0  0  0  0  0  0  0  0  0  0  0  0
   56.6500   29.3780   42.8550 C   0  0  0  0  0  0  0  0  0  0  0  0
   58.5230   28.5690   44.2520 C   0  0  0  0  0  0  0  0  0  0  0  0
   58.6340   27.5740   43.4790 O   0  0  0  0  0  0  0  0  0  0  0  0
   59.3830   28.6940   45.3200 N   0  0  0  0  0  0  0  0  0  0  0  0
   60.3840   27.6580   45.6130 C   0  0  0  0  0  0  0  0  0  0  0  0
   58.4360   31.6950   46.8630 N   0  0  0  0  0  0  0  0  0  0  0  0
   57.7600   32.9990   46.9690 C   0  0  0  0  0  0  0  0  0  0  0  0
   58.7530   34.1630   47.1120 C   0  0  0  0  0  0  0  0  0  0  0  0
   60.1230   34.0890   45.8980 S   0  0  0  0  0  0  0  0  0  0  0  0
   61.4210   33.8430   47.1120 C   0  0  0  0  0  0  0  0  0  0  0  0
   62.6510   33.2900   46.7300 C   0  0  0  0  0  0  0  0  0  0  0  0
   63.6610   33.1050   47.6790 C   0  0  0  0  0  0  0  0  0  0  0  0
   63.4500   33.4850   49.0090 C   0  0  0  0  0  0  0  0  0  0  0  0
   62.2320   34.0570   49.3880 C   0  0  0  0  0  0  0  0  0  0  0  0
   61.2220   34.2430   48.4380 C   0  0  0  0  0  0  0  0  0  0  0  0
   58.4870   30.6160   50.4490 C   0  0  0  0  0  0  0  0  0  0  0  0
   57.7550   30.5610   51.6390 C   0  0  0  0  0  0  0  0  0  0  0  0
   56.9415   30.8486   55.5712 H   0  0  0  0  0  0  0  0  0  0  0  0
   56.1051   29.8179   54.3609 H   0  0  0  0  0  0  0  0  0  0  0  0
   57.8980   29.9283   54.3609 H   0  0  0  0  0  0  0  0  0  0  0  0
   58.1743   33.7897   52.6866 H   0  0  0  0  0  0  0  0  0  0  0  0
   59.4702   33.8871   50.5582 H   0  0  0  0  0  0  0  0  0  0  0  0
   55.6179   29.2183   43.2003 H   0  0  0  0  0  0  0  0  0  0  0  0
   56.6958   30.2939   42.2476 H   0  0  0  0  0  0  0  0  0  0  0  0
   56.9705   28.5188   42.2476 H   0  0  0  0  0  0  0  0  0  0  0  0
   60.4900   27.5483   46.7024 H   0  0  0  0  0  0  0  0  0  0  0  0
   60.0596   26.7012   45.1779 H   0  0  0  0  0  0  0  0  0  0  0  0
   61.3514   27.9494   45.1779 H   0  0  0  0  0  0  0  0  0  0  0  0
   57.1563   33.1587   46.0634 H   0  0  0  0  0  0  0  0  0  0  0  0
   57.1331   32.9796   47.8727 H   0  0  0  0  0  0  0  0  0  0  0  0
   58.2084   35.1079   46.9686 H   0  0  0  0  0  0  0  0  0  0  0  0
   59.1986   34.0938   48.1153 H   0  0  0  0  0  0  0  0  0  0  0  0
   62.8219   33.0012   45.6824 H   0  0  0  0  0  0  0  0  0  0  0  0
   64.6218   32.6606   47.3799 H   0  0  0  0  0  0  0  0  0  0  0  0
   64.2427   33.3336   49.7565 H   0  0  0  0  0  0  0  0  0  0  0  0
   62.0679   34.3606   50.4325 H   0  0  0  0  0  0  0  0  0  0  0  0
   60.2687   34.7050   48.7343 H   0  0  0  0  0  0  0  0  0  0  0  0
   58.5647   29.7211   49.8141 H   0  0  0  0  0  0  0  0  0  0  0  0
   57.2677   29.6211   51.9377 H   0  0  0  0  0  0  0  0  0  0  0  0
  1  2  1  0
  2  3  1  0
  3  4  2  0
  4  5  1  0
  5  6  2  0
  6  7  1  0
  7  8  1  0
  8  9  2  0
  9 10  1  0
 10 11  2  0
 11 12  1  0
 12 13  2  0
 12 14  1  0
 14 15  1  0
 14 16  1  0
 16 17  2  0
 16 18  1  0
 18 19  1  0
 11 20  1  0
 20 21  1  0
 21 22  1  0
 22 23  1  0
 23 24  1  0
 24 25  2  0
 25 26  1  0
 26 27  2  0
 27 28  1  0
 28 29  2  0
  6 30  1  0
 30 31  2  0
 31  3  1  0
 20  8  1  0
 29 24  1  0
 18 10  1  0
  1 32  1  0
  1 33  1  0
  1 34  1  0
  4 35  1  0
  5 36  1  0
 15 37  1  0
 15 38  1  0
 15 39  1  0
 19 40  1  0
 19 41  1  0
 19 42  1  0
 21 43  1  0
 21 44  1  0
 22 45  1  0
 22 46  1  0
 25 47  1  0
 26 48  1  0
 27 49  1  0
 28 50  1  0
 29 51  1  0
 30 52  1  0
 31 53  1  0
M  END
>  <UniqueID>  (62) 
60

>  <SMILES>  (62) 
COc1ccc(Oc2nc3c(c(=O)n(C)c(=O)n3C)n2CCSc2ccccc2)cc1

>  <Energy>  (62) 
106.02147474782804

>  <Genealogy>  (62) 
COc1ccc(Oc2nc3c(c(=O)n(C)c(=O)n3C)n2CCSc2ccccc2)cc1 (3D coordinates assigned)
COc1ccc(Oc2nc3c(c(=O)n(C)c(=O)n3C)n2CCSc2ccccc2)cc1 (optimized conformer: 106.02147474782804 kcal/mol)

>  <smiles>  (62) 
COc1ccc(Oc2nc3c(c(=O)n(C)c(=O)n3C)n2CCSc2ccccc2)cc1

>  <score_type>  (62) 
oracle

>  <origin>  (62) 
adg

>  <m_score__min__energy>  (62) 
-7.6699999999999999

>  <m_primary>  (62) 
energy

$$$$
62:0
     RDKit          3D

 52 54  0  0  0  0  0  0  0  0999 V2000
   56.2960   22.4890   42.7180 C   0  0  0  0  0  0  0  0  0  0  0  0
   57.3980   21.9800   43.6410 C   0  0  0  0  0  0  0  0  0  0  0  0
   57.4020   22.7410   44.8940 N   0  0  0  0  0  0  0  0  0  0  0  0
   57.2400   24.0690   45.0480 C   0  0  0  0  0  0  0  0  0  0  0  0
   57.0850   24.9910   44.0130 O   0  0  0  0  0  0  0  0  0  0  0  0
   57.2490   24.3690   46.3920 C   0  0  0  0  0  0  0  0  0  0  0  0
   57.1810   25.7380   46.9960 C   0  0  0  0  0  0  0  0  0  0  0  0
   56.4630   26.6840   46.0840 C   0  0  0  0  0  0  0  0  0  0  0  0
   55.2060   26.6250   45.9930 O   0  0  0  0  0  0  0  0  0  0  0  0
   57.2160   27.5690   45.2440 N   0  0  0  0  0  0  0  0  0  0  0  0
   57.6330   28.9100   45.5490 C   0  0  0  0  0  0  0  0  0  0  0  0
   58.6540   29.1510   46.4860 C   0  0  0  0  0  0  0  0  0  0  0  0
   59.0940   30.4480   46.7410 C   0  0  0  0  0  0  0  0  0  0  0  0
   58.5430   31.5290   46.0480 C   0  0  0  0  0  0  0  0  0  0  0  0
   59.0950   33.1740   46.3770 S   0  0  0  0  0  0  0  0  0  0  0  0
   58.0680   33.8780   47.2180 O   0  0  0  0  0  0  0  0  0  0  0  0
   59.2290   33.9250   45.0810 O   0  0  0  0  0  0  0  0  0  0  0  0
   60.6330   33.1820   47.2050 N   0  0  0  0  0  0  0  0  0  0  0  0
   61.6610   33.8350   46.3780 C   0  0  0  0  0  0  0  0  0  0  0  0
   63.0570   33.6040   46.9850 C   0  0  0  0  0  0  0  0  0  0  0  0
   63.0030   33.3610   48.5050 C   0  0  0  0  0  0  0  0  0  0  0  0
   61.8770   34.1690   49.1550 C   0  0  0  0  0  0  0  0  0  0  0  0
   60.5050   33.8520   48.5180 C   0  0  0  0  0  0  0  0  0  0  0  0
   57.5510   31.3000   45.0880 C   0  0  0  0  0  0  0  0  0  0  0  0
   57.0810   29.9970   44.8280 C   0  0  0  0  0  0  0  0  0  0  0  0
   56.0450   29.8010   43.8420 N   0  0  0  0  0  0  0  0  0  0  0  0
   54.9200   29.3830   44.1850 O   0  0  0  0  0  0  0  0  0  0  0  0
   56.2970   29.9830   42.5010 O   0  0  0  0  0  0  0  0  0  0  0  0
   57.4190   23.2350   47.1020 N   0  0  0  0  0  0  0  0  0  0  0  0
   57.4920   22.2670   46.1620 C   0  0  0  0  0  0  0  0  0  0  0  0
   57.6680   20.6820   46.5470 S   0  0  0  0  0  0  0  0  0  0  0  0
   55.4612   22.8746   43.3216 H   0  0  0  0  0  0  0  0  0  0  0  0
   56.6926   23.2952   42.0833 H   0  0  0  0  0  0  0  0  0  0  0  0
   55.9394   21.6644   42.0833 H   0  0  0  0  0  0  0  0  0  0  0  0
   57.2239   20.9167   43.8625 H   0  0  0  0  0  0  0  0  0  0  0  0
   58.3702   22.1059   43.1420 H   0  0  0  0  0  0  0  0  0  0  0  0
   56.5640   25.8500   44.1340 H   0  0  0  0  0  0  0  0  0  0  0  0
   56.6444   25.6834   47.9547 H   0  0  0  0  0  0  0  0  0  0  0  0
   58.2055   26.1067   47.1524 H   0  0  0  0  0  0  0  0  0  0  0  0
   59.1099   28.3063   47.0232 H   0  0  0  0  0  0  0  0  0  0  0  0
   59.8791   30.6219   47.4916 H   0  0  0  0  0  0  0  0  0  0  0  0
   61.6321   33.4135   45.3624 H   0  0  0  0  0  0  0  0  0  0  0  0
   61.4595   34.9158   46.3418 H   0  0  0  0  0  0  0  0  0  0  0  0
   63.5111   32.7258   46.5027 H   0  0  0  0  0  0  0  0  0  0  0  0
   63.6529   34.5121   46.8113 H   0  0  0  0  0  0  0  0  0  0  0  0
   62.8304   32.2907   48.6914 H   0  0  0  0  0  0  0  0  0  0  0  0
   63.9596   33.6816   48.9432 H   0  0  0  0  0  0  0  0  0  0  0  0
   61.8370   33.9262   50.2271 H   0  0  0  0  0  0  0  0  0  0  0  0
   62.0882   35.2374   49.0005 H   0  0  0  0  0  0  0  0  0  0  0  0
   59.9441   33.1933   49.1973 H   0  0  0  0  0  0  0  0  0  0  0  0
   59.9817   34.8062   48.3576 H   0  0  0  0  0  0  0  0  0  0  0  0
   57.1320   32.1492   44.5282 H   0  0  0  0  0  0  0  0  0  0  0  0
  1  2  1  0
  2  3  1  0
  3  4  1  0
  4  5  1  0
  4  6  2  0
  6  7  1  0
  7  8  1  0
  8  9  2  0
  8 10  1  0
 10 11  1  0
 11 12  2  0
 12 13  1  0
 13 14  2  0
 14 15  1  0
 15 16  2  0
 15 17  2  0
 15 18  1  0
 18 19  1  0
 19 20  1  0
 20 21  1  0
 21 22  1  0
 22 23  1  0
 14 24  1  0
 24 25  2  0
 25 26  1  0
 26 27  2  0
 26 28  1  0
  6 29  1  0
 29 30  1  0
 30 31  2  0
 30  3  1  0
 25 11  1  0
 23 18  1  0
  1 32  1  0
  1 33  1  0
  1 34  1  0
  2 35  1  0
  2 36  1  0
  5 37  1  0
  7 38  1  0
  7 39  1  0
 12 40  1  0
 13 41  1  0
 19 42  1  0
 19 43  1  0
 20 44  1  0
 20 45  1  0
 21 46  1  0
 21 47  1  0
 22 48  1  0
 22 49  1  0
 23 50  1  0
 23 51  1  0
 24 52  1  0
M  CHG  4  10  -1  26   1  28  -1  29  -1
M  END
>  <UniqueID>  (63) 
61

>  <SMILES>  (63) 
CCn1c(O)c(CC(=O)[N-]c2ccc(S(=O)(=O)N3CCCCC3)cc2[N+](=O)[O-])[n-]c1=S

>  <Energy>  (63) 
88.57848628317592

>  <Genealogy>  (63) 
CCn1c(O)c(CC(=O)[N-]c2ccc(S(=O)(=O)N3CCCCC3)cc2[N+](=O)[O-])[n-]c1=S (protonated)
CCn1c(O)c(CC(=O)[N-]c2ccc(S(=O)(=O)N3CCCCC3)cc2[N+](=O)[O-])[n-]c1=S (3D coordinates assigned)
CCn1c(O)c(CC(=O)[N-]c2ccc(S(=O)(=O)N3CCCCC3)cc2[N+](=O)[O-])[n-]c1=S (nonaromatic ring conformer: 88.57848628317592 kcal/mol)

>  <smiles>  (63) 
CCn1c(O)c(CC(=O)Nc2ccc(S(=O)(=O)N3CCCCC3)cc2[N+](=O)[O-])[nH]c1=S

>  <score_type>  (63) 
oracle

>  <origin>  (63) 
adg

>  <m_score__min__energy>  (63) 
-13.35

>  <m_primary>  (63) 
energy

$$$$
63:0
     RDKit          3D

 47 50  0  0  0  0  0  0  0  0999 V2000
   64.0260   33.2040   49.3260 C   0  0  0  0  0  0  0  0  0  0  0  0
   63.1800   33.3570   48.1480 N   0  0  0  0  0  0  0  0  0  0  0  0
   63.6110   33.4860   46.8800 C   0  0  0  0  0  0  0  0  0  0  0  0
   62.5950   33.5800   46.0010 N   0  0  0  0  0  0  0  0  0  0  0  0
   61.4670   33.5000   46.7460 C   0  0  0  0  0  0  0  0  0  0  0  0
   60.1280   33.5850   46.1040 C   0  0  0  0  0  0  0  0  0  0  0  0
   59.4850   34.7930   45.7760 C   0  0  0  0  0  0  0  0  0  0  0  0
   58.2200   34.7610   45.1920 C   0  0  0  0  0  0  0  0  0  0  0  0
   57.6180   33.5370   44.8820 C   0  0  0  0  0  0  0  0  0  0  0  0
   58.2970   32.3420   45.1700 C   0  0  0  0  0  0  0  0  0  0  0  0
   57.7350   31.0520   44.8260 N   0  0  0  0  0  0  0  0  0  0  0  0
   56.7730   30.9340   43.7210 C   0  0  0  0  0  0  0  0  0  0  0  0
   55.5160   30.2260   44.2270 C   0  0  0  0  0  0  0  0  0  0  0  0
   55.8670   28.9520   44.8560 N   0  0  0  0  0  0  0  0  0  0  0  0
   57.1070   28.7790   45.5600 C   0  0  0  0  0  0  0  0  0  0  0  0
   57.3220   27.7010   46.1910 O   0  0  0  0  0  0  0  0  0  0  0  0
   58.1920   29.8240   45.5010 C   0  0  0  0  0  0  0  0  0  0  0  0
   59.5170   32.4090   45.7720 N   0  0  0  0  0  0  0  0  0  0  0  0
   61.8310   33.3400   48.0870 C   0  0  0  0  0  0  0  0  0  0  0  0
   60.7680   33.1270   49.5300 S   0  0  0  0  0  0  0  0  0  0  0  0
   60.3870   31.3970   49.1810 C   0  0  0  0  0  0  0  0  0  0  0  0
   61.3760   30.4230   49.4000 C   0  0  0  0  0  0  0  0  0  0  0  0
   61.1130   29.0730   49.1340 C   0  0  0  0  0  0  0  0  0  0  0  0
   59.8650   28.6840   48.6370 C   0  0  0  0  0  0  0  0  0  0  0  0
   59.5450   26.9970   48.2720 Cl  0  0  0  0  0  0  0  0  0  0  0  0
   58.8780   29.6490   48.4020 C   0  0  0  0  0  0  0  0  0  0  0  0
   59.1320   31.0110   48.6570 C   0  0  0  0  0  0  0  0  0  0  0  0
   58.1220   31.9800   48.3340 N   0  0  0  0  0  0  0  0  0  0  0  0
   63.4144   33.3146   50.2336 H   0  0  0  0  0  0  0  0  0  0  0  0
   64.4910   32.2072   49.3165 H   0  0  0  0  0  0  0  0  0  0  0  0
   64.8107   33.9748   49.3165 H   0  0  0  0  0  0  0  0  0  0  0  0
   64.6728   33.5118   46.5937 H   0  0  0  0  0  0  0  0  0  0  0  0
   59.9772   35.7555   45.9791 H   0  0  0  0  0  0  0  0  0  0  0  0
   57.6931   35.7017   44.9741 H   0  0  0  0  0  0  0  0  0  0  0  0
   56.6216   33.5108   44.4168 H   0  0  0  0  0  0  0  0  0  0  0  0
   56.5087   31.9367   43.3538 H   0  0  0  0  0  0  0  0  0  0  0  0
   57.2202   30.3544   42.9000 H   0  0  0  0  0  0  0  0  0  0  0  0
   55.0106   30.8672   44.9642 H   0  0  0  0  0  0  0  0  0  0  0  0
   54.8482   30.0315   43.3748 H   0  0  0  0  0  0  0  0  0  0  0  0
   55.1520   28.1870   44.8850 H   0  0  0  0  0  0  0  0  0  0  0  0
   58.5000   30.0754   46.5266 H   0  0  0  0  0  0  0  0  0  0  0  0
   59.0330   29.4107   44.9249 H   0  0  0  0  0  0  0  0  0  0  0  0
   62.3628   30.7225   49.7827 H   0  0  0  0  0  0  0  0  0  0  0  0
   61.8905   28.3166   49.3166 H   0  0  0  0  0  0  0  0  0  0  0  0
   57.8956   29.3409   48.0148 H   0  0  0  0  0  0  0  0  0  0  0  0
   58.0810   32.4460   47.3990 H   0  0  0  0  0  0  0  0  0  0  0  0
   57.3860   32.2330   49.0330 H   0  0  0  0  0  0  0  0  0  0  0  0
  1  2  1  0
  2  3  1  0
  3  4  2  0
  4  5  1  0
  5  6  1  0
  6  7  2  0
  7  8  1  0
  8  9  2  0
  9 10  1  0
 10 11  1  0
 11 12  1  0
 12 13  1  0
 13 14  1  0
 14 15  1  0
 15 16  2  0
 15 17  1  0
 10 18  2  0
  5 19  2  0
 19 20  1  0
 20 21  1  0
 21 22  2  0
 22 23  1  0
 23 24  2  0
 24 25  1  0
 24 26  1  0
 26 27  2  0
 27 28  1  0
 19  2  1  0
 27 21  1  0
 18  6  1  0
 17 11  1  0
  1 29  1  0
  1 30  1  0
  1 31  1  0
  3 32  1  0
  7 33  1  0
  8 34  1  0
  9 35  1  0
 12 36  1  0
 12 37  1  0
 13 38  1  0
 13 39  1  0
 14 40  1  0
 17 41  1  0
 17 42  1  0
 22 43  1  0
 23 44  1  0
 26 45  1  0
 28 46  1  0
 28 47  1  0
M  END
>  <UniqueID>  (64) 
62

>  <SMILES>  (64) 
Cn1cnc(-c2cccc(N3CCNC(=O)C3)n2)c1Sc1ccc(Cl)cc1N

>  <Energy>  (64) 
83.72519128969054

>  <Genealogy>  (64) 
Cn1cnc(-c2cccc(N3CCNC(=O)C3)n2)c1Sc1ccc(Cl)cc1N (3D coordinates assigned)
Cn1cnc(-c2cccc(N3CCNC(=O)C3)n2)c1Sc1ccc(Cl)cc1N (nonaromatic ring conformer: 83.72519128969054 kcal/mol)

>  <smiles>  (64) 
Cn1cnc(-c2cccc(N3CCNC(=O)C3)n2)c1Sc1ccc(Cl)cc1N

>  <score_type>  (64) 
oracle

>  <origin>  (64) 
adg

>  <m_score__min__energy>  (64) 
-8.4199999999999999

>  <m_primary>  (64) 
energy

$$$$
64:0
     RDKit          3D

 38 39  0  0  0  0  0  0  0  0999 V2000
   56.3590   24.5060   44.5210 C   0  0  0  0  0  0  0  0  0  0  0  0
   55.4540   25.3750   45.7830 S   0  0  0  0  0  0  0  0  0  0  0  0
   55.8940   24.8700   47.1280 O   0  0  0  0  0  0  0  0  0  0  0  0
   53.9790   25.1300   45.6350 O   0  0  0  0  0  0  0  0  0  0  0  0
   55.7850   27.0760   45.6930 N   0  0  0  0  0  0  0  0  0  0  0  0
   57.0500   27.7000   45.9540 C   0  0  0  0  0  0  0  0  0  0  0  0
   57.4110   28.8200   45.1960 C   0  0  0  0  0  0  0  0  0  0  0  0
   58.6330   29.4620   45.4140 C   0  0  0  0  0  0  0  0  0  0  0  0
   59.5230   28.9800   46.3900 C   0  0  0  0  0  0  0  0  0  0  0  0
   60.7760   29.6220   46.6640 N   0  0  0  0  0  0  0  0  0  0  0  0
   60.9770   30.8150   47.4340 C   0  0  0  0  0  0  0  0  0  0  0  0
   61.6620   30.7670   48.4930 O   0  0  0  0  0  0  0  0  0  0  0  0
   60.3350   32.0950   47.0230 C   0  0  0  0  0  0  0  0  0  0  0  0
   58.9950   32.1700   46.9130 C   0  0  0  0  0  0  0  0  0  0  0  0
   58.2450   33.4260   46.4850 C   0  0  2  0  0  0  0  0  0  0  0  0
   57.3500   33.7950   47.5080 O   0  0  0  0  0  0  0  0  0  0  0  0
   57.4930   33.1380   45.2030 C   0  0  0  0  0  0  0  0  0  0  0  0
   58.1080   33.3710   43.9340 N   0  0  0  0  0  0  0  0  0  0  0  0
   56.3050   32.7190   45.2440 O   0  0  0  0  0  0  0  0  0  0  0  0
   59.1500   34.6120   46.2310 C   0  0  0  0  0  0  0  0  0  0  0  0
   60.4750   34.5500   46.3400 C   0  0  0  0  0  0  0  0  0  0  0  0
   61.1420   33.3060   46.7320 C   0  0  0  0  0  0  0  0  0  0  0  0
   62.3990   33.2920   46.8200 O   0  0  0  0  0  0  0  0  0  0  0  0
   59.1520   27.8740   47.1640 C   0  0  0  0  0  0  0  0  0  0  0  0
   57.9300   27.2310   46.9450 C   0  0  0  0  0  0  0  0  0  0  0  0
   57.0760   23.8176   44.9922 H   0  0  0  0  0  0  0  0  0  0  0  0
   55.6582   23.9338   43.8954 H   0  0  0  0  0  0  0  0  0  0  0  0
   56.9023   25.2295   43.8954 H   0  0  0  0  0  0  0  0  0  0  0  0
   56.7269   29.1981   44.4220 H   0  0  0  0  0  0  0  0  0  0  0  0
   58.8997   30.3482   44.8195 H   0  0  0  0  0  0  0  0  0  0  0  0
   58.4061   31.2706   47.1461 H   0  0  0  0  0  0  0  0  0  0  0  0
   56.4360   33.8400   47.1220 H   0  0  0  0  0  0  0  0  0  0  0  0
   57.5850   33.1760   43.0520 H   0  0  0  0  0  0  0  0  0  0  0  0
   59.0800   33.7480   43.8710 H   0  0  0  0  0  0  0  0  0  0  0  0
   58.6916   35.5695   45.9430 H   0  0  0  0  0  0  0  0  0  0  0  0
   61.0782   35.4462   46.1327 H   0  0  0  0  0  0  0  0  0  0  0  0
   59.8276   27.5078   47.9511 H   0  0  0  0  0  0  0  0  0  0  0  0
   57.6560   26.3545   47.5506 H   0  0  0  0  0  0  0  0  0  0  0  0
  1  2  1  0
  2  3  2  0
  2  4  2  0
  2  5  1  0
  5  6  1  0
  6  7  2  0
  7  8  1  0
  8  9  2  0
  9 10  1  0
 10 11  1  0
 11 12  2  0
 11 13  1  0
 13 14  2  0
 14 15  1  0
 15 16  1  1
 15 17  1  0
 17 18  1  0
 17 19  2  0
 15 20  1  0
 20 21  2  0
 21 22  1  0
 22 23  2  0
  9 24  1  0
 24 25  2  0
 25  6  1  0
 22 13  1  0
  1 26  1  0
  1 27  1  0
  1 28  1  0
  7 29  1  0
  8 30  1  0
 14 31  1  0
 16 32  1  0
 18 33  1  0
 18 34  1  0
 20 35  1  0
 21 36  1  0
 24 37  1  0
 25 38  1  0
M  CHG  2   5  -1  10  -1
M  END
>  <UniqueID>  (65) 
63

>  <SMILES>  (65) 
CS(=O)(=O)[N-]c1ccc([N-]C(=O)C2=C[C@](O)(C(N)=O)C=CC2=O)cc1

>  <Energy>  (65) 
43.484471322535164

>  <Genealogy>  (65) 
CS(=O)(=O)[N-]c1ccc([N-]C(=O)C2=CC(O)(C(N)=O)C=CC2=O)cc1 (protonated)
CS(=O)(=O)[N-]c1ccc([N-]C(=O)C2=C[C@](O)(C(N)=O)C=CC2=O)cc1 (chirality)
CS(=O)(=O)[N-]c1ccc([N-]C(=O)C2=C[C@](O)(C(N)=O)C=CC2=O)cc1 (3D coordinates assigned)
CS(=O)(=O)[N-]c1ccc([N-]C(=O)C2=C[C@](O)(C(N)=O)C=CC2=O)cc1 (nonaromatic ring conformer: 43.484471322535164 kcal/mol)

>  <smiles>  (65) 
CS(=O)(=O)Nc1ccc(NC(=O)C2=CC(O)(C(N)=O)C=CC2=O)cc1

>  <score_type>  (65) 
oracle

>  <origin>  (65) 
adg

>  <m_score__min__energy>  (65) 
-11.08

>  <m_primary>  (65) 
energy

$$$$
65:0
     RDKit          3D

 44 46  0  0  0  0  0  0  0  0999 V2000
   54.9030   24.0410   46.8280 H   0  0  0  0  0  0  0  0  0  0  0  0
   55.9000   24.2060   46.9080 O   0  0  0  0  0  0  0  0  0  0  0  0
   56.4870   25.4050   46.5040 C   0  0  0  0  0  0  0  0  0  0  0  0
   57.8750   25.5470   46.5940 C   0  0  0  0  0  0  0  0  0  0  0  0
   58.4846   24.7193   46.9855 H   0  0  0  0  0  0  0  0  0  0  0  0
   58.4960   26.7390   46.1880 C   0  0  0  0  0  0  0  0  0  0  0  0
   59.9820   26.9080   46.3380 C   0  0  0  0  0  0  0  0  0  0  0  0
   60.4644   26.7726   45.3587 H   0  0  0  0  0  0  0  0  0  0  0  0
   60.3602   26.1577   47.0480 H   0  0  0  0  0  0  0  0  0  0  0  0
   60.2930   28.2750   46.8580 C   0  0  0  0  0  0  0  0  0  0  0  0
   60.5950   29.6320   45.9110 S   0  0  0  0  0  0  0  0  0  0  0  0
   60.7120   30.6530   47.2500 C   0  0  0  0  0  0  0  0  0  0  0  0
   60.9340   31.9350   47.2300 N   0  0  0  0  0  0  0  0  0  0  0  0
   60.1640   32.9490   46.5610 C   0  0  0  0  0  0  0  0  0  0  0  0
   60.6820   33.6670   45.6640 O   0  0  0  0  0  0  0  0  0  0  0  0
   58.7090   33.1650   46.9120 C   0  0  0  0  0  0  0  0  0  0  0  0
   58.6567   33.2097   48.0098 H   0  0  0  0  0  0  0  0  0  0  0  0
   57.7960   31.9670   46.5510 C   0  0  0  0  0  0  0  0  0  0  0  0
   57.8623   31.2347   47.3691 H   0  0  0  0  0  0  0  0  0  0  0  0
   56.7915   32.3918   46.4079 H   0  0  0  0  0  0  0  0  0  0  0  0
   58.1300   31.2360   45.2350 C   0  0  0  0  0  0  0  0  0  0  0  0
   59.1914   30.9475   45.2508 H   0  0  0  0  0  0  0  0  0  0  0  0
   57.4738   30.3560   45.1646 H   0  0  0  0  0  0  0  0  0  0  0  0
   57.8750   32.1100   43.9980 C   0  0  0  0  0  0  0  0  0  0  0  0
   58.2712   31.5852   43.1162 H   0  0  0  0  0  0  0  0  0  0  0  0
   56.7885   32.2724   43.9418 H   0  0  0  0  0  0  0  0  0  0  0  0
   58.5290   33.4990   44.0680 C   0  0  0  0  0  0  0  0  0  0  0  0
   59.5397   33.3762   44.4844 H   0  0  0  0  0  0  0  0  0  0  0  0
   58.5148   33.8894   43.0397 H   0  0  0  0  0  0  0  0  0  0  0  0
   57.7890   34.5420   44.9230 C   0  0  0  0  0  0  0  0  0  0  0  0
   58.0032   35.5401   44.5133 H   0  0  0  0  0  0  0  0  0  0  0  0
   56.7196   34.2876   44.8808 H   0  0  0  0  0  0  0  0  0  0  0  0
   58.1910   34.5320   46.4080 C   0  0  0  0  0  0  0  0  0  0  0  0
   58.9853   35.2784   46.5560 H   0  0  0  0  0  0  0  0  0  0  0  0
   57.2821   34.7592   46.9845 H   0  0  0  0  0  0  0  0  0  0  0  0
   60.5090   29.9850   48.4060 N   0  0  0  0  0  0  0  0  0  0  0  0
   60.2730   28.6630   48.1940 C   0  0  0  0  0  0  0  0  0  0  0  0
   60.0813   27.9557   49.0143 H   0  0  0  0  0  0  0  0  0  0  0  0
   57.7090   27.7980   45.7120 C   0  0  0  0  0  0  0  0  0  0  0  0
   58.1866   28.7407   45.4065 H   0  0  0  0  0  0  0  0  0  0  0  0
   56.3200   27.6610   45.6240 C   0  0  0  0  0  0  0  0  0  0  0  0
   55.5500   28.7190   45.1560 O   0  0  0  0  0  0  0  0  0  0  0  0
   55.7060   26.4650   46.0150 C   0  0  0  0  0  0  0  0  0  0  0  0
   54.3250   26.3370   45.9230 O   0  0  0  0  0  0  0  0  0  0  0  0
  1  2  1  0
  2  3  1  0
  3  4  2  0
  4  5  1  0
  4  6  1  0
  6  7  1  0
  7  8  1  0
  7  9  1  0
  7 10  1  0
 10 11  1  0
 11 12  1  0
 12 13  2  0
 13 14  1  0
 14 15  2  0
 14 16  1  0
 16 17  1  0
 16 18  1  0
 18 19  1  0
 18 20  1  0
 18 21  1  0
 21 22  1  0
 21 23  1  0
 21 24  1  0
 24 25  1  0
 24 26  1  0
 24 27  1  0
 27 28  1  0
 27 29  1  0
 27 30  1  0
 30 31  1  0
 30 32  1  0
 30 33  1  0
 33 34  1  0
 33 35  1  0
 12 36  1  0
 36 37  1  0
 37 38  1  0
  6 39  2  0
 39 40  1  0
 39 41  1  0
 41 42  1  0
 41 43  2  0
 43 44  1  0
 43  3  1  0
 37 10  2  0
 33 16  1  0
M  CHG  3  36  -1  42  -1  44  -1
M  END
>  <UniqueID>  (66) 
64

>  <SMILES>  (66) 
O=C(/N=c1/[n-]cc(Cc2cc([O-])c([O-])c(O)c2)s1)C1CCCCCC1

>  <Energy>  (66) 
80.49551737118044

>  <Genealogy>  (66) 
O=C(N=c1[n-]cc(Cc2cc([O-])c([O-])c(O)c2)s1)C1CCCCCC1 (protonated)
O=C(/N=c1/[n-]cc(Cc2cc([O-])c([O-])c(O)c2)s1)C1CCCCCC1 (cis-trans isomerization)
O=C(/N=c1/[n-]cc(Cc2cc([O-])c([O-])c(O)c2)s1)C1CCCCCC1 (3D coordinates assigned)
O=C(/N=c1/[n-]cc(Cc2cc([O-])c([O-])c(O)c2)s1)C1CCCCCC1 (nonaromatic ring conformer: 80.49551737118044 kcal/mol)

>  <smiles>  (66) 
O=C(N=c1[nH]cc(Cc2cc(O)c(O)c(O)c2)s1)C1CCCCCC1

>  <score_type>  (66) 
oracle

>  <origin>  (66) 
adg

>  <m_score__min__energy>  (66) 
-14.529999999999999

>  <m_primary>  (66) 
energy

$$$$
66:0
     RDKit          3D

 35 37  0  0  0  0  0  0  0  0999 V2000
   59.4600   29.9960   46.6320 C   0  0  0  0  0  0  0  0  0  0  0  0
   58.8590   30.9000   45.8360 C   0  0  0  0  0  0  0  0  0  0  0  0
   58.2180   30.5640   44.6130 C   0  0  0  0  0  0  0  0  0  0  0  0
   57.8690   29.3710   44.0920 C   0  0  0  0  0  0  0  0  0  0  0  0
   57.4290   28.1830   44.8530 C   0  0  0  0  0  0  0  0  0  0  0  0
   56.0880   28.0540   45.2440 C   0  0  0  0  0  0  0  0  0  0  0  0
   55.1520   29.0160   44.8780 O   0  0  0  0  0  0  0  0  0  0  0  0
   55.6940   26.9780   45.9770 N   0  0  0  0  0  0  0  0  0  0  0  0
   56.5880   26.0250   46.3550 C   0  0  0  0  0  0  0  0  0  0  0  0
   56.2070   25.0330   47.0290 O   0  0  0  0  0  0  0  0  0  0  0  0
   57.8960   26.1440   46.0120 N   0  0  0  0  0  0  0  0  0  0  0  0
   58.3370   27.2000   45.2820 C   0  0  0  0  0  0  0  0  0  0  0  0
   59.5640   27.2890   45.0050 O   0  0  0  0  0  0  0  0  0  0  0  0
   57.8410   31.9930   43.8160 S   0  0  0  0  0  0  0  0  0  0  0  0
   58.4020   32.9800   45.0400 C   0  0  0  0  0  0  0  0  0  0  0  0
   58.3130   34.6160   44.9600 S   0  0  0  0  0  0  0  0  0  0  0  0
   58.9190   32.2620   46.0760 N   0  0  0  0  0  0  0  0  0  0  0  0
   59.4200   32.9060   47.3110 C   0  0  0  0  0  0  0  0  0  0  0  0
   60.9270   32.9640   47.3010 C   0  0  0  0  0  0  0  0  0  0  0  0
   61.6770   32.2100   48.2220 C   0  0  0  0  0  0  0  0  0  0  0  0
   63.0720   32.2860   48.2270 C   0  0  0  0  0  0  0  0  0  0  0  0
   63.7330   33.1130   47.3160 C   0  0  0  0  0  0  0  0  0  0  0  0
   62.9980   33.8660   46.3960 C   0  0  0  0  0  0  0  0  0  0  0  0
   61.6000   33.7930   46.3880 C   0  0  0  0  0  0  0  0  0  0  0  0
   59.9395   30.3196   47.5676 H   0  0  0  0  0  0  0  0  0  0  0  0
   59.4716   28.9337   46.3469 H   0  0  0  0  0  0  0  0  0  0  0  0
   57.9161   29.2723   42.9974 H   0  0  0  0  0  0  0  0  0  0  0  0
   54.6900   26.8860   46.2530 H   0  0  0  0  0  0  0  0  0  0  0  0
   59.0186   33.9281   47.3750 H   0  0  0  0  0  0  0  0  0  0  0  0
   59.0919   32.3154   48.1791 H   0  0  0  0  0  0  0  0  0  0  0  0
   61.1622   31.5570   48.9421 H   0  0  0  0  0  0  0  0  0  0  0  0
   63.6512   31.6931   48.9502 H   0  0  0  0  0  0  0  0  0  0  0  0
   64.8314   33.1717   47.3226 H   0  0  0  0  0  0  0  0  0  0  0  0
   63.5185   34.5165   45.6777 H   0  0  0  0  0  0  0  0  0  0  0  0
   61.0253   34.3880   45.6629 H   0  0  0  0  0  0  0  0  0  0  0  0
  1  2  2  0
  2  3  1  0
  3  4  2  3
  4  5  1  0
  5  6  2  0
  6  7  1  0
  6  8  1  0
  8  9  1  0
  9 10  2  0
  9 11  1  0
 11 12  1  0
 12 13  2  0
  3 14  1  0
 14 15  1  0
 15 16  2  0
 15 17  1  0
 17 18  1  0
 18 19  1  0
 19 20  2  0
 20 21  1  0
 21 22  2  0
 22 23  1  0
 23 24  2  0
 17  2  1  0
 24 19  1  0
 12  5  1  0
  1 25  1  0
  1 26  1  0
  4 27  1  0
  8 28  1  0
 18 29  1  0
 18 30  1  0
 20 31  1  0
 21 32  1  0
 22 33  1  0
 23 34  1  0
 24 35  1  0
M  CHG  2   7  -1  11  -1
M  END
>  <UniqueID>  (67) 
65

>  <SMILES>  (67) 
C=c1c(=Cc2c([O-])[nH]c(=O)[n-]c2=O)sc(=S)n1Cc1ccccc1

>  <Energy>  (67) 
89.71283854229485

>  <Genealogy>  (67) 
C=c1c(=Cc2c([O-])[nH]c(=O)[n-]c2=O)sc(=S)n1Cc1ccccc1 (protonated)
C=c1c(=Cc2c([O-])[nH]c(=O)[n-]c2=O)sc(=S)n1Cc1ccccc1 (3D coordinates assigned)
C=c1c(=Cc2c([O-])[nH]c(=O)[n-]c2=O)sc(=S)n1Cc1ccccc1 (optimized conformer: 89.71283854229485 kcal/mol)

>  <smiles>  (67) 
C=c1c(=Cc2c(O)[nH]c(=O)[nH]c2=O)sc(=S)n1Cc1ccccc1

>  <score_type>  (67) 
oracle

>  <origin>  (67) 
adg

>  <m_score__min__energy>  (67) 
-13.92

>  <m_primary>  (67) 
energy

$$$$
67:0
     RDKit          3D

 26 27  0  0  0  0  0  0  0  0999 V2000
   55.2630   30.3770   55.8580 C   0  0  0  0  0  0  0  0  0  0  0  0
   56.2450   29.6880   55.2820 C   0  0  0  0  0  0  0  0  0  0  0  0
   56.8310   30.0630   53.9720 C   0  0  0  0  0  0  0  0  0  0  0  0
   56.1600   29.8630   52.7400 C   0  0  0  0  0  0  0  0  0  0  0  0
   54.8120   29.3760   52.6740 N   0  0  0  0  0  0  0  0  0  0  0  0
   53.6660   30.2130   52.4310 C   0  0  0  0  0  0  0  0  0  0  0  0
   53.4580   30.7360   51.1440 C   0  0  0  0  0  0  0  0  0  0  0  0
   52.3540   31.5530   50.8820 C   0  0  0  0  0  0  0  0  0  0  0  0
   51.4540   31.8640   51.9040 C   0  0  0  0  0  0  0  0  0  0  0  0
   50.3570   32.6770   51.6420 O   0  0  0  0  0  0  0  0  0  0  0  0
   51.6590   31.3620   53.1920 C   0  0  0  0  0  0  0  0  0  0  0  0
   52.7620   30.5430   53.4580 C   0  0  0  0  0  0  0  0  0  0  0  0
   56.8000   30.1530   51.5760 N   0  0  0  0  0  0  0  0  0  0  0  0
   58.0500   30.6740   51.5660 C   0  0  0  0  0  0  0  0  0  0  0  0
   58.7780   31.0180   50.1460 S   0  0  0  0  0  0  0  0  0  0  0  0
   58.6920   30.9250   52.7330 N   0  0  0  0  0  0  0  0  0  0  0  0
   58.1140   30.6380   53.9280 C   0  0  0  0  0  0  0  0  0  0  0  0
   58.7500   30.8740   54.9900 O   0  0  0  0  0  0  0  0  0  0  0  0
   54.8635   30.0561   56.8313 H   0  0  0  0  0  0  0  0  0  0  0  0
   54.8508   31.2674   55.3608 H   0  0  0  0  0  0  0  0  0  0  0  0
   56.6395   28.8015   55.8001 H   0  0  0  0  0  0  0  0  0  0  0  0
   54.6770   28.3410   52.6750 H   0  0  0  0  0  0  0  0  0  0  0  0
   54.1681   30.5013   50.3373 H   0  0  0  0  0  0  0  0  0  0  0  0
   52.1939   31.9515   49.8693 H   0  0  0  0  0  0  0  0  0  0  0  0
   50.9526   31.6109   53.9976 H   0  0  0  0  0  0  0  0  0  0  0  0
   52.9233   30.1552   54.4747 H   0  0  0  0  0  0  0  0  0  0  0  0
  1  2  2  0
  2  3  1  0
  3  4  2  0
  4  5  1  0
  5  6  1  0
  6  7  2  0
  7  8  1  0
  8  9  2  0
  9 10  1  0
  9 11  1  0
 11 12  2  0
  4 13  1  0
 13 14  1  0
 14 15  2  0
 14 16  1  0
 16 17  1  0
 17 18  2  0
 17  3  1  0
 12  6  1  0
  1 19  1  0
  1 20  1  0
  2 21  1  0
  5 22  1  0
  7 23  1  0
  8 24  1  0
 11 25  1  0
 12 26  1  0
M  CHG  3  10  -1  13  -1  16  -1
M  END
>  <UniqueID>  (68) 
66

>  <SMILES>  (68) 
C=Cc1c(Nc2ccc([O-])cc2)[n-]c(=S)[n-]c1=O

>  <Energy>  (68) 
39.00022780995631

>  <Genealogy>  (68) 
C=Cc1c(Nc2ccc([O-])cc2)[n-]c(=S)[n-]c1=O (protonated)
C=Cc1c(Nc2ccc([O-])cc2)[n-]c(=S)[n-]c1=O (3D coordinates assigned)
C=Cc1c(Nc2ccc([O-])cc2)[n-]c(=S)[n-]c1=O (optimized conformer: 39.00022780995631 kcal/mol)

>  <smiles>  (68) 
C=Cc1c(Nc2ccc(O)cc2)[nH]c(=S)[nH]c1=O

>  <score_type>  (68) 
oracle

>  <origin>  (68) 
adg

>  <m_score__min__energy>  (68) 
-12.1

>  <m_primary>  (68) 
energy

$$$$
68:0
     RDKit          3D

 16 16  0  0  0  0  0  0  0  0999 V2000
   55.9230   24.5500   46.8550 O   0  0  0  0  0  0  0  0  0  0  0  0
   55.9570   25.7030   46.3500 C   0  0  0  0  0  0  0  0  0  0  0  0
   54.7700   26.3200   45.9760 O   0  0  0  0  0  0  0  0  0  0  0  0
   57.2460   26.3880   46.1610 C   0  0  0  0  0  0  0  0  0  0  0  0
   58.0710   26.4340   47.1140 O   0  0  0  0  0  0  0  0  0  0  0  0
   57.5810   27.0690   44.8680 C   0  0  0  0  0  0  0  0  0  0  0  0
   57.5670   28.5560   45.0490 C   0  0  0  0  0  0  0  0  0  0  0  0
   58.6610   29.3220   45.1850 N   0  0  0  0  0  0  0  0  0  0  0  0
   58.1880   30.5820   45.2530 C   0  0  0  0  0  0  0  0  0  0  0  0
   58.9310   31.5880   45.3880 O   0  0  0  0  0  0  0  0  0  0  0  0
   56.8430   30.6720   45.1580 N   0  0  0  0  0  0  0  0  0  0  0  0
   56.4670   29.3860   45.0230 C   0  0  0  0  0  0  0  0  0  0  0  0
   55.1480   28.9780   44.8750 O   0  0  0  0  0  0  0  0  0  0  0  0
   58.5817   26.7522   44.5389 H   0  0  0  0  0  0  0  0  0  0  0  0
   56.8322   26.7920   44.1113 H   0  0  0  0  0  0  0  0  0  0  0  0
   59.6580   29.0120   45.2240 H   0  0  0  0  0  0  0  0  0  0  0  0
  1  2  2  0
  2  3  1  0
  2  4  1  0
  4  5  2  0
  4  6  1  0
  6  7  1  0
  7  8  1  0
  8  9  1  0
  9 10  2  0
  9 11  1  0
 11 12  1  0
 12 13  1  0
 12  7  2  0
  6 14  1  0
  6 15  1  0
  8 16  1  0
M  CHG  3   3  -1  11  -1  13  -1
M  END
>  <UniqueID>  (69) 
67

>  <SMILES>  (69) 
O=C([O-])C(=O)Cc1[nH]c(=O)[n-]c1[O-]

>  <Energy>  (69) 
42.099574367486646

>  <Genealogy>  (69) 
O=C([O-])C(=O)Cc1[nH]c(=O)[n-]c1[O-] (protonated)
O=C([O-])C(=O)Cc1[nH]c(=O)[n-]c1[O-] (3D coordinates assigned)
O=C([O-])C(=O)Cc1[nH]c(=O)[n-]c1[O-] (optimized conformer: 42.099574367486646 kcal/mol)

>  <smiles>  (69) 
O=C(O)C(=O)Cc1[nH]c(=O)[nH]c1O

>  <score_type>  (69) 
oracle

>  <origin>  (69) 
adg

>  <m_score__min__energy>  (69) 
-13.27

>  <m_primary>  (69) 
energy

$$$$
69:0
     RDKit          3D

 64 67  0  0  0  0  0  0  0  0999 V2000
   60.4800   26.3420   46.1680 O   0  0  0  0  0  0  0  0  0  0  0  0
   59.5450   27.1840   46.0880 C   0  0  0  0  0  0  0  0  0  0  0  0
   58.4410   27.1070   47.0730 C   0  0  0  0  0  0  0  0  0  0  0  0
   57.1670   26.7800   46.8010 C   0  0  0  0  0  0  0  0  0  0  0  0
   56.7520   25.5680   46.0670 C   0  0  0  0  0  0  0  0  0  0  0  0
   57.7170   24.6080   45.7240 C   0  0  0  0  0  0  0  0  0  0  0  0
   57.3400   23.4380   45.0590 C   0  0  0  0  0  0  0  0  0  0  0  0
   56.0010   23.2290   44.7160 C   0  0  0  0  0  0  0  0  0  0  0  0
   55.0350   24.1980   45.0160 C   0  0  0  0  0  0  0  0  0  0  0  0
   53.7030   24.0080   44.6510 O   0  0  0  0  0  0  0  0  0  0  0  0
   55.4070   25.3690   45.6940 C   0  0  0  0  0  0  0  0  0  0  0  0
   54.4420   26.3280   45.9940 O   0  0  0  0  0  0  0  0  0  0  0  0
   59.6050   28.2550   45.1360 N   0  0  0  0  0  0  0  0  0  0  0  0
   58.6010   29.1990   44.7330 C   0  0  0  0  0  0  0  0  0  0  0  0
   57.5850   28.7400   43.8870 C   0  0  0  0  0  0  0  0  0  0  0  0
   56.5780   29.6020   43.4520 C   0  0  0  0  0  0  0  0  0  0  0  0
   56.5700   30.9330   43.8700 C   0  0  0  0  0  0  0  0  0  0  0  0
   57.5770   31.4130   44.7260 C   0  0  0  0  0  0  0  0  0  0  0  0
   57.6080   32.8380   45.1220 C   0  0  0  0  0  0  0  0  0  0  0  0
   58.6270   33.6730   44.8590 C   0  0  0  0  0  0  0  0  0  0  0  0
   59.2690   34.5400   45.8760 C   0  0  0  0  0  0  0  0  0  0  0  0
   59.5930   35.7210   45.5760 O   0  0  0  0  0  0  0  0  0  0  0  0
   59.5670   34.0630   47.1940 N   0  0  0  0  0  0  0  0  0  0  0  0
   60.8710   33.8440   47.7500 C   0  0  0  0  0  0  0  0  0  0  0  0
   61.9380   33.4480   46.9300 C   0  0  0  0  0  0  0  0  0  0  0  0
   63.1740   33.1240   47.4920 C   0  0  0  0  0  0  0  0  0  0  0  0
   63.3490   33.1810   48.8750 C   0  0  0  0  0  0  0  0  0  0  0  0
   62.2890   33.5620   49.7020 C   0  0  0  0  0  0  0  0  0  0  0  0
   61.0380   33.8840   49.1470 C   0  0  0  0  0  0  0  0  0  0  0  0
   59.9090   34.2560   49.9540 N   0  0  0  0  0  0  0  0  0  0  0  0
   59.2260   33.3800   51.2850 S   0  0  0  0  0  0  0  0  0  0  0  0
   60.2960   32.9200   52.2400 O   0  0  0  0  0  0  0  0  0  0  0  0
   58.3010   34.3090   52.0260 O   0  0  0  0  0  0  0  0  0  0  0  0
   58.2490   32.0030   50.6990 C   0  0  0  0  0  0  0  0  0  0  0  0
   59.1000   30.9850   49.9930 C   0  0  0  0  0  0  0  0  0  0  0  0
   59.7060   29.9420   50.7140 C   0  0  0  0  0  0  0  0  0  0  0  0
   60.4750   28.9790   50.0520 C   0  0  0  0  0  0  0  0  0  0  0  0
   60.6470   29.0570   48.6640 C   0  0  0  0  0  0  0  0  0  0  0  0
   60.0470   30.0930   47.9390 C   0  0  0  0  0  0  0  0  0  0  0  0
   59.2720   31.0520   48.5990 C   0  0  0  0  0  0  0  0  0  0  0  0
   58.6100   30.5530   45.1300 C   0  0  0  0  0  0  0  0  0  0  0  0
   58.6865   27.3382   48.1200 H   0  0  0  0  0  0  0  0  0  0  0  0
   56.3779   27.4627   47.1493 H   0  0  0  0  0  0  0  0  0  0  0  0
   58.7735   24.7772   45.9795 H   0  0  0  0  0  0  0  0  0  0  0  0
   58.0971   22.6814   44.8054 H   0  0  0  0  0  0  0  0  0  0  0  0
   55.7046   22.2993   44.2082 H   0  0  0  0  0  0  0  0  0  0  0  0
   53.0110   24.7450   44.7540 H   0  0  0  0  0  0  0  0  0  0  0  0
   57.5804   27.6892   43.5618 H   0  0  0  0  0  0  0  0  0  0  0  0
   55.7902   29.2321   42.7793 H   0  0  0  0  0  0  0  0  0  0  0  0
   55.7728   31.6096   43.5286 H   0  0  0  0  0  0  0  0  0  0  0  0
   56.7409   33.2397   45.6668 H   0  0  0  0  0  0  0  0  0  0  0  0
   59.0077   33.7160   43.8279 H   0  0  0  0  0  0  0  0  0  0  0  0
   61.8002   33.3926   45.8401 H   0  0  0  0  0  0  0  0  0  0  0  0
   64.0106   32.8235   46.8440 H   0  0  0  0  0  0  0  0  0  0  0  0
   64.3240   32.9253   49.3156 H   0  0  0  0  0  0  0  0  0  0  0  0
   62.4339   33.6102   50.7913 H   0  0  0  0  0  0  0  0  0  0  0  0
   57.7562   31.5234   51.5575 H   0  0  0  0  0  0  0  0  0  0  0  0
   57.5055   32.3864   49.9848 H   0  0  0  0  0  0  0  0  0  0  0  0
   59.5750   29.8825   51.8045 H   0  0  0  0  0  0  0  0  0  0  0  0
   60.9437   28.1621   50.6203 H   0  0  0  0  0  0  0  0  0  0  0  0
   61.2547   28.3026   48.1429 H   0  0  0  0  0  0  0  0  0  0  0  0
   60.1851   30.1530   46.8494 H   0  0  0  0  0  0  0  0  0  0  0  0
   58.7956   31.8611   48.0259 H   0  0  0  0  0  0  0  0  0  0  0  0
   59.4285   30.9354   45.7576 H   0  0  0  0  0  0  0  0  0  0  0  0
  1  2  2  0
  2  3  1  0
  3  4  2  3
  4  5  1  0
  5  6  2  0
  6  7  1  0
  7  8  2  0
  8  9  1  0
  9 10  1  0
  9 11  2  0
 11 12  1  0
  2 13  1  0
 13 14  1  0
 14 15  2  0
 15 16  1  0
 16 17  2  0
 17 18  1  0
 18 19  1  0
 19 20  2  3
 20 21  1  0
 21 22  2  0
 21 23  1  0
 23 24  1  0
 24 25  2  0
 25 26  1  0
 26 27  2  0
 27 28  1  0
 28 29  2  0
 29 30  1  0
 30 31  1  0
 31 32  2  0
 31 33  2  0
 31 34  1  0
 34 35  1  0
 35 36  2  0
 36 37  1  0
 37 38  2  0
 38 39  1  0
 39 40  2  0
 18 41  2  0
 11  5  1  0
 41 14  1  0
 29 24  1  0
 40 35  1  0
  3 42  1  0
  4 43  1  0
  6 44  1  0
  7 45  1  0
  8 46  1  0
 10 47  1  0
 15 48  1  0
 16 49  1  0
 17 50  1  0
 19 51  1  0
 20 52  1  0
 25 53  1  0
 26 54  1  0
 27 55  1  0
 28 56  1  0
 34 57  1  0
 34 58  1  0
 36 59  1  0
 37 60  1  0
 38 61  1  0
 39 62  1  0
 40 63  1  0
 41 64  1  0
M  CHG  4  12  -1  13  -1  23  -1  30  -1
M  END
>  <UniqueID>  (70) 
68

>  <SMILES>  (70) 
O=C(C=Cc1cccc(O)c1[O-])[N-]c1cccc(C=CC(=O)[N-]c2ccccc2[N-]S(=O)(=O)Cc2ccccc2)c1

>  <Energy>  (70) 
93.50333147700842

>  <Genealogy>  (70) 
O=C(C=Cc1cccc(O)c1[O-])[N-]c1cccc(C=CC(=O)[N-]c2ccccc2[N-]S(=O)(=O)Cc2ccccc2)c1 (protonated)
O=C(C=Cc1cccc(O)c1[O-])[N-]c1cccc(C=CC(=O)[N-]c2ccccc2[N-]S(=O)(=O)Cc2ccccc2)c1 (3D coordinates assigned)
O=C(C=Cc1cccc(O)c1[O-])[N-]c1cccc(C=CC(=O)[N-]c2ccccc2[N-]S(=O)(=O)Cc2ccccc2)c1 (optimized conformer: 93.50333147700842 kcal/mol)

>  <smiles>  (70) 
O=C(C=Cc1cccc(O)c1O)Nc1cccc(C=CC(=O)Nc2ccccc2NS(=O)(=O)Cc2ccccc2)c1

>  <score_type>  (70) 
oracle

>  <origin>  (70) 
adg

>  <m_score__min__energy>  (70) 
-17.030000000000001

>  <m_primary>  (70) 
energy

$$$$
70:0
     RDKit          3D

 75 78  0  0  0  0  0  0  0  0999 V2000
   54.2820   29.3080   52.4190 C   0  0  0  0  0  0  0  0  0  0  0  0
   55.6750   29.6660   52.8240 C   0  0  0  0  0  0  0  0  0  0  0  0
   56.6230   29.4960   52.0130 O   0  0  0  0  0  0  0  0  0  0  0  0
   55.9200   30.2320   54.1180 N   0  0  0  0  0  0  0  0  0  0  0  0
   57.2690   30.4290   54.6440 C   0  0  0  0  0  0  0  0  0  0  0  0
   58.0530   31.3090   53.7090 C   0  0  0  0  0  0  0  0  0  0  0  0
   59.4080   31.0380   53.4480 C   0  0  0  0  0  0  0  0  0  0  0  0
   60.1320   31.8430   52.5630 C   0  0  0  0  0  0  0  0  0  0  0  0
   59.5050   32.9210   51.9160 C   0  0  0  0  0  0  0  0  0  0  0  0
   60.2900   33.8010   50.9770 C   0  0  0  0  0  0  0  0  0  0  0  0
   60.1830   33.3410   49.6300 O   0  0  0  0  0  0  0  0  0  0  0  0
   60.1170   31.9940   49.2300 C   0  0  0  0  0  0  0  0  0  0  0  0
   58.9320   31.2410   49.3280 C   0  0  0  0  0  0  0  0  0  0  0  0
   58.8770   29.9430   48.8170 C   0  0  0  0  0  0  0  0  0  0  0  0
   60.0030   29.3800   48.2080 C   0  0  0  0  0  0  0  0  0  0  0  0
   61.1950   30.1010   48.1430 C   0  0  0  0  0  0  0  0  0  0  0  0
   61.2670   31.3930   48.6830 C   0  0  0  0  0  0  0  0  0  0  0  0
   62.5110   32.0950   48.6270 N   0  0  0  0  0  0  0  0  0  0  0  0
   62.7660   33.1840   47.7310 C   0  0  0  0  0  0  0  0  0  0  0  0
   63.5880   34.0860   48.0420 O   0  0  0  0  0  0  0  0  0  0  0  0
   62.1200   33.2050   46.3820 C   0  0  0  0  0  0  0  0  0  0  0  0
   60.6630   33.5510   46.4940 C   0  0  0  0  0  0  0  0  0  0  0  0
   60.2620   34.7470   47.1260 C   0  0  0  0  0  0  0  0  0  0  0  0
   58.9040   35.0570   47.2490 C   0  0  0  0  0  0  0  0  0  0  0  0
   57.9360   34.1870   46.7390 C   0  0  0  0  0  0  0  0  0  0  0  0
   58.3240   33.0020   46.0970 C   0  0  0  0  0  0  0  0  0  0  0  0
   57.3330   32.1000   45.6040 N   0  0  0  0  0  0  0  0  0  0  0  0
   57.6110   31.0290   44.6950 C   0  0  0  0  0  0  0  0  0  0  0  0
   57.3760   31.2000   43.4690 O   0  0  0  0  0  0  0  0  0  0  0  0
   58.1990   29.7210   45.1770 C   0  0  0  0  0  0  0  0  0  0  0  0
   59.5880   29.4860   44.5740 C   0  0  0  0  0  0  0  0  0  0  0  0
   60.2190   28.2490   45.2230 C   0  0  0  0  0  0  0  0  0  0  0  0
   59.2670   27.1260   45.3030 N   0  0  0  0  0  0  0  0  0  0  0  0
   59.6480   25.9450   46.0470 C   0  0  0  0  0  0  0  0  0  0  0  0
   58.8570   24.6740   45.9910 C   0  0  0  0  0  0  0  0  0  0  0  0
   60.6600   25.9820   46.8000 O   0  0  0  0  0  0  0  0  0  0  0  0
   57.9890   27.2120   44.5730 C   0  0  0  0  0  0  0  0  0  0  0  0
   57.2470   28.5220   44.9050 C   0  0  0  0  0  0  0  0  0  0  0  0
   59.6840   32.6860   45.9730 C   0  0  0  0  0  0  0  0  0  0  0  0
   58.1400   33.1630   52.1440 C   0  0  0  0  0  0  0  0  0  0  0  0
   57.4210   32.3680   53.0400 C   0  0  0  0  0  0  0  0  0  0  0  0
   53.6679   29.1502   53.3179 H   0  0  0  0  0  0  0  0  0  0  0  0
   53.8527   30.1250   51.8205 H   0  0  0  0  0  0  0  0  0  0  0  0
   54.2999   28.3853   51.8205 H   0  0  0  0  0  0  0  0  0  0  0  0
   55.1120   30.4060   54.7600 H   0  0  0  0  0  0  0  0  0  0  0  0
   57.2099   30.9070   55.6330 H   0  0  0  0  0  0  0  0  0  0  0  0
   57.7711   29.4545   54.7348 H   0  0  0  0  0  0  0  0  0  0  0  0
   59.9010   30.1882   53.9427 H   0  0  0  0  0  0  0  0  0  0  0  0
   61.1947   31.6318   52.3730 H   0  0  0  0  0  0  0  0  0  0  0  0
   59.9008   34.8280   51.0377 H   0  0  0  0  0  0  0  0  0  0  0  0
   61.3489   33.7702   51.2732 H   0  0  0  0  0  0  0  0  0  0  0  0
   58.0446   31.6775   49.8097 H   0  0  0  0  0  0  0  0  0  0  0  0
   57.9461   29.3619   48.8935 H   0  0  0  0  0  0  0  0  0  0  0  0
   59.9485   28.3681   47.7801 H   0  0  0  0  0  0  0  0  0  0  0  0
   62.0808   29.6551   47.6670 H   0  0  0  0  0  0  0  0  0  0  0  0
   62.6217   33.9556   45.7535 H   0  0  0  0  0  0  0  0  0  0  0  0
   62.2115   32.2056   45.9316 H   0  0  0  0  0  0  0  0  0  0  0  0
   61.0202   35.4379   47.5233 H   0  0  0  0  0  0  0  0  0  0  0  0
   58.5967   35.9877   47.7483 H   0  0  0  0  0  0  0  0  0  0  0  0
   56.8686   34.4321   46.8413 H   0  0  0  0  0  0  0  0  0  0  0  0
   58.3152   29.7947   46.2684 H   0  0  0  0  0  0  0  0  0  0  0  0
   59.4955   29.3254   43.4897 H   0  0  0  0  0  0  0  0  0  0  0  0
   60.2237   30.3643   44.7594 H   0  0  0  0  0  0  0  0  0  0  0  0
   61.0878   27.9372   44.6246 H   0  0  0  0  0  0  0  0  0  0  0  0
   60.5191   28.5160   46.2470 H   0  0  0  0  0  0  0  0  0  0  0  0
   58.6429   24.3300   47.0137 H   0  0  0  0  0  0  0  0  0  0  0  0
   57.9111   24.8539   45.4591 H   0  0  0  0  0  0  0  0  0  0  0  0
   59.4362   23.9048   45.4591 H   0  0  0  0  0  0  0  0  0  0  0  0
   58.1897   27.1769   43.4920 H   0  0  0  0  0  0  0  0  0  0  0  0
   57.3557   26.3653   44.8765 H   0  0  0  0  0  0  0  0  0  0  0  0
   56.5969   28.7790   44.0557 H   0  0  0  0  0  0  0  0  0  0  0  0
   56.6759   28.3458   45.8284 H   0  0  0  0  0  0  0  0  0  0  0  0
   59.9868   31.7578   45.4662 H   0  0  0  0  0  0  0  0  0  0  0  0
   57.6343   33.9834   51.6138 H   0  0  0  0  0  0  0  0  0  0  0  0
   56.3556   32.5730   53.2216 H   0  0  0  0  0  0  0  0  0  0  0  0
  1  2  1  0
  2  3  2  0
  2  4  1  0
  4  5  1  0
  5  6  1  0
  6  7  2  0
  7  8  1  0
  8  9  2  0
  9 10  1  0
 10 11  1  0
 11 12  1  0
 12 13  2  0
 13 14  1  0
 14 15  2  0
 15 16  1  0
 16 17  2  0
 17 18  1  0
 18 19  1  0
 19 20  2  0
 19 21  1  0
 21 22  1  0
 22 23  2  0
 23 24  1  0
 24 25  2  0
 25 26  1  0
 26 27  1  0
 27 28  1  0
 28 29  2  0
 28 30  1  0
 30 31  1  0
 31 32  1  0
 32 33  1  0
 33 34  1  0
 34 35  1  0
 34 36  2  0
 33 37  1  0
 37 38  1  0
 26 39  2  0
  9 40  1  0
 40 41  2  0
 41  6  1  0
 17 12  1  0
 39 22  1  0
 38 30  1  0
  1 42  1  0
  1 43  1  0
  1 44  1  0
  4 45  1  0
  5 46  1  0
  5 47  1  0
  7 48  1  0
  8 49  1  0
 10 50  1  0
 10 51  1  0
 13 52  1  0
 14 53  1  0
 15 54  1  0
 16 55  1  0
 21 56  1  0
 21 57  1  0
 23 58  1  0
 24 59  1  0
 25 60  1  0
 30 61  1  0
 31 62  1  0
 31 63  1  0
 32 64  1  0
 32 65  1  0
 35 66  1  0
 35 67  1  0
 35 68  1  0
 37 69  1  0
 37 70  1  0
 38 71  1  0
 38 72  1  0
 39 73  1  0
 40 74  1  0
 41 75  1  0
M  CHG  2  18  -1  27  -1
M  END
>  <UniqueID>  (71) 
69

>  <SMILES>  (71) 
CC(=O)NCc1ccc(COc2ccccc2[N-]C(=O)Cc2cccc([N-]C(=O)C3CCN(C(C)=O)CC3)c2)cc1

>  <Energy>  (71) 
84.75374955232601

>  <Genealogy>  (71) 
CC(=O)NCc1ccc(COc2ccccc2[N-]C(=O)Cc2cccc([N-]C(=O)C3CCN(C(C)=O)CC3)c2)cc1 (protonated)
CC(=O)NCc1ccc(COc2ccccc2[N-]C(=O)Cc2cccc([N-]C(=O)C3CCN(C(C)=O)CC3)c2)cc1 (3D coordinates assigned)
CC(=O)NCc1ccc(COc2ccccc2[N-]C(=O)Cc2cccc([N-]C(=O)C3CCN(C(C)=O)CC3)c2)cc1 (nonaromatic ring conformer: 84.75374955232601 kcal/mol)

>  <smiles>  (71) 
CC(=O)NCc1ccc(COc2ccccc2NC(=O)Cc2cccc(NC(=O)C3CCN(C(C)=O)CC3)c2)cc1

>  <score_type>  (71) 
oracle

>  <origin>  (71) 
adg

>  <m_score__min__energy>  (71) 
-12.68

>  <m_primary>  (71) 
energy

$$$$
71:0
     RDKit          3D

 52 53  0  0  0  0  0  0  0  0999 V2000
   62.3100   33.2490   47.6210 C   0  0  0  0  0  0  0  0  0  0  0  0
   61.4200   33.8840   48.5810 N   0  0  0  0  0  0  0  0  0  0  0  0
   60.4130   33.1660   49.3020 C   0  0  0  0  0  0  0  0  0  0  0  0
   59.4000   33.7780   49.7390 O   0  0  0  0  0  0  0  0  0  0  0  0
   60.5560   31.7090   49.5340 C   0  0  0  0  0  0  0  0  0  0  0  0
   61.6360   31.2110   50.2780 C   0  0  0  0  0  0  0  0  0  0  0  0
   61.7930   29.8390   50.4700 C   0  0  0  0  0  0  0  0  0  0  0  0
   60.8700   28.9320   49.9220 C   0  0  0  0  0  0  0  0  0  0  0  0
   60.9970   27.5440   50.0970 O   0  0  0  0  0  0  0  0  0  0  0  0
   61.1970   26.9040   51.3540 C   0  0  0  0  0  0  0  0  0  0  0  0
   59.7830   29.4120   49.1760 C   0  0  0  0  0  0  0  0  0  0  0  0
   58.8950   28.4670   48.6270 O   0  0  0  0  0  0  0  0  0  0  0  0
   59.2210   27.4290   47.6990 C   0  0  0  0  0  0  0  0  0  0  0  0
   58.0240   26.5130   47.4270 C   0  0  0  0  0  0  0  0  0  0  0  0
   57.4890   26.7300   46.0870 N   0  0  0  0  0  0  0  0  0  0  0  0
   56.1330   27.0930   45.8200 C   0  0  0  0  0  0  0  0  0  0  0  0
   55.1960   26.2810   46.0520 O   0  0  0  0  0  0  0  0  0  0  0  0
   55.8560   28.3690   45.2450 N   0  0  0  0  0  0  0  0  0  0  0  0
   56.6880   28.9810   44.2160 C   0  0  0  0  0  0  0  0  0  0  0  0
   57.7300   29.8480   44.8650 C   0  0  0  0  0  0  0  0  0  0  0  0
   58.9940   29.3200   45.1740 C   0  0  0  0  0  0  0  0  0  0  0  0
   59.9730   30.1300   45.7560 C   0  0  0  0  0  0  0  0  0  0  0  0
   59.7000   31.4730   46.0300 C   0  0  0  0  0  0  0  0  0  0  0  0
   58.4450   32.0150   45.7200 C   0  0  0  0  0  0  0  0  0  0  0  0
   58.1120   33.7080   46.0720 S   0  0  0  0  0  0  0  0  0  0  0  0
   59.6210   34.6420   45.9600 C   0  0  0  0  0  0  0  0  0  0  0  0
   57.1150   34.2400   45.0810 O   0  0  0  0  0  0  0  0  0  0  0  0
   57.5450   33.8520   47.4560 O   0  0  0  0  0  0  0  0  0  0  0  0
   57.4600   31.2000   45.1420 C   0  0  0  0  0  0  0  0  0  0  0  0
   59.6230   30.8030   49.0000 C   0  0  0  0  0  0  0  0  0  0  0  0
   63.0913   32.6915   48.1584 H   0  0  0  0  0  0  0  0  0  0  0  0
   61.7341   32.5566   46.9894 H   0  0  0  0  0  0  0  0  0  0  0  0
   62.7774   34.0188   46.9894 H   0  0  0  0  0  0  0  0  0  0  0  0
   62.3656   31.9093   50.7139 H   0  0  0  0  0  0  0  0  0  0  0  0
   62.6457   29.4637   51.0548 H   0  0  0  0  0  0  0  0  0  0  0  0
   60.9755   27.6127   52.1656 H   0  0  0  0  0  0  0  0  0  0  0  0
   60.5277   26.0347   51.4335 H   0  0  0  0  0  0  0  0  0  0  0  0
   62.2422   26.5705   51.4335 H   0  0  0  0  0  0  0  0  0  0  0  0
   59.5420   27.8863   46.7515 H   0  0  0  0  0  0  0  0  0  0  0  0
   60.0256   26.8196   48.1363 H   0  0  0  0  0  0  0  0  0  0  0  0
   58.3453   25.4651   47.5200 H   0  0  0  0  0  0  0  0  0  0  0  0
   57.2356   26.7426   48.1589 H   0  0  0  0  0  0  0  0  0  0  0  0
   57.1810   28.1938   43.6268 H   0  0  0  0  0  0  0  0  0  0  0  0
   56.0601   29.5953   43.5539 H   0  0  0  0  0  0  0  0  0  0  0  0
   59.2145   28.2644   44.9571 H   0  0  0  0  0  0  0  0  0  0  0  0
   60.9601   29.7098   45.9988 H   0  0  0  0  0  0  0  0  0  0  0  0
   60.4724   32.1067   46.4903 H   0  0  0  0  0  0  0  0  0  0  0  0
   59.9877   34.8690   46.9719 H   0  0  0  0  0  0  0  0  0  0  0  0
   60.3771   34.0537   45.4194 H   0  0  0  0  0  0  0  0  0  0  0  0
   59.4317   35.5811   45.4194 H   0  0  0  0  0  0  0  0  0  0  0  0
   56.4718   31.6206   44.9044 H   0  0  0  0  0  0  0  0  0  0  0  0
   58.7573   31.1832   48.4379 H   0  0  0  0  0  0  0  0  0  0  0  0
  1  2  1  0
  2  3  1  0
  3  4  2  0
  3  5  1  0
  5  6  2  0
  6  7  1  0
  7  8  2  0
  8  9  1  0
  9 10  1  0
  8 11  1  0
 11 12  1  0
 12 13  1  0
 13 14  1  0
 14 15  1  0
 15 16  1  0
 16 17  2  0
 16 18  1  0
 18 19  1  0
 19 20  1  0
 20 21  2  0
 21 22  1  0
 22 23  2  0
 23 24  1  0
 24 25  1  0
 25 26  1  0
 25 27  2  0
 25 28  2  0
 24 29  2  0
 11 30  2  0
 30  5  1  0
 29 20  1  0
  1 31  1  0
  1 32  1  0
  1 33  1  0
  6 34  1  0
  7 35  1  0
 10 36  1  0
 10 37  1  0
 10 38  1  0
 13 39  1  0
 13 40  1  0
 14 41  1  0
 14 42  1  0
 19 43  1  0
 19 44  1  0
 21 45  1  0
 22 46  1  0
 23 47  1  0
 26 48  1  0
 26 49  1  0
 26 50  1  0
 29 51  1  0
 30 52  1  0
M  CHG  3   2  -1  15  -1  18  -1
M  END
>  <UniqueID>  (72) 
70

>  <SMILES>  (72) 
C[N-]C(=O)c1ccc(OC)c(OCC[N-]C(=O)[N-]Cc2cccc(S(C)(=O)=O)c2)c1

>  <Energy>  (72) 
37.09643392467055

>  <Genealogy>  (72) 
C[N-]C(=O)c1ccc(OC)c(OCC[N-]C(=O)[N-]Cc2cccc(S(C)(=O)=O)c2)c1 (protonated)
C[N-]C(=O)c1ccc(OC)c(OCC[N-]C(=O)[N-]Cc2cccc(S(C)(=O)=O)c2)c1 (3D coordinates assigned)
C[N-]C(=O)c1ccc(OC)c(OCC[N-]C(=O)[N-]Cc2cccc(S(C)(=O)=O)c2)c1 (optimized conformer: 37.09643392467055 kcal/mol)

>  <smiles>  (72) 
CNC(=O)c1ccc(OC)c(OCCNC(=O)NCc2cccc(S(C)(=O)=O)c2)c1

>  <score_type>  (72) 
oracle

>  <origin>  (72) 
adg

>  <m_score__min__energy>  (72) 
-13.73

>  <m_primary>  (72) 
energy

$$$$
72:0
     RDKit          3D

 40 41  0  0  0  0  0  0  0  0999 V2000
   58.6060   28.1230   45.0630 O   0  0  0  0  0  0  0  0  0  0  0  0
   57.4630   28.3070   45.5620 C   0  0  0  0  0  0  0  0  0  0  0  0
   56.7060   27.1370   46.1150 C   0  0  0  0  0  0  0  0  0  0  0  0
   57.1450   25.8940   45.4810 N   0  0  0  0  0  0  0  0  0  0  0  0
   56.2750   24.7560   45.3950 C   0  0  0  0  0  0  0  0  0  0  0  0
   55.1720   24.7680   46.0090 O   0  0  0  0  0  0  0  0  0  0  0  0
   56.6550   23.5550   44.6110 C   0  0  0  0  0  0  0  0  0  0  0  0
   57.7030   22.7130   45.0310 C   0  0  0  0  0  0  0  0  0  0  0  0
   58.0510   21.5880   44.2770 C   0  0  0  0  0  0  0  0  0  0  0  0
   57.3640   21.2930   43.0970 C   0  0  0  0  0  0  0  0  0  0  0  0
   56.3310   22.1270   42.6650 C   0  0  0  0  0  0  0  0  0  0  0  0
   55.9790   23.2540   43.4140 C   0  0  0  0  0  0  0  0  0  0  0  0
   56.8650   29.6140   45.5740 N   0  0  0  0  0  0  0  0  0  0  0  0
   57.5000   30.7950   45.0580 C   0  0  0  0  0  0  0  0  0  0  0  0
   58.6720   30.7410   44.5940 O   0  0  0  0  0  0  0  0  0  0  0  0
   56.7950   32.0410   45.0740 N   0  0  0  0  0  0  0  0  0  0  0  0
   57.4050   33.2720   44.5710 C   0  0  0  0  0  0  0  0  0  0  0  0
   58.3010   33.8840   45.6140 C   0  0  0  0  0  0  0  0  0  0  0  0
   59.1760   34.9280   45.2730 C   0  0  0  0  0  0  0  0  0  0  0  0
   60.0340   35.4710   46.2350 C   0  0  0  0  0  0  0  0  0  0  0  0
   60.0330   34.9670   47.5390 C   0  0  0  0  0  0  0  0  0  0  0  0
   59.1780   33.9150   47.8800 C   0  0  0  0  0  0  0  0  0  0  0  0
   58.3180   33.3700   46.9210 C   0  0  0  0  0  0  0  0  0  0  0  0
   56.8822   27.0719   47.1988 H   0  0  0  0  0  0  0  0  0  0  0  0
   55.6344   27.2797   45.9118 H   0  0  0  0  0  0  0  0  0  0  0  0
   58.1300   25.8130   45.1400 H   0  0  0  0  0  0  0  0  0  0  0  0
   58.2507   22.9416   45.9572 H   0  0  0  0  0  0  0  0  0  0  0  0
   58.8682   20.9333   44.6141 H   0  0  0  0  0  0  0  0  0  0  0  0
   57.6366   20.4044   42.5087 H   0  0  0  0  0  0  0  0  0  0  0  0
   55.7930   21.8970   41.7335 H   0  0  0  0  0  0  0  0  0  0  0  0
   55.1679   23.9100   43.0651 H   0  0  0  0  0  0  0  0  0  0  0  0
   55.9040   29.7080   45.9710 H   0  0  0  0  0  0  0  0  0  0  0  0
   55.8230   32.0610   45.4590 H   0  0  0  0  0  0  0  0  0  0  0  0
   57.9992   33.0409   43.6746 H   0  0  0  0  0  0  0  0  0  0  0  0
   56.6072   33.9881   44.3246 H   0  0  0  0  0  0  0  0  0  0  0  0
   59.1867   35.3203   44.2454 H   0  0  0  0  0  0  0  0  0  0  0  0
   60.7103   36.2955   45.9652 H   0  0  0  0  0  0  0  0  0  0  0  0
   60.7046   35.3980   48.2962 H   0  0  0  0  0  0  0  0  0  0  0  0
   59.1815   33.5150   48.9047 H   0  0  0  0  0  0  0  0  0  0  0  0
   57.6530   32.5364   47.1912 H   0  0  0  0  0  0  0  0  0  0  0  0
  1  2  2  0
  2  3  1  0
  3  4  1  0
  4  5  1  0
  5  6  2  0
  5  7  1  0
  7  8  2  0
  8  9  1  0
  9 10  2  0
 10 11  1  0
 11 12  2  0
  2 13  1  0
 13 14  1  0
 14 15  2  0
 14 16  1  0
 16 17  1  0
 17 18  1  0
 18 19  2  0
 19 20  1  0
 20 21  2  0
 21 22  1  0
 22 23  2  0
 12  7  1  0
 23 18  1  0
  3 24  1  0
  3 25  1  0
  4 26  1  0
  8 27  1  0
  9 28  1  0
 10 29  1  0
 11 30  1  0
 12 31  1  0
 13 32  1  0
 16 33  1  0
 17 34  1  0
 17 35  1  0
 19 36  1  0
 20 37  1  0
 21 38  1  0
 22 39  1  0
 23 40  1  0
M  END
>  <UniqueID>  (73) 
71

>  <SMILES>  (73) 
O=C(CNC(=O)c1ccccc1)NC(=O)NCc1ccccc1

>  <Energy>  (73) 
37.197329098187

>  <Genealogy>  (73) 
O=C(CNC(=O)c1ccccc1)NC(=O)NCc1ccccc1 (3D coordinates assigned)
O=C(CNC(=O)c1ccccc1)NC(=O)NCc1ccccc1 (optimized conformer: 37.197329098187 kcal/mol)

>  <smiles>  (73) 
O=C(CNC(=O)c1ccccc1)NC(=O)NCc1ccccc1

>  <score_type>  (73) 
oracle

>  <origin>  (73) 
adg

>  <m_score__min__energy>  (73) 
-7.6900000000000004

>  <m_primary>  (73) 
energy

$$$$
73:0
     RDKit          3D

 33 34  0  0  0  0  0  0  0  0999 V2000
   57.0340   30.6830   43.2130 C   0  0  0  0  0  0  0  0  0  0  0  0
   57.8340   30.1610   44.3680 C   0  0  0  0  0  0  0  0  0  0  0  0
   58.7540   30.8880   44.8340 O   0  0  0  0  0  0  0  0  0  0  0  0
   57.5820   28.8250   44.9740 C   0  0  0  0  0  0  0  0  0  0  0  0
   58.6840   28.0140   45.3080 C   0  0  0  0  0  0  0  0  0  0  0  0
   58.5030   26.7480   45.8950 C   0  0  0  0  0  0  0  0  0  0  0  0
   59.6720   25.9080   46.2500 C   0  0  0  0  0  0  0  0  0  0  0  0
   60.7970   26.4400   46.4510 O   0  0  0  0  0  0  0  0  0  0  0  0
   59.5300   24.4880   46.3660 N   0  0  0  0  0  0  0  0  0  0  0  0
   59.2570   23.6230   45.2280 C   0  0  0  0  0  0  0  0  0  0  0  0
   57.8050   23.2410   45.2310 C   0  0  0  0  0  0  0  0  0  0  0  0
   57.1160   23.0890   46.4450 C   0  0  0  0  0  0  0  0  0  0  0  0
   55.7540   22.7700   46.4460 C   0  0  0  0  0  0  0  0  0  0  0  0
   55.0690   22.6130   45.2370 C   0  0  0  0  0  0  0  0  0  0  0  0
   53.7160   22.2950   45.2460 O   0  0  0  0  0  0  0  0  0  0  0  0
   55.7460   22.7790   44.0230 C   0  0  0  0  0  0  0  0  0  0  0  0
   55.0680   22.6320   42.8180 O   0  0  0  0  0  0  0  0  0  0  0  0
   57.1090   23.0970   44.0200 C   0  0  0  0  0  0  0  0  0  0  0  0
   57.1990   26.2930   46.1430 C   0  0  0  0  0  0  0  0  0  0  0  0
   56.0970   27.0810   45.8040 C   0  0  0  0  0  0  0  0  0  0  0  0
   54.8130   26.6050   46.0470 O   0  0  0  0  0  0  0  0  0  0  0  0
   56.2790   28.3380   45.2160 C   0  0  0  0  0  0  0  0  0  0  0  0
   55.1550   29.0760   44.8590 O   0  0  0  0  0  0  0  0  0  0  0  0
   56.1690   31.2474   43.5914 H   0  0  0  0  0  0  0  0  0  0  0  0
   57.6637   31.3445   42.6000 H   0  0  0  0  0  0  0  0  0  0  0  0
   56.6821   29.8402   42.6000 H   0  0  0  0  0  0  0  0  0  0  0  0
   59.7029   28.3762   45.1067 H   0  0  0  0  0  0  0  0  0  0  0  0
   59.4945   24.1565   44.2958 H   0  0  0  0  0  0  0  0  0  0  0  0
   59.8763   22.7165   45.2977 H   0  0  0  0  0  0  0  0  0  0  0  0
   57.6489   23.2212   47.3982 H   0  0  0  0  0  0  0  0  0  0  0  0
   55.2208   22.6424   47.3996 H   0  0  0  0  0  0  0  0  0  0  0  0
   57.6372   23.2347   43.0650 H   0  0  0  0  0  0  0  0  0  0  0  0
   57.0436   25.3083   46.6079 H   0  0  0  0  0  0  0  0  0  0  0  0
  1  2  1  0
  2  3  2  0
  2  4  1  0
  4  5  2  0
  5  6  1  0
  6  7  1  0
  7  8  2  0
  7  9  1  0
  9 10  1  0
 10 11  1  0
 11 12  2  0
 12 13  1  0
 13 14  2  0
 14 15  1  0
 14 16  1  0
 16 17  1  0
 16 18  2  0
  6 19  2  0
 19 20  1  0
 20 21  1  0
 20 22  2  0
 22 23  1  0
 22  4  1  0
 18 11  1  0
  1 24  1  0
  1 25  1  0
  1 26  1  0
  5 27  1  0
 10 28  1  0
 10 29  1  0
 12 30  1  0
 13 31  1  0
 18 32  1  0
 19 33  1  0
M  CHG  5   9  -1  15  -1  17  -1  21  -1  23  -1
M  END
>  <UniqueID>  (74) 
72

>  <SMILES>  (74) 
CC(=O)c1cc(C(=O)[N-]Cc2ccc([O-])c([O-])c2)cc([O-])c1[O-]

>  <Energy>  (74) 
35.77782212324871

>  <Genealogy>  (74) 
CC(=O)c1cc(C(=O)[N-]Cc2ccc([O-])c([O-])c2)cc([O-])c1[O-] (protonated)
CC(=O)c1cc(C(=O)[N-]Cc2ccc([O-])c([O-])c2)cc([O-])c1[O-] (3D coordinates assigned)
CC(=O)c1cc(C(=O)[N-]Cc2ccc([O-])c([O-])c2)cc([O-])c1[O-] (optimized conformer: 35.77782212324871 kcal/mol)

>  <smiles>  (74) 
CC(=O)c1cc(C(=O)NCc2ccc(O)c(O)c2)cc(O)c1O

>  <score_type>  (74) 
oracle

>  <origin>  (74) 
adg

>  <m_score__min__energy>  (74) 
-18.359999999999999

>  <m_primary>  (74) 
energy

$$$$
74:0
     RDKit          3D

 55 58  0  0  0  0  0  0  0  0999 V2000
   55.0260   29.0180   44.4350 O   0  0  0  0  0  0  0  0  0  0  0  0
   56.1540   29.3560   44.8820 C   0  0  0  0  0  0  0  0  0  0  0  0
   56.5290   30.7390   44.8360 N   0  0  0  0  0  0  0  0  0  0  0  0
   57.2100   31.3980   43.7250 C   0  0  0  0  0  0  0  0  0  0  0  0
   58.1570   32.4900   44.2410 C   0  0  0  0  0  0  0  0  0  0  0  0
   57.4600   33.4370   45.2320 C   0  0  0  0  0  0  0  0  0  0  0  0
   58.1450   33.4910   46.5460 N   0  0  0  0  0  0  0  0  0  0  0  0
   59.2830   34.4480   46.5250 C   0  0  0  0  0  0  0  0  0  0  0  0
   60.2450   34.2410   47.7020 C   0  0  0  0  0  0  0  0  0  0  0  0
   60.7130   32.8530   47.7450 N   0  0  0  0  0  0  0  0  0  0  0  0
   61.8240   32.4890   48.5810 C   0  0  0  0  0  0  0  0  0  0  0  0
   63.0020   33.1070   48.4300 C   0  0  0  0  0  0  0  0  0  0  0  0
   64.1570   32.7620   49.2710 C   0  0  0  0  0  0  0  0  0  0  0  0
   65.2300   33.4110   49.1400 O   0  0  0  0  0  0  0  0  0  0  0  0
   64.0590   31.6480   50.2430 C   0  0  0  0  0  0  0  0  0  0  0  0
   65.1690   31.2850   51.0220 C   0  0  0  0  0  0  0  0  0  0  0  0
   65.0820   30.2270   51.9240 C   0  0  0  0  0  0  0  0  0  0  0  0
   66.5960   29.7500   52.9860 Br  0  0  0  0  0  0  0  0  0  0  0  0
   63.8990   29.4980   52.0320 C   0  0  0  0  0  0  0  0  0  0  0  0
   62.7860   29.8190   51.2470 C   0  0  0  0  0  0  0  0  0  0  0  0
   61.6750   28.9760   51.3440 O   0  0  0  0  0  0  0  0  0  0  0  0
   62.8380   30.9420   50.3770 C   0  0  0  0  0  0  0  0  0  0  0  0
   61.6540   31.4500   49.6240 C   0  0  0  0  0  0  0  0  0  0  0  0
   60.4880   31.0770   49.9150 O   0  0  0  0  0  0  0  0  0  0  0  0
   59.9990   31.8310   46.9800 C   0  0  0  0  0  0  0  0  0  0  0  0
   58.4960   32.1250   47.0270 C   0  0  0  0  0  0  0  0  0  0  0  0
   57.0480   28.3180   45.4320 C   0  0  0  0  0  0  0  0  0  0  0  0
   58.4360   28.5290   45.4640 C   0  0  0  0  0  0  0  0  0  0  0  0
   59.2860   27.5570   45.9990 C   0  0  0  0  0  0  0  0  0  0  0  0
   58.7560   26.3720   46.5160 C   0  0  0  0  0  0  0  0  0  0  0  0
   57.3750   26.1580   46.5060 C   0  0  0  0  0  0  0  0  0  0  0  0
   56.8550   24.9800   47.0300 O   0  0  0  0  0  0  0  0  0  0  0  0
   56.5170   27.1290   45.9690 C   0  0  0  0  0  0  0  0  0  0  0  0
   55.1440   26.9020   45.9600 O   0  0  0  0  0  0  0  0  0  0  0  0
   57.7912   30.6515   43.1637 H   0  0  0  0  0  0  0  0  0  0  0  0
   56.4557   31.8628   43.0731 H   0  0  0  0  0  0  0  0  0  0  0  0
   59.0087   32.0114   44.7465 H   0  0  0  0  0  0  0  0  0  0  0  0
   58.4895   33.0862   43.3785 H   0  0  0  0  0  0  0  0  0  0  0  0
   57.4443   34.4489   44.8009 H   0  0  0  0  0  0  0  0  0  0  0  0
   56.4433   33.0528   45.4015 H   0  0  0  0  0  0  0  0  0  0  0  0
   59.8400   34.3135   45.5860 H   0  0  0  0  0  0  0  0  0  0  0  0
   58.8680   35.4634   46.6065 H   0  0  0  0  0  0  0  0  0  0  0  0
   61.1095   34.9110   47.5849 H   0  0  0  0  0  0  0  0  0  0  0  0
   59.7143   34.4665   48.6388 H   0  0  0  0  0  0  0  0  0  0  0  0
   63.1074   33.8876   47.6622 H   0  0  0  0  0  0  0  0  0  0  0  0
   66.1135   31.8395   50.9195 H   0  0  0  0  0  0  0  0  0  0  0  0
   63.8396   28.6605   52.7427 H   0  0  0  0  0  0  0  0  0  0  0  0
   60.7690   29.1920   50.9550 H   0  0  0  0  0  0  0  0  0  0  0  0
   60.3442   31.8450   45.9356 H   0  0  0  0  0  0  0  0  0  0  0  0
   60.1955   30.8396   47.4143 H   0  0  0  0  0  0  0  0  0  0  0  0
   57.9768   31.3889   46.3957 H   0  0  0  0  0  0  0  0  0  0  0  0
   58.1855   32.0618   48.0804 H   0  0  0  0  0  0  0  0  0  0  0  0
   58.8565   29.4642   45.0659 H   0  0  0  0  0  0  0  0  0  0  0  0
   60.3730   27.7250   46.0131 H   0  0  0  0  0  0  0  0  0  0  0  0
   59.4271   25.6060   46.9317 H   0  0  0  0  0  0  0  0  0  0  0  0
  1  2  2  0
  2  3  1  0
  3  4  1  0
  4  5  1  0
  5  6  1  0
  6  7  1  0
  7  8  1  0
  8  9  1  0
  9 10  1  0
 10 11  1  0
 11 12  2  0
 12 13  1  0
 13 14  2  0
 13 15  1  0
 15 16  2  0
 16 17  1  0
 17 18  1  0
 17 19  2  0
 19 20  1  0
 20 21  1  0
 20 22  2  0
 22 23  1  0
 23 24  2  0
 10 25  1  0
 25 26  1  0
  2 27  1  0
 27 28  2  0
 28 29  1  0
 29 30  2  0
 30 31  1  0
 31 32  1  0
 31 33  2  0
 33 34  1  0
 26  7  1  0
 33 27  1  0
 23 11  1  0
 22 15  1  0
  4 35  1  0
  4 36  1  0
  5 37  1  0
  5 38  1  0
  6 39  1  0
  6 40  1  0
  8 41  1  0
  8 42  1  0
  9 43  1  0
  9 44  1  0
 12 45  1  0
 16 46  1  0
 19 47  1  0
 21 48  1  0
 25 49  1  0
 25 50  1  0
 26 51  1  0
 26 52  1  0
 28 53  1  0
 29 54  1  0
 30 55  1  0
M  CHG  3   3  -1  32  -1  34  -1
M  END
>  <UniqueID>  (75) 
73

>  <SMILES>  (75) 
O=C([N-]CCCN1CCN(C2=CC(=O)c3cc(Br)cc(O)c3C2=O)CC1)c1cccc([O-])c1[O-]

>  <Energy>  (75) 
80.58400414494056

>  <Genealogy>  (75) 
O=C([N-]CCCN1CCN(C2=CC(=O)c3cc(Br)cc(O)c3C2=O)CC1)c1cccc([O-])c1[O-] (protonated)
O=C([N-]CCCN1CCN(C2=CC(=O)c3cc(Br)cc(O)c3C2=O)CC1)c1cccc([O-])c1[O-] (3D coordinates assigned)
O=C([N-]CCCN1CCN(C2=CC(=O)c3cc(Br)cc(O)c3C2=O)CC1)c1cccc([O-])c1[O-] (nonaromatic ring conformer: 80.58400414494056 kcal/mol)

>  <smiles>  (75) 
O=C(NCCCN1CCN(C2=CC(=O)c3cc(Br)cc(O)c3C2=O)CC1)c1cccc(O)c1O

>  <score_type>  (75) 
oracle

>  <origin>  (75) 
adg

>  <m_score__min__energy>  (75) 
-17.149999999999999

>  <m_primary>  (75) 
energy

$$$$
75:0
     RDKit          3D

 46 48  0  0  0  0  0  0  0  0999 V2000
   56.1880   24.7350   46.0560 C   0  0  0  0  0  0  0  0  0  0  0  0
   57.3480   25.5050   46.6040 C   0  0  0  0  0  0  0  0  0  0  0  0
   57.9600   25.0570   47.6090 O   0  0  0  0  0  0  0  0  0  0  0  0
   57.8150   26.7540   45.9580 C   0  0  0  0  0  0  0  0  0  0  0  0
   59.1910   27.0220   45.7850 C   0  0  0  0  0  0  0  0  0  0  0  0
   60.1790   26.1630   46.2710 O   0  0  0  0  0  0  0  0  0  0  0  0
   59.5800   28.1280   45.1610 O   0  0  0  0  0  0  0  0  0  0  0  0
   58.7340   29.0380   44.6940 C   0  0  0  0  0  0  0  0  0  0  0  0
   59.1940   30.0460   44.0940 O   0  0  0  0  0  0  0  0  0  0  0  0
   57.3460   28.8690   44.8550 C   0  0  0  0  0  0  0  0  0  0  0  0
   56.3850   29.8940   44.3750 C   0  0  0  0  0  0  0  0  0  0  0  0
   55.4990   29.5700   43.5410 O   0  0  0  0  0  0  0  0  0  0  0  0
   56.4620   31.2610   44.8050 N   0  0  0  0  0  0  0  0  0  0  0  0
   57.5770   31.8510   45.4880 C   0  0  0  0  0  0  0  0  0  0  0  0
   58.1520   33.0180   44.9710 C   0  0  0  0  0  0  0  0  0  0  0  0
   59.2800   33.5760   45.5780 C   0  0  0  0  0  0  0  0  0  0  0  0
   59.8350   32.9810   46.7200 C   0  0  0  0  0  0  0  0  0  0  0  0
   61.3220   33.6200   47.4250 S   0  0  0  0  0  0  0  0  0  0  0  0
   60.9740   34.5960   48.5150 O   0  0  0  0  0  0  0  0  0  0  0  0
   62.0970   34.3570   46.3680 O   0  0  0  0  0  0  0  0  0  0  0  0
   62.3120   32.3390   48.0870 N   0  0  0  0  0  0  0  0  0  0  0  0
   63.7500   32.5610   47.8130 C   0  0  0  0  0  0  0  0  0  0  0  0
   64.5060   33.0590   49.0590 C   0  0  0  0  0  0  0  0  0  0  0  0
   64.4200   32.1680   50.1630 O   0  0  0  0  0  0  0  0  0  0  0  0
   63.1930   31.4500   50.2280 C   0  0  0  0  0  0  0  0  0  0  0  0
   62.0210   32.1520   49.5220 C   0  0  0  0  0  0  0  0  0  0  0  0
   59.2210   31.8510   47.2760 C   0  0  0  0  0  0  0  0  0  0  0  0
   58.0980   31.2890   46.6650 C   0  0  0  0  0  0  0  0  0  0  0  0
   56.8910   27.6990   45.4810 C   0  0  0  0  0  0  0  0  0  0  0  0
   55.5240   27.4780   45.6250 O   0  0  0  0  0  0  0  0  0  0  0  0
   55.5873   24.3362   46.8867 H   0  0  0  0  0  0  0  0  0  0  0  0
   55.5653   25.3996   45.4392 H   0  0  0  0  0  0  0  0  0  0  0  0
   56.5587   23.9030   45.4392 H   0  0  0  0  0  0  0  0  0  0  0  0
   59.9980   25.4350   46.9480 H   0  0  0  0  0  0  0  0  0  0  0  0
   57.7140   33.4976   44.0833 H   0  0  0  0  0  0  0  0  0  0  0  0
   59.7344   34.4856   45.1584 H   0  0  0  0  0  0  0  0  0  0  0  0
   64.1985   31.6130   47.4811 H   0  0  0  0  0  0  0  0  0  0  0  0
   63.8316   33.3345   47.0351 H   0  0  0  0  0  0  0  0  0  0  0  0
   65.5663   33.1873   48.7958 H   0  0  0  0  0  0  0  0  0  0  0  0
   64.0376   34.0054   49.3673 H   0  0  0  0  0  0  0  0  0  0  0  0
   63.3418   30.4669   49.7574 H   0  0  0  0  0  0  0  0  0  0  0  0
   62.9245   31.3732   51.2920 H   0  0  0  0  0  0  0  0  0  0  0  0
   61.1148   31.5379   49.6295 H   0  0  0  0  0  0  0  0  0  0  0  0
   61.8705   33.1391   49.9836 H   0  0  0  0  0  0  0  0  0  0  0  0
   59.6248   31.4050   48.1969 H   0  0  0  0  0  0  0  0  0  0  0  0
   57.6196   30.4027   47.1073 H   0  0  0  0  0  0  0  0  0  0  0  0
  1  2  1  0
  2  3  2  0
  2  4  1  0
  4  5  2  0
  5  6  1  0
  5  7  1  0
  7  8  1  0
  8  9  2  0
  8 10  1  0
 10 11  1  0
 11 12  2  0
 11 13  1  0
 13 14  1  0
 14 15  2  0
 15 16  1  0
 16 17  2  0
 17 18  1  0
 18 19  2  0
 18 20  2  0
 18 21  1  0
 21 22  1  0
 22 23  1  0
 23 24  1  0
 24 25  1  0
 25 26  1  0
 17 27  1  0
 27 28  2  0
 10 29  2  0
 29 30  1  0
 29  4  1  0
 28 14  1  0
 26 21  1  0
  1 31  1  0
  1 32  1  0
  1 33  1  0
  6 34  1  0
 15 35  1  0
 16 36  1  0
 22 37  1  0
 22 38  1  0
 23 39  1  0
 23 40  1  0
 25 41  1  0
 25 42  1  0
 26 43  1  0
 26 44  1  0
 27 45  1  0
 28 46  1  0
M  CHG  2  13  -1  30  -1
M  END
>  <UniqueID>  (76) 
74

>  <SMILES>  (76) 
CC(=O)c1c(O)oc(=O)c(C(=O)[N-]c2ccc(S(=O)(=O)N3CCOCC3)cc2)c1[O-]

>  <Energy>  (76) 
75.73260920240091

>  <Genealogy>  (76) 
CC(=O)c1c(O)oc(=O)c(C(=O)[N-]c2ccc(S(=O)(=O)N3CCOCC3)cc2)c1[O-] (protonated)
CC(=O)c1c(O)oc(=O)c(C(=O)[N-]c2ccc(S(=O)(=O)N3CCOCC3)cc2)c1[O-] (3D coordinates assigned)
CC(=O)c1c(O)oc(=O)c(C(=O)[N-]c2ccc(S(=O)(=O)N3CCOCC3)cc2)c1[O-] (nonaromatic ring conformer: 75.73260920240091 kcal/mol)

>  <smiles>  (76) 
CC(=O)c1c(O)oc(=O)c(C(=O)Nc2ccc(S(=O)(=O)N3CCOCC3)cc2)c1O

>  <score_type>  (76) 
oracle

>  <origin>  (76) 
adg

>  <m_score__min__energy>  (76) 
-13.85

>  <m_primary>  (76) 
energy

$$$$
76:0
     RDKit          3D

 64 67  0  0  0  0  0  0  0  0999 V2000
   54.1820   24.4040   45.8920 O   0  0  0  0  0  0  0  0  0  0  0  0
   55.3720   24.7680   46.0760 C   0  0  0  0  0  0  0  0  0  0  0  0
   56.0560   25.3740   45.0740 N   0  0  0  0  0  0  0  0  0  0  0  0
   57.3470   25.7750   45.2280 C   0  0  0  0  0  0  0  0  0  0  0  0
   58.0560   26.4270   44.0550 C   0  0  0  0  0  0  0  0  0  0  0  0
   58.2510   27.9450   44.2100 C   0  0  0  0  0  0  0  0  0  0  0  0
   57.1290   28.5460   44.9430 N   0  0  0  0  0  0  0  0  0  0  0  0
   56.6370   30.0650   44.2340 S   0  0  0  0  0  0  0  0  0  0  0  0
   55.1720   30.2790   44.5030 O   0  0  0  0  0  0  0  0  0  0  0  0
   56.8760   30.0790   42.7470 O   0  0  0  0  0  0  0  0  0  0  0  0
   57.5440   31.3910   44.9490 C   0  0  0  0  0  0  0  0  0  0  0  0
   56.9760   32.6700   44.9870 C   0  0  0  0  0  0  0  0  0  0  0  0
   57.6910   33.7450   45.5200 C   0  0  0  0  0  0  0  0  0  0  0  0
   58.9920   33.5570   46.0120 C   0  0  0  0  0  0  0  0  0  0  0  0
   59.7630   34.7220   46.5780 C   0  0  0  0  0  0  0  0  0  0  0  0
   60.1450   34.4880   48.0430 C   0  0  0  0  0  0  0  0  0  0  0  0
   59.1700   33.5970   48.6720 N   0  0  0  0  0  0  0  0  0  0  0  0
   59.6890   33.1150   50.2590 S   0  0  0  0  0  0  0  0  0  0  0  0
   59.2900   34.1670   51.2570 O   0  0  0  0  0  0  0  0  0  0  0  0
   59.0410   31.8170   50.6530 O   0  0  0  0  0  0  0  0  0  0  0  0
   61.4410   32.9550   50.2420 C   0  0  0  0  0  0  0  0  0  0  0  0
   62.2300   33.8800   50.9430 C   0  0  0  0  0  0  0  0  0  0  0  0
   63.6240   33.8010   50.8850 C   0  0  0  0  0  0  0  0  0  0  0  0
   64.2390   32.7960   50.1290 C   0  0  0  0  0  0  0  0  0  0  0  0
   65.9900   32.6930   50.0640 Cl  0  0  0  0  0  0  0  0  0  0  0  0
   63.4560   31.8750   49.4220 C   0  0  0  0  0  0  0  0  0  0  0  0
   62.0600   31.9570   49.4760 C   0  0  0  0  0  0  0  0  0  0  0  0
   59.5540   32.2690   45.9870 C   0  0  0  0  0  0  0  0  0  0  0  0
   58.8340   31.1910   45.4610 C   0  0  0  0  0  0  0  0  0  0  0  0
   58.0090   25.5160   46.4560 C   0  0  0  0  0  0  0  0  0  0  0  0
   59.4780   25.8440   46.6810 C   0  0  0  0  0  0  0  0  0  0  0  0
   59.6960   27.0380   47.5830 C   0  0  0  0  0  0  0  0  0  0  0  0
   58.9150   28.1910   47.3940 C   0  0  0  0  0  0  0  0  0  0  0  0
   59.0800   29.3060   48.2230 C   0  0  0  0  0  0  0  0  0  0  0  0
   60.0200   29.2770   49.2560 C   0  0  0  0  0  0  0  0  0  0  0  0
   60.7840   28.1300   49.4730 C   0  0  0  0  0  0  0  0  0  0  0  0
   60.6160   27.0080   48.6520 C   0  0  0  0  0  0  0  0  0  0  0  0
   57.2550   24.9310   47.4930 C   0  0  0  0  0  0  0  0  0  0  0  0
   57.7550   24.7520   48.6340 O   0  0  0  0  0  0  0  0  0  0  0  0
   55.9650   24.5640   47.2780 N   0  0  0  0  0  0  0  0  0  0  0  0
   59.0459   25.9600   43.9457 H   0  0  0  0  0  0  0  0  0  0  0  0
   57.4178   26.2756   43.1720 H   0  0  0  0  0  0  0  0  0  0  0  0
   59.1838   28.1337   44.7616 H   0  0  0  0  0  0  0  0  0  0  0  0
   58.2985   28.3971   43.2083 H   0  0  0  0  0  0  0  0  0  0  0  0
   56.3070   27.9030   44.8500 H   0  0  0  0  0  0  0  0  0  0  0  0
   55.9607   32.8293   44.5948 H   0  0  0  0  0  0  0  0  0  0  0  0
   57.2321   34.7441   45.5543 H   0  0  0  0  0  0  0  0  0  0  0  0
   60.6807   34.8630   45.9881 H   0  0  0  0  0  0  0  0  0  0  0  0
   59.1225   35.6149   46.5282 H   0  0  0  0  0  0  0  0  0  0  0  0
   61.1436   34.0293   48.0914 H   0  0  0  0  0  0  0  0  0  0  0  0
   60.1538   35.4509   48.5748 H   0  0  0  0  0  0  0  0  0  0  0  0
   61.7498   34.6694   51.5398 H   0  0  0  0  0  0  0  0  0  0  0  0
   64.2388   34.5294   51.4340 H   0  0  0  0  0  0  0  0  0  0  0  0
   63.9381   31.0873   48.8244 H   0  0  0  0  0  0  0  0  0  0  0  0
   61.4464   31.2362   48.9157 H   0  0  0  0  0  0  0  0  0  0  0  0
   60.5671   32.1074   46.3838 H   0  0  0  0  0  0  0  0  0  0  0  0
   59.2802   30.1856   45.4490 H   0  0  0  0  0  0  0  0  0  0  0  0
   59.9646   24.9692   47.1370 H   0  0  0  0  0  0  0  0  0  0  0  0
   59.9083   26.0953   45.7003 H   0  0  0  0  0  0  0  0  0  0  0  0
   58.1675   28.2171   46.5874 H   0  0  0  0  0  0  0  0  0  0  0  0
   58.4690   30.2063   48.0612 H   0  0  0  0  0  0  0  0  0  0  0  0
   60.1579   30.1590   49.8987 H   0  0  0  0  0  0  0  0  0  0  0  0
   61.5197   28.1069   50.2905 H   0  0  0  0  0  0  0  0  0  0  0  0
   61.2046   26.0983   48.8417 H   0  0  0  0  0  0  0  0  0  0  0  0
  1  2  2  0
  2  3  1  0
  3  4  1  0
  4  5  1  0
  5  6  1  0
  6  7  1  0
  7  8  1  0
  8  9  2  0
  8 10  2  0
  8 11  1  0
 11 12  2  0
 12 13  1  0
 13 14  2  0
 14 15  1  0
 15 16  1  0
 16 17  1  0
 17 18  1  0
 18 19  2  0
 18 20  2  0
 18 21  1  0
 21 22  2  0
 22 23  1  0
 23 24  2  0
 24 25  1  0
 24 26  1  0
 26 27  2  0
 14 28  1  0
 28 29  2  0
  4 30  2  0
 30 31  1  0
 31 32  1  0
 32 33  2  0
 33 34  1  0
 34 35  2  0
 35 36  1  0
 36 37  2  0
 30 38  1  0
 38 39  2  0
 38 40  1  0
 40  2  1  0
 29 11  1  0
 37 32  1  0
 27 21  1  0
  5 41  1  0
  5 42  1  0
  6 43  1  0
  6 44  1  0
  7 45  1  0
 12 46  1  0
 13 47  1  0
 15 48  1  0
 15 49  1  0
 16 50  1  0
 16 51  1  0
 22 52  1  0
 23 53  1  0
 26 54  1  0
 27 55  1  0
 28 56  1  0
 29 57  1  0
 31 58  1  0
 31 59  1  0
 33 60  1  0
 34 61  1  0
 35 62  1  0
 36 63  1  0
 37 64  1  0
M  CHG  3   3  -1  17  -1  40  -1
M  END
>  <UniqueID>  (77) 
75

>  <SMILES>  (77) 
O=c1[n-]c(CCNS(=O)(=O)c2ccc(CC[N-]S(=O)(=O)c3ccc(Cl)cc3)cc2)c(Cc2ccccc2)c(=O)[n-]1

>  <Energy>  (77) 
64.85569425796108

>  <Genealogy>  (77) 
O=c1[n-]c(CCNS(=O)(=O)c2ccc(CC[N-]S(=O)(=O)c3ccc(Cl)cc3)cc2)c(Cc2ccccc2)c(=O)[n-]1 (protonated)
O=c1[n-]c(CCNS(=O)(=O)c2ccc(CC[N-]S(=O)(=O)c3ccc(Cl)cc3)cc2)c(Cc2ccccc2)c(=O)[n-]1 (3D coordinates assigned)
O=c1[n-]c(CCNS(=O)(=O)c2ccc(CC[N-]S(=O)(=O)c3ccc(Cl)cc3)cc2)c(Cc2ccccc2)c(=O)[n-]1 (optimized conformer: 64.85569425796108 kcal/mol)

>  <smiles>  (77) 
O=c1[nH]c(CCNS(=O)(=O)c2ccc(CCNS(=O)(=O)c3ccc(Cl)cc3)cc2)c(Cc2ccccc2)c(=O)[nH]1

>  <score_type>  (77) 
oracle

>  <origin>  (77) 
adg

>  <m_score__min__energy>  (77) 
-15.710000000000001

>  <m_primary>  (77) 
energy

$$$$
77:0
     RDKit          3D

 66 69  0  0  0  0  0  0  0  0999 V2000
   57.2030   33.1060   46.8860 N   0  0  0  0  0  0  0  0  0  0  0  0
   58.2420   33.7680   46.1000 C   0  0  0  0  0  0  0  0  0  0  0  0
   59.5890   33.6560   46.7690 C   0  0  0  0  0  0  0  0  0  0  0  0
   60.4010   32.5360   46.5380 C   0  0  0  0  0  0  0  0  0  0  0  0
   61.6490   32.4290   47.1610 C   0  0  0  0  0  0  0  0  0  0  0  0
   62.0940   33.4360   48.0370 C   0  0  0  0  0  0  0  0  0  0  0  0
   63.4700   33.3750   48.6410 C   0  0  0  0  0  0  0  0  0  0  0  0
   63.3600   33.5240   50.0880 N   0  0  0  0  0  0  0  0  0  0  0  0
   62.1910   33.1560   50.8320 C   0  0  0  0  0  0  0  0  0  0  0  0
   61.3460   34.0420   51.1280 O   0  0  0  0  0  0  0  0  0  0  0  0
   61.9810   31.7330   51.2170 C   0  0  0  0  0  0  0  0  0  0  0  0
   61.9520   30.7630   50.1980 C   0  0  0  0  0  0  0  0  0  0  0  0
   61.7560   29.4160   50.4980 C   0  0  0  0  0  0  0  0  0  0  0  0
   61.6000   29.0310   51.8250 C   0  0  0  0  0  0  0  0  0  0  0  0
   61.6380   29.9640   52.8090 N   0  0  0  0  0  0  0  0  0  0  0  0
   61.8230   31.2890   52.5600 C   0  0  0  0  0  0  0  0  0  0  0  0
   61.8290   32.3680   53.9580 S   0  0  0  0  0  0  0  0  0  0  0  0
   63.2530   32.7040   54.3020 O   0  0  0  0  0  0  0  0  0  0  0  0
   61.1930   31.6620   55.1260 O   0  0  0  0  0  0  0  0  0  0  0  0
   60.9730   33.8350   53.6180 N   0  0  0  0  0  0  0  0  0  0  0  0
   59.5450   33.8610   53.5230 C   0  0  0  0  0  0  0  0  0  0  0  0
   58.9260   34.9580   53.5520 O   0  0  0  0  0  0  0  0  0  0  0  0
   58.7730   32.5760   53.4630 C   0  0  0  0  0  0  0  0  0  0  0  0
   58.6900   32.0240   52.0580 C   0  0  0  0  0  0  0  0  0  0  0  0
   58.7700   32.9000   50.9650 C   0  0  0  0  0  0  0  0  0  0  0  0
   58.7100   32.4110   49.6560 C   0  0  0  0  0  0  0  0  0  0  0  0
   58.5710   31.0390   49.4180 C   0  0  0  0  0  0  0  0  0  0  0  0
   58.5210   30.5550   48.0640 N   0  0  0  0  0  0  0  0  0  0  0  0
   59.0160   29.2730   47.6540 C   0  0  0  0  0  0  0  0  0  0  0  0
   59.6980   28.5680   48.4490 O   0  0  0  0  0  0  0  0  0  0  0  0
   58.8040   28.8430   46.3040 N   0  0  0  0  0  0  0  0  0  0  0  0
   58.0620   29.5510   45.3000 C   0  0  0  0  0  0  0  0  0  0  0  0
   58.6070   30.6480   44.6100 C   0  0  0  0  0  0  0  0  0  0  0  0
   57.8600   31.3050   43.6240 C   0  0  0  0  0  0  0  0  0  0  0  0
   58.3900   32.3600   42.9580 F   0  0  0  0  0  0  0  0  0  0  0  0
   56.5700   30.8650   43.3150 C   0  0  0  0  0  0  0  0  0  0  0  0
   56.0340   29.7580   43.9770 C   0  0  0  0  0  0  0  0  0  0  0  0
   56.7780   29.0970   44.9600 C   0  0  0  0  0  0  0  0  0  0  0  0
   56.2400   28.0290   45.5960 F   0  0  0  0  0  0  0  0  0  0  0  0
   58.4150   30.1660   50.5110 C   0  0  0  0  0  0  0  0  0  0  0  0
   58.4600   30.6570   51.8180 C   0  0  0  0  0  0  0  0  0  0  0  0
   61.2760   34.5510   48.2710 C   0  0  0  0  0  0  0  0  0  0  0  0
   60.0280   34.6570   47.6520 C   0  0  0  0  0  0  0  0  0  0  0  0
   57.6580   32.5390   47.6430 H   0  0  0  0  0  0  0  0  0  0  0  0
   56.5920   33.8270   47.3290 H   0  0  0  0  0  0  0  0  0  0  0  0
   58.2947   33.2977   45.1070 H   0  0  0  0  0  0  0  0  0  0  0  0
   57.9852   34.8340   46.0121 H   0  0  0  0  0  0  0  0  0  0  0  0
   60.0551   31.7384   45.8641 H   0  0  0  0  0  0  0  0  0  0  0  0
   62.2854   31.5534   46.9650 H   0  0  0  0  0  0  0  0  0  0  0  0
   63.9342   32.4063   48.4041 H   0  0  0  0  0  0  0  0  0  0  0  0
   64.0926   34.1835   48.2302 H   0  0  0  0  0  0  0  0  0  0  0  0
   62.0858   31.0719   49.1508 H   0  0  0  0  0  0  0  0  0  0  0  0
   61.7251   28.6659   49.6940 H   0  0  0  0  0  0  0  0  0  0  0  0
   61.4460   27.9713   52.0765 H   0  0  0  0  0  0  0  0  0  0  0  0
   59.2693   31.8343   54.1061 H   0  0  0  0  0  0  0  0  0  0  0  0
   57.7482   32.7817   53.8058 H   0  0  0  0  0  0  0  0  0  0  0  0
   58.8808   33.9805   51.1390 H   0  0  0  0  0  0  0  0  0  0  0  0
   58.7725   33.1092   48.8083 H   0  0  0  0  0  0  0  0  0  0  0  0
   58.1980   31.2110   47.3130 H   0  0  0  0  0  0  0  0  0  0  0  0
   59.6249   30.9920   44.8456 H   0  0  0  0  0  0  0  0  0  0  0  0
   55.9774   31.3899   42.5513 H   0  0  0  0  0  0  0  0  0  0  0  0
   55.0233   29.4048   43.7245 H   0  0  0  0  0  0  0  0  0  0  0  0
   58.2569   29.0917   50.3351 H   0  0  0  0  0  0  0  0  0  0  0  0
   58.3147   29.9704   52.6650 H   0  0  0  0  0  0  0  0  0  0  0  0
   61.6196   35.3479   48.9469 H   0  0  0  0  0  0  0  0  0  0  0  0
   59.3868   35.5271   47.8566 H   0  0  0  0  0  0  0  0  0  0  0  0
  1  2  1  0
  2  3  1  0
  3  4  2  0
  4  5  1  0
  5  6  2  0
  6  7  1  0
  7  8  1  0
  8  9  1  0
  9 10  2  0
  9 11  1  0
 11 12  2  0
 12 13  1  0
 13 14  2  0
 14 15  1  0
 15 16  2  0
 16 17  1  0
 17 18  2  0
 17 19  2  0
 17 20  1  0
 20 21  1  0
 21 22  2  0
 21 23  1  0
 23 24  1  0
 24 25  2  0
 25 26  1  0
 26 27  2  0
 27 28  1  0
 28 29  1  0
 29 30  2  0
 29 31  1  0
 31 32  1  0
 32 33  2  0
 33 34  1  0
 34 35  1  0
 34 36  2  0
 36 37  1  0
 37 38  2  0
 38 39  1  0
 27 40  1  0
 40 41  2  0
  6 42  1  0
 42 43  2  0
 43  3  1  0
 16 11  1  0
 41 24  1  0
 38 32  1  0
  1 44  1  0
  1 45  1  0
  2 46  1  0
  2 47  1  0
  4 48  1  0
  5 49  1  0
  7 50  1  0
  7 51  1  0
 12 52  1  0
 13 53  1  0
 14 54  1  0
 23 55  1  0
 23 56  1  0
 25 57  1  0
 26 58  1  0
 28 59  1  0
 33 60  1  0
 36 61  1  0
 37 62  1  0
 40 63  1  0
 41 64  1  0
 42 65  1  0
 43 66  1  0
M  CHG  3   8  -1  20  -1  31  -1
M  END
>  <UniqueID>  (78) 
76

>  <SMILES>  (78) 
NCc1ccc(C[N-]C(=O)c2cccnc2S(=O)(=O)[N-]C(=O)Cc2ccc(NC(=O)[N-]c3cc(F)ccc3F)cc2)cc1

>  <Energy>  (78) 
80.01295461477916

>  <Genealogy>  (78) 
NCc1ccc(C[N-]C(=O)c2cccnc2S(=O)(=O)[N-]C(=O)Cc2ccc(NC(=O)[N-]c3cc(F)ccc3F)cc2)cc1 (protonated)
NCc1ccc(C[N-]C(=O)c2cccnc2S(=O)(=O)[N-]C(=O)Cc2ccc(NC(=O)[N-]c3cc(F)ccc3F)cc2)cc1 (3D coordinates assigned)
NCc1ccc(C[N-]C(=O)c2cccnc2S(=O)(=O)[N-]C(=O)Cc2ccc(NC(=O)[N-]c3cc(F)ccc3F)cc2)cc1 (optimized conformer: 80.01295461477916 kcal/mol)

>  <smiles>  (78) 
NCc1ccc(CNC(=O)c2cccnc2S(=O)(=O)NC(=O)Cc2ccc(NC(=O)Nc3cc(F)ccc3F)cc2)cc1

>  <score_type>  (78) 
oracle

>  <origin>  (78) 
adg

>  <m_score__min__energy>  (78) 
-13.83

>  <m_primary>  (78) 
energy

$$$$
78:0
     RDKit          3D

 51 53  0  0  0  0  0  0  0  0999 V2000
   58.4970   32.2490   44.6440 O   0  0  0  0  0  0  0  0  0  0  0  0
   58.3640   31.5360   45.6770 C   0  0  0  0  0  0  0  0  0  0  0  0
   58.2290   32.1670   46.9610 N   0  0  0  0  0  0  0  0  0  0  0  0
   58.4940   33.5890   47.1620 C   0  0  0  0  0  0  0  0  0  0  0  0
   59.9210   33.7960   47.5930 C   0  0  0  0  0  0  0  0  0  0  0  0
   60.9730   33.6680   46.6710 C   0  0  0  0  0  0  0  0  0  0  0  0
   62.2980   33.8350   47.0870 C   0  0  0  0  0  0  0  0  0  0  0  0
   62.5810   34.1250   48.4250 C   0  0  0  0  0  0  0  0  0  0  0  0
   61.5400   34.2460   49.3490 C   0  0  0  0  0  0  0  0  0  0  0  0
   60.2130   34.0800   48.9370 C   0  0  0  0  0  0  0  0  0  0  0  0
   58.3340   30.0600   45.5430 C   0  0  0  0  0  0  0  0  0  0  0  0
   57.7490   29.4440   44.4230 C   0  0  0  0  0  0  0  0  0  0  0  0
   57.7200   28.0510   44.3120 C   0  0  0  0  0  0  0  0  0  0  0  0
   58.2680   27.2470   45.3240 C   0  0  0  0  0  0  0  0  0  0  0  0
   58.2640   25.7430   45.1960 C   0  0  0  0  0  0  0  0  0  0  0  0
   56.8260   25.1790   45.1460 C   0  0  1  0  0  0  0  0  0  0  0  0
   56.8250   23.7080   45.1010 N   0  0  0  0  0  0  0  0  0  0  0  0
   55.5910   22.9860   44.0960 S   0  0  0  0  0  0  0  0  0  0  0  0
   55.5410   23.7220   42.7870 O   0  0  0  0  0  0  0  0  0  0  0  0
   55.9130   21.5460   43.8140 O   0  0  0  0  0  0  0  0  0  0  0  0
   54.0060   23.1220   44.8710 C   0  0  0  0  0  0  0  0  0  0  0  0
   52.9610   23.7740   44.1960 C   0  0  0  0  0  0  0  0  0  0  0  0
   51.6970   23.8810   44.7810 C   0  0  0  0  0  0  0  0  0  0  0  0
   51.4640   23.3440   46.0470 C   0  0  0  0  0  0  0  0  0  0  0  0
   52.4960   22.7010   46.7330 C   0  0  0  0  0  0  0  0  0  0  0  0
   53.7670   22.5870   46.1570 C   0  0  0  0  0  0  0  0  0  0  0  0
   55.1330   21.7000   47.1720 Br  0  0  0  0  0  0  0  0  0  0  0  0
   55.9130   25.7310   46.2120 C   0  0  0  0  0  0  0  0  0  0  0  0
   55.1460   26.7020   45.9740 O   0  0  0  0  0  0  0  0  0  0  0  0
   55.9520   25.1930   47.4930 O   0  0  0  0  0  0  0  0  0  0  0  0
   58.8460   27.8570   46.4460 C   0  0  0  0  0  0  0  0  0  0  0  0
   58.8740   29.2500   46.5580 C   0  0  0  0  0  0  0  0  0  0  0  0
   57.8880   31.6140   47.7780 H   0  0  0  0  0  0  0  0  0  0  0  0
   58.3172   34.1283   46.2197 H   0  0  0  0  0  0  0  0  0  0  0  0
   57.8234   33.9718   47.9454 H   0  0  0  0  0  0  0  0  0  0  0  0
   60.7541   33.4357   45.6183 H   0  0  0  0  0  0  0  0  0  0  0  0
   63.1183   33.7380   46.3605 H   0  0  0  0  0  0  0  0  0  0  0  0
   63.6233   34.2579   48.7503 H   0  0  0  0  0  0  0  0  0  0  0  0
   61.7639   34.4721   50.4020 H   0  0  0  0  0  0  0  0  0  0  0  0
   59.3962   34.1722   49.6680 H   0  0  0  0  0  0  0  0  0  0  0  0
   57.3102   30.0636   43.6270 H   0  0  0  0  0  0  0  0  0  0  0  0
   57.2653   27.5821   43.4269 H   0  0  0  0  0  0  0  0  0  0  0  0
   58.7897   25.4622   44.2714 H   0  0  0  0  0  0  0  0  0  0  0  0
   58.7678   25.3217   46.0785 H   0  0  0  0  0  0  0  0  0  0  0  0
   56.3931   25.5374   44.2004 H   0  0  0  0  0  0  0  0  0  0  0  0
   53.1393   24.2036   43.1992 H   0  0  0  0  0  0  0  0  0  0  0  0
   50.8840   24.3897   44.2423 H   0  0  0  0  0  0  0  0  0  0  0  0
   50.4673   23.4271   46.5049 H   0  0  0  0  0  0  0  0  0  0  0  0
   52.3093   22.2812   47.7325 H   0  0  0  0  0  0  0  0  0  0  0  0
   59.2802   27.2357   47.2431 H   0  0  0  0  0  0  0  0  0  0  0  0
   59.3222   29.7167   47.4476 H   0  0  0  0  0  0  0  0  0  0  0  0
  1  2  2  0
  2  3  1  0
  3  4  1  0
  4  5  1  0
  5  6  2  0
  6  7  1  0
  7  8  2  0
  8  9  1  0
  9 10  2  0
  2 11  1  0
 11 12  2  0
 12 13  1  0
 13 14  2  0
 14 15  1  0
 15 16  1  0
 16 17  1  0
 17 18  1  0
 18 19  2  0
 18 20  2  0
 18 21  1  0
 21 22  2  0
 22 23  1  0
 23 24  2  0
 24 25  1  0
 25 26  2  0
 26 27  1  0
 16 28  1  0
 28 29  2  0
 28 30  1  0
 14 31  1  0
 31 32  2  0
 10  5  1  0
 32 11  1  0
 26 21  1  0
  3 33  1  0
  4 34  1  0
  4 35  1  0
  6 36  1  0
  7 37  1  0
  8 38  1  0
  9 39  1  0
 10 40  1  0
 12 41  1  0
 13 42  1  0
 15 43  1  0
 15 44  1  0
 16 45  1  6
 22 46  1  0
 23 47  1  0
 24 48  1  0
 25 49  1  0
 31 50  1  0
 32 51  1  0
M  CHG  2  17  -1  30  -1
M  END
>  <UniqueID>  (79) 
77

>  <SMILES>  (79) 
O=C(NCc1ccccc1)c1ccc(C[C@@H]([N-]S(=O)(=O)c2ccccc2Br)C(=O)[O-])cc1

>  <Energy>  (79) 
58.01284726148964

>  <Genealogy>  (79) 
O=C(NCc1ccccc1)c1ccc(CC([N-]S(=O)(=O)c2ccccc2Br)C(=O)[O-])cc1 (protonated)
O=C(NCc1ccccc1)c1ccc(C[C@@H]([N-]S(=O)(=O)c2ccccc2Br)C(=O)[O-])cc1 (chirality)
O=C(NCc1ccccc1)c1ccc(C[C@@H]([N-]S(=O)(=O)c2ccccc2Br)C(=O)[O-])cc1 (3D coordinates assigned)
O=C(NCc1ccccc1)c1ccc(C[C@@H]([N-]S(=O)(=O)c2ccccc2Br)C(=O)[O-])cc1 (optimized conformer: 58.01284726148964 kcal/mol)

>  <smiles>  (79) 
O=C(NCc1ccccc1)c1ccc(CC(NS(=O)(=O)c2ccccc2Br)C(=O)O)cc1

>  <score_type>  (79) 
oracle

>  <origin>  (79) 
adg

>  <m_score__min__energy>  (79) 
-13.49

>  <m_primary>  (79) 
energy

$$$$
79:0
     RDKit          3D

 64 68  0  0  0  0  0  0  0  0999 V2000
   58.7199   25.0750   47.2215 H   0  0  0  0  0  0  0  0  0  0  0  0
   58.6130   26.1690   47.1790 C   0  0  0  0  0  0  0  0  0  0  0  0
   57.7890   26.7600   46.2160 C   0  0  0  0  0  0  0  0  0  0  0  0
   57.1170   25.9620   45.2310 N   0  0  0  0  0  0  0  0  0  0  0  0
   57.7110   25.7770   43.9020 C   0  0  0  0  0  0  0  0  0  0  0  0
   57.5300   26.6792   43.2993 H   0  0  0  0  0  0  0  0  0  0  0  0
   58.7902   25.6022   44.0239 H   0  0  0  0  0  0  0  0  0  0  0  0
   57.0990   24.5630   43.1840 C   0  0  0  0  0  0  0  0  0  0  0  0
   56.1634   24.8746   42.6966 H   0  0  0  0  0  0  0  0  0  0  0  0
   57.8329   24.2009   42.4490 H   0  0  0  0  0  0  0  0  0  0  0  0
   56.7880   23.3930   44.1640 C   0  0  0  0  0  0  0  0  0  0  0  0
   56.1870   22.2300   43.3970 C   0  0  0  0  0  0  0  0  0  0  0  0
   55.5400   22.4120   42.3300 O   0  0  0  0  0  0  0  0  0  0  0  0
   56.3310   20.9070   43.9070 N   0  0  0  0  0  0  0  0  0  0  0  0
   56.7770   20.6920   45.2750 C   0  0  0  0  0  0  0  0  0  0  0  0
   57.0496   19.6335   45.3989 H   0  0  0  0  0  0  0  0  0  0  0  0
   55.9549   20.9691   45.9512 H   0  0  0  0  0  0  0  0  0  0  0  0
   57.9970   21.5650   45.6200 C   0  0  0  0  0  0  0  0  0  0  0  0
   58.9041   20.9695   45.4396 H   0  0  0  0  0  0  0  0  0  0  0  0
   57.8717   21.8650   46.6709 H   0  0  0  0  0  0  0  0  0  0  0  0
   58.1160   22.8810   44.8060 C   0  0  0  0  0  0  0  0  0  0  0  0
   58.8424   22.7151   43.9968 H   0  0  0  0  0  0  0  0  0  0  0  0
   58.4240   23.6552   45.5242 H   0  0  0  0  0  0  0  0  0  0  0  0
   55.7830   23.8690   45.2630 C   0  0  0  0  0  0  0  0  0  0  0  0
   54.7678   23.5891   44.9452 H   0  0  0  0  0  0  0  0  0  0  0  0
   56.0889   23.3813   46.2003 H   0  0  0  0  0  0  0  0  0  0  0  0
   55.8030   25.3850   45.5300 C   0  0  0  0  0  0  0  0  0  0  0  0
   55.0461   25.8703   44.8963 H   0  0  0  0  0  0  0  0  0  0  0  0
   55.5849   25.5525   46.5951 H   0  0  0  0  0  0  0  0  0  0  0  0
   57.6520   28.1130   46.1920 N   0  0  0  0  0  0  0  0  0  0  0  0
   58.2920   28.9330   47.0730 C   0  0  0  0  0  0  0  0  0  0  0  0
   58.1520   30.2250   46.9860 N   0  0  0  0  0  0  0  0  0  0  0  0
   58.7730   31.0740   45.9680 C   0  0  0  0  0  0  0  0  0  0  0  0
   59.0503   30.4520   45.1041 H   0  0  0  0  0  0  0  0  0  0  0  0
   58.0491   31.8489   45.6756 H   0  0  0  0  0  0  0  0  0  0  0  0
   60.0090   31.7560   46.4980 C   0  0  0  0  0  0  0  0  0  0  0  0
   60.0080   33.1400   46.7350 C   0  0  0  0  0  0  0  0  0  0  0  0
   59.1060   33.7325   46.5221 H   0  0  0  0  0  0  0  0  0  0  0  0
   61.1510   33.7670   47.2410 C   0  0  0  0  0  0  0  0  0  0  0  0
   61.1443   34.8506   47.4303 H   0  0  0  0  0  0  0  0  0  0  0  0
   62.3030   33.0190   47.5070 C   0  0  0  0  0  0  0  0  0  0  0  0
   63.7320   33.8060   48.1490 Cl  0  0  0  0  0  0  0  0  0  0  0  0
   62.3140   31.6440   47.2590 C   0  0  0  0  0  0  0  0  0  0  0  0
   63.2217   31.0566   47.4614 H   0  0  0  0  0  0  0  0  0  0  0  0
   61.1730   31.0140   46.7540 C   0  0  0  0  0  0  0  0  0  0  0  0
   61.1872   29.9320   46.5563 H   0  0  0  0  0  0  0  0  0  0  0  0
   59.1410   28.3710   48.0520 C   0  0  0  0  0  0  0  0  0  0  0  0
   59.8890   29.2010   49.0200 C   0  0  0  0  0  0  0  0  0  0  0  0
   60.9150   28.7160   49.5720 O   0  0  0  0  0  0  0  0  0  0  0  0
   59.4610   30.5410   49.3230 N   0  0  0  0  0  0  0  0  0  0  0  0
   58.6740   30.9480   48.7700 H   0  0  0  0  0  0  0  0  0  0  0  0
   60.0910   31.3900   50.2980 C   0  0  0  0  0  0  0  0  0  0  0  0
   59.3450   32.2830   51.0880 C   0  0  0  0  0  0  0  0  0  0  0  0
   58.2523   32.3333   50.9716 H   0  0  0  0  0  0  0  0  0  0  0  0
   59.9830   33.1080   52.0210 C   0  0  0  0  0  0  0  0  0  0  0  0
   59.0240   34.2050   53.0020 Cl  0  0  0  0  0  0  0  0  0  0  0  0
   61.3770   33.0610   52.1590 C   0  0  0  0  0  0  0  0  0  0  0  0
   62.0110   33.8760   53.0920 O   0  0  0  0  0  0  0  0  0  0  0  0
   62.1290   32.1970   51.3520 C   0  0  0  0  0  0  0  0  0  0  0  0
   63.8800   32.1410   51.4910 Cl  0  0  0  0  0  0  0  0  0  0  0  0
   61.4870   31.3730   50.4210 C   0  0  0  0  0  0  0  0  0  0  0  0
   62.0829   30.7063   49.7803 H   0  0  0  0  0  0  0  0  0  0  0  0
   59.2980   26.9780   48.0850 C   0  0  0  0  0  0  0  0  0  0  0  0
   59.9656   26.5206   48.8301 H   0  0  0  0  0  0  0  0  0  0  0  0
  1  2  1  0
  2  3  2  0
  3  4  1  0
  4  5  1  0
  5  6  1  0
  5  7  1  0
  5  8  1  0
  8  9  1  0
  8 10  1  0
  8 11  1  0
 11 12  1  0
 12 13  2  0
 12 14  1  0
 14 15  1  0
 15 16  1  0
 15 17  1  0
 15 18  1  0
 18 19  1  0
 18 20  1  0
 18 21  1  0
 21 22  1  0
 21 23  1  0
 11 24  1  0
 24 25  1  0
 24 26  1  0
 24 27  1  0
 27 28  1  0
 27 29  1  0
  3 30  1  0
 30 31  1  0
 31 32  2  0
 32 33  1  0
 33 34  1  0
 33 35  1  0
 33 36  1  0
 36 37  2  0
 37 38  1  0
 37 39  1  0
 39 40  1  0
 39 41  2  0
 41 42  1  0
 41 43  1  0
 43 44  1  0
 43 45  2  0
 45 46  1  0
 31 47  1  0
 47 48  1  0
 48 49  2  0
 48 50  1  0
 50 51  1  0
 50 52  1  0
 52 53  2  0
 53 54  1  0
 53 55  1  0
 55 56  1  0
 55 57  2  0
 57 58  1  0
 57 59  1  0
 59 60  1  0
 59 61  2  0
 61 62  1  0
 47 63  2  0
 63 64  1  0
 63  2  1  0
 27  4  1  0
 45 36  1  0
 61 52  1  0
 21 11  1  0
M  CHG  3  14  -1  30  -1  58  -1
M  END
>  <UniqueID>  (80) 
78

>  <SMILES>  (80) 
O=C(Nc1cc(Cl)c([O-])c(Cl)c1)c1ccc(N2CCC3(CCC[N-]C3=O)CC2)[n-]/c1=N\Cc1ccc(Cl)cc1

>  <Energy>  (80) 
88.6091280431274

>  <Genealogy>  (80) 
O=C(Nc1cc(Cl)c([O-])c(Cl)c1)c1ccc(N2CCC3(CCC[N-]C3=O)CC2)[n-]c1=NCc1ccc(Cl)cc1 (protonated)
O=C(Nc1cc(Cl)c([O-])c(Cl)c1)c1ccc(N2CCC3(CCC[N-]C3=O)CC2)[n-]/c1=N\Cc1ccc(Cl)cc1 (cis-trans isomerization)
O=C(Nc1cc(Cl)c([O-])c(Cl)c1)c1ccc(N2CCC3(CCC[N-]C3=O)CC2)[n-]/c1=N\Cc1ccc(Cl)cc1 (3D coordinates assigned)
O=C(Nc1cc(Cl)c([O-])c(Cl)c1)c1ccc(N2CCC3(CCC[N-]C3=O)CC2)[n-]/c1=N\Cc1ccc(Cl)cc1 (nonaromatic ring conformer: 88.6091280431274 kcal/mol)

>  <smiles>  (80) 
O=C(Nc1cc(Cl)c(O)c(Cl)c1)c1ccc(N2CCC3(CCCNC3=O)CC2)[nH]c1=NCc1ccc(Cl)cc1

>  <score_type>  (80) 
oracle

>  <origin>  (80) 
adg

>  <m_score__min__energy>  (80) 
-13.73

>  <m_primary>  (80) 
energy

$$$$
80:0
     RDKit          3D

 43 45  0  0  0  0  0  0  0  0999 V2000
   56.0050   30.8050   44.5760 O   0  0  0  0  0  0  0  0  0  0  0  0
   57.1680   31.0150   44.1370 C   0  0  0  0  0  0  0  0  0  0  0  0
   57.5740   32.4110   43.7770 C   0  0  0  0  0  0  0  0  0  0  0  0
   58.0930   33.1280   44.9940 C   0  0  0  0  0  0  0  0  0  0  0  0
   57.7830   32.6600   46.2820 C   0  0  0  0  0  0  0  0  0  0  0  0
   58.2940   33.3090   47.4090 C   0  0  0  0  0  0  0  0  0  0  0  0
   59.1240   34.4240   47.2600 C   0  0  0  0  0  0  0  0  0  0  0  0
   59.4460   34.8890   45.9820 C   0  0  0  0  0  0  0  0  0  0  0  0
   58.9370   34.2440   44.8510 C   0  0  0  0  0  0  0  0  0  0  0  0
   58.0680   29.9220   43.8950 N   0  0  0  0  0  0  0  0  0  0  0  0
   57.8450   28.5760   44.3480 C   0  0  0  0  0  0  0  0  0  0  0  0
   57.2350   28.3080   45.5870 C   0  0  0  0  0  0  0  0  0  0  0  0
   57.0520   26.9900   46.0150 C   0  0  0  0  0  0  0  0  0  0  0  0
   57.5000   25.9190   45.2260 C   0  0  0  0  0  0  0  0  0  0  0  0
   57.2930   24.5240   45.6630 C   0  0  0  0  0  0  0  0  0  0  0  0
   57.2100   24.2780   46.8970 O   0  0  0  0  0  0  0  0  0  0  0  0
   57.1720   23.4470   44.7150 N   0  0  0  0  0  0  0  0  0  0  0  0
   56.6470   23.6070   43.3680 C   0  0  0  0  0  0  0  0  0  0  0  0
   56.6180   22.2090   42.7670 C   0  0  0  0  0  0  0  0  0  0  0  0
   56.7310   21.2430   43.9430 C   0  0  0  0  0  0  0  0  0  0  0  0
   57.3120   22.0510   45.0970 C   0  0  0  0  0  0  0  0  0  0  0  0
   58.1060   26.1850   43.9890 C   0  0  0  0  0  0  0  0  0  0  0  0
   58.2910   27.5030   43.5620 C   0  0  0  0  0  0  0  0  0  0  0  0
   58.3634   32.3746   43.0118 H   0  0  0  0  0  0  0  0  0  0  0  0
   56.6991   32.9513   43.3863 H   0  0  0  0  0  0  0  0  0  0  0  0
   57.1354   31.7792   46.4037 H   0  0  0  0  0  0  0  0  0  0  0  0
   58.0428   32.9420   48.4151 H   0  0  0  0  0  0  0  0  0  0  0  0
   59.5235   34.9352   48.1483 H   0  0  0  0  0  0  0  0  0  0  0  0
   60.1015   35.7646   45.8658 H   0  0  0  0  0  0  0  0  0  0  0  0
   59.1972   34.6101   43.8469 H   0  0  0  0  0  0  0  0  0  0  0  0
   58.8910   30.0990   43.2760 H   0  0  0  0  0  0  0  0  0  0  0  0
   56.9000   29.1407   46.2229 H   0  0  0  0  0  0  0  0  0  0  0  0
   56.5541   26.7910   46.9755 H   0  0  0  0  0  0  0  0  0  0  0  0
   55.6328   24.0316   43.3999 H   0  0  0  0  0  0  0  0  0  0  0  0
   57.2659   24.2924   42.7704 H   0  0  0  0  0  0  0  0  0  0  0  0
   55.6740   22.0447   42.2268 H   0  0  0  0  0  0  0  0  0  0  0  0
   57.4359   22.0634   42.0460 H   0  0  0  0  0  0  0  0  0  0  0  0
   55.7390   20.8512   44.2123 H   0  0  0  0  0  0  0  0  0  0  0  0
   57.3667   20.3801   43.6955 H   0  0  0  0  0  0  0  0  0  0  0  0
   56.7547   21.8500   46.0238 H   0  0  0  0  0  0  0  0  0  0  0  0
   58.3629   21.7871   45.2865 H   0  0  0  0  0  0  0  0  0  0  0  0
   58.4373   25.3519   43.3517 H   0  0  0  0  0  0  0  0  0  0  0  0
   58.7903   27.7005   42.6020 H   0  0  0  0  0  0  0  0  0  0  0  0
  1  2  2  0
  2  3  1  0
  3  4  1  0
  4  5  2  0
  5  6  1  0
  6  7  2  0
  7  8  1  0
  8  9  2  0
  2 10  1  0
 10 11  1  0
 11 12  2  0
 12 13  1  0
 13 14  2  0
 14 15  1  0
 15 16  2  0
 15 17  1  0
 17 18  1  0
 18 19  1  0
 19 20  1  0
 20 21  1  0
 14 22  1  0
 22 23  2  0
  9  4  1  0
 23 11  1  0
 21 17  1  0
  3 24  1  0
  3 25  1  0
  5 26  1  0
  6 27  1  0
  7 28  1  0
  8 29  1  0
  9 30  1  0
 10 31  1  0
 12 32  1  0
 13 33  1  0
 18 34  1  0
 18 35  1  0
 19 36  1  0
 19 37  1  0
 20 38  1  0
 20 39  1  0
 21 40  1  0
 21 41  1  0
 22 42  1  0
 23 43  1  0
M  END
>  <UniqueID>  (81) 
79

>  <SMILES>  (81) 
O=C(Cc1ccccc1)Nc1ccc(C(=O)N2CCCC2)cc1

>  <Energy>  (81) 
49.976894939710974

>  <Genealogy>  (81) 
O=C(Cc1ccccc1)Nc1ccc(C(=O)N2CCCC2)cc1 (3D coordinates assigned)
O=C(Cc1ccccc1)Nc1ccc(C(=O)N2CCCC2)cc1 (nonaromatic ring conformer: 49.976894939710974 kcal/mol)

>  <smiles>  (81) 
O=C(Cc1ccccc1)Nc1ccc(C(=O)N2CCCC2)cc1

>  <score_type>  (81) 
oracle

>  <origin>  (81) 
adg

>  <m_score__min__energy>  (81) 
-8.8800000000000008

>  <m_primary>  (81) 
energy

$$$$
81:0
     RDKit          3D

 53 56  0  0  0  0  0  0  0  0999 V2000
   53.6408   24.8658   45.3644 H   0  0  0  0  0  0  0  0  0  0  0  0
   54.7320   24.9400   45.4820 C   0  0  0  0  0  0  0  0  0  0  0  0
   55.2720   25.9890   46.1540 N   0  0  0  0  0  0  0  0  0  0  0  0
   56.6190   26.1310   46.3200 C   0  0  0  0  0  0  0  0  0  0  0  0
   57.1070   27.1450   46.9740 N   0  0  0  0  0  0  0  0  0  0  0  0
   58.0340   28.1270   46.4840 C   0  0  0  0  0  0  0  0  0  0  0  0
   59.2120   28.1160   46.9280 O   0  0  0  0  0  0  0  0  0  0  0  0
   57.6640   29.1500   45.4810 C   0  0  0  0  0  0  0  0  0  0  0  0
   56.4220   29.0260   44.8350 C   0  0  0  0  0  0  0  0  0  0  0  0
   55.7489   28.1984   45.1033 H   0  0  0  0  0  0  0  0  0  0  0  0
   56.0340   29.9430   43.8560 C   0  0  0  0  0  0  0  0  0  0  0  0
   55.0611   29.8333   43.3546 H   0  0  0  0  0  0  0  0  0  0  0  0
   56.8790   30.9970   43.5140 C   0  0  0  0  0  0  0  0  0  0  0  0
   56.5781   31.7119   42.7340 H   0  0  0  0  0  0  0  0  0  0  0  0
   58.1060   31.1460   44.1600 C   0  0  0  0  0  0  0  0  0  0  0  0
   58.7708   31.9768   43.8811 H   0  0  0  0  0  0  0  0  0  0  0  0
   58.5010   30.2470   45.1620 C   0  0  0  0  0  0  0  0  0  0  0  0
   60.0780   30.5580   45.9860 S   0  0  0  0  0  0  0  0  0  0  0  0
   59.6590   32.2290   46.5290 C   0  0  0  0  0  0  0  0  0  0  0  0
   59.9010   33.2940   45.6440 C   0  0  0  0  0  0  0  0  0  0  0  0
   60.3250   33.0901   44.6497 H   0  0  0  0  0  0  0  0  0  0  0  0
   59.6090   34.6060   46.0140 C   0  0  0  0  0  0  0  0  0  0  0  0
   59.7763   35.4278   45.3022 H   0  0  0  0  0  0  0  0  0  0  0  0
   59.1060   34.8770   47.2830 C   0  0  0  0  0  0  0  0  0  0  0  0
   58.8648   35.9116   47.5684 H   0  0  0  0  0  0  0  0  0  0  0  0
   58.9070   33.8390   48.1940 C   0  0  0  0  0  0  0  0  0  0  0  0
   58.5430   34.0672   49.2067 H   0  0  0  0  0  0  0  0  0  0  0  0
   59.1670   32.5000   47.8320 C   0  0  0  0  0  0  0  0  0  0  0  0
   59.0970   31.4270   48.9020 C   0  0  0  0  0  0  0  0  0  0  0  0
   58.0473   31.1248   49.0316 H   0  0  0  0  0  0  0  0  0  0  0  0
   59.7208   30.5829   48.5728 H   0  0  0  0  0  0  0  0  0  0  0  0
   59.6280   31.9020   50.2210 C   0  0  0  0  0  0  0  0  0  0  0  0
   58.9130   31.8150   51.2540 O   0  0  0  0  0  0  0  0  0  0  0  0
   60.9580   32.4300   50.3000 N   0  0  0  0  0  0  0  0  0  0  0  0
   61.8720   32.5530   49.2010 C   0  0  0  0  0  0  0  0  0  0  0  0
   62.4190   33.8130   48.9170 C   0  0  0  0  0  0  0  0  0  0  0  0
   62.0620   34.8950   49.6540 F   0  0  0  0  0  0  0  0  0  0  0  0
   63.3230   33.9670   47.8610 C   0  0  0  0  0  0  0  0  0  0  0  0
   63.7357   34.9607   47.6324 H   0  0  0  0  0  0  0  0  0  0  0  0
   63.7030   32.8620   47.0960 C   0  0  0  0  0  0  0  0  0  0  0  0
   64.4072   32.9872   46.2602 H   0  0  0  0  0  0  0  0  0  0  0  0
   63.1880   31.5970   47.3930 C   0  0  0  0  0  0  0  0  0  0  0  0
   63.4964   30.7258   46.7964 H   0  0  0  0  0  0  0  0  0  0  0  0
   62.2820   31.4350   48.4460 C   0  0  0  0  0  0  0  0  0  0  0  0
   61.8590   30.1850   48.7590 F   0  0  0  0  0  0  0  0  0  0  0  0
   57.4870   25.1530   45.7930 C   0  0  0  0  0  0  0  0  0  0  0  0
   58.9090   25.2590   45.9430 N   0  0  0  0  0  0  0  0  0  0  0  0
   59.3490   26.0690   46.4320 H   0  0  0  0  0  0  0  0  0  0  0  0
   59.5410   24.5220   45.5570 H   0  0  0  0  0  0  0  0  0  0  0  0
   56.9410   24.0650   45.0990 C   0  0  0  0  0  0  0  0  0  0  0  0
   57.6034   23.2944   44.6779 H   0  0  0  0  0  0  0  0  0  0  0  0
   55.5590   23.9570   44.9410 C   0  0  0  0  0  0  0  0  0  0  0  0
   55.1267   23.1053   44.3954 H   0  0  0  0  0  0  0  0  0  0  0  0
  1  2  1  0
  2  3  1  0
  3  4  1  0
  4  5  2  0
  5  6  1  0
  6  7  2  0
  6  8  1  0
  8  9  2  0
  9 10  1  0
  9 11  1  0
 11 12  1  0
 11 13  2  0
 13 14  1  0
 13 15  1  0
 15 16  1  0
 15 17  2  0
 17 18  1  0
 18 19  1  0
 19 20  2  0
 20 21  1  0
 20 22  1  0
 22 23  1  0
 22 24  2  0
 24 25  1  0
 24 26  1  0
 26 27  1  0
 26 28  2  0
 28 29  1  0
 29 30  1  0
 29 31  1  0
 29 32  1  0
 32 33  2  0
 32 34  1  0
 34 35  1  0
 35 36  2  0
 36 37  1  0
 36 38  1  0
 38 39  1  0
 38 40  2  0
 40 41  1  0
 40 42  1  0
 42 43  1  0
 42 44  2  0
 44 45  1  0
  4 46  1  0
 46 47  1  0
 47 48  1  0
 47 49  1  0
 46 50  2  0
 50 51  1  0
 50 52  1  0
 52 53  1  0
 52  2  2  0
 17  8  1  0
 28 19  1  0
 44 35  1  0
M  CHG  2   3  -1  34  -1
M  END
>  <UniqueID>  (82) 
80

>  <SMILES>  (82) 
Nc1ccc[n-]/c1=N\C(=O)c1ccccc1Sc1ccccc1CC(=O)[N-]c1c(F)cccc1F

>  <Energy>  (82) 
72.17280268035881

>  <Genealogy>  (82) 
Nc1ccc[n-]c1=NC(=O)c1ccccc1Sc1ccccc1CC(=O)[N-]c1c(F)cccc1F (protonated)
Nc1ccc[n-]/c1=N\C(=O)c1ccccc1Sc1ccccc1CC(=O)[N-]c1c(F)cccc1F (cis-trans isomerization)
Nc1ccc[n-]/c1=N\C(=O)c1ccccc1Sc1ccccc1CC(=O)[N-]c1c(F)cccc1F (3D coordinates assigned)
Nc1ccc[n-]/c1=N\C(=O)c1ccccc1Sc1ccccc1CC(=O)[N-]c1c(F)cccc1F (optimized conformer: 72.17280268035881 kcal/mol)

>  <smiles>  (82) 
Nc1ccc[nH]c1=NC(=O)c1ccccc1Sc1ccccc1CC(=O)Nc1c(F)cccc1F

>  <score_type>  (82) 
oracle

>  <origin>  (82) 
adg

>  <m_score__min__energy>  (82) 
-11.76

>  <m_primary>  (82) 
energy

$$$$
82:0
     RDKit          3D

 34 38  0  0  0  0  0  0  0  0999 V2000
   57.0590   31.4820   42.7930 C   0  0  0  0  0  0  0  0  0  0  0  0
   56.7500   30.5170   43.6640 C   0  0  0  0  0  0  0  0  0  0  0  0
   55.5120   30.0080   43.7620 N   0  0  0  0  0  0  0  0  0  0  0  0
   55.5170   29.0780   44.7000 N   0  0  0  0  0  0  0  0  0  0  0  0
   56.7530   28.9810   45.2390 C   0  0  0  0  0  0  0  0  0  0  0  0
   57.5810   29.9060   44.6020 C   0  0  0  0  0  0  0  0  0  0  0  0
   58.8660   30.2070   44.8390 C   0  0  0  0  0  0  0  0  0  0  0  0
   59.5680   29.8940   46.0870 C   0  0  0  0  0  0  0  0  0  0  0  0
   60.5670   30.6850   46.5430 N   0  0  0  0  0  0  0  0  0  0  0  0
   60.8580   30.2520   47.7770 C   0  0  0  0  0  0  0  0  0  0  0  0
   61.7820   30.8070   48.6610 C   0  0  0  0  0  0  0  0  0  0  0  0
   61.8860   30.2470   49.9470 C   0  0  0  0  0  0  0  0  0  0  0  0
   62.8020   30.7720   50.8500 O   0  0  0  0  0  0  0  0  0  0  0  0
   61.0550   29.1660   50.3210 C   0  0  0  0  0  0  0  0  0  0  0  0
   61.1550   28.4860   51.9380 Cl  0  0  0  0  0  0  0  0  0  0  0  0
   60.1260   28.6340   49.4060 C   0  0  0  0  0  0  0  0  0  0  0  0
   60.0690   29.1860   48.1210 C   0  0  0  0  0  0  0  0  0  0  0  0
   59.2470   28.9140   47.0280 C   0  0  0  0  0  0  0  0  0  0  0  0
   58.3330   27.7580   46.8560 C   0  0  0  0  0  0  0  0  0  0  0  0
   58.6860   26.5330   47.4630 C   0  0  0  0  0  0  0  0  0  0  0  0
   57.8250   25.4400   47.4310 C   0  0  0  0  0  0  0  0  0  0  0  0
   56.6070   25.5340   46.7710 C   0  0  0  0  0  0  0  0  0  0  0  0
   55.7400   24.4480   46.7530 O   0  0  0  0  0  0  0  0  0  0  0  0
   56.2660   26.7120   46.1080 C   0  0  0  0  0  0  0  0  0  0  0  0
   57.1320   27.8280   46.1040 C   0  0  0  0  0  0  0  0  0  0  0  0
   58.0867   31.8713   42.7452 H   0  0  0  0  0  0  0  0  0  0  0  0
   56.2857   31.8871   42.1238 H   0  0  0  0  0  0  0  0  0  0  0  0
   59.4291   30.7215   44.0464 H   0  0  0  0  0  0  0  0  0  0  0  0
   60.9820   31.5150   46.0620 H   0  0  0  0  0  0  0  0  0  0  0  0
   62.4114   31.6580   48.3616 H   0  0  0  0  0  0  0  0  0  0  0  0
   59.4620   27.8056   49.6939 H   0  0  0  0  0  0  0  0  0  0  0  0
   59.6580   26.4410   47.9698 H   0  0  0  0  0  0  0  0  0  0  0  0
   58.1095   24.5013   47.9288 H   0  0  0  0  0  0  0  0  0  0  0  0
   55.3042   26.7736   45.5778 H   0  0  0  0  0  0  0  0  0  0  0  0
  1  2  2  0
  2  3  1  0
  3  4  1  0
  4  5  2  0
  5  6  1  0
  6  7  2  0
  7  8  1  0
  8  9  1  0
  9 10  1  0
 10 11  2  0
 11 12  1  0
 12 13  1  0
 12 14  2  0
 14 15  1  0
 14 16  1  0
 16 17  2  0
 17 18  1  0
 18 19  1  0
 19 20  2  0
 20 21  1  0
 21 22  2  0
 22 23  1  0
 22 24  1  0
 24 25  2  0
  6  2  1  0
 18  8  2  0
 25 19  1  0
 25  5  1  0
 17 10  1  0
  1 26  1  0
  1 27  1  0
  7 28  1  0
  9 29  1  0
 11 30  1  0
 16 31  1  0
 20 32  1  0
 21 33  1  0
 24 34  1  0
M  CHG  3   3  -1  13  -1  23  -1
M  END
>  <UniqueID>  (83) 
81

>  <SMILES>  (83) 
C=c1[n-]nc2c1=Cc1[nH]c3cc([O-])c(Cl)cc3c1-c1ccc([O-])cc1-2

>  <Energy>  (83) 
128.3849040885493

>  <Genealogy>  (83) 
C=c1[n-]nc2c1=Cc1[nH]c3cc([O-])c(Cl)cc3c1-c1ccc([O-])cc1-2 (protonated)
C=c1[n-]nc2c1=Cc1[nH]c3cc([O-])c(Cl)cc3c1-c1ccc([O-])cc1-2 (3D coordinates assigned)
C=c1[n-]nc2c1=Cc1[nH]c3cc([O-])c(Cl)cc3c1-c1ccc([O-])cc1-2 (nonaromatic ring conformer: 128.3849040885493 kcal/mol)

>  <smiles>  (83) 
C=c1[nH]nc2c1=Cc1[nH]c3cc(O)c(Cl)cc3c1-c1ccc(O)cc1-2

>  <score_type>  (83) 
oracle

>  <origin>  (83) 
adg

>  <m_score__min__energy>  (83) 
-11.5

>  <m_primary>  (83) 
energy

$$$$
83:0
     RDKit          3D

 58 61  0  0  0  0  0  0  0  0999 V2000
   59.1040   24.2550   45.7090 C   0  0  0  0  0  0  0  0  0  0  0  0
   58.9940   25.5470   46.3810 N   0  0  0  0  0  0  0  0  0  0  0  0
   60.0220   26.3050   46.8090 C   0  0  0  0  0  0  0  0  0  0  0  0
   59.5320   27.4250   47.4570 C   0  0  0  0  0  0  0  0  0  0  0  0
   60.3280   28.4960   48.0730 C   0  0  0  0  0  0  0  0  0  0  0  0
   60.3050   28.6510   49.3230 O   0  0  0  0  0  0  0  0  0  0  0  0
   61.0800   29.3870   47.2400 N   0  0  0  0  0  0  0  0  0  0  0  0
   61.2620   30.7960   47.4440 C   0  0  0  0  0  0  0  0  0  0  0  0
   62.5050   31.3630   47.1390 C   0  0  0  0  0  0  0  0  0  0  0  0
   62.7280   32.7290   47.3360 C   0  0  0  0  0  0  0  0  0  0  0  0
   61.7130   33.5360   47.8540 C   0  0  0  0  0  0  0  0  0  0  0  0
   60.4710   32.9800   48.1930 C   0  0  0  0  0  0  0  0  0  0  0  0
   59.3850   33.8560   48.7620 C   0  0  0  0  0  0  0  0  0  0  0  0
   58.5850   34.4590   47.6750 N   0  0  0  0  0  0  0  0  0  0  0  0
   59.4400   35.1050   46.6420 C   0  0  0  0  0  0  0  0  0  0  0  0
   59.5760   34.2480   45.3780 C   0  0  0  0  0  0  0  0  0  0  0  0
   58.2520   34.0040   44.7620 N   0  0  0  0  0  0  0  0  0  0  0  0
   58.2700   32.9670   43.7050 C   0  0  0  0  0  0  0  0  0  0  0  0
   57.9200   31.5780   44.2010 C   0  0  0  0  0  0  0  0  0  0  0  0
   58.8980   30.7600   44.7950 C   0  0  0  0  0  0  0  0  0  0  0  0
   58.5690   29.4790   45.2450 C   0  0  0  0  0  0  0  0  0  0  0  0
   57.2610   29.0050   45.1220 C   0  0  0  0  0  0  0  0  0  0  0  0
   56.2710   29.8190   44.5560 C   0  0  0  0  0  0  0  0  0  0  0  0
   54.9600   29.3640   44.4380 O   0  0  0  0  0  0  0  0  0  0  0  0
   56.6000   31.1020   44.1060 C   0  0  0  0  0  0  0  0  0  0  0  0
   57.1370   33.8800   45.7320 C   0  0  0  0  0  0  0  0  0  0  0  0
   57.6340   33.4650   47.1220 C   0  0  0  0  0  0  0  0  0  0  0  0
   60.2510   31.6060   47.9930 C   0  0  0  0  0  0  0  0  0  0  0  0
   58.1500   27.3390   47.4340 C   0  0  0  0  0  0  0  0  0  0  0  0
   57.8570   26.1660   46.7680 C   0  0  0  0  0  0  0  0  0  0  0  0
   56.5290   25.6620   46.5320 C   0  0  0  0  0  0  0  0  0  0  0  0
   55.4620   25.2580   46.3410 N   0  0  0  0  0  0  0  0  0  0  0  0
   59.1721   23.4552   46.4611 H   0  0  0  0  0  0  0  0  0  0  0  0
   58.2165   24.0922   45.0799 H   0  0  0  0  0  0  0  0  0  0  0  0
   60.0063   24.2446   45.0799 H   0  0  0  0  0  0  0  0  0  0  0  0
   61.0869   26.0698   46.6654 H   0  0  0  0  0  0  0  0  0  0  0  0
   63.3117   30.7295   46.7417 H   0  0  0  0  0  0  0  0  0  0  0  0
   63.7040   33.1685   47.0827 H   0  0  0  0  0  0  0  0  0  0  0  0
   61.8884   34.6125   47.9968 H   0  0  0  0  0  0  0  0  0  0  0  0
   58.7276   33.2486   49.4015 H   0  0  0  0  0  0  0  0  0  0  0  0
   59.8487   34.6606   49.3515 H   0  0  0  0  0  0  0  0  0  0  0  0
   58.9929   36.0717   46.3672 H   0  0  0  0  0  0  0  0  0  0  0  0
   60.4450   35.2336   47.0703 H   0  0  0  0  0  0  0  0  0  0  0  0
   60.2189   34.7715   44.6551 H   0  0  0  0  0  0  0  0  0  0  0  0
   60.0193   33.2801   45.6548 H   0  0  0  0  0  0  0  0  0  0  0  0
   57.5439   33.2508   42.9290 H   0  0  0  0  0  0  0  0  0  0  0  0
   59.3002   32.9191   43.3223 H   0  0  0  0  0  0  0  0  0  0  0  0
   59.9276   31.1310   44.9058 H   0  0  0  0  0  0  0  0  0  0  0  0
   59.3427   28.8415   45.6977 H   0  0  0  0  0  0  0  0  0  0  0  0
   57.0080   27.9925   45.4695 H   0  0  0  0  0  0  0  0  0  0  0  0
   54.7340   28.3780   44.5030 H   0  0  0  0  0  0  0  0  0  0  0  0
   55.8189   31.7447   43.6737 H   0  0  0  0  0  0  0  0  0  0  0  0
   56.6253   34.8504   45.8121 H   0  0  0  0  0  0  0  0  0  0  0  0
   56.4521   33.1004   45.3673 H   0  0  0  0  0  0  0  0  0  0  0  0
   56.7717   33.3791   47.7996 H   0  0  0  0  0  0  0  0  0  0  0  0
   58.1553   32.5008   47.0299 H   0  0  0  0  0  0  0  0  0  0  0  0
   59.2829   31.1616   48.2673 H   0  0  0  0  0  0  0  0  0  0  0  0
   57.4335   28.0574   47.8589 H   0  0  0  0  0  0  0  0  0  0  0  0
  1  2  1  0
  2  3  1  0
  3  4  2  0
  4  5  1  0
  5  6  2  0
  5  7  1  0
  7  8  1  0
  8  9  2  0
  9 10  1  0
 10 11  2  0
 11 12  1  0
 12 13  1  0
 13 14  1  0
 14 15  1  0
 15 16  1  0
 16 17  1  0
 17 18  1  0
 18 19  1  0
 19 20  2  0
 20 21  1  0
 21 22  2  0
 22 23  1  0
 23 24  1  0
 23 25  2  0
 17 26  1  0
 26 27  1  0
 12 28  2  0
  4 29  1  0
 29 30  2  0
 30 31  1  0
 31 32  3  0
 30  2  1  0
 28  8  1  0
 27 14  1  0
 25 19  1  0
  1 33  1  0
  1 34  1  0
  1 35  1  0
  3 36  1  0
  9 37  1  0
 10 38  1  0
 11 39  1  0
 13 40  1  0
 13 41  1  0
 15 42  1  0
 15 43  1  0
 16 44  1  0
 16 45  1  0
 18 46  1  0
 18 47  1  0
 20 48  1  0
 21 49  1  0
 22 50  1  0
 24 51  1  0
 25 52  1  0
 26 53  1  0
 26 54  1  0
 27 55  1  0
 27 56  1  0
 28 57  1  0
 29 58  1  0
M  CHG  1   7  -1
M  END
>  <UniqueID>  (84) 
82

>  <SMILES>  (84) 
Cn1cc(C(=O)[N-]c2cccc(CN3CCN(Cc4cccc(O)c4)CC3)c2)cc1C#N

>  <Energy>  (84) 
103.3952873093786

>  <Genealogy>  (84) 
Cn1cc(C(=O)[N-]c2cccc(CN3CCN(Cc4cccc(O)c4)CC3)c2)cc1C#N (protonated)
Cn1cc(C(=O)[N-]c2cccc(CN3CCN(Cc4cccc(O)c4)CC3)c2)cc1C#N (3D coordinates assigned)
Cn1cc(C(=O)[N-]c2cccc(CN3CCN(Cc4cccc(O)c4)CC3)c2)cc1C#N (nonaromatic ring conformer: 103.3952873093786 kcal/mol)

>  <smiles>  (84) 
Cn1cc(C(=O)Nc2cccc(CN3CCN(Cc4cccc(O)c4)CC3)c2)cc1C#N

>  <score_type>  (84) 
oracle

>  <origin>  (84) 
adg

>  <m_score__min__energy>  (84) 
-12.42

>  <m_primary>  (84) 
energy

$$$$
84:0
     RDKit          3D

 36 38  0  0  0  0  0  0  0  0999 V2000
   60.2250   26.1740   46.9350 H   0  0  0  0  0  0  0  0  0  0  0  0
   60.7680   26.8900   46.5160 O   0  0  0  0  0  0  0  0  0  0  0  0
   59.8910   27.6650   45.7450 C   0  0  0  0  0  0  0  0  0  0  0  0
   60.1678   27.5813   44.6837 H   0  0  0  0  0  0  0  0  0  0  0  0
   59.9589   28.7148   46.0665 H   0  0  0  0  0  0  0  0  0  0  0  0
   58.4790   27.1820   45.9310 C   0  0  0  0  0  0  0  0  0  0  0  0
   58.2540   26.0750   46.6910 N   0  0  0  0  0  0  0  0  0  0  0  0
   57.0000   25.6060   46.9140 C   0  0  0  0  0  0  0  0  0  0  0  0
   56.8449   24.7070   47.5286 H   0  0  0  0  0  0  0  0  0  0  0  0
   55.9100   26.2740   46.3570 C   0  0  0  0  0  0  0  0  0  0  0  0
   54.8878   25.9029   46.5225 H   0  0  0  0  0  0  0  0  0  0  0  0
   56.1220   27.3860   45.6090 N   0  0  0  0  0  0  0  0  0  0  0  0
   57.3770   27.8660   45.3790 C   0  0  0  0  0  0  0  0  0  0  0  0
   57.5660   28.9450   44.6700 N   0  0  0  0  0  0  0  0  0  0  0  0
   56.9610   30.2320   44.8700 C   0  0  0  0  0  0  0  0  0  0  0  0
   55.7270   30.4110   44.6740 O   0  0  0  0  0  0  0  0  0  0  0  0
   57.7980   31.3570   45.3060 C   0  0  0  0  0  0  0  0  0  0  0  0
   57.3510   32.9780   45.2460 S   0  0  0  0  0  0  0  0  0  0  0  0
   58.7880   33.5800   45.8800 C   0  0  0  0  0  0  0  0  0  0  0  0
   59.0820   34.9780   45.9980 N   0  0  0  0  0  0  0  0  0  0  0  0
   59.3210   35.4880   47.1120 O   0  0  0  0  0  0  0  0  0  0  0  0
   59.2840   35.7290   44.8640 O   0  0  0  0  0  0  0  0  0  0  0  0
   59.6480   32.5070   46.1610 C   0  0  0  0  0  0  0  0  0  0  0  0
   60.9760   32.6230   46.7980 C   0  0  0  0  0  0  0  0  0  0  0  0
   61.4230   31.6430   47.7020 C   0  0  0  0  0  0  0  0  0  0  0  0
   60.7707   30.7946   47.9565 H   0  0  0  0  0  0  0  0  0  0  0  0
   62.6930   31.7420   48.2790 C   0  0  0  0  0  0  0  0  0  0  0  0
   63.0333   30.9773   48.9927 H   0  0  0  0  0  0  0  0  0  0  0  0
   63.5300   32.8110   47.9500 C   0  0  0  0  0  0  0  0  0  0  0  0
   64.5275   32.8889   48.4071 H   0  0  0  0  0  0  0  0  0  0  0  0
   63.1010   33.7810   47.0410 C   0  0  0  0  0  0  0  0  0  0  0  0
   63.7618   34.6211   46.7811 H   0  0  0  0  0  0  0  0  0  0  0  0
   61.8320   33.6850   46.4610 C   0  0  0  0  0  0  0  0  0  0  0  0
   61.5023   34.4449   45.7372 H   0  0  0  0  0  0  0  0  0  0  0  0
   59.0850   31.2640   45.8270 C   0  0  0  0  0  0  0  0  0  0  0  0
   59.6115   30.3080   45.9643 H   0  0  0  0  0  0  0  0  0  0  0  0
  1  2  1  0
  2  3  1  0
  3  4  1  0
  3  5  1  0
  3  6  1  0
  6  7  2  0
  7  8  1  0
  8  9  1  0
  8 10  2  0
 10 11  1  0
 10 12  1  0
 12 13  1  0
 13 14  2  0
 14 15  1  0
 15 16  2  0
 15 17  1  0
 17 18  1  0
 18 19  1  0
 19 20  1  0
 20 21  2  0
 20 22  1  0
 19 23  2  0
 23 24  1  0
 24 25  2  0
 25 26  1  0
 25 27  1  0
 27 28  1  0
 27 29  2  0
 29 30  1  0
 29 31  1  0
 31 32  1  0
 31 33  2  0
 33 34  1  0
 23 35  1  0
 35 36  1  0
 13  6  1  0
 35 17  2  0
 33 24  1  0
M  CHG  3  12  -1  20   1  22  -1
M  END
>  <UniqueID>  (85) 
83

>  <SMILES>  (85) 
O=C(/N=c1\[n-]ccnc1CO)c1cc(-c2ccccc2)c([N+](=O)[O-])s1

>  <Energy>  (85) 
76.0690940741086

>  <Genealogy>  (85) 
O=C(N=c1[n-]ccnc1CO)c1cc(-c2ccccc2)c([N+](=O)[O-])s1 (protonated)
O=C(/N=c1\[n-]ccnc1CO)c1cc(-c2ccccc2)c([N+](=O)[O-])s1 (cis-trans isomerization)
O=C(/N=c1\[n-]ccnc1CO)c1cc(-c2ccccc2)c([N+](=O)[O-])s1 (3D coordinates assigned)
O=C(/N=c1\[n-]ccnc1CO)c1cc(-c2ccccc2)c([N+](=O)[O-])s1 (optimized conformer: 76.0690940741086 kcal/mol)

>  <smiles>  (85) 
O=C(N=c1[nH]ccnc1CO)c1cc(-c2ccccc2)c([N+](=O)[O-])s1

>  <score_type>  (85) 
oracle

>  <origin>  (85) 
adg

>  <m_score__min__energy>  (85) 
-9.4399999999999995

>  <m_primary>  (85) 
energy

$$$$
85:0
     RDKit          3D

 35 37  0  0  0  0  0  0  0  0999 V2000
   54.4761   24.2554   45.1057 H   0  0  0  0  0  0  0  0  0  0  0  0
   55.5030   24.5000   45.4150 C   0  0  0  0  0  0  0  0  0  0  0  0
   56.5130   23.5460   45.3030 C   0  0  0  0  0  0  0  0  0  0  0  0
   56.2875   22.5416   44.9154 H   0  0  0  0  0  0  0  0  0  0  0  0
   57.8120   23.8770   45.6870 C   0  0  0  0  0  0  0  0  0  0  0  0
   58.6164   23.1324   45.5944 H   0  0  0  0  0  0  0  0  0  0  0  0
   58.0900   25.1170   46.1760 N   0  0  0  0  0  0  0  0  0  0  0  0
   59.0860   25.3240   46.4010 H   0  0  0  0  0  0  0  0  0  0  0  0
   57.1100   26.0660   46.3220 C   0  0  0  0  0  0  0  0  0  0  0  0
   57.3640   27.2540   46.8030 N   0  0  0  0  0  0  0  0  0  0  0  0
   58.5790   28.0050   46.6790 C   0  0  0  0  0  0  0  0  0  0  0  0
   59.6780   27.3950   46.7610 O   0  0  0  0  0  0  0  0  0  0  0  0
   58.5890   29.4620   46.4210 C   0  0  0  0  0  0  0  0  0  0  0  0
   59.0330   30.5900   47.5950 S   0  0  0  0  0  0  0  0  0  0  0  0
   58.7060   31.9350   46.6560 C   0  0  0  0  0  0  0  0  0  0  0  0
   58.8410   33.2690   47.0270 C   0  0  0  0  0  0  0  0  0  0  0  0
   59.2112   33.5422   48.0262 H   0  0  0  0  0  0  0  0  0  0  0  0
   58.4940   34.2530   46.0970 C   0  0  0  0  0  0  0  0  0  0  0  0
   58.6003   35.3156   46.3609 H   0  0  0  0  0  0  0  0  0  0  0  0
   58.0110   33.8950   44.8290 C   0  0  0  0  0  0  0  0  0  0  0  0
   57.7376   34.6815   44.1102 H   0  0  0  0  0  0  0  0  0  0  0  0
   57.8710   32.5340   44.4630 C   0  0  0  0  0  0  0  0  0  0  0  0
   57.3550   32.1580   43.2120 O   0  0  0  0  0  0  0  0  0  0  0  0
   58.0300   32.3370   41.9720 C   0  0  0  0  0  0  0  0  0  0  0  0
   59.0774   32.6147   42.1614 H   0  0  0  0  0  0  0  0  0  0  0  0
   57.9974   31.3992   41.3981 H   0  0  0  0  0  0  0  0  0  0  0  0
   57.5370   33.1354   41.3981 H   0  0  0  0  0  0  0  0  0  0  0  0
   58.2450   31.5460   45.4010 C   0  0  0  0  0  0  0  0  0  0  0  0
   58.2090   30.1370   45.2450 C   0  0  0  0  0  0  0  0  0  0  0  0
   57.8620   29.4450   43.9540 C   0  0  0  0  0  0  0  0  0  0  0  0
   57.3788   28.4814   44.1729 H   0  0  0  0  0  0  0  0  0  0  0  0
   57.1740   30.0766   43.3729 H   0  0  0  0  0  0  0  0  0  0  0  0
   58.7797   29.2714   43.3729 H   0  0  0  0  0  0  0  0  0  0  0  0
   55.7990   25.7670   45.9210 C   0  0  0  0  0  0  0  0  0  0  0  0
   54.7870   26.7160   46.0330 O   0  0  0  0  0  0  0  0  0  0  0  0
  1  2  1  0
  2  3  1  0
  3  4  1  0
  3  5  2  0
  5  6  1  0
  5  7  1  0
  7  8  1  0
  7  9  1  0
  9 10  2  0
 10 11  1  0
 11 12  2  0
 11 13  1  0
 13 14  1  0
 14 15  1  0
 15 16  2  0
 16 17  1  0
 16 18  1  0
 18 19  1  0
 18 20  2  0
 20 21  1  0
 20 22  1  0
 22 23  1  0
 23 24  1  0
 24 25  1  0
 24 26  1  0
 24 27  1  0
 22 28  2  0
 28 29  1  0
 29 30  1  0
 30 31  1  0
 30 32  1  0
 30 33  1  0
  9 34  1  0
 34 35  1  0
 34  2  2  0
 29 13  2  0
 28 15  1  0
M  CHG  1  35  -1
M  END
>  <UniqueID>  (86) 
84

>  <SMILES>  (86) 
COc1cccc2sc(C(=O)/N=c3\[nH]cccc3[O-])c(C)c12

>  <Energy>  (86) 
80.44967311258863

>  <Genealogy>  (86) 
COc1cccc2sc(C(=O)N=c3[nH]cccc3[O-])c(C)c12 (protonated)
COc1cccc2sc(C(=O)/N=c3\[nH]cccc3[O-])c(C)c12 (cis-trans isomerization)
COc1cccc2sc(C(=O)/N=c3\[nH]cccc3[O-])c(C)c12 (3D coordinates assigned)
COc1cccc2sc(C(=O)/N=c3\[nH]cccc3[O-])c(C)c12 (optimized conformer: 80.44967311258863 kcal/mol)

>  <smiles>  (86) 
COc1cccc2sc(C(=O)N=c3[nH]cccc3O)c(C)c12

>  <score_type>  (86) 
oracle

>  <origin>  (86) 
adg

>  <m_score__min__energy>  (86) 
-11.220000000000001

>  <m_primary>  (86) 
energy

$$$$
86:0
     RDKit          3D

 41 43  0  0  0  0  0  0  0  0999 V2000
   58.6250   25.2900   45.6020 C   0  0  0  0  0  0  0  0  0  0  0  0
   57.3690   25.7290   45.7030 C   0  0  0  0  0  0  0  0  0  0  0  0
   56.3020   24.9300   45.5170 N   0  0  0  0  0  0  0  0  0  0  0  0
   55.2540   25.7560   45.7110 C   0  0  0  0  0  0  0  0  0  0  0  0
   54.0600   25.3690   45.6200 O   0  0  0  0  0  0  0  0  0  0  0  0
   55.5860   27.0280   46.0060 N   0  0  0  0  0  0  0  0  0  0  0  0
   56.9340   27.0130   46.0090 C   0  0  0  0  0  0  0  0  0  0  0  0
   57.6920   28.0990   46.2310 C   0  0  0  0  0  0  0  0  0  0  0  0
   57.3940   29.4170   45.6390 C   0  0  0  0  0  0  0  0  0  0  0  0
   56.2950   29.8060   44.8700 C   0  0  0  0  0  0  0  0  0  0  0  0
   55.2110   28.9990   44.5340 O   0  0  0  0  0  0  0  0  0  0  0  0
   56.3630   31.1100   44.5130 N   0  0  0  0  0  0  0  0  0  0  0  0
   57.5020   31.5510   45.0800 C   0  0  0  0  0  0  0  0  0  0  0  0
   58.0170   32.8430   45.0090 C   0  0  0  0  0  0  0  0  0  0  0  0
   59.2260   33.1100   45.6760 C   0  0  0  0  0  0  0  0  0  0  0  0
   59.8900   32.0910   46.4000 C   0  0  0  0  0  0  0  0  0  0  0  0
   61.4010   32.4470   47.2300 S   0  0  0  0  0  0  0  0  0  0  0  0
   61.7980   33.8660   46.9400 O   0  0  0  0  0  0  0  0  0  0  0  0
   62.4900   31.5240   46.7600 O   0  0  0  0  0  0  0  0  0  0  0  0
   61.1940   32.2490   48.9380 N   0  0  0  0  0  0  0  0  0  0  0  0
   61.9030   33.0440   49.8910 C   0  0  0  0  0  0  0  0  0  0  0  0
   61.3120   33.9730   50.5090 O   0  0  0  0  0  0  0  0  0  0  0  0
   63.3640   32.7870   50.1310 C   0  0  0  0  0  0  0  0  0  0  0  0
   63.5930   31.3120   50.4710 C   0  0  0  0  0  0  0  0  0  0  0  0
   64.1970   33.2070   48.9160 C   0  0  0  0  0  0  0  0  0  0  0  0
   59.3460   30.7920   46.4500 C   0  0  0  0  0  0  0  0  0  0  0  0
   58.1440   30.5610   45.7800 C   0  0  0  0  0  0  0  0  0  0  0  0
   59.4643   25.9825   45.7632 H   0  0  0  0  0  0  0  0  0  0  0  0
   58.8211   24.2356   45.3576 H   0  0  0  0  0  0  0  0  0  0  0  0
   58.5731   28.0017   46.8823 H   0  0  0  0  0  0  0  0  0  0  0  0
   55.1300   28.0470   44.8670 H   0  0  0  0  0  0  0  0  0  0  0  0
   57.4937   33.6312   44.4479 H   0  0  0  0  0  0  0  0  0  0  0  0
   59.6596   34.1201   45.6347 H   0  0  0  0  0  0  0  0  0  0  0  0
   63.6909   33.3946   50.9877 H   0  0  0  0  0  0  0  0  0  0  0  0
   63.6125   31.1863   51.5636 H   0  0  0  0  0  0  0  0  0  0  0  0
   62.7780   30.7071   50.0468 H   0  0  0  0  0  0  0  0  0  0  0  0
   64.5530   30.9827   50.0468 H   0  0  0  0  0  0  0  0  0  0  0  0
   65.1309   33.6779   49.2568 H   0  0  0  0  0  0  0  0  0  0  0  0
   64.4335   32.3204   48.3094 H   0  0  0  0  0  0  0  0  0  0  0  0
   63.6248   33.9243   48.3094 H   0  0  0  0  0  0  0  0  0  0  0  0
   59.8530   29.9854   46.9999 H   0  0  0  0  0  0  0  0  0  0  0  0
  1  2  2  0
  2  3  1  0
  3  4  1  0
  4  5  2  0
  4  6  1  0
  6  7  1  0
  7  8  2  3
  8  9  1  0
  9 10  2  0
 10 11  1  0
 10 12  1  0
 12 13  1  0
 13 14  2  0
 14 15  1  0
 15 16  2  0
 16 17  1  0
 17 18  2  0
 17 19  2  0
 17 20  1  0
 20 21  1  0
 21 22  2  0
 21 23  1  0
 23 24  1  0
 23 25  1  0
 16 26  1  0
 26 27  2  0
  7  2  1  0
 27  9  1  0
 27 13  1  0
  1 28  1  0
  1 29  1  0
  8 30  1  0
 11 31  1  0
 14 32  1  0
 15 33  1  0
 23 34  1  0
 24 35  1  0
 24 36  1  0
 24 37  1  0
 25 38  1  0
 25 39  1  0
 25 40  1  0
 26 41  1  0
M  CHG  4   3  -1   6  -1  12  -1  20  -1
M  END
>  <UniqueID>  (87) 
85

>  <SMILES>  (87) 
C=c1[n-]c(=O)[n-]c1=Cc1c(O)[n-]c2ccc(S(=O)(=O)[N-]C(=O)C(C)C)cc12

>  <Energy>  (87) 
107.24659570208449

>  <Genealogy>  (87) 
C=c1[n-]c(=O)[n-]c1=Cc1c(O)[n-]c2ccc(S(=O)(=O)[N-]C(=O)C(C)C)cc12 (protonated)
C=c1[n-]c(=O)[n-]c1=Cc1c(O)[n-]c2ccc(S(=O)(=O)[N-]C(=O)C(C)C)cc12 (3D coordinates assigned)
C=c1[n-]c(=O)[n-]c1=Cc1c(O)[n-]c2ccc(S(=O)(=O)[N-]C(=O)C(C)C)cc12 (optimized conformer: 107.24659570208449 kcal/mol)

>  <smiles>  (87) 
C=c1[nH]c(=O)[nH]c1=Cc1c(O)[nH]c2ccc(S(=O)(=O)NC(=O)C(C)C)cc12

>  <score_type>  (87) 
oracle

>  <origin>  (87) 
adg

>  <m_score__min__energy>  (87) 
-15.34

>  <m_primary>  (87) 
energy

$$$$
87:0
     RDKit          3D

 54 57  0  0  0  0  0  0  0  0999 V2000
   54.8170   22.9690   42.4960 O   0  0  0  0  0  0  0  0  0  0  0  0
   55.5850   23.4510   43.3690 C   0  0  0  0  0  0  0  0  0  0  0  0
   56.9650   23.3120   43.2450 C   0  0  0  0  0  0  0  0  0  0  0  0
   57.7810   23.8610   44.2330 C   0  0  0  0  0  0  0  0  0  0  0  0
   57.2320   24.5160   45.2970 N   0  0  0  0  0  0  0  0  0  0  0  0
   58.2730   25.2080   46.5100 S   0  0  0  0  0  0  0  0  0  0  0  0
   57.7930   24.7980   47.8750 O   0  0  0  0  0  0  0  0  0  0  0  0
   59.6830   24.7140   46.3420 O   0  0  0  0  0  0  0  0  0  0  0  0
   58.2580   26.9620   46.3460 C   0  0  0  0  0  0  0  0  0  0  0  0
   59.3390   27.7050   46.8230 C   0  0  0  0  0  0  0  0  0  0  0  0
   59.3480   29.0940   46.6920 C   0  0  0  0  0  0  0  0  0  0  0  0
   58.2790   29.7570   46.0730 C   0  0  0  0  0  0  0  0  0  0  0  0
   58.2900   31.1920   46.0220 N   0  0  0  0  0  0  0  0  0  0  0  0
   58.3520   31.9560   47.2710 C   0  0  0  0  0  0  0  0  0  0  0  0
   57.8840   33.3970   47.0220 C   0  0  0  0  0  0  0  0  0  0  0  0
   58.6370   34.0780   45.9280 N   0  0  0  0  0  0  0  0  0  0  0  0
   59.5740   35.1200   46.4250 C   0  0  0  0  0  0  0  0  0  0  0  0
   60.7560   34.5820   47.2130 C   0  0  0  0  0  0  0  0  0  0  0  0
   60.7110   34.5410   48.6190 C   0  0  0  0  0  0  0  0  0  0  0  0
   61.7940   34.0420   49.3490 C   0  0  0  0  0  0  0  0  0  0  0  0
   62.9260   33.5630   48.6840 C   0  0  0  0  0  0  0  0  0  0  0  0
   62.9680   33.5690   47.2880 C   0  0  0  0  0  0  0  0  0  0  0  0
   61.8870   34.0650   46.5550 C   0  0  0  0  0  0  0  0  0  0  0  0
   59.2810   33.1590   44.9510 C   0  0  0  0  0  0  0  0  0  0  0  0
   58.4630   31.8810   44.7390 C   0  0  0  0  0  0  0  0  0  0  0  0
   57.1860   29.0120   45.5670 C   0  0  0  0  0  0  0  0  0  0  0  0
   56.0850   29.6470   44.8890 N   0  0  0  0  0  0  0  0  0  0  0  0
   55.1520   28.9710   44.4100 O   0  0  0  0  0  0  0  0  0  0  0  0
   55.9860   31.0190   44.8650 O   0  0  0  0  0  0  0  0  0  0  0  0
   57.1870   27.6130   45.7190 C   0  0  0  0  0  0  0  0  0  0  0  0
   55.8720   24.6460   45.3910 C   0  0  0  0  0  0  0  0  0  0  0  0
   55.3500   25.2620   46.3580 O   0  0  0  0  0  0  0  0  0  0  0  0
   55.0680   24.1150   44.4340 N   0  0  0  0  0  0  0  0  0  0  0  0
   57.4016   22.7807   42.3864 H   0  0  0  0  0  0  0  0  0  0  0  0
   58.8740   23.7657   44.1545 H   0  0  0  0  0  0  0  0  0  0  0  0
   60.1863   27.1940   47.3036 H   0  0  0  0  0  0  0  0  0  0  0  0
   60.2001   29.6732   47.0772 H   0  0  0  0  0  0  0  0  0  0  0  0
   57.6995   31.4843   48.0205 H   0  0  0  0  0  0  0  0  0  0  0  0
   59.3888   31.9688   47.6383 H   0  0  0  0  0  0  0  0  0  0  0  0
   56.8177   33.3768   46.7527 H   0  0  0  0  0  0  0  0  0  0  0  0
   58.0655   33.9645   47.9467 H   0  0  0  0  0  0  0  0  0  0  0  0
   57.9170   34.6070   45.3790 H   0  0  0  0  0  0  0  0  0  0  0  0
   59.9630   35.6737   45.5578 H   0  0  0  0  0  0  0  0  0  0  0  0
   58.9990   35.7524   47.1174 H   0  0  0  0  0  0  0  0  0  0  0  0
   59.8172   34.9042   49.1475 H   0  0  0  0  0  0  0  0  0  0  0  0
   61.7550   34.0264   50.4482 H   0  0  0  0  0  0  0  0  0  0  0  0
   63.7826   33.1818   49.2592 H   0  0  0  0  0  0  0  0  0  0  0  0
   63.8546   33.1822   46.7642 H   0  0  0  0  0  0  0  0  0  0  0  0
   61.9204   34.0512   45.4556 H   0  0  0  0  0  0  0  0  0  0  0  0
   59.3823   33.6797   43.9873 H   0  0  0  0  0  0  0  0  0  0  0  0
   60.2635   32.8705   45.3529 H   0  0  0  0  0  0  0  0  0  0  0  0
   57.4769   32.1411   44.3268 H   0  0  0  0  0  0  0  0  0  0  0  0
   58.9917   31.2199   44.0365 H   0  0  0  0  0  0  0  0  0  0  0  0
   56.3380   27.0241   45.3416 H   0  0  0  0  0  0  0  0  0  0  0  0
  1  2  2  0
  2  3  1  0
  3  4  2  0
  4  5  1  0
  5  6  1  0
  6  7  2  0
  6  8  2  0
  6  9  1  0
  9 10  2  0
 10 11  1  0
 11 12  2  0
 12 13  1  0
 13 14  1  0
 14 15  1  0
 15 16  1  0
 16 17  1  0
 17 18  1  0
 18 19  2  0
 19 20  1  0
 20 21  2  0
 21 22  1  0
 22 23  2  0
 16 24  1  0
 24 25  1  0
 12 26  1  0
 26 27  1  0
 27 28  2  0
 27 29  1  0
 26 30  2  0
  5 31  1  0
 31 32  2  0
 31 33  1  0
 33  2  1  0
 30  9  1  0
 25 13  1  0
 23 18  1  0
  3 34  1  0
  4 35  1  0
 10 36  1  0
 11 37  1  0
 14 38  1  0
 14 39  1  0
 15 40  1  0
 15 41  1  0
 16 42  1  0
 17 43  1  0
 17 44  1  0
 19 45  1  0
 20 46  1  0
 21 47  1  0
 22 48  1  0
 23 49  1  0
 24 50  1  0
 24 51  1  0
 25 52  1  0
 25 53  1  0
 30 54  1  0
M  CHG  4  16   1  27   1  29  -1  33  -1
M  END
>  <UniqueID>  (88) 
86

>  <SMILES>  (88) 
O=c1ccn(S(=O)(=O)c2ccc(N3CC[NH+](Cc4ccccc4)CC3)c([N+](=O)[O-])c2)c(=O)[n-]1

>  <Energy>  (88) 
82.00346337796843

>  <Genealogy>  (88) 
O=c1ccn(S(=O)(=O)c2ccc(N3CC[NH+](Cc4ccccc4)CC3)c([N+](=O)[O-])c2)c(=O)[n-]1 (protonated)
O=c1ccn(S(=O)(=O)c2ccc(N3CC[NH+](Cc4ccccc4)CC3)c([N+](=O)[O-])c2)c(=O)[n-]1 (3D coordinates assigned)
O=c1ccn(S(=O)(=O)c2ccc(N3CC[NH+](Cc4ccccc4)CC3)c([N+](=O)[O-])c2)c(=O)[n-]1 (nonaromatic ring conformer: 82.00346337796843 kcal/mol)

>  <smiles>  (88) 
O=c1ccn(S(=O)(=O)c2ccc(N3CCN(Cc4ccccc4)CC3)c([N+](=O)[O-])c2)c(=O)[nH]1

>  <score_type>  (88) 
oracle

>  <origin>  (88) 
adg

>  <m_score__min__energy>  (88) 
-10.23

>  <m_primary>  (88) 
energy

$$$$
88:0
     RDKit          3D

 45 47  0  0  0  0  0  0  0  0999 V2000
   55.5580   29.8200   43.1260 O   0  0  0  0  0  0  0  0  0  0  0  0
   55.7950   29.9470   44.3550 C   0  0  0  0  0  0  0  0  0  0  0  0
   56.3730   31.1660   44.8310 N   0  0  0  0  0  0  0  0  0  0  0  0
   57.4600   31.8740   44.1630 C   0  0  0  0  0  0  0  0  0  0  0  0
   58.0700   32.8570   45.1180 C   0  0  0  0  0  0  0  0  0  0  0  0
   58.6720   34.0320   44.6360 C   0  0  0  0  0  0  0  0  0  0  0  0
   59.2700   34.9320   45.5230 C   0  0  0  0  0  0  0  0  0  0  0  0
   59.2820   34.6600   46.8940 C   0  0  0  0  0  0  0  0  0  0  0  0
   58.7000   33.4860   47.3800 C   0  0  0  0  0  0  0  0  0  0  0  0
   58.7200   33.2210   48.7100 F   0  0  0  0  0  0  0  0  0  0  0  0
   58.1000   32.5830   46.4960 C   0  0  0  0  0  0  0  0  0  0  0  0
   55.5340   28.8440   45.2320 N   0  0  0  0  0  0  0  0  0  0  0  0
   56.4680   27.8000   45.5430 C   0  0  0  0  0  0  0  0  0  0  0  0
   57.8520   28.0350   45.5280 C   0  0  0  0  0  0  0  0  0  0  0  0
   58.7410   27.0160   45.8640 C   0  0  0  0  0  0  0  0  0  0  0  0
   58.2650   25.7540   46.2300 C   0  0  0  0  0  0  0  0  0  0  0  0
   59.1820   24.7660   46.5710 O   0  0  0  0  0  0  0  0  0  0  0  0
   56.8780   25.5030   46.2570 C   0  0  0  0  0  0  0  0  0  0  0  0
   56.2330   23.9230   46.7390 S   0  0  0  0  0  0  0  0  0  0  0  0
   57.3630   23.1100   47.3090 O   0  0  0  0  0  0  0  0  0  0  0  0
   55.1860   24.0720   47.8050 O   0  0  0  0  0  0  0  0  0  0  0  0
   55.5730   23.0900   45.3460 N   0  0  0  0  0  0  0  0  0  0  0  0
   56.3220   21.8590   45.0350 C   0  0  0  0  0  0  0  0  0  0  0  0
   57.6940   22.1540   44.3800 C   0  0  0  0  0  0  0  0  0  0  0  0
   57.7980   23.4630   43.8490 O   0  0  0  0  0  0  0  0  0  0  0  0
   56.6120   23.8110   43.1720 C   0  0  0  0  0  0  0  0  0  0  0  0
   55.4550   23.9850   44.1740 C   0  0  0  0  0  0  0  0  0  0  0  0
   55.9850   26.5410   45.9280 C   0  0  0  0  0  0  0  0  0  0  0  0
   54.6100   26.3260   45.9820 O   0  0  0  0  0  0  0  0  0  0  0  0
   58.2247   31.1525   43.8395 H   0  0  0  0  0  0  0  0  0  0  0  0
   57.0682   32.4074   43.2844 H   0  0  0  0  0  0  0  0  0  0  0  0
   58.6726   34.2443   43.5567 H   0  0  0  0  0  0  0  0  0  0  0  0
   59.7314   35.8549   45.1417 H   0  0  0  0  0  0  0  0  0  0  0  0
   59.7500   35.3707   47.5911 H   0  0  0  0  0  0  0  0  0  0  0  0
   57.6503   31.6557   46.8806 H   0  0  0  0  0  0  0  0  0  0  0  0
   58.2361   29.0275   45.2499 H   0  0  0  0  0  0  0  0  0  0  0  0
   59.8242   27.2061   45.8410 H   0  0  0  0  0  0  0  0  0  0  0  0
   56.4885   21.3011   45.9683 H   0  0  0  0  0  0  0  0  0  0  0  0
   55.7260   21.2751   44.3181 H   0  0  0  0  0  0  0  0  0  0  0  0
   58.4779   22.0238   45.1406 H   0  0  0  0  0  0  0  0  0  0  0  0
   57.8076   21.4542   43.5389 H   0  0  0  0  0  0  0  0  0  0  0  0
   56.7675   24.7554   42.6299 H   0  0  0  0  0  0  0  0  0  0  0  0
   56.3551   23.0083   42.4651 H   0  0  0  0  0  0  0  0  0  0  0  0
   55.4489   25.0270   44.5265 H   0  0  0  0  0  0  0  0  0  0  0  0
   54.5223   23.7259   43.6516 H   0  0  0  0  0  0  0  0  0  0  0  0
  1  2  2  0
  2  3  1  0
  3  4  1  0
  4  5  1  0
  5  6  2  0
  6  7  1  0
  7  8  2  0
  8  9  1  0
  9 10  1  0
  9 11  2  0
  2 12  1  0
 12 13  1  0
 13 14  2  0
 14 15  1  0
 15 16  2  0
 16 17  1  0
 16 18  1  0
 18 19  1  0
 19 20  2  0
 19 21  2  0
 19 22  1  0
 22 23  1  0
 23 24  1  0
 24 25  1  0
 25 26  1  0
 26 27  1  0
 18 28  2  0
 28 29  1  0
 11  5  1  0
 28 13  1  0
 27 22  1  0
  4 30  1  0
  4 31  1  0
  6 32  1  0
  7 33  1  0
  8 34  1  0
 11 35  1  0
 14 36  1  0
 15 37  1  0
 23 38  1  0
 23 39  1  0
 24 40  1  0
 24 41  1  0
 26 42  1  0
 26 43  1  0
 27 44  1  0
 27 45  1  0
M  CHG  4   3  -1  12  -1  17  -1  29  -1
M  END
>  <UniqueID>  (89) 
87

>  <SMILES>  (89) 
O=C([N-]Cc1cccc(F)c1)[N-]c1ccc([O-])c(S(=O)(=O)N2CCOCC2)c1[O-]

>  <Energy>  (89) 
64.1614057383606

>  <Genealogy>  (89) 
O=C([N-]Cc1cccc(F)c1)[N-]c1ccc([O-])c(S(=O)(=O)N2CCOCC2)c1[O-] (protonated)
O=C([N-]Cc1cccc(F)c1)[N-]c1ccc([O-])c(S(=O)(=O)N2CCOCC2)c1[O-] (3D coordinates assigned)
O=C([N-]Cc1cccc(F)c1)[N-]c1ccc([O-])c(S(=O)(=O)N2CCOCC2)c1[O-] (nonaromatic ring conformer: 64.1614057383606 kcal/mol)

>  <smiles>  (89) 
O=C(NCc1cccc(F)c1)Nc1ccc(O)c(S(=O)(=O)N2CCOCC2)c1O

>  <score_type>  (89) 
oracle

>  <origin>  (89) 
adg

>  <m_score__min__energy>  (89) 
-18.170000000000002

>  <m_primary>  (89) 
energy

$$$$
89:0
     RDKit          3D

 46 48  0  0  0  0  0  0  0  0999 V2000
   60.5780   26.7550   48.0350 C   0  0  0  0  0  0  0  0  0  0  0  0
   59.3900   27.1850   47.2460 C   0  0  0  0  0  0  0  0  0  0  0  0
   58.2870   26.4250   47.0820 N   0  0  0  0  0  0  0  0  0  0  0  0
   57.3720   27.0140   46.2640 C   0  0  0  0  0  0  0  0  0  0  0  0
   56.0720   26.3370   45.9590 C   0  0  0  0  0  0  0  0  0  0  0  0
   57.7580   28.2630   45.7510 C   0  0  0  0  0  0  0  0  0  0  0  0
   56.9890   29.1490   44.8490 C   0  0  0  0  0  0  0  0  0  0  0  0
   55.7880   29.4270   45.1150 O   0  0  0  0  0  0  0  0  0  0  0  0
   57.6010   29.7000   43.6730 N   0  0  0  0  0  0  0  0  0  0  0  0
   56.9330   30.6920   42.8320 C   0  0  0  0  0  0  0  0  0  0  0  0
   57.6780   32.0000   42.8550 C   0  0  0  0  0  0  0  0  0  0  0  0
   58.1170   32.4560   41.7640 O   0  0  0  0  0  0  0  0  0  0  0  0
   57.8870   32.7360   44.0810 N   0  0  0  0  0  0  0  0  0  0  0  0
   58.8470   33.8520   44.1110 C   0  0  0  0  0  0  0  0  0  0  0  0
   59.6500   33.8360   45.4190 C   0  0  0  0  0  0  0  0  0  0  0  0
   58.7960   33.5660   46.5840 N   0  0  0  0  0  0  0  0  0  0  0  0
   59.3970   33.5040   47.8920 C   0  0  0  0  0  0  0  0  0  0  0  0
   58.8450   32.7110   48.9110 C   0  0  0  0  0  0  0  0  0  0  0  0
   59.4680   32.6620   50.1590 C   0  0  0  0  0  0  0  0  0  0  0  0
   60.6370   33.3910   50.3820 C   0  0  0  0  0  0  0  0  0  0  0  0
   61.1720   34.1550   49.3440 C   0  0  0  0  0  0  0  0  0  0  0  0
   60.5500   34.1910   48.1350 N   0  0  0  0  0  0  0  0  0  0  0  0
   57.3440   33.4470   46.4010 C   0  0  0  0  0  0  0  0  0  0  0  0
   57.0500   32.4660   45.2630 C   0  0  0  0  0  0  0  0  0  0  0  0
   59.2930   28.6080   46.3600 S   0  0  0  0  0  0  0  0  0  0  0  0
   60.3539   26.8361   49.1089 H   0  0  0  0  0  0  0  0  0  0  0  0
   60.8230   25.7111   47.7894 H   0  0  0  0  0  0  0  0  0  0  0  0
   61.4344   27.4002   47.7894 H   0  0  0  0  0  0  0  0  0  0  0  0
   55.5662   26.0736   46.8996 H   0  0  0  0  0  0  0  0  0  0  0  0
   55.4325   27.0166   45.3766 H   0  0  0  0  0  0  0  0  0  0  0  0
   56.2621   25.4234   45.3766 H   0  0  0  0  0  0  0  0  0  0  0  0
   58.5480   29.3720   43.3790 H   0  0  0  0  0  0  0  0  0  0  0  0
   56.8910   30.3189   41.7981 H   0  0  0  0  0  0  0  0  0  0  0  0
   55.9173   30.8575   43.2205 H   0  0  0  0  0  0  0  0  0  0  0  0
   59.5384   33.7576   43.2607 H   0  0  0  0  0  0  0  0  0  0  0  0
   58.2925   34.7998   44.0458 H   0  0  0  0  0  0  0  0  0  0  0  0
   60.4201   33.0533   45.3538 H   0  0  0  0  0  0  0  0  0  0  0  0
   60.1037   34.8292   45.5522 H   0  0  0  0  0  0  0  0  0  0  0  0
   57.9278   32.1323   48.7269 H   0  0  0  0  0  0  0  0  0  0  0  0
   59.0383   32.0498   50.9655 H   0  0  0  0  0  0  0  0  0  0  0  0
   61.1309   33.3637   51.3645 H   0  0  0  0  0  0  0  0  0  0  0  0
   62.0971   34.7283   49.5036 H   0  0  0  0  0  0  0  0  0  0  0  0
   56.8867   33.0774   47.3306 H   0  0  0  0  0  0  0  0  0  0  0  0
   56.9246   34.4329   46.1518 H   0  0  0  0  0  0  0  0  0  0  0  0
   57.2486   31.4427   45.6142 H   0  0  0  0  0  0  0  0  0  0  0  0
   55.9961   32.5850   44.9713 H   0  0  0  0  0  0  0  0  0  0  0  0
  1  2  1  0
  2  3  2  0
  3  4  1  0
  4  5  1  0
  4  6  2  0
  6  7  1  0
  7  8  2  0
  7  9  1  0
  9 10  1  0
 10 11  1  0
 11 12  2  0
 11 13  1  0
 13 14  1  0
 14 15  1  0
 15 16  1  0
 16 17  1  0
 17 18  2  0
 18 19  1  0
 19 20  2  0
 20 21  1  0
 21 22  2  0
 16 23  1  0
 23 24  1  0
  6 25  1  0
 25  2  1  0
 24 13  1  0
 22 17  1  0
  1 26  1  0
  1 27  1  0
  1 28  1  0
  5 29  1  0
  5 30  1  0
  5 31  1  0
  9 32  1  0
 10 33  1  0
 10 34  1  0
 14 35  1  0
 14 36  1  0
 15 37  1  0
 15 38  1  0
 18 39  1  0
 19 40  1  0
 20 41  1  0
 21 42  1  0
 23 43  1  0
 23 44  1  0
 24 45  1  0
 24 46  1  0
M  END
>  <UniqueID>  (90) 
88

>  <SMILES>  (90) 
Cc1nc(C)c(C(=O)NCC(=O)N2CCN(c3ccccn3)CC2)s1

>  <Energy>  (90) 
76.62951346791897

>  <Genealogy>  (90) 
Cc1nc(C)c(C(=O)NCC(=O)N2CCN(c3ccccn3)CC2)s1 (3D coordinates assigned)
Cc1nc(C)c(C(=O)NCC(=O)N2CCN(c3ccccn3)CC2)s1 (nonaromatic ring conformer: 76.62951346791897 kcal/mol)

>  <smiles>  (90) 
Cc1nc(C)c(C(=O)NCC(=O)N2CCN(c3ccccn3)CC2)s1

>  <score_type>  (90) 
oracle

>  <origin>  (90) 
adg

>  <m_score__min__energy>  (90) 
-8.0500000000000007

>  <m_primary>  (90) 
energy

$$$$
90:0
     RDKit          3D

 37 39  0  0  0  0  0  0  0  0999 V2000
   63.9130   30.2450   51.5390 H   0  0  0  0  0  0  0  0  0  0  0  0
   62.8910   30.1620   51.3350 N   0  0  0  0  0  0  0  0  0  0  0  0
   62.2440   29.0220   52.4600 S   0  0  0  0  0  0  0  0  0  0  0  0
   62.8340   29.2680   53.8210 O   0  0  0  0  0  0  0  0  0  0  0  0
   62.6030   27.6310   52.0230 O   0  0  0  0  0  0  0  0  0  0  0  0
   60.4930   29.1930   52.5290 C   0  0  0  0  0  0  0  0  0  0  0  0
   59.7970   29.7750   51.4610 C   0  0  0  0  0  0  0  0  0  0  0  0
   60.3455   30.1189   50.5717 H   0  0  0  0  0  0  0  0  0  0  0  0
   58.4080   29.9200   51.5220 C   0  0  0  0  0  0  0  0  0  0  0  0
   57.8666   30.3721   50.6779 H   0  0  0  0  0  0  0  0  0  0  0  0
   57.7020   29.4910   52.6560 C   0  0  0  0  0  0  0  0  0  0  0  0
   56.2720   29.6450   52.7260 N   0  0  0  0  0  0  0  0  0  0  0  0
   55.3920   28.6900   53.1000 C   0  0  0  0  0  0  0  0  0  0  0  0
   55.7550   27.2920   53.5010 C   0  0  0  0  0  0  0  0  0  0  0  0
   55.7741   27.2186   54.5984 H   0  0  0  0  0  0  0  0  0  0  0  0
   55.0093   26.5900   53.0994 H   0  0  0  0  0  0  0  0  0  0  0  0
   56.7480   27.0415   53.0994 H   0  0  0  0  0  0  0  0  0  0  0  0
   54.1070   29.1920   53.0900 C   0  0  0  0  0  0  0  0  0  0  0  0
   53.1920   28.6558   53.3821 H   0  0  0  0  0  0  0  0  0  0  0  0
   54.1890   30.5000   52.6420 C   0  0  0  0  0  0  0  0  0  0  0  0
   53.1020   31.2670   52.4310 C   0  0  0  0  0  0  0  0  0  0  0  0
   52.7631   31.8995   53.2647 H   0  0  0  0  0  0  0  0  0  0  0  0
   52.3290   31.3310   51.1800 C   0  0  0  0  0  0  0  0  0  0  0  0
   52.3350   30.3830   50.2250 N   0  0  0  0  0  0  0  0  0  0  0  0
   51.3870   30.8050   49.3600 C   0  0  0  0  0  0  0  0  0  0  0  0
   51.1040   30.1790   48.3060 O   0  0  0  0  0  0  0  0  0  0  0  0
   50.7610   31.9470   49.7180 N   0  0  0  0  0  0  0  0  0  0  0  0
   51.3600   32.2570   50.8800 C   0  0  0  0  0  0  0  0  0  0  0  0
   51.0230   33.3600   51.6530 O   0  0  0  0  0  0  0  0  0  0  0  0
   55.5570   30.7700   52.4710 C   0  0  0  0  0  0  0  0  0  0  0  0
   56.1220   31.9710   52.2690 C   0  0  0  0  0  0  0  0  0  0  0  0
   57.2124   32.0527   52.1488 H   0  0  0  0  0  0  0  0  0  0  0  0
   55.4946   32.8734   52.2237 H   0  0  0  0  0  0  0  0  0  0  0  0
   58.4010   28.9160   53.7280 C   0  0  0  0  0  0  0  0  0  0  0  0
   57.8540   28.5787   54.6208 H   0  0  0  0  0  0  0  0  0  0  0  0
   59.7900   28.7700   53.6660 C   0  0  0  0  0  0  0  0  0  0  0  0
   60.3328   28.3221   54.5114 H   0  0  0  0  0  0  0  0  0  0  0  0
  1  2  1  0
  2  3  1  0
  3  4  2  0
  3  5  2  0
  3  6  1  0
  6  7  2  0
  7  8  1  0
  7  9  1  0
  9 10  1  0
  9 11  2  0
 11 12  1  0
 12 13  1  0
 13 14  1  0
 14 15  1  0
 14 16  1  0
 14 17  1  0
 13 18  2  0
 18 19  1  0
 18 20  1  0
 20 21  2  0
 21 22  1  0
 21 23  1  0
 23 24  1  0
 24 25  1  0
 25 26  2  0
 25 27  1  0
 27 28  1  0
 28 29  1  0
 20 30  1  0
 30 31  2  0
 31 32  1  0
 31 33  1  0
 11 34  1  0
 34 35  1  0
 34 36  2  0
 36 37  1  0
 36  6  1  0
 30 12  1  0
 28 23  2  0
M  CHG  4   2  -1  24  -1  27  -1  29  -1
M  END
>  <UniqueID>  (91) 
89

>  <SMILES>  (91) 
C=c1/c(=C\c2[n-]c(=O)[n-]c2[O-])cc(C)n1-c1ccc(S([NH-])(=O)=O)cc1

>  <Energy>  (91) 
113.64635832691013

>  <Genealogy>  (91) 
C=c1c(=Cc2[n-]c(=O)[n-]c2[O-])cc(C)n1-c1ccc(S([NH-])(=O)=O)cc1 (protonated)
C=c1/c(=C\c2[n-]c(=O)[n-]c2[O-])cc(C)n1-c1ccc(S([NH-])(=O)=O)cc1 (cis-trans isomerization)
C=c1/c(=C\c2[n-]c(=O)[n-]c2[O-])cc(C)n1-c1ccc(S([NH-])(=O)=O)cc1 (3D coordinates assigned)
C=c1/c(=C\c2[n-]c(=O)[n-]c2[O-])cc(C)n1-c1ccc(S([NH-])(=O)=O)cc1 (optimized conformer: 113.64635832691013 kcal/mol)

>  <smiles>  (91) 
C=c1c(=Cc2[nH]c(=O)[nH]c2O)cc(C)n1-c1ccc(S(N)(=O)=O)cc1

>  <score_type>  (91) 
oracle

>  <origin>  (91) 
adg

>  <m_score__min__energy>  (91) 
-15.67

>  <m_primary>  (91) 
energy

$$$$
91:0
     RDKit          3D

 44 46  0  0  0  0  0  0  0  0999 V2000
   57.3690   33.4610   47.4470 O   0  0  0  0  0  0  0  0  0  0  0  0
   58.2690   33.5330   46.5660 C   0  0  0  0  0  0  0  0  0  0  0  0
   57.8720   33.6990   45.1270 C   0  0  0  0  0  0  0  0  0  0  0  0
   57.7350   32.3380   44.4450 C   0  0  0  0  0  0  0  0  0  0  0  0
   56.4980   31.6850   44.8710 N   0  0  0  0  0  0  0  0  0  0  0  0
   56.5200   30.0110   44.4110 S   0  0  0  0  0  0  0  0  0  0  0  0
   55.2520   29.3420   44.8650 O   0  0  0  0  0  0  0  0  0  0  0  0
   56.5970   29.9160   42.9130 O   0  0  0  0  0  0  0  0  0  0  0  0
   57.9160   29.1990   45.1150 C   0  0  0  0  0  0  0  0  0  0  0  0
   57.7320   28.1910   46.0720 C   0  0  0  0  0  0  0  0  0  0  0  0
   58.8370   27.5370   46.6250 C   0  0  0  0  0  0  0  0  0  0  0  0
   60.1300   27.8830   46.2200 C   0  0  0  0  0  0  0  0  0  0  0  0
   60.3180   28.8810   45.2600 C   0  0  0  0  0  0  0  0  0  0  0  0
   59.2140   29.5380   44.7060 C   0  0  0  0  0  0  0  0  0  0  0  0
   59.6540   33.5180   46.9490 N   0  0  0  0  0  0  0  0  0  0  0  0
   60.7030   34.2400   46.2410 C   0  0  0  0  0  0  0  0  0  0  0  0
   62.0040   33.5740   46.7150 C   0  0  0  0  0  0  0  0  0  0  0  0
   61.5740   32.5600   47.6660 N   0  0  0  0  0  0  0  0  0  0  0  0
   60.2890   32.5540   47.7810 C   0  0  0  0  0  0  0  0  0  0  0  0
   59.5850   31.7200   48.7820 C   0  0  0  0  0  0  0  0  0  0  0  0
   59.5630   30.3200   48.6520 C   0  0  0  0  0  0  0  0  0  0  0  0
   58.8860   29.5350   49.5900 C   0  0  0  0  0  0  0  0  0  0  0  0
   58.2170   30.1390   50.6570 C   0  0  0  0  0  0  0  0  0  0  0  0
   58.2210   31.5300   50.7860 C   0  0  0  0  0  0  0  0  0  0  0  0
   58.8990   32.3200   49.8510 C   0  0  0  0  0  0  0  0  0  0  0  0
   56.9083   34.2270   45.0767 H   0  0  0  0  0  0  0  0  0  0  0  0
   58.6511   34.2777   44.6092 H   0  0  0  0  0  0  0  0  0  0  0  0
   57.7155   32.4780   43.3541 H   0  0  0  0  0  0  0  0  0  0  0  0
   58.5908   31.7066   44.7260 H   0  0  0  0  0  0  0  0  0  0  0  0
   56.7156   27.9140   46.3885 H   0  0  0  0  0  0  0  0  0  0  0  0
   58.6893   26.7499   47.3791 H   0  0  0  0  0  0  0  0  0  0  0  0
   60.9991   27.3696   46.6571 H   0  0  0  0  0  0  0  0  0  0  0  0
   61.3352   29.1503   44.9395 H   0  0  0  0  0  0  0  0  0  0  0  0
   59.3642   30.3215   43.9486 H   0  0  0  0  0  0  0  0  0  0  0  0
   60.5840   34.1332   45.1527 H   0  0  0  0  0  0  0  0  0  0  0  0
   60.6834   35.3205   46.4463 H   0  0  0  0  0  0  0  0  0  0  0  0
   62.5342   33.1125   45.8689 H   0  0  0  0  0  0  0  0  0  0  0  0
   62.7021   34.2962   47.1635 H   0  0  0  0  0  0  0  0  0  0  0  0
   62.2270   31.9630   48.2210 H   0  0  0  0  0  0  0  0  0  0  0  0
   60.0809   29.8403   47.8084 H   0  0  0  0  0  0  0  0  0  0  0  0
   58.8802   28.4398   49.4876 H   0  0  0  0  0  0  0  0  0  0  0  0
   57.6871   29.5195   51.3956 H   0  0  0  0  0  0  0  0  0  0  0  0
   57.6902   32.0051   51.6241 H   0  0  0  0  0  0  0  0  0  0  0  0
   58.8948   33.4152   49.9535 H   0  0  0  0  0  0  0  0  0  0  0  0
  1  2  2  0
  2  3  1  0
  3  4  1  0
  4  5  1  0
  5  6  1  0
  6  7  2  0
  6  8  2  0
  6  9  1  0
  9 10  2  0
 10 11  1  0
 11 12  2  0
 12 13  1  0
 13 14  2  0
  2 15  1  0
 15 16  1  0
 16 17  1  0
 17 18  1  0
 18 19  2  0
 19 20  1  0
 20 21  2  0
 21 22  1  0
 22 23  2  0
 23 24  1  0
 24 25  2  0
 14  9  1  0
 19 15  1  0
 25 20  1  0
  3 26  1  0
  3 27  1  0
  4 28  1  0
  4 29  1  0
 10 30  1  0
 11 31  1  0
 12 32  1  0
 13 33  1  0
 14 34  1  0
 16 35  1  0
 16 36  1  0
 17 37  1  0
 17 38  1  0
 18 39  1  0
 21 40  1  0
 22 41  1  0
 23 42  1  0
 24 43  1  0
 25 44  1  0
M  CHG  2   5  -1  18   1
M  END
>  <UniqueID>  (92) 
90

>  <SMILES>  (92) 
O=C(CC[N-]S(=O)(=O)c1ccccc1)N1CC[NH+]=C1c1ccccc1

>  <Energy>  (92) 
56.838488721117194

>  <Genealogy>  (92) 
O=C(CC[N-]S(=O)(=O)c1ccccc1)N1CC[NH+]=C1c1ccccc1 (protonated)
O=C(CC[N-]S(=O)(=O)c1ccccc1)N1CC[NH+]=C1c1ccccc1 (3D coordinates assigned)
O=C(CC[N-]S(=O)(=O)c1ccccc1)N1CC[NH+]=C1c1ccccc1 (nonaromatic ring conformer: 56.838488721117194 kcal/mol)

>  <smiles>  (92) 
O=C(CCNS(=O)(=O)c1ccccc1)N1CCN=C1c1ccccc1

>  <score_type>  (92) 
oracle

>  <origin>  (92) 
adg

>  <m_score__min__energy>  (92) 
-8.4399999999999995

>  <m_primary>  (92) 
energy

$$$$
