0:0
     RDKit          3D

 29 30  0  0  0  0  0  0  0  0999 V2000
   59.7170   34.6510   47.3410 C   0  0  0  0  0  0  0  0  0  0  0  0
   58.7090   34.3070   45.9170 S   0  0  0  0  0  0  0  0  0  0  0  0
   57.2690   34.2370   46.3400 O   0  0  0  0  0  0  0  0  0  0  0  0
   58.8970   35.4030   44.9060 O   0  0  0  0  0  0  0  0  0  0  0  0
   59.1990   32.7890   45.2370 N   0  0  0  0  0  0  0  0  0  0  0  0
   58.3380   31.8820   44.5370 C   0  0  0  0  0  0  0  0  0  0  0  0
   57.8500   32.1570   43.2480 C   0  0  0  0  0  0  0  0  0  0  0  0
   57.0230   31.2370   42.5990 C   0  0  0  0  0  0  0  0  0  0  0  0
   56.6670   30.0430   43.2300 C   0  0  0  0  0  0  0  0  0  0  0  0
   57.1270   29.7670   44.5300 C   0  0  0  0  0  0  0  0  0  0  0  0
   56.8060   28.5440   45.2070 N   0  0  0  0  0  0  0  0  0  0  0  0
   57.7070   27.4710   45.5120 C   0  0  0  0  0  0  0  0  0  0  0  0
   58.9290   27.5590   45.2180 O   0  0  0  0  0  0  0  0  0  0  0  0
   57.1950   26.2340   46.1240 C   0  0  0  0  0  0  0  0  0  0  0  0
   57.9530   25.1880   46.6080 C   0  0  0  0  0  0  0  0  0  0  0  0
   57.0440   24.2640   47.0820 C   0  0  0  0  0  0  0  0  0  0  0  0
   57.3870   23.0500   47.6610 O   0  0  0  0  0  0  0  0  0  0  0  0
   55.7700   24.6730   46.9240 N   0  0  0  0  0  0  0  0  0  0  0  0
   55.8750   25.8800   46.3360 C   0  0  0  0  0  0  0  0  0  0  0  0
   54.7720   26.6540   45.9960 O   0  0  0  0  0  0  0  0  0  0  0  0
   57.9770   30.6820   45.1640 C   0  0  0  0  0  0  0  0  0  0  0  0
   59.1389   34.4537   48.2558 H   0  0  0  0  0  0  0  0  0  0  0  0
   60.6079   34.0060   47.3240 H   0  0  0  0  0  0  0  0  0  0  0  0
   60.0278   35.7061   47.3240 H   0  0  0  0  0  0  0  0  0  0  0  0
   58.1200   33.0993   42.7488 H   0  0  0  0  0  0  0  0  0  0  0  0
   56.6507   31.4539   41.5869 H   0  0  0  0  0  0  0  0  0  0  0  0
   56.0255   29.3170   42.7091 H   0  0  0  0  0  0  0  0  0  0  0  0
   59.0500   25.1074   46.6147 H   0  0  0  0  0  0  0  0  0  0  0  0
   58.3664   30.4556   46.1676 H   0  0  0  0  0  0  0  0  0  0  0  0
  1  2  1  0
  2  3  2  0
  2  4  2  0
  2  5  1  0
  5  6  1  0
  6  7  2  0
  7  8  1  0
  8  9  2  0
  9 10  1  0
 10 11  1  0
 11 12  1  0
 12 13  2  0
 12 14  1  0
 14 15  1  0
 15 16  2  0
 16 17  1  0
 16 18  1  0
 18 19  1  0
 19 20  1  0
 10 21  2  0
 21  6  1  0
 19 14  2  0
  1 22  1  0
  1 23  1  0
  1 24  1  0
  7 25  1  0
  8 26  1  0
  9 27  1  0
 15 28  1  0
 21 29  1  0
M  CHG  5   5  -1  11  -1  17  -1  18  -1  20  -1
M  END
>  <UniqueID>  (1) 
1

>  <SMILES>  (1) 
CS(=O)(=O)[N-]c1cccc([N-]C(=O)c2cc([O-])[n-]c2[O-])c1

>  <Energy>  (1) 
58.06600068514303

>  <Genealogy>  (1) 
CS(=O)(=O)[N-]c1cccc([N-]C(=O)c2cc([O-])[n-]c2[O-])c1 (protonated)
CS(=O)(=O)[N-]c1cccc([N-]C(=O)c2cc([O-])[n-]c2[O-])c1 (3D coordinates assigned)
CS(=O)(=O)[N-]c1cccc([N-]C(=O)c2cc([O-])[n-]c2[O-])c1 (optimized conformer: 58.06600068514303 kcal/mol)

>  <smiles>  (1) 
CS(=O)(=O)Nc1cccc(NC(=O)c2cc(O)[nH]c2O)c1

>  <score_type>  (1) 
oracle

>  <origin>  (1) 
adg

>  <m_score__min__energy>  (1) 
-17.129999999999999

>  <m_primary>  (1) 
energy

$$$$
1:0
     RDKit          3D

 52 54  0  0  0  0  0  0  0  0999 V2000
   54.9130   26.7760   46.6800 H   0  0  0  0  0  0  0  0  0  0  0  0
   55.5930   26.7810   45.8880 N   0  0  0  0  0  0  0  0  0  0  0  0
   56.3230   27.8180   45.6290 C   0  0  0  0  0  0  0  0  0  0  0  0
   55.7660   28.9190   45.0530 N   0  0  0  0  0  0  0  0  0  0  0  0
   56.5010   30.0280   44.7670 C   0  0  0  0  0  0  0  0  0  0  0  0
   56.0184   30.9022   44.3056 H   0  0  0  0  0  0  0  0  0  0  0  0
   57.8720   30.0590   45.0590 C   0  0  0  0  0  0  0  0  0  0  0  0
   58.6910   31.2850   44.7510 C   0  0  0  0  0  0  0  0  0  0  0  0
   59.4234   31.4384   45.5572 H   0  0  0  0  0  0  0  0  0  0  0  0
   59.1991   31.1300   43.7878 H   0  0  0  0  0  0  0  0  0  0  0  0
   57.8360   32.4900   44.6400 N   0  0  0  0  0  0  0  0  0  0  0  0
   57.1130   32.8170   45.8910 C   0  0  0  0  0  0  0  0  0  0  0  0
   56.4304   33.6575   45.6972 H   0  0  0  0  0  0  0  0  0  0  0  0
   56.5605   31.9203   46.2081 H   0  0  0  0  0  0  0  0  0  0  0  0
   58.0730   33.2090   47.0260 C   0  0  0  0  0  0  0  0  0  0  0  0
   57.5453   33.8619   47.7369 H   0  0  0  0  0  0  0  0  0  0  0  0
   58.4162   32.2949   47.5325 H   0  0  0  0  0  0  0  0  0  0  0  0
   59.2380   33.9200   46.4920 N   0  0  0  0  0  0  0  0  0  0  0  0
   60.4250   34.0350   47.2930 C   0  0  0  0  0  0  0  0  0  0  0  0
   60.3210   34.1900   48.5410 O   0  0  0  0  0  0  0  0  0  0  0  0
   61.7940   33.9510   46.6700 C   0  0  0  0  0  0  0  0  0  0  0  0
   61.6808   33.7983   45.5865 H   0  0  0  0  0  0  0  0  0  0  0  0
   62.3221   34.8904   46.8904 H   0  0  0  0  0  0  0  0  0  0  0  0
   62.6260   32.7990   47.2460 C   0  0  0  0  0  0  0  0  0  0  0  0
   63.4097   32.5274   46.5235 H   0  0  0  0  0  0  0  0  0  0  0  0
   63.0694   33.1333   48.1956 H   0  0  0  0  0  0  0  0  0  0  0  0
   61.7770   31.5950   47.5200 C   0  0  0  0  0  0  0  0  0  0  0  0
   61.0540   31.4230   48.6480 N   0  0  0  0  0  0  0  0  0  0  0  0
   60.4600   30.2340   48.4100 C   0  0  0  0  0  0  0  0  0  0  0  0
   59.5790   29.5120   49.3940 C   0  0  0  0  0  0  0  0  0  0  0  0
   58.9270   28.8234   48.8366 H   0  0  0  0  0  0  0  0  0  0  0  0
   60.4380   28.7010   50.3660 C   0  0  0  0  0  0  0  0  0  0  0  0
   60.1648   28.9590   51.3998 H   0  0  0  0  0  0  0  0  0  0  0  0
   60.2669   27.6274   50.1985 H   0  0  0  0  0  0  0  0  0  0  0  0
   61.5000   28.9335   50.1985 H   0  0  0  0  0  0  0  0  0  0  0  0
   58.6740   30.4910   50.1520 C   0  0  0  0  0  0  0  0  0  0  0  0
   58.8056   30.3487   51.2348 H   0  0  0  0  0  0  0  0  0  0  0  0
   58.9432   31.5229   49.8824 H   0  0  0  0  0  0  0  0  0  0  0  0
   57.6241   30.3036   49.8824 H   0  0  0  0  0  0  0  0  0  0  0  0
   60.8270   29.7250   47.2200 N   0  0  0  0  0  0  0  0  0  0  0  0
   60.5390   28.8170   46.7920 H   0  0  0  0  0  0  0  0  0  0  0  0
   61.6350   30.5890   46.6910 O   0  0  0  0  0  0  0  0  0  0  0  0
   59.1090   34.6170   45.2090 C   0  0  0  0  0  0  0  0  0  0  0  0
   58.4011   35.4514   45.3213 H   0  0  0  0  0  0  0  0  0  0  0  0
   60.0988   34.9926   44.9104 H   0  0  0  0  0  0  0  0  0  0  0  0
   58.5920   33.6580   44.1140 C   0  0  0  0  0  0  0  0  0  0  0  0
   57.9300   34.2245   43.4426 H   0  0  0  0  0  0  0  0  0  0  0  0
   59.4771   33.2578   43.5979 H   0  0  0  0  0  0  0  0  0  0  0  0
   58.4580   28.9370   45.6600 C   0  0  0  0  0  0  0  0  0  0  0  0
   59.5295   28.9444   45.9085 H   0  0  0  0  0  0  0  0  0  0  0  0
   57.6850   27.8100   45.9440 C   0  0  0  0  0  0  0  0  0  0  0  0
   58.1425   26.9252   46.4106 H   0  0  0  0  0  0  0  0  0  0  0  0
  1  2  1  0
  2  3  2  0
  3  4  1  0
  4  5  1  0
  5  6  1  0
  5  7  2  0
  7  8  1  0
  8  9  1  0
  8 10  1  0
  8 11  1  0
 11 12  1  0
 12 13  1  0
 12 14  1  0
 12 15  1  0
 15 16  1  0
 15 17  1  0
 15 18  1  0
 18 19  1  0
 19 20  2  0
 19 21  1  0
 21 22  1  0
 21 23  1  0
 21 24  1  0
 24 25  1  0
 24 26  1  0
 24 27  1  0
 27 28  2  0
 28 29  1  0
 29 30  1  0
 30 31  1  0
 30 32  1  0
 32 33  1  0
 32 34  1  0
 32 35  1  0
 30 36  1  0
 36 37  1  0
 36 38  1  0
 36 39  1  0
 29 40  2  0
 40 41  1  0
 40 42  1  0
 18 43  1  0
 43 44  1  0
 43 45  1  0
 43 46  1  0
 46 47  1  0
 46 48  1  0
  7 49  1  0
 49 50  1  0
 49 51  2  0
 51 52  1  0
 51  3  1  0
 46 11  1  0
 42 27  1  0
M  CHG  2   4  -1  40   1
M  END
>  <UniqueID>  (2) 
2

>  <SMILES>  (2) 
[H]/N=c1/ccc(CN2CCN(C(=O)CCc3nc(C(C)C)[nH+]o3)CC2)c[n-]1

>  <Energy>  (2) 
85.26629848619302

>  <Genealogy>  (2) 
CC(C)c1nc(CCC(=O)N2CCN(Cc3ccc(=N)[n-]c3)CC2)o[nH+]1 (protonated)
[H]/N=c1/ccc(CN2CCN(C(=O)CCc3nc(C(C)C)[nH+]o3)CC2)c[n-]1 (cis-trans isomerization)
[H]/N=c1/ccc(CN2CCN(C(=O)CCc3nc(C(C)C)[nH+]o3)CC2)c[n-]1 (3D coordinates assigned)
[H]/N=c1/ccc(CN2CCN(C(=O)CCc3nc(C(C)C)[nH+]o3)CC2)c[n-]1 (nonaromatic ring conformer: 85.26629848619302 kcal/mol)

>  <smiles>  (2) 
CC(C)c1noc(CCC(=O)N2CCN(Cc3ccc(=N)[nH]c3)CC2)n1

>  <score_type>  (2) 
oracle

>  <origin>  (2) 
adg

>  <m_score__min__energy>  (2) 
-9.1300000000000008

>  <m_primary>  (2) 
energy

$$$$
2:0
     RDKit          3D

 42 44  0  0  0  0  0  0  0  0999 V2000
   58.7250   26.9720   45.9890 C   0  0  0  0  0  0  0  0  0  0  0  0
   57.8820   27.9590   45.6680 C   0  0  0  0  0  0  0  0  0  0  0  0
   56.6010   27.6930   45.3340 N   0  0  0  0  0  0  0  0  0  0  0  0
   56.0800   28.8610   44.9220 C   0  0  0  0  0  0  0  0  0  0  0  0
   54.7700   28.9880   44.4780 O   0  0  0  0  0  0  0  0  0  0  0  0
   57.0010   29.8870   44.9820 C   0  0  0  0  0  0  0  0  0  0  0  0
   56.7380   31.3310   44.6250 C   0  0  0  0  0  0  0  0  0  0  0  0
   57.9870   32.0400   44.0650 C   0  0  0  0  0  0  0  0  0  0  0  0
   58.1650   33.4600   44.5510 C   0  0  0  0  0  0  0  0  0  0  0  0
   57.1810   34.2510   44.5790 O   0  0  0  0  0  0  0  0  0  0  0  0
   59.4500   33.9550   44.9530 N   0  0  0  0  0  0  0  0  0  0  0  0
   59.7620   34.8480   46.4100 S   0  0  0  0  0  0  0  0  0  0  0  0
   60.0330   36.2810   46.0460 O   0  0  0  0  0  0  0  0  0  0  0  0
   58.5470   34.7950   47.2940 O   0  0  0  0  0  0  0  0  0  0  0  0
   61.1760   34.2030   47.2470 C   0  0  0  0  0  0  0  0  0  0  0  0
   62.2500   33.6810   46.5070 C   0  0  0  0  0  0  0  0  0  0  0  0
   63.3860   33.1940   47.1630 C   0  0  0  0  0  0  0  0  0  0  0  0
   63.4610   33.2340   48.5600 C   0  0  0  0  0  0  0  0  0  0  0  0
   62.4010   33.7610   49.3020 C   0  0  0  0  0  0  0  0  0  0  0  0
   61.2590   34.2470   48.6520 C   0  0  0  0  0  0  0  0  0  0  0  0
   60.2520   34.7790   49.3910 F   0  0  0  0  0  0  0  0  0  0  0  0
   58.1700   29.3260   45.4960 C   0  0  0  0  0  0  0  0  0  0  0  0
   59.3050   30.0150   45.7450 C   0  0  0  0  0  0  0  0  0  0  0  0
   59.7830   30.4250   47.0760 C   0  0  0  0  0  0  0  0  0  0  0  0
   60.8500   29.8800   47.6820 N   0  0  0  0  0  0  0  0  0  0  0  0
   60.9970   30.6340   48.7960 C   0  0  0  0  0  0  0  0  0  0  0  0
   61.8920   30.4120   49.6530 O   0  0  0  0  0  0  0  0  0  0  0  0
   60.1090   31.6430   48.9170 N   0  0  0  0  0  0  0  0  0  0  0  0
   59.3570   31.5080   47.8120 C   0  0  0  0  0  0  0  0  0  0  0  0
   58.3170   32.3650   47.4710 O   0  0  0  0  0  0  0  0  0  0  0  0
   59.7659   27.2037   46.2590 H   0  0  0  0  0  0  0  0  0  0  0  0
   58.3777   25.9283   45.9830 H   0  0  0  0  0  0  0  0  0  0  0  0
   55.9425   31.3671   43.8662 H   0  0  0  0  0  0  0  0  0  0  0  0
   56.4433   31.8538   45.5469 H   0  0  0  0  0  0  0  0  0  0  0  0
   58.8740   31.4606   44.3609 H   0  0  0  0  0  0  0  0  0  0  0  0
   57.8567   32.0939   42.9741 H   0  0  0  0  0  0  0  0  0  0  0  0
   62.1978   33.6550   45.4085 H   0  0  0  0  0  0  0  0  0  0  0  0
   64.2213   32.7791   46.5798 H   0  0  0  0  0  0  0  0  0  0  0  0
   64.3547   32.8504   49.0739 H   0  0  0  0  0  0  0  0  0  0  0  0
   62.4632   33.7945   50.3997 H   0  0  0  0  0  0  0  0  0  0  0  0
   59.9248   30.2934   44.8799 H   0  0  0  0  0  0  0  0  0  0  0  0
   58.4070   33.0020   46.6890 H   0  0  0  0  0  0  0  0  0  0  0  0
  1  2  2  0
  2  3  1  0
  3  4  1  0
  4  5  1  0
  4  6  2  0
  6  7  1  0
  7  8  1  0
  8  9  1  0
  9 10  2  0
  9 11  1  0
 11 12  1  0
 12 13  2  0
 12 14  2  0
 12 15  1  0
 15 16  2  0
 16 17  1  0
 17 18  2  0
 18 19  1  0
 19 20  2  0
 20 21  1  0
  6 22  1  0
 22 23  2  3
 23 24  1  0
 24 25  1  0
 25 26  1  0
 26 27  2  0
 26 28  1  0
 28 29  1  0
 29 30  1  0
 22  2  1  0
 29 24  2  0
 20 15  1  0
  1 31  1  0
  1 32  1  0
  7 33  1  0
  7 34  1  0
  8 35  1  0
  8 36  1  0
 16 37  1  0
 17 38  1  0
 18 39  1  0
 19 40  1  0
 23 41  1  0
 30 42  1  0
M  CHG  5   3  -1   5  -1  11  -1  25  -1  28  -1
M  END
>  <UniqueID>  (3) 
3

>  <SMILES>  (3) 
C=c1[n-]c([O-])c(CCC(=O)[N-]S(=O)(=O)c2ccccc2F)c1=Cc1[n-]c(=O)[n-]c1O

>  <Energy>  (3) 
113.79696892803392

>  <Genealogy>  (3) 
C=c1[n-]c([O-])c(CCC(=O)[N-]S(=O)(=O)c2ccccc2F)c1=Cc1[n-]c(=O)[n-]c1O (protonated)
C=c1[n-]c([O-])c(CCC(=O)[N-]S(=O)(=O)c2ccccc2F)c1=Cc1[n-]c(=O)[n-]c1O (3D coordinates assigned)
C=c1[n-]c([O-])c(CCC(=O)[N-]S(=O)(=O)c2ccccc2F)c1=Cc1[n-]c(=O)[n-]c1O (optimized conformer: 113.79696892803392 kcal/mol)

>  <smiles>  (3) 
C=c1[nH]c(O)c(CCC(=O)NS(=O)(=O)c2ccccc2F)c1=Cc1[nH]c(=O)[nH]c1O

>  <score_type>  (3) 
oracle

>  <origin>  (3) 
adg

>  <m_score__min__energy>  (3) 
-16.93

>  <m_primary>  (3) 
energy

$$$$
3:0
     RDKit          3D

 24 25  0  0  0  0  0  0  0  0999 V2000
   55.8300   22.2310   43.7030 O   0  0  0  0  0  0  0  0  0  0  0  0
   56.1740   23.2160   44.4050 C   0  0  0  0  0  0  0  0  0  0  0  0
   55.2510   24.1310   44.7890 N   0  0  0  0  0  0  0  0  0  0  0  0
   55.5830   25.2080   45.5450 C   0  0  0  0  0  0  0  0  0  0  0  0
   54.5530   26.0850   45.8990 O   0  0  0  0  0  0  0  0  0  0  0  0
   56.9330   25.3940   45.9430 C   0  0  0  0  0  0  0  0  0  0  0  0
   57.4100   26.5830   46.7590 C   0  0  0  0  0  0  0  0  0  0  0  0
   57.8390   27.7230   45.8640 C   0  0  0  0  0  0  0  0  0  0  0  0
   59.2080   28.0130   45.7110 C   0  0  0  0  0  0  0  0  0  0  0  0
   59.6230   29.0540   44.8740 C   0  0  0  0  0  0  0  0  0  0  0  0
   58.6790   29.8140   44.1830 C   0  0  0  0  0  0  0  0  0  0  0  0
   57.3180   29.5390   44.3270 C   0  0  0  0  0  0  0  0  0  0  0  0
   56.8940   28.5000   45.1630 C   0  0  0  0  0  0  0  0  0  0  0  0
   55.5330   28.2490   45.2900 O   0  0  0  0  0  0  0  0  0  0  0  0
   57.8660   24.4180   45.5320 C   0  0  0  0  0  0  0  0  0  0  0  0
   59.0800   24.5090   45.8590 O   0  0  0  0  0  0  0  0  0  0  0  0
   57.4680   23.3620   44.7780 N   0  0  0  0  0  0  0  0  0  0  0  0
   54.6530   27.0840   45.9930 H   0  0  0  0  0  0  0  0  0  0  0  0
   56.5902   26.9251   47.4078 H   0  0  0  0  0  0  0  0  0  0  0  0
   58.2751   26.2680   47.3609 H   0  0  0  0  0  0  0  0  0  0  0  0
   59.9566   27.4168   46.2534 H   0  0  0  0  0  0  0  0  0  0  0  0
   60.6949   29.2737   44.7605 H   0  0  0  0  0  0  0  0  0  0  0  0
   59.0076   30.6310   43.5238 H   0  0  0  0  0  0  0  0  0  0  0  0
   56.5764   30.1410   43.7815 H   0  0  0  0  0  0  0  0  0  0  0  0
  1  2  2  0
  2  3  1  0
  3  4  1  0
  4  5  1  0
  4  6  2  0
  6  7  1  0
  7  8  1  0
  8  9  2  0
  9 10  1  0
 10 11  2  0
 11 12  1  0
 12 13  2  0
 13 14  1  0
  6 15  1  0
 15 16  2  0
 15 17  1  0
 17  2  1  0
 13  8  1  0
  5 18  1  0
  7 19  1  0
  7 20  1  0
  9 21  1  0
 10 22  1  0
 11 23  1  0
 12 24  1  0
M  CHG  3   3  -1  14  -1  17  -1
M  END
>  <UniqueID>  (4) 
4

>  <SMILES>  (4) 
O=c1[n-]c(O)c(Cc2ccccc2[O-])c(=O)[n-]1

>  <Energy>  (4) 
30.715466344566153

>  <Genealogy>  (4) 
O=c1[n-]c(O)c(Cc2ccccc2[O-])c(=O)[n-]1 (protonated)
O=c1[n-]c(O)c(Cc2ccccc2[O-])c(=O)[n-]1 (3D coordinates assigned)
O=c1[n-]c(O)c(Cc2ccccc2[O-])c(=O)[n-]1 (optimized conformer: 30.715466344566153 kcal/mol)

>  <smiles>  (4) 
O=c1[nH]c(O)c(Cc2ccccc2O)c(=O)[nH]1

>  <score_type>  (4) 
oracle

>  <origin>  (4) 
adg

>  <m_score__min__energy>  (4) 
-13.52

>  <m_primary>  (4) 
energy

$$$$
4:0
     RDKit          3D

 37 39  0  0  0  0  0  0  0  0999 V2000
   54.7710   26.6980   45.0470 H   0  0  0  0  0  0  0  0  0  0  0  0
   55.1730   26.6970   46.0120 N   0  0  0  0  0  0  0  0  0  0  0  0
   56.8670   26.9950   45.8510 S   0  0  0  0  0  0  0  0  0  0  0  0
   57.5050   26.9990   47.2130 O   0  0  0  0  0  0  0  0  0  0  0  0
   57.4940   25.9050   45.0290 O   0  0  0  0  0  0  0  0  0  0  0  0
   57.1200   28.5520   45.0700 C   0  0  0  0  0  0  0  0  0  0  0  0
   56.0230   29.3120   44.6450 C   0  0  0  0  0  0  0  0  0  0  0  0
   55.0018   28.9295   44.7898 H   0  0  0  0  0  0  0  0  0  0  0  0
   56.2220   30.5560   44.0370 C   0  0  0  0  0  0  0  0  0  0  0  0
   55.3565   31.1424   43.6950 H   0  0  0  0  0  0  0  0  0  0  0  0
   57.5200   31.0600   43.8610 C   0  0  0  0  0  0  0  0  0  0  0  0
   57.7290   32.3990   43.2030 C   0  0  0  0  0  0  0  0  0  0  0  0
   56.9686   32.5391   42.4206 H   0  0  0  0  0  0  0  0  0  0  0  0
   58.7377   32.4233   42.7649 H   0  0  0  0  0  0  0  0  0  0  0  0
   57.6160   33.4810   44.1810 N   0  0  0  0  0  0  0  0  0  0  0  0
   58.2310   33.5320   45.3260 C   0  0  0  0  0  0  0  0  0  0  0  0
   59.5610   34.5360   45.6140 S   0  0  0  0  0  0  0  0  0  0  0  0
   59.6980   34.0100   47.2060 C   0  0  0  0  0  0  0  0  0  0  0  0
   60.6200   34.4020   48.1720 C   0  0  0  0  0  0  0  0  0  0  0  0
   61.3933   35.1499   47.9425 H   0  0  0  0  0  0  0  0  0  0  0  0
   60.5380   33.8150   49.4560 C   0  0  0  0  0  0  0  0  0  0  0  0
   61.4250   34.1490   50.4890 O   0  0  0  0  0  0  0  0  0  0  0  0
   62.8430   34.1690   50.3560 C   0  0  0  0  0  0  0  0  0  0  0  0
   63.3049   34.1755   51.3543 H   0  0  0  0  0  0  0  0  0  0  0  0
   63.1723   33.2754   49.8055 H   0  0  0  0  0  0  0  0  0  0  0  0
   63.1469   35.0715   49.8055 H   0  0  0  0  0  0  0  0  0  0  0  0
   59.5340   32.8590   49.7210 C   0  0  0  0  0  0  0  0  0  0  0  0
   59.4696   32.4028   50.7199 H   0  0  0  0  0  0  0  0  0  0  0  0
   58.6160   32.4820   48.7270 C   0  0  0  0  0  0  0  0  0  0  0  0
   57.8361   31.7357   48.9386 H   0  0  0  0  0  0  0  0  0  0  0  0
   58.7120   33.0720   47.4660 C   0  0  0  0  0  0  0  0  0  0  0  0
   57.8910   32.8000   46.4180 N   0  0  0  0  0  0  0  0  0  0  0  0
   57.1090   32.1090   46.4650 H   0  0  0  0  0  0  0  0  0  0  0  0
   58.6180   30.2930   44.2840 C   0  0  0  0  0  0  0  0  0  0  0  0
   59.6400   30.6720   44.1362 H   0  0  0  0  0  0  0  0  0  0  0  0
   58.4180   29.0500   44.8920 C   0  0  0  0  0  0  0  0  0  0  0  0
   59.2824   28.4608   45.2319 H   0  0  0  0  0  0  0  0  0  0  0  0
  1  2  1  0
  2  3  1  0
  3  4  2  0
  3  5  2  0
  3  6  1  0
  6  7  2  0
  7  8  1  0
  7  9  1  0
  9 10  1  0
  9 11  2  0
 11 12  1  0
 12 13  1  0
 12 14  1  0
 12 15  1  0
 15 16  2  0
 16 17  1  0
 17 18  1  0
 18 19  2  0
 19 20  1  0
 19 21  1  0
 21 22  1  0
 22 23  1  0
 23 24  1  0
 23 25  1  0
 23 26  1  0
 21 27  2  0
 27 28  1  0
 27 29  1  0
 29 30  1  0
 29 31  2  0
 31 32  1  0
 32 33  1  0
 11 34  1  0
 34 35  1  0
 34 36  2  0
 36 37  1  0
 36  6  1  0
 32 16  1  0
 31 18  1  0
M  CHG  1   2  -1
M  END
>  <UniqueID>  (5) 
5

>  <SMILES>  (5) 
COc1ccc2[nH]/c(=N\Cc3ccc(S([NH-])(=O)=O)cc3)sc2c1

>  <Energy>  (5) 
72.64798675339294

>  <Genealogy>  (5) 
COc1ccc2[nH]c(=NCc3ccc(S([NH-])(=O)=O)cc3)sc2c1 (protonated)
COc1ccc2[nH]/c(=N\Cc3ccc(S([NH-])(=O)=O)cc3)sc2c1 (cis-trans isomerization)
COc1ccc2[nH]/c(=N\Cc3ccc(S([NH-])(=O)=O)cc3)sc2c1 (3D coordinates assigned)
COc1ccc2[nH]/c(=N\Cc3ccc(S([NH-])(=O)=O)cc3)sc2c1 (optimized conformer: 72.64798675339294 kcal/mol)

>  <smiles>  (5) 
COc1ccc2[nH]c(=NCc3ccc(S(N)(=O)=O)cc3)sc2c1

>  <score_type>  (5) 
oracle

>  <origin>  (5) 
adg

>  <m_score__min__energy>  (5) 
-11

>  <m_primary>  (5) 
energy

$$$$
5:0
     RDKit          3D

 65 68  0  0  0  0  0  0  0  0999 V2000
   52.4820   21.8780   47.5160 C   0  0  0  0  0  0  0  0  0  0  0  0
   51.8290   22.2370   45.8960 S   0  0  0  0  0  0  0  0  0  0  0  0
   51.4150   20.9460   45.2460 O   0  0  0  0  0  0  0  0  0  0  0  0
   50.6250   23.1300   46.0260 O   0  0  0  0  0  0  0  0  0  0  0  0
   53.0330   23.0050   44.9030 N   0  0  0  0  0  0  0  0  0  0  0  0
   53.6700   24.0980   45.6370 C   0  0  0  0  0  0  0  0  0  0  0  0
   55.1750   23.8180   45.7940 C   0  0  0  0  0  0  0  0  0  0  0  0
   55.6040   22.5420   45.0290 C   0  0  0  0  0  0  0  0  0  0  0  0
   56.6980   21.7320   45.7550 C   0  0  0  0  0  0  0  0  0  0  0  0
   57.6700   22.5740   46.4800 N   0  0  0  0  0  0  0  0  0  0  0  0
   58.8390   23.3150   45.4070 S   0  0  0  0  0  0  0  0  0  0  0  0
   60.2320   23.0810   45.9200 O   0  0  0  0  0  0  0  0  0  0  0  0
   58.7170   22.7150   44.0320 O   0  0  0  0  0  0  0  0  0  0  0  0
   58.5300   25.0440   45.2730 C   0  0  0  0  0  0  0  0  0  0  0  0
   58.0530   25.5940   44.0770 C   0  0  0  0  0  0  0  0  0  0  0  0
   57.7690   26.9610   43.9940 C   0  0  0  0  0  0  0  0  0  0  0  0
   57.9330   27.7880   45.1220 C   0  0  0  0  0  0  0  0  0  0  0  0
   57.6550   29.1960   45.0950 N   0  0  0  0  0  0  0  0  0  0  0  0
   56.3970   29.8450   44.8600 C   0  0  0  0  0  0  0  0  0  0  0  0
   55.3280   29.1800   44.8130 O   0  0  0  0  0  0  0  0  0  0  0  0
   56.3260   31.2750   44.7930 N   0  0  0  0  0  0  0  0  0  0  0  0
   57.4030   32.1740   45.0920 C   0  0  0  0  0  0  0  0  0  0  0  0
   57.8050   33.1720   44.1880 C   0  0  0  0  0  0  0  0  0  0  0  0
   58.8820   34.0050   44.4980 C   0  0  0  0  0  0  0  0  0  0  0  0
   59.5530   33.8630   45.7150 C   0  0  0  0  0  0  0  0  0  0  0  0
   59.1290   32.9120   46.6480 C   0  0  0  0  0  0  0  0  0  0  0  0
   59.8220   32.8000   47.8620 O   0  0  0  0  0  0  0  0  0  0  0  0
   61.1960   33.0210   48.0280 C   0  0  0  0  0  0  0  0  0  0  0  0
   61.6250   33.8540   49.0700 C   0  0  0  0  0  0  0  0  0  0  0  0
   62.9900   34.0880   49.2710 C   0  0  0  0  0  0  0  0  0  0  0  0
   63.9350   33.4780   48.4400 C   0  0  0  0  0  0  0  0  0  0  0  0
   63.5150   32.6280   47.4110 C   0  0  0  0  0  0  0  0  0  0  0  0
   62.1500   32.3950   47.2050 C   0  0  0  0  0  0  0  0  0  0  0  0
   58.0520   32.0650   46.3290 C   0  0  0  0  0  0  0  0  0  0  0  0
   58.4420   27.2370   46.3030 C   0  0  0  0  0  0  0  0  0  0  0  0
   58.7200   25.8710   46.3870 C   0  0  0  0  0  0  0  0  0  0  0  0
   57.0720   23.5490   47.4270 C   0  0  0  0  0  0  0  0  0  0  0  0
   55.5510   23.7190   47.2770 C   0  0  0  0  0  0  0  0  0  0  0  0
   51.7906   22.2581   48.2825 H   0  0  0  0  0  0  0  0  0  0  0  0
   52.5964   20.7902   47.6324 H   0  0  0  0  0  0  0  0  0  0  0  0
   53.4618   22.3643   47.6324 H   0  0  0  0  0  0  0  0  0  0  0  0
   53.5300   25.0386   45.0842 H   0  0  0  0  0  0  0  0  0  0  0  0
   53.2115   24.1799   46.6335 H   0  0  0  0  0  0  0  0  0  0  0  0
   55.7203   24.6637   45.3498 H   0  0  0  0  0  0  0  0  0  0  0  0
   54.7210   21.8987   44.9007 H   0  0  0  0  0  0  0  0  0  0  0  0
   56.0250   22.8665   44.0659 H   0  0  0  0  0  0  0  0  0  0  0  0
   56.2120   21.0601   46.4777 H   0  0  0  0  0  0  0  0  0  0  0  0
   57.2579   21.1812   44.9848 H   0  0  0  0  0  0  0  0  0  0  0  0
   57.9010   24.9485   43.1993 H   0  0  0  0  0  0  0  0  0  0  0  0
   57.4166   27.3913   43.0450 H   0  0  0  0  0  0  0  0  0  0  0  0
   57.2705   33.2972   43.2348 H   0  0  0  0  0  0  0  0  0  0  0  0
   59.2031   34.7755   43.7816 H   0  0  0  0  0  0  0  0  0  0  0  0
   60.4192   34.5025   45.9403 H   0  0  0  0  0  0  0  0  0  0  0  0
   60.8852   34.3262   49.7331 H   0  0  0  0  0  0  0  0  0  0  0  0
   63.3199   34.7523   50.0833 H   0  0  0  0  0  0  0  0  0  0  0  0
   65.0076   33.6663   48.5952 H   0  0  0  0  0  0  0  0  0  0  0  0
   64.2588   32.1419   46.7626 H   0  0  0  0  0  0  0  0  0  0  0  0
   61.8231   31.7218   46.3988 H   0  0  0  0  0  0  0  0  0  0  0  0
   57.7167   31.3111   47.0565 H   0  0  0  0  0  0  0  0  0  0  0  0
   58.6248   27.8852   47.1727 H   0  0  0  0  0  0  0  0  0  0  0  0
   59.0893   25.4435   47.3309 H   0  0  0  0  0  0  0  0  0  0  0  0
   57.2820   23.2085   48.4517 H   0  0  0  0  0  0  0  0  0  0  0  0
   57.5238   24.5266   47.2028 H   0  0  0  0  0  0  0  0  0  0  0  0
   55.0423   22.8522   47.7241 H   0  0  0  0  0  0  0  0  0  0  0  0
   55.2398   24.6413   47.7894 H   0  0  0  0  0  0  0  0  0  0  0  0
  1  2  1  0
  2  3  2  0
  2  4  2  0
  2  5  1  0
  5  6  1  0
  6  7  1  0
  7  8  1  0
  8  9  1  0
  9 10  1  0
 10 11  1  0
 11 12  2  0
 11 13  2  0
 11 14  1  0
 14 15  2  0
 15 16  1  0
 16 17  2  0
 17 18  1  0
 18 19  1  0
 19 20  2  0
 19 21  1  0
 21 22  1  0
 22 23  2  0
 23 24  1  0
 24 25  2  0
 25 26  1  0
 26 27  1  0
 27 28  1  0
 28 29  2  0
 29 30  1  0
 30 31  2  0
 31 32  1  0
 32 33  2  0
 26 34  2  0
 17 35  1  0
 35 36  2  0
 10 37  1  0
 37 38  1  0
 38  7  1  0
 36 14  1  0
 34 22  1  0
 33 28  1  0
  1 39  1  0
  1 40  1  0
  1 41  1  0
  6 42  1  0
  6 43  1  0
  7 44  1  0
  8 45  1  0
  8 46  1  0
  9 47  1  0
  9 48  1  0
 15 49  1  0
 16 50  1  0
 23 51  1  0
 24 52  1  0
 25 53  1  0
 29 54  1  0
 30 55  1  0
 31 56  1  0
 32 57  1  0
 33 58  1  0
 34 59  1  0
 35 60  1  0
 36 61  1  0
 37 62  1  0
 37 63  1  0
 38 64  1  0
 38 65  1  0
M  CHG  3   5  -1  18  -1  21  -1
M  END
>  <UniqueID>  (6) 
6

>  <SMILES>  (6) 
CS(=O)(=O)[N-]CC1CCN(S(=O)(=O)c2ccc([N-]C(=O)[N-]c3cccc(Oc4ccccc4)c3)cc2)CC1

>  <Energy>  (6) 
82.5607784657081

>  <Genealogy>  (6) 
CS(=O)(=O)[N-]CC1CCN(S(=O)(=O)c2ccc([N-]C(=O)[N-]c3cccc(Oc4ccccc4)c3)cc2)CC1 (protonated)
CS(=O)(=O)[N-]CC1CCN(S(=O)(=O)c2ccc([N-]C(=O)[N-]c3cccc(Oc4ccccc4)c3)cc2)CC1 (3D coordinates assigned)
CS(=O)(=O)[N-]CC1CCN(S(=O)(=O)c2ccc([N-]C(=O)[N-]c3cccc(Oc4ccccc4)c3)cc2)CC1 (nonaromatic ring conformer: 82.5607784657081 kcal/mol)

>  <smiles>  (6) 
CS(=O)(=O)NCC1CCN(S(=O)(=O)c2ccc(NC(=O)Nc3cccc(Oc4ccccc4)c3)cc2)CC1

>  <score_type>  (6) 
oracle

>  <origin>  (6) 
adg

>  <m_score__min__energy>  (6) 
-14.390000000000001

>  <m_primary>  (6) 
energy

$$$$
6:0
     RDKit          3D

 70 73  0  0  1  0  0  0  0  0999 V2000
   62.9390   33.4880   47.4910 C   0  0  0  0  0  0  0  0  0  0  0  0
   62.6130   34.1200   48.6070 C   0  0  0  0  0  0  0  0  0  0  0  0
   61.3720   33.8750   49.3330 C   0  0  0  0  0  0  0  0  0  0  0  0
   60.3150   34.4820   49.0140 O   0  0  0  0  0  0  0  0  0  0  0  0
   61.3060   32.9670   50.4040 N   0  0  0  0  0  0  0  0  0  0  0  0
   60.0430   32.7880   51.0630 C   0  0  0  0  0  0  0  0  0  0  0  0
   59.5120   33.8670   51.7330 C   0  0  0  0  0  0  0  0  0  0  0  0
   58.3050   33.7880   52.3920 C   0  0  0  0  0  0  0  0  0  0  0  0
   57.6420   32.5810   52.3570 C   0  0  0  0  0  0  0  0  0  0  0  0
   58.1860   31.4880   51.6730 C   0  0  0  0  0  0  0  0  0  0  0  0
   59.3830   31.5490   51.0130 C   0  0  0  0  0  0  0  0  0  0  0  0
   60.0030   30.5590   50.3210 O   0  0  0  0  0  0  0  0  0  0  0  0
   59.8470   30.2900   49.0030 C   0  0  0  0  0  0  0  0  0  0  0  0
   60.9950   30.4150   48.1950 C   0  0  0  0  0  0  0  0  0  0  0  0
   60.9480   30.1660   46.8400 C   0  0  0  0  0  0  0  0  0  0  0  0
   59.7770   29.7980   46.2960 N   0  0  0  0  0  0  0  0  0  0  0  0
   58.6690   29.6710   47.0390 C   0  0  0  0  0  0  0  0  0  0  0  0
   57.5470   29.3120   46.4620 N   0  0  0  0  0  0  0  0  0  0  0  0
   57.6400   28.3380   45.4570 C   0  0  0  0  0  0  0  0  0  0  0  0
   57.3680   27.0190   45.8200 C   0  0  0  0  0  0  0  0  0  0  0  0
   57.4340   26.0060   44.8970 C   0  0  0  0  0  0  0  0  0  0  0  0
   57.1300   24.6260   45.3540 C   0  0  0  0  0  0  0  0  0  0  0  0
   55.4680   24.5010   45.9700 S   0  0  0  0  0  0  0  0  0  0  0  0
   54.6380   23.2120   45.0530 C   0  0  0  0  0  0  0  0  0  0  0  0
   54.7810   25.8050   45.7790 O   0  0  0  0  0  0  0  0  0  0  0  0
   55.5130   24.0900   47.4130 O   0  0  0  0  0  0  0  0  0  0  0  0
   57.7750   26.2820   43.5840 C   0  0  0  0  0  0  0  0  0  0  0  0
   58.0510   27.5950   43.2110 C   0  0  0  0  0  0  0  0  0  0  0  0
   57.9810   28.6130   44.1490 C   0  0  0  0  0  0  0  0  0  0  0  0
   58.2580   29.9160   43.7590 O   0  0  0  0  0  0  0  0  0  0  0  0
   57.4170   30.9770   44.1410 C   0  0  0  0  0  0  0  0  0  0  0  0
   56.2560   30.6890   44.4400 O   0  0  0  0  0  0  0  0  0  0  0  0
   58.0250   32.3230   44.1390 C   0  0  0  0  0  0  0  0  0  0  0  0
   57.3540   33.1910   45.0560 N   0  0  0  0  0  0  0  0  0  0  0  0
   57.7290   34.5890   44.8660 C   0  0  0  0  0  0  0  0  0  0  0  0
   59.2040   34.7420   44.9860 C   0  0  0  0  0  0  0  0  0  0  0  0
   59.7330   34.2400   46.2110 N   0  0  0  0  0  0  0  0  0  0  0  0
   59.1700   33.0210   46.6920 C   0  0  0  0  0  0  0  0  0  0  0  0
   57.6880   32.9100   46.4460 C   0  0  0  0  0  0  0  0  0  0  0  0
   58.7410   29.9200   48.3580 N   0  0  0  0  0  0  0  0  0  0  0  0
   63.8902   33.7158   46.9877 H   0  0  0  0  0  0  0  0  0  0  0  0
   62.2588   32.7349   47.0666 H   0  0  0  0  0  0  0  0  0  0  0  0
   63.3133   34.8679   49.0073 H   0  0  0  0  0  0  0  0  0  0  0  0
   62.1350   32.4260   50.7320 H   0  0  0  0  0  0  0  0  0  0  0  0
   60.0661   34.8172   51.7424 H   0  0  0  0  0  0  0  0  0  0  0  0
   57.8870   34.6546   52.9252 H   0  0  0  0  0  0  0  0  0  0  0  0
   56.6756   32.4753   52.8717 H   0  0  0  0  0  0  0  0  0  0  0  0
   57.6279   30.5401   51.6657 H   0  0  0  0  0  0  0  0  0  0  0  0
   61.9475   30.7173   48.6548 H   0  0  0  0  0  0  0  0  0  0  0  0
   61.8499   30.2666   46.2183 H   0  0  0  0  0  0  0  0  0  0  0  0
   59.7520   29.6140   45.2810 H   0  0  0  0  0  0  0  0  0  0  0  0
   57.0968   26.7877   46.8607 H   0  0  0  0  0  0  0  0  0  0  0  0
   57.2516   23.9335   44.5080 H   0  0  0  0  0  0  0  0  0  0  0  0
   57.8225   24.3699   46.1694 H   0  0  0  0  0  0  0  0  0  0  0  0
   54.1794   22.4998   45.7548 H   0  0  0  0  0  0  0  0  0  0  0  0
   53.8566   23.6575   44.4198 H   0  0  0  0  0  0  0  0  0  0  0  0
   55.3669   22.6850   44.4198 H   0  0  0  0  0  0  0  0  0  0  0  0
   57.8275   25.4716   42.8421 H   0  0  0  0  0  0  0  0  0  0  0  0
   58.3249   27.8245   42.1707 H   0  0  0  0  0  0  0  0  0  0  0  0
   59.0824   32.2402   44.4305 H   0  0  0  0  0  0  0  0  0  0  0  0
   57.9354   32.7459   43.1275 H   0  0  0  0  0  0  0  0  0  0  0  0
   57.4088   34.9193   43.8668 H   0  0  0  0  0  0  0  0  0  0  0  0
   57.2389   35.2018   45.6369 H   0  0  0  0  0  0  0  0  0  0  0  0
   59.6784   34.2001   44.1546 H   0  0  0  0  0  0  0  0  0  0  0  0
   59.4192   35.8204   44.9601 H   0  0  0  0  0  0  0  0  0  0  0  0
   60.0230   34.9290   46.9120 H   0  0  0  0  0  0  0  0  0  0  0  0
   59.6713   32.1820   46.1872 H   0  0  0  0  0  0  0  0  0  0  0  0
   59.3214   33.0003   47.7813 H   0  0  0  0  0  0  0  0  0  0  0  0
   57.3603   31.8894   46.6928 H   0  0  0  0  0  0  0  0  0  0  0  0
   57.1770   33.6499   47.0796 H   0  0  0  0  0  0  0  0  0  0  0  0
  1  2  2  0
  2  3  1  0
  3  4  2  0
  3  5  1  0
  5  6  1  0
  6  7  2  0
  7  8  1  0
  8  9  2  0
  9 10  1  0
 10 11  2  0
 11 12  1  0
 12 13  1  0
 13 14  1  0
 14 15  2  0
 15 16  1  0
 16 17  1  0
 17 18  2  0
 18 19  1  0
 19 20  2  0
 20 21  1  0
 21 22  1  0
 22 23  1  0
 23 24  1  0
 23 25  2  0
 23 26  2  0
 21 27  2  0
 27 28  1  0
 28 29  2  0
 29 30  1  0
 30 31  1  0
 31 32  2  0
 31 33  1  0
 33 34  1  0
 34 35  1  0
 35 36  1  0
 36 37  1  0
 37 38  1  0
 38 39  1  0
 17 40  1  0
 11  6  1  0
 40 13  2  0
 29 19  1  0
 39 34  1  0
  1 41  1  0
  1 42  1  0
  2 43  1  0
  5 44  1  0
  7 45  1  0
  8 46  1  0
  9 47  1  0
 10 48  1  0
 14 49  1  0
 15 50  1  0
 16 51  1  0
 20 52  1  0
 22 53  1  0
 22 54  1  0
 24 55  1  0
 24 56  1  0
 24 57  1  0
 27 58  1  0
 28 59  1  0
 33 60  1  0
 33 61  1  0
 35 62  1  0
 35 63  1  0
 36 64  1  0
 36 65  1  0
 37 66  1  0
 38 67  1  0
 38 68  1  0
 39 69  1  0
 39 70  1  0
M  END
>  <smiles>  (7) 
C=CC(=O)Nc1ccccc1Oc1cc[nH]c(=Nc2cc(CS(C)(=O)=O)ccc2OC(=O)CN2CCNCC2)n1

>  <score_type>  (7) 
oracle

>  <origin>  (7) 
adg

>  <m_score__min__energy>  (7) 
-10.83

>  <m_primary>  (7) 
energy

$$$$
7:0
     RDKit          3D

 56 58  0  0  0  0  0  0  0  0999 V2000
   55.5290   28.7940   45.2360 N   0  0  0  0  0  0  0  0  0  0  0  0
   56.7870   29.8340   44.6700 S   0  0  0  0  0  0  0  0  0  0  0  0
   56.3100   31.2590   44.6910 O   0  0  0  0  0  0  0  0  0  0  0  0
   57.1390   29.4650   43.2560 O   0  0  0  0  0  0  0  0  0  0  0  0
   58.2010   29.6650   45.7040 C   0  0  0  0  0  0  0  0  0  0  0  0
   58.4740   28.4450   46.3370 C   0  0  0  0  0  0  0  0  0  0  0  0
   59.5960   28.3150   47.1590 C   0  0  0  0  0  0  0  0  0  0  0  0
   60.4470   29.4050   47.3610 C   0  0  0  0  0  0  0  0  0  0  0  0
   60.1740   30.6390   46.7490 C   0  0  0  0  0  0  0  0  0  0  0  0
   61.1070   31.8040   46.9370 C   0  0  0  0  0  0  0  0  0  0  0  0
   62.2110   31.4290   47.8760 C   0  0  0  0  0  0  0  0  0  0  0  0
   63.4060   31.4620   47.4760 O   0  0  0  0  0  0  0  0  0  0  0  0
   61.9060   30.9890   49.2060 N   0  0  0  0  0  0  0  0  0  0  0  0
   62.9600   30.5590   50.1260 C   0  0  0  0  0  0  0  0  0  0  0  0
   62.3600   29.9960   51.4160 C   0  0  0  0  0  0  0  0  0  0  0  0
   60.8970   30.8940   51.9460 S   0  0  0  0  0  0  0  0  0  0  0  0
   59.9000   29.8790   52.4270 O   0  0  0  0  0  0  0  0  0  0  0  0
   61.2720   31.7660   53.1130 O   0  0  0  0  0  0  0  0  0  0  0  0
   60.1270   31.8630   50.7080 N   0  0  0  0  0  0  0  0  0  0  0  0
   60.6220   33.2550   50.7140 C   0  0  0  0  0  0  0  0  0  0  0  0
   59.7200   34.2040   49.8980 C   0  0  0  0  0  0  0  0  0  0  0  0
   58.8900   33.4530   48.9460 N   0  0  0  0  0  0  0  0  0  0  0  0
   58.7890   33.8650   47.5690 C   0  0  0  0  0  0  0  0  0  0  0  0
   59.7620   34.7070   47.0000 C   0  0  0  0  0  0  0  0  0  0  0  0
   59.6510   35.1150   45.6670 C   0  0  0  0  0  0  0  0  0  0  0  0
   58.5690   34.6930   44.8920 C   0  0  0  0  0  0  0  0  0  0  0  0
   57.5920   33.8640   45.4500 C   0  0  0  0  0  0  0  0  0  0  0  0
   57.6980   33.4530   46.7820 C   0  0  0  0  0  0  0  0  0  0  0  0
   58.0960   32.3160   49.4340 C   0  0  0  0  0  0  0  0  0  0  0  0
   58.6590   31.7880   50.7580 C   0  0  0  0  0  0  0  0  0  0  0  0
   59.0510   30.7600   45.9140 C   0  0  0  0  0  0  0  0  0  0  0  0
   54.6420   29.3460   45.2080 H   0  0  0  0  0  0  0  0  0  0  0  0
   57.8026   27.5868   46.1861 H   0  0  0  0  0  0  0  0  0  0  0  0
   59.8100   27.3532   47.6480 H   0  0  0  0  0  0  0  0  0  0  0  0
   61.3343   29.2958   48.0020 H   0  0  0  0  0  0  0  0  0  0  0  0
   61.5362   32.0876   45.9647 H   0  0  0  0  0  0  0  0  0  0  0  0
   60.5464   32.6514   47.3586 H   0  0  0  0  0  0  0  0  0  0  0  0
   60.9060   30.9760   49.5110 H   0  0  0  0  0  0  0  0  0  0  0  0
   63.5665   29.7802   49.6406 H   0  0  0  0  0  0  0  0  0  0  0  0
   63.5839   31.4291   50.3782 H   0  0  0  0  0  0  0  0  0  0  0  0
   62.0860   28.9441   51.2475 H   0  0  0  0  0  0  0  0  0  0  0  0
   63.1175   30.0959   52.2074 H   0  0  0  0  0  0  0  0  0  0  0  0
   60.6605   33.6116   51.7539 H   0  0  0  0  0  0  0  0  0  0  0  0
   61.6190   33.2582   50.2493 H   0  0  0  0  0  0  0  0  0  0  0  0
   59.0654   34.7585   50.5865 H   0  0  0  0  0  0  0  0  0  0  0  0
   60.3609   34.8971   49.3333 H   0  0  0  0  0  0  0  0  0  0  0  0
   60.6145   35.0462   47.6068 H   0  0  0  0  0  0  0  0  0  0  0  0
   60.4180   35.7700   45.2280 H   0  0  0  0  0  0  0  0  0  0  0  0
   58.4856   35.0128   43.8428 H   0  0  0  0  0  0  0  0  0  0  0  0
   56.7381   33.5343   44.8400 H   0  0  0  0  0  0  0  0  0  0  0  0
   56.9240   32.8038   47.2172 H   0  0  0  0  0  0  0  0  0  0  0  0
   57.0567   32.6416   49.5883 H   0  0  0  0  0  0  0  0  0  0  0  0
   58.1376   31.5100   48.6866 H   0  0  0  0  0  0  0  0  0  0  0  0
   58.2849   32.4019   51.5906 H   0  0  0  0  0  0  0  0  0  0  0  0
   58.3414   30.7462   50.9120 H   0  0  0  0  0  0  0  0  0  0  0  0
   58.8371   31.7201   45.4217 H   0  0  0  0  0  0  0  0  0  0  0  0
  1  2  1  0
  2  3  2  0
  2  4  2  0
  2  5  1  0
  5  6  2  0
  6  7  1  0
  7  8  2  0
  8  9  1  0
  9 10  1  0
 10 11  1  0
 11 12  2  0
 11 13  1  0
 13 14  1  0
 14 15  1  0
 15 16  1  0
 16 17  2  0
 16 18  2  0
 16 19  1  0
 19 20  1  0
 20 21  1  0
 21 22  1  0
 22 23  1  0
 23 24  2  0
 24 25  1  0
 25 26  2  0
 26 27  1  0
 27 28  2  0
 22 29  1  0
 29 30  1  0
  9 31  2  0
 31  5  1  0
 30 19  1  0
 28 23  1  0
  1 32  1  0
  6 33  1  0
  7 34  1  0
  8 35  1  0
 10 36  1  0
 10 37  1  0
 13 38  1  0
 14 39  1  0
 14 40  1  0
 15 41  1  0
 15 42  1  0
 20 43  1  0
 20 44  1  0
 21 45  1  0
 21 46  1  0
 24 47  1  0
 25 48  1  0
 26 49  1  0
 27 50  1  0
 28 51  1  0
 29 52  1  0
 29 53  1  0
 30 54  1  0
 30 55  1  0
 31 56  1  0
M  CHG  1   1  -1
M  END
>  <UniqueID>  (8) 
7

>  <SMILES>  (8) 
[NH-]S(=O)(=O)c1cccc(CC(=O)NCCS(=O)(=O)N2CCN(c3ccccc3)CC2)c1

>  <Energy>  (8) 
56.81019763182693

>  <Genealogy>  (8) 
[NH-]S(=O)(=O)c1cccc(CC(=O)NCCS(=O)(=O)N2CCN(c3ccccc3)CC2)c1 (protonated)
[NH-]S(=O)(=O)c1cccc(CC(=O)NCCS(=O)(=O)N2CCN(c3ccccc3)CC2)c1 (3D coordinates assigned)
[NH-]S(=O)(=O)c1cccc(CC(=O)NCCS(=O)(=O)N2CCN(c3ccccc3)CC2)c1 (nonaromatic ring conformer: 56.81019763182693 kcal/mol)

>  <smiles>  (8) 
NS(=O)(=O)c1cccc(CC(=O)NCCS(=O)(=O)N2CCN(c3ccccc3)CC2)c1

>  <score_type>  (8) 
oracle

>  <origin>  (8) 
adg

>  <m_score__min__energy>  (8) 
-13.210000000000001

>  <m_primary>  (8) 
energy

$$$$
8:0
     RDKit          3D

 41 43  0  0  0  0  0  0  0  0999 V2000
   64.9910   33.0830   47.7780 H   0  0  0  0  0  0  0  0  0  0  0  0
   64.2710   33.5130   48.3980 N   0  0  0  0  0  0  0  0  0  0  0  0
   63.0720   33.0310   48.4730 C   0  0  0  0  0  0  0  0  0  0  0  0
   61.9400   33.6430   49.7120 S   0  0  0  0  0  0  0  0  0  0  0  0
   60.6610   33.9610   48.4600 C   0  0  0  0  0  0  0  0  0  0  0  0
   59.7952   34.4341   48.9464 H   0  0  0  0  0  0  0  0  0  0  0  0
   61.0891   34.6209   47.6911 H   0  0  0  0  0  0  0  0  0  0  0  0
   60.1960   32.6470   47.7690 C   0  0  2  0  0  0  0  0  0  0  0  0
   59.2180   33.0260   46.6360 C   0  0  0  0  0  0  0  0  0  0  0  0
   58.1840   32.1420   46.2400 C   0  0  0  0  0  0  0  0  0  0  0  0
   58.0806   31.1720   46.7484 H   0  0  0  0  0  0  0  0  0  0  0  0
   57.2920   32.4770   45.2160 C   0  0  0  0  0  0  0  0  0  0  0  0
   56.2620   31.5410   44.8620 N   0  0  0  0  0  0  0  0  0  0  0  0
   56.4580   30.2550   44.2590 C   0  0  0  0  0  0  0  0  0  0  0  0
   55.7340   29.9280   43.2810 O   0  0  0  0  0  0  0  0  0  0  0  0
   57.4940   29.3120   44.7290 C   0  0  0  0  0  0  0  0  0  0  0  0
   58.8050   29.6450   44.5690 N   0  0  0  0  0  0  0  0  0  0  0  0
   59.8150   28.8300   44.9750 C   0  0  0  0  0  0  0  0  0  0  0  0
   60.8614   29.1330   44.8227 H   0  0  0  0  0  0  0  0  0  0  0  0
   59.5230   27.6070   45.5860 C   0  0  0  0  0  0  0  0  0  0  0  0
   60.5840   26.7360   46.0180 C   0  0  0  0  0  0  0  0  0  0  0  0
   61.4380   26.0380   46.3660 N   0  0  0  0  0  0  0  0  0  0  0  0
   58.1870   27.2460   45.7840 C   0  0  0  0  0  0  0  0  0  0  0  0
   57.9410   26.2907   46.2707 H   0  0  0  0  0  0  0  0  0  0  0  0
   57.1650   28.1000   45.3630 C   0  0  0  0  0  0  0  0  0  0  0  0
   55.8750   27.7620   45.6140 F   0  0  0  0  0  0  0  0  0  0  0  0
   57.4530   33.6860   44.5280 C   0  0  0  0  0  0  0  0  0  0  0  0
   56.7699   33.9448   43.7056 H   0  0  0  0  0  0  0  0  0  0  0  0
   58.4760   34.5610   44.8830 C   0  0  0  0  0  0  0  0  0  0  0  0
   58.5932   35.5114   44.3417 H   0  0  0  0  0  0  0  0  0  0  0  0
   59.3550   34.2420   45.9210 C   0  0  0  0  0  0  0  0  0  0  0  0
   60.3490   35.1220   46.2000 F   0  0  0  0  0  0  0  0  0  0  0  0
   59.4960   31.6970   48.7800 C   0  0  0  0  0  0  0  0  0  0  0  0
   60.1488   31.6164   49.6617 H   0  0  0  0  0  0  0  0  0  0  0  0
   59.2990   30.4420   48.2280 F   0  0  0  0  0  0  0  0  0  0  0  0
   58.2590   32.2050   49.1380 F   0  0  0  0  0  0  0  0  0  0  0  0
   61.3440   31.9100   47.2020 N   0  0  0  0  0  0  0  0  0  0  0  0
   62.6090   32.0310   47.4950 C   0  0  0  0  0  0  0  0  0  0  0  0
   63.5590   31.2290   46.7910 N   0  0  0  0  0  0  0  0  0  0  0  0
   63.2400   30.5480   46.0670 H   0  0  0  0  0  0  0  0  0  0  0  0
   64.5800   31.2940   46.9980 H   0  0  0  0  0  0  0  0  0  0  0  0
  1  2  1  0
  2  3  2  0
  3  4  1  0
  4  5  1  0
  5  6  1  0
  5  7  1  0
  5  8  1  0
  8  9  1  0
  9 10  2  0
 10 11  1  0
 10 12  1  0
 12 13  1  0
 13 14  1  0
 14 15  2  0
 14 16  1  0
 16 17  2  0
 17 18  1  0
 18 19  1  0
 18 20  2  0
 20 21  1  0
 21 22  3  0
 20 23  1  0
 23 24  1  0
 23 25  2  0
 25 26  1  0
 12 27  2  0
 27 28  1  0
 27 29  1  0
 29 30  1  0
 29 31  2  0
 31 32  1  0
  8 33  1  1
 33 34  1  0
 33 35  1  0
 33 36  1  0
  8 37  1  0
 37 38  2  0
 38 39  1  0
 39 40  1  0
 39 41  1  0
 38  3  1  0
 31  9  1  0
 25 16  1  0
M  CHG  1  13  -1
M  END
>  <UniqueID>  (9) 
8

>  <SMILES>  (9) 
[H]/N=C1\SC[C@](c2cc([N-]C(=O)c3ncc(C#N)cc3F)ccc2F)(C(F)F)N=C1N

>  <Energy>  (9) 
61.20724683103063

>  <Genealogy>  (9) 
N#Cc1cnc(C(=O)[N-]c2ccc(F)c(C3(C(F)F)CSC(=N)C(N)=N3)c2)c(F)c1 (protonated)
N#Cc1cnc(C(=O)[N-]c2ccc(F)c([C@]3(C(F)F)CSC(=N)C(N)=N3)c2)c(F)c1 (chirality)
[H]/N=C1\SC[C@](c2cc([N-]C(=O)c3ncc(C#N)cc3F)ccc2F)(C(F)F)N=C1N (cis-trans isomerization)
[H]/N=C1\SC[C@](c2cc([N-]C(=O)c3ncc(C#N)cc3F)ccc2F)(C(F)F)N=C1N (3D coordinates assigned)
[H]/N=C1\SC[C@](c2cc([N-]C(=O)c3ncc(C#N)cc3F)ccc2F)(C(F)F)N=C1N (nonaromatic ring conformer: 61.20724683103063 kcal/mol)

>  <smiles>  (9) 
N#Cc1cnc(C(=O)Nc2ccc(F)c(C3(C(F)F)CSC(=N)C(N)=N3)c2)c(F)c1

>  <score_type>  (9) 
oracle

>  <origin>  (9) 
adg

>  <m_score__min__energy>  (9) 
-9.7599999999999998

>  <m_primary>  (9) 
energy

$$$$
9:0
     RDKit          3D

 71 75  0  0  1  0  0  0  0  0999 V2000
   56.7870   24.8900   45.2660 C   0  0  0  0  0  0  0  0  0  0  0  0
   58.2930   24.7070   45.2180 C   0  0  0  0  0  0  0  0  0  0  0  0
   59.0040   25.8550   45.7370 N   0  0  0  0  0  0  0  0  0  0  0  0
   58.9040   26.2830   47.0920 C   0  0  0  0  0  0  0  0  0  0  0  0
   58.1570   25.6100   47.8420 O   0  0  0  0  0  0  0  0  0  0  0  0
   59.6240   27.4440   47.6140 C   0  0  0  0  0  0  0  0  0  0  0  0
   60.0870   27.4860   48.8980 C   0  0  0  0  0  0  0  0  0  0  0  0
   60.7720   28.5680   49.4410 C   0  0  0  0  0  0  0  0  0  0  0  0
   61.2280   28.5340   50.7910 N   0  0  0  0  0  0  0  0  0  0  0  0
   61.7600   29.6420   51.5110 C   0  0  0  0  0  0  0  0  0  0  0  0
   62.9750   29.3030   52.3440 C   0  0  0  0  0  0  0  0  0  0  0  0
   63.0200   27.9590   52.6900 O   0  0  0  0  0  0  0  0  0  0  0  0
   61.7250   27.4830   52.8720 C   0  0  0  0  0  0  0  0  0  0  0  0
   61.1400   27.2510   51.4980 C   0  0  0  0  0  0  0  0  0  0  0  0
   60.9740   29.6380   48.6000 C   0  0  0  0  0  0  0  0  0  0  0  0
   60.5250   29.6520   47.2800 C   0  0  0  0  0  0  0  0  0  0  0  0
   60.7310   30.7200   46.4540 O   0  0  0  0  0  0  0  0  0  0  0  0
   61.3700   31.9260   46.7500 C   0  0  0  0  0  0  0  0  0  0  0  0
   62.8350   31.7460   47.1050 C   0  0  0  0  0  0  0  0  0  0  0  0
   59.8380   28.5340   46.7820 C   0  0  0  0  0  0  0  0  0  0  0  0
   59.4300   28.5760   45.4290 N   0  0  0  0  0  0  0  0  0  0  0  0
   58.5030   29.2760   44.9230 C   0  0  0  0  0  0  0  0  0  0  0  0
   58.1490   30.5140   45.3740 N   0  0  0  0  0  0  0  0  0  0  0  0
   57.1610   31.2100   44.8030 C   0  0  0  0  0  0  0  0  0  0  0  0
   56.8660   32.3750   45.2690 N   0  0  0  0  0  0  0  0  0  0  0  0
   57.8730   33.3740   45.5380 C   0  0  0  0  0  0  0  0  0  0  0  0
   58.3340   34.2130   44.5740 C   0  0  0  0  0  0  0  0  0  0  0  0
   59.3050   35.1570   44.8870 C   0  0  0  0  0  0  0  0  0  0  0  0
   59.8160   35.2670   46.1570 C   0  0  0  0  0  0  0  0  0  0  0  0
   59.3400   34.4090   47.1320 C   0  0  0  0  0  0  0  0  0  0  0  0
   58.3790   33.4680   46.8400 C   0  0  0  0  0  0  0  0  0  0  0  0
   58.0310   32.6680   48.0410 C   0  0  0  0  0  0  0  0  0  0  0  0
   59.2390   32.8190   48.9170 C   0  0  0  0  0  0  0  0  0  0  0  0
   59.6570   34.2470   48.5730 C   0  0  0  0  0  0  0  0  0  0  0  0
   56.4550   30.7460   43.7560 N   0  0  0  0  0  0  0  0  0  0  0  0
   56.7880   29.5180   43.2900 C   0  0  0  0  0  0  0  0  0  0  0  0
   57.8040   28.7680   43.8550 C   0  0  0  0  0  0  0  0  0  0  0  0
   58.1200   27.2020   43.1460 Cl  0  0  0  0  0  0  0  0  0  0  0  0
   56.4558   24.9303   46.3142 H   0  0  0  0  0  0  0  0  0  0  0  0
   56.5153   25.8278   44.7593 H   0  0  0  0  0  0  0  0  0  0  0  0
   56.2986   24.0446   44.7593 H   0  0  0  0  0  0  0  0  0  0  0  0
   58.5611   23.8246   45.8175 H   0  0  0  0  0  0  0  0  0  0  0  0
   58.5825   24.5809   44.1643 H   0  0  0  0  0  0  0  0  0  0  0  0
   59.6340   26.4250   45.1150 H   0  0  0  0  0  0  0  0  0  0  0  0
   59.9075   26.6120   49.5413 H   0  0  0  0  0  0  0  0  0  0  0  0
   62.0419   30.4219   50.7883 H   0  0  0  0  0  0  0  0  0  0  0  0
   60.9773   29.9761   52.2080 H   0  0  0  0  0  0  0  0  0  0  0  0
   63.8788   29.5501   51.7677 H   0  0  0  0  0  0  0  0  0  0  0  0
   62.9184   29.8876   53.2741 H   0  0  0  0  0  0  0  0  0  0  0  0
   61.7456   26.5398   53.4376 H   0  0  0  0  0  0  0  0  0  0  0  0
   61.1186   28.2046   53.4391 H   0  0  0  0  0  0  0  0  0  0  0  0
   61.7163   26.4813   50.9637 H   0  0  0  0  0  0  0  0  0  0  0  0
   60.0996   26.8995   51.5605 H   0  0  0  0  0  0  0  0  0  0  0  0
   61.5112   30.5176   48.9843 H   0  0  0  0  0  0  0  0  0  0  0  0
   61.2999   32.5852   45.8722 H   0  0  0  0  0  0  0  0  0  0  0  0
   60.8681   32.3590   47.6278 H   0  0  0  0  0  0  0  0  0  0  0  0
   62.9481   31.7321   48.1991 H   0  0  0  0  0  0  0  0  0  0  0  0
   63.1997   30.7963   46.6866 H   0  0  0  0  0  0  0  0  0  0  0  0
   63.4187   32.5792   46.6866 H   0  0  0  0  0  0  0  0  0  0  0  0
   58.7120   30.8540   46.1900 H   0  0  0  0  0  0  0  0  0  0  0  0
   57.9401   34.1455   43.5492 H   0  0  0  0  0  0  0  0  0  0  0  0
   59.6726   35.8314   44.0995 H   0  0  0  0  0  0  0  0  0  0  0  0
   60.5842   36.0182   46.3928 H   0  0  0  0  0  0  0  0  0  0  0  0
   57.1334   33.0685   48.5349 H   0  0  0  0  0  0  0  0  0  0  0  0
   57.7970   31.6190   47.8069 H   0  0  0  0  0  0  0  0  0  0  0  0
   58.9835   32.7162   49.9820 H   0  0  0  0  0  0  0  0  0  0  0  0
   60.0200   32.0616   48.7546 H   0  0  0  0  0  0  0  0  0  0  0  0
   59.0898   34.9709   49.1765 H   0  0  0  0  0  0  0  0  0  0  0  0
   60.7221   34.4252   48.7822 H   0  0  0  0  0  0  0  0  0  0  0  0
   55.6890   31.2720   43.3060 H   0  0  0  0  0  0  0  0  0  0  0  0
   56.2328   29.1043   42.4353 H   0  0  0  0  0  0  0  0  0  0  0  0
  1  2  1  0
  2  3  1  0
  3  4  1  0
  4  5  2  0
  4  6  1  0
  6  7  2  0
  7  8  1  0
  8  9  1  0
  9 10  1  0
 10 11  1  0
 11 12  1  0
 12 13  1  0
 13 14  1  0
  8 15  2  0
 15 16  1  0
 16 17  1  0
 17 18  1  0
 18 19  1  0
 16 20  2  0
 20 21  1  0
 21 22  2  0
 22 23  1  0
 23 24  1  0
 24 25  2  0
 25 26  1  0
 26 27  2  0
 27 28  1  0
 28 29  2  0
 29 30  1  0
 30 31  2  0
 31 32  1  0
 32 33  1  0
 33 34  1  0
 24 35  1  0
 35 36  1  0
 36 37  2  0
 37 38  1  0
 20  6  1  0
 37 22  1  0
 14  9  1  0
 31 26  1  0
 34 30  1  0
  1 39  1  0
  1 40  1  0
  1 41  1  0
  2 42  1  0
  2 43  1  0
  3 44  1  0
  7 45  1  0
 10 46  1  0
 10 47  1  0
 11 48  1  0
 11 49  1  0
 13 50  1  0
 13 51  1  0
 14 52  1  0
 14 53  1  0
 15 54  1  0
 18 55  1  0
 18 56  1  0
 19 57  1  0
 19 58  1  0
 19 59  1  0
 23 60  1  0
 27 61  1  0
 28 62  1  0
 29 63  1  0
 32 64  1  0
 32 65  1  0
 33 66  1  0
 33 67  1  0
 34 68  1  0
 34 69  1  0
 35 70  1  0
 36 71  1  0
M  END
>  <smiles>  (10) 
CCNC(=O)c1cc(N2CCOCC2)cc(OCC)c1N=c1[nH]c(=Nc2cccc3c2CCC3)[nH]cc1Cl

>  <score_type>  (10) 
oracle

>  <origin>  (10) 
adg

>  <m_score__min__energy>  (10) 
-9.4800000000000004

>  <m_primary>  (10) 
energy

$$$$
10:0
     RDKit          3D

 35 37  0  0  0  0  0  0  0  0999 V2000
   58.8010   34.3750   46.9790 O   0  0  0  0  0  0  0  0  0  0  0  0
   59.1760   33.2270   46.6190 C   0  0  0  0  0  0  0  0  0  0  0  0
   60.3270   32.6460   47.2480 N   0  0  0  0  0  0  0  0  0  0  0  0
   61.0770   31.4930   46.7540 C   0  0  0  0  0  0  0  0  0  0  0  0
   60.2140   30.2580   46.7420 C   0  0  0  0  0  0  0  0  0  0  0  0
   59.4220   29.9300   47.8520 C   0  0  0  0  0  0  0  0  0  0  0  0
   58.5920   28.8070   47.8200 C   0  0  0  0  0  0  0  0  0  0  0  0
   58.5490   27.9790   46.6830 C   0  0  0  0  0  0  0  0  0  0  0  0
   57.6480   26.7970   46.6640 C   0  0  0  0  0  0  0  0  0  0  0  0
   58.0550   25.5490   47.1640 C   0  0  0  0  0  0  0  0  0  0  0  0
   57.1550   24.4820   47.1170 C   0  0  0  0  0  0  0  0  0  0  0  0
   57.4900   23.3520   47.5580 O   0  0  0  0  0  0  0  0  0  0  0  0
   55.9130   24.6640   46.6000 N   0  0  0  0  0  0  0  0  0  0  0  0
   55.5270   25.8770   46.1270 C   0  0  0  0  0  0  0  0  0  0  0  0
   54.3710   26.0290   45.6550 O   0  0  0  0  0  0  0  0  0  0  0  0
   56.3880   26.9270   46.1630 N   0  0  0  0  0  0  0  0  0  0  0  0
   59.3490   28.3100   45.5730 C   0  0  0  0  0  0  0  0  0  0  0  0
   60.1760   29.4370   45.6050 C   0  0  0  0  0  0  0  0  0  0  0  0
   58.4450   32.5430   45.5370 C   0  0  0  0  0  0  0  0  0  0  0  0
   58.5580   32.9690   44.2070 C   0  0  0  0  0  0  0  0  0  0  0  0
   57.8420   32.3160   43.2020 C   0  0  0  0  0  0  0  0  0  0  0  0
   57.0250   31.2330   43.5370 C   0  0  0  0  0  0  0  0  0  0  0  0
   56.3680   30.6350   42.6450 O   0  0  0  0  0  0  0  0  0  0  0  0
   56.9410   30.8190   44.8300 N   0  0  0  0  0  0  0  0  0  0  0  0
   57.6310   31.4380   45.8250 C   0  0  0  0  0  0  0  0  0  0  0  0
   61.4242   31.7002   45.7310 H   0  0  0  0  0  0  0  0  0  0  0  0
   61.9337   31.3177   47.4213 H   0  0  0  0  0  0  0  0  0  0  0  0
   59.4546   30.5606   48.7527 H   0  0  0  0  0  0  0  0  0  0  0  0
   57.9659   28.5675   48.6921 H   0  0  0  0  0  0  0  0  0  0  0  0
   59.0626   25.4147   47.5843 H   0  0  0  0  0  0  0  0  0  0  0  0
   59.3233   27.6772   44.6736 H   0  0  0  0  0  0  0  0  0  0  0  0
   60.8007   29.6814   44.7332 H   0  0  0  0  0  0  0  0  0  0  0  0
   59.2107   33.8177   43.9548 H   0  0  0  0  0  0  0  0  0  0  0  0
   57.9202   32.6506   42.1571 H   0  0  0  0  0  0  0  0  0  0  0  0
   57.5504   31.0709   46.8588 H   0  0  0  0  0  0  0  0  0  0  0  0
  1  2  2  0
  2  3  1  0
  3  4  1  0
  4  5  1  0
  5  6  2  0
  6  7  1  0
  7  8  2  0
  8  9  1  0
  9 10  2  0
 10 11  1  0
 11 12  2  0
 11 13  1  0
 13 14  1  0
 14 15  2  0
 14 16  1  0
  8 17  1  0
 17 18  2  0
  2 19  1  0
 19 20  1  0
 20 21  2  0
 21 22  1  0
 22 23  2  0
 22 24  1  0
 24 25  1  0
 18  5  1  0
 25 19  2  0
 16  9  1  0
  4 26  1  0
  4 27  1  0
  6 28  1  0
  7 29  1  0
 10 30  1  0
 17 31  1  0
 18 32  1  0
 20 33  1  0
 21 34  1  0
 25 35  1  0
M  CHG  4   3  -1  13  -1  16  -1  24  -1
M  END
>  <UniqueID>  (11) 
9

>  <SMILES>  (11) 
O=C([N-]Cc1ccc(-c2cc(=O)[n-]c(=O)[n-]2)cc1)c1ccc(=O)[n-]c1

>  <Energy>  (11) 
46.424194036057294

>  <Genealogy>  (11) 
O=C([N-]Cc1ccc(-c2cc(=O)[n-]c(=O)[n-]2)cc1)c1ccc(=O)[n-]c1 (protonated)
O=C([N-]Cc1ccc(-c2cc(=O)[n-]c(=O)[n-]2)cc1)c1ccc(=O)[n-]c1 (3D coordinates assigned)
O=C([N-]Cc1ccc(-c2cc(=O)[n-]c(=O)[n-]2)cc1)c1ccc(=O)[n-]c1 (optimized conformer: 46.424194036057294 kcal/mol)

>  <smiles>  (11) 
O=C(NCc1ccc(-c2cc(=O)[nH]c(=O)[nH]2)cc1)c1ccc(=O)[nH]c1

>  <score_type>  (11) 
oracle

>  <origin>  (11) 
adg

>  <m_score__min__energy>  (11) 
-13.68

>  <m_primary>  (11) 
energy

$$$$
11:0
     RDKit          3D

 63 66  0  0  0  0  0  0  0  0999 V2000
   59.1874   34.0351   50.7060 H   0  0  0  0  0  0  0  0  0  0  0  0
   59.0800   33.0920   51.2620 C   0  0  0  0  0  0  0  0  0  0  0  0
   57.7320   32.7110   51.7170 C   0  0  0  0  0  0  0  0  0  0  0  0
   57.0570   33.5260   52.4010 O   0  0  0  0  0  0  0  0  0  0  0  0
   57.2170   31.4060   51.4330 N   0  0  0  0  0  0  0  0  0  0  0  0
   56.5630   30.3630   52.6480 S   0  0  0  0  0  0  0  0  0  0  0  0
   57.1020   30.7390   54.0000 O   0  0  0  0  0  0  0  0  0  0  0  0
   56.9720   28.9470   52.3530 O   0  0  0  0  0  0  0  0  0  0  0  0
   54.8080   30.4940   52.6280 C   0  0  0  0  0  0  0  0  0  0  0  0
   54.1440   30.9000   51.4620 C   0  0  0  0  0  0  0  0  0  0  0  0
   54.7180   31.1049   50.5463 H   0  0  0  0  0  0  0  0  0  0  0  0
   52.7530   31.0450   51.4610 C   0  0  0  0  0  0  0  0  0  0  0  0
   52.2348   31.3655   50.5452 H   0  0  0  0  0  0  0  0  0  0  0  0
   52.0200   30.7830   52.6230 C   0  0  0  0  0  0  0  0  0  0  0  0
   50.6710   30.9200   52.6190 F   0  0  0  0  0  0  0  0  0  0  0  0
   52.6800   30.3820   53.7890 C   0  0  0  0  0  0  0  0  0  0  0  0
   52.1042   30.1781   54.7038 H   0  0  0  0  0  0  0  0  0  0  0  0
   54.0710   30.2400   53.7930 C   0  0  0  0  0  0  0  0  0  0  0  0
   54.5881   29.9283   54.7124 H   0  0  0  0  0  0  0  0  0  0  0  0
   60.1840   32.3650   51.4810 C   0  0  0  0  0  0  0  0  0  0  0  0
   61.0928   32.8933   51.8049 H   0  0  0  0  0  0  0  0  0  0  0  0
   60.2580   30.8990   51.3150 C   0  0  0  0  0  0  0  0  0  0  0  0
   61.0650   30.2730   50.4290 N   0  0  0  0  0  0  0  0  0  0  0  0
   62.0870   30.8680   49.5700 C   0  0  0  0  0  0  0  0  0  0  0  0
   62.5577   30.0794   48.9646 H   0  0  0  0  0  0  0  0  0  0  0  0
   62.8444   31.3593   50.1984 H   0  0  0  0  0  0  0  0  0  0  0  0
   61.4640   31.8910   48.6580 C   0  0  0  0  0  0  0  0  0  0  0  0
   62.2010   33.0030   48.2200 C   0  0  0  0  0  0  0  0  0  0  0  0
   63.2410   33.1360   48.5526 H   0  0  0  0  0  0  0  0  0  0  0  0
   61.6190   33.9420   47.3630 C   0  0  0  0  0  0  0  0  0  0  0  0
   62.1990   34.8172   47.0349 H   0  0  0  0  0  0  0  0  0  0  0  0
   60.2970   33.7730   46.9190 C   0  0  0  0  0  0  0  0  0  0  0  0
   59.6470   34.8090   46.0410 C   0  0  0  0  0  0  0  0  0  0  0  0
   60.3803   35.5933   45.8020 H   0  0  0  0  0  0  0  0  0  0  0  0
   58.7899   35.2435   46.5763 H   0  0  0  0  0  0  0  0  0  0  0  0
   59.1480   34.1690   44.7380 C   0  0  0  0  0  0  0  0  0  0  0  0
   59.8466   33.3736   44.4391 H   0  0  0  0  0  0  0  0  0  0  0  0
   59.0944   34.9507   43.9659 H   0  0  0  0  0  0  0  0  0  0  0  0
   57.7810   33.5790   44.9090 C   0  0  0  0  0  0  0  0  0  0  0  0
   56.9280   34.1910   45.6050 O   0  0  0  0  0  0  0  0  0  0  0  0
   57.4330   32.3980   44.1680 N   0  0  0  0  0  0  0  0  0  0  0  0
   57.2780   31.1680   44.5790 C   0  0  0  0  0  0  0  0  0  0  0  0
   56.0410   30.6140   44.4690 N   0  0  0  0  0  0  0  0  0  0  0  0
   55.7680   29.3420   44.8660 C   0  0  0  0  0  0  0  0  0  0  0  0
   54.7485   28.9427   44.7607 H   0  0  0  0  0  0  0  0  0  0  0  0
   56.7800   28.5370   45.4090 C   0  0  0  0  0  0  0  0  0  0  0  0
   56.4910   27.1530   45.8440 C   0  0  0  0  0  0  0  0  0  0  0  0
   57.4300   26.3490   46.0880 O   0  0  0  0  0  0  0  0  0  0  0  0
   55.1770   26.7200   45.9890 O   0  0  0  0  0  0  0  0  0  0  0  0
   58.0710   29.0770   45.5170 C   0  0  0  0  0  0  0  0  0  0  0  0
   58.8859   28.4657   45.9319 H   0  0  0  0  0  0  0  0  0  0  0  0
   58.3280   30.3860   45.1010 C   0  0  0  0  0  0  0  0  0  0  0  0
   59.3427   30.8032   45.1804 H   0  0  0  0  0  0  0  0  0  0  0  0
   59.5630   32.6550   47.3510 C   0  0  0  0  0  0  0  0  0  0  0  0
   58.5268   32.5150   47.0094 H   0  0  0  0  0  0  0  0  0  0  0  0
   60.1440   31.7200   48.2130 C   0  0  0  0  0  0  0  0  0  0  0  0
   59.5637   30.8461   48.5440 H   0  0  0  0  0  0  0  0  0  0  0  0
   60.8230   28.9570   50.5860 C   0  0  0  0  0  0  0  0  0  0  0  0
   61.3198   28.1414   50.0402 H   0  0  0  0  0  0  0  0  0  0  0  0
   59.8460   28.8070   51.5480 C   0  0  0  0  0  0  0  0  0  0  0  0
   59.4250   27.8500   51.8899 H   0  0  0  0  0  0  0  0  0  0  0  0
   59.4930   30.0240   51.9990 N   0  0  0  0  0  0  0  0  0  0  0  0
   58.7670   30.2340   52.7220 H   0  0  0  0  0  0  0  0  0  0  0  0
  1  2  1  0
  2  3  1  0
  3  4  2  0
  3  5  1  0
  5  6  1  0
  6  7  2  0
  6  8  2  0
  6  9  1  0
  9 10  2  0
 10 11  1  0
 10 12  1  0
 12 13  1  0
 12 14  2  0
 14 15  1  0
 14 16  1  0
 16 17  1  0
 16 18  2  0
 18 19  1  0
  2 20  2  3
 20 21  1  0
 20 22  1  0
 22 23  1  0
 23 24  1  0
 24 25  1  0
 24 26  1  0
 24 27  1  0
 27 28  2  0
 28 29  1  0
 28 30  1  0
 30 31  1  0
 30 32  2  0
 32 33  1  0
 33 34  1  0
 33 35  1  0
 33 36  1  0
 36 37  1  0
 36 38  1  0
 36 39  1  0
 39 40  2  0
 39 41  1  0
 41 42  2  0
 42 43  1  0
 43 44  1  0
 44 45  1  0
 44 46  2  0
 46 47  1  0
 47 48  2  0
 47 49  1  0
 46 50  1  0
 50 51  1  0
 50 52  2  0
 52 53  1  0
 32 54  1  0
 54 55  1  0
 54 56  2  0
 56 57  1  0
 23 58  1  0
 58 59  1  0
 58 60  2  0
 60 61  1  0
 60 62  1  0
 62 63  1  0
 18  9  1  0
 62 22  2  0
 56 27  1  0
 52 42  1  0
M  CHG  4   5  -1  43  -1  49  -1  62   1
M  END
>  <UniqueID>  (12) 
10

>  <SMILES>  (12) 
O=C(CCc1ccc(Cn2cc[nH+]c2C=CC(=O)[N-]S(=O)(=O)c2ccc(F)cc2)cc1)/N=c1\ccc(C(=O)[O-])c[n-]1

>  <Energy>  (12) 
106.93518604319007

>  <Genealogy>  (12) 
O=C(CCc1ccc(Cn2cc[nH+]c2C=CC(=O)[N-]S(=O)(=O)c2ccc(F)cc2)cc1)N=c1ccc(C(=O)[O-])c[n-]1 (protonated)
O=C(CCc1ccc(Cn2cc[nH+]c2C=CC(=O)[N-]S(=O)(=O)c2ccc(F)cc2)cc1)/N=c1\ccc(C(=O)[O-])c[n-]1 (cis-trans isomerization)
O=C(CCc1ccc(Cn2cc[nH+]c2C=CC(=O)[N-]S(=O)(=O)c2ccc(F)cc2)cc1)/N=c1\ccc(C(=O)[O-])c[n-]1 (3D coordinates assigned)
O=C(CCc1ccc(Cn2cc[nH+]c2C=CC(=O)[N-]S(=O)(=O)c2ccc(F)cc2)cc1)/N=c1\ccc(C(=O)[O-])c[n-]1 (optimized conformer: 106.93518604319007 kcal/mol)

>  <smiles>  (12) 
O=C(CCc1ccc(Cn2ccnc2C=CC(=O)NS(=O)(=O)c2ccc(F)cc2)cc1)N=c1ccc(C(=O)O)c[nH]1

>  <score_type>  (12) 
oracle

>  <origin>  (12) 
adg

>  <m_score__min__energy>  (12) 
-15.66

>  <m_primary>  (12) 
energy

$$$$
12:0
     RDKit          3D

 43 45  0  0  0  0  0  0  0  0999 V2000
   61.0590   29.5840   45.8550 O   0  0  0  0  0  0  0  0  0  0  0  0
   59.8840   30.0500   45.9770 C   0  0  0  0  0  0  0  0  0  0  0  0
   58.8040   29.2310   45.4800 C   0  0  0  0  0  0  0  0  0  0  0  0
   57.9610   28.5110   46.3160 C   0  0  0  0  0  0  0  0  0  0  0  0
   57.0430   27.8400   45.5470 C   0  0  0  0  0  0  0  0  0  0  0  0
   56.1150   27.0850   45.9280 O   0  0  0  0  0  0  0  0  0  0  0  0
   57.3370   28.1580   44.2540 N   0  0  0  0  0  0  0  0  0  0  0  0
   58.3830   28.9830   44.2310 N   0  0  0  0  0  0  0  0  0  0  0  0
   59.7110   31.3240   46.5880 N   0  0  0  0  0  0  0  0  0  0  0  0
   60.1770   31.4750   47.9490 C   0  0  0  0  0  0  0  0  0  0  0  0
   61.3600   32.3180   48.1170 C   0  0  0  0  0  0  0  0  0  0  0  0
   62.5240   31.9170   47.4480 C   0  0  0  0  0  0  0  0  0  0  0  0
   63.6910   32.6500   47.5390 C   0  0  0  0  0  0  0  0  0  0  0  0
   63.7560   33.8080   48.2930 C   0  0  0  0  0  0  0  0  0  0  0  0
   62.6180   34.2160   48.9570 C   0  0  0  0  0  0  0  0  0  0  0  0
   61.4480   33.4610   48.8530 C   0  0  0  0  0  0  0  0  0  0  0  0
   60.3810   33.9030   49.5260 F   0  0  0  0  0  0  0  0  0  0  0  0
   59.1100   32.4580   45.9350 C   0  0  0  0  0  0  0  0  0  0  0  0
   57.9350   32.9990   46.7540 C   0  0  0  0  0  0  0  0  0  0  0  0
   57.0050   33.6640   45.7470 C   0  0  0  0  0  0  0  0  0  0  0  0
   57.8380   34.5860   44.8960 C   0  0  0  0  0  0  0  0  0  0  0  0
   59.1800   34.8520   45.4930 C   0  0  0  0  0  0  0  0  0  0  0  0
   60.0220   33.6070   45.6900 C   0  0  0  0  0  0  0  0  0  0  0  0
   58.0192   28.4829   47.4141 H   0  0  0  0  0  0  0  0  0  0  0  0
   56.8360   27.8200   43.4010 H   0  0  0  0  0  0  0  0  0  0  0  0
   58.8220   29.3860   43.3680 H   0  0  0  0  0  0  0  0  0  0  0  0
   59.3603   31.9145   48.5405 H   0  0  0  0  0  0  0  0  0  0  0  0
   60.4720   30.4689   48.2817 H   0  0  0  0  0  0  0  0  0  0  0  0
   62.5080   31.0012   46.8389 H   0  0  0  0  0  0  0  0  0  0  0  0
   64.5868   32.3061   47.0011 H   0  0  0  0  0  0  0  0  0  0  0  0
   64.6888   34.3870   48.3611 H   0  0  0  0  0  0  0  0  0  0  0  0
   62.6321   35.1321   49.5658 H   0  0  0  0  0  0  0  0  0  0  0  0
   58.7983   32.0571   44.9592 H   0  0  0  0  0  0  0  0  0  0  0  0
   57.4170   32.1778   47.2710 H   0  0  0  0  0  0  0  0  0  0  0  0
   58.2695   33.7059   47.5275 H   0  0  0  0  0  0  0  0  0  0  0  0
   56.5280   32.8999   45.1157 H   0  0  0  0  0  0  0  0  0  0  0  0
   56.2141   34.2263   46.2650 H   0  0  0  0  0  0  0  0  0  0  0  0
   57.9762   34.1254   43.9067 H   0  0  0  0  0  0  0  0  0  0  0  0
   57.3068   35.5464   44.8221 H   0  0  0  0  0  0  0  0  0  0  0  0
   59.7255   35.5374   44.8276 H   0  0  0  0  0  0  0  0  0  0  0  0
   59.0063   35.2813   46.4908 H   0  0  0  0  0  0  0  0  0  0  0  0
   60.6232   33.4185   44.7883 H   0  0  0  0  0  0  0  0  0  0  0  0
   60.7002   33.7406   46.5457 H   0  0  0  0  0  0  0  0  0  0  0  0
  1  2  2  0
  2  3  1  0
  3  4  2  0
  4  5  1  0
  5  6  2  0
  5  7  1  0
  7  8  1  0
  2  9  1  0
  9 10  1  0
 10 11  1  0
 11 12  2  0
 12 13  1  0
 13 14  2  0
 14 15  1  0
 15 16  2  0
 16 17  1  0
  9 18  1  0
 18 19  1  0
 19 20  1  0
 20 21  1  0
 21 22  1  0
 22 23  1  0
  8  3  1  0
 16 11  1  0
 23 18  1  0
  4 24  1  0
  7 25  1  0
  8 26  1  0
 10 27  1  0
 10 28  1  0
 12 29  1  0
 13 30  1  0
 14 31  1  0
 15 32  1  0
 18 33  1  0
 19 34  1  0
 19 35  1  0
 20 36  1  0
 20 37  1  0
 21 38  1  0
 21 39  1  0
 22 40  1  0
 22 41  1  0
 23 42  1  0
 23 43  1  0
M  END
>  <smiles>  (13) 
O=C(c1cc(=O)[nH][nH]1)N(Cc1ccccc1F)C1CCCCC1

>  <score_type>  (13) 
oracle

>  <origin>  (13) 
adg

>  <m_score__min__energy>  (13) 
-7.6799999999999997

>  <m_primary>  (13) 
energy

$$$$
13:0
     RDKit          3D

 50 53  0  0  0  0  0  0  0  0999 V2000
   55.7170   22.5860   43.3870 O   0  0  0  0  0  0  0  0  0  0  0  0
   55.9140   23.6180   44.0790 C   0  0  0  0  0  0  0  0  0  0  0  0
   55.1040   23.8990   45.2760 C   0  0  0  0  0  0  0  0  0  0  0  0
   53.9920   23.3220   45.4010 O   0  0  0  0  0  0  0  0  0  0  0  0
   55.5040   24.8480   46.2770 N   0  0  0  0  0  0  0  0  0  0  0  0
   56.1480   25.9570   46.0620 C   0  0  0  0  0  0  0  0  0  0  0  0
   55.5180   27.0810   45.6570 N   0  0  0  0  0  0  0  0  0  0  0  0
   56.5110   27.9850   45.6130 C   0  0  0  0  0  0  0  0  0  0  0  0
   56.3230   29.3130   45.2400 O   0  0  0  0  0  0  0  0  0  0  0  0
   57.6990   27.4030   45.9910 C   0  0  0  0  0  0  0  0  0  0  0  0
   59.0330   28.0880   46.0910 C   0  0  0  0  0  0  0  0  0  0  0  0
   58.8870   29.5810   46.1560 C   0  0  0  0  0  0  0  0  0  0  0  0
   59.0190   30.3780   45.0760 N   0  0  0  0  0  0  0  0  0  0  0  0
   58.9120   31.6280   45.5000 N   0  0  0  0  0  0  0  0  0  0  0  0
   58.7270   31.5750   46.8330 C   0  0  0  0  0  0  0  0  0  0  0  0
   58.5320   33.0390   47.8550 S   0  0  0  0  0  0  0  0  0  0  0  0
   59.8450   33.9890   47.0130 C   0  0  0  0  0  0  0  0  0  0  0  0
   61.1790   33.7650   47.6710 C   0  0  0  0  0  0  0  0  0  0  0  0
   61.4260   34.2700   48.9570 C   0  0  0  0  0  0  0  0  0  0  0  0
   62.6550   34.0390   49.5820 C   0  0  0  0  0  0  0  0  0  0  0  0
   63.6450   33.2970   48.9300 C   0  0  0  0  0  0  0  0  0  0  0  0
   65.1850   33.0060   49.7160 Cl  0  0  0  0  0  0  0  0  0  0  0  0
   63.4040   32.7850   47.6500 C   0  0  0  0  0  0  0  0  0  0  0  0
   62.1760   33.0170   47.0220 C   0  0  0  0  0  0  0  0  0  0  0  0
   58.7090   30.3040   47.2820 N   0  0  0  0  0  0  0  0  0  0  0  0
   58.5780   29.8320   48.6650 C   0  0  0  0  0  0  0  0  0  0  0  0
   59.7050   30.3570   49.5140 C   0  0  0  0  0  0  0  0  0  0  0  0
   59.4450   31.2370   50.5800 C   0  0  0  0  0  0  0  0  0  0  0  0
   60.4950   31.7050   51.3770 C   0  0  0  0  0  0  0  0  0  0  0  0
   61.8070   31.3040   51.1150 C   0  0  0  0  0  0  0  0  0  0  0  0
   62.0740   30.4390   50.0500 C   0  0  0  0  0  0  0  0  0  0  0  0
   61.0280   29.9680   49.2510 C   0  0  0  0  0  0  0  0  0  0  0  0
   57.4740   26.1090   46.2820 N   0  0  0  0  0  0  0  0  0  0  0  0
   56.7054   24.3229   43.7846 H   0  0  0  0  0  0  0  0  0  0  0  0
   57.1080   29.9140   45.0220 H   0  0  0  0  0  0  0  0  0  0  0  0
   59.5452   27.7400   47.0001 H   0  0  0  0  0  0  0  0  0  0  0  0
   59.6146   27.8391   45.1911 H   0  0  0  0  0  0  0  0  0  0  0  0
   59.9037   33.6682   45.9625 H   0  0  0  0  0  0  0  0  0  0  0  0
   59.5985   35.0592   47.0760 H   0  0  0  0  0  0  0  0  0  0  0  0
   60.6488   34.8504   49.4757 H   0  0  0  0  0  0  0  0  0  0  0  0
   62.8436   34.4415   50.5882 H   0  0  0  0  0  0  0  0  0  0  0  0
   64.1813   32.1994   47.1372 H   0  0  0  0  0  0  0  0  0  0  0  0
   61.9899   32.6124   46.0162 H   0  0  0  0  0  0  0  0  0  0  0  0
   57.6208   30.1834   49.0776 H   0  0  0  0  0  0  0  0  0  0  0  0
   58.6139   28.7326   48.6690 H   0  0  0  0  0  0  0  0  0  0  0  0
   58.4135   31.5580   50.7874 H   0  0  0  0  0  0  0  0  0  0  0  0
   60.2869   32.3903   52.2119 H   0  0  0  0  0  0  0  0  0  0  0  0
   62.6302   31.6689   51.7468 H   0  0  0  0  0  0  0  0  0  0  0  0
   63.1082   30.1285   49.8403 H   0  0  0  0  0  0  0  0  0  0  0  0
   61.2426   29.2894   48.4123 H   0  0  0  0  0  0  0  0  0  0  0  0
  1  2  2  0
  2  3  1  0
  3  4  2  0
  3  5  1  0
  5  6  2  3
  6  7  1  0
  7  8  1  0
  8  9  1  0
  8 10  2  0
 10 11  1  0
 11 12  1  0
 12 13  2  0
 13 14  1  0
 14 15  2  0
 15 16  1  0
 16 17  1  0
 17 18  1  0
 18 19  2  0
 19 20  1  0
 20 21  2  0
 21 22  1  0
 21 23  1  0
 23 24  2  0
 15 25  1  0
 25 26  1  0
 26 27  1  0
 27 28  2  0
 28 29  1  0
 29 30  2  0
 30 31  1  0
 31 32  2  0
 10 33  1  0
 33  6  1  0
 25 12  1  0
 32 27  1  0
 24 18  1  0
  2 34  1  0
  9 35  1  0
 11 36  1  0
 11 37  1  0
 17 38  1  0
 17 39  1  0
 19 40  1  0
 20 41  1  0
 23 42  1  0
 24 43  1  0
 26 44  1  0
 26 45  1  0
 28 46  1  0
 29 47  1  0
 30 48  1  0
 31 49  1  0
 32 50  1  0
M  CHG  2   7  -1  33  -1
M  END
>  <UniqueID>  (14) 
11

>  <SMILES>  (14) 
O=CC(=O)N=c1[n-]c(O)c(Cc2nnc(SCc3ccc(Cl)cc3)n2Cc2ccccc2)[n-]1

>  <Energy>  (14) 
110.66343541208906

>  <Genealogy>  (14) 
O=CC(=O)N=c1[n-]c(O)c(Cc2nnc(SCc3ccc(Cl)cc3)n2Cc2ccccc2)[n-]1 (protonated)
O=CC(=O)N=c1[n-]c(O)c(Cc2nnc(SCc3ccc(Cl)cc3)n2Cc2ccccc2)[n-]1 (3D coordinates assigned)
O=CC(=O)N=c1[n-]c(O)c(Cc2nnc(SCc3ccc(Cl)cc3)n2Cc2ccccc2)[n-]1 (optimized conformer: 110.66343541208906 kcal/mol)

>  <smiles>  (14) 
O=CC(=O)N=c1[nH]c(O)c(Cc2nnc(SCc3ccc(Cl)cc3)n2Cc2ccccc2)[nH]1

>  <score_type>  (14) 
oracle

>  <origin>  (14) 
adg

>  <m_score__min__energy>  (14) 
-13.970000000000001

>  <m_primary>  (14) 
energy

$$$$
14:0
     RDKit          3D

 36 38  0  0  0  0  0  0  0  0999 V2000
   58.9160   35.3240   47.1830 O   0  0  0  0  0  0  0  0  0  0  0  0
   58.8280   34.0850   47.3880 C   0  0  0  0  0  0  0  0  0  0  0  0
   58.4840   33.1590   46.2620 C   0  0  0  0  0  0  0  0  0  0  0  0
   59.5830   31.7120   46.3280 S   0  0  0  0  0  0  0  0  0  0  0  0
   59.0630   31.2180   47.9800 C   0  0  0  0  0  0  0  0  0  0  0  0
   58.8480   29.8650   48.2600 C   0  0  0  0  0  0  0  0  0  0  0  0
   58.5620   29.4550   49.5640 C   0  0  0  0  0  0  0  0  0  0  0  0
   58.4840   30.3960   50.5990 C   0  0  0  0  0  0  0  0  0  0  0  0
   58.1430   29.8640   52.2430 S   0  0  0  0  0  0  0  0  0  0  0  0
   58.2860   31.0080   53.2090 O   0  0  0  0  0  0  0  0  0  0  0  0
   59.1150   28.7810   52.6150 O   0  0  0  0  0  0  0  0  0  0  0  0
   56.5300   29.2430   52.3410 N   0  0  0  0  0  0  0  0  0  0  0  0
   55.3770   30.0680   52.1700 C   0  0  0  0  0  0  0  0  0  0  0  0
   55.4670   31.3210   52.2720 O   0  0  0  0  0  0  0  0  0  0  0  0
   54.0490   29.4360   51.9050 C   0  0  0  0  0  0  0  0  0  0  0  0
   52.9600   30.4670   52.0010 C   0  0  0  0  0  0  0  0  0  0  0  0
   52.4480   30.8410   53.2550 C   0  0  0  0  0  0  0  0  0  0  0  0
   51.4550   31.8210   53.3470 C   0  0  0  0  0  0  0  0  0  0  0  0
   50.9740   32.4440   52.1910 C   0  0  0  0  0  0  0  0  0  0  0  0
   49.9870   33.4190   52.2890 O   0  0  0  0  0  0  0  0  0  0  0  0
   51.4890   32.0870   50.9380 C   0  0  0  0  0  0  0  0  0  0  0  0
   51.0170   32.7040   49.7860 O   0  0  0  0  0  0  0  0  0  0  0  0
   52.4820   31.1040   50.8440 C   0  0  0  0  0  0  0  0  0  0  0  0
   58.6770   31.7560   50.3160 C   0  0  0  0  0  0  0  0  0  0  0  0
   58.9440   32.1740   49.0070 C   0  0  0  0  0  0  0  0  0  0  0  0
   58.9990   33.5730   48.7150 N   0  0  0  0  0  0  0  0  0  0  0  0
   57.4381   32.8324   46.3596 H   0  0  0  0  0  0  0  0  0  0  0  0
   58.6119   33.6790   45.3012 H   0  0  0  0  0  0  0  0  0  0  0  0
   58.9043   29.1217   47.4511 H   0  0  0  0  0  0  0  0  0  0  0  0
   58.3973   28.3889   49.7793 H   0  0  0  0  0  0  0  0  0  0  0  0
   54.0487   28.9989   50.8956 H   0  0  0  0  0  0  0  0  0  0  0  0
   53.8681   28.6496   52.6525 H   0  0  0  0  0  0  0  0  0  0  0  0
   52.8300   30.3608   54.1680 H   0  0  0  0  0  0  0  0  0  0  0  0
   51.0513   32.1026   54.3307 H   0  0  0  0  0  0  0  0  0  0  0  0
   52.8894   30.8295   49.8598 H   0  0  0  0  0  0  0  0  0  0  0  0
   58.6183   32.4976   51.1263 H   0  0  0  0  0  0  0  0  0  0  0  0
  1  2  2  0
  2  3  1  0
  3  4  1  0
  4  5  1  0
  5  6  2  0
  6  7  1  0
  7  8  2  0
  8  9  1  0
  9 10  2  0
  9 11  2  0
  9 12  1  0
 12 13  1  0
 13 14  2  0
 13 15  1  0
 15 16  1  0
 16 17  2  0
 17 18  1  0
 18 19  2  0
 19 20  1  0
 19 21  1  0
 21 22  1  0
 21 23  2  0
  8 24  1  0
 24 25  2  0
 25 26  1  0
 26  2  1  0
 25  5  1  0
 23 16  1  0
  3 27  1  0
  3 28  1  0
  6 29  1  0
  7 30  1  0
 15 31  1  0
 15 32  1  0
 17 33  1  0
 18 34  1  0
 23 35  1  0
 24 36  1  0
M  CHG  4  12  -1  20  -1  22  -1  26  -1
M  END
>  <UniqueID>  (15) 
12

>  <SMILES>  (15) 
O=C1CSc2ccc(S(=O)(=O)[N-]C(=O)Cc3ccc([O-])c([O-])c3)cc2[N-]1

>  <Energy>  (15) 
42.653385685201044

>  <Genealogy>  (15) 
O=C1CSc2ccc(S(=O)(=O)[N-]C(=O)Cc3ccc([O-])c([O-])c3)cc2[N-]1 (protonated)
O=C1CSc2ccc(S(=O)(=O)[N-]C(=O)Cc3ccc([O-])c([O-])c3)cc2[N-]1 (3D coordinates assigned)
O=C1CSc2ccc(S(=O)(=O)[N-]C(=O)Cc3ccc([O-])c([O-])c3)cc2[N-]1 (nonaromatic ring conformer: 42.653385685201044 kcal/mol)

>  <smiles>  (15) 
O=C1CSc2ccc(S(=O)(=O)NC(=O)Cc3ccc(O)c(O)c3)cc2N1

>  <score_type>  (15) 
oracle

>  <origin>  (15) 
adg

>  <m_score__min__energy>  (15) 
-18.530000000000001

>  <m_primary>  (15) 
energy

$$$$
15:0
     RDKit          3D

 37 39  0  0  0  0  0  0  0  0999 V2000
   59.8510   27.6130   45.9020 C   0  0  0  0  0  0  0  0  0  0  0  0
   58.9190   28.5720   45.7080 C   0  0  0  0  0  0  0  0  0  0  0  0
   59.2700   29.9310   45.8980 C   0  0  0  0  0  0  0  0  0  0  0  0
   60.4460   30.2510   46.2340 O   0  0  0  0  0  0  0  0  0  0  0  0
   58.2890   30.9240   45.7140 C   0  0  0  0  0  0  0  0  0  0  0  0
   58.5760   32.2340   45.8650 C   0  0  0  0  0  0  0  0  0  0  0  0
   59.0440   32.8440   47.1340 C   0  0  0  0  0  0  0  0  0  0  0  0
   58.7930   32.2290   48.3750 C   0  0  0  0  0  0  0  0  0  0  0  0
   59.2690   32.8000   49.5580 C   0  0  0  0  0  0  0  0  0  0  0  0
   60.0120   33.9820   49.5150 C   0  0  0  0  0  0  0  0  0  0  0  0
   60.2890   34.5890   48.2870 C   0  0  0  0  0  0  0  0  0  0  0  0
   59.8150   34.0230   47.0990 C   0  0  0  0  0  0  0  0  0  0  0  0
   60.1050   34.6430   45.8880 O   0  0  0  0  0  0  0  0  0  0  0  0
   57.0390   30.5450   45.3450 N   0  0  0  0  0  0  0  0  0  0  0  0
   56.7000   29.2470   45.1590 C   0  0  0  0  0  0  0  0  0  0  0  0
   55.5180   28.9700   44.8180 O   0  0  0  0  0  0  0  0  0  0  0  0
   57.6280   28.2540   45.3360 N   0  0  0  0  0  0  0  0  0  0  0  0
   57.2160   26.8900   45.1150 C   0  0  0  0  0  0  0  0  0  0  0  0
   57.7730   26.1480   44.0690 C   0  0  0  0  0  0  0  0  0  0  0  0
   57.3780   24.8260   43.8550 C   0  0  0  0  0  0  0  0  0  0  0  0
   56.4160   24.2200   44.6860 C   0  0  0  0  0  0  0  0  0  0  0  0
   56.0170   22.8130   44.4300 C   0  0  0  0  0  0  0  0  0  0  0  0
   56.0840   21.9430   45.3390 O   0  0  0  0  0  0  0  0  0  0  0  0
   55.5610   22.4310   43.1740 O   0  0  0  0  0  0  0  0  0  0  0  0
   55.8600   24.9750   45.7450 C   0  0  0  0  0  0  0  0  0  0  0  0
   54.9090   24.4270   46.5980 O   0  0  0  0  0  0  0  0  0  0  0  0
   56.2630   26.2980   45.9520 C   0  0  0  0  0  0  0  0  0  0  0  0
   59.5893   26.5544   45.7573 H   0  0  0  0  0  0  0  0  0  0  0  0
   60.8714   27.8909   46.2047 H   0  0  0  0  0  0  0  0  0  0  0  0
   58.4553   32.8915   44.9915 H   0  0  0  0  0  0  0  0  0  0  0  0
   58.2179   31.2921   48.4137 H   0  0  0  0  0  0  0  0  0  0  0  0
   59.0584   32.3182   50.5242 H   0  0  0  0  0  0  0  0  0  0  0  0
   60.3791   34.4351   50.4477 H   0  0  0  0  0  0  0  0  0  0  0  0
   60.8818   35.5150   48.2546 H   0  0  0  0  0  0  0  0  0  0  0  0
   58.5257   26.6078   43.4118 H   0  0  0  0  0  0  0  0  0  0  0  0
   57.8228   24.2519   43.0288 H   0  0  0  0  0  0  0  0  0  0  0  0
   55.8277   26.8780   46.7791 H   0  0  0  0  0  0  0  0  0  0  0  0
  1  2  2  0
  2  3  1  0
  3  4  2  0
  3  5  1  0
  5  6  2  3
  6  7  1  0
  7  8  2  0
  8  9  1  0
  9 10  2  0
 10 11  1  0
 11 12  2  0
 12 13  1  0
  5 14  1  0
 14 15  1  0
 15 16  2  0
 15 17  1  0
 17 18  1  0
 18 19  2  0
 19 20  1  0
 20 21  2  0
 21 22  1  0
 22 23  2  0
 22 24  1  0
 21 25  1  0
 25 26  1  0
 25 27  2  0
 17  2  1  0
 27 18  1  0
 12  7  1  0
  1 28  1  0
  1 29  1  0
  6 30  1  0
  8 31  1  0
  9 32  1  0
 10 33  1  0
 11 34  1  0
 19 35  1  0
 20 36  1  0
 27 37  1  0
M  CHG  4  13  -1  14  -1  24  -1  26  -1
M  END
>  <UniqueID>  (16) 
13

>  <SMILES>  (16) 
C=c1c(=O)c(=Cc2ccccc2[O-])[n-]c(=O)n1-c1ccc(C(=O)[O-])c([O-])c1

>  <Energy>  (16) 
66.9613545899914

>  <Genealogy>  (16) 
C=c1c(=O)c(=Cc2ccccc2[O-])[n-]c(=O)n1-c1ccc(C(=O)[O-])c([O-])c1 (protonated)
C=c1c(=O)c(=Cc2ccccc2[O-])[n-]c(=O)n1-c1ccc(C(=O)[O-])c([O-])c1 (3D coordinates assigned)
C=c1c(=O)c(=Cc2ccccc2[O-])[n-]c(=O)n1-c1ccc(C(=O)[O-])c([O-])c1 (optimized conformer: 66.9613545899914 kcal/mol)

>  <smiles>  (16) 
C=c1c(=O)c(=Cc2ccccc2O)[nH]c(=O)n1-c1ccc(C(=O)O)c(O)c1

>  <score_type>  (16) 
oracle

>  <origin>  (16) 
adg

>  <m_score__min__energy>  (16) 
-14

>  <m_primary>  (16) 
energy

$$$$
16:0
     RDKit          3D

 54 57  0  0  0  0  0  0  0  0999 V2000
   58.2266   26.7645   48.4809 H   0  0  0  0  0  0  0  0  0  0  0  0
   57.8360   26.2290   47.6030 C   0  0  0  0  0  0  0  0  0  0  0  0
   57.2741   25.2926   47.7351 H   0  0  0  0  0  0  0  0  0  0  0  0
   58.0450   26.7180   46.3710 C   0  0  0  0  0  0  0  0  0  0  0  0
   57.6190   26.1650   45.1520 C   0  0  0  0  0  0  0  0  0  0  0  0
   57.0630   24.9710   44.8640 C   0  0  0  0  0  0  0  0  0  0  0  0
   57.6712   24.2642   44.2804 H   0  0  0  0  0  0  0  0  0  0  0  0
   55.7170   24.5270   45.2590 C   0  0  0  0  0  0  0  0  0  0  0  0
   55.2160   23.2990   45.0240 N   0  0  0  0  0  0  0  0  0  0  0  0
   53.9220   23.4150   45.3960 C   0  0  0  0  0  0  0  0  0  0  0  0
   53.1110   22.4540   45.3370 O   0  0  0  0  0  0  0  0  0  0  0  0
   53.5610   24.6460   45.8200 N   0  0  0  0  0  0  0  0  0  0  0  0
   54.7070   25.3380   45.7110 C   0  0  0  0  0  0  0  0  0  0  0  0
   54.8220   26.6890   46.0120 O   0  0  0  0  0  0  0  0  0  0  0  0
   57.8960   27.1110   44.1790 C   0  0  0  0  0  0  0  0  0  0  0  0
   57.6608   27.0365   43.1070 H   0  0  0  0  0  0  0  0  0  0  0  0
   58.5230   28.1640   44.8110 C   0  0  0  0  0  0  0  0  0  0  0  0
   58.9920   29.4130   44.1270 C   0  0  0  0  0  0  0  0  0  0  0  0
   59.2730   30.1614   44.8826 H   0  0  0  0  0  0  0  0  0  0  0  0
   59.8644   29.1813   43.4983 H   0  0  0  0  0  0  0  0  0  0  0  0
   58.1827   29.8127   43.4983 H   0  0  0  0  0  0  0  0  0  0  0  0
   58.6210   27.9260   46.1370 N   0  0  0  0  0  0  0  0  0  0  0  0
   59.1350   28.8560   47.1070 C   0  0  0  0  0  0  0  0  0  0  0  0
   58.6350   30.1650   47.1600 C   0  0  0  0  0  0  0  0  0  0  0  0
   57.8766   30.4919   46.4334 H   0  0  0  0  0  0  0  0  0  0  0  0
   59.0970   31.0560   48.1330 C   0  0  0  0  0  0  0  0  0  0  0  0
   58.7015   32.0819   48.1671 H   0  0  0  0  0  0  0  0  0  0  0  0
   60.0630   30.6490   49.0670 C   0  0  0  0  0  0  0  0  0  0  0  0
   60.5520   31.6120   50.1130 C   0  0  0  0  0  0  0  0  0  0  0  0
   60.2278   31.2673   51.1060 H   0  0  0  0  0  0  0  0  0  0  0  0
   61.6503   31.6596   50.0759 H   0  0  0  0  0  0  0  0  0  0  0  0
   60.0030   32.9460   49.8590 N   0  0  0  0  0  0  0  0  0  0  0  0
   59.0350   32.8270   49.4770 H   0  0  0  0  0  0  0  0  0  0  0  0
   60.9340   33.7700   48.6380 S   0  0  0  0  0  0  0  0  0  0  0  0
   61.4210   32.7650   47.6330 O   0  0  0  0  0  0  0  0  0  0  0  0
   62.1240   34.4610   49.2440 O   0  0  0  0  0  0  0  0  0  0  0  0
   59.9170   34.9660   47.7900 C   0  0  0  0  0  0  0  0  0  0  0  0
   59.2340   35.4351   48.5135 H   0  0  0  0  0  0  0  0  0  0  0  0
   60.5720   35.7223   47.3328 H   0  0  0  0  0  0  0  0  0  0  0  0
   59.1100   34.3120   46.7050 C   0  0  0  0  0  0  0  0  0  0  0  0
   57.8650   33.7360   46.9990 C   0  0  0  0  0  0  0  0  0  0  0  0
   57.4608   33.7944   48.0204 H   0  0  0  0  0  0  0  0  0  0  0  0
   57.1370   33.0880   45.9970 C   0  0  0  0  0  0  0  0  0  0  0  0
   56.1602   32.6395   46.2308 H   0  0  0  0  0  0  0  0  0  0  0  0
   57.6480   33.0090   44.6990 C   0  0  0  0  0  0  0  0  0  0  0  0
   57.0737   32.4978   43.9124 H   0  0  0  0  0  0  0  0  0  0  0  0
   58.8860   33.5780   44.4000 C   0  0  0  0  0  0  0  0  0  0  0  0
   59.2870   33.5156   43.3776 H   0  0  0  0  0  0  0  0  0  0  0  0
   59.6170   34.2270   45.3980 C   0  0  0  0  0  0  0  0  0  0  0  0
   60.5936   34.6733   45.1592 H   0  0  0  0  0  0  0  0  0  0  0  0
   60.5720   29.3420   49.0030 C   0  0  0  0  0  0  0  0  0  0  0  0
   61.3421   29.0190   49.7189 H   0  0  0  0  0  0  0  0  0  0  0  0
   60.1050   28.4490   48.0340 C   0  0  0  0  0  0  0  0  0  0  0  0
   60.5001   27.4230   47.9987 H   0  0  0  0  0  0  0  0  0  0  0  0
  1  2  1  0
  2  3  1  0
  2  4  2  0
  4  5  1  0
  5  6  2  0
  6  7  1  0
  6  8  1  0
  8  9  1  0
  9 10  1  0
 10 11  2  0
 10 12  1  0
 12 13  1  0
 13 14  1  0
  5 15  1  0
 15 16  1  0
 15 17  2  0
 17 18  1  0
 18 19  1  0
 18 20  1  0
 18 21  1  0
 17 22  1  0
 22 23  1  0
 23 24  2  0
 24 25  1  0
 24 26  1  0
 26 27  1  0
 26 28  2  0
 28 29  1  0
 29 30  1  0
 29 31  1  0
 29 32  1  0
 32 33  1  0
 32 34  1  0
 34 35  2  0
 34 36  2  0
 34 37  1  0
 37 38  1  0
 37 39  1  0
 37 40  1  0
 40 41  2  0
 41 42  1  0
 41 43  1  0
 43 44  1  0
 43 45  2  0
 45 46  1  0
 45 47  1  0
 47 48  1  0
 47 49  2  0
 49 50  1  0
 28 51  1  0
 51 52  1  0
 51 53  2  0
 53 54  1  0
 22  4  1  0
 53 23  1  0
 13  8  2  0
 49 40  1  0
M  CHG  3   9  -1  12  -1  14  -1
M  END
>  <UniqueID>  (17) 
14

>  <SMILES>  (17) 
C=c1/c(=C\c2[n-]c(=O)[n-]c2[O-])cc(C)n1-c1ccc(CNS(=O)(=O)Cc2ccccc2)cc1

>  <Energy>  (17) 
124.6317703000548

>  <Genealogy>  (17) 
C=c1c(=Cc2[n-]c(=O)[n-]c2[O-])cc(C)n1-c1ccc(CNS(=O)(=O)Cc2ccccc2)cc1 (protonated)
C=c1/c(=C\c2[n-]c(=O)[n-]c2[O-])cc(C)n1-c1ccc(CNS(=O)(=O)Cc2ccccc2)cc1 (cis-trans isomerization)
C=c1/c(=C\c2[n-]c(=O)[n-]c2[O-])cc(C)n1-c1ccc(CNS(=O)(=O)Cc2ccccc2)cc1 (3D coordinates assigned)
C=c1/c(=C\c2[n-]c(=O)[n-]c2[O-])cc(C)n1-c1ccc(CNS(=O)(=O)Cc2ccccc2)cc1 (optimized conformer: 124.6317703000548 kcal/mol)

>  <smiles>  (17) 
C=c1c(=Cc2[nH]c(=O)[nH]c2O)cc(C)n1-c1ccc(CNS(=O)(=O)Cc2ccccc2)cc1

>  <score_type>  (17) 
oracle

>  <origin>  (17) 
adg

>  <m_score__min__energy>  (17) 
-16.530000000000001

>  <m_primary>  (17) 
energy

$$$$
17:0
     RDKit          3D

 62 66  0  0  1  0  0  0  0  0999 V2000
   54.5580   27.7760   53.8130 C   0  0  0  0  0  0  0  0  0  0  0  0
   54.0500   28.7890   53.1130 C   0  0  0  0  0  0  0  0  0  0  0  0
   54.8550   29.8320   52.5230 C   0  0  0  0  0  0  0  0  0  0  0  0
   54.3710   30.9380   52.1080 O   0  0  0  0  0  0  0  0  0  0  0  0
   56.2710   29.6960   52.3610 N   0  0  0  0  0  0  0  0  0  0  0  0
   56.9780   30.6710   51.8510 C   0  0  0  0  0  0  0  0  0  0  0  0
   56.6870   31.9760   51.9910 N   0  0  0  0  0  0  0  0  0  0  0  0
   57.6070   32.7070   51.3460 N   0  0  0  0  0  0  0  0  0  0  0  0
   58.5140   31.8780   50.7750 C   0  0  0  0  0  0  0  0  0  0  0  0
   58.1170   30.6080   51.0930 C   0  0  0  0  0  0  0  0  0  0  0  0
   59.1010   29.6630   50.4700 C   0  0  0  0  0  0  0  0  0  0  0  0
   59.8890   30.4940   49.5810 N   0  0  0  0  0  0  0  0  0  0  0  0
   60.7340   30.1320   48.4950 C   0  0  0  0  0  0  0  0  0  0  0  0
   61.9650   30.4760   48.6060 O   0  0  0  0  0  0  0  0  0  0  0  0
   60.3830   29.4480   47.3270 N   0  0  0  0  0  0  0  0  0  0  0  0
   60.4240   30.0550   45.9840 C   0  0  0  0  0  0  0  0  0  0  0  0
   59.6140   29.2790   44.9790 C   0  0  0  0  0  0  0  0  0  0  0  0
   58.4830   28.6280   45.4730 N   0  0  0  0  0  0  0  0  0  0  0  0
   57.3780   28.3770   44.6500 C   0  0  0  0  0  0  0  0  0  0  0  0
   56.4180   29.5130   44.4880 C   0  0  0  0  0  0  0  0  0  0  0  0
   56.9530   30.8960   44.1950 C   0  0  0  0  0  0  0  0  0  0  0  0
   56.2810   30.1080   43.1250 C   0  0  0  0  0  0  0  0  0  0  0  0
   58.5120   28.1360   46.7910 C   0  0  0  0  0  0  0  0  0  0  0  0
   59.9460   28.0560   47.3180 C   0  0  2  0  0  0  0  0  0  0  0  0
   60.0360   27.3160   48.5870 C   0  0  0  0  0  0  0  0  0  0  0  0
   59.7250   31.8940   49.9690 C   0  0  1  0  0  0  0  0  0  0  0  0
   59.5120   32.7610   48.7870 C   0  0  0  0  0  0  0  0  0  0  0  0
   60.3050   33.8530   48.5030 C   0  0  0  0  0  0  0  0  0  0  0  0
   60.0010   34.5860   47.3650 C   0  0  0  0  0  0  0  0  0  0  0  0
   58.9460   34.2460   46.5330 C   0  0  0  0  0  0  0  0  0  0  0  0
   58.6880   34.9970   45.4240 F   0  0  0  0  0  0  0  0  0  0  0  0
   58.1470   33.1470   46.8180 C   0  0  0  0  0  0  0  0  0  0  0  0
   58.4540   32.4220   47.9510 C   0  0  0  0  0  0  0  0  0  0  0  0
   53.8907   27.0116   54.2378 H   0  0  0  0  0  0  0  0  0  0  0  0
   55.6449   27.7038   53.9663 H   0  0  0  0  0  0  0  0  0  0  0  0
   52.9593   28.8331   52.9773 H   0  0  0  0  0  0  0  0  0  0  0  0
   55.9010   32.4430   52.4970 H   0  0  0  0  0  0  0  0  0  0  0  0
   57.6330   33.7660   51.2850 H   0  0  0  0  0  0  0  0  0  0  0  0
   59.7387   29.2027   51.2391 H   0  0  0  0  0  0  0  0  0  0  0  0
   58.6078   28.8344   49.9407 H   0  0  0  0  0  0  0  0  0  0  0  0
   60.0241   31.0778   46.0461 H   0  0  0  0  0  0  0  0  0  0  0  0
   61.4708   30.0517   45.6459 H   0  0  0  0  0  0  0  0  0  0  0  0
   59.2838   29.9812   44.1993 H   0  0  0  0  0  0  0  0  0  0  0  0
   60.2790   28.4814   44.6162 H   0  0  0  0  0  0  0  0  0  0  0  0
   57.7542   28.1076   43.6521 H   0  0  0  0  0  0  0  0  0  0  0  0
   56.8117   27.5744   45.1451 H   0  0  0  0  0  0  0  0  0  0  0  0
   55.7352   29.0945   45.2420 H   0  0  0  0  0  0  0  0  0  0  0  0
   56.4571   31.7803   44.6218 H   0  0  0  0  0  0  0  0  0  0  0  0
   57.9284   31.3932   44.3012 H   0  0  0  0  0  0  0  0  0  0  0  0
   55.2903   30.4154   42.7589 H   0  0  0  0  0  0  0  0  0  0  0  0
   56.5604   29.7874   42.1105 H   0  0  0  0  0  0  0  0  0  0  0  0
   57.9285   28.8075   47.4380 H   0  0  0  0  0  0  0  0  0  0  0  0
   58.0813   27.1238   46.7955 H   0  0  0  0  0  0  0  0  0  0  0  0
   60.6298   27.4589   46.6968 H   0  0  0  0  0  0  0  0  0  0  0  0
   59.9505   28.0193   49.4284 H   0  0  0  0  0  0  0  0  0  0  0  0
   59.2208   26.5794   48.6405 H   0  0  0  0  0  0  0  0  0  0  0  0
   61.0040   26.7962   48.6405 H   0  0  0  0  0  0  0  0  0  0  0  0
   60.6102   32.2867   50.4908 H   0  0  0  0  0  0  0  0  0  0  0  0
   61.1466   34.1322   49.1540 H   0  0  0  0  0  0  0  0  0  0  0  0
   60.6158   35.4634   47.1156 H   0  0  0  0  0  0  0  0  0  0  0  0
   57.3050   32.8662   46.1682 H   0  0  0  0  0  0  0  0  0  0  0  0
   57.8399   31.5445   48.2018 H   0  0  0  0  0  0  0  0  0  0  0  0
  1  2  2  0
  2  3  1  0
  3  4  2  0
  3  5  1  0
  5  6  2  0
  6  7  1  0
  7  8  1  0
  8  9  1  0
  9 10  2  0
 10 11  1  0
 11 12  1  0
 12 13  1  0
 13 14  2  0
 13 15  1  0
 15 16  1  0
 16 17  1  0
 17 18  1  0
 18 19  1  0
 19 20  1  0
 20 21  1  0
 21 22  1  0
 18 23  1  0
 23 24  1  0
 24 25  1  0
 12 26  1  0
 26 27  1  0
 27 28  2  0
 28 29  1  0
 29 30  2  0
 30 31  1  0
 30 32  1  0
 32 33  2  0
 10  6  1  0
 24 15  1  0
 33 27  1  0
 26  9  1  0
 22 20  1  0
  1 34  1  0
  1 35  1  0
  2 36  1  0
  7 37  1  0
  8 38  1  0
 11 39  1  0
 11 40  1  0
 16 41  1  0
 16 42  1  0
 17 43  1  0
 17 44  1  0
 19 45  1  0
 19 46  1  0
 20 47  1  0
 21 48  1  0
 21 49  1  0
 22 50  1  0
 22 51  1  0
 23 52  1  0
 23 53  1  0
 24 54  1  6
 25 55  1  0
 25 56  1  0
 25 57  1  0
 26 58  1  1
 28 59  1  0
 29 60  1  0
 32 61  1  0
 33 62  1  0
M  END
>  <smiles>  (18) 
C=CC(=O)N=c1[nH][nH]c2c1CN(C(=O)N1CCN(CC3CC3)CC1C)C2c1ccc(F)cc1

>  <score_type>  (18) 
oracle

>  <origin>  (18) 
adg

>  <m_score__min__energy>  (18) 
-9.3699999999999992

>  <m_primary>  (18) 
energy

$$$$
18:0
     RDKit          3D

 36 38  0  0  0  0  0  0  0  0999 V2000
   58.0000   21.0540   46.6420 N   0  0  0  0  0  0  0  0  0  0  0  0
   58.2950   22.2570   45.9340 C   0  0  0  0  0  0  0  0  0  0  0  0
   59.3750   22.3510   45.2930 O   0  0  0  0  0  0  0  0  0  0  0  0
   57.3170   23.3700   45.9050 C   0  0  0  0  0  0  0  0  0  0  0  0
   55.9550   23.0800   45.6900 C   0  0  0  0  0  0  0  0  0  0  0  0
   55.5850   21.8880   45.4930 O   0  0  0  0  0  0  0  0  0  0  0  0
   55.0210   24.0720   45.7100 N   0  0  0  0  0  0  0  0  0  0  0  0
   53.6960   23.7560   45.5040 O   0  0  0  0  0  0  0  0  0  0  0  0
   55.3600   25.3690   45.9410 C   0  0  0  0  0  0  0  0  0  0  0  0
   54.3630   26.3410   45.9640 O   0  0  0  0  0  0  0  0  0  0  0  0
   56.7030   25.7260   46.1460 C   0  0  0  0  0  0  0  0  0  0  0  0
   57.0680   27.0670   46.3640 C   0  0  0  0  0  0  0  0  0  0  0  0
   58.4090   27.4330   46.5300 C   0  0  0  0  0  0  0  0  0  0  0  0
   58.7390   28.8200   46.7420 N   0  0  0  0  0  0  0  0  0  0  0  0
   60.0890   29.3770   46.6370 C   0  0  0  0  0  0  0  0  0  0  0  0
   60.0550   30.8860   46.6910 C   0  0  0  0  0  0  0  0  0  0  0  0
   61.2080   31.5880   47.0830 C   0  0  0  0  0  0  0  0  0  0  0  0
   61.2050   32.9850   47.1360 C   0  0  0  0  0  0  0  0  0  0  0  0
   62.6460   33.8470   47.6420 Cl  0  0  0  0  0  0  0  0  0  0  0  0
   60.0540   33.6950   46.7830 C   0  0  0  0  0  0  0  0  0  0  0  0
   58.9060   33.0110   46.3720 C   0  0  0  0  0  0  0  0  0  0  0  0
   57.4740   33.9250   45.9230 Cl  0  0  0  0  0  0  0  0  0  0  0  0
   58.9040   31.6100   46.3170 C   0  0  0  0  0  0  0  0  0  0  0  0
   57.7570   30.9440   45.8900 O   0  0  0  0  0  0  0  0  0  0  0  0
   59.3970   26.4370   46.4730 C   0  0  0  0  0  0  0  0  0  0  0  0
   59.0510   25.1020   46.2600 C   0  0  0  0  0  0  0  0  0  0  0  0
   57.7000   24.7200   46.1150 C   0  0  0  0  0  0  0  0  0  0  0  0
   57.0260   20.6820   46.6840 H   0  0  0  0  0  0  0  0  0  0  0  0
   56.2870   27.8406   46.4047 H   0  0  0  0  0  0  0  0  0  0  0  0
   57.9630   29.4910   46.9460 H   0  0  0  0  0  0  0  0  0  0  0  0
   60.6998   29.0004   47.4707 H   0  0  0  0  0  0  0  0  0  0  0  0
   60.5222   29.0694   45.6738 H   0  0  0  0  0  0  0  0  0  0  0  0
   62.1198   31.0338   47.3502 H   0  0  0  0  0  0  0  0  0  0  0  0
   60.0514   34.7940   46.8286 H   0  0  0  0  0  0  0  0  0  0  0  0
   60.4548   26.7119   46.5975 H   0  0  0  0  0  0  0  0  0  0  0  0
   59.8406   24.3382   46.2044 H   0  0  0  0  0  0  0  0  0  0  0  0
  1  2  1  0
  2  3  2  0
  2  4  1  0
  4  5  1  0
  5  6  2  0
  5  7  1  0
  7  8  1  0
  7  9  1  0
  9 10  1  0
  9 11  2  0
 11 12  1  0
 12 13  2  0
 13 14  1  0
 14 15  1  0
 15 16  1  0
 16 17  2  0
 17 18  1  0
 18 19  1  0
 18 20  2  0
 20 21  1  0
 21 22  1  0
 21 23  2  0
 23 24  1  0
 13 25  1  0
 25 26  2  0
 26 27  1  0
 27  4  2  0
 27 11  1  0
 23 16  1  0
  1 28  1  0
 12 29  1  0
 14 30  1  0
 15 31  1  0
 15 32  1  0
 17 33  1  0
 20 34  1  0
 25 35  1  0
 26 36  1  0
M  CHG  4   1  -1   8  -1  10  -1  24  -1
M  END
>  <UniqueID>  (19) 
15

>  <SMILES>  (19) 
[NH-]C(=O)c1c(=O)n([O-])c([O-])c2cc(NCc3cc(Cl)cc(Cl)c3[O-])ccc12

>  <Energy>  (19) 
53.35247806666903

>  <Genealogy>  (19) 
[NH-]C(=O)c1c(=O)n([O-])c([O-])c2cc(NCc3cc(Cl)cc(Cl)c3[O-])ccc12 (protonated)
[NH-]C(=O)c1c(=O)n([O-])c([O-])c2cc(NCc3cc(Cl)cc(Cl)c3[O-])ccc12 (3D coordinates assigned)
[NH-]C(=O)c1c(=O)n([O-])c([O-])c2cc(NCc3cc(Cl)cc(Cl)c3[O-])ccc12 (optimized conformer: 53.35247806666903 kcal/mol)

>  <smiles>  (19) 
NC(=O)c1c(=O)n(O)c(O)c2cc(NCc3cc(Cl)cc(Cl)c3O)ccc12

>  <score_type>  (19) 
oracle

>  <origin>  (19) 
adg

>  <m_score__min__energy>  (19) 
-16.719999999999999

>  <m_primary>  (19) 
energy

$$$$
19:0
     RDKit          3D

 37 39  0  0  0  0  0  0  0  0999 V2000
   58.3210   34.5410   44.8840 C   0  0  0  0  0  0  0  0  0  0  0  0
   57.4600   33.7840   45.5600 C   0  0  0  0  0  0  0  0  0  0  0  0
   57.8250   32.4820   46.1450 C   0  0  0  0  0  0  0  0  0  0  0  0
   57.3640   31.3190   45.6500 N   0  0  0  0  0  0  0  0  0  0  0  0
   57.8680   30.3630   46.3750 O   0  0  0  0  0  0  0  0  0  0  0  0
   58.6320   30.8320   47.3350 C   0  0  0  0  0  0  0  0  0  0  0  0
   59.3580   29.9890   48.3120 C   0  0  0  0  0  0  0  0  0  0  0  0
   60.3600   29.3280   47.9350 O   0  0  0  0  0  0  0  0  0  0  0  0
   58.9540   29.8850   49.6850 N   0  0  0  0  0  0  0  0  0  0  0  0
   58.4620   30.9810   50.5070 C   0  0  0  0  0  0  0  0  0  0  0  0
   57.2570   30.5300   51.2650 C   0  0  0  0  0  0  0  0  0  0  0  0
   56.1030   31.2280   51.2920 N   0  0  0  0  0  0  0  0  0  0  0  0
   55.2910   30.4850   52.0680 C   0  0  0  0  0  0  0  0  0  0  0  0
   53.8910   30.8580   52.3850 C   0  0  0  0  0  0  0  0  0  0  0  0
   53.3200   30.4590   53.6080 C   0  0  0  0  0  0  0  0  0  0  0  0
   52.0030   30.8050   53.9260 C   0  0  0  0  0  0  0  0  0  0  0  0
   51.2400   31.5500   53.0260 C   0  0  0  0  0  0  0  0  0  0  0  0
   51.7900   31.9500   51.8060 C   0  0  0  0  0  0  0  0  0  0  0  0
   51.0280   32.6910   50.9110 O   0  0  0  0  0  0  0  0  0  0  0  0
   53.1080   31.6070   51.4840 C   0  0  0  0  0  0  0  0  0  0  0  0
   55.9740   29.3590   52.4840 C   0  0  0  0  0  0  0  0  0  0  0  0
   57.2180   29.3850   51.9760 N   0  0  0  0  0  0  0  0  0  0  0  0
   58.6270   32.2180   47.2480 C   0  0  0  0  0  0  0  0  0  0  0  0
   59.2840   33.1980   48.1760 C   0  0  0  0  0  0  0  0  0  0  0  0
   57.9959   35.5058   44.4676 H   0  0  0  0  0  0  0  0  0  0  0  0
   59.3577   34.2018   44.7417 H   0  0  0  0  0  0  0  0  0  0  0  0
   56.4294   34.1468   45.6877 H   0  0  0  0  0  0  0  0  0  0  0  0
   59.2459   31.2901   51.2140 H   0  0  0  0  0  0  0  0  0  0  0  0
   58.1941   31.8317   49.8632 H   0  0  0  0  0  0  0  0  0  0  0  0
   53.9155   29.8693   54.3205 H   0  0  0  0  0  0  0  0  0  0  0  0
   51.5683   30.4898   54.8860 H   0  0  0  0  0  0  0  0  0  0  0  0
   50.2044   31.8225   53.2776 H   0  0  0  0  0  0  0  0  0  0  0  0
   53.5356   31.9241   50.5214 H   0  0  0  0  0  0  0  0  0  0  0  0
   55.5649   28.5670   53.1285 H   0  0  0  0  0  0  0  0  0  0  0  0
   59.0875   32.9048   49.2178 H   0  0  0  0  0  0  0  0  0  0  0  0
   60.3690   33.2035   47.9951 H   0  0  0  0  0  0  0  0  0  0  0  0
   58.8770   34.2038   47.9951 H   0  0  0  0  0  0  0  0  0  0  0  0
  1  2  2  0
  2  3  1  0
  3  4  2  0
  4  5  1  0
  5  6  1  0
  6  7  1  0
  7  8  2  0
  7  9  1  0
  9 10  1  0
 10 11  1  0
 11 12  2  0
 12 13  1  0
 13 14  1  0
 14 15  2  0
 15 16  1  0
 16 17  2  0
 17 18  1  0
 18 19  1  0
 18 20  2  0
 13 21  2  0
 21 22  1  0
  6 23  2  0
 23 24  1  0
 23  3  1  0
 22 11  1  0
 20 14  1  0
  1 25  1  0
  1 26  1  0
  2 27  1  0
 10 28  1  0
 10 29  1  0
 15 30  1  0
 16 31  1  0
 17 32  1  0
 20 33  1  0
 21 34  1  0
 24 35  1  0
 24 36  1  0
 24 37  1  0
M  CHG  3   9  -1  19  -1  22  -1
M  END
>  <UniqueID>  (20) 
16

>  <SMILES>  (20) 
C=Cc1noc(C(=O)[N-]Cc2nc(-c3cccc([O-])c3)c[n-]2)c1C

>  <Energy>  (20) 
99.6329433737402

>  <Genealogy>  (20) 
C=Cc1noc(C(=O)[N-]Cc2nc(-c3cccc([O-])c3)c[n-]2)c1C (protonated)
C=Cc1noc(C(=O)[N-]Cc2nc(-c3cccc([O-])c3)c[n-]2)c1C (3D coordinates assigned)
C=Cc1noc(C(=O)[N-]Cc2nc(-c3cccc([O-])c3)c[n-]2)c1C (optimized conformer: 99.6329433737402 kcal/mol)

>  <smiles>  (20) 
C=Cc1noc(C(=O)NCc2nc(-c3cccc(O)c3)c[nH]2)c1C

>  <score_type>  (20) 
oracle

>  <origin>  (20) 
adg

>  <m_score__min__energy>  (20) 
-13.949999999999999

>  <m_primary>  (20) 
energy

$$$$
20:0
     RDKit          3D

 42 44  0  0  0  0  0  0  0  0999 V2000
   60.0150   28.4990   46.1260 C   0  0  0  0  0  0  0  0  0  0  0  0
   58.9390   29.1650   45.6820 C   0  0  0  0  0  0  0  0  0  0  0  0
   57.7480   28.6350   45.1640 C   0  0  0  0  0  0  0  0  0  0  0  0
   57.3970   27.3690   44.8530 C   0  0  0  0  0  0  0  0  0  0  0  0
   57.2480   26.2610   45.8150 C   0  0  0  0  0  0  0  0  0  0  0  0
   55.9880   25.9480   46.3430 C   0  0  0  0  0  0  0  0  0  0  0  0
   54.8720   26.7070   46.0110 O   0  0  0  0  0  0  0  0  0  0  0  0
   55.8520   24.9000   47.1970 N   0  0  0  0  0  0  0  0  0  0  0  0
   56.9180   24.1320   47.5390 C   0  0  0  0  0  0  0  0  0  0  0  0
   56.7690   23.1690   48.3350 O   0  0  0  0  0  0  0  0  0  0  0  0
   58.1440   24.3990   47.0200 N   0  0  0  0  0  0  0  0  0  0  0  0
   58.3320   25.4340   46.1620 C   0  0  0  0  0  0  0  0  0  0  0  0
   59.4780   25.6410   45.6820 O   0  0  0  0  0  0  0  0  0  0  0  0
   56.9250   29.7460   45.0080 C   0  0  0  0  0  0  0  0  0  0  0  0
   55.5220   29.7600   44.4890 C   0  0  0  0  0  0  0  0  0  0  0  0
   57.5850   30.8620   45.3660 N   0  0  0  0  0  0  0  0  0  0  0  0
   58.7990   30.5140   45.7600 N   0  0  0  0  0  0  0  0  0  0  0  0
   59.7570   31.4900   46.2870 C   0  0  0  0  0  0  0  0  0  0  0  0
   59.4100   31.8550   47.7050 C   0  0  0  0  0  0  0  0  0  0  0  0
   59.5980   33.1660   48.1750 C   0  0  0  0  0  0  0  0  0  0  0  0
   59.2800   33.4940   49.4960 C   0  0  0  0  0  0  0  0  0  0  0  0
   58.7720   32.5180   50.3630 C   0  0  0  0  0  0  0  0  0  0  0  0
   58.3580   32.9370   52.0230 S   0  0  0  0  0  0  0  0  0  0  0  0
   56.7340   32.4470   52.3570 N   0  0  0  0  0  0  0  0  0  0  0  0
   58.4840   34.4220   52.2190 O   0  0  0  0  0  0  0  0  0  0  0  0
   59.2960   32.2460   52.9720 O   0  0  0  0  0  0  0  0  0  0  0  0
   58.5680   31.2140   49.8940 C   0  0  0  0  0  0  0  0  0  0  0  0
   58.8860   30.8830   48.5740 C   0  0  0  0  0  0  0  0  0  0  0  0
   60.8854   29.0525   46.5081 H   0  0  0  0  0  0  0  0  0  0  0  0
   60.0271   27.3992   46.1081 H   0  0  0  0  0  0  0  0  0  0  0  0
   57.2061   27.1450   43.7931 H   0  0  0  0  0  0  0  0  0  0  0  0
   54.8183   29.7670   45.3345 H   0  0  0  0  0  0  0  0  0  0  0  0
   55.3670   30.6597   43.8755 H   0  0  0  0  0  0  0  0  0  0  0  0
   55.3490   28.8635   43.8755 H   0  0  0  0  0  0  0  0  0  0  0  0
   60.7674   31.0558   46.2617 H   0  0  0  0  0  0  0  0  0  0  0  0
   59.7190   32.3973   45.6662 H   0  0  0  0  0  0  0  0  0  0  0  0
   59.9972   33.9376   47.5002 H   0  0  0  0  0  0  0  0  0  0  0  0
   59.4292   34.5226   49.8562 H   0  0  0  0  0  0  0  0  0  0  0  0
   56.2450   32.3690   51.4380 H   0  0  0  0  0  0  0  0  0  0  0  0
   56.7830   31.4840   52.7570 H   0  0  0  0  0  0  0  0  0  0  0  0
   58.1560   30.4477   50.5671 H   0  0  0  0  0  0  0  0  0  0  0  0
   58.7253   29.8563   48.2134 H   0  0  0  0  0  0  0  0  0  0  0  0
  1  2  2  0
  2  3  1  0
  3  4  2  3
  4  5  1  0
  5  6  2  0
  6  7  1  0
  6  8  1  0
  8  9  1  0
  9 10  2  0
  9 11  1  0
 11 12  1  0
 12 13  2  0
  3 14  1  0
 14 15  1  0
 14 16  2  0
 16 17  1  0
 17 18  1  0
 18 19  1  0
 19 20  2  0
 20 21  1  0
 21 22  2  0
 22 23  1  0
 23 24  1  0
 23 25  2  0
 23 26  2  0
 22 27  1  0
 27 28  2  0
 17  2  1  0
 28 19  1  0
 12  5  1  0
  1 29  1  0
  1 30  1  0
  4 31  1  0
 15 32  1  0
 15 33  1  0
 15 34  1  0
 18 35  1  0
 18 36  1  0
 20 37  1  0
 21 38  1  0
 24 39  1  0
 24 40  1  0
 27 41  1  0
 28 42  1  0
M  CHG  3   7  -1   8  -1  11  -1
M  END
>  <UniqueID>  (21) 
17

>  <SMILES>  (21) 
C=c1c(=Cc2c([O-])[n-]c(=O)[n-]c2=O)c(C)nn1Cc1ccc(S(N)(=O)=O)cc1

>  <Energy>  (21) 
88.2513241250533

>  <Genealogy>  (21) 
C=c1c(=Cc2c([O-])[n-]c(=O)[n-]c2=O)c(C)nn1Cc1ccc(S(N)(=O)=O)cc1 (protonated)
C=c1c(=Cc2c([O-])[n-]c(=O)[n-]c2=O)c(C)nn1Cc1ccc(S(N)(=O)=O)cc1 (3D coordinates assigned)
C=c1c(=Cc2c([O-])[n-]c(=O)[n-]c2=O)c(C)nn1Cc1ccc(S(N)(=O)=O)cc1 (optimized conformer: 88.2513241250533 kcal/mol)

>  <smiles>  (21) 
C=c1c(=Cc2c(O)[nH]c(=O)[nH]c2=O)c(C)nn1Cc1ccc(S(N)(=O)=O)cc1

>  <score_type>  (21) 
oracle

>  <origin>  (21) 
adg

>  <m_score__min__energy>  (21) 
-16.16

>  <m_primary>  (21) 
energy

$$$$
21:0
     RDKit          3D

 31 32  0  0  0  0  0  0  0  0999 V2000
   55.5330   29.7260   45.9400 H   0  0  0  0  0  0  0  0  0  0  0  0
   55.6430   28.9930   45.2500 O   0  0  0  0  0  0  0  0  0  0  0  0
   56.2600   27.7880   45.5780 C   0  0  0  0  0  0  0  0  0  0  0  0
   55.5040   26.7360   45.9910 N   0  0  0  0  0  0  0  0  0  0  0  0
   56.0720   25.5410   46.2940 C   0  0  0  0  0  0  0  0  0  0  0  0
   55.3530   24.5840   46.6790 O   0  0  0  0  0  0  0  0  0  0  0  0
   57.4140   25.3770   46.1760 N   0  0  0  0  0  0  0  0  0  0  0  0
   58.2140   26.3950   45.7690 C   0  0  0  0  0  0  0  0  0  0  0  0
   59.4540   26.2050   45.6610 O   0  0  0  0  0  0  0  0  0  0  0  0
   57.6550   27.6520   45.4820 C   0  0  0  0  0  0  0  0  0  0  0  0
   58.5010   28.7580   44.9790 C   0  0  0  0  0  0  0  0  0  0  0  0
   59.3914   28.4804   44.3958 H   0  0  0  0  0  0  0  0  0  0  0  0
   58.2770   30.0930   45.1730 C   0  0  0  0  0  0  0  0  0  0  0  0
   57.7080   30.9170   44.1460 C   0  0  0  0  0  0  0  0  0  0  0  0
   56.9160   30.3750   42.9760 C   0  0  0  0  0  0  0  0  0  0  0  0
   56.0624   29.7908   43.3502 H   0  0  0  0  0  0  0  0  0  0  0  0
   56.5477   31.2113   42.3636 H   0  0  0  0  0  0  0  0  0  0  0  0
   57.5622   29.7289   42.3636 H   0  0  0  0  0  0  0  0  0  0  0  0
   57.7850   32.3110   44.2460 C   0  0  0  0  0  0  0  0  0  0  0  0
   57.4200   32.9320   43.4146 H   0  0  0  0  0  0  0  0  0  0  0  0
   58.3140   32.9270   45.3760 C   0  0  0  0  0  0  0  0  0  0  0  0
   58.3560   34.4280   45.4560 C   0  0  0  0  0  0  0  0  0  0  0  0
   58.3647   34.7388   46.5111 H   0  0  0  0  0  0  0  0  0  0  0  0
   59.2648   34.7965   44.9577 H   0  0  0  0  0  0  0  0  0  0  0  0
   57.4692   34.8467   44.9577 H   0  0  0  0  0  0  0  0  0  0  0  0
   58.6880   32.1470   46.4750 C   0  0  0  0  0  0  0  0  0  0  0  0
   59.1050   32.7930   47.6400 O   0  0  0  0  0  0  0  0  0  0  0  0
   58.6440   30.7310   46.4120 C   0  0  0  0  0  0  0  0  0  0  0  0
   58.9530   30.0450   47.5370 C   0  0  0  0  0  0  0  0  0  0  0  0
   58.9319   28.9452   47.5338 H   0  0  0  0  0  0  0  0  0  0  0  0
   59.2252   30.5872   48.4545 H   0  0  0  0  0  0  0  0  0  0  0  0
  1  2  1  0
  2  3  1  0
  3  4  1  0
  4  5  1  0
  5  6  2  0
  5  7  1  0
  7  8  1  0
  8  9  2  0
  8 10  1  0
 10 11  1  0
 11 12  1  0
 11 13  2  0
 13 14  1  0
 14 15  1  0
 15 16  1  0
 15 17  1  0
 15 18  1  0
 14 19  2  0
 19 20  1  0
 19 21  1  0
 21 22  1  0
 22 23  1  0
 22 24  1  0
 22 25  1  0
 21 26  2  0
 26 27  1  0
 26 28  1  0
 28 29  2  0
 29 30  1  0
 29 31  1  0
 10  3  2  0
 28 13  1  0
M  CHG  3   4  -1   7  -1  27  -1
M  END
>  <UniqueID>  (22) 
18

>  <SMILES>  (22) 
C=c1c([O-])c(C)cc(C)/c1=C\c1c(O)[n-]c(=O)[n-]c1=O

>  <Energy>  (22) 
62.947144121895846

>  <Genealogy>  (22) 
C=c1c([O-])c(C)cc(C)c1=Cc1c(O)[n-]c(=O)[n-]c1=O (protonated)
C=c1c([O-])c(C)cc(C)/c1=C\c1c(O)[n-]c(=O)[n-]c1=O (cis-trans isomerization)
C=c1c([O-])c(C)cc(C)/c1=C\c1c(O)[n-]c(=O)[n-]c1=O (3D coordinates assigned)
C=c1c([O-])c(C)cc(C)/c1=C\c1c(O)[n-]c(=O)[n-]c1=O (optimized conformer: 62.947144121895846 kcal/mol)

>  <smiles>  (22) 
C=c1c(O)c(C)cc(C)c1=Cc1c(O)[nH]c(=O)[nH]c1=O

>  <score_type>  (22) 
oracle

>  <origin>  (22) 
adg

>  <m_score__min__energy>  (22) 
-12.640000000000001

>  <m_primary>  (22) 
energy

$$$$
22:0
     RDKit          3D

 60 62  0  0  0  0  0  0  0  0999 V2000
   56.1554   30.6719   44.9469 H   0  0  0  0  0  0  0  0  0  0  0  0
   56.4890   29.6260   44.8780 C   0  0  0  0  0  0  0  0  0  0  0  0
   55.8218   28.8629   44.4509 H   0  0  0  0  0  0  0  0  0  0  0  0
   57.7100   29.2810   45.3150 C   0  0  0  0  0  0  0  0  0  0  0  0
   58.2950   28.0020   45.3040 C   0  0  0  0  0  0  0  0  0  0  0  0
   57.7850   26.7950   44.9980 C   0  0  0  0  0  0  0  0  0  0  0  0
   57.8032   26.4962   43.9395 H   0  0  0  0  0  0  0  0  0  0  0  0
   57.2070   25.8430   45.9520 C   0  0  0  0  0  0  0  0  0  0  0  0
   57.8560   24.7760   46.4610 N   0  0  0  0  0  0  0  0  0  0  0  0
   56.9020   24.1530   47.1890 C   0  0  0  0  0  0  0  0  0  0  0  0
   57.1240   23.0960   47.8340 O   0  0  0  0  0  0  0  0  0  0  0  0
   55.6870   24.7460   47.1580 N   0  0  0  0  0  0  0  0  0  0  0  0
   55.8960   25.8030   46.3600 C   0  0  0  0  0  0  0  0  0  0  0  0
   54.9080   26.7150   46.0080 O   0  0  0  0  0  0  0  0  0  0  0  0
   59.6170   28.1780   45.6850 C   0  0  0  0  0  0  0  0  0  0  0  0
   60.3871   27.3959   45.7579 H   0  0  0  0  0  0  0  0  0  0  0  0
   59.7820   29.5200   45.9550 C   0  0  0  0  0  0  0  0  0  0  0  0
   61.0710   30.1540   46.3840 C   0  0  0  0  0  0  0  0  0  0  0  0
   61.1200   30.1781   47.4826 H   0  0  0  0  0  0  0  0  0  0  0  0
   61.9158   29.5686   45.9921 H   0  0  0  0  0  0  0  0  0  0  0  0
   61.1230   31.1805   45.9921 H   0  0  0  0  0  0  0  0  0  0  0  0
   58.6250   30.1870   45.7470 N   0  0  0  0  0  0  0  0  0  0  0  0
   58.4880   31.6190   45.7690 C   0  0  0  0  0  0  0  0  0  0  0  0
   57.9790   32.2610   44.6260 C   0  0  0  0  0  0  0  0  0  0  0  0
   57.5825   31.6596   43.7947 H   0  0  0  0  0  0  0  0  0  0  0  0
   57.9720   33.6540   44.5360 C   0  0  0  0  0  0  0  0  0  0  0  0
   57.5589   34.1457   43.6429 H   0  0  0  0  0  0  0  0  0  0  0  0
   58.4890   34.4220   45.5790 C   0  0  0  0  0  0  0  0  0  0  0  0
   58.4977   35.5193   45.5019 H   0  0  0  0  0  0  0  0  0  0  0  0
   58.9960   33.7980   46.7220 C   0  0  0  0  0  0  0  0  0  0  0  0
   59.4093   34.4099   47.5373 H   0  0  0  0  0  0  0  0  0  0  0  0
   58.9840   32.3990   46.8420 C   0  0  0  0  0  0  0  0  0  0  0  0
   59.4910   31.8530   48.0290 O   0  0  0  0  0  0  0  0  0  0  0  0
   58.8850   30.8050   48.7810 C   0  0  0  0  0  0  0  0  0  0  0  0
   57.8883   31.1260   49.1180 H   0  0  0  0  0  0  0  0  0  0  0  0
   58.7907   29.9103   48.1481 H   0  0  0  0  0  0  0  0  0  0  0  0
   59.7550   30.4740   50.0030 C   0  0  0  0  0  0  0  0  0  0  0  0
   59.1184   30.4803   50.9001 H   0  0  0  0  0  0  0  0  0  0  0  0
   60.2066   29.4858   49.8309 H   0  0  0  0  0  0  0  0  0  0  0  0
   60.8650   31.4470   50.2000 N   0  0  1  0  0  0  0  0  0  0  0  0
   60.6630   32.2890   49.6080 H   0  0  0  0  0  0  0  0  0  0  0  0
   60.9010   31.9660   51.5810 C   0  0  0  0  0  0  0  0  0  0  0  0
   60.8428   31.1268   52.2897 H   0  0  0  0  0  0  0  0  0  0  0  0
   61.8395   32.5169   51.7413 H   0  0  0  0  0  0  0  0  0  0  0  0
   60.0475   32.6412   51.7413 H   0  0  0  0  0  0  0  0  0  0  0  0
   62.1880   30.9310   49.7430 C   0  0  0  0  0  0  0  0  0  0  0  0
   62.7748   30.6745   50.6374 H   0  0  0  0  0  0  0  0  0  0  0  0
   61.9595   30.0764   49.0892 H   0  0  0  0  0  0  0  0  0  0  0  0
   63.0400   31.8950   48.8800 C   0  0  0  0  0  0  0  0  0  0  0  0
   63.9030   32.2321   49.4730 H   0  0  0  0  0  0  0  0  0  0  0  0
   63.3605   31.3486   47.9807 H   0  0  0  0  0  0  0  0  0  0  0  0
   62.2720   33.0800   48.4410 N   0  0  0  0  0  0  0  0  0  0  0  0
   62.5120   34.2310   49.3310 C   0  0  0  0  0  0  0  0  0  0  0  0
   62.4439   33.9044   50.3792 H   0  0  0  0  0  0  0  0  0  0  0  0
   63.5148   34.6402   49.1389 H   0  0  0  0  0  0  0  0  0  0  0  0
   61.7563   35.0069   49.1389 H   0  0  0  0  0  0  0  0  0  0  0  0
   62.6210   33.4460   47.0600 C   0  0  0  0  0  0  0  0  0  0  0  0
   63.3801   34.2420   47.0723 H   0  0  0  0  0  0  0  0  0  0  0  0
   63.0220   32.5650   46.5374 H   0  0  0  0  0  0  0  0  0  0  0  0
   61.7220   33.8047   46.5374 H   0  0  0  0  0  0  0  0  0  0  0  0
  1  2  1  0
  2  3  1  0
  2  4  2  0
  4  5  1  0
  5  6  2  0
  6  7  1  0
  6  8  1  0
  8  9  1  0
  9 10  1  0
 10 11  2  0
 10 12  1  0
 12 13  1  0
 13 14  1  0
  5 15  1  0
 15 16  1  0
 15 17  2  0
 17 18  1  0
 18 19  1  0
 18 20  1  0
 18 21  1  0
 17 22  1  0
 22 23  1  0
 23 24  2  0
 24 25  1  0
 24 26  1  0
 26 27  1  0
 26 28  2  0
 28 29  1  0
 28 30  1  0
 30 31  1  0
 30 32  2  0
 32 33  1  0
 33 34  1  0
 34 35  1  0
 34 36  1  0
 34 37  1  0
 37 38  1  0
 37 39  1  0
 37 40  1  0
 40 41  1  6
 40 42  1  0
 42 43  1  0
 42 44  1  0
 42 45  1  0
 40 46  1  0
 46 47  1  0
 46 48  1  0
 46 49  1  0
 49 50  1  0
 49 51  1  0
 49 52  1  0
 52 53  1  0
 53 54  1  0
 53 55  1  0
 53 56  1  0
 52 57  1  0
 57 58  1  0
 57 59  1  0
 57 60  1  0
 22  4  1  0
 32 23  1  0
 13  8  2  0
M  CHG  4   9  -1  12  -1  14  -1  40   1
M  END
>  <UniqueID>  (23) 
19

>  <SMILES>  (23) 
C=c1/c(=C\c2[n-]c(=O)[n-]c2[O-])cc(C)n1-c1ccccc1OCC[N@@H+](C)CCN(C)C

>  <Energy>  (23) 
147.1548783265858

>  <Genealogy>  (23) 
C=c1c(=Cc2[n-]c(=O)[n-]c2[O-])cc(C)n1-c1ccccc1OCC[NH+](C)CCN(C)C (protonated)
C=c1c(=Cc2[n-]c(=O)[n-]c2[O-])cc(C)n1-c1ccccc1OCC[N@@H+](C)CCN(C)C (chirality)
C=c1/c(=C\c2[n-]c(=O)[n-]c2[O-])cc(C)n1-c1ccccc1OCC[N@@H+](C)CCN(C)C (cis-trans isomerization)
C=c1/c(=C\c2[n-]c(=O)[n-]c2[O-])cc(C)n1-c1ccccc1OCC[N@@H+](C)CCN(C)C (3D coordinates assigned)
C=c1/c(=C\c2[n-]c(=O)[n-]c2[O-])cc(C)n1-c1ccccc1OCC[N@@H+](C)CCN(C)C (optimized conformer: 147.1548783265858 kcal/mol)

>  <smiles>  (23) 
C=c1c(=Cc2[nH]c(=O)[nH]c2O)cc(C)n1-c1ccccc1OCCN(C)CCN(C)C

>  <score_type>  (23) 
oracle

>  <origin>  (23) 
adg

>  <m_score__min__energy>  (23) 
-14.5

>  <m_primary>  (23) 
energy

$$$$
23:0
     RDKit          3D

 56 59  0  0  0  0  0  0  0  0999 V2000
   55.2150   29.3710   45.2090 O   0  0  0  0  0  0  0  0  0  0  0  0
   56.4200   29.3800   44.8360 C   0  0  0  0  0  0  0  0  0  0  0  0
   57.2220   28.2020   44.9960 N   0  0  0  0  0  0  0  0  0  0  0  0
   57.8500   27.8150   46.2550 C   0  0  0  0  0  0  0  0  0  0  0  0
   58.6750   28.9480   46.7900 C   0  0  0  0  0  0  0  0  0  0  0  0
   59.9790   29.1610   46.3320 C   0  0  0  0  0  0  0  0  0  0  0  0
   60.6920   30.2490   46.8420 C   0  0  0  0  0  0  0  0  0  0  0  0
   61.8680   30.4700   46.4540 O   0  0  0  0  0  0  0  0  0  0  0  0
   60.1170   31.0710   47.7590 N   0  0  0  0  0  0  0  0  0  0  0  0
   58.8460   30.8570   48.1900 C   0  0  0  0  0  0  0  0  0  0  0  0
   58.3260   31.6600   49.0690 N   0  0  0  0  0  0  0  0  0  0  0  0
   58.8080   31.8250   50.4410 C   0  0  0  0  0  0  0  0  0  0  0  0
   57.8740   31.1650   51.4180 C   0  0  0  0  0  0  0  0  0  0  0  0
   56.9970   31.9290   52.2050 C   0  0  0  0  0  0  0  0  0  0  0  0
   56.1290   31.2830   53.0870 C   0  0  0  0  0  0  0  0  0  0  0  0
   56.1430   29.8890   53.1800 C   0  0  0  0  0  0  0  0  0  0  0  0
   57.0290   29.1610   52.3810 C   0  0  0  0  0  0  0  0  0  0  0  0
   57.8660   29.8070   51.5260 N   0  0  0  0  0  0  0  0  0  0  0  0
   58.1360   29.8050   47.6990 N   0  0  0  0  0  0  0  0  0  0  0  0
   57.0020   30.6010   44.2320 C   0  0  0  0  0  0  0  0  0  0  0  0
   56.9590   30.7950   42.8400 C   0  0  0  0  0  0  0  0  0  0  0  0
   57.5090   31.9440   42.2690 C   0  0  0  0  0  0  0  0  0  0  0  0
   58.1100   32.9110   43.0750 C   0  0  0  0  0  0  0  0  0  0  0  0
   58.1690   32.7400   44.4680 C   0  0  0  0  0  0  0  0  0  0  0  0
   58.8030   33.7590   45.3370 C   0  0  0  0  0  0  0  0  0  0  0  0
   59.1110   34.8800   44.8500 O   0  0  0  0  0  0  0  0  0  0  0  0
   59.0370   33.5020   46.7310 N   0  0  0  0  0  0  0  0  0  0  0  0
   59.6780   34.4780   47.6150 C   0  0  0  0  0  0  0  0  0  0  0  0
   61.1220   34.1210   47.8630 C   0  0  0  0  0  0  0  0  0  0  0  0
   61.9680   33.8040   46.7860 C   0  0  0  0  0  0  0  0  0  0  0  0
   63.3070   33.4650   47.0170 C   0  0  0  0  0  0  0  0  0  0  0  0
   63.8080   33.4300   48.3240 C   0  0  0  0  0  0  0  0  0  0  0  0
   62.9690   33.7260   49.4010 C   0  0  0  0  0  0  0  0  0  0  0  0
   61.6290   34.0600   49.1770 C   0  0  0  0  0  0  0  0  0  0  0  0
   57.6030   31.5850   45.0390 C   0  0  0  0  0  0  0  0  0  0  0  0
   57.0699   27.5562   46.9861 H   0  0  0  0  0  0  0  0  0  0  0  0
   58.5021   26.9466   46.0798 H   0  0  0  0  0  0  0  0  0  0  0  0
   60.4322   28.4886   45.5886 H   0  0  0  0  0  0  0  0  0  0  0  0
   59.8049   31.3686   50.5304 H   0  0  0  0  0  0  0  0  0  0  0  0
   58.8570   32.8996   50.6708 H   0  0  0  0  0  0  0  0  0  0  0  0
   56.9941   33.0262   52.1272 H   0  0  0  0  0  0  0  0  0  0  0  0
   55.4357   31.8700   53.7073 H   0  0  0  0  0  0  0  0  0  0  0  0
   55.4648   29.3706   53.8738 H   0  0  0  0  0  0  0  0  0  0  0  0
   57.0493   28.0630   52.4440 H   0  0  0  0  0  0  0  0  0  0  0  0
   56.4889   30.0365   42.1968 H   0  0  0  0  0  0  0  0  0  0  0  0
   57.4683   32.0874   41.1792 H   0  0  0  0  0  0  0  0  0  0  0  0
   58.5406   33.8135   42.6167 H   0  0  0  0  0  0  0  0  0  0  0  0
   58.6900   32.6170   47.1590 H   0  0  0  0  0  0  0  0  0  0  0  0
   59.6292   35.4725   47.1474 H   0  0  0  0  0  0  0  0  0  0  0  0
   59.1478   34.4770   48.5788 H   0  0  0  0  0  0  0  0  0  0  0  0
   61.5768   33.8223   45.7581 H   0  0  0  0  0  0  0  0  0  0  0  0
   63.9666   33.2257   46.1698 H   0  0  0  0  0  0  0  0  0  0  0  0
   64.8617   33.1696   48.5026 H   0  0  0  0  0  0  0  0  0  0  0  0
   63.3629   33.6964   50.4276 H   0  0  0  0  0  0  0  0  0  0  0  0
   60.9684   34.2759   50.0296 H   0  0  0  0  0  0  0  0  0  0  0  0
   57.6307   31.4495   46.1303 H   0  0  0  0  0  0  0  0  0  0  0  0
  1  2  2  0
  2  3  1  0
  3  4  1  0
  4  5  1  0
  5  6  2  0
  6  7  1  0
  7  8  2  0
  7  9  1  0
  9 10  1  0
 10 11  2  3
 11 12  1  0
 12 13  1  0
 13 14  2  0
 14 15  1  0
 15 16  2  0
 16 17  1  0
 17 18  2  0
 10 19  1  0
  2 20  1  0
 20 21  2  0
 21 22  1  0
 22 23  2  0
 23 24  1  0
 24 25  1  0
 25 26  2  0
 25 27  1  0
 27 28  1  0
 28 29  1  0
 29 30  2  0
 30 31  1  0
 31 32  2  0
 32 33  1  0
 33 34  2  0
 24 35  2  0
 19  5  1  0
 35 20  1  0
 18 13  1  0
 34 29  1  0
  4 36  1  0
  4 37  1  0
  6 38  1  0
 12 39  1  0
 12 40  1  0
 14 41  1  0
 15 42  1  0
 16 43  1  0
 17 44  1  0
 21 45  1  0
 22 46  1  0
 23 47  1  0
 27 48  1  0
 28 49  1  0
 28 50  1  0
 30 51  1  0
 31 52  1  0
 32 53  1  0
 33 54  1  0
 34 55  1  0
 35 56  1  0
M  CHG  3   3  -1   9  -1  19  -1
M  END
>  <UniqueID>  (24) 
20

>  <SMILES>  (24) 
O=C([N-]Cc1cc(=O)[n-]c(=NCc2ccccn2)[n-]1)c1cccc(C(=O)NCc2ccccc2)c1

>  <Energy>  (24) 
59.68174526592678

>  <Genealogy>  (24) 
O=C([N-]Cc1cc(=O)[n-]c(=NCc2ccccn2)[n-]1)c1cccc(C(=O)NCc2ccccc2)c1 (protonated)
O=C([N-]Cc1cc(=O)[n-]c(=NCc2ccccn2)[n-]1)c1cccc(C(=O)NCc2ccccc2)c1 (3D coordinates assigned)
O=C([N-]Cc1cc(=O)[n-]c(=NCc2ccccn2)[n-]1)c1cccc(C(=O)NCc2ccccc2)c1 (optimized conformer: 59.68174526592678 kcal/mol)

>  <smiles>  (24) 
O=C(NCc1ccccc1)c1cccc(C(=O)NCc2cc(=O)[nH]c(=NCc3ccccn3)[nH]2)c1

>  <score_type>  (24) 
oracle

>  <origin>  (24) 
adg

>  <m_score__min__energy>  (24) 
-15.630000000000001

>  <m_primary>  (24) 
energy

$$$$
24:0
     RDKit          3D

 58 61  0  0  0  0  0  0  0  0999 V2000
   59.3899   29.9115   45.9531 H   0  0  0  0  0  0  0  0  0  0  0  0
   59.9080   29.4450   46.8040 C   0  0  0  0  0  0  0  0  0  0  0  0
   59.8380   27.9790   46.9650 C   0  0  0  0  0  0  0  0  0  0  0  0
   60.8560   27.3330   47.3340 O   0  0  0  0  0  0  0  0  0  0  0  0
   58.5710   27.2530   46.7520 C   0  0  0  0  0  0  0  0  0  0  0  0
   58.3430   25.9260   47.0850 C   0  0  0  0  0  0  0  0  0  0  0  0
   59.1001   25.2370   47.4875 H   0  0  0  0  0  0  0  0  0  0  0  0
   57.0860   25.6130   46.8480 O   0  0  0  0  0  0  0  0  0  0  0  0
   56.4780   26.6710   46.3680 C   0  0  0  0  0  0  0  0  0  0  0  0
   55.1390   26.7000   46.0000 O   0  0  0  0  0  0  0  0  0  0  0  0
   57.3580   27.7210   46.2670 C   0  0  0  0  0  0  0  0  0  0  0  0
   57.0420   29.0120   45.7340 N   0  0  0  0  0  0  0  0  0  0  0  0
   57.3910   29.4940   44.4300 C   0  0  0  0  0  0  0  0  0  0  0  0
   57.0590   28.8130   43.4250 O   0  0  0  0  0  0  0  0  0  0  0  0
   58.2010   30.7460   44.2280 C   0  0  0  0  0  0  0  0  0  0  0  0
   58.9971   30.7870   44.9860 H   0  0  0  0  0  0  0  0  0  0  0  0
   58.6359   30.7263   43.2178 H   0  0  0  0  0  0  0  0  0  0  0  0
   57.3180   31.9900   44.3590 C   0  0  0  0  0  0  0  0  0  0  0  0
   57.1472   32.4189   43.3606 H   0  0  0  0  0  0  0  0  0  0  0  0
   56.3610   31.6992   44.8168 H   0  0  0  0  0  0  0  0  0  0  0  0
   57.9810   33.0200   45.2330 C   0  0  0  0  0  0  0  0  0  0  0  0
   58.7610   34.0380   44.6610 C   0  0  0  0  0  0  0  0  0  0  0  0
   58.9078   34.0687   43.5713 H   0  0  0  0  0  0  0  0  0  0  0  0
   59.3520   35.0130   45.4710 C   0  0  0  0  0  0  0  0  0  0  0  0
   59.9685   35.8035   45.0182 H   0  0  0  0  0  0  0  0  0  0  0  0
   59.1600   34.9840   46.8560 C   0  0  0  0  0  0  0  0  0  0  0  0
   59.6291   35.7489   47.4923 H   0  0  0  0  0  0  0  0  0  0  0  0
   58.3720   33.9830   47.4320 C   0  0  0  0  0  0  0  0  0  0  0  0
   58.2188   33.9626   48.5211 H   0  0  0  0  0  0  0  0  0  0  0  0
   57.7780   33.0070   46.6240 C   0  0  0  0  0  0  0  0  0  0  0  0
   57.1500   32.2268   47.0789 H   0  0  0  0  0  0  0  0  0  0  0  0
   60.5810   30.2260   47.6590 C   0  0  0  0  0  0  0  0  0  0  0  0
   61.6467   30.4184   47.4662 H   0  0  0  0  0  0  0  0  0  0  0  0
   59.9550   30.8440   48.8550 C   0  0  0  0  0  0  0  0  0  0  0  0
   58.8860   30.2120   49.5220 C   0  0  0  0  0  0  0  0  0  0  0  0
   58.5373   29.2264   49.1801 H   0  0  0  0  0  0  0  0  0  0  0  0
   58.2650   30.8250   50.6130 C   0  0  0  0  0  0  0  0  0  0  0  0
   57.2120   30.1900   51.2600 O   0  0  0  0  0  0  0  0  0  0  0  0
   58.6950   32.0790   51.0480 C   0  0  0  0  0  0  0  0  0  0  0  0
   58.2062   32.5595   51.9084 H   0  0  0  0  0  0  0  0  0  0  0  0
   59.7440   32.7240   50.3930 C   0  0  0  0  0  0  0  0  0  0  0  0
   60.0745   33.7157   50.7356 H   0  0  0  0  0  0  0  0  0  0  0  0
   60.3800   32.1170   49.3010 C   0  0  0  0  0  0  0  0  0  0  0  0
   61.4770   32.7980   48.6730 N   0  0  0  0  0  0  0  0  0  0  0  0
   62.6370   33.2110   49.4670 C   0  0  0  0  0  0  0  0  0  0  0  0
   62.6675   34.3095   49.5163 H   0  0  0  0  0  0  0  0  0  0  0  0
   62.5427   32.7845   50.4766 H   0  0  0  0  0  0  0  0  0  0  0  0
   63.9460   32.6970   48.8340 C   0  0  0  0  0  0  0  0  0  0  0  0
   64.7420   33.4253   49.0485 H   0  0  0  0  0  0  0  0  0  0  0  0
   64.1426   31.7082   49.2741 H   0  0  0  0  0  0  0  0  0  0  0  0
   63.8770   32.5040   47.3720 N   0  0  0  0  0  0  0  0  0  0  0  0
   63.6320   31.5060   47.1730 H   0  0  0  0  0  0  0  0  0  0  0  0
   62.8770   33.3650   46.7290 C   0  0  0  0  0  0  0  0  0  0  0  0
   63.0908   34.4157   46.9745 H   0  0  0  0  0  0  0  0  0  0  0  0
   62.9230   33.2163   45.6401 H   0  0  0  0  0  0  0  0  0  0  0  0
   61.4720   33.0060   47.2230 C   0  0  0  0  0  0  0  0  0  0  0  0
   60.7811   33.8258   46.9770 H   0  0  0  0  0  0  0  0  0  0  0  0
   61.1478   32.0772   46.7309 H   0  0  0  0  0  0  0  0  0  0  0  0
  1  2  1  0
  2  3  1  0
  3  4  2  0
  3  5  1  0
  5  6  2  0
  6  7  1  0
  6  8  1  0
  8  9  1  0
  9 10  1  0
  9 11  2  0
 11 12  1  0
 12 13  1  0
 13 14  2  0
 13 15  1  0
 15 16  1  0
 15 17  1  0
 15 18  1  0
 18 19  1  0
 18 20  1  0
 18 21  1  0
 21 22  2  0
 22 23  1  0
 22 24  1  0
 24 25  1  0
 24 26  2  0
 26 27  1  0
 26 28  1  0
 28 29  1  0
 28 30  2  0
 30 31  1  0
  2 32  2  0
 32 33  1  0
 32 34  1  0
 34 35  2  0
 35 36  1  0
 35 37  1  0
 37 38  1  0
 37 39  2  0
 39 40  1  0
 39 41  1  0
 41 42  1  0
 41 43  2  0
 43 44  1  0
 44 45  1  0
 45 46  1  0
 45 47  1  0
 45 48  1  0
 48 49  1  0
 48 50  1  0
 48 51  1  0
 51 52  1  0
 51 53  1  0
 53 54  1  0
 53 55  1  0
 53 56  1  0
 56 57  1  0
 56 58  1  0
 11  5  1  0
 30 21  1  0
 43 34  1  0
 56 44  1  0
M  CHG  3  10  -1  12  -1  38  -1
M  END
>  <UniqueID>  (25) 
21

>  <SMILES>  (25) 
O=C(CCc1ccccc1)[N-]c1c(C(=O)/C=C/c2cc([O-])ccc2N2CCNCC2)coc1[O-]

>  <Energy>  (25) 
106.13706618558719

>  <Genealogy>  (25) 
O=C(CCc1ccccc1)[N-]c1c(C(=O)C=Cc2cc([O-])ccc2N2CCNCC2)coc1[O-] (protonated)
O=C(CCc1ccccc1)[N-]c1c(C(=O)/C=C/c2cc([O-])ccc2N2CCNCC2)coc1[O-] (cis-trans isomerization)
O=C(CCc1ccccc1)[N-]c1c(C(=O)/C=C/c2cc([O-])ccc2N2CCNCC2)coc1[O-] (3D coordinates assigned)
O=C(CCc1ccccc1)[N-]c1c(C(=O)/C=C/c2cc([O-])ccc2N2CCNCC2)coc1[O-] (nonaromatic ring conformer: 106.13706618558719 kcal/mol)

>  <smiles>  (25) 
O=C(CCc1ccccc1)Nc1c(C(=O)C=Cc2cc(O)ccc2N2CCNCC2)coc1O

>  <score_type>  (25) 
oracle

>  <origin>  (25) 
adg

>  <m_score__min__energy>  (25) 
-15.529999999999999

>  <m_primary>  (25) 
energy

$$$$
25:0
     RDKit          3D

 50 52  0  0  0  0  0  0  0  0999 V2000
   56.5260   22.8340   45.6280 C   0  0  0  0  0  0  0  0  0  0  0  0
   56.6010   23.5160   46.9540 C   0  0  0  0  0  0  0  0  0  0  0  0
   57.0570   22.8940   47.9510 O   0  0  0  0  0  0  0  0  0  0  0  0
   56.2350   24.8980   47.0590 N   0  0  0  0  0  0  0  0  0  0  0  0
   57.0000   26.0140   46.5850 C   0  0  0  0  0  0  0  0  0  0  0  0
   57.8100   26.7110   47.4930 C   0  0  0  0  0  0  0  0  0  0  0  0
   58.5900   27.7890   47.0650 C   0  0  0  0  0  0  0  0  0  0  0  0
   58.5850   28.1680   45.7150 C   0  0  0  0  0  0  0  0  0  0  0  0
   59.6170   29.4740   45.1440 S   0  0  0  0  0  0  0  0  0  0  0  0
   60.2140   30.1810   46.3300 O   0  0  0  0  0  0  0  0  0  0  0  0
   60.7250   28.9540   44.2720 O   0  0  0  0  0  0  0  0  0  0  0  0
   58.6480   30.5850   44.2370 N   0  0  0  0  0  0  0  0  0  0  0  0
   57.3690   31.0180   44.7030 C   0  0  0  0  0  0  0  0  0  0  0  0
   56.4500   30.1820   44.9190 O   0  0  0  0  0  0  0  0  0  0  0  0
   57.1580   32.4570   45.0430 C   0  0  0  0  0  0  0  0  0  0  0  0
   58.3130   32.9370   45.8650 C   0  0  0  0  0  0  0  0  0  0  0  0
   59.1660   33.9830   45.5280 C   0  0  0  0  0  0  0  0  0  0  0  0
   60.0730   34.3030   46.5400 C   0  0  0  0  0  0  0  0  0  0  0  0
   59.9140   33.5200   47.6760 C   0  0  0  0  0  0  0  0  0  0  0  0
   60.9090   33.6070   49.1180 S   0  0  0  0  0  0  0  0  0  0  0  0
   61.6650   34.9060   49.1030 O   0  0  0  0  0  0  0  0  0  0  0  0
   60.0210   33.5740   50.3310 O   0  0  0  0  0  0  0  0  0  0  0  0
   62.0220   32.2550   49.1290 N   0  0  0  0  0  0  0  0  0  0  0  0
   63.2130   32.5290   49.9650 C   0  0  0  0  0  0  0  0  0  0  0  0
   64.4430   32.9380   49.1350 C   0  0  0  0  0  0  0  0  0  0  0  0
   64.0420   33.6610   47.9950 O   0  0  0  0  0  0  0  0  0  0  0  0
   63.3730   32.8040   47.0840 C   0  0  0  0  0  0  0  0  0  0  0  0
   62.3770   31.8320   47.7630 C   0  0  0  0  0  0  0  0  0  0  0  0
   58.6570   32.4310   47.4320 S   0  0  0  0  0  0  0  0  0  0  0  0
   57.7990   27.4570   44.7990 C   0  0  0  0  0  0  0  0  0  0  0  0
   57.0140   26.3850   45.2300 C   0  0  0  0  0  0  0  0  0  0  0  0
   56.4069   21.7509   45.7789 H   0  0  0  0  0  0  0  0  0  0  0  0
   55.6652   23.2225   45.0640 H   0  0  0  0  0  0  0  0  0  0  0  0
   57.4507   23.0261   45.0640 H   0  0  0  0  0  0  0  0  0  0  0  0
   57.8317   26.4071   48.5500 H   0  0  0  0  0  0  0  0  0  0  0  0
   59.2086   28.3408   47.7881 H   0  0  0  0  0  0  0  0  0  0  0  0
   57.0922   33.0488   44.1181 H   0  0  0  0  0  0  0  0  0  0  0  0
   56.2235   32.5717   45.6118 H   0  0  0  0  0  0  0  0  0  0  0  0
   59.1295   34.5057   44.5608 H   0  0  0  0  0  0  0  0  0  0  0  0
   60.8336   35.0923   46.4473 H   0  0  0  0  0  0  0  0  0  0  0  0
   62.9726   33.3449   50.6626 H   0  0  0  0  0  0  0  0  0  0  0  0
   63.4659   31.5994   50.4959 H   0  0  0  0  0  0  0  0  0  0  0  0
   65.1037   33.5666   49.7501 H   0  0  0  0  0  0  0  0  0  0  0  0
   64.9778   32.0315   48.8153 H   0  0  0  0  0  0  0  0  0  0  0  0
   62.8175   33.4254   46.3662 H   0  0  0  0  0  0  0  0  0  0  0  0
   64.1430   32.1878   46.5967 H   0  0  0  0  0  0  0  0  0  0  0  0
   61.4596   31.7864   47.1577 H   0  0  0  0  0  0  0  0  0  0  0  0
   62.8634   30.8479   47.8325 H   0  0  0  0  0  0  0  0  0  0  0  0
   57.8000   27.7438   43.7370 H   0  0  0  0  0  0  0  0  0  0  0  0
   56.4032   25.8280   44.5043 H   0  0  0  0  0  0  0  0  0  0  0  0
  1  2  1  0
  2  3  2  0
  2  4  1  0
  4  5  1  0
  5  6  2  0
  6  7  1  0
  7  8  2  0
  8  9  1  0
  9 10  2  0
  9 11  2  0
  9 12  1  0
 12 13  1  0
 13 14  2  0
 13 15  1  0
 15 16  1  0
 16 17  2  0
 17 18  1  0
 18 19  2  0
 19 20  1  0
 20 21  2  0
 20 22  2  0
 20 23  1  0
 23 24  1  0
 24 25  1  0
 25 26  1  0
 26 27  1  0
 27 28  1  0
 19 29  1  0
  8 30  1  0
 30 31  2  0
 31  5  1  0
 29 16  1  0
 28 23  1  0
  1 32  1  0
  1 33  1  0
  1 34  1  0
  6 35  1  0
  7 36  1  0
 15 37  1  0
 15 38  1  0
 17 39  1  0
 18 40  1  0
 24 41  1  0
 24 42  1  0
 25 43  1  0
 25 44  1  0
 27 45  1  0
 27 46  1  0
 28 47  1  0
 28 48  1  0
 30 49  1  0
 31 50  1  0
M  CHG  2   4  -1  12  -1
M  END
>  <UniqueID>  (26) 
22

>  <SMILES>  (26) 
CC(=O)[N-]c1ccc(S(=O)(=O)[N-]C(=O)Cc2ccc(S(=O)(=O)N3CCOCC3)s2)cc1

>  <Energy>  (26) 
87.53828620462019

>  <Genealogy>  (26) 
CC(=O)[N-]c1ccc(S(=O)(=O)[N-]C(=O)Cc2ccc(S(=O)(=O)N3CCOCC3)s2)cc1 (protonated)
CC(=O)[N-]c1ccc(S(=O)(=O)[N-]C(=O)Cc2ccc(S(=O)(=O)N3CCOCC3)s2)cc1 (3D coordinates assigned)
CC(=O)[N-]c1ccc(S(=O)(=O)[N-]C(=O)Cc2ccc(S(=O)(=O)N3CCOCC3)s2)cc1 (nonaromatic ring conformer: 87.53828620462019 kcal/mol)

>  <smiles>  (26) 
CC(=O)Nc1ccc(S(=O)(=O)NC(=O)Cc2ccc(S(=O)(=O)N3CCOCC3)s2)cc1

>  <score_type>  (26) 
oracle

>  <origin>  (26) 
adg

>  <m_score__min__energy>  (26) 
-12.470000000000001

>  <m_primary>  (26) 
energy

$$$$
26:0
     RDKit          3D

 45 47  0  0  0  0  0  0  0  0999 V2000
   58.6470   25.8660   47.8670 C   0  0  0  0  0  0  0  0  0  0  0  0
   58.3630   27.0230   46.9250 C   0  0  0  0  0  0  0  0  0  0  0  0
   57.1530   27.0250   46.1800 C   0  0  0  0  0  0  0  0  0  0  0  0
   56.0710   26.0250   46.3740 C   0  0  0  0  0  0  0  0  0  0  0  0
   56.3050   24.9170   46.9250 O   0  0  0  0  0  0  0  0  0  0  0  0
   54.7660   26.3310   46.0050 O   0  0  0  0  0  0  0  0  0  0  0  0
   56.9430   28.0280   45.2330 C   0  0  0  0  0  0  0  0  0  0  0  0
   57.8780   29.0410   45.0490 C   0  0  0  0  0  0  0  0  0  0  0  0
   57.6040   30.1290   44.0380 C   0  0  0  0  0  0  0  0  0  0  0  0
   56.4380   30.9590   44.4700 C   0  0  0  0  0  0  0  0  0  0  0  0
   56.6120   32.1480   44.8460 O   0  0  0  0  0  0  0  0  0  0  0  0
   55.1620   30.4070   44.4960 O   0  0  0  0  0  0  0  0  0  0  0  0
   59.0170   29.0750   45.8690 C   0  0  0  0  0  0  0  0  0  0  0  0
   59.8250   30.0360   45.7430 O   0  0  0  0  0  0  0  0  0  0  0  0
   59.2490   28.0830   46.7990 N   0  0  0  0  0  0  0  0  0  0  0  0
   60.4330   28.1960   47.6860 C   0  0  0  0  0  0  0  0  0  0  0  0
   60.2350   29.2700   48.7290 C   0  0  0  0  0  0  0  0  0  0  0  0
   60.7470   30.5600   48.5250 C   0  0  0  0  0  0  0  0  0  0  0  0
   60.5530   31.5580   49.4850 C   0  0  0  0  0  0  0  0  0  0  0  0
   59.8400   31.2840   50.6650 C   0  0  0  0  0  0  0  0  0  0  0  0
   59.6490   32.3370   51.6930 C   0  0  0  0  0  0  0  0  0  0  0  0
   60.6220   32.5490   52.6870 C   0  0  0  0  0  0  0  0  0  0  0  0
   60.4430   33.5460   53.6510 C   0  0  0  0  0  0  0  0  0  0  0  0
   59.2960   34.3420   53.6320 C   0  0  0  0  0  0  0  0  0  0  0  0
   58.3240   34.1430   52.6490 C   0  0  0  0  0  0  0  0  0  0  0  0
   58.4990   33.1490   51.6820 C   0  0  0  0  0  0  0  0  0  0  0  0
   59.3120   29.9960   50.8570 C   0  0  0  0  0  0  0  0  0  0  0  0
   59.4970   29.0010   49.8930 C   0  0  0  0  0  0  0  0  0  0  0  0
   58.5622   26.2114   48.9079 H   0  0  0  0  0  0  0  0  0  0  0  0
   57.9200   25.0602   47.6877 H   0  0  0  0  0  0  0  0  0  0  0  0
   59.6645   25.4884   47.6877 H   0  0  0  0  0  0  0  0  0  0  0  0
   56.0267   28.0174   44.6245 H   0  0  0  0  0  0  0  0  0  0  0  0
   58.4923   30.7713   43.9468 H   0  0  0  0  0  0  0  0  0  0  0  0
   57.3723   29.6651   43.0679 H   0  0  0  0  0  0  0  0  0  0  0  0
   60.5965   27.2322   48.1903 H   0  0  0  0  0  0  0  0  0  0  0  0
   61.3041   28.4652   47.0706 H   0  0  0  0  0  0  0  0  0  0  0  0
   61.3044   30.7878   47.6044 H   0  0  0  0  0  0  0  0  0  0  0  0
   60.9615   32.5652   49.3155 H   0  0  0  0  0  0  0  0  0  0  0  0
   61.5289   31.9267   52.7059 H   0  0  0  0  0  0  0  0  0  0  0  0
   61.2075   33.7035   54.4260 H   0  0  0  0  0  0  0  0  0  0  0  0
   59.1579   35.1259   54.3913 H   0  0  0  0  0  0  0  0  0  0  0  0
   57.4197   34.7692   52.6358 H   0  0  0  0  0  0  0  0  0  0  0  0
   57.7328   33.0002   50.9069 H   0  0  0  0  0  0  0  0  0  0  0  0
   58.7482   29.7689   51.7738 H   0  0  0  0  0  0  0  0  0  0  0  0
   59.0624   28.0023   50.0469 H   0  0  0  0  0  0  0  0  0  0  0  0
  1  2  1  0
  2  3  2  0
  3  4  1  0
  4  5  2  0
  4  6  1  0
  3  7  1  0
  7  8  2  0
  8  9  1  0
  9 10  1  0
 10 11  2  0
 10 12  1  0
  8 13  1  0
 13 14  2  0
 13 15  1  0
 15 16  1  0
 16 17  1  0
 17 18  2  0
 18 19  1  0
 19 20  2  0
 20 21  1  0
 21 22  2  0
 22 23  1  0
 23 24  2  0
 24 25  1  0
 25 26  2  0
 20 27  1  0
 27 28  2  0
 15  2  1  0
 28 17  1  0
 26 21  1  0
  1 29  1  0
  1 30  1  0
  1 31  1  0
  7 32  1  0
  9 33  1  0
  9 34  1  0
 16 35  1  0
 16 36  1  0
 18 37  1  0
 19 38  1  0
 22 39  1  0
 23 40  1  0
 24 41  1  0
 25 42  1  0
 26 43  1  0
 27 44  1  0
 28 45  1  0
M  CHG  2   6  -1  12  -1
M  END
>  <UniqueID>  (27) 
23

>  <SMILES>  (27) 
Cc1c(C(=O)[O-])cc(CC(=O)[O-])c(=O)n1Cc1ccc(-c2ccccc2)cc1

>  <Energy>  (27) 
65.16147072612239

>  <Genealogy>  (27) 
Cc1c(C(=O)[O-])cc(CC(=O)[O-])c(=O)n1Cc1ccc(-c2ccccc2)cc1 (protonated)
Cc1c(C(=O)[O-])cc(CC(=O)[O-])c(=O)n1Cc1ccc(-c2ccccc2)cc1 (3D coordinates assigned)
Cc1c(C(=O)[O-])cc(CC(=O)[O-])c(=O)n1Cc1ccc(-c2ccccc2)cc1 (optimized conformer: 65.16147072612239 kcal/mol)

>  <smiles>  (27) 
Cc1c(C(=O)O)cc(CC(=O)O)c(=O)n1Cc1ccc(-c2ccccc2)cc1

>  <score_type>  (27) 
oracle

>  <origin>  (27) 
adg

>  <m_score__min__energy>  (27) 
-12.630000000000001

>  <m_primary>  (27) 
energy

$$$$
27:0
     RDKit          3D

 61 65  0  0  0  0  0  0  0  0999 V2000
   61.4731   27.3162   47.7151 H   0  0  0  0  0  0  0  0  0  0  0  0
   60.5870   27.9470   47.8790 C   0  0  0  0  0  0  0  0  0  0  0  0
   60.3190   28.4210   49.1210 N   0  0  0  0  0  0  0  0  0  0  0  0
   59.2470   29.2160   49.3550 C   0  0  0  0  0  0  0  0  0  0  0  0
   59.0640   29.6940   50.5520 N   0  0  0  0  0  0  0  0  0  0  0  0
   59.3910   31.0060   51.0400 C   0  0  0  0  0  0  0  0  0  0  0  0
   58.5570   31.9830   51.5710 C   0  0  0  0  0  0  0  0  0  0  0  0
   57.4718   31.8976   51.7295 H   0  0  0  0  0  0  0  0  0  0  0  0
   59.3240   33.0550   51.8560 N   0  0  0  0  0  0  0  0  0  0  0  0
   58.8450   34.3400   52.3560 C   0  0  0  0  0  0  0  0  0  0  0  0
   57.7601   34.4133   52.1897 H   0  0  0  0  0  0  0  0  0  0  0  0
   59.3621   35.1495   51.8200 H   0  0  0  0  0  0  0  0  0  0  0  0
   59.1360   34.4650   53.8490 C   0  0  0  0  0  0  0  0  0  0  0  0
   58.2738   34.0946   54.4229 H   0  0  0  0  0  0  0  0  0  0  0  0
   60.0265   33.8700   54.1001 H   0  0  0  0  0  0  0  0  0  0  0  0
   59.3175   35.5205   54.1001 H   0  0  0  0  0  0  0  0  0  0  0  0
   60.5810   32.8030   51.5180 N   0  0  0  0  0  0  0  0  0  0  0  0
   61.3720   33.4820   51.6060 H   0  0  0  0  0  0  0  0  0  0  0  0
   60.6580   31.5540   51.0250 C   0  0  0  0  0  0  0  0  0  0  0  0
   61.5724   31.0554   50.6711 H   0  0  0  0  0  0  0  0  0  0  0  0
   58.4250   29.5450   48.3270 N   0  0  0  0  0  0  0  0  0  0  0  0
   58.6210   29.0810   47.0660 C   0  0  0  0  0  0  0  0  0  0  0  0
   57.7530   29.6250   46.0060 C   0  0  0  0  0  0  0  0  0  0  0  0
   57.7640   30.9670   45.7960 N   0  0  0  0  0  0  0  0  0  0  0  0
   57.0440   31.5660   44.8080 C   0  0  0  0  0  0  0  0  0  0  0  0
   57.1290   32.8500   44.6050 N   0  0  0  0  0  0  0  0  0  0  0  0
   57.1690   33.8820   45.6490 C   0  0  0  0  0  0  0  0  0  0  0  0
   57.0100   34.8654   45.1825 H   0  0  0  0  0  0  0  0  0  0  0  0
   56.3790   33.6560   46.3804 H   0  0  0  0  0  0  0  0  0  0  0  0
   58.4910   33.8970   46.3800 C   0  0  0  0  0  0  0  0  0  0  0  0
   58.5750   33.4140   47.6970 C   0  0  0  0  0  0  0  0  0  0  0  0
   57.6592   33.1277   48.2349 H   0  0  0  0  0  0  0  0  0  0  0  0
   59.8170   33.2960   48.3260 C   0  0  0  0  0  0  0  0  0  0  0  0
   59.8761   32.9118   49.3550 H   0  0  0  0  0  0  0  0  0  0  0  0
   60.9860   33.6650   47.6510 C   0  0  0  0  0  0  0  0  0  0  0  0
   62.5470   33.4400   48.4330 S   0  0  0  0  0  0  0  0  0  0  0  0
   63.6150   34.1990   47.6980 O   0  0  0  0  0  0  0  0  0  0  0  0
   62.4770   33.9430   49.8480 O   0  0  0  0  0  0  0  0  0  0  0  0
   62.9600   31.7100   48.4300 C   0  0  0  0  0  0  0  0  0  0  0  0
   63.0455   31.3517   49.4665 H   0  0  0  0  0  0  0  0  0  0  0  0
   62.1713   31.1457   47.9108 H   0  0  0  0  0  0  0  0  0  0  0  0
   63.9185   31.5628   47.9108 H   0  0  0  0  0  0  0  0  0  0  0  0
   60.9040   34.1760   46.3480 C   0  0  0  0  0  0  0  0  0  0  0  0
   61.8190   34.4849   45.8214 H   0  0  0  0  0  0  0  0  0  0  0  0
   59.6620   34.2940   45.7160 C   0  0  0  0  0  0  0  0  0  0  0  0
   59.6027   34.6993   44.6951 H   0  0  0  0  0  0  0  0  0  0  0  0
   56.2340   30.7810   43.9820 C   0  0  0  0  0  0  0  0  0  0  0  0
   55.6657   31.2418   43.1606 H   0  0  0  0  0  0  0  0  0  0  0  0
   56.1540   29.4040   44.2110 C   0  0  0  0  0  0  0  0  0  0  0  0
   55.4979   28.7802   43.5861 H   0  0  0  0  0  0  0  0  0  0  0  0
   56.9060   28.8200   45.2320 C   0  0  0  0  0  0  0  0  0  0  0  0
   56.8346   27.7398   45.4269 H   0  0  0  0  0  0  0  0  0  0  0  0
   59.7400   28.2560   46.7980 C   0  0  0  0  0  0  0  0  0  0  0  0
   60.1320   27.8910   45.3800 C   0  0  0  0  0  0  0  0  0  0  0  0
   59.7690   26.8556   45.4580 H   0  0  0  0  0  0  0  0  0  0  0  0
   60.0290   28.9680   44.3010 C   0  0  0  0  0  0  0  0  0  0  0  0
   59.7711   28.6890   43.2687 H   0  0  0  0  0  0  0  0  0  0  0  0
   59.4634   29.9048   44.1896 H   0  0  0  0  0  0  0  0  0  0  0  0
   61.3810   28.5970   44.8690 C   0  0  0  0  0  0  0  0  0  0  0  0
   62.1056   28.0496   44.2482 H   0  0  0  0  0  0  0  0  0  0  0  0
   62.2036   29.1551   45.3401 H   0  0  0  0  0  0  0  0  0  0  0  0
  1  2  1  0
  2  3  1  0
  3  4  1  0
  4  5  2  3
  5  6  1  0
  6  7  2  0
  7  8  1  0
  7  9  1  0
  9 10  1  0
 10 11  1  0
 10 12  1  0
 10 13  1  0
 13 14  1  0
 13 15  1  0
 13 16  1  0
  9 17  1  0
 17 18  1  0
 17 19  2  0
 19 20  1  0
  4 21  1  0
 21 22  2  0
 22 23  1  0
 23 24  1  0
 24 25  1  0
 25 26  2  0
 26 27  1  0
 27 28  1  0
 27 29  1  0
 27 30  1  0
 30 31  2  0
 31 32  1  0
 31 33  1  0
 33 34  1  0
 33 35  2  0
 35 36  1  0
 36 37  2  0
 36 38  2  0
 36 39  1  0
 39 40  1  0
 39 41  1  0
 39 42  1  0
 35 43  1  0
 43 44  1  0
 43 45  2  0
 45 46  1  0
 25 47  1  0
 47 48  1  0
 47 49  2  0
 49 50  1  0
 49 51  1  0
 51 52  1  0
 22 53  1  0
 53 54  1  0
 54 55  1  0
 54 56  1  0
 56 57  1  0
 56 58  1  0
 56 59  1  0
 59 60  1  0
 59 61  1  0
 53  2  2  0
 59 54  1  0
 19  6  1  0
 51 23  2  0
 45 30  1  0
M  CHG  3   3  -1  17   1  24  -1
M  END
>  <UniqueID>  (28) 
24

>  <SMILES>  (28) 
CCn1cc(N=c2nc(-c3ccc/c(=N/Cc4ccc(S(C)(=O)=O)cc4)[n-]3)c(C3CC3)c[n-]2)c[nH+]1

>  <Energy>  (28) 
365.0201095096648

>  <Genealogy>  (28) 
CCn1cc(N=c2nc(-c3cccc(=NCc4ccc(S(C)(=O)=O)cc4)[n-]3)c(C3CC3)c[n-]2)c[nH+]1 (protonated)
CCn1cc(N=c2nc(-c3ccc/c(=N/Cc4ccc(S(C)(=O)=O)cc4)[n-]3)c(C3CC3)c[n-]2)c[nH+]1 (cis-trans isomerization)
CCn1cc(N=c2nc(-c3ccc/c(=N/Cc4ccc(S(C)(=O)=O)cc4)[n-]3)c(C3CC3)c[n-]2)c[nH+]1 (3D coordinates assigned)
CCn1cc(N=c2nc(-c3ccc/c(=N/Cc4ccc(S(C)(=O)=O)cc4)[n-]3)c(C3CC3)c[n-]2)c[nH+]1 (nonaromatic ring conformer: 365.0201095096648 kcal/mol)

>  <smiles>  (28) 
CCn1cc(N=c2nc(-c3cccc(=NCc4ccc(S(C)(=O)=O)cc4)[nH]3)c(C3CC3)c[nH]2)cn1

>  <score_type>  (28) 
oracle

>  <origin>  (28) 
adg

>  <m_score__min__energy>  (28) 
-12.08

>  <m_primary>  (28) 
energy

$$$$
28:0
     RDKit          3D

 39 41  0  0  0  0  0  0  0  0999 V2000
   54.5087   30.6339   43.4969 H   0  0  0  0  0  0  0  0  0  0  0  0
   55.4190   30.0800   43.7700 C   0  0  0  0  0  0  0  0  0  0  0  0
   55.4890   29.2960   44.8790 N   0  0  0  0  0  0  0  0  0  0  0  0
   56.7030   28.7190   45.0090 C   0  0  0  0  0  0  0  0  0  0  0  0
   56.9830   27.9270   46.0050 N   0  0  0  0  0  0  0  0  0  0  0  0
   58.2550   27.7410   46.6510 C   0  0  0  0  0  0  0  0  0  0  0  0
   58.6610   26.5850   46.9510 O   0  0  0  0  0  0  0  0  0  0  0  0
   59.0960   28.9190   46.9690 C   0  0  0  0  0  0  0  0  0  0  0  0
   60.1550   29.2950   46.1210 C   0  0  0  0  0  0  0  0  0  0  0  0
   60.3624   28.7080   45.2141 H   0  0  0  0  0  0  0  0  0  0  0  0
   60.9450   30.4080   46.4220 C   0  0  0  0  0  0  0  0  0  0  0  0
   61.7707   30.6912   45.7526 H   0  0  0  0  0  0  0  0  0  0  0  0
   60.6890   31.1640   47.5730 C   0  0  0  0  0  0  0  0  0  0  0  0
   61.6700   32.5770   47.9590 S   0  0  0  0  0  0  0  0  0  0  0  0
   62.7530   32.7640   46.9340 O   0  0  0  0  0  0  0  0  0  0  0  0
   62.3150   32.3530   49.2970 O   0  0  0  0  0  0  0  0  0  0  0  0
   60.6980   34.0190   48.0410 N   0  0  0  0  0  0  0  0  0  0  0  0
   60.4010   34.5690   46.7150 C   0  0  0  0  0  0  0  0  0  0  0  0
   60.7515   35.6109   46.6747 H   0  0  0  0  0  0  0  0  0  0  0  0
   60.9151   33.9504   45.9646 H   0  0  0  0  0  0  0  0  0  0  0  0
   58.8840   34.5380   46.4080 C   0  0  2  0  0  0  0  0  0  0  0  0
   58.4567   35.4866   46.7653 H   0  0  0  0  0  0  0  0  0  0  0  0
   58.2990   33.4340   47.0690 O   0  0  0  0  0  0  0  0  0  0  0  0
   57.6750   32.6260   46.1010 C   0  0  0  0  0  0  0  0  0  0  0  0
   56.5872   32.7866   46.1325 H   0  0  0  0  0  0  0  0  0  0  0  0
   57.8903   31.5671   46.3068 H   0  0  0  0  0  0  0  0  0  0  0  0
   58.2020   32.9970   44.7350 C   0  0  0  0  0  0  0  0  0  0  0  0
   57.4226   32.8892   43.9663 H   0  0  0  0  0  0  0  0  0  0  0  0
   59.0314   32.3577   44.3982 H   0  0  0  0  0  0  0  0  0  0  0  0
   58.5910   34.4310   44.9120 C   0  0  0  0  0  0  0  0  0  0  0  0
   57.7672   35.1005   44.6236 H   0  0  0  0  0  0  0  0  0  0  0  0
   59.4464   34.7238   44.2854 H   0  0  0  0  0  0  0  0  0  0  0  0
   59.6430   30.7930   48.4250 C   0  0  0  0  0  0  0  0  0  0  0  0
   59.4427   31.3793   49.3339 H   0  0  0  0  0  0  0  0  0  0  0  0
   58.8520   29.6810   48.1260 C   0  0  0  0  0  0  0  0  0  0  0  0
   58.0309   29.3987   48.8014 H   0  0  0  0  0  0  0  0  0  0  0  0
   57.7340   29.1610   43.7490 S   0  0  0  0  0  0  0  0  0  0  0  0
   56.5790   30.1320   43.0060 C   0  0  0  0  0  0  0  0  0  0  0  0
   56.7173   30.7071   42.0785 H   0  0  0  0  0  0  0  0  0  0  0  0
  1  2  1  0
  2  3  1  0
  3  4  1  0
  4  5  2  0
  5  6  1  0
  6  7  2  0
  6  8  1  0
  8  9  2  0
  9 10  1  0
  9 11  1  0
 11 12  1  0
 11 13  2  0
 13 14  1  0
 14 15  2  0
 14 16  2  0
 14 17  1  0
 17 18  1  0
 18 19  1  0
 18 20  1  0
 18 21  1  0
 21 22  1  1
 21 23  1  0
 23 24  1  0
 24 25  1  0
 24 26  1  0
 24 27  1  0
 27 28  1  0
 27 29  1  0
 27 30  1  0
 30 31  1  0
 30 32  1  0
 13 33  1  0
 33 34  1  0
 33 35  2  0
 35 36  1  0
  4 37  1  0
 37 38  1  0
 38 39  1  0
 38  2  2  0
 35  8  1  0
 30 21  1  0
M  CHG  2   3  -1  17  -1
M  END
>  <UniqueID>  (29) 
25

>  <SMILES>  (29) 
O=C(/N=c1/[n-]ccs1)c1ccc(S(=O)(=O)[N-]C[C@H]2CCCO2)cc1

>  <Energy>  (29) 
75.64806516659577

>  <Genealogy>  (29) 
O=C(N=c1[n-]ccs1)c1ccc(S(=O)(=O)[N-]CC2CCCO2)cc1 (protonated)
O=C(N=c1[n-]ccs1)c1ccc(S(=O)(=O)[N-]C[C@H]2CCCO2)cc1 (chirality)
O=C(/N=c1/[n-]ccs1)c1ccc(S(=O)(=O)[N-]C[C@H]2CCCO2)cc1 (cis-trans isomerization)
O=C(/N=c1/[n-]ccs1)c1ccc(S(=O)(=O)[N-]C[C@H]2CCCO2)cc1 (3D coordinates assigned)
O=C(/N=c1/[n-]ccs1)c1ccc(S(=O)(=O)[N-]C[C@H]2CCCO2)cc1 (nonaromatic ring conformer: 75.64806516659577 kcal/mol)

>  <smiles>  (29) 
O=C(N=c1[nH]ccs1)c1ccc(S(=O)(=O)NCC2CCCO2)cc1

>  <score_type>  (29) 
oracle

>  <origin>  (29) 
adg

>  <m_score__min__energy>  (29) 
-10.800000000000001

>  <m_primary>  (29) 
energy

$$$$
29:0
     RDKit          3D

 57 60  0  0  0  0  0  0  0  0999 V2000
   56.6250   25.5000   43.5890 H   0  0  0  0  0  0  0  0  0  0  0  0
   56.5460   24.5710   43.2040 O   0  0  0  0  0  0  0  0  0  0  0  0
   56.5450   23.4240   44.0010 C   0  0  0  0  0  0  0  0  0  0  0  0
   56.9760   22.2310   43.4110 C   0  0  0  0  0  0  0  0  0  0  0  0
   57.1516   22.1897   42.3259 H   0  0  0  0  0  0  0  0  0  0  0  0
   57.1840   21.0950   44.1900 C   0  0  0  0  0  0  0  0  0  0  0  0
   57.5224   20.1569   43.7259 H   0  0  0  0  0  0  0  0  0  0  0  0
   56.9590   21.1600   45.5620 C   0  0  0  0  0  0  0  0  0  0  0  0
   57.1642   20.2844   46.1955 H   0  0  0  0  0  0  0  0  0  0  0  0
   56.4860   22.3050   46.1180 N   0  0  0  0  0  0  0  0  0  0  0  0
   56.2210   23.4240   45.3880 C   0  0  0  0  0  0  0  0  0  0  0  0
   55.6510   24.4220   46.0080 N   0  0  0  0  0  0  0  0  0  0  0  0
   56.0240   25.8060   46.0160 C   0  0  0  0  0  0  0  0  0  0  0  0
   55.1390   26.7090   45.9960 O   0  0  0  0  0  0  0  0  0  0  0  0
   57.4560   26.1900   46.1980 C   0  0  0  0  0  0  0  0  0  0  0  0
   57.9659   25.4154   46.7896 H   0  0  0  0  0  0  0  0  0  0  0  0
   57.5009   27.1574   46.7197 H   0  0  0  0  0  0  0  0  0  0  0  0
   58.1210   26.3210   44.9020 N   0  0  0  0  0  0  0  0  0  0  0  0
   57.9400   27.3860   43.9510 C   0  0  0  0  0  0  0  0  0  0  0  0
   57.7630   27.0870   42.7390 O   0  0  0  0  0  0  0  0  0  0  0  0
   57.9780   28.8170   44.3320 C   0  0  0  0  0  0  0  0  0  0  0  0
   58.8040   29.2610   45.3750 C   0  0  0  0  0  0  0  0  0  0  0  0
   59.4423   28.5422   45.9096 H   0  0  0  0  0  0  0  0  0  0  0  0
   58.8220   30.6100   45.7400 C   0  0  0  0  0  0  0  0  0  0  0  0
   59.4913   30.9469   46.5454 H   0  0  0  0  0  0  0  0  0  0  0  0
   57.9940   31.5410   45.0890 C   0  0  0  0  0  0  0  0  0  0  0  0
   57.9960   33.2250   45.6660 S   0  0  0  0  0  0  0  0  0  0  0  0
   58.0500   34.1270   44.4670 O   0  0  0  0  0  0  0  0  0  0  0  0
   56.6920   33.4630   46.3770 O   0  0  0  0  0  0  0  0  0  0  0  0
   59.2740   33.6670   46.7800 N   0  0  0  0  0  0  0  0  0  0  0  0
   60.5950   33.2230   46.3000 C   0  0  0  0  0  0  0  0  0  0  0  0
   60.5464   32.1470   46.0767 H   0  0  0  0  0  0  0  0  0  0  0  0
   60.8406   33.8102   45.4028 H   0  0  0  0  0  0  0  0  0  0  0  0
   61.6890   33.4590   47.3200 C   0  0  0  0  0  0  0  0  0  0  0  0
   63.0280   33.3310   46.9210 C   0  0  0  0  0  0  0  0  0  0  0  0
   63.2673   33.0993   45.8726 H   0  0  0  0  0  0  0  0  0  0  0  0
   64.0550   33.4960   47.8460 C   0  0  0  0  0  0  0  0  0  0  0  0
   65.1025   33.4000   47.5243 H   0  0  0  0  0  0  0  0  0  0  0  0
   63.7610   33.7830   49.1810 C   0  0  0  0  0  0  0  0  0  0  0  0
   64.5796   33.9106   49.9046 H   0  0  0  0  0  0  0  0  0  0  0  0
   62.4290   33.9100   49.6070 C   0  0  0  0  0  0  0  0  0  0  0  0
   62.1060   34.2210   50.9380 O   0  0  0  0  0  0  0  0  0  0  0  0
   61.9510   33.2540   51.9780 C   0  0  0  0  0  0  0  0  0  0  0  0
   62.0307   33.7513   52.9559 H   0  0  0  0  0  0  0  0  0  0  0  0
   60.9646   32.7752   51.8894 H   0  0  0  0  0  0  0  0  0  0  0  0
   62.7383   32.4909   51.8894 H   0  0  0  0  0  0  0  0  0  0  0  0
   61.3850   33.7270   48.6750 C   0  0  0  0  0  0  0  0  0  0  0  0
   59.9480   33.9160   49.1080 C   0  0  0  0  0  0  0  0  0  0  0  0
   59.8180   33.4939   50.1154 H   0  0  0  0  0  0  0  0  0  0  0  0
   59.7219   34.9925   49.1074 H   0  0  0  0  0  0  0  0  0  0  0  0
   58.9880   33.2190   48.1480 C   0  0  0  0  0  0  0  0  0  0  0  0
   59.1244   32.1296   48.2158 H   0  0  0  0  0  0  0  0  0  0  0  0
   57.9500   33.4691   48.4124 H   0  0  0  0  0  0  0  0  0  0  0  0
   57.1350   31.0880   44.0720 C   0  0  0  0  0  0  0  0  0  0  0  0
   56.4610   31.7975   43.5697 H   0  0  0  0  0  0  0  0  0  0  0  0
   57.1320   29.7380   43.6940 C   0  0  0  0  0  0  0  0  0  0  0  0
   56.4615   29.3977   42.8912 H   0  0  0  0  0  0  0  0  0  0  0  0
  1  2  1  0
  2  3  1  0
  3  4  2  0
  4  5  1  0
  4  6  1  0
  6  7  1  0
  6  8  2  0
  8  9  1  0
  8 10  1  0
 10 11  1  0
 11 12  2  0
 12 13  1  0
 13 14  2  0
 13 15  1  0
 15 16  1  0
 15 17  1  0
 15 18  1  0
 18 19  1  0
 19 20  2  0
 19 21  1  0
 21 22  2  0
 22 23  1  0
 22 24  1  0
 24 25  1  0
 24 26  2  0
 26 27  1  0
 27 28  2  0
 27 29  2  0
 27 30  1  0
 30 31  1  0
 31 32  1  0
 31 33  1  0
 31 34  1  0
 34 35  2  0
 35 36  1  0
 35 37  1  0
 37 38  1  0
 37 39  2  0
 39 40  1  0
 39 41  1  0
 41 42  1  0
 42 43  1  0
 43 44  1  0
 43 45  1  0
 43 46  1  0
 41 47  2  0
 47 48  1  0
 48 49  1  0
 48 50  1  0
 48 51  1  0
 51 52  1  0
 51 53  1  0
 26 54  1  0
 54 55  1  0
 54 56  2  0
 56 57  1  0
 11  3  1  0
 56 21  1  0
 51 30  1  0
 47 34  1  0
M  CHG  2  10  -1  18  -1
M  END
>  <UniqueID>  (30) 
26

>  <SMILES>  (30) 
COc1cccc2c1CCN(S(=O)(=O)c1ccc(C(=O)[N-]CC(=O)/N=c3/[n-]cccc3O)cc1)C2

>  <Energy>  (30) 
82.57195120643313

>  <Genealogy>  (30) 
COc1cccc2c1CCN(S(=O)(=O)c1ccc(C(=O)[N-]CC(=O)N=c3[n-]cccc3O)cc1)C2 (protonated)
COc1cccc2c1CCN(S(=O)(=O)c1ccc(C(=O)[N-]CC(=O)/N=c3/[n-]cccc3O)cc1)C2 (cis-trans isomerization)
COc1cccc2c1CCN(S(=O)(=O)c1ccc(C(=O)[N-]CC(=O)/N=c3/[n-]cccc3O)cc1)C2 (3D coordinates assigned)
COc1cccc2c1CCN(S(=O)(=O)c1ccc(C(=O)[N-]CC(=O)/N=c3/[n-]cccc3O)cc1)C2 (nonaromatic ring conformer: 82.57195120643313 kcal/mol)

>  <smiles>  (30) 
COc1cccc2c1CCN(S(=O)(=O)c1ccc(C(=O)NCC(=O)N=c3[nH]cccc3O)cc1)C2

>  <score_type>  (30) 
oracle

>  <origin>  (30) 
adg

>  <m_score__min__energy>  (30) 
-13.23

>  <m_primary>  (30) 
energy

$$$$
30:0
     RDKit          3D

 67 70  0  0  1  0  0  0  0  0999 V2000
   56.6410   29.7490   42.3690 N   0  0  0  0  0  0  0  0  0  0  0  0
   56.3530   29.8440   44.0700 S   0  0  0  0  0  0  0  0  0  0  0  0
   54.9840   29.3400   44.4060 O   0  0  0  0  0  0  0  0  0  0  0  0
   56.4070   31.2920   44.5040 O   0  0  0  0  0  0  0  0  0  0  0  0
   57.6040   29.0200   44.9690 C   0  0  0  0  0  0  0  0  0  0  0  0
   57.3310   27.9640   45.8160 C   0  0  0  0  0  0  0  0  0  0  0  0
   58.3130   27.3190   46.5210 C   0  0  0  0  0  0  0  0  0  0  0  0
   59.6120   27.7170   46.3970 C   0  0  0  0  0  0  0  0  0  0  0  0
   60.7310   27.0570   47.1340 C   0  0  0  0  0  0  0  0  0  0  0  0
   60.3260   27.1480   48.6160 C   0  0  0  0  0  0  0  0  0  0  0  0
   60.8380   28.4450   49.0450 N   0  0  0  0  0  0  0  0  0  0  0  0
   60.0750   29.4520   49.2810 C   0  0  0  0  0  0  0  0  0  0  0  0
   59.9480   30.4370   48.2950 C   0  0  0  0  0  0  0  0  0  0  0  0
   59.1400   31.5480   48.4870 C   0  0  0  0  0  0  0  0  0  0  0  0
   59.0110   32.5740   47.4630 C   0  0  0  0  0  0  0  0  0  0  0  0
   60.0250   33.4130   47.0850 C   0  0  0  0  0  0  0  0  0  0  0  0
   59.9140   34.3880   46.1170 C   0  0  0  0  0  0  0  0  0  0  0  0
   58.6960   34.5560   45.4590 C   0  0  0  0  0  0  0  0  0  0  0  0
   57.6800   33.7290   45.8250 C   0  0  0  0  0  0  0  0  0  0  0  0
   57.7930   32.7470   46.8000 C   0  0  0  0  0  0  0  0  0  0  0  0
   58.4980   31.6020   49.6740 N   0  0  0  0  0  0  0  0  0  0  0  0
   58.6350   30.6350   50.6160 C   0  0  0  0  0  0  0  0  0  0  0  0
   58.0100   30.7290   51.7210 N   0  0  0  0  0  0  0  0  0  0  0  0
   56.8280   29.9720   52.0820 C   0  0  0  0  0  0  0  0  0  0  0  0
   55.6710   30.9440   52.3210 C   0  0  0  0  0  0  0  0  0  0  0  0
   54.4010   30.2560   51.9290 C   0  0  0  0  0  0  0  0  0  0  0  0
   53.3130   31.1350   51.6010 N   0  0  0  0  0  0  0  0  0  0  0  0
   52.5030   30.6000   50.5410 C   0  0  0  0  0  0  0  0  0  0  0  0
   51.3840   31.5170   50.1770 C   0  0  0  0  0  0  0  0  0  0  0  0
   50.9000   32.2540   51.2550 O   0  0  0  0  0  0  0  0  0  0  0  0
   51.0490   31.5940   52.4580 C   0  0  0  0  0  0  0  0  0  0  0  0
   52.4780   31.2620   52.7830 C   0  0  0  0  0  0  0  0  0  0  0  0
   59.4200   29.5550   50.4320 N   0  0  0  0  0  0  0  0  0  0  0  0
   59.9340   28.7680   45.5630 C   0  0  0  0  0  0  0  0  0  0  0  0
   58.9270   29.4020   44.8630 C   0  0  0  0  0  0  0  0  0  0  0  0
   57.5460   29.3270   42.1420 H   0  0  0  0  0  0  0  0  0  0  0  0
   55.8820   29.2400   41.8890 H   0  0  0  0  0  0  0  0  0  0  0  0
   56.2893   27.6291   45.9286 H   0  0  0  0  0  0  0  0  0  0  0  0
   58.0544   26.4817   47.1859 H   0  0  0  0  0  0  0  0  0  0  0  0
   60.8346   26.0069   46.8234 H   0  0  0  0  0  0  0  0  0  0  0  0
   61.7011   27.5364   46.9362 H   0  0  0  0  0  0  0  0  0  0  0  0
   59.2323   27.1041   48.7255 H   0  0  0  0  0  0  0  0  0  0  0  0
   60.7260   26.3167   49.2151 H   0  0  0  0  0  0  0  0  0  0  0  0
   60.4996   30.3281   47.3495 H   0  0  0  0  0  0  0  0  0  0  0  0
   60.9962   33.3011   47.5892 H   0  0  0  0  0  0  0  0  0  0  0  0
   60.7750   35.0253   45.8668 H   0  0  0  0  0  0  0  0  0  0  0  0
   58.5631   35.3215   44.6804 H   0  0  0  0  0  0  0  0  0  0  0  0
   56.7107   33.8452   45.3181 H   0  0  0  0  0  0  0  0  0  0  0  0
   56.9310   32.1105   47.0485 H   0  0  0  0  0  0  0  0  0  0  0  0
   57.8720   32.3850   49.9180 H   0  0  0  0  0  0  0  0  0  0  0  0
   56.5679   29.2819   51.2658 H   0  0  0  0  0  0  0  0  0  0  0  0
   57.0219   29.3914   52.9960 H   0  0  0  0  0  0  0  0  0  0  0  0
   55.6315   31.2233   53.3842 H   0  0  0  0  0  0  0  0  0  0  0  0
   55.8103   31.8580   51.7251 H   0  0  0  0  0  0  0  0  0  0  0  0
   54.6098   29.6281   51.0503 H   0  0  0  0  0  0  0  0  0  0  0  0
   54.0779   29.6803   52.8089 H   0  0  0  0  0  0  0  0  0  0  0  0
   53.1358   30.4424   49.6551 H   0  0  0  0  0  0  0  0  0  0  0  0
   52.0666   29.6529   50.8911 H   0  0  0  0  0  0  0  0  0  0  0  0
   51.7432   32.2176   49.4088 H   0  0  0  0  0  0  0  0  0  0  0  0
   50.5559   30.8906   49.8139 H   0  0  0  0  0  0  0  0  0  0  0  0
   50.6488   32.2335   53.2586 H   0  0  0  0  0  0  0  0  0  0  0  0
   50.5048   30.6416   52.3757 H   0  0  0  0  0  0  0  0  0  0  0  0
   52.8881   32.0612   53.4179 H   0  0  0  0  0  0  0  0  0  0  0  0
   52.4819   30.2886   53.2954 H   0  0  0  0  0  0  0  0  0  0  0  0
   59.5290   28.8170   51.1410 H   0  0  0  0  0  0  0  0  0  0  0  0
   60.9786   29.0962   45.4573 H   0  0  0  0  0  0  0  0  0  0  0  0
   59.1870   30.2393   44.1987 H   0  0  0  0  0  0  0  0  0  0  0  0
  1  2  1  0
  2  3  2  0
  2  4  2  0
  2  5  1  0
  5  6  2  0
  6  7  1  0
  7  8  2  0
  8  9  1  0
  9 10  1  0
 10 11  1  0
 11 12  2  0
 12 13  1  0
 13 14  2  0
 14 15  1  0
 15 16  2  0
 16 17  1  0
 17 18  2  0
 18 19  1  0
 19 20  2  0
 14 21  1  0
 21 22  1  0
 22 23  2  0
 23 24  1  0
 24 25  1  0
 25 26  1  0
 26 27  1  0
 27 28  1  0
 28 29  1  0
 29 30  1  0
 30 31  1  0
 31 32  1  0
 22 33  1  0
  8 34  1  0
 34 35  2  0
 35  5  1  0
 33 12  1  0
 20 15  1  0
 32 27  1  0
  1 36  1  0
  1 37  1  0
  6 38  1  0
  7 39  1  0
  9 40  1  0
  9 41  1  0
 10 42  1  0
 10 43  1  0
 13 44  1  0
 16 45  1  0
 17 46  1  0
 18 47  1  0
 19 48  1  0
 20 49  1  0
 21 50  1  0
 24 51  1  0
 24 52  1  0
 25 53  1  0
 25 54  1  0
 26 55  1  0
 26 56  1  0
 28 57  1  0
 28 58  1  0
 29 59  1  0
 29 60  1  0
 31 61  1  0
 31 62  1  0
 32 63  1  0
 32 64  1  0
 33 65  1  0
 34 66  1  0
 35 67  1  0
M  END
>  <smiles>  (31) 
NS(=O)(=O)c1ccc(CCN=c2cc(-c3ccccc3)[nH]c(=NCCCN3CCOCC3)[nH]2)cc1

>  <score_type>  (31) 
oracle

>  <origin>  (31) 
adg

>  <m_score__min__energy>  (31) 
-11.58

>  <m_primary>  (31) 
energy

$$$$
31:0
     RDKit          3D

 67 70  0  0  0  0  0  0  0  0999 V2000
   66.7210   32.8530   50.4520 C   0  0  0  0  0  0  0  0  0  0  0  0
   65.5270   33.4410   49.9450 O   0  0  0  0  0  0  0  0  0  0  0  0
   64.4570   32.7160   49.4010 C   0  0  0  0  0  0  0  0  0  0  0  0
   63.7480   31.8460   50.2370 C   0  0  0  0  0  0  0  0  0  0  0  0
   62.6720   31.1040   49.7440 C   0  0  0  0  0  0  0  0  0  0  0  0
   62.2890   31.2180   48.3980 C   0  0  0  0  0  0  0  0  0  0  0  0
   61.1410   30.4030   47.8570 C   0  0  0  0  0  0  0  0  0  0  0  0
   60.4200   29.7250   48.9430 N   0  0  0  0  0  0  0  0  0  0  0  0
   59.4490   30.4730   49.7480 C   0  0  0  0  0  0  0  0  0  0  0  0
   60.5520   28.3000   49.1230 C   0  0  0  0  0  0  0  0  0  0  0  0
   61.0570   27.8450   50.1820 O   0  0  0  0  0  0  0  0  0  0  0  0
   60.1590   27.3760   48.1010 N   0  0  0  0  0  0  0  0  0  0  0  0
   59.0660   27.5360   47.1860 C   0  0  0  0  0  0  0  0  0  0  0  0
   59.0040   28.7100   46.4280 C   0  0  0  0  0  0  0  0  0  0  0  0
   57.9600   28.9230   45.5120 C   0  0  0  0  0  0  0  0  0  0  0  0
   57.8960   30.1810   44.7270 C   0  0  0  0  0  0  0  0  0  0  0  0
   57.4020   30.1740   43.4120 C   0  0  0  0  0  0  0  0  0  0  0  0
   57.3510   31.3550   42.6710 C   0  0  0  0  0  0  0  0  0  0  0  0
   57.7870   32.5570   43.2300 C   0  0  0  0  0  0  0  0  0  0  0  0
   58.2810   32.5920   44.5460 C   0  0  0  0  0  0  0  0  0  0  0  0
   58.7340   33.8690   45.1480 C   0  0  0  0  0  0  0  0  0  0  0  0
   59.5000   34.6350   44.5030 O   0  0  0  0  0  0  0  0  0  0  0  0
   58.3070   34.2370   46.4620 N   0  0  0  0  0  0  0  0  0  0  0  0
   59.2260   34.7570   47.4640 C   0  0  0  0  0  0  0  0  0  0  0  0
   60.6370   34.2160   47.3310 C   0  0  0  0  0  0  0  0  0  0  0  0
   59.7170   33.6910   48.4230 C   0  0  0  0  0  0  0  0  0  0  0  0
   58.3340   31.3960   45.2860 C   0  0  0  0  0  0  0  0  0  0  0  0
   56.9830   27.9290   45.3470 C   0  0  0  0  0  0  0  0  0  0  0  0
   57.0560   26.7270   46.0640 C   0  0  0  0  0  0  0  0  0  0  0  0
   56.0150   25.6990   45.8620 C   0  0  0  0  0  0  0  0  0  0  0  0
   54.8030   26.0290   45.9860 O   0  0  0  0  0  0  0  0  0  0  0  0
   56.3540   24.3410   45.5210 N   0  0  0  0  0  0  0  0  0  0  0  0
   55.4320   23.2630   45.8880 C   0  0  0  0  0  0  0  0  0  0  0  0
   57.5380   24.0630   44.7000 C   0  0  0  0  0  0  0  0  0  0  0  0
   58.0950   26.5300   46.9920 C   0  0  0  0  0  0  0  0  0  0  0  0
   58.1600   25.3430   47.7130 O   0  0  0  0  0  0  0  0  0  0  0  0
   62.9990   32.0900   47.5570 C   0  0  0  0  0  0  0  0  0  0  0  0
   64.0740   32.8330   48.0510 C   0  0  0  0  0  0  0  0  0  0  0  0
   66.6972   32.8647   51.5517 H   0  0  0  0  0  0  0  0  0  0  0  0
   66.7972   31.8143   50.0979 H   0  0  0  0  0  0  0  0  0  0  0  0
   67.5908   33.4258   50.0979 H   0  0  0  0  0  0  0  0  0  0  0  0
   64.0408   31.7455   51.2925 H   0  0  0  0  0  0  0  0  0  0  0  0
   62.1218   30.4268   50.4139 H   0  0  0  0  0  0  0  0  0  0  0  0
   60.4461   31.0691   47.3246 H   0  0  0  0  0  0  0  0  0  0  0  0
   61.5433   29.6408   47.1735 H   0  0  0  0  0  0  0  0  0  0  0  0
   59.6572   30.3126   50.8161 H   0  0  0  0  0  0  0  0  0  0  0  0
   59.5288   31.5453   49.5159 H   0  0  0  0  0  0  0  0  0  0  0  0
   58.4326   30.1222   49.5159 H   0  0  0  0  0  0  0  0  0  0  0  0
   59.7831   29.4768   46.5507 H   0  0  0  0  0  0  0  0  0  0  0  0
   57.0533   29.2319   42.9639 H   0  0  0  0  0  0  0  0  0  0  0  0
   56.9652   31.3386   41.6410 H   0  0  0  0  0  0  0  0  0  0  0  0
   57.7440   33.4828   42.6375 H   0  0  0  0  0  0  0  0  0  0  0  0
   58.7854   35.7598   47.5654 H   0  0  0  0  0  0  0  0  0  0  0  0
   60.9020   33.5734   46.4785 H   0  0  0  0  0  0  0  0  0  0  0  0
   61.6427   34.6611   47.3073 H   0  0  0  0  0  0  0  0  0  0  0  0
   59.3168   32.6683   48.3606 H   0  0  0  0  0  0  0  0  0  0  0  0
   59.7816   33.5987   49.5172 H   0  0  0  0  0  0  0  0  0  0  0  0
   58.7229   31.4111   46.3148 H   0  0  0  0  0  0  0  0  0  0  0  0
   56.1508   28.0952   44.6472 H   0  0  0  0  0  0  0  0  0  0  0  0
   55.3701   23.1906   46.9839 H   0  0  0  0  0  0  0  0  0  0  0  0
   54.4343   23.4783   45.4778 H   0  0  0  0  0  0  0  0  0  0  0  0
   55.7994   22.3108   45.4778 H   0  0  0  0  0  0  0  0  0  0  0  0
   58.3987   23.8609   45.3544 H   0  0  0  0  0  0  0  0  0  0  0  0
   57.3461   23.1855   44.0651 H   0  0  0  0  0  0  0  0  0  0  0  0
   57.7567   24.9342   44.0651 H   0  0  0  0  0  0  0  0  0  0  0  0
   62.7065   32.1888   46.5012 H   0  0  0  0  0  0  0  0  0  0  0  0
   64.6235   33.5122   47.3826 H   0  0  0  0  0  0  0  0  0  0  0  0
  1  2  1  0
  2  3  1  0
  3  4  2  0
  4  5  1  0
  5  6  2  0
  6  7  1  0
  7  8  1  0
  8  9  1  0
  8 10  1  0
 10 11  2  0
 10 12  1  0
 12 13  1  0
 13 14  2  0
 14 15  1  0
 15 16  1  0
 16 17  2  0
 17 18  1  0
 18 19  2  0
 19 20  1  0
 20 21  1  0
 21 22  2  0
 21 23  1  0
 23 24  1  0
 24 25  1  0
 25 26  1  0
 20 27  2  0
 15 28  2  0
 28 29  1  0
 29 30  1  0
 30 31  2  0
 30 32  1  0
 32 33  1  0
 32 34  1  0
 29 35  2  0
 35 36  1  0
  6 37  1  0
 37 38  2  0
 38  3  1  0
 35 13  1  0
 27 16  1  0
 26 24  1  0
  1 39  1  0
  1 40  1  0
  1 41  1  0
  4 42  1  0
  5 43  1  0
  7 44  1  0
  7 45  1  0
  9 46  1  0
  9 47  1  0
  9 48  1  0
 14 49  1  0
 17 50  1  0
 18 51  1  0
 19 52  1  0
 24 53  1  0
 25 54  1  0
 25 55  1  0
 26 56  1  0
 26 57  1  0
 27 58  1  0
 28 59  1  0
 33 60  1  0
 33 61  1  0
 33 62  1  0
 34 63  1  0
 34 64  1  0
 34 65  1  0
 37 66  1  0
 38 67  1  0
M  CHG  3  12  -1  23  -1  36  -1
M  END
>  <UniqueID>  (32) 
27

>  <SMILES>  (32) 
COc1ccc(CN(C)C(=O)[N-]c2cc(-c3cccc(C(=O)[N-]C4CC4)c3)cc(C(=O)N(C)C)c2[O-])cc1

>  <Energy>  (32) 
348.0998882380768

>  <Genealogy>  (32) 
COc1ccc(CN(C)C(=O)[N-]c2cc(-c3cccc(C(=O)[N-]C4CC4)c3)cc(C(=O)N(C)C)c2[O-])cc1 (protonated)
COc1ccc(CN(C)C(=O)[N-]c2cc(-c3cccc(C(=O)[N-]C4CC4)c3)cc(C(=O)N(C)C)c2[O-])cc1 (3D coordinates assigned)
COc1ccc(CN(C)C(=O)[N-]c2cc(-c3cccc(C(=O)[N-]C4CC4)c3)cc(C(=O)N(C)C)c2[O-])cc1 (nonaromatic ring conformer: 348.0998882380768 kcal/mol)

>  <smiles>  (32) 
COc1ccc(CN(C)C(=O)Nc2cc(-c3cccc(C(=O)NC4CC4)c3)cc(C(=O)N(C)C)c2O)cc1

>  <score_type>  (32) 
oracle

>  <origin>  (32) 
adg

>  <m_score__min__energy>  (32) 
-13.42

>  <m_primary>  (32) 
energy

$$$$
32:0
     RDKit          3D

 42 44  0  0  0  0  0  0  0  0999 V2000
   59.0703   35.3163   46.8614 H   0  0  0  0  0  0  0  0  0  0  0  0
   58.6920   34.4950   46.2350 C   0  0  0  0  0  0  0  0  0  0  0  0
   59.0100   34.4500   44.8740 C   0  0  0  0  0  0  0  0  0  0  0  0
   59.6431   35.2333   44.4317 H   0  0  0  0  0  0  0  0  0  0  0  0
   58.5240   33.4100   44.0740 C   0  0  0  0  0  0  0  0  0  0  0  0
   58.7806   33.3749   43.0049 H   0  0  0  0  0  0  0  0  0  0  0  0
   57.7090   32.4100   44.6320 C   0  0  0  0  0  0  0  0  0  0  0  0
   57.1760   31.2970   43.7670 C   0  0  0  0  0  0  0  0  0  0  0  0
   58.0189   30.6988   43.3906 H   0  0  0  0  0  0  0  0  0  0  0  0
   56.6149   31.7406   42.9313 H   0  0  0  0  0  0  0  0  0  0  0  0
   56.2740   30.4290   44.5260 N   0  0  0  0  0  0  0  0  0  0  0  0
   56.6480   29.4100   45.2410 C   0  0  0  0  0  0  0  0  0  0  0  0
   57.7710   29.4650   46.0070 N   0  0  0  0  0  0  0  0  0  0  0  0
   58.1450   28.3990   46.7630 C   0  0  0  0  0  0  0  0  0  0  0  0
   59.3270   28.4630   47.5900 N   0  0  0  0  0  0  0  0  0  0  0  0
   60.3130   29.5420   47.4240 C   0  0  0  0  0  0  0  0  0  0  0  0
   61.1548   29.1673   46.8232 H   0  0  0  0  0  0  0  0  0  0  0  0
   59.8184   30.3867   46.9221 H   0  0  0  0  0  0  0  0  0  0  0  0
   60.8490   30.0350   48.7860 C   0  0  0  0  0  0  0  0  0  0  0  0
   61.8959   30.3454   48.6536 H   0  0  0  0  0  0  0  0  0  0  0  0
   60.1979   30.8630   49.1029 H   0  0  0  0  0  0  0  0  0  0  0  0
   60.7980   29.0170   49.8580 N   0  0  0  0  0  0  0  0  0  0  0  0
   59.9130   29.1320   50.4060 H   0  0  0  0  0  0  0  0  0  0  0  0
   61.5990   29.1730   50.5140 H   0  0  0  0  0  0  0  0  0  0  0  0
   60.8700   27.6450   49.3430 C   0  0  0  0  0  0  0  0  0  0  0  0
   61.7750   27.5336   48.7277 H   0  0  0  0  0  0  0  0  0  0  0  0
   60.9060   26.9426   50.1888 H   0  0  0  0  0  0  0  0  0  0  0  0
   59.6350   27.3420   48.4890 C   0  0  0  0  0  0  0  0  0  0  0  0
   59.8260   26.4409   47.8877 H   0  0  0  0  0  0  0  0  0  0  0  0
   58.7766   27.1844   49.1586 H   0  0  0  0  0  0  0  0  0  0  0  0
   57.3860   27.2710   46.7420 N   0  0  0  0  0  0  0  0  0  0  0  0
   56.2650   27.2050   45.9750 C   0  0  0  0  0  0  0  0  0  0  0  0
   55.5360   26.1320   45.9490 N   0  0  0  0  0  0  0  0  0  0  0  0
   56.0300   24.8030   46.2960 C   0  0  0  0  0  0  0  0  0  0  0  0
   56.0682   24.7003   47.3905 H   0  0  0  0  0  0  0  0  0  0  0  0
   55.3552   24.0407   45.8795 H   0  0  0  0  0  0  0  0  0  0  0  0
   57.0389   24.6665   45.8795 H   0  0  0  0  0  0  0  0  0  0  0  0
   55.9000   28.2780   45.2280 N   0  0  0  0  0  0  0  0  0  0  0  0
   57.4090   32.4540   46.0040 C   0  0  0  0  0  0  0  0  0  0  0  0
   56.7898   31.6644   46.4547 H   0  0  0  0  0  0  0  0  0  0  0  0
   57.8940   33.4970   46.7990 C   0  0  0  0  0  0  0  0  0  0  0  0
   57.6467   33.5316   47.8703 H   0  0  0  0  0  0  0  0  0  0  0  0
  1  2  1  0
  2  3  2  0
  3  4  1  0
  3  5  1  0
  5  6  1  0
  5  7  2  0
  7  8  1  0
  8  9  1  0
  8 10  1  0
  8 11  1  0
 11 12  2  0
 12 13  1  0
 13 14  2  0
 14 15  1  0
 15 16  1  0
 16 17  1  0
 16 18  1  0
 16 19  1  0
 19 20  1  0
 19 21  1  0
 19 22  1  0
 22 23  1  0
 22 24  1  0
 22 25  1  0
 25 26  1  0
 25 27  1  0
 25 28  1  0
 28 29  1  0
 28 30  1  0
 14 31  1  0
 31 32  1  0
 32 33  2  0
 33 34  1  0
 34 35  1  0
 34 36  1  0
 34 37  1  0
 32 38  1  0
  7 39  1  0
 39 40  1  0
 39 41  2  0
 41 42  1  0
 41  2  1  0
 38 12  1  0
 28 15  1  0
M  CHG  3  22   1  31  -1  38  -1
M  END
>  <UniqueID>  (33) 
28

>  <SMILES>  (33) 
C/N=c1\[n-]c(N2CC[NH2+]CC2)n/c(=N\Cc2ccccc2)[n-]1

>  <Energy>  (33) 
44.630080141239986

>  <Genealogy>  (33) 
CN=c1[n-]c(N2CC[NH2+]CC2)nc(=NCc2ccccc2)[n-]1 (protonated)
C/N=c1\[n-]c(N2CC[NH2+]CC2)n/c(=N\Cc2ccccc2)[n-]1 (cis-trans isomerization)
C/N=c1\[n-]c(N2CC[NH2+]CC2)n/c(=N\Cc2ccccc2)[n-]1 (3D coordinates assigned)
C/N=c1\[n-]c(N2CC[NH2+]CC2)n/c(=N\Cc2ccccc2)[n-]1 (nonaromatic ring conformer: 44.630080141239986 kcal/mol)

>  <smiles>  (33) 
CN=c1[nH]c(N2CCNCC2)nc(=NCc2ccccc2)[nH]1

>  <score_type>  (33) 
oracle

>  <origin>  (33) 
adg

>  <m_score__min__energy>  (33) 
-8.8599999999999994

>  <m_primary>  (33) 
energy

$$$$
33:0
     RDKit          3D

 52 55  0  0  0  0  0  0  0  0999 V2000
   59.1580   28.4330   47.4060 C   0  0  0  0  0  0  0  0  0  0  0  0
   58.7220   29.3480   46.5250 C   0  0  0  0  0  0  0  0  0  0  0  0
   57.7100   29.1920   45.5610 C   0  0  0  0  0  0  0  0  0  0  0  0
   57.0290   28.1020   45.1560 C   0  0  0  0  0  0  0  0  0  0  0  0
   57.1550   26.7490   45.7310 C   0  0  0  0  0  0  0  0  0  0  0  0
   56.0260   26.0820   46.2250 C   0  0  0  0  0  0  0  0  0  0  0  0
   54.7830   26.7080   46.2240 O   0  0  0  0  0  0  0  0  0  0  0  0
   56.1410   24.8190   46.7160 N   0  0  0  0  0  0  0  0  0  0  0  0
   57.3420   24.1790   46.7210 C   0  0  0  0  0  0  0  0  0  0  0  0
   57.4350   23.0110   47.1820 O   0  0  0  0  0  0  0  0  0  0  0  0
   58.4440   24.7960   46.2230 N   0  0  0  0  0  0  0  0  0  0  0  0
   58.3790   26.0560   45.7210 C   0  0  0  0  0  0  0  0  0  0  0  0
   59.4180   26.5880   45.2490 O   0  0  0  0  0  0  0  0  0  0  0  0
   57.4960   30.4510   45.0190 C   0  0  0  0  0  0  0  0  0  0  0  0
   58.4030   31.3030   45.6130 C   0  0  0  0  0  0  0  0  0  0  0  0
   58.5170   32.7680   45.3160 C   0  0  0  0  0  0  0  0  0  0  0  0
   59.1410   30.6390   46.5280 N   0  0  0  0  0  0  0  0  0  0  0  0
   60.1600   31.2160   47.3620 C   0  0  0  0  0  0  0  0  0  0  0  0
   61.4710   31.3140   46.8840 C   0  0  0  0  0  0  0  0  0  0  0  0
   62.4720   31.8790   47.6720 C   0  0  0  0  0  0  0  0  0  0  0  0
   62.1820   32.3630   48.9630 C   0  0  0  0  0  0  0  0  0  0  0  0
   63.2200   32.9530   49.7810 N   0  0  0  0  0  0  0  0  0  0  0  0
   62.9630   33.7570   50.9670 C   0  0  0  0  0  0  0  0  0  0  0  0
   64.3140   34.3040   51.4030 C   0  0  0  0  0  0  0  0  0  0  0  0
   65.3550   33.4310   50.7110 C   0  0  0  0  0  0  0  0  0  0  0  0
   64.6440   32.8100   49.5170 C   0  0  0  0  0  0  0  0  0  0  0  0
   60.8610   32.2560   49.4410 C   0  0  0  0  0  0  0  0  0  0  0  0
   59.8470   31.6800   48.6500 C   0  0  0  0  0  0  0  0  0  0  0  0
   58.5270   31.5450   49.1090 O   0  0  0  0  0  0  0  0  0  0  0  0
   58.1400   31.5730   50.4790 C   0  0  0  0  0  0  0  0  0  0  0  0
   59.9631   28.6880   48.1108 H   0  0  0  0  0  0  0  0  0  0  0  0
   58.7100   27.4285   47.4228 H   0  0  0  0  0  0  0  0  0  0  0  0
   56.3188   28.2320   44.3261 H   0  0  0  0  0  0  0  0  0  0  0  0
   55.2940   24.3360   47.0920 H   0  0  0  0  0  0  0  0  0  0  0  0
   56.7459   30.7185   44.2602 H   0  0  0  0  0  0  0  0  0  0  0  0
   58.5608   33.3312   46.2599 H   0  0  0  0  0  0  0  0  0  0  0  0
   59.4323   32.9542   44.7351 H   0  0  0  0  0  0  0  0  0  0  0  0
   57.6415   33.0936   44.7351 H   0  0  0  0  0  0  0  0  0  0  0  0
   61.7138   30.9420   45.8777 H   0  0  0  0  0  0  0  0  0  0  0  0
   63.4984   31.9477   47.2823 H   0  0  0  0  0  0  0  0  0  0  0  0
   62.2756   34.5819   50.7281 H   0  0  0  0  0  0  0  0  0  0  0  0
   62.4931   33.1615   51.7636 H   0  0  0  0  0  0  0  0  0  0  0  0
   64.4228   35.3526   51.0889 H   0  0  0  0  0  0  0  0  0  0  0  0
   64.4274   34.2815   52.4969 H   0  0  0  0  0  0  0  0  0  0  0  0
   66.2060   34.0419   50.3754 H   0  0  0  0  0  0  0  0  0  0  0  0
   65.7563   32.6632   51.3889 H   0  0  0  0  0  0  0  0  0  0  0  0
   64.9165   33.3392   48.5919 H   0  0  0  0  0  0  0  0  0  0  0  0
   64.9257   31.7551   49.3836 H   0  0  0  0  0  0  0  0  0  0  0  0
   60.6174   32.6278   50.4472 H   0  0  0  0  0  0  0  0  0  0  0  0
   59.0356   31.5082   51.1144 H   0  0  0  0  0  0  0  0  0  0  0  0
   57.6075   32.5120   50.6905 H   0  0  0  0  0  0  0  0  0  0  0  0
   57.4779   30.7204   50.6905 H   0  0  0  0  0  0  0  0  0  0  0  0
  1  2  2  0
  2  3  1  0
  3  4  2  3
  4  5  1  0
  5  6  2  0
  6  7  1  0
  6  8  1  0
  8  9  1  0
  9 10  2  0
  9 11  1  0
 11 12  1  0
 12 13  2  0
  3 14  1  0
 14 15  2  0
 15 16  1  0
 15 17  1  0
 17 18  1  0
 18 19  2  0
 19 20  1  0
 20 21  2  0
 21 22  1  0
 22 23  1  0
 23 24  1  0
 24 25  1  0
 25 26  1  0
 21 27  1  0
 27 28  2  0
 28 29  1  0
 29 30  1  0
 17  2  1  0
 28 18  1  0
 12  5  1  0
 26 22  1  0
  1 31  1  0
  1 32  1  0
  4 33  1  0
  8 34  1  0
 14 35  1  0
 16 36  1  0
 16 37  1  0
 16 38  1  0
 19 39  1  0
 20 40  1  0
 23 41  1  0
 23 42  1  0
 24 43  1  0
 24 44  1  0
 25 45  1  0
 25 46  1  0
 26 47  1  0
 26 48  1  0
 27 49  1  0
 30 50  1  0
 30 51  1  0
 30 52  1  0
M  CHG  2   7  -1  11  -1
M  END
>  <UniqueID>  (34) 
29

>  <SMILES>  (34) 
C=c1c(=Cc2c([O-])[nH]c(=O)[n-]c2=O)cc(C)n1-c1ccc(N2CCCC2)cc1OC

>  <Energy>  (34) 
104.41098457321074

>  <Genealogy>  (34) 
C=c1c(=Cc2c([O-])[nH]c(=O)[n-]c2=O)cc(C)n1-c1ccc(N2CCCC2)cc1OC (protonated)
C=c1c(=Cc2c([O-])[nH]c(=O)[n-]c2=O)cc(C)n1-c1ccc(N2CCCC2)cc1OC (3D coordinates assigned)
C=c1c(=Cc2c([O-])[nH]c(=O)[n-]c2=O)cc(C)n1-c1ccc(N2CCCC2)cc1OC (nonaromatic ring conformer: 104.41098457321074 kcal/mol)

>  <smiles>  (34) 
C=c1c(=Cc2c(O)[nH]c(=O)[nH]c2=O)cc(C)n1-c1ccc(N2CCCC2)cc1OC

>  <score_type>  (34) 
oracle

>  <origin>  (34) 
adg

>  <m_score__min__energy>  (34) 
-13.44

>  <m_primary>  (34) 
energy

$$$$
34:0
     RDKit          3D

 53 56  0  0  0  0  0  0  0  0999 V2000
   57.3547   34.8017   46.8408 H   0  0  0  0  0  0  0  0  0  0  0  0
   57.6280   33.8120   46.4460 C   0  0  0  0  0  0  0  0  0  0  0  0
   56.8410   33.1340   45.5650 N   0  0  0  0  0  0  0  0  0  0  0  0
   57.3900   31.9560   45.2070 C   0  0  0  0  0  0  0  0  0  0  0  0
   56.7700   31.1000   44.4460 N   0  0  0  0  0  0  0  0  0  0  0  0
   56.3640   29.7780   44.8400 C   0  0  0  0  0  0  0  0  0  0  0  0
   55.1480   29.4820   44.8850 O   0  0  0  0  0  0  0  0  0  0  0  0
   57.3790   28.7640   45.2050 C   0  0  0  0  0  0  0  0  0  0  0  0
   57.8680   27.8550   44.2530 C   0  0  0  0  0  0  0  0  0  0  0  0
   57.4993   27.8922   43.2173 H   0  0  0  0  0  0  0  0  0  0  0  0
   58.8210   26.9050   44.6200 C   0  0  0  0  0  0  0  0  0  0  0  0
   59.2192   26.2139   43.8625 H   0  0  0  0  0  0  0  0  0  0  0  0
   59.2750   26.8210   45.9360 C   0  0  0  0  0  0  0  0  0  0  0  0
   60.4580   25.5940   46.3660 Cl  0  0  0  0  0  0  0  0  0  0  0  0
   58.7790   27.7020   46.9090 C   0  0  0  0  0  0  0  0  0  0  0  0
   59.2290   27.5790   48.2360 O   0  0  0  0  0  0  0  0  0  0  0  0
   60.5430   27.9450   48.6750 C   0  0  0  0  0  0  0  0  0  0  0  0
   61.2873   27.4694   48.0194 H   0  0  0  0  0  0  0  0  0  0  0  0
   60.6736   27.6065   49.7135 H   0  0  0  0  0  0  0  0  0  0  0  0
   60.7280   29.4360   48.6290 C   0  0  0  0  0  0  0  0  0  0  0  0
   61.0000   29.9920   47.5310 O   0  0  0  0  0  0  0  0  0  0  0  0
   60.6240   30.2630   49.7970 N   0  0  0  0  0  0  0  0  0  0  0  0
   59.5490   30.6740   50.4120 C   0  0  0  0  0  0  0  0  0  0  0  0
   58.9460   31.8530   50.0970 N   0  0  0  0  0  0  0  0  0  0  0  0
   57.8160   32.2810   50.7280 C   0  0  0  0  0  0  0  0  0  0  0  0
   57.3675   33.2458   50.4486 H   0  0  0  0  0  0  0  0  0  0  0  0
   57.2260   31.5090   51.7210 C   0  0  0  0  0  0  0  0  0  0  0  0
   56.2973   31.8384   52.2100 H   0  0  0  0  0  0  0  0  0  0  0  0
   57.8350   30.3070   52.0860 C   0  0  0  0  0  0  0  0  0  0  0  0
   57.3951   29.6890   52.8826 H   0  0  0  0  0  0  0  0  0  0  0  0
   59.0040   29.8860   51.4410 C   0  0  0  0  0  0  0  0  0  0  0  0
   59.5910   28.7190   51.7940 F   0  0  0  0  0  0  0  0  0  0  0  0
   57.8410   28.6870   46.5320 C   0  0  0  0  0  0  0  0  0  0  0  0
   57.4680   29.4004   47.2817 H   0  0  0  0  0  0  0  0  0  0  0  0
   58.8680   31.6970   45.9770 S   0  0  0  0  0  0  0  0  0  0  0  0
   58.8090   33.1580   46.8120 C   0  0  0  0  0  0  0  0  0  0  0  0
   59.7920   33.6490   47.8150 C   0  0  0  0  0  0  0  0  0  0  0  0
   59.6230   34.7990   48.3090 O   0  0  0  0  0  0  0  0  0  0  0  0
   60.9320   32.8530   48.2450 N   0  0  0  0  0  0  0  0  0  0  0  0
   60.5460   31.9110   48.5060 H   0  0  0  0  0  0  0  0  0  0  0  0
   61.5050   33.4040   49.4980 C   0  0  0  0  0  0  0  0  0  0  0  0
   61.2691   34.4769   49.5553 H   0  0  0  0  0  0  0  0  0  0  0  0
   61.0652   32.8557   50.3441 H   0  0  0  0  0  0  0  0  0  0  0  0
   63.0110   33.2290   49.5560 C   0  0  0  0  0  0  0  0  0  0  0  0
   63.4055   33.6829   50.4771 H   0  0  0  0  0  0  0  0  0  0  0  0
   63.2746   32.1610   49.5559 H   0  0  0  0  0  0  0  0  0  0  0  0
   63.5570   33.8670   48.4400 O   0  0  0  0  0  0  0  0  0  0  0  0
   63.3490   33.0730   47.2990 C   0  0  0  0  0  0  0  0  0  0  0  0
   63.6320   33.6611   46.4135 H   0  0  0  0  0  0  0  0  0  0  0  0
   63.9644   32.1702   47.4264 H   0  0  0  0  0  0  0  0  0  0  0  0
   61.8800   32.5900   47.1150 C   0  0  0  0  0  0  0  0  0  0  0  0
   61.4766   33.0872   46.2206 H   0  0  0  0  0  0  0  0  0  0  0  0
   61.9457   31.4941   47.0458 H   0  0  0  0  0  0  0  0  0  0  0  0
  1  2  1  0
  2  3  1  0
  3  4  1  0
  4  5  2  0
  5  6  1  0
  6  7  2  0
  6  8  1  0
  8  9  2  0
  9 10  1  0
  9 11  1  0
 11 12  1  0
 11 13  2  0
 13 14  1  0
 13 15  1  0
 15 16  1  0
 16 17  1  0
 17 18  1  0
 17 19  1  0
 17 20  1  0
 20 21  2  0
 20 22  1  0
 22 23  2  3
 23 24  1  0
 24 25  1  0
 25 26  1  0
 25 27  2  0
 27 28  1  0
 27 29  1  0
 29 30  1  0
 29 31  2  0
 31 32  1  0
 15 33  2  0
 33 34  1  0
  4 35  1  0
 35 36  1  0
 36 37  1  0
 37 38  2  0
 37 39  1  0
 39 40  1  0
 39 41  1  0
 41 42  1  0
 41 43  1  0
 41 44  1  0
 44 45  1  0
 44 46  1  0
 44 47  1  0
 47 48  1  0
 48 49  1  0
 48 50  1  0
 48 51  1  0
 51 52  1  0
 51 53  1  0
 36  2  2  0
 51 39  1  0
 33  8  1  0
 31 23  1  0
M  CHG  3   3  -1  24  -1  39   1
M  END
>  <UniqueID>  (35) 
30

>  <SMILES>  (35) 
O=C(COc1cc(C(=O)/N=c2/[n-]cc(C(=O)[NH+]3CCOCC3)s2)ccc1Cl)N=c1[n-]cccc1F

>  <Energy>  (35) 
119.02398925441835

>  <Genealogy>  (35) 
O=C(COc1cc(C(=O)N=c2[n-]cc(C(=O)[NH+]3CCOCC3)s2)ccc1Cl)N=c1[n-]cccc1F (protonated)
O=C(COc1cc(C(=O)/N=c2/[n-]cc(C(=O)[NH+]3CCOCC3)s2)ccc1Cl)N=c1[n-]cccc1F (cis-trans isomerization)
O=C(COc1cc(C(=O)/N=c2/[n-]cc(C(=O)[NH+]3CCOCC3)s2)ccc1Cl)N=c1[n-]cccc1F (3D coordinates assigned)
O=C(COc1cc(C(=O)/N=c2/[n-]cc(C(=O)[NH+]3CCOCC3)s2)ccc1Cl)N=c1[n-]cccc1F (nonaromatic ring conformer: 119.02398925441835 kcal/mol)

>  <smiles>  (35) 
O=C(COc1cc(C(=O)N=c2[nH]cc(C(=O)N3CCOCC3)s2)ccc1Cl)N=c1[nH]cccc1F

>  <score_type>  (35) 
oracle

>  <origin>  (35) 
adg

>  <m_score__min__energy>  (35) 
-11.18

>  <m_primary>  (35) 
energy

$$$$
35:0
     RDKit          3D

 55 58  0  0  0  0  0  0  0  0999 V2000
   55.1450   27.9440   44.9710 H   0  0  0  0  0  0  0  0  0  0  0  0
   55.5280   28.8790   45.0480 O   0  0  0  0  0  0  0  0  0  0  0  0
   56.8540   29.0760   45.4280 C   0  0  0  0  0  0  0  0  0  0  0  0
   57.4380   30.2900   45.7330 C   0  0  0  0  0  0  0  0  0  0  0  0
   56.9464   31.2734   45.6978 H   0  0  0  0  0  0  0  0  0  0  0  0
   58.7200   30.0530   46.0820 N   0  0  0  0  0  0  0  0  0  0  0  0
   59.7040   31.0380   46.5310 C   0  0  0  0  0  0  0  0  0  0  0  0
   60.7023   30.7401   46.1779 H   0  0  0  0  0  0  0  0  0  0  0  0
   59.6894   31.0817   47.6300 H   0  0  0  0  0  0  0  0  0  0  0  0
   59.3680   32.4090   45.9800 C   0  0  0  0  0  0  0  0  0  0  0  0
   58.7410   32.4880   44.7220 C   0  0  0  0  0  0  0  0  0  0  0  0
   58.5547   31.5680   44.1485 H   0  0  0  0  0  0  0  0  0  0  0  0
   58.3530   33.7210   44.1940 C   0  0  0  0  0  0  0  0  0  0  0  0
   57.8604   33.7666   43.2115 H   0  0  0  0  0  0  0  0  0  0  0  0
   58.5880   34.8930   44.9080 C   0  0  0  0  0  0  0  0  0  0  0  0
   58.2701   35.8617   44.4949 H   0  0  0  0  0  0  0  0  0  0  0  0
   59.2270   34.8390   46.1480 C   0  0  0  0  0  0  0  0  0  0  0  0
   59.4109   35.7688   46.7062 H   0  0  0  0  0  0  0  0  0  0  0  0
   59.6380   33.6090   46.6910 C   0  0  0  0  0  0  0  0  0  0  0  0
   60.3630   33.6230   47.9800 C   0  0  0  0  0  0  0  0  0  0  0  0
   59.6980   33.9450   49.1700 C   0  0  0  0  0  0  0  0  0  0  0  0
   58.6318   34.2146   49.1473 H   0  0  0  0  0  0  0  0  0  0  0  0
   60.3670   33.9250   50.3520 N   0  0  0  0  0  0  0  0  0  0  0  0
   61.6850   33.5950   50.4440 C   0  0  0  0  0  0  0  0  0  0  0  0
   62.2330   33.5920   51.6280 N   0  0  0  0  0  0  0  0  0  0  0  0
   62.1340   32.6170   52.6790 C   0  0  0  0  0  0  0  0  0  0  0  0
   63.0570   32.4820   53.5250 O   0  0  0  0  0  0  0  0  0  0  0  0
   60.9180   31.8850   52.8710 N   0  0  0  0  0  0  0  0  0  0  0  0
   60.1370   31.2530   51.8470 C   0  0  0  0  0  0  0  0  0  0  0  0
   58.7890   31.5880   51.6270 C   0  0  0  0  0  0  0  0  0  0  0  0
   58.3030   32.3492   52.2550 H   0  0  0  0  0  0  0  0  0  0  0  0
   58.0650   30.9550   50.6110 C   0  0  0  0  0  0  0  0  0  0  0  0
   57.0046   31.2035   50.4570 H   0  0  0  0  0  0  0  0  0  0  0  0
   58.6840   30.0090   49.7920 C   0  0  0  0  0  0  0  0  0  0  0  0
   58.1068   29.5060   49.0022 H   0  0  0  0  0  0  0  0  0  0  0  0
   60.0390   29.6980   49.9730 C   0  0  0  0  0  0  0  0  0  0  0  0
   60.6950   28.6630   49.1050 C   0  0  0  0  0  0  0  0  0  0  0  0
   61.1761   27.9040   49.7393 H   0  0  0  0  0  0  0  0  0  0  0  0
   59.9361   28.1826   48.4699 H   0  0  0  0  0  0  0  0  0  0  0  0
   61.4533   29.1443   48.4699 H   0  0  0  0  0  0  0  0  0  0  0  0
   60.7580   30.3200   51.0060 C   0  0  0  0  0  0  0  0  0  0  0  0
   61.8192   30.0725   51.1566 H   0  0  0  0  0  0  0  0  0  0  0  0
   62.3780   33.2320   49.2690 C   0  0  0  0  0  0  0  0  0  0  0  0
   63.4361   32.9355   49.3192 H   0  0  0  0  0  0  0  0  0  0  0  0
   61.7110   33.2520   48.0430 C   0  0  0  0  0  0  0  0  0  0  0  0
   62.2468   32.9752   47.1231 H   0  0  0  0  0  0  0  0  0  0  0  0
   58.8830   28.7150   45.9850 C   0  0  0  0  0  0  0  0  0  0  0  0
   59.9580   28.1180   46.2630 O   0  0  0  0  0  0  0  0  0  0  0  0
   57.7610   28.0880   45.5720 N   0  0  0  0  0  0  0  0  0  0  0  0
   57.5400   26.6500   45.4280 C   0  0  0  0  0  0  0  0  0  0  0  0
   57.3093   26.4200   44.3774 H   0  0  0  0  0  0  0  0  0  0  0  0
   58.4484   26.1116   45.7360 H   0  0  0  0  0  0  0  0  0  0  0  0
   56.3970   26.2210   46.2920 C   0  0  0  0  0  0  0  0  0  0  0  0
   56.6080   25.5290   47.3230 O   0  0  0  0  0  0  0  0  0  0  0  0
   55.1070   26.6400   45.9940 O   0  0  0  0  0  0  0  0  0  0  0  0
  1  2  1  0
  2  3  1  0
  3  4  2  0
  4  5  1  0
  4  6  1  0
  6  7  1  0
  7  8  1  0
  7  9  1  0
  7 10  1  0
 10 11  2  0
 11 12  1  0
 11 13  1  0
 13 14  1  0
 13 15  2  0
 15 16  1  0
 15 17  1  0
 17 18  1  0
 17 19  2  0
 19 20  1  0
 20 21  2  0
 21 22  1  0
 21 23  1  0
 23 24  1  0
 24 25  2  0
 25 26  1  0
 26 27  2  0
 26 28  1  0
 28 29  1  0
 29 30  2  0
 30 31  1  0
 30 32  1  0
 32 33  1  0
 32 34  2  0
 34 35  1  0
 34 36  1  0
 36 37  1  0
 37 38  1  0
 37 39  1  0
 37 40  1  0
 36 41  2  0
 41 42  1  0
 24 43  1  0
 43 44  1  0
 43 45  2  0
 45 46  1  0
  6 47  1  0
 47 48  2  0
 47 49  1  0
 49 50  1  0
 50 51  1  0
 50 52  1  0
 50 53  1  0
 53 54  2  0
 53 55  1  0
 49  3  1  0
 19 10  1  0
 45 20  1  0
 41 29  1  0
M  CHG  3  23  -1  28  -1  55  -1
M  END
>  <UniqueID>  (36) 
31

>  <SMILES>  (36) 
Cc1cccc([N-]C(=O)/N=c2\ccc(-c3ccccc3Cn3cc(O)n(CC(=O)[O-])c3=O)c[n-]2)c1

>  <Energy>  (36) 
109.28803977344181

>  <Genealogy>  (36) 
Cc1cccc([N-]C(=O)N=c2ccc(-c3ccccc3Cn3cc(O)n(CC(=O)[O-])c3=O)c[n-]2)c1 (protonated)
Cc1cccc([N-]C(=O)/N=c2\ccc(-c3ccccc3Cn3cc(O)n(CC(=O)[O-])c3=O)c[n-]2)c1 (cis-trans isomerization)
Cc1cccc([N-]C(=O)/N=c2\ccc(-c3ccccc3Cn3cc(O)n(CC(=O)[O-])c3=O)c[n-]2)c1 (3D coordinates assigned)
Cc1cccc([N-]C(=O)/N=c2\ccc(-c3ccccc3Cn3cc(O)n(CC(=O)[O-])c3=O)c[n-]2)c1 (optimized conformer: 109.28803977344181 kcal/mol)

>  <smiles>  (36) 
Cc1cccc(NC(=O)N=c2ccc(-c3ccccc3Cn3cc(O)n(CC(=O)O)c3=O)c[nH]2)c1

>  <score_type>  (36) 
oracle

>  <origin>  (36) 
adg

>  <m_score__min__energy>  (36) 
-13.44

>  <m_primary>  (36) 
energy

$$$$
36:0
     RDKit          3D

 42 45  0  0  1  0  0  0  0  0999 V2000
   60.7820   30.2610   47.1660 C   0  0  0  0  0  0  0  0  0  0  0  0
   60.2270   31.4090   46.7650 C   0  0  0  0  0  0  0  0  0  0  0  0
   59.0470   31.5270   46.0490 C   0  0  0  0  0  0  0  0  0  0  0  0
   58.3150   30.4900   45.6710 C   0  0  0  0  0  0  0  0  0  0  0  0
   57.5260   30.5820   44.4460 C   0  0  0  0  0  0  0  0  0  0  0  0
   57.9880   31.2140   43.3360 N   0  0  0  0  0  0  0  0  0  0  0  0
   57.0550   31.1410   42.3720 C   0  0  0  0  0  0  0  0  0  0  0  0
   57.1940   31.6400   41.2130 O   0  0  0  0  0  0  0  0  0  0  0  0
   55.9960   30.4610   42.8670 N   0  0  0  0  0  0  0  0  0  0  0  0
   56.2840   30.1150   44.1480 C   0  0  0  0  0  0  0  0  0  0  0  0
   55.4710   29.4090   45.0190 O   0  0  0  0  0  0  0  0  0  0  0  0
   58.8390   32.8720   45.8460 C   0  0  0  0  0  0  0  0  0  0  0  0
   59.9000   33.5650   46.4420 C   0  0  0  0  0  0  0  0  0  0  0  0
   60.0740   35.0230   46.4610 C   0  0  0  0  0  0  0  0  0  0  0  0
   60.7400   32.6470   47.0020 N   0  0  0  0  0  0  0  0  0  0  0  0
   61.9380   32.8640   47.7090 C   0  0  0  0  0  0  0  0  0  0  0  0
   61.8830   32.7450   49.0990 C   0  0  0  0  0  0  0  0  0  0  0  0
   63.0250   32.9480   49.8470 C   0  0  0  0  0  0  0  0  0  0  0  0
   64.2270   33.2650   49.2590 C   0  0  0  0  0  0  0  0  0  0  0  0
   65.3800   33.4600   50.1310 C   0  0  0  0  0  0  0  0  0  0  0  0
   65.4320   33.9680   51.3790 N   0  0  0  0  0  0  0  0  0  0  0  0
   66.6560   33.9670   51.8060 O   0  0  0  0  0  0  0  0  0  0  0  0
   67.4220   33.4680   50.8650 C   0  0  0  0  0  0  0  0  0  0  0  0
   68.6760   33.3190   50.9400 O   0  0  0  0  0  0  0  0  0  0  0  0
   66.6340   33.1480   49.8140 N   0  0  0  0  0  0  0  0  0  0  0  0
   64.2890   33.3830   47.8970 C   0  0  0  0  0  0  0  0  0  0  0  0
   63.1440   33.1830   47.1220 C   0  0  0  0  0  0  0  0  0  0  0  0
   61.7251   30.2743   47.7320 H   0  0  0  0  0  0  0  0  0  0  0  0
   60.2956   29.3030   46.9300 H   0  0  0  0  0  0  0  0  0  0  0  0
   58.3016   29.5696   46.2733 H   0  0  0  0  0  0  0  0  0  0  0  0
   58.9240   31.6860   43.2420 H   0  0  0  0  0  0  0  0  0  0  0  0
   55.1270   30.2520   42.3430 H   0  0  0  0  0  0  0  0  0  0  0  0
   55.5210   29.6990   46.0020 H   0  0  0  0  0  0  0  0  0  0  0  0
   57.9903   33.3227   45.3108 H   0  0  0  0  0  0  0  0  0  0  0  0
   60.1159   35.3737   47.5027 H   0  0  0  0  0  0  0  0  0  0  0  0
   61.0101   35.2873   45.9472 H   0  0  0  0  0  0  0  0  0  0  0  0
   59.2264   35.5001   45.9472 H   0  0  0  0  0  0  0  0  0  0  0  0
   60.9348   32.4909   49.5952 H   0  0  0  0  0  0  0  0  0  0  0  0
   62.9723   32.8538   50.9417 H   0  0  0  0  0  0  0  0  0  0  0  0
   67.0320   32.7300   48.9410 H   0  0  0  0  0  0  0  0  0  0  0  0
   65.2429   33.6360   47.4112 H   0  0  0  0  0  0  0  0  0  0  0  0
   63.2055   33.2814   46.0281 H   0  0  0  0  0  0  0  0  0  0  0  0
  1  2  2  0
  2  3  1  0
  3  4  2  0
  4  5  1  0
  5  6  1  0
  6  7  1  0
  7  8  2  0
  7  9  1  0
  9 10  1  0
 10 11  1  0
  3 12  1  0
 12 13  2  0
 13 14  1  0
 13 15  1  0
 15 16  1  0
 16 17  2  0
 17 18  1  0
 18 19  2  0
 19 20  1  0
 20 21  2  0
 21 22  1  0
 22 23  1  0
 23 24  2  0
 23 25  1  0
 19 26  1  0
 26 27  2  0
 15  2  1  0
 27 16  1  0
 10  5  2  0
 25 20  1  0
  1 28  1  0
  1 29  1  0
  4 30  1  0
  6 31  1  0
  9 32  1  0
 11 33  1  0
 12 34  1  0
 14 35  1  0
 14 36  1  0
 14 37  1  0
 17 38  1  0
 18 39  1  0
 25 40  1  0
 26 41  1  0
 27 42  1  0
M  END
>  <smiles>  (37) 
C=c1c(=Cc2[nH]c(=O)[nH]c2O)cc(C)n1-c1ccc(-c2noc(=O)[nH]2)cc1

>  <score_type>  (37) 
oracle

>  <origin>  (37) 
adg

>  <m_score__min__energy>  (37) 
-9.4600000000000009

>  <m_primary>  (37) 
energy

$$$$
37:0
     RDKit          3D

 51 54  0  0  0  0  0  0  0  0999 V2000
   56.6360   30.5260   43.1680 C   0  0  0  0  0  0  0  0  0  0  0  0
   57.3430   31.8060   43.6020 C   0  0  0  0  0  0  0  0  0  0  0  0
   58.4920   31.4820   44.4770 N   0  0  0  0  0  0  0  0  0  0  0  0
   58.3280   32.0320   45.8450 C   0  0  0  0  0  0  0  0  0  0  0  0
   57.5620   33.3740   45.8950 C   0  0  0  0  0  0  0  0  0  0  0  0
   58.5080   34.5810   45.9050 C   0  0  0  0  0  0  0  0  0  0  0  0
   59.8040   34.2690   46.5890 C   0  0  0  0  0  0  0  0  0  0  0  0
   60.9330   33.9380   45.9080 N   0  0  0  0  0  0  0  0  0  0  0  0
   61.8220   33.7580   46.8950 C   0  0  0  0  0  0  0  0  0  0  0  0
   63.1690   33.4250   46.7780 C   0  0  0  0  0  0  0  0  0  0  0  0
   63.9200   33.3180   47.9640 C   0  0  0  0  0  0  0  0  0  0  0  0
   63.3100   33.5410   49.2200 C   0  0  0  0  0  0  0  0  0  0  0  0
   61.9440   33.8730   49.2980 C   0  0  0  0  0  0  0  0  0  0  0  0
   61.2330   33.9710   48.1040 C   0  0  0  0  0  0  0  0  0  0  0  0
   59.9420   34.2930   47.9410 N   0  0  0  0  0  0  0  0  0  0  0  0
   58.8240   30.0380   44.4390 C   0  0  0  0  0  0  0  0  0  0  0  0
   59.5450   29.5780   45.7190 C   0  0  0  0  0  0  0  0  0  0  0  0
   59.5180   28.0850   45.9010 C   0  0  0  0  0  0  0  0  0  0  0  0
   60.6160   27.2640   46.1510 C   0  0  0  0  0  0  0  0  0  0  0  0
   60.2140   25.9940   46.3870 N   0  0  0  0  0  0  0  0  0  0  0  0
   58.8740   26.0080   46.3080 C   0  0  0  0  0  0  0  0  0  0  0  0
   58.0060   24.9400   46.5310 C   0  0  0  0  0  0  0  0  0  0  0  0
   56.6250   25.1820   46.4280 C   0  0  0  0  0  0  0  0  0  0  0  0
   56.1450   26.4710   46.1050 C   0  0  0  0  0  0  0  0  0  0  0  0
   54.7780   26.6910   45.9930 O   0  0  0  0  0  0  0  0  0  0  0  0
   57.0440   27.5340   45.8980 C   0  0  0  0  0  0  0  0  0  0  0  0
   58.4090   27.2650   46.0120 C   0  0  0  0  0  0  0  0  0  0  0  0
   56.3234   29.9600   44.0579 H   0  0  0  0  0  0  0  0  0  0  0  0
   55.7512   30.7817   42.5666 H   0  0  0  0  0  0  0  0  0  0  0  0
   57.3236   29.9132   42.5666 H   0  0  0  0  0  0  0  0  0  0  0  0
   57.7037   32.3420   42.7117 H   0  0  0  0  0  0  0  0  0  0  0  0
   56.6344   32.4374   44.1581 H   0  0  0  0  0  0  0  0  0  0  0  0
   57.7773   31.2966   46.4499 H   0  0  0  0  0  0  0  0  0  0  0  0
   59.3386   32.2275   46.2329 H   0  0  0  0  0  0  0  0  0  0  0  0
   56.9096   33.4426   45.0120 H   0  0  0  0  0  0  0  0  0  0  0  0
   56.9780   33.3950   46.8269 H   0  0  0  0  0  0  0  0  0  0  0  0
   58.7164   34.8782   44.8666 H   0  0  0  0  0  0  0  0  0  0  0  0
   58.0171   35.3945   46.4592 H   0  0  0  0  0  0  0  0  0  0  0  0
   63.6297   33.2518   45.7943 H   0  0  0  0  0  0  0  0  0  0  0  0
   64.9879   33.0593   47.9133 H   0  0  0  0  0  0  0  0  0  0  0  0
   63.9057   33.4547   50.1407 H   0  0  0  0  0  0  0  0  0  0  0  0
   61.4553   34.0488   50.2677 H   0  0  0  0  0  0  0  0  0  0  0  0
   57.8931   29.4624   44.3294 H   0  0  0  0  0  0  0  0  0  0  0  0
   59.5000   29.8671   43.5882 H   0  0  0  0  0  0  0  0  0  0  0  0
   60.5935   29.9067   45.6687 H   0  0  0  0  0  0  0  0  0  0  0  0
   59.0169   30.0247   46.5743 H   0  0  0  0  0  0  0  0  0  0  0  0
   61.6630   27.6014   46.1558 H   0  0  0  0  0  0  0  0  0  0  0  0
   60.8240   25.1780   46.6150 H   0  0  0  0  0  0  0  0  0  0  0  0
   58.3897   23.9395   46.7797 H   0  0  0  0  0  0  0  0  0  0  0  0
   55.9127   24.3616   46.6002 H   0  0  0  0  0  0  0  0  0  0  0  0
   56.6827   28.5440   45.6543 H   0  0  0  0  0  0  0  0  0  0  0  0
  1  2  1  0
  2  3  1  0
  3  4  1  0
  4  5  1  0
  5  6  1  0
  6  7  1  0
  7  8  2  0
  8  9  1  0
  9 10  2  0
 10 11  1  0
 11 12  2  0
 12 13  1  0
 13 14  2  0
 14 15  1  0
  3 16  1  0
 16 17  1  0
 17 18  1  0
 18 19  2  0
 19 20  1  0
 20 21  1  0
 21 22  2  0
 22 23  1  0
 23 24  2  0
 24 25  1  0
 24 26  1  0
 26 27  2  0
 15  7  1  0
 27 18  1  0
 14  9  1  0
 27 21  1  0
  1 28  1  0
  1 29  1  0
  1 30  1  0
  2 31  1  0
  2 32  1  0
  4 33  1  0
  4 34  1  0
  5 35  1  0
  5 36  1  0
  6 37  1  0
  6 38  1  0
 10 39  1  0
 11 40  1  0
 12 41  1  0
 13 42  1  0
 16 43  1  0
 16 44  1  0
 17 45  1  0
 17 46  1  0
 19 47  1  0
 20 48  1  0
 22 49  1  0
 23 50  1  0
 26 51  1  0
M  CHG  2  15  -1  25  -1
M  END
>  <UniqueID>  (38) 
32

>  <SMILES>  (38) 
CCN(CCCc1nc2ccccc2[n-]1)CCc1c[nH]c2ccc([O-])cc12

>  <Energy>  (38) 
114.78349878973201

>  <Genealogy>  (38) 
CCN(CCCc1nc2ccccc2[n-]1)CCc1c[nH]c2ccc([O-])cc12 (protonated)
CCN(CCCc1nc2ccccc2[n-]1)CCc1c[nH]c2ccc([O-])cc12 (3D coordinates assigned)
CCN(CCCc1nc2ccccc2[n-]1)CCc1c[nH]c2ccc([O-])cc12 (optimized conformer: 114.78349878973201 kcal/mol)

>  <smiles>  (38) 
CCN(CCCc1nc2ccccc2[nH]1)CCc1c[nH]c2ccc(O)cc12

>  <score_type>  (38) 
oracle

>  <origin>  (38) 
adg

>  <m_score__min__energy>  (38) 
-13.41

>  <m_primary>  (38) 
energy

$$$$
38:0
     RDKit          3D

 47 49  0  0  0  0  0  0  0  0999 V2000
   56.7500   29.5150   43.2490 N   0  0  0  0  0  0  0  0  0  0  0  0
   56.2430   29.1630   44.5360 C   0  0  0  0  0  0  0  0  0  0  0  0
   55.0930   29.5420   44.8780 O   0  0  0  0  0  0  0  0  0  0  0  0
   57.0750   28.3930   45.4790 C   0  0  0  0  0  0  0  0  0  0  0  0
   56.5710   27.1820   45.9930 C   0  0  0  0  0  0  0  0  0  0  0  0
   55.3100   26.7260   45.6240 O   0  0  0  0  0  0  0  0  0  0  0  0
   57.3390   26.4190   46.8750 C   0  0  0  0  0  0  0  0  0  0  0  0
   58.6090   26.8470   47.2510 C   0  0  0  0  0  0  0  0  0  0  0  0
   59.1160   28.0510   46.7600 C   0  0  0  0  0  0  0  0  0  0  0  0
   58.3610   28.8410   45.8780 C   0  0  0  0  0  0  0  0  0  0  0  0
   58.9820   30.4360   45.4140 S   0  0  0  0  0  0  0  0  0  0  0  0
   59.1230   30.4990   43.9190 O   0  0  0  0  0  0  0  0  0  0  0  0
   60.3540   30.6180   46.0060 O   0  0  0  0  0  0  0  0  0  0  0  0
   57.8640   31.6600   46.0230 N   0  0  0  0  0  0  0  0  0  0  0  0
   57.1130   32.3420   44.9420 C   0  0  0  0  0  0  0  0  0  0  0  0
   57.7410   33.6820   44.4910 C   0  0  0  0  0  0  0  0  0  0  0  0
   59.2360   33.7600   44.8060 C   0  0  0  0  0  0  0  0  0  0  0  0
   59.5140   33.5400   46.3040 C   0  0  0  0  0  0  0  0  0  0  0  0
   58.4500   32.6320   46.9770 C   0  0  2  0  0  0  0  0  0  0  0  0
   58.9550   31.9660   48.2860 C   0  0  0  0  0  0  0  0  0  0  0  0
   59.9170   32.7930   48.9430 O   0  0  0  0  0  0  0  0  0  0  0  0
   61.2820   32.8770   48.6260 C   0  0  0  0  0  0  0  0  0  0  0  0
   62.0000   31.8210   48.0380 C   0  0  0  0  0  0  0  0  0  0  0  0
   63.3520   31.9810   47.7290 C   0  0  0  0  0  0  0  0  0  0  0  0
   63.9800   33.1930   48.0170 C   0  0  0  0  0  0  0  0  0  0  0  0
   63.2750   34.2050   48.5870 N   0  0  0  0  0  0  0  0  0  0  0  0
   61.9570   34.0750   48.8910 C   0  0  0  0  0  0  0  0  0  0  0  0
   57.6970   29.2020   42.9450 H   0  0  0  0  0  0  0  0  0  0  0  0
   56.1630   30.0700   42.5860 H   0  0  0  0  0  0  0  0  0  0  0  0
   56.9386   25.4755   47.2744 H   0  0  0  0  0  0  0  0  0  0  0  0
   59.2141   26.2352   47.9363 H   0  0  0  0  0  0  0  0  0  0  0  0
   60.1181   28.3848   47.0673 H   0  0  0  0  0  0  0  0  0  0  0  0
   57.0703   31.6696   44.0725 H   0  0  0  0  0  0  0  0  0  0  0  0
   56.1164   32.5761   45.3444 H   0  0  0  0  0  0  0  0  0  0  0  0
   57.6026   33.7893   43.4050 H   0  0  0  0  0  0  0  0  0  0  0  0
   57.2391   34.4904   45.0428 H   0  0  0  0  0  0  0  0  0  0  0  0
   59.7630   32.9864   44.2282 H   0  0  0  0  0  0  0  0  0  0  0  0
   59.5918   34.7650   44.5350 H   0  0  0  0  0  0  0  0  0  0  0  0
   60.5015   33.0682   46.4143 H   0  0  0  0  0  0  0  0  0  0  0  0
   59.4782   34.5216   46.7991 H   0  0  0  0  0  0  0  0  0  0  0  0
   57.6309   33.2968   47.2887 H   0  0  0  0  0  0  0  0  0  0  0  0
   58.1007   31.8032   48.9596 H   0  0  0  0  0  0  0  0  0  0  0  0
   59.4322   31.0084   48.0305 H   0  0  0  0  0  0  0  0  0  0  0  0
   61.4960   30.8676   47.8212 H   0  0  0  0  0  0  0  0  0  0  0  0
   63.9164   31.1598   47.2632 H   0  0  0  0  0  0  0  0  0  0  0  0
   65.0460   33.3293   47.7826 H   0  0  0  0  0  0  0  0  0  0  0  0
   61.4165   34.9167   49.3485 H   0  0  0  0  0  0  0  0  0  0  0  0
  1  2  1  0
  2  3  2  0
  2  4  1  0
  4  5  2  0
  5  6  1  0
  5  7  1  0
  7  8  2  0
  8  9  1  0
  9 10  2  0
 10 11  1  0
 11 12  2  0
 11 13  2  0
 11 14  1  0
 14 15  1  0
 15 16  1  0
 16 17  1  0
 17 18  1  0
 18 19  1  0
 19 20  1  0
 20 21  1  0
 21 22  1  0
 22 23  2  0
 23 24  1  0
 24 25  2  0
 25 26  1  0
 26 27  2  0
 10  4  1  0
 19 14  1  0
 27 22  1  0
  1 28  1  0
  1 29  1  0
  7 30  1  0
  8 31  1  0
  9 32  1  0
 15 33  1  0
 15 34  1  0
 16 35  1  0
 16 36  1  0
 17 37  1  0
 17 38  1  0
 18 39  1  0
 18 40  1  0
 19 41  1  1
 20 42  1  0
 20 43  1  0
 23 44  1  0
 24 45  1  0
 25 46  1  0
 27 47  1  0
M  CHG  1   6  -1
M  END
>  <UniqueID>  (39) 
33

>  <SMILES>  (39) 
NC(=O)c1c([O-])cccc1S(=O)(=O)N1CCCC[C@@H]1COc1cccnc1

>  <Energy>  (39) 
69.01159614860875

>  <Genealogy>  (39) 
NC(=O)c1c([O-])cccc1S(=O)(=O)N1CCCCC1COc1cccnc1 (protonated)
NC(=O)c1c([O-])cccc1S(=O)(=O)N1CCCC[C@@H]1COc1cccnc1 (chirality)
NC(=O)c1c([O-])cccc1S(=O)(=O)N1CCCC[C@@H]1COc1cccnc1 (3D coordinates assigned)
NC(=O)c1c([O-])cccc1S(=O)(=O)N1CCCC[C@@H]1COc1cccnc1 (nonaromatic ring conformer: 69.01159614860875 kcal/mol)

>  <smiles>  (39) 
NC(=O)c1c(O)cccc1S(=O)(=O)N1CCCCC1COc1cccnc1

>  <score_type>  (39) 
oracle

>  <origin>  (39) 
adg

>  <m_score__min__energy>  (39) 
-11.949999999999999

>  <m_primary>  (39) 
energy

$$$$
39:0
     RDKit          3D

 47 49  0  0  0  0  0  0  0  0999 V2000
   60.6770   27.7500   51.6120 C   0  0  0  0  0  0  0  0  0  0  0  0
   60.0810   28.9500   50.4400 S   0  0  0  0  0  0  0  0  0  0  0  0
   59.6980   28.2700   49.1560 O   0  0  0  0  0  0  0  0  0  0  0  0
   61.1830   29.9280   50.1440 O   0  0  0  0  0  0  0  0  0  0  0  0
   58.7290   29.8140   51.1070 N   0  0  0  0  0  0  0  0  0  0  0  0
   58.0810   29.3740   52.1730 N   0  0  0  0  0  0  0  0  0  0  0  0
   57.1840   30.3130   52.5300 C   0  0  0  0  0  0  0  0  0  0  0  0
   57.2770   31.3910   51.6750 C   0  0  0  0  0  0  0  0  0  0  0  0
   58.2610   31.0400   50.7710 C   0  0  0  0  0  0  0  0  0  0  0  0
   58.7100   31.8860   49.6460 C   0  0  0  0  0  0  0  0  0  0  0  0
   59.2900   33.1410   49.9000 C   0  0  0  0  0  0  0  0  0  0  0  0
   59.6890   33.9600   48.8410 C   0  0  0  0  0  0  0  0  0  0  0  0
   59.5100   33.5390   47.5210 C   0  0  0  0  0  0  0  0  0  0  0  0
   58.9230   32.2950   47.2530 C   0  0  0  0  0  0  0  0  0  0  0  0
   58.6840   31.7570   45.5930 S   0  0  0  0  0  0  0  0  0  0  0  0
   58.9120   32.8970   44.6400 O   0  0  0  0  0  0  0  0  0  0  0  0
   57.2710   31.2770   45.4200 O   0  0  0  0  0  0  0  0  0  0  0  0
   59.7680   30.4500   45.2420 N   0  0  0  0  0  0  0  0  0  0  0  0
   60.3920   29.6870   46.2840 C   0  0  0  0  0  0  0  0  0  0  0  0
   60.9490   30.2770   47.2980 N   0  0  0  0  0  0  0  0  0  0  0  0
   60.3240   28.1880   46.2280 C   0  0  0  0  0  0  0  0  0  0  0  0
   58.8870   27.7520   46.1450 C   0  0  0  0  0  0  0  0  0  0  0  0
   58.4140   26.7110   46.9620 C   0  0  0  0  0  0  0  0  0  0  0  0
   57.0690   26.3350   46.9130 C   0  0  0  0  0  0  0  0  0  0  0  0
   56.1820   27.0070   46.0660 C   0  0  0  0  0  0  0  0  0  0  0  0
   54.8440   26.6380   46.0250 O   0  0  0  0  0  0  0  0  0  0  0  0
   56.6430   28.0550   45.2630 C   0  0  0  0  0  0  0  0  0  0  0  0
   57.9890   28.4300   45.3050 C   0  0  0  0  0  0  0  0  0  0  0  0
   58.5040   31.4850   48.3180 C   0  0  0  0  0  0  0  0  0  0  0  0
   60.4960   28.1144   52.6340 H   0  0  0  0  0  0  0  0  0  0  0  0
   60.1472   26.7975   51.4631 H   0  0  0  0  0  0  0  0  0  0  0  0
   61.7560   27.5966   51.4631 H   0  0  0  0  0  0  0  0  0  0  0  0
   56.4840   30.2324   53.3747 H   0  0  0  0  0  0  0  0  0  0  0  0
   56.6959   32.3245   51.7060 H   0  0  0  0  0  0  0  0  0  0  0  0
   59.4303   33.4796   50.9371 H   0  0  0  0  0  0  0  0  0  0  0  0
   60.1455   34.9394   49.0471 H   0  0  0  0  0  0  0  0  0  0  0  0
   59.8304   34.1852   46.6905 H   0  0  0  0  0  0  0  0  0  0  0  0
   59.6940   30.0230   44.2920 H   0  0  0  0  0  0  0  0  0  0  0  0
   61.5410   31.1260   47.1750 H   0  0  0  0  0  0  0  0  0  0  0  0
   60.8370   29.9030   48.2670 H   0  0  0  0  0  0  0  0  0  0  0  0
   60.8673   27.8296   45.3413 H   0  0  0  0  0  0  0  0  0  0  0  0
   60.7822   27.7669   47.1351 H   0  0  0  0  0  0  0  0  0  0  0  0
   59.1045   26.1906   47.6420 H   0  0  0  0  0  0  0  0  0  0  0  0
   56.7071   25.5085   47.5422 H   0  0  0  0  0  0  0  0  0  0  0  0
   55.9456   28.5849   44.5975 H   0  0  0  0  0  0  0  0  0  0  0  0
   58.3462   29.2597   44.6773 H   0  0  0  0  0  0  0  0  0  0  0  0
   58.0086   30.5252   48.1098 H   0  0  0  0  0  0  0  0  0  0  0  0
  1  2  1  0
  2  3  2  0
  2  4  2  0
  2  5  1  0
  5  6  1  0
  6  7  2  0
  7  8  1  0
  8  9  2  0
  9 10  1  0
 10 11  2  0
 11 12  1  0
 12 13  2  0
 13 14  1  0
 14 15  1  0
 15 16  2  0
 15 17  2  0
 15 18  1  0
 18 19  1  0
 19 20  2  0
 19 21  1  0
 21 22  1  0
 22 23  2  0
 23 24  1  0
 24 25  2  0
 25 26  1  0
 25 27  1  0
 27 28  2  0
 14 29  2  0
  9  5  1  0
 29 10  1  0
 28 22  1  0
  1 30  1  0
  1 31  1  0
  1 32  1  0
  7 33  1  0
  8 34  1  0
 11 35  1  0
 12 36  1  0
 13 37  1  0
 18 38  1  0
 20 39  1  0
 20 40  1  0
 21 41  1  0
 21 42  1  0
 23 43  1  0
 24 44  1  0
 27 45  1  0
 28 46  1  0
 29 47  1  0
M  CHG  2  20   1  26  -1
M  END
>  <UniqueID>  (40) 
34

>  <SMILES>  (40) 
CS(=O)(=O)n1nccc1-c1cccc(S(=O)(=O)NC(=[NH2+])Cc2ccc([O-])cc2)c1

>  <Energy>  (40) 
77.64436364637082

>  <Genealogy>  (40) 
CS(=O)(=O)n1nccc1-c1cccc(S(=O)(=O)NC(=[NH2+])Cc2ccc([O-])cc2)c1 (protonated)
CS(=O)(=O)n1nccc1-c1cccc(S(=O)(=O)NC(=[NH2+])Cc2ccc([O-])cc2)c1 (3D coordinates assigned)
CS(=O)(=O)n1nccc1-c1cccc(S(=O)(=O)NC(=[NH2+])Cc2ccc([O-])cc2)c1 (optimized conformer: 77.64436364637082 kcal/mol)

>  <smiles>  (40) 
CS(=O)(=O)n1nccc1-c1cccc(S(=O)(=O)NC(=N)Cc2ccc(O)cc2)c1

>  <score_type>  (40) 
oracle

>  <origin>  (40) 
adg

>  <m_score__min__energy>  (40) 
-11.949999999999999

>  <m_primary>  (40) 
energy

$$$$
40:0
     RDKit          3D

 48 50  0  0  1  0  0  0  0  0999 V2000
   56.5550   30.5750   53.3420 C   0  0  0  0  0  0  0  0  0  0  0  0
   57.4880   30.9710   52.2320 C   0  0  0  0  0  0  0  0  0  0  0  0
   58.0830   32.2060   52.1720 C   0  0  0  0  0  0  0  0  0  0  0  0
   58.9470   32.5650   51.1460 C   0  0  0  0  0  0  0  0  0  0  0  0
   59.5880   33.9030   51.0840 C   0  0  0  0  0  0  0  0  0  0  0  0
   59.2290   31.6640   50.1430 C   0  0  0  0  0  0  0  0  0  0  0  0
   58.3690   32.4610   44.9470 N   0  0  0  0  0  0  0  0  0  0  0  0
   58.9220   32.9970   45.9210 C   0  0  0  0  0  0  0  0  0  0  0  0
   60.1680   33.9870   48.1490 N   0  0  0  0  0  0  0  0  0  0  0  0
   59.8840   34.7750   47.1030 C   0  0  0  0  0  0  0  0  0  0  0  0
   59.2530   34.3380   45.9450 C   0  0  0  0  0  0  0  0  0  0  0  0
   58.9700   35.2660   44.8570 C   0  0  0  0  0  0  0  0  0  0  0  0
   59.8180   32.6950   48.0630 C   0  0  0  0  0  0  0  0  0  0  0  0
   60.0890   31.9280   49.0510 N   0  0  0  0  0  0  0  0  0  0  0  0
   57.5380   31.3470   44.9500 C   0  0  0  0  0  0  0  0  0  0  0  0
   56.3000   31.5650   44.6370 O   0  0  0  0  0  0  0  0  0  0  0  0
   57.9230   29.9760   45.2630 C   0  0  0  0  0  0  0  0  0  0  0  0
   59.2230   29.6160   45.4510 N   0  0  0  0  0  0  0  0  0  0  0  0
   59.5160   28.3310   45.7300 C   0  0  0  0  0  0  0  0  0  0  0  0
   58.5600   27.3440   45.8400 C   0  0  0  0  0  0  0  0  0  0  0  0
   57.2490   27.6750   45.6570 C   0  0  0  0  0  0  0  0  0  0  0  0
   56.9530   29.0000   45.3680 C   0  0  0  0  0  0  0  0  0  0  0  0
   55.6130   29.3070   45.1870 O   0  0  0  0  0  0  0  0  0  0  0  0
   59.2110   32.1810   46.9940 N   0  0  0  0  0  0  0  0  0  0  0  0
   58.6270   30.4030   50.1960 C   0  0  0  0  0  0  0  0  0  0  0  0
   58.9320   29.4130   49.1000 C   0  0  0  0  0  0  0  0  0  0  0  0
   57.7740   30.0700   51.2250 C   0  0  0  0  0  0  0  0  0  0  0  0
   57.0324   30.7776   54.3121 H   0  0  0  0  0  0  0  0  0  0  0  0
   55.6240   31.1556   53.2631 H   0  0  0  0  0  0  0  0  0  0  0  0
   56.3258   29.5020   53.2631 H   0  0  0  0  0  0  0  0  0  0  0  0
   57.8679   32.9376   52.9648 H   0  0  0  0  0  0  0  0  0  0  0  0
   59.7650   34.2724   52.1049 H   0  0  0  0  0  0  0  0  0  0  0  0
   60.5469   33.8258   50.5506 H   0  0  0  0  0  0  0  0  0  0  0  0
   58.9269   34.6019   50.5506 H   0  0  0  0  0  0  0  0  0  0  0  0
   60.6340   34.3260   48.9970 H   0  0  0  0  0  0  0  0  0  0  0  0
   60.1687   35.8357   47.1652 H   0  0  0  0  0  0  0  0  0  0  0  0
   58.6730   36.2398   45.2736 H   0  0  0  0  0  0  0  0  0  0  0  0
   59.8708   35.3912   44.2382 H   0  0  0  0  0  0  0  0  0  0  0  0
   58.1526   34.8672   44.2382 H   0  0  0  0  0  0  0  0  0  0  0  0
   60.5707   28.0556   45.8774 H   0  0  0  0  0  0  0  0  0  0  0  0
   58.8489   26.3081   46.0712 H   0  0  0  0  0  0  0  0  0  0  0  0
   56.4545   26.9183   45.7357 H   0  0  0  0  0  0  0  0  0  0  0  0
   55.1450   30.0790   45.6290 H   0  0  0  0  0  0  0  0  0  0  0  0
   58.9610   31.1730   46.9790 H   0  0  0  0  0  0  0  0  0  0  0  0
   59.2281   28.4520   49.5459 H   0  0  0  0  0  0  0  0  0  0  0  0
   58.0369   29.2680   48.4773 H   0  0  0  0  0  0  0  0  0  0  0  0
   59.7535   29.7969   48.4773 H   0  0  0  0  0  0  0  0  0  0  0  0
   57.3135   29.0712   51.2450 H   0  0  0  0  0  0  0  0  0  0  0  0
  1  2  1  0
  2  3  2  0
  3  4  1  0
  4  5  1  0
  4  6  2  0
  6  7  1  0
  7  8  2  0
  8  9  1  0
  9 10  1  0
 10 11  2  0
 11 12  1  0
 11 13  1  0
 13 14  2  0
 14 15  1  0
 15 16  2  0
 15 17  1  0
 17 18  2  0
 18 19  1  0
 19 20  2  0
 20 21  1  0
 21 22  2  0
 22 23  1  0
 13 24  1  0
  6 25  1  0
 25 26  1  0
 25 27  2  0
 27  2  1  0
 24  8  1  0
 22 17  1  0
  1 28  1  0
  1 29  1  0
  1 30  1  0
  3 31  1  0
  5 32  1  0
  5 33  1  0
  5 34  1  0
  9 35  1  0
 10 36  1  0
 12 37  1  0
 12 38  1  0
 12 39  1  0
 19 40  1  0
 20 41  1  0
 21 42  1  0
 23 43  1  0
 24 44  1  0
 26 45  1  0
 26 46  1  0
 26 47  1  0
 27 48  1  0
M  END
>  <smiles>  (41) 
Cc1cc(C)c(N=c2[nH]cc(C)c(=NC(=O)c3ncccc3O)[nH]2)c(C)c1

>  <score_type>  (41) 
oracle

>  <origin>  (41) 
adg

>  <m_score__min__energy>  (41) 
-9.6600000000000001

>  <m_primary>  (41) 
energy

$$$$
41:0
     RDKit          3D

 50 53  0  0  0  0  0  0  0  0999 V2000
   56.2160   23.0030   42.4120 H   0  0  0  0  0  0  0  0  0  0  0  0
   55.8860   22.1820   42.9060 O   0  0  0  0  0  0  0  0  0  0  0  0
   56.2550   21.9230   44.2250 C   0  0  0  0  0  0  0  0  0  0  0  0
   56.7220   20.6480   44.5830 C   0  0  0  0  0  0  0  0  0  0  0  0
   56.7918   19.8569   43.8219 H   0  0  0  0  0  0  0  0  0  0  0  0
   57.0980   20.3800   45.9000 C   0  0  0  0  0  0  0  0  0  0  0  0
   57.4611   19.3786   46.1744 H   0  0  0  0  0  0  0  0  0  0  0  0
   57.0140   21.3810   46.8700 C   0  0  0  0  0  0  0  0  0  0  0  0
   57.3930   21.1120   48.1790 O   0  0  0  0  0  0  0  0  0  0  0  0
   56.5500   22.6540   46.5230 C   0  0  0  0  0  0  0  0  0  0  0  0
   56.4891   23.4408   47.2894 H   0  0  0  0  0  0  0  0  0  0  0  0
   56.1610   22.9350   45.2020 C   0  0  0  0  0  0  0  0  0  0  0  0
   55.6990   24.3230   44.8380 C   0  0  0  0  0  0  0  0  0  0  0  0
   54.7280   24.5199   45.3159 H   0  0  0  0  0  0  0  0  0  0  0  0
   55.6002   24.3936   43.7447 H   0  0  0  0  0  0  0  0  0  0  0  0
   56.6730   25.3150   45.2950 N   0  0  0  0  0  0  0  0  0  0  0  0
   56.4310   26.5420   45.7860 C   0  0  0  0  0  0  0  0  0  0  0  0
   55.1630   27.0720   45.9990 O   0  0  0  0  0  0  0  0  0  0  0  0
   57.6290   27.1720   46.0450 C   0  0  0  0  0  0  0  0  0  0  0  0
   57.7710   28.5220   46.6350 C   0  0  0  0  0  0  0  0  0  0  0  0
   57.7599   28.5940   47.7326 H   0  0  0  0  0  0  0  0  0  0  0  0
   57.9130   29.6730   45.9430 C   0  0  0  0  0  0  0  0  0  0  0  0
   57.6980   29.8650   44.5840 C   0  0  0  0  0  0  0  0  0  0  0  0
   57.3959   29.0999   43.8537 H   0  0  0  0  0  0  0  0  0  0  0  0
   57.9360   31.1990   44.3260 C   0  0  0  0  0  0  0  0  0  0  0  0
   57.7830   31.8390   42.9780 C   0  0  0  0  0  0  0  0  0  0  0  0
   57.5289   32.9019   43.1035 H   0  0  0  0  0  0  0  0  0  0  0  0
   58.7275   31.7511   42.4210 H   0  0  0  0  0  0  0  0  0  0  0  0
   56.9804   31.3334   42.4210 H   0  0  0  0  0  0  0  0  0  0  0  0
   58.2960   31.8480   45.4570 N   0  0  0  0  0  0  0  0  0  0  0  0
   58.5700   33.2890   45.5660 C   0  0  0  0  0  0  0  0  0  0  0  0
   58.8559   33.6797   44.5783 H   0  0  0  0  0  0  0  0  0  0  0  0
   57.6642   33.7992   45.9254 H   0  0  0  0  0  0  0  0  0  0  0  0
   59.6870   33.5350   46.5380 C   0  0  0  0  0  0  0  0  0  0  0  0
   60.8860   32.9130   46.3570 N   0  0  0  0  0  0  0  0  0  0  0  0
   61.9240   33.0860   47.2170 C   0  0  0  0  0  0  0  0  0  0  0  0
   62.8782   32.5688   47.0379 H   0  0  0  0  0  0  0  0  0  0  0  0
   61.7800   33.9200   48.3280 C   0  0  0  0  0  0  0  0  0  0  0  0
   62.6168   34.0640   49.0273 H   0  0  0  0  0  0  0  0  0  0  0  0
   60.5640   34.5680   48.5410 C   0  0  0  0  0  0  0  0  0  0  0  0
   60.4362   35.2276   49.4120 H   0  0  0  0  0  0  0  0  0  0  0  0
   59.5080   34.3780   47.6460 C   0  0  0  0  0  0  0  0  0  0  0  0
   58.5451   34.8844   47.8082 H   0  0  0  0  0  0  0  0  0  0  0  0
   58.2720   30.9270   46.4580 C   0  0  0  0  0  0  0  0  0  0  0  0
   58.5500   31.2040   47.7430 C   0  0  0  0  0  0  0  0  0  0  0  0
   58.8220   32.2281   48.0385 H   0  0  0  0  0  0  0  0  0  0  0  0
   58.5056   30.4067   48.4995 H   0  0  0  0  0  0  0  0  0  0  0  0
   58.6430   26.3370   45.7250 N   0  0  0  0  0  0  0  0  0  0  0  0
   58.0200   25.2300   45.2690 C   0  0  0  0  0  0  0  0  0  0  0  0
   58.6440   24.2140   44.8610 O   0  0  0  0  0  0  0  0  0  0  0  0
  1  2  1  0
  2  3  1  0
  3  4  2  0
  4  5  1  0
  4  6  1  0
  6  7  1  0
  6  8  2  0
  8  9  1  0
  8 10  1  0
 10 11  1  0
 10 12  2  0
 12 13  1  0
 13 14  1  0
 13 15  1  0
 13 16  1  0
 16 17  1  0
 17 18  1  0
 17 19  2  0
 19 20  1  0
 20 21  1  0
 20 22  2  0
 22 23  1  0
 23 24  1  0
 23 25  2  0
 25 26  1  0
 26 27  1  0
 26 28  1  0
 26 29  1  0
 25 30  1  0
 30 31  1  0
 31 32  1  0
 31 33  1  0
 31 34  1  0
 34 35  2  0
 35 36  1  0
 36 37  1  0
 36 38  2  0
 38 39  1  0
 38 40  1  0
 40 41  1  0
 40 42  2  0
 42 43  1  0
 30 44  1  0
 44 45  2  0
 45 46  1  0
 45 47  1  0
 19 48  1  0
 48 49  1  0
 49 50  2  0
 12  3  1  0
 49 16  1  0
 44 22  1  0
 42 34  1  0
M  CHG  3   9  -1  18  -1  48  -1
M  END
>  <UniqueID>  (42) 
35

>  <SMILES>  (42) 
C=c1/c(=C/c2[n-]c(=O)n(Cc3cc([O-])ccc3O)c2[O-])cc(C)n1Cc1ccccn1

>  <Energy>  (42) 
118.16598463283445

>  <Genealogy>  (42) 
C=c1c(=Cc2[n-]c(=O)n(Cc3cc([O-])ccc3O)c2[O-])cc(C)n1Cc1ccccn1 (protonated)
C=c1/c(=C/c2[n-]c(=O)n(Cc3cc([O-])ccc3O)c2[O-])cc(C)n1Cc1ccccn1 (cis-trans isomerization)
C=c1/c(=C/c2[n-]c(=O)n(Cc3cc([O-])ccc3O)c2[O-])cc(C)n1Cc1ccccn1 (3D coordinates assigned)
C=c1/c(=C/c2[n-]c(=O)n(Cc3cc([O-])ccc3O)c2[O-])cc(C)n1Cc1ccccn1 (optimized conformer: 118.16598463283445 kcal/mol)

>  <smiles>  (42) 
C=c1c(=Cc2[nH]c(=O)n(Cc3cc(O)ccc3O)c2O)cc(C)n1Cc1ccccn1

>  <score_type>  (42) 
oracle

>  <origin>  (42) 
adg

>  <m_score__min__energy>  (42) 
-16.219999999999999

>  <m_primary>  (42) 
energy

$$$$
42:0
     RDKit          3D

 28 29  0  0  0  0  0  0  0  0999 V2000
   58.0480   32.5760   44.5680 O   0  0  0  0  0  0  0  0  0  0  0  0
   57.5810   31.4090   44.5190 C   0  0  0  0  0  0  0  0  0  0  0  0
   56.3110   31.1100   44.8670 N   0  0  0  0  0  0  0  0  0  0  0  0
   56.2700   29.7810   44.6610 C   0  0  0  0  0  0  0  0  0  0  0  0
   55.1440   28.9980   44.8830 O   0  0  0  0  0  0  0  0  0  0  0  0
   57.4910   29.3300   44.2130 C   0  0  0  0  0  0  0  0  0  0  0  0
   57.8680   27.9220   43.8570 C   0  0  0  0  0  0  0  0  0  0  0  0
   59.1730   27.4740   44.5380 C   0  0  0  0  0  0  0  0  0  0  0  0
   58.9730   26.3820   45.6040 C   0  0  0  0  0  0  0  0  0  0  0  0
   57.6840   25.6180   45.4170 C   0  0  0  0  0  0  0  0  0  0  0  0
   57.7190   24.3040   44.9220 C   0  0  0  0  0  0  0  0  0  0  0  0
   56.5410   23.5650   44.7900 C   0  0  0  0  0  0  0  0  0  0  0  0
   55.3110   24.1320   45.1480 C   0  0  0  0  0  0  0  0  0  0  0  0
   54.1330   23.3980   45.0250 O   0  0  0  0  0  0  0  0  0  0  0  0
   55.2650   25.4450   45.6340 C   0  0  0  0  0  0  0  0  0  0  0  0
   54.0470   26.0100   45.9920 O   0  0  0  0  0  0  0  0  0  0  0  0
   56.4450   26.1880   45.7660 C   0  0  0  0  0  0  0  0  0  0  0  0
   56.3790   27.4530   46.2540 F   0  0  0  0  0  0  0  0  0  0  0  0
   58.2840   30.3690   44.1260 O   0  0  0  0  0  0  0  0  0  0  0  0
   57.0566   27.2489   44.1710 H   0  0  0  0  0  0  0  0  0  0  0  0
   58.0266   27.8822   42.7692 H   0  0  0  0  0  0  0  0  0  0  0  0
   59.8517   27.0842   43.7650 H   0  0  0  0  0  0  0  0  0  0  0  0
   59.5844   28.3543   45.0537 H   0  0  0  0  0  0  0  0  0  0  0  0
   59.8135   25.6747   45.5460 H   0  0  0  0  0  0  0  0  0  0  0  0
   58.9274   26.8779   46.5848 H   0  0  0  0  0  0  0  0  0  0  0  0
   58.6810   23.8536   44.6362 H   0  0  0  0  0  0  0  0  0  0  0  0
   56.5792   22.5356   44.4041 H   0  0  0  0  0  0  0  0  0  0  0  0
   53.2350   23.7900   45.2830 H   0  0  0  0  0  0  0  0  0  0  0  0
  1  2  2  0
  2  3  1  0
  3  4  1  0
  4  5  1  0
  4  6  2  0
  6  7  1  0
  7  8  1  0
  8  9  1  0
  9 10  1  0
 10 11  2  0
 11 12  1  0
 12 13  2  0
 13 14  1  0
 13 15  1  0
 15 16  1  0
 15 17  2  0
 17 18  1  0
  6 19  1  0
 19  2  1  0
 17 10  1  0
  7 20  1  0
  7 21  1  0
  8 22  1  0
  8 23  1  0
  9 24  1  0
  9 25  1  0
 11 26  1  0
 12 27  1  0
 14 28  1  0
M  CHG  3   3  -1   5  -1  16  -1
M  END
>  <UniqueID>  (43) 
36

>  <SMILES>  (43) 
O=c1[n-]c([O-])c(CCCc2ccc(O)c([O-])c2F)o1

>  <Energy>  (43) 
54.771418413630336

>  <Genealogy>  (43) 
O=c1[n-]c([O-])c(CCCc2ccc(O)c([O-])c2F)o1 (protonated)
O=c1[n-]c([O-])c(CCCc2ccc(O)c([O-])c2F)o1 (3D coordinates assigned)
O=c1[n-]c([O-])c(CCCc2ccc(O)c([O-])c2F)o1 (optimized conformer: 54.771418413630336 kcal/mol)

>  <smiles>  (43) 
O=c1[nH]c(O)c(CCCc2ccc(O)c(O)c2F)o1

>  <score_type>  (43) 
oracle

>  <origin>  (43) 
adg

>  <m_score__min__energy>  (43) 
-14.1

>  <m_primary>  (43) 
energy

$$$$
43:0
     RDKit          3D

 45 47  0  0  0  0  0  0  0  0999 V2000
   54.3920   25.9790   45.8390 N   0  0  0  0  0  0  0  0  0  0  0  0
   54.1530   24.7180   45.2150 C   0  0  0  0  0  0  0  0  0  0  0  0
   52.9820   24.2570   45.2030 O   0  0  0  0  0  0  0  0  0  0  0  0
   55.2850   23.9460   44.6420 C   0  0  0  0  0  0  0  0  0  0  0  0
   55.1060   23.3590   43.3730 C   0  0  0  0  0  0  0  0  0  0  0  0
   56.1380   22.6490   42.7600 C   0  0  0  0  0  0  0  0  0  0  0  0
   57.3650   22.5090   43.4020 C   0  0  0  0  0  0  0  0  0  0  0  0
   57.5620   23.0680   44.6640 C   0  0  0  0  0  0  0  0  0  0  0  0
   56.5340   23.7820   45.3040 C   0  0  0  0  0  0  0  0  0  0  0  0
   56.8310   24.3760   46.9480 S   0  0  0  0  0  0  0  0  0  0  0  0
   55.5400   24.4440   47.7170 O   0  0  0  0  0  0  0  0  0  0  0  0
   57.7570   23.4230   47.6530 O   0  0  0  0  0  0  0  0  0  0  0  0
   57.5360   25.9740   46.8800 N   0  0  0  0  0  0  0  0  0  0  0  0
   58.9960   25.9180   47.1520 C   0  0  0  0  0  0  0  0  0  0  0  0
   59.8580   26.7290   46.1670 C   0  0  0  0  0  0  0  0  0  0  0  0
   59.2090   28.0010   45.8380 N   0  0  0  0  0  0  0  0  0  0  0  0
   60.0140   29.1440   45.5000 C   0  0  0  0  0  0  0  0  0  0  0  0
   61.1260   28.9830   44.9300 O   0  0  0  0  0  0  0  0  0  0  0  0
   59.5530   30.4760   45.7520 N   0  0  0  0  0  0  0  0  0  0  0  0
   60.1410   31.3830   46.6940 C   0  0  0  0  0  0  0  0  0  0  0  0
   59.3530   32.4080   47.2320 C   0  0  0  0  0  0  0  0  0  0  0  0
   59.9050   33.3210   48.1340 C   0  0  0  0  0  0  0  0  0  0  0  0
   61.2560   33.2330   48.4910 C   0  0  0  0  0  0  0  0  0  0  0  0
   61.9160   34.4050   49.6240 Cl  0  0  0  0  0  0  0  0  0  0  0  0
   62.0590   32.2230   47.9360 C   0  0  0  0  0  0  0  0  0  0  0  0
   63.7680   32.1000   48.3250 Cl  0  0  0  0  0  0  0  0  0  0  0  0
   61.5010   31.3040   47.0400 C   0  0  0  0  0  0  0  0  0  0  0  0
   57.7700   28.0270   45.5530 C   0  0  0  0  0  0  0  0  0  0  0  0
   57.1820   26.6160   45.6050 C   0  0  0  0  0  0  0  0  0  0  0  0
   55.2720   26.1520   46.3740 H   0  0  0  0  0  0  0  0  0  0  0  0
   54.1389   23.4624   42.8591 H   0  0  0  0  0  0  0  0  0  0  0  0
   55.9822   22.1993   41.7683 H   0  0  0  0  0  0  0  0  0  0  0  0
   58.1807   21.9564   42.9129 H   0  0  0  0  0  0  0  0  0  0  0  0
   58.5339   22.9488   45.1651 H   0  0  0  0  0  0  0  0  0  0  0  0
   59.1724   26.3080   48.1653 H   0  0  0  0  0  0  0  0  0  0  0  0
   59.2962   24.8658   47.0392 H   0  0  0  0  0  0  0  0  0  0  0  0
   60.8372   26.9310   46.6256 H   0  0  0  0  0  0  0  0  0  0  0  0
   59.9830   26.1458   45.2427 H   0  0  0  0  0  0  0  0  0  0  0  0
   58.2951   32.4947   46.9432 H   0  0  0  0  0  0  0  0  0  0  0  0
   59.2752   34.1128   48.5658 H   0  0  0  0  0  0  0  0  0  0  0  0
   62.1309   30.5147   46.6037 H   0  0  0  0  0  0  0  0  0  0  0  0
   57.2653   28.6561   46.3010 H   0  0  0  0  0  0  0  0  0  0  0  0
   57.6172   28.4364   44.5435 H   0  0  0  0  0  0  0  0  0  0  0  0
   56.0870   26.6735   45.5170 H   0  0  0  0  0  0  0  0  0  0  0  0
   57.5906   26.0220   44.7742 H   0  0  0  0  0  0  0  0  0  0  0  0
  1  2  1  0
  2  3  2  0
  2  4  1  0
  4  5  2  0
  5  6  1  0
  6  7  2  0
  7  8  1  0
  8  9  2  0
  9 10  1  0
 10 11  2  0
 10 12  2  0
 10 13  1  0
 13 14  1  0
 14 15  1  0
 15 16  1  0
 16 17  1  0
 17 18  2  0
 17 19  1  0
 19 20  1  0
 20 21  2  0
 21 22  1  0
 22 23  2  0
 23 24  1  0
 23 25  1  0
 25 26  1  0
 25 27  2  0
 16 28  1  0
 28 29  1  0
  9  4  1  0
 29 13  1  0
 27 20  1  0
  1 30  1  0
  5 31  1  0
  6 32  1  0
  7 33  1  0
  8 34  1  0
 14 35  1  0
 14 36  1  0
 15 37  1  0
 15 38  1  0
 21 39  1  0
 22 40  1  0
 27 41  1  0
 28 42  1  0
 28 43  1  0
 29 44  1  0
 29 45  1  0
M  CHG  2   1  -1  19  -1
M  END
>  <UniqueID>  (44) 
37

>  <SMILES>  (44) 
[NH-]C(=O)c1ccccc1S(=O)(=O)N1CCN(C(=O)[N-]c2ccc(Cl)c(Cl)c2)CC1

>  <Energy>  (44) 
61.62732483049667

>  <Genealogy>  (44) 
[NH-]C(=O)c1ccccc1S(=O)(=O)N1CCN(C(=O)[N-]c2ccc(Cl)c(Cl)c2)CC1 (protonated)
[NH-]C(=O)c1ccccc1S(=O)(=O)N1CCN(C(=O)[N-]c2ccc(Cl)c(Cl)c2)CC1 (3D coordinates assigned)
[NH-]C(=O)c1ccccc1S(=O)(=O)N1CCN(C(=O)[N-]c2ccc(Cl)c(Cl)c2)CC1 (nonaromatic ring conformer: 61.62732483049667 kcal/mol)

>  <smiles>  (44) 
NC(=O)c1ccccc1S(=O)(=O)N1CCN(C(=O)Nc2ccc(Cl)c(Cl)c2)CC1

>  <score_type>  (44) 
oracle

>  <origin>  (44) 
adg

>  <m_score__min__energy>  (44) 
-13.539999999999999

>  <m_primary>  (44) 
energy

$$$$
44:0
     RDKit          3D

 53 56  0  0  1  0  0  0  0  0999 V2000
   56.2820   20.1150   43.9300 C   0  0  0  0  0  0  0  0  0  0  0  0
   55.9240   21.5140   43.8310 N   0  0  0  0  0  0  0  0  0  0  0  0
   56.5630   22.1860   42.7470 C   0  0  0  0  0  0  0  0  0  0  0  0
   56.6460   23.6730   42.8950 C   0  0  0  0  0  0  0  0  0  0  0  0
   57.0720   24.1000   44.2030 N   0  0  0  0  0  0  0  0  0  0  0  0
   57.4210   25.4540   44.4180 C   0  0  0  0  0  0  0  0  0  0  0  0
   57.9670   26.2610   43.4350 C   0  0  0  0  0  0  0  0  0  0  0  0
   58.2880   27.5870   43.7360 C   0  0  0  0  0  0  0  0  0  0  0  0
   58.0450   28.0510   45.0280 C   0  0  0  0  0  0  0  0  0  0  0  0
   58.3410   29.3880   45.4150 N   0  0  0  0  0  0  0  0  0  0  0  0
   57.2800   30.3360   45.2880 C   0  0  0  0  0  0  0  0  0  0  0  0
   56.1770   29.8860   44.8400 O   0  0  0  0  0  0  0  0  0  0  0  0
   57.4380   31.7400   45.6460 C   0  0  0  0  0  0  0  0  0  0  0  0
   58.3600   32.2990   46.5360 C   0  0  0  0  0  0  0  0  0  0  0  0
   58.0900   33.6580   46.5160 C   0  0  0  0  0  0  0  0  0  0  0  0
   58.7000   34.5730   47.1920 N   0  0  0  0  0  0  0  0  0  0  0  0
   60.0490   34.8560   46.8680 C   0  0  0  0  0  0  0  0  0  0  0  0
   60.3930   35.6410   45.9350 O   0  0  0  0  0  0  0  0  0  0  0  0
   61.1110   34.2270   47.6290 C   0  0  0  0  0  0  0  0  0  0  0  0
   61.0770   34.1060   48.9970 C   0  0  0  0  0  0  0  0  0  0  0  0
   62.1010   33.5000   49.7240 C   0  0  0  0  0  0  0  0  0  0  0  0
   63.2090   32.9950   49.0510 C   0  0  0  0  0  0  0  0  0  0  0  0
   63.2650   33.1050   47.6770 C   0  0  0  0  0  0  0  0  0  0  0  0
   62.2350   33.7100   46.9850 C   0  0  0  0  0  0  0  0  0  0  0  0
   62.3000   33.8150   45.6360 F   0  0  0  0  0  0  0  0  0  0  0  0
   57.0650   33.8940   45.6620 N   0  0  0  0  0  0  0  0  0  0  0  0
   56.6900   32.7340   45.1510 N   0  0  0  0  0  0  0  0  0  0  0  0
   57.4940   27.2250   46.0030 C   0  0  0  0  0  0  0  0  0  0  0  0
   57.1970   25.9450   45.6700 N   0  0  0  0  0  0  0  0  0  0  0  0
   57.1220   23.1120   45.2610 C   0  0  0  0  0  0  0  0  0  0  0  0
   55.9330   22.1920   45.0860 C   0  0  0  0  0  0  0  0  0  0  0  0
   56.3551   19.8293   44.9897 H   0  0  0  0  0  0  0  0  0  0  0  0
   55.5114   19.5036   43.4377 H   0  0  0  0  0  0  0  0  0  0  0  0
   57.2516   19.9489   43.4377 H   0  0  0  0  0  0  0  0  0  0  0  0
   57.5864   21.7931   42.6557 H   0  0  0  0  0  0  0  0  0  0  0  0
   55.9457   21.9963   41.8565 H   0  0  0  0  0  0  0  0  0  0  0  0
   57.3623   24.0567   42.1536 H   0  0  0  0  0  0  0  0  0  0  0  0
   55.6315   24.0693   42.7411 H   0  0  0  0  0  0  0  0  0  0  0  0
   58.1466   25.8619   42.4258 H   0  0  0  0  0  0  0  0  0  0  0  0
   58.7220   28.2489   42.9721 H   0  0  0  0  0  0  0  0  0  0  0  0
   59.2650   29.7010   45.7770 H   0  0  0  0  0  0  0  0  0  0  0  0
   59.1296   31.7757   47.1224 H   0  0  0  0  0  0  0  0  0  0  0  0
   60.2071   34.5031   49.5407 H   0  0  0  0  0  0  0  0  0  0  0  0
   62.0334   33.4220   50.8191 H   0  0  0  0  0  0  0  0  0  0  0  0
   64.0283   32.5151   49.6063 H   0  0  0  0  0  0  0  0  0  0  0  0
   64.1338   32.7091   47.1307 H   0  0  0  0  0  0  0  0  0  0  0  0
   56.6220   34.8260   45.4240 H   0  0  0  0  0  0  0  0  0  0  0  0
   55.9080   32.5970   44.4490 H   0  0  0  0  0  0  0  0  0  0  0  0
   57.3041   27.6015   47.0190 H   0  0  0  0  0  0  0  0  0  0  0  0
   58.0559   22.5350   45.1913 H   0  0  0  0  0  0  0  0  0  0  0  0
   57.0907   23.5999   46.2464 H   0  0  0  0  0  0  0  0  0  0  0  0
   55.9521   21.4402   45.8888 H   0  0  0  0  0  0  0  0  0  0  0  0
   55.0288   22.8172   45.1250 H   0  0  0  0  0  0  0  0  0  0  0  0
  1  2  1  0
  2  3  1  0
  3  4  1  0
  4  5  1  0
  5  6  1  0
  6  7  2  0
  7  8  1  0
  8  9  2  0
  9 10  1  0
 10 11  1  0
 11 12  2  0
 11 13  1  0
 13 14  2  0
 14 15  1  0
 15 16  2  0
 16 17  1  0
 17 18  2  0
 17 19  1  0
 19 20  2  0
 20 21  1  0
 21 22  2  0
 22 23  1  0
 23 24  2  0
 24 25  1  0
 15 26  1  0
 26 27  1  0
  9 28  1  0
 28 29  2  0
  5 30  1  0
 30 31  1  0
 31  2  1  0
 29  6  1  0
 27 13  1  0
 24 19  1  0
  1 32  1  0
  1 33  1  0
  1 34  1  0
  3 35  1  0
  3 36  1  0
  4 37  1  0
  4 38  1  0
  7 39  1  0
  8 40  1  0
 10 41  1  0
 14 42  1  0
 20 43  1  0
 21 44  1  0
 22 45  1  0
 23 46  1  0
 26 47  1  0
 27 48  1  0
 28 49  1  0
 30 50  1  0
 30 51  1  0
 31 52  1  0
 31 53  1  0
M  END
>  <smiles>  (45) 
CN1CCN(c2ccc(NC(=O)c3cc(=NC(=O)c4ccccc4F)[nH][nH]3)cn2)CC1

>  <score_type>  (45) 
oracle

>  <origin>  (45) 
adg

>  <m_score__min__energy>  (45) 
-8.9299999999999997

>  <m_primary>  (45) 
energy

$$$$
45:0
     RDKit          3D

 61 63  0  0  0  0  0  0  0  0999 V2000
   57.3540   25.0530   43.9140 C   0  0  0  0  0  0  0  0  0  0  0  0
   56.1180   24.4380   44.3890 N   0  0  0  0  0  0  0  0  0  0  0  0
   55.6260   25.1940   45.8720 S   0  0  0  0  0  0  0  0  0  0  0  0
   54.3600   25.9740   45.6480 O   0  0  0  0  0  0  0  0  0  0  0  0
   55.3810   24.1260   46.9010 O   0  0  0  0  0  0  0  0  0  0  0  0
   56.8740   26.2580   46.4290 N   0  0  0  0  0  0  0  0  0  0  0  0
   56.9550   27.6290   46.0290 C   0  0  0  0  0  0  0  0  0  0  0  0
   56.0820   28.1070   45.2540 O   0  0  0  0  0  0  0  0  0  0  0  0
   58.0600   28.4830   46.5180 C   0  0  0  0  0  0  0  0  0  0  0  0
   58.5770   29.5280   45.7040 C   0  0  0  0  0  0  0  0  0  0  0  0
   59.6220   30.3490   46.1640 C   0  0  0  0  0  0  0  0  0  0  0  0
   60.1290   30.1050   47.4410 C   0  0  0  0  0  0  0  0  0  0  0  0
   59.6500   29.0940   48.2200 C   0  0  0  0  0  0  0  0  0  0  0  0
   58.6150   28.2650   47.8010 C   0  0  0  0  0  0  0  0  0  0  0  0
   60.3290   29.0300   49.3790 N   0  0  0  0  0  0  0  0  0  0  0  0
   61.2370   30.0350   49.2640 C   0  0  0  0  0  0  0  0  0  0  0  0
   62.2480   30.3290   50.3380 C   0  0  0  0  0  0  0  0  0  0  0  0
   61.6040   30.6730   51.5670 O   0  0  0  0  0  0  0  0  0  0  0  0
   60.5880   31.6340   51.7050 C   0  0  0  0  0  0  0  0  0  0  0  0
   60.8590   32.9950   51.9420 C   0  0  0  0  0  0  0  0  0  0  0  0
   59.8100   33.9050   52.0830 C   0  0  0  0  0  0  0  0  0  0  0  0
   58.4860   33.4720   51.9900 C   0  0  0  0  0  0  0  0  0  0  0  0
   58.1920   32.1210   51.7500 C   0  0  0  0  0  0  0  0  0  0  0  0
   56.8130   31.7110   51.6700 N   0  0  0  0  0  0  0  0  0  0  0  0
   56.1730   30.2480   52.3510 S   0  0  0  0  0  0  0  0  0  0  0  0
   55.9950   30.4120   54.1160 C   0  0  0  0  0  0  0  0  0  0  0  0
   57.0700   29.0890   52.0180 O   0  0  0  0  0  0  0  0  0  0  0  0
   54.8180   29.9900   51.7550 O   0  0  0  0  0  0  0  0  0  0  0  0
   59.2560   31.2090   51.6040 C   0  0  0  0  0  0  0  0  0  0  0  0
   61.1200   30.7360   48.1000 N   0  0  0  0  0  0  0  0  0  0  0  0
   61.9310   31.8690   47.6330 C   0  0  0  0  0  0  0  0  0  0  0  0
   61.0710   32.9560   47.0330 C   0  0  0  0  0  0  0  0  0  0  0  0
   60.5250   33.9730   47.7340 C   0  0  0  0  0  0  0  0  0  0  0  0
   59.2650   34.6120   47.2090 C   0  0  0  0  0  0  0  0  0  0  0  0
   61.1440   34.4840   49.0130 C   0  0  0  0  0  0  0  0  0  0  0  0
   57.9665   25.3578   44.7754 H   0  0  0  0  0  0  0  0  0  0  0  0
   57.9135   24.3282   43.3044 H   0  0  0  0  0  0  0  0  0  0  0  0
   57.1133   25.9364   43.3044 H   0  0  0  0  0  0  0  0  0  0  0  0
   56.3260   23.4380   44.6120 H   0  0  0  0  0  0  0  0  0  0  0  0
   58.1545   29.6962   44.7024 H   0  0  0  0  0  0  0  0  0  0  0  0
   60.0267   31.1575   45.5374 H   0  0  0  0  0  0  0  0  0  0  0  0
   58.2378   27.4610   48.4500 H   0  0  0  0  0  0  0  0  0  0  0  0
   62.8737   29.4383   50.4967 H   0  0  0  0  0  0  0  0  0  0  0  0
   62.8649   31.1806   50.0151 H   0  0  0  0  0  0  0  0  0  0  0  0
   61.9001   33.3422   52.0163 H   0  0  0  0  0  0  0  0  0  0  0  0
   60.0273   34.9673   52.2681 H   0  0  0  0  0  0  0  0  0  0  0  0
   57.6661   34.1961   52.1059 H   0  0  0  0  0  0  0  0  0  0  0  0
   56.1350   32.3280   51.1680 H   0  0  0  0  0  0  0  0  0  0  0  0
   56.7140   29.7495   54.6202 H   0  0  0  0  0  0  0  0  0  0  0  0
   56.1891   31.4544   54.4088 H   0  0  0  0  0  0  0  0  0  0  0  0
   54.9720   30.1333   54.4088 H   0  0  0  0  0  0  0  0  0  0  0  0
   59.0384   30.1487   51.4080 H   0  0  0  0  0  0  0  0  0  0  0  0
   62.4889   32.2843   48.4852 H   0  0  0  0  0  0  0  0  0  0  0  0
   62.6179   31.5040   46.8552 H   0  0  0  0  0  0  0  0  0  0  0  0
   60.8761   32.9166   45.9511 H   0  0  0  0  0  0  0  0  0  0  0  0
   58.6363   34.9309   48.0534 H   0  0  0  0  0  0  0  0  0  0  0  0
   59.5258   35.4868   46.5952 H   0  0  0  0  0  0  0  0  0  0  0  0
   58.7133   33.8847   46.5952 H   0  0  0  0  0  0  0  0  0  0  0  0
   60.6169   34.0489   49.8749 H   0  0  0  0  0  0  0  0  0  0  0  0
   62.2048   34.1951   49.0479 H   0  0  0  0  0  0  0  0  0  0  0  0
   61.0612   35.5803   49.0479 H   0  0  0  0  0  0  0  0  0  0  0  0
  1  2  1  0
  2  3  1  0
  3  4  2  0
  3  5  2  0
  3  6  1  0
  6  7  1  0
  7  8  2  0
  7  9  1  0
  9 10  2  0
 10 11  1  0
 11 12  2  0
 12 13  1  0
 13 14  2  0
 13 15  1  0
 15 16  2  0
 16 17  1  0
 17 18  1  0
 18 19  1  0
 19 20  2  0
 20 21  1  0
 21 22  2  0
 22 23  1  0
 23 24  1  0
 24 25  1  0
 25 26  1  0
 25 27  2  0
 25 28  2  0
 23 29  2  0
 16 30  1  0
 30 31  1  0
 31 32  1  0
 32 33  2  3
 33 34  1  0
 33 35  1  0
 14  9  1  0
 29 19  1  0
 30 12  1  0
  1 36  1  0
  1 37  1  0
  1 38  1  0
  2 39  1  0
 10 40  1  0
 11 41  1  0
 14 42  1  0
 17 43  1  0
 17 44  1  0
 20 45  1  0
 21 46  1  0
 22 47  1  0
 24 48  1  0
 26 49  1  0
 26 50  1  0
 26 51  1  0
 29 52  1  0
 31 53  1  0
 31 54  1  0
 32 55  1  0
 34 56  1  0
 34 57  1  0
 34 58  1  0
 35 59  1  0
 35 60  1  0
 35 61  1  0
M  CHG  1   6  -1
M  END
>  <UniqueID>  (46) 
38

>  <SMILES>  (46) 
CNS(=O)(=O)[N-]C(=O)c1ccc2c(c1)nc(COc1cccc(NS(C)(=O)=O)c1)n2CC=C(C)C

>  <Energy>  (46) 
91.23859011631322

>  <Genealogy>  (46) 
CNS(=O)(=O)[N-]C(=O)c1ccc2c(c1)nc(COc1cccc(NS(C)(=O)=O)c1)n2CC=C(C)C (protonated)
CNS(=O)(=O)[N-]C(=O)c1ccc2c(c1)nc(COc1cccc(NS(C)(=O)=O)c1)n2CC=C(C)C (3D coordinates assigned)
CNS(=O)(=O)[N-]C(=O)c1ccc2c(c1)nc(COc1cccc(NS(C)(=O)=O)c1)n2CC=C(C)C (optimized conformer: 91.23859011631322 kcal/mol)

>  <smiles>  (46) 
CNS(=O)(=O)NC(=O)c1ccc2c(c1)nc(COc1cccc(NS(C)(=O)=O)c1)n2CC=C(C)C

>  <score_type>  (46) 
oracle

>  <origin>  (46) 
adg

>  <m_score__min__energy>  (46) 
-11.33

>  <m_primary>  (46) 
energy

$$$$
46:0
     RDKit          3D

 48 51  0  0  0  0  0  0  0  0999 V2000
   57.4650   26.8100   46.6050 C   0  0  0  0  0  0  0  0  0  0  0  0
   58.2080   27.9590   46.0770 N   0  0  0  0  0  0  0  0  0  0  0  0
   57.8620   28.5270   44.7950 C   0  0  0  0  0  0  0  0  0  0  0  0
   58.3750   28.0620   43.7420 O   0  0  0  0  0  0  0  0  0  0  0  0
   56.9650   29.6880   44.6750 C   0  0  0  0  0  0  0  0  0  0  0  0
   55.7350   29.5490   44.9160 O   0  0  0  0  0  0  0  0  0  0  0  0
   57.4700   30.9980   44.2240 C   0  0  0  0  0  0  0  0  0  0  0  0
   57.3610   31.5120   42.9350 C   0  0  0  0  0  0  0  0  0  0  0  0
   57.9170   32.7430   42.8680 N   0  0  0  0  0  0  0  0  0  0  0  0
   58.3630   33.0180   44.1050 C   0  0  0  0  0  0  0  0  0  0  0  0
   58.9860   34.1890   44.5310 C   0  0  0  0  0  0  0  0  0  0  0  0
   59.3420   34.2930   45.8860 C   0  0  0  0  0  0  0  0  0  0  0  0
   59.0520   33.2410   46.7920 C   0  0  0  0  0  0  0  0  0  0  0  0
   59.4520   33.3600   48.2390 C   0  0  0  0  0  0  0  0  0  0  0  0
   60.4300   34.5180   48.4580 C   0  0  0  0  0  0  0  0  0  0  0  0
   61.8120   34.0410   48.4850 N   0  0  0  0  0  0  0  0  0  0  0  0
   62.7150   34.1650   49.4810 C   0  0  0  0  0  0  0  0  0  0  0  0
   63.9090   33.6360   49.1300 N   0  0  0  0  0  0  0  0  0  0  0  0
   63.7680   33.1790   47.8950 N   0  0  0  0  0  0  0  0  0  0  0  0
   62.5080   33.4310   47.5110 C   0  0  0  0  0  0  0  0  0  0  0  0
   62.0430   33.1380   46.3780 O   0  0  0  0  0  0  0  0  0  0  0  0
   58.4240   32.0670   46.3250 C   0  0  0  0  0  0  0  0  0  0  0  0
   58.1060   31.9820   44.9670 C   0  0  0  0  0  0  0  0  0  0  0  0
   59.1100   28.6700   46.9450 C   0  0  0  0  0  0  0  0  0  0  0  0
   60.2210   29.3410   46.4120 C   0  0  0  0  0  0  0  0  0  0  0  0
   61.0930   30.0380   47.2530 C   0  0  0  0  0  0  0  0  0  0  0  0
   60.8620   30.0770   48.6330 C   0  0  0  0  0  0  0  0  0  0  0  0
   61.9730   30.9770   49.6580 Cl  0  0  0  0  0  0  0  0  0  0  0  0
   59.7460   29.4150   49.1730 C   0  0  0  0  0  0  0  0  0  0  0  0
   59.4080   29.4600   50.8980 Cl  0  0  0  0  0  0  0  0  0  0  0  0
   58.8760   28.7150   48.3300 C   0  0  0  0  0  0  0  0  0  0  0  0
   57.4820   26.8363   47.7046 H   0  0  0  0  0  0  0  0  0  0  0  0
   56.4237   26.8537   46.2532 H   0  0  0  0  0  0  0  0  0  0  0  0
   57.9321   25.8783   46.2532 H   0  0  0  0  0  0  0  0  0  0  0  0
   56.8889   30.9902   42.0895 H   0  0  0  0  0  0  0  0  0  0  0  0
   57.9720   33.3560   42.0240 H   0  0  0  0  0  0  0  0  0  0  0  0
   59.1931   35.0083   43.8269 H   0  0  0  0  0  0  0  0  0  0  0  0
   59.8505   35.1989   46.2477 H   0  0  0  0  0  0  0  0  0  0  0  0
   58.5510   33.5336   48.8457 H   0  0  0  0  0  0  0  0  0  0  0  0
   59.9510   32.4260   48.5369 H   0  0  0  0  0  0  0  0  0  0  0  0
   60.3163   35.2441   47.6395 H   0  0  0  0  0  0  0  0  0  0  0  0
   60.2035   34.9886   49.4261 H   0  0  0  0  0  0  0  0  0  0  0  0
   62.5063   34.6358   50.4530 H   0  0  0  0  0  0  0  0  0  0  0  0
   64.5190   32.7110   47.3400 H   0  0  0  0  0  0  0  0  0  0  0  0
   58.1908   31.2402   47.0120 H   0  0  0  0  0  0  0  0  0  0  0  0
   60.4065   29.3184   45.3280 H   0  0  0  0  0  0  0  0  0  0  0  0
   61.9645   30.5581   46.8286 H   0  0  0  0  0  0  0  0  0  0  0  0
   58.0033   28.1966   48.7540 H   0  0  0  0  0  0  0  0  0  0  0  0
  1  2  1  0
  2  3  1  0
  3  4  2  0
  3  5  1  0
  5  6  2  0
  5  7  1  0
  7  8  2  0
  8  9  1  0
  9 10  1  0
 10 11  2  0
 11 12  1  0
 12 13  2  0
 13 14  1  0
 14 15  1  0
 15 16  1  0
 16 17  1  0
 17 18  2  0
 18 19  1  0
 19 20  1  0
 20 21  2  0
 13 22  1  0
 22 23  2  0
  2 24  1  0
 24 25  2  0
 25 26  1  0
 26 27  2  0
 27 28  1  0
 27 29  1  0
 29 30  1  0
 29 31  2  0
 23  7  1  0
 31 24  1  0
 23 10  1  0
 20 16  1  0
  1 32  1  0
  1 33  1  0
  1 34  1  0
  8 35  1  0
  9 36  1  0
 11 37  1  0
 12 38  1  0
 14 39  1  0
 14 40  1  0
 15 41  1  0
 15 42  1  0
 17 43  1  0
 19 44  1  0
 22 45  1  0
 25 46  1  0
 26 47  1  0
 31 48  1  0
M  END
>  <UniqueID>  (47) 
39

>  <SMILES>  (47) 
CN(C(=O)C(=O)c1c[nH]c2ccc(CCn3cn[nH]c3=O)cc12)c1ccc(Cl)c(Cl)c1

>  <Energy>  (47) 
126.82976247899717

>  <Genealogy>  (47) 
CN(C(=O)C(=O)c1c[nH]c2ccc(CCn3cn[nH]c3=O)cc12)c1ccc(Cl)c(Cl)c1 (3D coordinates assigned)
CN(C(=O)C(=O)c1c[nH]c2ccc(CCn3cn[nH]c3=O)cc12)c1ccc(Cl)c(Cl)c1 (optimized conformer: 126.82976247899717 kcal/mol)

>  <smiles>  (47) 
CN(C(=O)C(=O)c1c[nH]c2ccc(CCn3cn[nH]c3=O)cc12)c1ccc(Cl)c(Cl)c1

>  <score_type>  (47) 
oracle

>  <origin>  (47) 
adg

>  <m_score__min__energy>  (47) 
-9.8699999999999992

>  <m_primary>  (47) 
energy

$$$$
47:0
     RDKit          3D

 52 55  0  0  0  0  0  0  0  0999 V2000
   61.1090   29.7900   45.9900 C   0  0  0  0  0  0  0  0  0  0  0  0
   60.1930   30.6870   46.3860 C   0  0  0  0  0  0  0  0  0  0  0  0
   58.8010   30.6330   46.2000 C   0  0  0  0  0  0  0  0  0  0  0  0
   58.0350   29.7870   45.4810 C   0  0  0  0  0  0  0  0  0  0  0  0
   57.5200   28.4870   45.9490 C   0  0  0  0  0  0  0  0  0  0  0  0
   56.2280   28.0690   45.5980 C   0  0  0  0  0  0  0  0  0  0  0  0
   55.3970   28.8960   44.8480 O   0  0  0  0  0  0  0  0  0  0  0  0
   55.7770   26.8520   45.9970 N   0  0  0  0  0  0  0  0  0  0  0  0
   56.5630   26.0170   46.7230 C   0  0  0  0  0  0  0  0  0  0  0  0
   56.1210   24.8960   47.0860 O   0  0  0  0  0  0  0  0  0  0  0  0
   57.8270   26.3870   47.0520 N   0  0  0  0  0  0  0  0  0  0  0  0
   58.3260   27.5930   46.6770 C   0  0  0  0  0  0  0  0  0  0  0  0
   59.5100   27.8940   46.9830 O   0  0  0  0  0  0  0  0  0  0  0  0
   58.2710   31.6870   46.9270 C   0  0  0  0  0  0  0  0  0  0  0  0
   59.3350   32.3710   47.4760 C   0  0  0  0  0  0  0  0  0  0  0  0
   59.2120   33.5790   48.3550 C   0  0  0  0  0  0  0  0  0  0  0  0
   60.4970   31.7610   47.1570 N   0  0  0  0  0  0  0  0  0  0  0  0
   61.8070   32.1810   47.5800 C   0  0  0  0  0  0  0  0  0  0  0  0
   62.5460   33.0350   46.7470 C   0  0  0  0  0  0  0  0  0  0  0  0
   63.8000   33.5000   47.1450 C   0  0  0  0  0  0  0  0  0  0  0  0
   64.3280   33.1180   48.3790 C   0  0  0  0  0  0  0  0  0  0  0  0
   63.6060   32.2640   49.2170 C   0  0  0  0  0  0  0  0  0  0  0  0
   62.3400   31.7830   48.8300 C   0  0  0  0  0  0  0  0  0  0  0  0
   61.6170   30.8430   49.7180 C   0  0  0  0  0  0  0  0  0  0  0  0
   61.6620   31.0040   50.9680 O   0  0  0  0  0  0  0  0  0  0  0  0
   60.8610   29.7540   49.1670 N   0  0  0  0  0  0  0  0  0  0  0  0
   60.0130   28.8950   49.9910 C   0  0  0  0  0  0  0  0  0  0  0  0
   59.0030   29.7240   50.7370 C   0  0  0  0  0  0  0  0  0  0  0  0
   58.5590   29.3360   52.0120 C   0  0  0  0  0  0  0  0  0  0  0  0
   57.6390   30.1260   52.7080 C   0  0  0  0  0  0  0  0  0  0  0  0
   57.1610   31.3100   52.1400 C   0  0  0  0  0  0  0  0  0  0  0  0
   56.2710   32.0760   52.8170 F   0  0  0  0  0  0  0  0  0  0  0  0
   57.6040   31.7060   50.8740 C   0  0  0  0  0  0  0  0  0  0  0  0
   58.5220   30.9180   50.1750 C   0  0  0  0  0  0  0  0  0  0  0  0
   62.1744   29.9606   46.2042 H   0  0  0  0  0  0  0  0  0  0  0  0
   60.7946   28.8840   45.4511 H   0  0  0  0  0  0  0  0  0  0  0  0
   57.7719   30.0932   44.4577 H   0  0  0  0  0  0  0  0  0  0  0  0
   57.2049   31.9314   47.0438 H   0  0  0  0  0  0  0  0  0  0  0  0
   59.2435   33.2695   49.4101 H   0  0  0  0  0  0  0  0  0  0  0  0
   60.0446   34.2680   48.1500 H   0  0  0  0  0  0  0  0  0  0  0  0
   58.2576   34.0860   48.1500 H   0  0  0  0  0  0  0  0  0  0  0  0
   62.1340   33.3399   45.7737 H   0  0  0  0  0  0  0  0  0  0  0  0
   64.3729   34.1683   46.4854 H   0  0  0  0  0  0  0  0  0  0  0  0
   65.3146   33.4899   48.6927 H   0  0  0  0  0  0  0  0  0  0  0  0
   64.0299   31.9649   50.1870 H   0  0  0  0  0  0  0  0  0  0  0  0
   60.9440   29.5320   48.1490 H   0  0  0  0  0  0  0  0  0  0  0  0
   59.4874   28.1762   49.3452 H   0  0  0  0  0  0  0  0  0  0  0  0
   60.6425   28.3580   50.7159 H   0  0  0  0  0  0  0  0  0  0  0  0
   58.9365   28.4072   52.4645 H   0  0  0  0  0  0  0  0  0  0  0  0
   57.2909   29.8151   53.7041 H   0  0  0  0  0  0  0  0  0  0  0  0
   57.2292   32.6391   50.4279 H   0  0  0  0  0  0  0  0  0  0  0  0
   58.8695   31.2341   49.1803 H   0  0  0  0  0  0  0  0  0  0  0  0
  1  2  2  0
  2  3  1  0
  3  4  2  3
  4  5  1  0
  5  6  2  0
  6  7  1  0
  6  8  1  0
  8  9  1  0
  9 10  2  0
  9 11  1  0
 11 12  1  0
 12 13  2  0
  3 14  1  0
 14 15  2  0
 15 16  1  0
 15 17  1  0
 17 18  1  0
 18 19  2  0
 19 20  1  0
 20 21  2  0
 21 22  1  0
 22 23  2  0
 23 24  1  0
 24 25  2  0
 24 26  1  0
 26 27  1  0
 27 28  1  0
 28 29  2  0
 29 30  1  0
 30 31  2  0
 31 32  1  0
 31 33  1  0
 33 34  2  0
 17  2  1  0
 23 18  1  0
 34 28  1  0
 12  5  1  0
  1 35  1  0
  1 36  1  0
  4 37  1  0
 14 38  1  0
 16 39  1  0
 16 40  1  0
 16 41  1  0
 19 42  1  0
 20 43  1  0
 21 44  1  0
 22 45  1  0
 26 46  1  0
 27 47  1  0
 27 48  1  0
 29 49  1  0
 30 50  1  0
 33 51  1  0
 34 52  1  0
M  CHG  3   7  -1   8  -1  11  -1
M  END
>  <UniqueID>  (48) 
40

>  <SMILES>  (48) 
C=c1c(=Cc2c([O-])[n-]c(=O)[n-]c2=O)cc(C)n1-c1ccccc1C(=O)NCc1ccc(F)cc1

>  <Energy>  (48) 
106.48406848445472

>  <Genealogy>  (48) 
C=c1c(=Cc2c([O-])[n-]c(=O)[n-]c2=O)cc(C)n1-c1ccccc1C(=O)NCc1ccc(F)cc1 (protonated)
C=c1c(=Cc2c([O-])[n-]c(=O)[n-]c2=O)cc(C)n1-c1ccccc1C(=O)NCc1ccc(F)cc1 (3D coordinates assigned)
C=c1c(=Cc2c([O-])[n-]c(=O)[n-]c2=O)cc(C)n1-c1ccccc1C(=O)NCc1ccc(F)cc1 (optimized conformer: 106.48406848445472 kcal/mol)

>  <smiles>  (48) 
C=c1c(=Cc2c(O)[nH]c(=O)[nH]c2=O)cc(C)n1-c1ccccc1C(=O)NCc1ccc(F)cc1

>  <score_type>  (48) 
oracle

>  <origin>  (48) 
adg

>  <m_score__min__energy>  (48) 
-16.329999999999998

>  <m_primary>  (48) 
energy

$$$$
48:0
     RDKit          3D

 53 56  0  0  0  0  0  0  0  0999 V2000
   57.3996   31.8189   52.7169 H   0  0  0  0  0  0  0  0  0  0  0  0
   56.3050   31.7540   52.6300 C   0  0  0  0  0  0  0  0  0  0  0  0
   55.7233   32.6395   52.3342 H   0  0  0  0  0  0  0  0  0  0  0  0
   55.6790   30.5940   52.8850 C   0  0  0  0  0  0  0  0  0  0  0  0
   54.3020   30.3600   52.8170 C   0  0  0  0  0  0  0  0  0  0  0  0
   53.3380   31.2470   52.5010 C   0  0  0  0  0  0  0  0  0  0  0  0
   53.1520   32.0780   53.1973 H   0  0  0  0  0  0  0  0  0  0  0  0
   52.5180   31.1710   51.2790 C   0  0  0  0  0  0  0  0  0  0  0  0
   52.6080   30.1650   50.3920 N   0  0  0  0  0  0  0  0  0  0  0  0
   51.6320   30.4450   49.4990 C   0  0  0  0  0  0  0  0  0  0  0  0
   51.4080   29.7240   48.4930 O   0  0  0  0  0  0  0  0  0  0  0  0
   50.9110   31.5520   49.7770 N   0  0  0  0  0  0  0  0  0  0  0  0
   51.4750   31.9940   50.9130 C   0  0  0  0  0  0  0  0  0  0  0  0
   51.0130   33.0960   51.6220 O   0  0  0  0  0  0  0  0  0  0  0  0
   54.1140   29.0320   53.1780 C   0  0  0  0  0  0  0  0  0  0  0  0
   53.1535   28.5011   53.2526 H   0  0  0  0  0  0  0  0  0  0  0  0
   55.3670   28.5080   53.4250 C   0  0  0  0  0  0  0  0  0  0  0  0
   55.6370   27.0880   53.8180 C   0  0  0  0  0  0  0  0  0  0  0  0
   55.6523   27.0077   54.9150 H   0  0  0  0  0  0  0  0  0  0  0  0
   54.8462   26.4390   53.4138 H   0  0  0  0  0  0  0  0  0  0  0  0
   56.6108   26.7745   53.4138 H   0  0  0  0  0  0  0  0  0  0  0  0
   56.3160   29.4540   53.2520 N   0  0  0  0  0  0  0  0  0  0  0  0
   57.7370   29.2270   53.2960 C   0  0  0  0  0  0  0  0  0  0  0  0
   58.3590   28.8400   54.4880 C   0  0  0  0  0  0  0  0  0  0  0  0
   57.7677   28.7356   55.4097 H   0  0  0  0  0  0  0  0  0  0  0  0
   59.7300   28.5870   54.5050 C   0  0  0  0  0  0  0  0  0  0  0  0
   60.2279   28.2893   55.4396 H   0  0  0  0  0  0  0  0  0  0  0  0
   60.4650   28.7150   53.3250 C   0  0  0  0  0  0  0  0  0  0  0  0
   61.5469   28.5163   53.3294 H   0  0  0  0  0  0  0  0  0  0  0  0
   59.8480   29.0850   52.1680 N   0  0  0  0  0  0  0  0  0  0  0  0
   60.4320   29.1650   51.3060 H   0  0  0  0  0  0  0  0  0  0  0  0
   58.5070   29.3420   52.1280 C   0  0  0  0  0  0  0  0  0  0  0  0
   57.8590   29.7140   50.9440 O   0  0  0  0  0  0  0  0  0  0  0  0
   58.2170   30.8180   50.1220 C   0  0  0  0  0  0  0  0  0  0  0  0
   57.4116   31.0191   49.4003 H   0  0  0  0  0  0  0  0  0  0  0  0
   58.3719   31.7133   50.7421 H   0  0  0  0  0  0  0  0  0  0  0  0
   59.5020   30.4730   49.3750 C   0  0  0  0  0  0  0  0  0  0  0  0
   59.5785   29.3811   49.2658 H   0  0  0  0  0  0  0  0  0  0  0  0
   59.4816   30.9455   48.3819 H   0  0  0  0  0  0  0  0  0  0  0  0
   60.6730   30.9740   50.1290 N   0  0  0  0  0  0  0  0  0  0  0  0
   60.3650   32.1270   51.0110 C   0  0  0  0  0  0  0  0  0  0  0  0
   59.2732   32.1883   51.1305 H   0  0  0  0  0  0  0  0  0  0  0  0
   60.8876   31.9468   51.9620 H   0  0  0  0  0  0  0  0  0  0  0  0
   60.8690   33.4790   50.4780 C   0  0  0  0  0  0  0  0  0  0  0  0
   60.3376   34.2906   50.9965 H   0  0  0  0  0  0  0  0  0  0  0  0
   61.9512   33.5468   50.6628 H   0  0  0  0  0  0  0  0  0  0  0  0
   60.5770   33.6250   48.6890 S   0  0  0  0  0  0  0  0  0  0  0  0
   61.6720   32.2380   48.1970 C   0  0  0  0  0  0  0  0  0  0  0  0
   61.2346   31.7508   47.3131 H   0  0  0  0  0  0  0  0  0  0  0  0
   62.6624   32.6738   47.9991 H   0  0  0  0  0  0  0  0  0  0  0  0
   61.8710   31.1680   49.2890 C   0  0  0  0  0  0  0  0  0  0  0  0
   62.1173   30.2124   48.8031 H   0  0  0  0  0  0  0  0  0  0  0  0
   62.6821   31.5145   49.9463 H   0  0  0  0  0  0  0  0  0  0  0  0
  1  2  1  0
  2  3  1  0
  2  4  2  0
  4  5  1  0
  5  6  2  0
  6  7  1  0
  6  8  1  0
  8  9  1  0
  9 10  1  0
 10 11  2  0
 10 12  1  0
 12 13  1  0
 13 14  1  0
  5 15  1  0
 15 16  1  0
 15 17  2  0
 17 18  1  0
 18 19  1  0
 18 20  1  0
 18 21  1  0
 17 22  1  0
 22 23  1  0
 23 24  2  0
 24 25  1  0
 24 26  1  0
 26 27  1  0
 26 28  2  0
 28 29  1  0
 28 30  1  0
 30 31  1  0
 30 32  2  0
 32 33  1  0
 33 34  1  0
 34 35  1  0
 34 36  1  0
 34 37  1  0
 37 38  1  0
 37 39  1  0
 37 40  1  0
 40 41  1  0
 41 42  1  0
 41 43  1  0
 41 44  1  0
 44 45  1  0
 44 46  1  0
 44 47  1  0
 47 48  1  0
 48 49  1  0
 48 50  1  0
 48 51  1  0
 51 52  1  0
 51 53  1  0
 22  4  1  0
 32 23  1  0
 51 40  1  0
 13  8  2  0
M  CHG  4   9  -1  12  -1  14  -1  30   1
M  END
>  <UniqueID>  (49) 
41

>  <SMILES>  (49) 
C=c1/c(=C/c2[n-]c(=O)[n-]c2[O-])cc(C)n1-c1ccc[nH+]c1OCCN1CCSCC1

>  <Energy>  (49) 
131.03218805660453

>  <Genealogy>  (49) 
C=c1c(=Cc2[n-]c(=O)[n-]c2[O-])cc(C)n1-c1ccc[nH+]c1OCCN1CCSCC1 (protonated)
C=c1/c(=C/c2[n-]c(=O)[n-]c2[O-])cc(C)n1-c1ccc[nH+]c1OCCN1CCSCC1 (cis-trans isomerization)
C=c1/c(=C/c2[n-]c(=O)[n-]c2[O-])cc(C)n1-c1ccc[nH+]c1OCCN1CCSCC1 (3D coordinates assigned)
C=c1/c(=C/c2[n-]c(=O)[n-]c2[O-])cc(C)n1-c1ccc[nH+]c1OCCN1CCSCC1 (nonaromatic ring conformer: 131.03218805660453 kcal/mol)

>  <smiles>  (49) 
C=c1c(=Cc2[nH]c(=O)[nH]c2O)cc(C)n1-c1cccnc1OCCN1CCSCC1

>  <score_type>  (49) 
oracle

>  <origin>  (49) 
adg

>  <m_score__min__energy>  (49) 
-15.68

>  <m_primary>  (49) 
energy

$$$$
49:0
     RDKit          3D

 63 67  0  0  0  0  0  0  0  0999 V2000
   60.6477   28.1645   44.8587 H   0  0  0  0  0  0  0  0  0  0  0  0
   59.6070   28.3480   45.1640 C   0  0  0  0  0  0  0  0  0  0  0  0
   59.0580   29.5790   45.0000 N   0  0  0  0  0  0  0  0  0  0  0  0
   57.7740   29.8350   45.3710 C   0  0  0  0  0  0  0  0  0  0  0  0
   57.2500   31.0170   45.2280 N   0  0  0  0  0  0  0  0  0  0  0  0
   57.8870   32.2830   45.4760 C   0  0  0  0  0  0  0  0  0  0  0  0
   57.7520   33.3710   44.5940 C   0  0  0  0  0  0  0  0  0  0  0  0
   57.1656   33.2590   43.6701 H   0  0  0  0  0  0  0  0  0  0  0  0
   58.3610   34.5930   44.8890 C   0  0  0  0  0  0  0  0  0  0  0  0
   58.2722   35.4334   44.1849 H   0  0  0  0  0  0  0  0  0  0  0  0
   59.0820   34.7520   46.0740 C   0  0  0  0  0  0  0  0  0  0  0  0
   59.5744   35.7113   46.2914 H   0  0  0  0  0  0  0  0  0  0  0  0
   59.1810   33.6910   46.9900 C   0  0  0  0  0  0  0  0  0  0  0  0
   59.9310   33.8640   48.2910 C   0  0  0  0  0  0  0  0  0  0  0  0
   60.4064   34.8560   48.2907 H   0  0  0  0  0  0  0  0  0  0  0  0
   59.1998   33.7550   49.1055 H   0  0  0  0  0  0  0  0  0  0  0  0
   60.9780   32.8420   48.5030 N   0  0  0  0  0  0  0  0  0  0  0  0
   61.5450   32.2100   47.2910 C   0  0  0  0  0  0  0  0  0  0  0  0
   61.1765   31.1752   47.2330 H   0  0  0  0  0  0  0  0  0  0  0  0
   61.2248   32.8155   46.4303 H   0  0  0  0  0  0  0  0  0  0  0  0
   63.0740   32.1810   47.2770 C   0  0  0  0  0  0  0  0  0  0  0  0
   63.4335   31.4685   48.0340 H   0  0  0  0  0  0  0  0  0  0  0  0
   63.4242   31.8693   46.2819 H   0  0  0  0  0  0  0  0  0  0  0  0
   63.7180   33.8350   47.6510 S   0  0  0  0  0  0  0  0  0  0  0  0
   63.1190   33.8770   49.3820 C   0  0  0  0  0  0  0  0  0  0  0  0
   63.9310   33.5176   50.0313 H   0  0  0  0  0  0  0  0  0  0  0  0
   62.8267   34.9193   49.5772 H   0  0  0  0  0  0  0  0  0  0  0  0
   61.8660   33.0220   49.6680 C   0  0  0  0  0  0  0  0  0  0  0  0
   62.1960   32.0289   50.0070 H   0  0  0  0  0  0  0  0  0  0  0  0
   61.2830   33.5603   50.4298 H   0  0  0  0  0  0  0  0  0  0  0  0
   58.5870   32.4580   46.6770 C   0  0  0  0  0  0  0  0  0  0  0  0
   58.6722   31.6191   47.3833 H   0  0  0  0  0  0  0  0  0  0  0  0
   57.0330   28.8480   45.9400 N   0  0  0  0  0  0  0  0  0  0  0  0
   57.5390   27.6020   46.1360 C   0  0  0  0  0  0  0  0  0  0  0  0
   58.8490   27.3140   45.7210 C   0  0  0  0  0  0  0  0  0  0  0  0
   59.4670   25.9590   45.9680 C   0  0  0  0  0  0  0  0  0  0  0  0
   60.1265   25.7122   45.1229 H   0  0  0  0  0  0  0  0  0  0  0  0
   60.0264   26.0130   46.9136 H   0  0  0  0  0  0  0  0  0  0  0  0
   58.4530   24.8940   46.1050 N   0  0  0  0  0  0  0  0  0  0  0  0
   57.8890   24.5010   44.7950 C   0  0  0  0  0  0  0  0  0  0  0  0
   58.6094   24.7536   44.0030 H   0  0  0  0  0  0  0  0  0  0  0  0
   56.9438   25.0430   44.6440 H   0  0  0  0  0  0  0  0  0  0  0  0
   57.6070   23.0270   44.7500 C   0  0  0  0  0  0  0  0  0  0  0  0
   56.4990   22.3540   45.2420 C   0  0  0  0  0  0  0  0  0  0  0  0
   55.3000   22.9710   45.8980 C   0  0  0  0  0  0  0  0  0  0  0  0
   55.4102   22.9143   46.9910 H   0  0  0  0  0  0  0  0  0  0  0  0
   55.2161   24.0243   45.5921 H   0  0  0  0  0  0  0  0  0  0  0  0
   54.3942   22.4271   45.5921 H   0  0  0  0  0  0  0  0  0  0  0  0
   56.6120   21.0510   44.9040 N   0  0  0  0  0  0  0  0  0  0  0  0
   55.6380   19.9940   45.1610 C   0  0  0  0  0  0  0  0  0  0  0  0
   55.5171   19.8628   46.2464 H   0  0  0  0  0  0  0  0  0  0  0  0
   54.6711   20.2701   44.7151 H   0  0  0  0  0  0  0  0  0  0  0  0
   55.9920   19.0528   44.7151 H   0  0  0  0  0  0  0  0  0  0  0  0
   57.7430   20.8750   44.2370 N   0  0  0  0  0  0  0  0  0  0  0  0
   58.0730   19.9660   43.8430 H   0  0  0  0  0  0  0  0  0  0  0  0
   58.3730   22.0590   44.1250 C   0  0  0  0  0  0  0  0  0  0  0  0
   59.3358   22.2287   43.6209 H   0  0  0  0  0  0  0  0  0  0  0  0
   57.4310   25.2710   47.1080 C   0  0  0  0  0  0  0  0  0  0  0  0
   56.7193   24.4390   47.2145 H   0  0  0  0  0  0  0  0  0  0  0  0
   57.9553   25.4828   48.0516 H   0  0  0  0  0  0  0  0  0  0  0  0
   56.6510   26.5380   46.7170 C   0  0  0  0  0  0  0  0  0  0  0  0
   55.8893   26.2676   45.9709 H   0  0  0  0  0  0  0  0  0  0  0  0
   56.1939   26.9454   47.6308 H   0  0  0  0  0  0  0  0  0  0  0  0
  1  2  1  0
  2  3  2  0
  3  4  1  0
  4  5  2  0
  5  6  1  0
  6  7  2  0
  7  8  1  0
  7  9  1  0
  9 10  1  0
  9 11  2  0
 11 12  1  0
 11 13  1  0
 13 14  1  0
 14 15  1  0
 14 16  1  0
 14 17  1  0
 17 18  1  0
 18 19  1  0
 18 20  1  0
 18 21  1  0
 21 22  1  0
 21 23  1  0
 21 24  1  0
 24 25  1  0
 25 26  1  0
 25 27  1  0
 25 28  1  0
 28 29  1  0
 28 30  1  0
 13 31  2  0
 31 32  1  0
  4 33  1  0
 33 34  1  0
 34 35  2  0
 35 36  1  0
 36 37  1  0
 36 38  1  0
 36 39  1  0
 39 40  1  0
 40 41  1  0
 40 42  1  0
 40 43  1  0
 43 44  2  0
 44 45  1  0
 45 46  1  0
 45 47  1  0
 45 48  1  0
 44 49  1  0
 49 50  1  0
 50 51  1  0
 50 52  1  0
 50 53  1  0
 49 54  1  0
 54 55  1  0
 54 56  2  0
 56 57  1  0
 39 58  1  0
 58 59  1  0
 58 60  1  0
 58 61  1  0
 61 62  1  0
 61 63  1  0
 35  2  1  0
 56 43  1  0
 31  6  1  0
 61 34  1  0
 28 17  1  0
M  CHG  2  33  -1  54   1
M  END
>  <UniqueID>  (50) 
42

>  <SMILES>  (50) 
Cc1c(CN2CCc3[n-]/c(=N/c4cccc(CN5CCSCC5)c4)ncc3C2)c[nH+]n1C

>  <Energy>  (50) 
121.05693878204131

>  <Genealogy>  (50) 
Cc1c(CN2CCc3[n-]c(=Nc4cccc(CN5CCSCC5)c4)ncc3C2)c[nH+]n1C (protonated)
Cc1c(CN2CCc3[n-]/c(=N/c4cccc(CN5CCSCC5)c4)ncc3C2)c[nH+]n1C (cis-trans isomerization)
Cc1c(CN2CCc3[n-]/c(=N/c4cccc(CN5CCSCC5)c4)ncc3C2)c[nH+]n1C (3D coordinates assigned)
Cc1c(CN2CCc3[n-]/c(=N/c4cccc(CN5CCSCC5)c4)ncc3C2)c[nH+]n1C (nonaromatic ring conformer: 121.05693878204131 kcal/mol)

>  <smiles>  (50) 
Cc1c(CN2CCc3[nH]c(=Nc4cccc(CN5CCSCC5)c4)ncc3C2)cnn1C

>  <score_type>  (50) 
oracle

>  <origin>  (50) 
adg

>  <m_score__min__energy>  (50) 
-10.34

>  <m_primary>  (50) 
energy

$$$$
50:0
     RDKit          3D

 31 33  0  0  0  0  0  0  0  0999 V2000
   55.8946   24.2789   46.6882 H   0  0  0  0  0  0  0  0  0  0  0  0
   56.5020   25.1390   46.3700 C   0  0  0  0  0  0  0  0  0  0  0  0
   55.8800   26.3380   46.0100 C   0  0  0  0  0  0  0  0  0  0  0  0
   54.7826   26.4114   46.0307 H   0  0  0  0  0  0  0  0  0  0  0  0
   56.6440   27.4470   45.6230 C   0  0  0  0  0  0  0  0  0  0  0  0
   55.9660   28.6530   45.2340 N   0  0  0  0  0  0  0  0  0  0  0  0
   56.5130   29.7360   44.7630 C   0  0  0  0  0  0  0  0  0  0  0  0
   57.0840   30.6550   45.5890 N   0  0  0  0  0  0  0  0  0  0  0  0
   57.6340   31.8060   45.1140 C   0  0  0  0  0  0  0  0  0  0  0  0
   58.2500   32.7640   46.0680 C   0  0  0  0  0  0  0  0  0  0  0  0
   58.6590   34.0330   45.6230 C   0  0  0  0  0  0  0  0  0  0  0  0
   58.5167   34.3197   44.5706 H   0  0  0  0  0  0  0  0  0  0  0  0
   59.2460   34.9290   46.5180 C   0  0  0  0  0  0  0  0  0  0  0  0
   59.5602   35.9241   46.1700 H   0  0  0  0  0  0  0  0  0  0  0  0
   59.4310   34.5770   47.8180 N   0  0  0  0  0  0  0  0  0  0  0  0
   59.8730   35.2570   48.4750 H   0  0  0  0  0  0  0  0  0  0  0  0
   59.0570   33.3520   48.2790 C   0  0  0  0  0  0  0  0  0  0  0  0
   59.2210   33.0905   49.3348 H   0  0  0  0  0  0  0  0  0  0  0  0
   58.4660   32.4260   47.4170 C   0  0  0  0  0  0  0  0  0  0  0  0
   58.1700   31.4349   47.7914 H   0  0  0  0  0  0  0  0  0  0  0  0
   57.6170   32.0430   43.7300 C   0  0  0  0  0  0  0  0  0  0  0  0
   58.0677   32.9548   43.3111 H   0  0  0  0  0  0  0  0  0  0  0  0
   57.0160   31.0970   42.8960 C   0  0  0  0  0  0  0  0  0  0  0  0
   56.9790   31.2830   41.6520 O   0  0  0  0  0  0  0  0  0  0  0  0
   56.4750   29.9710   43.4270 N   0  0  0  0  0  0  0  0  0  0  0  0
   58.0460   27.3230   45.5510 C   0  0  0  0  0  0  0  0  0  0  0  0
   58.6550   28.1734   45.2106 H   0  0  0  0  0  0  0  0  0  0  0  0
   58.6650   26.1220   45.9110 C   0  0  0  0  0  0  0  0  0  0  0  0
   59.7607   26.0349   45.8675 H   0  0  0  0  0  0  0  0  0  0  0  0
   57.8950   25.0320   46.3260 C   0  0  0  0  0  0  0  0  0  0  0  0
   58.4970   23.8680   46.6730 F   0  0  0  0  0  0  0  0  0  0  0  0
  1  2  1  0
  2  3  2  0
  3  4  1  0
  3  5  1  0
  5  6  1  0
  6  7  2  0
  7  8  1  0
  8  9  1  0
  9 10  1  0
 10 11  2  0
 11 12  1  0
 11 13  1  0
 13 14  1  0
 13 15  2  0
 15 16  1  0
 15 17  1  0
 17 18  1  0
 17 19  2  0
 19 20  1  0
  9 21  2  0
 21 22  1  0
 21 23  1  0
 23 24  2  0
 23 25  1  0
  5 26  2  0
 26 27  1  0
 26 28  1  0
 28 29  1  0
 28 30  2  0
 30 31  1  0
 30  2  1  0
 25  7  1  0
 19 10  1  0
M  CHG  3   8  -1  15   1  25  -1
M  END
>  <UniqueID>  (51) 
43

>  <SMILES>  (51) 
O=c1cc(-c2cc[nH+]cc2)[n-]/c(=N\c2ccc(F)cc2)[n-]1

>  <Energy>  (51) 
44.710655386217965

>  <Genealogy>  (51) 
O=c1cc(-c2cc[nH+]cc2)[n-]c(=Nc2ccc(F)cc2)[n-]1 (protonated)
O=c1cc(-c2cc[nH+]cc2)[n-]/c(=N\c2ccc(F)cc2)[n-]1 (cis-trans isomerization)
O=c1cc(-c2cc[nH+]cc2)[n-]/c(=N\c2ccc(F)cc2)[n-]1 (3D coordinates assigned)
O=c1cc(-c2cc[nH+]cc2)[n-]/c(=N\c2ccc(F)cc2)[n-]1 (optimized conformer: 44.710655386217965 kcal/mol)

>  <smiles>  (51) 
O=c1cc(-c2ccncc2)[nH]c(=Nc2ccc(F)cc2)[nH]1

>  <score_type>  (51) 
oracle

>  <origin>  (51) 
adg

>  <m_score__min__energy>  (51) 
-8.5399999999999991

>  <m_primary>  (51) 
energy

$$$$
51:0
     RDKit          3D

 40 42  0  0  0  0  0  0  0  0999 V2000
   56.1030   29.7180   44.1870 C   0  0  0  0  0  0  0  0  0  0  0  0
   55.6150   28.7060   45.0630 O   0  0  0  0  0  0  0  0  0  0  0  0
   56.4080   27.6940   45.6260 C   0  0  0  0  0  0  0  0  0  0  0  0
   57.7910   27.8540   45.8380 C   0  0  0  0  0  0  0  0  0  0  0  0
   58.5510   26.8180   46.4020 C   0  0  0  0  0  0  0  0  0  0  0  0
   60.0380   26.9740   46.5810 C   0  0  0  0  0  0  0  0  0  0  0  0
   60.3270   28.0640   47.5120 N   0  0  0  0  0  0  0  0  0  0  0  0
   60.0250   29.4360   47.3180 C   0  0  0  0  0  0  0  0  0  0  0  0
   59.8230   29.9730   46.1970 O   0  0  0  0  0  0  0  0  0  0  0  0
   59.9730   30.1050   48.6110 C   0  0  0  0  0  0  0  0  0  0  0  0
   59.7730   31.5700   48.8360 C   0  0  0  0  0  0  0  0  0  0  0  0
   60.8010   32.3580   48.0650 C   0  0  0  0  0  0  0  0  0  0  0  0
   62.1610   32.0200   48.1680 C   0  0  0  0  0  0  0  0  0  0  0  0
   63.1270   32.7630   47.4850 C   0  0  0  0  0  0  0  0  0  0  0  0
   62.7500   33.8560   46.6980 C   0  0  0  0  0  0  0  0  0  0  0  0
   63.7250   34.5860   46.0220 O   0  0  0  0  0  0  0  0  0  0  0  0
   61.3960   34.2070   46.5990 C   0  0  0  0  0  0  0  0  0  0  0  0
   60.4240   33.4670   47.2810 C   0  0  0  0  0  0  0  0  0  0  0  0
   59.0890   33.8430   47.1790 O   0  0  0  0  0  0  0  0  0  0  0  0
   60.2090   29.2630   49.5680 N   0  0  0  0  0  0  0  0  0  0  0  0
   60.3980   27.9940   48.9370 C   0  0  0  0  0  0  0  0  0  0  0  0
   60.7800   26.6410   49.7720 S   0  0  0  0  0  0  0  0  0  0  0  0
   57.9230   25.6120   46.7480 C   0  0  0  0  0  0  0  0  0  0  0  0
   56.5510   25.4460   46.5430 C   0  0  0  0  0  0  0  0  0  0  0  0
   55.7250   23.7900   47.0270 Br  0  0  0  0  0  0  0  0  0  0  0  0
   55.7940   26.4850   45.9830 C   0  0  0  0  0  0  0  0  0  0  0  0
   54.4290   26.3180   45.7790 O   0  0  0  0  0  0  0  0  0  0  0  0
   56.5056   30.5529   44.7794 H   0  0  0  0  0  0  0  0  0  0  0  0
   56.8991   29.3012   43.5526 H   0  0  0  0  0  0  0  0  0  0  0  0
   55.2811   30.0814   43.5526 H   0  0  0  0  0  0  0  0  0  0  0  0
   58.2797   28.7992   45.5591 H   0  0  0  0  0  0  0  0  0  0  0  0
   60.4556   26.0372   46.9786 H   0  0  0  0  0  0  0  0  0  0  0  0
   60.4926   27.2065   45.6067 H   0  0  0  0  0  0  0  0  0  0  0  0
   58.7663   31.8560   48.4972 H   0  0  0  0  0  0  0  0  0  0  0  0
   59.8830   31.7876   49.9086 H   0  0  0  0  0  0  0  0  0  0  0  0
   62.4667   31.1657   48.7898 H   0  0  0  0  0  0  0  0  0  0  0  0
   64.1887   32.4872   47.5665 H   0  0  0  0  0  0  0  0  0  0  0  0
   63.5670   35.5470   45.7420 H   0  0  0  0  0  0  0  0  0  0  0  0
   61.0969   35.0676   45.9827 H   0  0  0  0  0  0  0  0  0  0  0  0
   58.5141   24.7927   47.1831 H   0  0  0  0  0  0  0  0  0  0  0  0
  1  2  1  0
  2  3  1  0
  3  4  2  0
  4  5  1  0
  5  6  1  0
  6  7  1  0
  7  8  1  0
  8  9  2  0
  8 10  1  0
 10 11  1  0
 11 12  1  0
 12 13  2  0
 13 14  1  0
 14 15  2  0
 15 16  1  0
 15 17  1  0
 17 18  2  0
 18 19  1  0
 10 20  2  0
 20 21  1  0
 21 22  2  0
  5 23  2  0
 23 24  1  0
 24 25  1  0
 24 26  2  0
 26 27  1  0
 26  3  1  0
 21  7  1  0
 18 12  1  0
  1 28  1  0
  1 29  1  0
  1 30  1  0
  4 31  1  0
  6 32  1  0
  6 33  1  0
 11 34  1  0
 11 35  1  0
 13 36  1  0
 14 37  1  0
 16 38  1  0
 17 39  1  0
 23 40  1  0
M  CHG  2  19  -1  27  -1
M  END
>  <UniqueID>  (52) 
44

>  <SMILES>  (52) 
COc1cc(CN2C(=O)C(Cc3ccc(O)cc3[O-])=NC2=S)cc(Br)c1[O-]

>  <Energy>  (52) 
67.30466203959902

>  <Genealogy>  (52) 
COc1cc(CN2C(=O)C(Cc3ccc(O)cc3[O-])=NC2=S)cc(Br)c1[O-] (protonated)
COc1cc(CN2C(=O)C(Cc3ccc(O)cc3[O-])=NC2=S)cc(Br)c1[O-] (3D coordinates assigned)
COc1cc(CN2C(=O)C(Cc3ccc(O)cc3[O-])=NC2=S)cc(Br)c1[O-] (nonaromatic ring conformer: 67.30466203959902 kcal/mol)

>  <smiles>  (52) 
COc1cc(CN2C(=O)C(Cc3ccc(O)cc3O)=NC2=S)cc(Br)c1O

>  <score_type>  (52) 
oracle

>  <origin>  (52) 
adg

>  <m_score__min__energy>  (52) 
-12.51

>  <m_primary>  (52) 
energy

$$$$
52:0
     RDKit          3D

 43 46  0  0  0  0  0  0  0  0999 V2000
   59.2780   33.9010   51.1280 C   0  0  0  0  0  0  0  0  0  0  0  0
   59.5540   34.2330   49.7730 O   0  0  0  0  0  0  0  0  0  0  0  0
   60.0490   33.3040   48.8520 C   0  0  0  0  0  0  0  0  0  0  0  0
   61.2960   32.7070   48.8480 C   0  0  0  0  0  0  0  0  0  0  0  0
   61.3720   31.8490   47.8070 N   0  0  0  0  0  0  0  0  0  0  0  0
   60.1630   31.9490   47.2100 C   0  0  0  0  0  0  0  0  0  0  0  0
   59.3520   32.8380   47.8080 N   0  0  0  0  0  0  0  0  0  0  0  0
   57.9590   33.0940   47.4540 C   0  0  0  0  0  0  0  0  0  0  0  0
   57.7030   32.6810   45.9980 C   0  0  0  0  0  0  0  0  0  0  0  0
   58.3210   31.3740   45.7220 N   0  0  0  0  0  0  0  0  0  0  0  0
   57.6470   30.4450   44.8540 C   0  0  0  0  0  0  0  0  0  0  0  0
   57.0860   30.8700   43.8070 O   0  0  0  0  0  0  0  0  0  0  0  0
   57.5790   29.0030   45.1890 C   0  0  0  0  0  0  0  0  0  0  0  0
   58.7680   28.2810   45.3850 C   0  0  0  0  0  0  0  0  0  0  0  0
   58.7270   26.9300   45.7290 C   0  0  0  0  0  0  0  0  0  0  0  0
   57.5020   26.2770   45.8650 C   0  0  0  0  0  0  0  0  0  0  0  0
   56.3050   26.9670   45.6430 C   0  0  0  0  0  0  0  0  0  0  0  0
   55.0670   26.2560   45.7790 N   0  0  0  0  0  0  0  0  0  0  0  0
   54.9130   24.8300   45.7860 C   0  0  0  0  0  0  0  0  0  0  0  0
   53.9620   24.3210   45.1360 O   0  0  0  0  0  0  0  0  0  0  0  0
   55.7990   23.9540   46.5790 C   0  0  0  0  0  0  0  0  0  0  0  0
   56.4410   22.8250   46.1180 C   0  0  0  0  0  0  0  0  0  0  0  0
   57.1430   22.2770   47.1260 N   0  0  0  0  0  0  0  0  0  0  0  0
   56.8930   23.0970   48.1660 C   0  0  0  0  0  0  0  0  0  0  0  0
   57.3830   22.9120   49.3100 O   0  0  0  0  0  0  0  0  0  0  0  0
   56.0760   24.1310   47.8830 N   0  0  0  0  0  0  0  0  0  0  0  0
   56.3400   28.3450   45.3410 C   0  0  0  0  0  0  0  0  0  0  0  0
   55.1510   29.0530   45.1970 O   0  0  0  0  0  0  0  0  0  0  0  0
   59.7600   31.1950   45.9820 C   0  0  0  0  0  0  0  0  0  0  0  0
   59.8385   34.5753   51.7922 H   0  0  0  0  0  0  0  0  0  0  0  0
   58.2003   34.0096   51.3199 H   0  0  0  0  0  0  0  0  0  0  0  0
   59.5816   32.8613   51.3199 H   0  0  0  0  0  0  0  0  0  0  0  0
   62.0980   32.8997   49.5758 H   0  0  0  0  0  0  0  0  0  0  0  0
   57.3018   32.5136   48.1182 H   0  0  0  0  0  0  0  0  0  0  0  0
   57.7492   34.1679   47.5670 H   0  0  0  0  0  0  0  0  0  0  0  0
   56.6188   32.6136   45.8251 H   0  0  0  0  0  0  0  0  0  0  0  0
   58.1449   33.4343   45.3292 H   0  0  0  0  0  0  0  0  0  0  0  0
   59.7386   28.7849   45.2663 H   0  0  0  0  0  0  0  0  0  0  0  0
   59.6639   26.3776   45.8936 H   0  0  0  0  0  0  0  0  0  0  0  0
   57.4767   25.2144   46.1482 H   0  0  0  0  0  0  0  0  0  0  0  0
   56.3879   22.4348   45.0909 H   0  0  0  0  0  0  0  0  0  0  0  0
   59.9724   30.1255   46.1267 H   0  0  0  0  0  0  0  0  0  0  0  0
   60.3296   31.5792   45.1229 H   0  0  0  0  0  0  0  0  0  0  0  0
  1  2  1  0
  2  3  1  0
  3  4  2  0
  4  5  1  0
  5  6  2  0
  6  7  1  0
  7  8  1  0
  8  9  1  0
  9 10  1  0
 10 11  1  0
 11 12  2  0
 11 13  1  0
 13 14  2  0
 14 15  1  0
 15 16  2  0
 16 17  1  0
 17 18  1  0
 18 19  1  0
 19 20  2  0
 19 21  1  0
 21 22  2  0
 22 23  1  0
 23 24  1  0
 24 25  2  0
 24 26  1  0
 17 27  2  0
 27 28  1  0
 10 29  1  0
  7  3  1  0
 27 13  1  0
 29  6  1  0
 26 21  1  0
  1 30  1  0
  1 31  1  0
  1 32  1  0
  4 33  1  0
  8 34  1  0
  8 35  1  0
  9 36  1  0
  9 37  1  0
 14 38  1  0
 15 39  1  0
 16 40  1  0
 22 41  1  0
 29 42  1  0
 29 43  1  0
M  CHG  4  18  -1  23  -1  26  -1  28  -1
M  END
>  <UniqueID>  (53) 
45

>  <SMILES>  (53) 
COc1cnc2n1CCN(C(=O)c1cccc([N-]C(=O)c3c[n-]c(=O)[n-]3)c1[O-])C2

>  <Energy>  (53) 
116.81032329821159

>  <Genealogy>  (53) 
COc1cnc2n1CCN(C(=O)c1cccc([N-]C(=O)c3c[n-]c(=O)[n-]3)c1[O-])C2 (protonated)
COc1cnc2n1CCN(C(=O)c1cccc([N-]C(=O)c3c[n-]c(=O)[n-]3)c1[O-])C2 (3D coordinates assigned)
COc1cnc2n1CCN(C(=O)c1cccc([N-]C(=O)c3c[n-]c(=O)[n-]3)c1[O-])C2 (nonaromatic ring conformer: 116.81032329821159 kcal/mol)

>  <smiles>  (53) 
COc1cnc2n1CCN(C(=O)c1cccc(NC(=O)c3c[nH]c(=O)[nH]3)c1O)C2

>  <score_type>  (53) 
oracle

>  <origin>  (53) 
adg

>  <m_score__min__energy>  (53) 
-17.34

>  <m_primary>  (53) 
energy

$$$$
53:0
     RDKit          3D

 46 48  0  0  0  0  0  0  0  0999 V2000
   57.0320   34.2360   44.9790 C   0  0  0  0  0  0  0  0  0  0  0  0
   57.8140   33.1530   44.2410 C   0  0  0  0  0  0  0  0  0  0  0  0
   58.0190   31.9750   45.1010 N   0  0  0  0  0  0  0  0  0  0  0  0
   58.1090   30.6470   44.4830 C   0  0  0  0  0  0  0  0  0  0  0  0
   56.8310   29.8870   44.7060 C   0  0  0  0  0  0  0  0  0  0  0  0
   55.7430   30.5180   44.7390 O   0  0  0  0  0  0  0  0  0  0  0  0
   56.8280   28.4870   45.0140 N   0  0  0  0  0  0  0  0  0  0  0  0
   57.9120   27.7490   45.5980 C   0  0  0  0  0  0  0  0  0  0  0  0
   59.2340   28.1870   45.4030 C   0  0  0  0  0  0  0  0  0  0  0  0
   60.3070   27.4530   45.9070 C   0  0  0  0  0  0  0  0  0  0  0  0
   60.0770   26.2630   46.5910 C   0  0  0  0  0  0  0  0  0  0  0  0
   58.7740   25.7980   46.7710 C   0  0  0  0  0  0  0  0  0  0  0  0
   57.6720   26.5270   46.2770 C   0  0  0  0  0  0  0  0  0  0  0  0
   56.3010   25.9920   46.5020 C   0  0  0  0  0  0  0  0  0  0  0  0
   55.1500   26.6590   45.9860 N   0  0  0  0  0  0  0  0  0  0  0  0
   56.1370   24.9380   47.1750 O   0  0  0  0  0  0  0  0  0  0  0  0
   58.2140   32.1180   46.5240 C   0  0  0  0  0  0  0  0  0  0  0  0
   57.3810   32.7710   47.2080 O   0  0  0  0  0  0  0  0  0  0  0  0
   59.3610   31.4890   47.2160 C   0  0  0  0  0  0  0  0  0  0  0  0
   59.1450   30.2820   47.8980 C   0  0  0  0  0  0  0  0  0  0  0  0
   60.2110   29.6380   48.5290 C   0  0  0  0  0  0  0  0  0  0  0  0
   60.0230   28.5460   49.1270 O   0  0  0  0  0  0  0  0  0  0  0  0
   61.4530   30.1850   48.4990 N   0  0  0  0  0  0  0  0  0  0  0  0
   61.7040   31.3640   47.8720 C   0  0  0  0  0  0  0  0  0  0  0  0
   63.0000   31.8920   47.8870 C   0  0  0  0  0  0  0  0  0  0  0  0
   63.2660   33.1170   47.2710 C   0  0  0  0  0  0  0  0  0  0  0  0
   62.2380   33.8240   46.6460 C   0  0  0  0  0  0  0  0  0  0  0  0
   60.9400   33.3070   46.6210 C   0  0  0  0  0  0  0  0  0  0  0  0
   60.6560   32.0620   47.2190 C   0  0  0  0  0  0  0  0  0  0  0  0
   57.1377   34.0896   46.0641 H   0  0  0  0  0  0  0  0  0  0  0  0
   57.4255   35.2253   44.7024 H   0  0  0  0  0  0  0  0  0  0  0  0
   55.9692   34.1737   44.7024 H   0  0  0  0  0  0  0  0  0  0  0  0
   57.2528   32.8512   43.3444 H   0  0  0  0  0  0  0  0  0  0  0  0
   58.7971   33.5587   43.9602 H   0  0  0  0  0  0  0  0  0  0  0  0
   58.2820   30.7593   43.4025 H   0  0  0  0  0  0  0  0  0  0  0  0
   58.9424   30.0927   44.9393 H   0  0  0  0  0  0  0  0  0  0  0  0
   59.4234   29.1174   44.8476 H   0  0  0  0  0  0  0  0  0  0  0  0
   61.3359   27.8147   45.7639 H   0  0  0  0  0  0  0  0  0  0  0  0
   60.9249   25.6875   46.9908 H   0  0  0  0  0  0  0  0  0  0  0  0
   58.6039   24.8513   47.3047 H   0  0  0  0  0  0  0  0  0  0  0  0
   55.1620   27.0990   45.0390 H   0  0  0  0  0  0  0  0  0  0  0  0
   58.1368   29.8436   47.9355 H   0  0  0  0  0  0  0  0  0  0  0  0
   63.8112   31.3409   48.3852 H   0  0  0  0  0  0  0  0  0  0  0  0
   64.2875   33.5251   47.2786 H   0  0  0  0  0  0  0  0  0  0  0  0
   62.4504   34.7930   46.1707 H   0  0  0  0  0  0  0  0  0  0  0  0
   60.1348   33.8748   46.1318 H   0  0  0  0  0  0  0  0  0  0  0  0
  1  2  1  0
  2  3  1  0
  3  4  1  0
  4  5  1  0
  5  6  2  0
  5  7  1  0
  7  8  1  0
  8  9  2  0
  9 10  1  0
 10 11  2  0
 11 12  1  0
 12 13  2  0
 13 14  1  0
 14 15  1  0
 14 16  2  0
  3 17  1  0
 17 18  2  0
 17 19  1  0
 19 20  2  0
 20 21  1  0
 21 22  2  0
 21 23  1  0
 23 24  1  0
 24 25  2  0
 25 26  1  0
 26 27  2  0
 27 28  1  0
 28 29  2  0
 13  8  1  0
 29 19  1  0
 29 24  1  0
  1 30  1  0
  1 31  1  0
  1 32  1  0
  2 33  1  0
  2 34  1  0
  4 35  1  0
  4 36  1  0
  9 37  1  0
 10 38  1  0
 11 39  1  0
 12 40  1  0
 15 41  1  0
 20 42  1  0
 25 43  1  0
 26 44  1  0
 27 45  1  0
 28 46  1  0
M  CHG  3   7  -1  15  -1  23  -1
M  END
>  <UniqueID>  (54) 
46

>  <SMILES>  (54) 
CCN(CC(=O)[N-]c1ccccc1C([NH-])=O)C(=O)c1cc(=O)[n-]c2ccccc12

>  <Energy>  (54) 
62.268960733607116

>  <Genealogy>  (54) 
CCN(CC(=O)[N-]c1ccccc1C([NH-])=O)C(=O)c1cc(=O)[n-]c2ccccc12 (protonated)
CCN(CC(=O)[N-]c1ccccc1C([NH-])=O)C(=O)c1cc(=O)[n-]c2ccccc12 (3D coordinates assigned)
CCN(CC(=O)[N-]c1ccccc1C([NH-])=O)C(=O)c1cc(=O)[n-]c2ccccc12 (optimized conformer: 62.268960733607116 kcal/mol)

>  <smiles>  (54) 
CCN(CC(=O)Nc1ccccc1C(N)=O)C(=O)c1cc(=O)[nH]c2ccccc12

>  <score_type>  (54) 
oracle

>  <origin>  (54) 
adg

>  <m_score__min__energy>  (54) 
-14.84

>  <m_primary>  (54) 
energy

$$$$
54:0
     RDKit          3D

 44 45  0  0  0  0  0  0  0  0999 V2000
   57.6880   22.4330   44.5730 C   0  0  0  0  0  0  0  0  0  0  0  0
   57.2450   23.1500   45.8100 C   0  0  0  0  0  0  0  0  0  0  0  0
   57.3500   22.5640   46.9210 O   0  0  0  0  0  0  0  0  0  0  0  0
   56.6600   24.5080   45.7530 C   0  0  0  0  0  0  0  0  0  0  0  0
   55.3150   24.8520   45.8510 C   0  0  0  0  0  0  0  0  0  0  0  0
   54.1600   23.9180   46.0430 C   0  0  0  0  0  0  0  0  0  0  0  0
   55.1740   26.1900   45.8050 N   0  0  0  0  0  0  0  0  0  0  0  0
   56.4060   26.7240   45.6880 C   0  0  0  0  0  0  0  0  0  0  0  0
   56.6440   28.1810   45.6500 C   0  0  0  0  0  0  0  0  0  0  0  0
   57.6400   28.6620   46.2540 O   0  0  0  0  0  0  0  0  0  0  0  0
   55.7720   29.0450   44.9180 N   0  0  0  0  0  0  0  0  0  0  0  0
   56.1230   29.6190   43.6270 C   0  0  0  0  0  0  0  0  0  0  0  0
   56.9050   30.9140   43.8390 C   0  0  0  0  0  0  0  0  0  0  0  0
   57.2860   31.0630   45.2440 N   0  0  0  0  0  0  0  0  0  0  0  0
   58.4290   31.8070   45.7110 C   0  0  0  0  0  0  0  0  0  0  0  0
   58.5580   33.1920   45.4980 C   0  0  0  0  0  0  0  0  0  0  0  0
   59.6830   33.8800   45.9620 C   0  0  0  0  0  0  0  0  0  0  0  0
   60.7050   33.2000   46.6460 C   0  0  0  0  0  0  0  0  0  0  0  0
   61.8640   33.9050   47.1260 N   0  0  0  0  0  0  0  0  0  0  0  0
   62.8070   34.1810   46.3550 O   0  0  0  0  0  0  0  0  0  0  0  0
   61.9530   34.2880   48.4450 O   0  0  0  0  0  0  0  0  0  0  0  0
   60.5780   31.8160   46.8530 C   0  0  0  0  0  0  0  0  0  0  0  0
   59.4530   31.1290   46.3880 C   0  0  0  0  0  0  0  0  0  0  0  0
   57.3570   25.7080   45.6400 C   0  0  0  0  0  0  0  0  0  0  0  0
   58.8420   25.8720   45.4770 C   0  0  0  0  0  0  0  0  0  0  0  0
   58.2470   21.5282   44.8539 H   0  0  0  0  0  0  0  0  0  0  0  0
   56.8072   22.1498   43.9780 H   0  0  0  0  0  0  0  0  0  0  0  0
   58.3353   23.0940   43.9780 H   0  0  0  0  0  0  0  0  0  0  0  0
   53.9806   23.7729   47.1185 H   0  0  0  0  0  0  0  0  0  0  0  0
   53.2608   24.3459   45.5757 H   0  0  0  0  0  0  0  0  0  0  0  0
   54.3903   22.9492   45.5757 H   0  0  0  0  0  0  0  0  0  0  0  0
   54.2740   26.7170   45.8750 H   0  0  0  0  0  0  0  0  0  0  0  0
   56.7426   28.9048   43.0648 H   0  0  0  0  0  0  0  0  0  0  0  0
   55.2049   29.8345   43.0607 H   0  0  0  0  0  0  0  0  0  0  0  0
   57.8132   30.8933   43.2187 H   0  0  0  0  0  0  0  0  0  0  0  0
   56.2673   31.7635   43.5531 H   0  0  0  0  0  0  0  0  0  0  0  0
   56.6850   30.5810   45.9510 H   0  0  0  0  0  0  0  0  0  0  0  0
   57.7673   33.7376   44.9621 H   0  0  0  0  0  0  0  0  0  0  0  0
   59.7690   34.9631   45.7902 H   0  0  0  0  0  0  0  0  0  0  0  0
   61.3701   31.2689   47.3852 H   0  0  0  0  0  0  0  0  0  0  0  0
   59.3700   30.0449   46.5549 H   0  0  0  0  0  0  0  0  0  0  0  0
   59.3161   25.9244   46.4682 H   0  0  0  0  0  0  0  0  0  0  0  0
   59.2470   25.0131   44.9217 H   0  0  0  0  0  0  0  0  0  0  0  0
   59.0498   26.7986   44.9217 H   0  0  0  0  0  0  0  0  0  0  0  0
  1  2  1  0
  2  3  2  0
  2  4  1  0
  4  5  2  0
  5  6  1  0
  5  7  1  0
  7  8  1  0
  8  9  1  0
  9 10  2  0
  9 11  1  0
 11 12  1  0
 12 13  1  0
 13 14  1  0
 14 15  1  0
 15 16  2  0
 16 17  1  0
 17 18  2  0
 18 19  1  0
 19 20  2  0
 19 21  1  0
 18 22  1  0
 22 23  2  0
  8 24  2  0
 24 25  1  0
 24  4  1  0
 23 15  1  0
  1 26  1  0
  1 27  1  0
  1 28  1  0
  6 29  1  0
  6 30  1  0
  6 31  1  0
  7 32  1  0
 12 33  1  0
 12 34  1  0
 13 35  1  0
 13 36  1  0
 14 37  1  0
 16 38  1  0
 17 39  1  0
 22 40  1  0
 23 41  1  0
 25 42  1  0
 25 43  1  0
 25 44  1  0
M  CHG  3  11  -1  19   1  21  -1
M  END
>  <UniqueID>  (55) 
47

>  <SMILES>  (55) 
CC(=O)c1c(C)[nH]c(C(=O)[N-]CCNc2ccc([N+](=O)[O-])cc2)c1C

>  <Energy>  (55) 
67.66764549868283

>  <Genealogy>  (55) 
CC(=O)c1c(C)[nH]c(C(=O)[N-]CCNc2ccc([N+](=O)[O-])cc2)c1C (protonated)
CC(=O)c1c(C)[nH]c(C(=O)[N-]CCNc2ccc([N+](=O)[O-])cc2)c1C (3D coordinates assigned)
CC(=O)c1c(C)[nH]c(C(=O)[N-]CCNc2ccc([N+](=O)[O-])cc2)c1C (optimized conformer: 67.66764549868283 kcal/mol)

>  <smiles>  (55) 
CC(=O)c1c(C)[nH]c(C(=O)NCCNc2ccc([N+](=O)[O-])cc2)c1C

>  <score_type>  (55) 
oracle

>  <origin>  (55) 
adg

>  <m_score__min__energy>  (55) 
-9.6799999999999997

>  <m_primary>  (55) 
energy

$$$$
55:0
     RDKit          3D

 34 35  0  0  0  0  0  0  0  0999 V2000
   61.3470   32.0610   47.4320 C   0  0  0  0  0  0  0  0  0  0  0  0
   61.5650   33.8310   47.4450 S   0  0  0  0  0  0  0  0  0  0  0  0
   62.5070   34.2010   46.3320 O   0  0  0  0  0  0  0  0  0  0  0  0
   62.2060   34.2070   48.7510 O   0  0  0  0  0  0  0  0  0  0  0  0
   60.0710   34.7360   47.2880 N   0  0  0  0  0  0  0  0  0  0  0  0
   59.8630   35.3380   45.9670 C   0  0  0  0  0  0  0  0  0  0  0  0
   59.6150   34.2930   44.8820 C   0  0  0  0  0  0  0  0  0  0  0  0
   58.6500   33.2160   45.3100 C   0  0  0  0  0  0  0  0  0  0  0  0
   58.2520   32.3360   44.3690 C   0  0  0  0  0  0  0  0  0  0  0  0
   57.5640   31.0630   44.6590 C   0  0  0  0  0  0  0  0  0  0  0  0
   58.1530   30.0940   45.4870 C   0  0  0  0  0  0  0  0  0  0  0  0
   57.4730   28.9060   45.7720 C   0  0  0  0  0  0  0  0  0  0  0  0
   56.1970   28.6860   45.2470 C   0  0  0  0  0  0  0  0  0  0  0  0
   55.5220   27.5040   45.5290 O   0  0  0  0  0  0  0  0  0  0  0  0
   55.5960   29.6580   44.4410 C   0  0  0  0  0  0  0  0  0  0  0  0
   56.2740   30.8480   44.1550 C   0  0  0  0  0  0  0  0  0  0  0  0
   58.2650   33.0250   46.7680 C   0  0  0  0  0  0  0  0  0  0  0  0
   58.8800   34.0240   47.7730 C   0  0  0  0  0  0  0  0  0  0  0  0
   61.3013   31.6896   48.4664 H   0  0  0  0  0  0  0  0  0  0  0  0
   60.4112   31.8106   46.9108 H   0  0  0  0  0  0  0  0  0  0  0  0
   62.1941   31.5911   46.9108 H   0  0  0  0  0  0  0  0  0  0  0  0
   58.9920   36.0079   46.0176 H   0  0  0  0  0  0  0  0  0  0  0  0
   60.7790   35.8859   45.7009 H   0  0  0  0  0  0  0  0  0  0  0  0
   59.2049   34.7988   43.9955 H   0  0  0  0  0  0  0  0  0  0  0  0
   60.5779   33.8058   44.6685 H   0  0  0  0  0  0  0  0  0  0  0  0
   58.4533   32.5832   43.3162 H   0  0  0  0  0  0  0  0  0  0  0  0
   59.1520   30.2699   45.9126 H   0  0  0  0  0  0  0  0  0  0  0  0
   57.9432   28.1435   46.4104 H   0  0  0  0  0  0  0  0  0  0  0  0
   54.5895   29.4869   44.0316 H   0  0  0  0  0  0  0  0  0  0  0  0
   55.7932   31.6171   43.5327 H   0  0  0  0  0  0  0  0  0  0  0  0
   57.1705   33.1080   46.8396 H   0  0  0  0  0  0  0  0  0  0  0  0
   58.6643   32.0398   47.0510 H   0  0  0  0  0  0  0  0  0  0  0  0
   58.1134   34.7719   48.0239 H   0  0  0  0  0  0  0  0  0  0  0  0
   59.2075   33.4289   48.6382 H   0  0  0  0  0  0  0  0  0  0  0  0
  1  2  1  0
  2  3  2  0
  2  4  2  0
  2  5  1  0
  5  6  1  0
  6  7  1  0
  7  8  1  0
  8  9  2  3
  9 10  1  0
 10 11  2  0
 11 12  1  0
 12 13  2  0
 13 14  1  0
 13 15  1  0
 15 16  2  0
  8 17  1  0
 17 18  1  0
 18  5  1  0
 16 10  1  0
  1 19  1  0
  1 20  1  0
  1 21  1  0
  6 22  1  0
  6 23  1  0
  7 24  1  0
  7 25  1  0
  9 26  1  0
 11 27  1  0
 12 28  1  0
 15 29  1  0
 16 30  1  0
 17 31  1  0
 17 32  1  0
 18 33  1  0
 18 34  1  0
M  CHG  1  14  -1
M  END
>  <UniqueID>  (56) 
48

>  <SMILES>  (56) 
CS(=O)(=O)N1CCC(=Cc2ccc([O-])cc2)CC1

>  <Energy>  (56) 
42.22251725990154

>  <Genealogy>  (56) 
CS(=O)(=O)N1CCC(=Cc2ccc([O-])cc2)CC1 (protonated)
CS(=O)(=O)N1CCC(=Cc2ccc([O-])cc2)CC1 (3D coordinates assigned)
CS(=O)(=O)N1CCC(=Cc2ccc([O-])cc2)CC1 (nonaromatic ring conformer: 42.22251725990154 kcal/mol)

>  <smiles>  (56) 
CS(=O)(=O)N1CCC(=Cc2ccc(O)cc2)CC1

>  <score_type>  (56) 
oracle

>  <origin>  (56) 
adg

>  <m_score__min__energy>  (56) 
-10.43

>  <m_primary>  (56) 
energy

$$$$
56:0
     RDKit          3D

 50 53  0  0  0  0  0  0  0  0999 V2000
   59.2640   34.8400   45.2660 C   0  0  0  0  0  0  0  0  0  0  0  0
   58.9870   33.6000   46.0690 C   0  0  0  0  0  0  0  0  0  0  0  0
   58.5010   32.3870   45.5880 C   0  0  0  0  0  0  0  0  0  0  0  0
   58.0650   32.0560   44.2630 N   0  0  0  0  0  0  0  0  0  0  0  0
   57.0160   31.1250   43.9870 C   0  0  0  0  0  0  0  0  0  0  0  0
   56.1570   30.8530   44.8670 O   0  0  0  0  0  0  0  0  0  0  0  0
   56.9500   30.4500   42.6550 C   0  0  0  0  0  0  0  0  0  0  0  0
   57.0130   28.6410   42.8950 S   0  0  0  0  0  0  0  0  0  0  0  0
   58.2820   28.6700   44.1680 C   0  0  0  0  0  0  0  0  0  0  0  0
   59.2470   29.6100   44.2160 N   0  0  0  0  0  0  0  0  0  0  0  0
   60.0190   29.3290   45.2560 N   0  0  0  0  0  0  0  0  0  0  0  0
   59.5060   28.2220   45.8200 C   0  0  0  0  0  0  0  0  0  0  0  0
   60.0250   27.6500   46.8130 O   0  0  0  0  0  0  0  0  0  0  0  0
   58.4080   27.7780   45.1740 N   0  0  0  0  0  0  0  0  0  0  0  0
   57.6520   26.5810   45.4370 C   0  0  0  0  0  0  0  0  0  0  0  0
   58.3010   25.3360   45.4950 C   0  0  0  0  0  0  0  0  0  0  0  0
   57.5780   24.1760   45.7840 C   0  0  0  0  0  0  0  0  0  0  0  0
   56.2030   24.2450   46.0170 C   0  0  0  0  0  0  0  0  0  0  0  0
   55.5470   25.4770   45.9650 C   0  0  0  0  0  0  0  0  0  0  0  0
   56.2630   26.6430   45.6740 C   0  0  0  0  0  0  0  0  0  0  0  0
   55.5830   27.8550   45.5980 O   0  0  0  0  0  0  0  0  0  0  0  0
   58.3610   31.5940   46.7030 C   0  0  0  0  0  0  0  0  0  0  0  0
   57.9270   30.4110   46.7130 O   0  0  0  0  0  0  0  0  0  0  0  0
   58.7830   32.2660   47.7920 N   0  0  0  0  0  0  0  0  0  0  0  0
   58.8540   31.7340   49.1270 C   0  0  0  0  0  0  0  0  0  0  0  0
   58.1200   32.3300   50.1680 C   0  0  0  0  0  0  0  0  0  0  0  0
   58.1760   31.8000   51.4610 C   0  0  0  0  0  0  0  0  0  0  0  0
   58.9580   30.6720   51.7210 C   0  0  0  0  0  0  0  0  0  0  0  0
   59.6830   30.0690   50.6890 C   0  0  0  0  0  0  0  0  0  0  0  0
   59.6280   30.5950   49.3950 C   0  0  0  0  0  0  0  0  0  0  0  0
   59.1530   33.4890   47.4130 N   0  0  0  0  0  0  0  0  0  0  0  0
   59.6510   34.5360   48.3120 C   0  0  0  0  0  0  0  0  0  0  0  0
   59.4524   35.6832   45.9468 H   0  0  0  0  0  0  0  0  0  0  0  0
   60.1477   34.6763   44.6318 H   0  0  0  0  0  0  0  0  0  0  0  0
   58.3946   35.0679   44.6318 H   0  0  0  0  0  0  0  0  0  0  0  0
   58.4920   32.5710   43.4610 H   0  0  0  0  0  0  0  0  0  0  0  0
   56.0108   30.7218   42.1509 H   0  0  0  0  0  0  0  0  0  0  0  0
   57.8007   30.7705   42.0357 H   0  0  0  0  0  0  0  0  0  0  0  0
   59.3839   25.2744   45.3119 H   0  0  0  0  0  0  0  0  0  0  0  0
   58.0936   23.2053   45.8281 H   0  0  0  0  0  0  0  0  0  0  0  0
   55.6365   23.3292   46.2415 H   0  0  0  0  0  0  0  0  0  0  0  0
   54.4646   25.5305   46.1534 H   0  0  0  0  0  0  0  0  0  0  0  0
   57.5000   33.2156   49.9647 H   0  0  0  0  0  0  0  0  0  0  0  0
   57.6040   32.2716   52.2737 H   0  0  0  0  0  0  0  0  0  0  0  0
   59.0033   30.2578   52.7390 H   0  0  0  0  0  0  0  0  0  0  0  0
   60.2972   29.1800   50.8953 H   0  0  0  0  0  0  0  0  0  0  0  0
   60.1939   30.1139   48.5836 H   0  0  0  0  0  0  0  0  0  0  0  0
   59.5025   34.2238   49.3563 H   0  0  0  0  0  0  0  0  0  0  0  0
   60.7230   34.6988   48.1269 H   0  0  0  0  0  0  0  0  0  0  0  0
   59.1009   35.4704   48.1269 H   0  0  0  0  0  0  0  0  0  0  0  0
  1  2  1  0
  2  3  2  0
  3  4  1  0
  4  5  1  0
  5  6  2  0
  5  7  1  0
  7  8  1  0
  8  9  1  0
  9 10  2  0
 10 11  1  0
 11 12  1  0
 12 13  2  0
 12 14  1  0
 14 15  1  0
 15 16  2  0
 16 17  1  0
 17 18  2  0
 18 19  1  0
 19 20  2  0
 20 21  1  0
  3 22  1  0
 22 23  2  0
 22 24  1  0
 24 25  1  0
 25 26  2  0
 26 27  1  0
 27 28  2  0
 28 29  1  0
 29 30  2  0
 24 31  1  0
 31 32  1  0
 31  2  1  0
 14  9  1  0
 20 15  1  0
 30 25  1  0
  1 33  1  0
  1 34  1  0
  1 35  1  0
  4 36  1  0
  7 37  1  0
  7 38  1  0
 16 39  1  0
 17 40  1  0
 18 41  1  0
 19 42  1  0
 26 43  1  0
 27 44  1  0
 28 45  1  0
 29 46  1  0
 30 47  1  0
 32 48  1  0
 32 49  1  0
 32 50  1  0
M  CHG  2  11  -1  21  -1
M  END
>  <UniqueID>  (57) 
49

>  <SMILES>  (57) 
Cc1c(NC(=O)CSc2n[n-]c(=O)n2-c2ccccc2[O-])c(=O)n(-c2ccccc2)n1C

>  <Energy>  (57) 
132.56691596588132

>  <Genealogy>  (57) 
Cc1c(NC(=O)CSc2n[n-]c(=O)n2-c2ccccc2[O-])c(=O)n(-c2ccccc2)n1C (protonated)
Cc1c(NC(=O)CSc2n[n-]c(=O)n2-c2ccccc2[O-])c(=O)n(-c2ccccc2)n1C (3D coordinates assigned)
Cc1c(NC(=O)CSc2n[n-]c(=O)n2-c2ccccc2[O-])c(=O)n(-c2ccccc2)n1C (optimized conformer: 132.56691596588132 kcal/mol)

>  <smiles>  (57) 
Cc1c(NC(=O)CSc2n[nH]c(=O)n2-c2ccccc2O)c(=O)n(-c2ccccc2)n1C

>  <score_type>  (57) 
oracle

>  <origin>  (57) 
adg

>  <m_score__min__energy>  (57) 
-13.76

>  <m_primary>  (57) 
energy

$$$$
57:0
     RDKit          3D

 50 53  0  0  0  0  0  0  0  0999 V2000
   59.1130   29.7170   47.6800 C   0  0  0  0  0  0  0  0  0  0  0  0
   58.9020   29.8030   46.3580 C   0  0  0  0  0  0  0  0  0  0  0  0
   58.5060   28.7750   45.4870 C   0  0  0  0  0  0  0  0  0  0  0  0
   58.4180   27.4440   45.6730 C   0  0  0  0  0  0  0  0  0  0  0  0
   57.1810   26.7030   45.9700 C   0  0  0  0  0  0  0  0  0  0  0  0
   57.1410   25.4200   46.3760 N   0  0  0  0  0  0  0  0  0  0  0  0
   55.8210   25.1350   46.3840 C   0  0  0  0  0  0  0  0  0  0  0  0
   55.3730   24.0110   46.7280 O   0  0  0  0  0  0  0  0  0  0  0  0
   55.0210   26.1460   45.9830 N   0  0  0  0  0  0  0  0  0  0  0  0
   55.8960   27.1280   45.7120 C   0  0  0  0  0  0  0  0  0  0  0  0
   55.5190   28.3820   45.2380 O   0  0  0  0  0  0  0  0  0  0  0  0
   58.2020   29.3850   44.2800 C   0  0  0  0  0  0  0  0  0  0  0  0
   58.4870   30.7280   44.4280 C   0  0  0  0  0  0  0  0  0  0  0  0
   58.2740   31.7730   43.3770 C   0  0  0  0  0  0  0  0  0  0  0  0
   58.9150   30.9780   45.6830 N   0  0  0  0  0  0  0  0  0  0  0  0
   59.2130   32.2810   46.2130 C   0  0  0  0  0  0  0  0  0  0  0  0
   58.2870   33.3160   46.0310 C   0  0  0  0  0  0  0  0  0  0  0  0
   58.5560   34.5960   46.5130 C   0  0  0  0  0  0  0  0  0  0  0  0
   59.7600   34.8570   47.1650 C   0  0  0  0  0  0  0  0  0  0  0  0
   60.7070   33.8390   47.3500 C   0  0  0  0  0  0  0  0  0  0  0  0
   61.9550   34.1600   47.9850 N   0  0  0  0  0  0  0  0  0  0  0  0
   62.0010   34.5080   49.4100 C   0  0  0  0  0  0  0  0  0  0  0  0
   63.2050   33.9020   50.0880 C   0  0  0  0  0  0  0  0  0  0  0  0
   64.2060   33.3180   49.4070 C   0  0  0  0  0  0  0  0  0  0  0  0
   64.1440   33.0890   47.9180 C   0  0  0  0  0  0  0  0  0  0  0  0
   63.2110   34.0870   47.2350 C   0  0  0  0  0  0  0  0  0  0  0  0
   60.4250   32.5270   46.9000 C   0  0  0  0  0  0  0  0  0  0  0  0
   61.4150   31.4110   47.1200 C   0  0  0  0  0  0  0  0  0  0  0  0
   59.4231   30.6074   48.2465 H   0  0  0  0  0  0  0  0  0  0  0  0
   58.9759   28.7561   48.1975 H   0  0  0  0  0  0  0  0  0  0  0  0
   59.3482   26.8619   45.5966 H   0  0  0  0  0  0  0  0  0  0  0  0
   54.7590   28.4900   44.5770 H   0  0  0  0  0  0  0  0  0  0  0  0
   57.8092   28.8936   43.3776 H   0  0  0  0  0  0  0  0  0  0  0  0
   58.0765   32.7422   43.8583 H   0  0  0  0  0  0  0  0  0  0  0  0
   59.1746   31.8516   42.7503 H   0  0  0  0  0  0  0  0  0  0  0  0
   57.4145   31.4929   42.7503 H   0  0  0  0  0  0  0  0  0  0  0  0
   57.3418   33.1176   45.5045 H   0  0  0  0  0  0  0  0  0  0  0  0
   57.8178   35.4004   46.3788 H   0  0  0  0  0  0  0  0  0  0  0  0
   59.9694   35.8705   47.5378 H   0  0  0  0  0  0  0  0  0  0  0  0
   62.0478   35.6025   49.5094 H   0  0  0  0  0  0  0  0  0  0  0  0
   61.0961   34.1096   49.8922 H   0  0  0  0  0  0  0  0  0  0  0  0
   63.2662   33.9397   51.1857 H   0  0  0  0  0  0  0  0  0  0  0  0
   65.1030   32.9954   49.9560 H   0  0  0  0  0  0  0  0  0  0  0  0
   65.1544   33.1991   47.4973 H   0  0  0  0  0  0  0  0  0  0  0  0
   63.7536   32.0759   47.7412 H   0  0  0  0  0  0  0  0  0  0  0  0
   63.6853   35.0793   47.2134 H   0  0  0  0  0  0  0  0  0  0  0  0
   63.0087   33.7596   46.2045 H   0  0  0  0  0  0  0  0  0  0  0  0
   61.5553   31.2528   48.1995 H   0  0  0  0  0  0  0  0  0  0  0  0
   61.0340   30.4870   46.6605 H   0  0  0  0  0  0  0  0  0  0  0  0
   62.3778   31.6791   46.6605 H   0  0  0  0  0  0  0  0  0  0  0  0
  1  2  2  0
  2  3  1  0
  3  4  2  3
  4  5  1  0
  5  6  1  0
  6  7  1  0
  7  8  2  0
  7  9  1  0
  9 10  1  0
 10 11  1  0
  3 12  1  0
 12 13  2  0
 13 14  1  0
 13 15  1  0
 15 16  1  0
 16 17  2  0
 17 18  1  0
 18 19  2  0
 19 20  1  0
 20 21  1  0
 21 22  1  0
 22 23  1  0
 23 24  2  0
 24 25  1  0
 25 26  1  0
 20 27  2  0
 27 28  1  0
 15  2  1  0
 27 16  1  0
 10  5  2  0
 26 21  1  0
  1 29  1  0
  1 30  1  0
  4 31  1  0
 11 32  1  0
 12 33  1  0
 14 34  1  0
 14 35  1  0
 14 36  1  0
 17 37  1  0
 18 38  1  0
 19 39  1  0
 22 40  1  0
 22 41  1  0
 23 42  1  0
 24 43  1  0
 25 44  1  0
 25 45  1  0
 26 46  1  0
 26 47  1  0
 28 48  1  0
 28 49  1  0
 28 50  1  0
M  CHG  2   6  -1   9  -1
M  END
>  <UniqueID>  (58) 
50

>  <SMILES>  (58) 
C=c1c(=Cc2[n-]c(=O)[n-]c2O)cc(C)n1-c1cccc(N2CC=CCC2)c1C

>  <Energy>  (58) 
133.53438299635226

>  <Genealogy>  (58) 
C=c1c(=Cc2[n-]c(=O)[n-]c2O)cc(C)n1-c1cccc(N2CC=CCC2)c1C (protonated)
C=c1c(=Cc2[n-]c(=O)[n-]c2O)cc(C)n1-c1cccc(N2CC=CCC2)c1C (3D coordinates assigned)
C=c1c(=Cc2[n-]c(=O)[n-]c2O)cc(C)n1-c1cccc(N2CC=CCC2)c1C (nonaromatic ring conformer: 133.53438299635226 kcal/mol)

>  <smiles>  (58) 
C=c1c(=Cc2[nH]c(=O)[nH]c2O)cc(C)n1-c1cccc(N2CC=CCC2)c1C

>  <score_type>  (58) 
oracle

>  <origin>  (58) 
adg

>  <m_score__min__energy>  (58) 
-14.33

>  <m_primary>  (58) 
energy

$$$$
58:0
     RDKit          3D

 39 41  0  0  0  0  0  0  0  0999 V2000
   57.0578   30.7562   52.9559 H   0  0  0  0  0  0  0  0  0  0  0  0
   56.7420   30.4590   51.9450 C   0  0  0  0  0  0  0  0  0  0  0  0
   55.5150   30.4520   51.6590 O   0  0  0  0  0  0  0  0  0  0  0  0
   57.7340   30.0880   50.9810 N   0  0  0  0  0  0  0  0  0  0  0  0
   58.4350   30.9690   50.0920 C   0  0  0  0  0  0  0  0  0  0  0  0
   58.5330   32.3510   50.3350 C   0  0  0  0  0  0  0  0  0  0  0  0
   58.0777   32.7829   51.2384 H   0  0  0  0  0  0  0  0  0  0  0  0
   59.2070   33.1760   49.4320 C   0  0  0  0  0  0  0  0  0  0  0  0
   59.2885   34.2547   49.6312 H   0  0  0  0  0  0  0  0  0  0  0  0
   59.7780   32.6370   48.2770 C   0  0  0  0  0  0  0  0  0  0  0  0
   60.3130   33.2919   47.5736 H   0  0  0  0  0  0  0  0  0  0  0  0
   59.6720   31.2630   48.0100 C   0  0  0  0  0  0  0  0  0  0  0  0
   60.2860   30.6790   46.7630 C   0  0  0  0  0  0  0  0  0  0  0  0
   61.1460   30.0533   47.0439 H   0  0  0  0  0  0  0  0  0  0  0  0
   60.6081   31.5037   46.1102 H   0  0  0  0  0  0  0  0  0  0  0  0
   59.3070   29.8540   46.0320 N   0  0  0  0  0  0  0  0  0  0  0  0
   58.3140   30.3390   45.2480 C   0  0  0  0  0  0  0  0  0  0  0  0
   58.0440   31.7920   44.9920 C   0  0  0  0  0  0  0  0  0  0  0  0
   57.9457   32.3212   45.9513 H   0  0  0  0  0  0  0  0  0  0  0  0
   58.8772   32.2243   44.4185 H   0  0  0  0  0  0  0  0  0  0  0  0
   57.1111   31.8961   44.4185 H   0  0  0  0  0  0  0  0  0  0  0  0
   57.5310   29.3130   44.7660 C   0  0  0  0  0  0  0  0  0  0  0  0
   56.6369   29.4130   44.1331 H   0  0  0  0  0  0  0  0  0  0  0  0
   58.0840   28.1330   45.2300 C   0  0  0  0  0  0  0  0  0  0  0  0
   57.6140   26.9220   44.8740 C   0  0  0  0  0  0  0  0  0  0  0  0
   57.6182   26.6779   43.8014 H   0  0  0  0  0  0  0  0  0  0  0  0
   57.0950   25.8960   45.7940 C   0  0  0  0  0  0  0  0  0  0  0  0
   57.7800   24.8090   46.1960 N   0  0  0  0  0  0  0  0  0  0  0  0
   56.8650   24.1090   46.9010 C   0  0  0  0  0  0  0  0  0  0  0  0
   57.1350   23.0150   47.4630 O   0  0  0  0  0  0  0  0  0  0  0  0
   55.6360   24.6660   46.9480 N   0  0  0  0  0  0  0  0  0  0  0  0
   55.7970   25.7890   46.2290 C   0  0  0  0  0  0  0  0  0  0  0  0
   54.7760   26.6960   45.9740 O   0  0  0  0  0  0  0  0  0  0  0  0
   59.1560   28.5000   46.0610 C   0  0  0  0  0  0  0  0  0  0  0  0
   59.8410   27.6870   46.8820 C   0  0  0  0  0  0  0  0  0  0  0  0
   60.6664   28.0870   47.4893 H   0  0  0  0  0  0  0  0  0  0  0  0
   59.5766   26.6212   46.9470 H   0  0  0  0  0  0  0  0  0  0  0  0
   58.9860   30.4400   48.9190 C   0  0  0  0  0  0  0  0  0  0  0  0
   58.8806   29.3660   48.7061 H   0  0  0  0  0  0  0  0  0  0  0  0
  1  2  1  0
  2  3  2  0
  2  4  1  0
  4  5  1  0
  5  6  2  0
  6  7  1  0
  6  8  1  0
  8  9  1  0
  8 10  2  0
 10 11  1  0
 10 12  1  0
 12 13  1  0
 13 14  1  0
 13 15  1  0
 13 16  1  0
 16 17  1  0
 17 18  1  0
 18 19  1  0
 18 20  1  0
 18 21  1  0
 17 22  2  0
 22 23  1  0
 22 24  1  0
 24 25  2  0
 25 26  1  0
 25 27  1  0
 27 28  1  0
 28 29  1  0
 29 30  2  0
 29 31  1  0
 31 32  1  0
 32 33  1  0
 24 34  1  0
 34 35  2  0
 35 36  1  0
 35 37  1  0
 12 38  2  0
 38 39  1  0
 38  5  1  0
 34 16  1  0
 32 27  2  0
M  CHG  4   4  -1  28  -1  31  -1  33  -1
M  END
>  <UniqueID>  (59) 
51

>  <SMILES>  (59) 
C=c1/c(=C\c2[n-]c(=O)[n-]c2[O-])cc(C)n1Cc1cccc([N-]C=O)c1

>  <Energy>  (59) 
113.02775679840398

>  <Genealogy>  (59) 
C=c1c(=Cc2[n-]c(=O)[n-]c2[O-])cc(C)n1Cc1cccc([N-]C=O)c1 (protonated)
C=c1/c(=C\c2[n-]c(=O)[n-]c2[O-])cc(C)n1Cc1cccc([N-]C=O)c1 (cis-trans isomerization)
C=c1/c(=C\c2[n-]c(=O)[n-]c2[O-])cc(C)n1Cc1cccc([N-]C=O)c1 (3D coordinates assigned)
C=c1/c(=C\c2[n-]c(=O)[n-]c2[O-])cc(C)n1Cc1cccc([N-]C=O)c1 (optimized conformer: 113.02775679840398 kcal/mol)

>  <smiles>  (59) 
C=c1c(=Cc2[nH]c(=O)[nH]c2O)cc(C)n1Cc1cccc(NC=O)c1

>  <score_type>  (59) 
oracle

>  <origin>  (59) 
adg

>  <m_score__min__energy>  (59) 
-16.190000000000001

>  <m_primary>  (59) 
energy

$$$$
59:0
     RDKit          3D

 48 50  0  0  0  0  0  0  0  0999 V2000
   62.3310   33.4760   46.7900 C   0  0  0  0  0  0  0  0  0  0  0  0
   61.1140   34.0020   47.3050 O   0  0  0  0  0  0  0  0  0  0  0  0
   59.8880   33.9960   46.6180 C   0  0  0  0  0  0  0  0  0  0  0  0
   59.6290   34.8810   45.5520 C   0  0  0  0  0  0  0  0  0  0  0  0
   58.4000   34.8440   44.8880 C   0  0  0  0  0  0  0  0  0  0  0  0
   57.4210   33.9290   45.2750 C   0  0  0  0  0  0  0  0  0  0  0  0
   57.6670   33.0430   46.3260 C   0  0  0  0  0  0  0  0  0  0  0  0
   58.8950   33.0730   47.0080 C   0  0  0  0  0  0  0  0  0  0  0  0
   59.1660   32.0970   48.1200 C   0  0  0  0  0  0  0  0  0  0  0  0
   58.5770   30.8080   47.7710 N   0  0  0  0  0  0  0  0  0  0  0  0
   59.3810   30.1120   46.3980 S   0  0  0  0  0  0  0  0  0  0  0  0
   58.8690   30.7040   45.1150 O   0  0  0  0  0  0  0  0  0  0  0  0
   60.8570   30.3680   46.5200 O   0  0  0  0  0  0  0  0  0  0  0  0
   59.0800   28.3780   46.3840 C   0  0  0  0  0  0  0  0  0  0  0  0
   60.1530   27.4790   46.3440 C   0  0  0  0  0  0  0  0  0  0  0  0
   59.9120   26.1030   46.3160 C   0  0  0  0  0  0  0  0  0  0  0  0
   58.6010   25.6180   46.3280 C   0  0  0  0  0  0  0  0  0  0  0  0
   57.5120   26.5080   46.3660 C   0  0  0  0  0  0  0  0  0  0  0  0
   56.1210   25.9970   46.3970 C   0  0  0  0  0  0  0  0  0  0  0  0
   55.1730   26.7180   45.9770 O   0  0  0  0  0  0  0  0  0  0  0  0
   55.8480   24.6780   46.8790 N   0  0  0  0  0  0  0  0  0  0  0  0
   55.0010   23.7300   46.1680 C   0  0  0  0  0  0  0  0  0  0  0  0
   55.8250   22.9620   45.1750 C   0  0  0  0  0  0  0  0  0  0  0  0
   56.9620   22.2460   45.5770 C   0  0  0  0  0  0  0  0  0  0  0  0
   57.7140   21.5440   44.6320 C   0  0  0  0  0  0  0  0  0  0  0  0
   57.3230   21.5690   43.2910 C   0  0  0  0  0  0  0  0  0  0  0  0
   56.2210   22.2690   42.9160 N   0  0  0  0  0  0  0  0  0  0  0  0
   55.4720   22.9580   43.8170 C   0  0  0  0  0  0  0  0  0  0  0  0
   57.7650   27.8920   46.3840 C   0  0  0  0  0  0  0  0  0  0  0  0
   62.9894   33.1914   47.6240 H   0  0  0  0  0  0  0  0  0  0  0  0
   62.1161   32.5905   46.1739 H   0  0  0  0  0  0  0  0  0  0  0  0
   62.8287   34.2393   46.1739 H   0  0  0  0  0  0  0  0  0  0  0  0
   60.3977   35.6040   45.2414 H   0  0  0  0  0  0  0  0  0  0  0  0
   58.2041   35.5385   44.0577 H   0  0  0  0  0  0  0  0  0  0  0  0
   56.4538   33.9053   44.7516 H   0  0  0  0  0  0  0  0  0  0  0  0
   56.8949   32.3174   46.6216 H   0  0  0  0  0  0  0  0  0  0  0  0
   60.2517   31.9826   48.2546 H   0  0  0  0  0  0  0  0  0  0  0  0
   58.7245   32.4673   49.0570 H   0  0  0  0  0  0  0  0  0  0  0  0
   61.1862   27.8564   46.3346 H   0  0  0  0  0  0  0  0  0  0  0  0
   60.7567   25.3991   46.2844 H   0  0  0  0  0  0  0  0  0  0  0  0
   58.4196   24.5333   46.3076 H   0  0  0  0  0  0  0  0  0  0  0  0
   54.5502   23.0309   46.8878 H   0  0  0  0  0  0  0  0  0  0  0  0
   54.2072   24.2767   45.6378 H   0  0  0  0  0  0  0  0  0  0  0  0
   57.2613   22.2372   46.6355 H   0  0  0  0  0  0  0  0  0  0  0  0
   58.6049   20.9773   44.9405 H   0  0  0  0  0  0  0  0  0  0  0  0
   57.9083   21.0211   42.5379 H   0  0  0  0  0  0  0  0  0  0  0  0
   54.5852   23.5149   43.4801 H   0  0  0  0  0  0  0  0  0  0  0  0
   56.9228   28.5995   46.3982 H   0  0  0  0  0  0  0  0  0  0  0  0
  1  2  1  0
  2  3  1  0
  3  4  2  0
  4  5  1  0
  5  6  2  0
  6  7  1  0
  7  8  2  0
  8  9  1  0
  9 10  1  0
 10 11  1  0
 11 12  2  0
 11 13  2  0
 11 14  1  0
 14 15  2  0
 15 16  1  0
 16 17  2  0
 17 18  1  0
 18 19  1  0
 19 20  2  0
 19 21  1  0
 21 22  1  0
 22 23  1  0
 23 24  2  0
 24 25  1  0
 25 26  2  0
 26 27  1  0
 27 28  2  0
 18 29  2  0
  8  3  1  0
 29 14  1  0
 28 23  1  0
  1 30  1  0
  1 31  1  0
  1 32  1  0
  4 33  1  0
  5 34  1  0
  6 35  1  0
  7 36  1  0
  9 37  1  0
  9 38  1  0
 15 39  1  0
 16 40  1  0
 17 41  1  0
 22 42  1  0
 22 43  1  0
 24 44  1  0
 25 45  1  0
 26 46  1  0
 28 47  1  0
 29 48  1  0
M  CHG  2  10  -1  21  -1
M  END
>  <UniqueID>  (60) 
52

>  <SMILES>  (60) 
COc1ccccc1C[N-]S(=O)(=O)c1cccc(C(=O)[N-]Cc2cccnc2)c1

>  <Energy>  (60) 
45.46230845537017

>  <Genealogy>  (60) 
COc1ccccc1C[N-]S(=O)(=O)c1cccc(C(=O)[N-]Cc2cccnc2)c1 (protonated)
COc1ccccc1C[N-]S(=O)(=O)c1cccc(C(=O)[N-]Cc2cccnc2)c1 (3D coordinates assigned)
COc1ccccc1C[N-]S(=O)(=O)c1cccc(C(=O)[N-]Cc2cccnc2)c1 (optimized conformer: 45.46230845537017 kcal/mol)

>  <smiles>  (60) 
COc1ccccc1CNS(=O)(=O)c1cccc(C(=O)NCc2cccnc2)c1

>  <score_type>  (60) 
oracle

>  <origin>  (60) 
adg

>  <m_score__min__energy>  (60) 
-12.73

>  <m_primary>  (60) 
energy

$$$$
60:0
     RDKit          3D

 52 53  0  0  0  0  0  0  0  0999 V2000
   58.6370   34.5490   48.1210 H   0  0  0  0  0  0  0  0  0  0  0  0
   59.4570   34.4040   48.7000 O   0  0  0  0  0  0  0  0  0  0  0  0
   60.7170   34.1790   48.1460 C   0  0  0  0  0  0  0  0  0  0  0  0
   61.8060   33.9520   48.9980 C   0  0  0  0  0  0  0  0  0  0  0  0
   61.6697   34.0151   50.0877 H   0  0  0  0  0  0  0  0  0  0  0  0
   63.0600   33.6470   48.4740 C   0  0  0  0  0  0  0  0  0  0  0  0
   63.9152   33.4701   49.1428 H   0  0  0  0  0  0  0  0  0  0  0  0
   63.2170   33.5690   47.0940 C   0  0  0  0  0  0  0  0  0  0  0  0
   64.1994   33.3197   46.6664 H   0  0  0  0  0  0  0  0  0  0  0  0
   62.1600   33.8000   46.2740 N   0  0  0  0  0  0  0  0  0  0  0  0
   60.9220   34.1230   46.7410 C   0  0  0  0  0  0  0  0  0  0  0  0
   59.9790   34.3200   45.8620 N   0  0  0  0  0  0  0  0  0  0  0  0
   58.6650   33.7500   45.8110 C   0  0  0  0  0  0  0  0  0  0  0  0
   57.7700   34.1410   46.6070 O   0  0  0  0  0  0  0  0  0  0  0  0
   58.3230   32.7730   44.7300 C   0  0  0  0  0  0  0  0  0  0  0  0
   59.0931   32.8178   43.9458 H   0  0  0  0  0  0  0  0  0  0  0  0
   57.3392   33.0357   44.3140 H   0  0  0  0  0  0  0  0  0  0  0  0
   58.2570   31.3490   45.2890 C   0  0  0  0  0  0  0  0  0  0  0  0
   58.2620   31.3910   46.3882 H   0  0  0  0  0  0  0  0  0  0  0  0
   59.1287   30.7840   44.9271 H   0  0  0  0  0  0  0  0  0  0  0  0
   57.0040   30.6590   44.8260 C   0  0  0  0  0  0  0  0  0  0  0  0
   56.2540   31.2490   44.0060 O   0  0  0  0  0  0  0  0  0  0  0  0
   56.5880   29.3910   45.3460 N   0  0  0  0  0  0  0  0  0  0  0  0
   57.3000   28.1240   45.1990 C   0  0  0  0  0  0  0  0  0  0  0  0
   58.3378   28.3228   44.8932 H   0  0  0  0  0  0  0  0  0  0  0  0
   56.7961   27.5135   44.4352 H   0  0  0  0  0  0  0  0  0  0  0  0
   57.3000   27.3780   46.5060 C   0  0  0  0  0  0  0  0  0  0  0  0
   58.1630   27.6640   47.3760 O   0  0  0  0  0  0  0  0  0  0  0  0
   56.4120   26.2810   46.7550 N   0  0  0  0  0  0  0  0  0  0  0  0
   56.2830   25.0910   45.9630 C   0  0  0  0  0  0  0  0  0  0  0  0
   57.4030   24.4360   45.4390 C   0  0  0  0  0  0  0  0  0  0  0  0
   58.4102   24.8253   45.6488 H   0  0  0  0  0  0  0  0  0  0  0  0
   57.2520   23.2850   44.6470 C   0  0  0  0  0  0  0  0  0  0  0  0
   58.3590   22.5940   44.1260 O   0  0  0  0  0  0  0  0  0  0  0  0
   59.5000   22.2070   44.8860 C   0  0  0  0  0  0  0  0  0  0  0  0
   59.2697   22.2851   45.9588 H   0  0  0  0  0  0  0  0  0  0  0  0
   59.7672   21.1680   44.6430 H   0  0  0  0  0  0  0  0  0  0  0  0
   60.3442   22.8691   44.6430 H   0  0  0  0  0  0  0  0  0  0  0  0
   55.9670   22.7950   44.3580 C   0  0  0  0  0  0  0  0  0  0  0  0
   55.8990   21.6250   43.5750 O   0  0  0  0  0  0  0  0  0  0  0  0
   56.3180   20.3220   43.9620 C   0  0  0  0  0  0  0  0  0  0  0  0
   56.3396   20.2547   45.0597 H   0  0  0  0  0  0  0  0  0  0  0  0
   55.6142   19.5768   43.5628 H   0  0  0  0  0  0  0  0  0  0  0  0
   57.3242   20.1267   43.5628 H   0  0  0  0  0  0  0  0  0  0  0  0
   54.8260   23.4830   44.8460 C   0  0  0  0  0  0  0  0  0  0  0  0
   53.5380   23.0220   44.5270 O   0  0  0  0  0  0  0  0  0  0  0  0
   52.3300   23.7350   44.7750 C   0  0  0  0  0  0  0  0  0  0  0  0
   52.1746   23.8268   45.8601 H   0  0  0  0  0  0  0  0  0  0  0  0
   52.3978   24.7379   44.3282 H   0  0  0  0  0  0  0  0  0  0  0  0
   51.4848   23.1910   44.3282 H   0  0  0  0  0  0  0  0  0  0  0  0
   55.0050   24.6310   45.6430 C   0  0  0  0  0  0  0  0  0  0  0  0
   54.1243   25.1727   46.0185 H   0  0  0  0  0  0  0  0  0  0  0  0
  1  2  1  0
  2  3  1  0
  3  4  2  0
  4  5  1  0
  4  6  1  0
  6  7  1  0
  6  8  2  0
  8  9  1  0
  8 10  1  0
 10 11  1  0
 11 12  2  0
 12 13  1  0
 13 14  2  0
 13 15  1  0
 15 16  1  0
 15 17  1  0
 15 18  1  0
 18 19  1  0
 18 20  1  0
 18 21  1  0
 21 22  2  0
 21 23  1  0
 23 24  1  0
 24 25  1  0
 24 26  1  0
 24 27  1  0
 27 28  2  0
 27 29  1  0
 29 30  1  0
 30 31  2  0
 31 32  1  0
 31 33  1  0
 33 34  1  0
 34 35  1  0
 35 36  1  0
 35 37  1  0
 35 38  1  0
 33 39  2  0
 39 40  1  0
 40 41  1  0
 41 42  1  0
 41 43  1  0
 41 44  1  0
 39 45  1  0
 45 46  1  0
 46 47  1  0
 47 48  1  0
 47 49  1  0
 47 50  1  0
 45 51  2  0
 51 52  1  0
 11  3  1  0
 51 30  1  0
M  CHG  3  10  -1  23  -1  29  -1
M  END
>  <UniqueID>  (61) 
53

>  <SMILES>  (61) 
COc1cc([N-]C(=O)C[N-]C(=O)CCC(=O)/N=c2/[n-]cccc2O)cc(OC)c1OC

>  <Energy>  (61) 
65.744326552904

>  <Genealogy>  (61) 
COc1cc([N-]C(=O)C[N-]C(=O)CCC(=O)N=c2[n-]cccc2O)cc(OC)c1OC (protonated)
COc1cc([N-]C(=O)C[N-]C(=O)CCC(=O)/N=c2/[n-]cccc2O)cc(OC)c1OC (cis-trans isomerization)
COc1cc([N-]C(=O)C[N-]C(=O)CCC(=O)/N=c2/[n-]cccc2O)cc(OC)c1OC (3D coordinates assigned)
COc1cc([N-]C(=O)C[N-]C(=O)CCC(=O)/N=c2/[n-]cccc2O)cc(OC)c1OC (optimized conformer: 65.744326552904 kcal/mol)

>  <smiles>  (61) 
COc1cc(NC(=O)CNC(=O)CCC(=O)N=c2[nH]cccc2O)cc(OC)c1OC

>  <score_type>  (61) 
oracle

>  <origin>  (61) 
adg

>  <m_score__min__energy>  (61) 
-11.630000000000001

>  <m_primary>  (61) 
energy

$$$$
61:0
     RDKit          3D

 61 65  0  0  0  0  0  0  0  0999 V2000
   56.8838   27.8736   42.9805 H   0  0  0  0  0  0  0  0  0  0  0  0
   57.3340   28.3800   43.8470 C   0  0  0  0  0  0  0  0  0  0  0  0
   56.4760   29.3220   44.6040 C   0  0  0  0  0  0  0  0  0  0  0  0
   55.2220   29.2890   44.4700 O   0  0  0  0  0  0  0  0  0  0  0  0
   57.0350   30.1980   45.5910 N   0  0  0  0  0  0  0  0  0  0  0  0
   57.6600   31.4650   45.3470 C   0  0  0  0  0  0  0  0  0  0  0  0
   57.6620   31.9780   44.0420 C   0  0  0  0  0  0  0  0  0  0  0  0
   57.1719   31.4167   43.2328 H   0  0  0  0  0  0  0  0  0  0  0  0
   58.2830   33.1980   43.7640 C   0  0  0  0  0  0  0  0  0  0  0  0
   58.2662   33.6018   42.7409 H   0  0  0  0  0  0  0  0  0  0  0  0
   58.9250   33.9060   44.7820 C   0  0  0  0  0  0  0  0  0  0  0  0
   59.4062   34.8700   44.5604 H   0  0  0  0  0  0  0  0  0  0  0  0
   58.9580   33.3920   46.0850 C   0  0  0  0  0  0  0  0  0  0  0  0
   59.8040   34.2690   47.3630 S   0  0  0  0  0  0  0  0  0  0  0  0
   58.9920   34.2070   48.6270 O   0  0  0  0  0  0  0  0  0  0  0  0
   59.9350   35.7120   46.9650 O   0  0  0  0  0  0  0  0  0  0  0  0
   61.3960   33.6110   47.6600 N   0  0  0  0  0  0  0  0  0  0  0  0
   61.9800   34.2090   48.8700 C   0  0  0  0  0  0  0  0  0  0  0  0
   62.0715   35.2964   48.7315 H   0  0  0  0  0  0  0  0  0  0  0  0
   61.3272   33.9968   49.7296 H   0  0  0  0  0  0  0  0  0  0  0  0
   63.3780   33.6070   49.1330 C   0  0  0  0  0  0  0  0  0  0  0  0
   64.0989   34.4281   49.2597 H   0  0  0  0  0  0  0  0  0  0  0  0
   63.3130   32.9870   50.0393 H   0  0  0  0  0  0  0  0  0  0  0  0
   63.8140   32.7770   48.0690 O   0  0  0  0  0  0  0  0  0  0  0  0
   63.7370   33.4840   46.8460 C   0  0  0  0  0  0  0  0  0  0  0  0
   64.3245   34.4102   46.9291 H   0  0  0  0  0  0  0  0  0  0  0  0
   64.1363   32.8427   46.0465 H   0  0  0  0  0  0  0  0  0  0  0  0
   62.2770   33.8430   46.5020 C   0  0  0  0  0  0  0  0  0  0  0  0
   62.2241   34.9036   46.2150 H   0  0  0  0  0  0  0  0  0  0  0  0
   61.9429   33.2051   45.6705 H   0  0  0  0  0  0  0  0  0  0  0  0
   58.3290   32.1690   46.3640 C   0  0  0  0  0  0  0  0  0  0  0  0
   58.3594   31.7586   47.3841 H   0  0  0  0  0  0  0  0  0  0  0  0
   58.6140   28.0930   44.1300 C   0  0  0  0  0  0  0  0  0  0  0  0
   59.2869   27.8939   43.2830 H   0  0  0  0  0  0  0  0  0  0  0  0
   59.1920   28.0230   45.4880 C   0  0  0  0  0  0  0  0  0  0  0  0
   59.0660   26.8620   46.2680 C   0  0  0  0  0  0  0  0  0  0  0  0
   58.4928   26.0038   45.8873 H   0  0  0  0  0  0  0  0  0  0  0  0
   59.6680   26.7960   47.5270 C   0  0  0  0  0  0  0  0  0  0  0  0
   59.5664   25.8858   48.1362 H   0  0  0  0  0  0  0  0  0  0  0  0
   60.3990   27.8830   48.0150 C   0  0  0  0  0  0  0  0  0  0  0  0
   60.8693   27.8228   49.0076 H   0  0  0  0  0  0  0  0  0  0  0  0
   60.5380   29.0530   47.2470 C   0  0  0  0  0  0  0  0  0  0  0  0
   61.2800   30.2210   47.7800 C   0  0  0  0  0  0  0  0  0  0  0  0
   61.9300   30.9590   46.9900 O   0  0  0  0  0  0  0  0  0  0  0  0
   61.2700   30.4850   49.1950 N   0  0  0  0  0  0  0  0  0  0  0  0
   60.3070   30.9960   49.9060 C   0  0  0  0  0  0  0  0  0  0  0  0
   60.4580   32.1860   50.5480 N   0  0  0  0  0  0  0  0  0  0  0  0
   59.3150   32.4910   51.2050 C   0  0  0  0  0  0  0  0  0  0  0  0
   58.3050   31.6160   51.0990 C   0  0  0  0  0  0  0  0  0  0  0  0
   58.7480   30.3230   50.1310 S   0  0  0  0  0  0  0  0  0  0  0  0
   57.0700   32.0470   51.7730 C   0  0  0  0  0  0  0  0  0  0  0  0
   56.2470   32.1733   51.0542 H   0  0  0  0  0  0  0  0  0  0  0  0
   56.6954   31.3232   52.5118 H   0  0  0  0  0  0  0  0  0  0  0  0
   57.4900   33.4090   52.3930 C   0  0  0  0  0  0  0  0  0  0  0  0
   56.8338   34.2078   52.0171 H   0  0  0  0  0  0  0  0  0  0  0  0
   57.4040   33.3711   53.4890 H   0  0  0  0  0  0  0  0  0  0  0  0
   58.9580   33.6960   51.9790 C   0  0  0  0  0  0  0  0  0  0  0  0
   59.0258   34.6015   51.3581 H   0  0  0  0  0  0  0  0  0  0  0  0
   59.6256   33.8812   52.8334 H   0  0  0  0  0  0  0  0  0  0  0  0
   59.9450   29.1030   45.9720 C   0  0  0  0  0  0  0  0  0  0  0  0
   60.0734   29.9994   45.3475 H   0  0  0  0  0  0  0  0  0  0  0  0
  1  2  1  0
  2  3  1  0
  3  4  2  0
  3  5  1  0
  5  6  1  0
  6  7  2  0
  7  8  1  0
  7  9  1  0
  9 10  1  0
  9 11  2  0
 11 12  1  0
 11 13  1  0
 13 14  1  0
 14 15  2  0
 14 16  2  0
 14 17  1  0
 17 18  1  0
 18 19  1  0
 18 20  1  0
 18 21  1  0
 21 22  1  0
 21 23  1  0
 21 24  1  0
 24 25  1  0
 25 26  1  0
 25 27  1  0
 25 28  1  0
 28 29  1  0
 28 30  1  0
 13 31  2  0
 31 32  1  0
  2 33  2  3
 33 34  1  0
 33 35  1  0
 35 36  2  0
 36 37  1  0
 36 38  1  0
 38 39  1  0
 38 40  2  0
 40 41  1  0
 40 42  1  0
 42 43  1  0
 43 44  2  0
 43 45  1  0
 45 46  2  0
 46 47  1  0
 47 48  1  0
 48 49  2  0
 49 50  1  0
 49 51  1  0
 51 52  1  0
 51 53  1  0
 51 54  1  0
 54 55  1  0
 54 56  1  0
 54 57  1  0
 57 58  1  0
 57 59  1  0
 42 60  2  0
 60 61  1  0
 31  6  1  0
 60 35  1  0
 28 17  1  0
 50 46  1  0
 57 48  1  0
M  CHG  2   5  -1  47  -1
M  END
>  <UniqueID>  (62) 
54

>  <SMILES>  (62) 
O=C(C=Cc1cccc(C(=O)/N=c2/[n-]c3c(s2)CCC3)c1)[N-]c1cccc(S(=O)(=O)N2CCOCC2)c1

>  <Energy>  (62) 
135.90511028603353

>  <Genealogy>  (62) 
O=C(C=Cc1cccc(C(=O)N=c2[n-]c3c(s2)CCC3)c1)[N-]c1cccc(S(=O)(=O)N2CCOCC2)c1 (protonated)
O=C(C=Cc1cccc(C(=O)/N=c2/[n-]c3c(s2)CCC3)c1)[N-]c1cccc(S(=O)(=O)N2CCOCC2)c1 (cis-trans isomerization)
O=C(C=Cc1cccc(C(=O)/N=c2/[n-]c3c(s2)CCC3)c1)[N-]c1cccc(S(=O)(=O)N2CCOCC2)c1 (3D coordinates assigned)
O=C(C=Cc1cccc(C(=O)/N=c2/[n-]c3c(s2)CCC3)c1)[N-]c1cccc(S(=O)(=O)N2CCOCC2)c1 (nonaromatic ring conformer: 135.90511028603353 kcal/mol)

>  <smiles>  (62) 
O=C(C=Cc1cccc(C(=O)N=c2[nH]c3c(s2)CCC3)c1)Nc1cccc(S(=O)(=O)N2CCOCC2)c1

>  <score_type>  (62) 
oracle

>  <origin>  (62) 
adg

>  <m_score__min__energy>  (62) 
-14.31

>  <m_primary>  (62) 
energy

$$$$
62:0
     RDKit          3D

 51 54  0  0  0  0  0  0  0  0999 V2000
   59.8320   21.8440   44.7330 N   0  0  0  0  0  0  0  0  0  0  0  0
   58.9200   22.8980   45.0510 C   0  0  0  0  0  0  0  0  0  0  0  0
   59.3720   24.0450   45.7180 C   0  0  0  0  0  0  0  0  0  0  0  0
   58.4810   25.0770   46.0270 C   0  0  0  0  0  0  0  0  0  0  0  0
   57.1240   24.9680   45.6830 C   0  0  0  0  0  0  0  0  0  0  0  0
   56.1790   26.0950   45.9780 C   0  0  0  0  0  0  0  0  0  0  0  0
   56.5920   27.2520   45.2570 O   0  0  0  0  0  0  0  0  0  0  0  0
   57.3000   28.3280   45.8140 C   0  0  0  0  0  0  0  0  0  0  0  0
   58.1900   28.1590   46.8930 C   0  0  0  0  0  0  0  0  0  0  0  0
   58.8790   29.2530   47.4230 C   0  0  0  0  0  0  0  0  0  0  0  0
   58.6860   30.5300   46.8820 C   0  0  0  0  0  0  0  0  0  0  0  0
   59.3600   31.6440   47.3900 C   0  0  0  0  0  0  0  0  0  0  0  0
   59.1400   32.9040   46.8270 C   0  0  0  0  0  0  0  0  0  0  0  0
   60.0170   34.3000   47.4690 S   0  0  0  0  0  0  0  0  0  0  0  0
   59.6410   35.5490   46.7210 O   0  0  0  0  0  0  0  0  0  0  0  0
   59.6160   34.4810   48.9070 O   0  0  0  0  0  0  0  0  0  0  0  0
   61.7470   34.0270   47.3840 N   0  0  0  0  0  0  0  0  0  0  0  0
   62.3940   34.2080   48.7010 C   0  0  0  0  0  0  0  0  0  0  0  0
   62.1360   33.0280   49.6640 C   0  0  0  0  0  0  0  0  0  0  0  0
   62.0980   31.7110   49.0010 N   0  0  0  0  0  0  0  0  0  0  0  0
   62.7520   31.7230   47.6910 C   0  0  0  0  0  0  0  0  0  0  0  0
   62.0640   32.7210   46.7430 C   0  0  0  0  0  0  0  0  0  0  0  0
   58.2460   33.0060   45.7440 C   0  0  0  0  0  0  0  0  0  0  0  0
   58.0270   34.1160   45.1920 O   0  0  0  0  0  0  0  0  0  0  0  0
   57.6210   31.9250   45.2850 O   0  0  0  0  0  0  0  0  0  0  0  0
   57.8000   30.7120   45.8020 C   0  0  0  0  0  0  0  0  0  0  0  0
   57.1100   29.6110   45.2730 C   0  0  0  0  0  0  0  0  0  0  0  0
   56.0050   29.8360   43.9220 Cl  0  0  0  0  0  0  0  0  0  0  0  0
   56.6770   23.8270   44.9990 C   0  0  0  0  0  0  0  0  0  0  0  0
   57.5690   22.7940   44.6910 C   0  0  0  0  0  0  0  0  0  0  0  0
   59.5570   20.8440   44.8570 H   0  0  0  0  0  0  0  0  0  0  0  0
   60.7880   22.0550   44.3680 H   0  0  0  0  0  0  0  0  0  0  0  0
   60.4317   24.1334   45.9993 H   0  0  0  0  0  0  0  0  0  0  0  0
   58.8446   25.9785   46.5419 H   0  0  0  0  0  0  0  0  0  0  0  0
   55.1616   25.8127   45.6694 H   0  0  0  0  0  0  0  0  0  0  0  0
   56.1845   26.3097   47.0568 H   0  0  0  0  0  0  0  0  0  0  0  0
   58.3437   27.1577   47.3217 H   0  0  0  0  0  0  0  0  0  0  0  0
   59.5727   29.1111   48.2648 H   0  0  0  0  0  0  0  0  0  0  0  0
   60.0611   31.5294   48.2299 H   0  0  0  0  0  0  0  0  0  0  0  0
   62.1160   34.7840   46.7620 H   0  0  0  0  0  0  0  0  0  0  0  0
   63.4790   34.3061   48.5487 H   0  0  0  0  0  0  0  0  0  0  0  0
   61.9623   35.1096   49.1601 H   0  0  0  0  0  0  0  0  0  0  0  0
   62.9383   33.0136   50.4165 H   0  0  0  0  0  0  0  0  0  0  0  0
   61.1426   33.1902   50.1077 H   0  0  0  0  0  0  0  0  0  0  0  0
   61.1030   31.4150   48.8720 H   0  0  0  0  0  0  0  0  0  0  0  0
   63.8054   32.0136   47.8170 H   0  0  0  0  0  0  0  0  0  0  0  0
   62.6809   30.7163   47.2534 H   0  0  0  0  0  0  0  0  0  0  0  0
   62.7310   32.9056   45.8880 H   0  0  0  0  0  0  0  0  0  0  0  0
   61.1084   32.2704   46.4369 H   0  0  0  0  0  0  0  0  0  0  0  0
   55.6206   23.7444   44.7037 H   0  0  0  0  0  0  0  0  0  0  0  0
   57.2092   21.8975   44.1648 H   0  0  0  0  0  0  0  0  0  0  0  0
  1  2  1  0
  2  3  2  0
  3  4  1  0
  4  5  2  0
  5  6  1  0
  6  7  1  0
  7  8  1  0
  8  9  2  0
  9 10  1  0
 10 11  2  0
 11 12  1  0
 12 13  2  0
 13 14  1  0
 14 15  2  0
 14 16  2  0
 14 17  1  0
 17 18  1  0
 18 19  1  0
 19 20  1  0
 20 21  1  0
 21 22  1  0
 13 23  1  0
 23 24  2  0
 23 25  1  0
 25 26  1  0
 26 27  2  0
 27 28  1  0
  5 29  1  0
 29 30  2  0
 30  2  1  0
 27  8  1  0
 26 11  1  0
 22 17  1  0
  1 31  1  0
  1 32  1  0
  3 33  1  0
  4 34  1  0
  6 35  1  0
  6 36  1  0
  9 37  1  0
 10 38  1  0
 12 39  1  0
 17 40  1  0
 18 41  1  0
 18 42  1  0
 19 43  1  0
 19 44  1  0
 20 45  1  0
 21 46  1  0
 21 47  1  0
 22 48  1  0
 22 49  1  0
 29 50  1  0
 30 51  1  0
M  CHG  1  17   1
M  END
>  <UniqueID>  (63) 
55

>  <SMILES>  (63) 
Nc1ccc(COc2ccc3cc(S(=O)(=O)[NH+]4CCNCC4)c(=O)oc3c2Cl)cc1

>  <Energy>  (63) 
68.20902437004547

>  <Genealogy>  (63) 
Nc1ccc(COc2ccc3cc(S(=O)(=O)[NH+]4CCNCC4)c(=O)oc3c2Cl)cc1 (protonated)
Nc1ccc(COc2ccc3cc(S(=O)(=O)[NH+]4CCNCC4)c(=O)oc3c2Cl)cc1 (3D coordinates assigned)
Nc1ccc(COc2ccc3cc(S(=O)(=O)[NH+]4CCNCC4)c(=O)oc3c2Cl)cc1 (nonaromatic ring conformer: 68.20902437004547 kcal/mol)

>  <smiles>  (63) 
Nc1ccc(COc2ccc3cc(S(=O)(=O)N4CCNCC4)c(=O)oc3c2Cl)cc1

>  <score_type>  (63) 
oracle

>  <origin>  (63) 
adg

>  <m_score__min__energy>  (63) 
-7.71

>  <m_primary>  (63) 
energy

$$$$
63:0
     RDKit          3D

 42 44  0  0  0  0  0  0  0  0999 V2000
   61.0680   32.7590   48.7340 C   0  0  0  0  0  0  0  0  0  0  0  0
   60.0830   32.8250   49.8170 N   0  0  0  0  0  0  0  0  0  0  0  0
   60.3960   33.5010   51.0780 C   0  0  0  0  0  0  0  0  0  0  0  0
   58.7890   32.2230   49.6440 C   0  0  0  0  0  0  0  0  0  0  0  0
   58.5000   31.6430   48.5600 O   0  0  0  0  0  0  0  0  0  0  0  0
   57.8490   32.2860   50.6820 O   0  0  0  0  0  0  0  0  0  0  0  0
   57.2070   31.1410   51.2440 C   0  0  2  0  0  0  0  0  0  0  0  0
   55.9630   31.6020   51.9990 C   0  0  0  0  0  0  0  0  0  0  0  0
   55.3910   30.4610   52.7130 N   0  0  0  0  0  0  0  0  0  0  0  0
   53.9990   30.1230   52.5830 C   0  0  0  0  0  0  0  0  0  0  0  0
   53.6650   28.9280   52.3600 O   0  0  0  0  0  0  0  0  0  0  0  0
   52.9380   31.1850   52.6240 C   0  0  0  0  0  0  0  0  0  0  0  0
   52.1770   31.1930   51.3360 C   0  0  0  0  0  0  0  0  0  0  0  0
   52.2910   30.0200   50.1310 S   0  0  0  0  0  0  0  0  0  0  0  0
   51.2260   30.8420   49.1180 C   0  0  0  0  0  0  0  0  0  0  0  0
   50.8770   30.4370   47.9790 O   0  0  0  0  0  0  0  0  0  0  0  0
   50.7830   31.9990   49.6560 N   0  0  0  0  0  0  0  0  0  0  0  0
   51.3170   32.1980   50.8910 C   0  0  0  0  0  0  0  0  0  0  0  0
   51.0240   33.3310   51.6410 O   0  0  0  0  0  0  0  0  0  0  0  0
   56.2090   29.7930   53.7280 C   0  0  0  0  0  0  0  0  0  0  0  0
   57.6680   29.7310   53.3190 C   0  0  0  0  0  0  0  0  0  0  0  0
   58.1450   30.3990   52.1720 C   0  0  0  0  0  0  0  0  0  0  0  0
   59.4620   30.3090   51.8500 N   0  0  0  0  0  0  0  0  0  0  0  0
   60.3400   29.6200   52.6220 C   0  0  0  0  0  0  0  0  0  0  0  0
   61.5530   29.5700   52.2880 O   0  0  0  0  0  0  0  0  0  0  0  0
   59.9090   28.9880   53.7480 N   0  0  0  0  0  0  0  0  0  0  0  0
   60.8110   28.2970   54.5280 O   0  0  0  0  0  0  0  0  0  0  0  0
   58.5970   29.0300   54.1090 C   0  0  0  0  0  0  0  0  0  0  0  0
   58.2160   28.4380   55.1570 O   0  0  0  0  0  0  0  0  0  0  0  0
   62.0792   32.6912   49.1617 H   0  0  0  0  0  0  0  0  0  0  0  0
   60.8720   31.8720   48.1137 H   0  0  0  0  0  0  0  0  0  0  0  0
   60.9921   33.6642   48.1137 H   0  0  0  0  0  0  0  0  0  0  0  0
   60.0992   32.8600   51.9212 H   0  0  0  0  0  0  0  0  0  0  0  0
   61.4770   33.6980   51.1299 H   0  0  0  0  0  0  0  0  0  0  0  0
   59.8469   34.4527   51.1299 H   0  0  0  0  0  0  0  0  0  0  0  0
   56.9202   30.4488   50.4386 H   0  0  0  0  0  0  0  0  0  0  0  0
   56.2378   32.3875   52.7184 H   0  0  0  0  0  0  0  0  0  0  0  0
   55.2252   32.0052   51.2897 H   0  0  0  0  0  0  0  0  0  0  0  0
   52.2471   30.9787   53.4548 H   0  0  0  0  0  0  0  0  0  0  0  0
   53.4127   32.1664   52.7708 H   0  0  0  0  0  0  0  0  0  0  0  0
   56.1270   30.3481   54.6741 H   0  0  0  0  0  0  0  0  0  0  0  0
   55.8404   28.7630   53.8428 H   0  0  0  0  0  0  0  0  0  0  0  0
  1  2  1  0
  2  3  1  0
  2  4  1  0
  4  5  2  0
  4  6  1  0
  6  7  1  0
  7  8  1  0
  8  9  1  0
  9 10  1  0
 10 11  2  0
 10 12  1  0
 12 13  1  0
 13 14  1  0
 14 15  1  0
 15 16  2  0
 15 17  1  0
 17 18  1  0
 18 19  1  0
  9 20  1  0
 20 21  1  0
 21 22  2  0
 22 23  1  0
 23 24  1  0
 24 25  2  0
 24 26  1  0
 26 27  1  0
 26 28  1  0
 28 29  2  0
 22  7  1  0
 18 13  2  0
 28 21  1  0
  1 30  1  0
  1 31  1  0
  1 32  1  0
  3 33  1  0
  3 34  1  0
  3 35  1  0
  7 36  1  6
  8 37  1  0
  8 38  1  0
 12 39  1  0
 12 40  1  0
 20 41  1  0
 20 42  1  0
M  CHG  4  17  -1  19  -1  23  -1  27  -1
M  END
>  <UniqueID>  (64) 
56

>  <SMILES>  (64) 
CN(C)C(=O)O[C@@H]1CN(C(=O)Cc2sc(=O)[n-]c2[O-])Cc2c1[n-]c(=O)n([O-])c2=O

>  <Energy>  (64) 
75.39778581697222

>  <Genealogy>  (64) 
CN(C)C(=O)OC1CN(C(=O)Cc2sc(=O)[n-]c2[O-])Cc2c1[n-]c(=O)n([O-])c2=O (protonated)
CN(C)C(=O)O[C@@H]1CN(C(=O)Cc2sc(=O)[n-]c2[O-])Cc2c1[n-]c(=O)n([O-])c2=O (chirality)
CN(C)C(=O)O[C@@H]1CN(C(=O)Cc2sc(=O)[n-]c2[O-])Cc2c1[n-]c(=O)n([O-])c2=O (3D coordinates assigned)
CN(C)C(=O)O[C@@H]1CN(C(=O)Cc2sc(=O)[n-]c2[O-])Cc2c1[n-]c(=O)n([O-])c2=O (nonaromatic ring conformer: 75.39778581697222 kcal/mol)

>  <smiles>  (64) 
CN(C)C(=O)OC1CN(C(=O)Cc2sc(=O)[nH]c2O)Cc2c1[nH]c(=O)n(O)c2=O

>  <score_type>  (64) 
oracle

>  <origin>  (64) 
adg

>  <m_score__min__energy>  (64) 
-15.1

>  <m_primary>  (64) 
energy

$$$$
64:0
     RDKit          3D

 41 43  0  0  0  0  0  0  0  0999 V2000
   55.1390   27.4900   45.5410 H   0  0  0  0  0  0  0  0  0  0  0  0
   54.9130   26.6130   45.9980 O   0  0  0  0  0  0  0  0  0  0  0  0
   55.9140   25.7150   46.3580 C   0  0  0  0  0  0  0  0  0  0  0  0
   55.5670   24.4760   46.7980 N   0  0  0  0  0  0  0  0  0  0  0  0
   56.5090   23.5530   47.1150 C   0  0  0  0  0  0  0  0  0  0  0  0
   56.1610   22.4150   47.5220 O   0  0  0  0  0  0  0  0  0  0  0  0
   57.8250   23.8540   46.9870 N   0  0  0  0  0  0  0  0  0  0  0  0
   58.2280   25.0770   46.5570 C   0  0  0  0  0  0  0  0  0  0  0  0
   59.4610   25.3170   46.4530 O   0  0  0  0  0  0  0  0  0  0  0  0
   57.2740   26.0630   46.2450 C   0  0  0  0  0  0  0  0  0  0  0  0
   57.7170   27.3950   45.7670 C   0  0  0  0  0  0  0  0  0  0  0  0
   57.7566   27.5812   44.6836 H   0  0  0  0  0  0  0  0  0  0  0  0
   58.0710   28.3810   46.6030 C   0  0  0  0  0  0  0  0  0  0  0  0
   58.4483   28.1118   47.6006 H   0  0  0  0  0  0  0  0  0  0  0  0
   57.9780   29.8220   46.2460 C   0  0  0  0  0  0  0  0  0  0  0  0
   58.2940   30.7330   47.1910 C   0  0  0  0  0  0  0  0  0  0  0  0
   58.1136   30.4604   48.2413 H   0  0  0  0  0  0  0  0  0  0  0  0
   58.8650   32.0710   46.9190 C   0  0  0  0  0  0  0  0  0  0  0  0
   58.0720   33.0170   46.6670 O   0  0  0  0  0  0  0  0  0  0  0  0
   60.3190   32.3450   46.9730 C   0  0  0  0  0  0  0  0  0  0  0  0
   60.8270   33.6120   46.6350 C   0  0  0  0  0  0  0  0  0  0  0  0
   60.1409   34.4067   46.3067 H   0  0  0  0  0  0  0  0  0  0  0  0
   62.1990   33.8670   46.7140 C   0  0  0  0  0  0  0  0  0  0  0  0
   62.5880   34.8637   46.4585 H   0  0  0  0  0  0  0  0  0  0  0  0
   63.0770   32.8580   47.1170 C   0  0  0  0  0  0  0  0  0  0  0  0
   64.1560   33.0615   47.1832 H   0  0  0  0  0  0  0  0  0  0  0  0
   62.5840   31.5900   47.4360 C   0  0  0  0  0  0  0  0  0  0  0  0
   63.2764   30.7943   47.7483 H   0  0  0  0  0  0  0  0  0  0  0  0
   61.2130   31.3310   47.3590 C   0  0  0  0  0  0  0  0  0  0  0  0
   60.8312   30.3283   47.6017 H   0  0  0  0  0  0  0  0  0  0  0  0
   57.5060   30.2310   44.8960 C   0  0  0  0  0  0  0  0  0  0  0  0
   58.3240   31.0280   44.0780 C   0  0  0  0  0  0  0  0  0  0  0  0
   59.3038   31.3656   44.4468 H   0  0  0  0  0  0  0  0  0  0  0  0
   57.8990   31.3940   42.7980 C   0  0  0  0  0  0  0  0  0  0  0  0
   58.5479   32.0111   42.1591 H   0  0  0  0  0  0  0  0  0  0  0  0
   56.6510   30.9770   42.3290 C   0  0  0  0  0  0  0  0  0  0  0  0
   56.3190   31.2648   41.3205 H   0  0  0  0  0  0  0  0  0  0  0  0
   55.8240   30.1950   43.1390 C   0  0  0  0  0  0  0  0  0  0  0  0
   54.8394   29.8731   42.7690 H   0  0  0  0  0  0  0  0  0  0  0  0
   56.2450   29.8200   44.4200 C   0  0  0  0  0  0  0  0  0  0  0  0
   55.4140   29.0280   45.2060 O   0  0  0  0  0  0  0  0  0  0  0  0
  1  2  1  0
  2  3  1  0
  3  4  1  0
  4  5  1  0
  5  6  2  0
  5  7  1  0
  7  8  1  0
  8  9  2  0
  8 10  1  0
 10 11  1  0
 11 12  1  0
 11 13  2  0
 13 14  1  0
 13 15  1  0
 15 16  2  3
 16 17  1  0
 16 18  1  0
 18 19  2  0
 18 20  1  0
 20 21  2  0
 21 22  1  0
 21 23  1  0
 23 24  1  0
 23 25  2  0
 25 26  1  0
 25 27  1  0
 27 28  1  0
 27 29  2  0
 29 30  1  0
 15 31  1  0
 31 32  2  0
 32 33  1  0
 32 34  1  0
 34 35  1  0
 34 36  2  0
 36 37  1  0
 36 38  1  0
 38 39  1  0
 38 40  2  0
 40 41  1  0
 10  3  2  0
 29 20  1  0
 40 31  1  0
M  CHG  3   4  -1   7  -1  41  -1
M  END
>  <UniqueID>  (65) 
57

>  <SMILES>  (65) 
O=C(C=C(/C=C/c1c(O)[n-]c(=O)[n-]c1=O)c1ccccc1[O-])c1ccccc1

>  <Energy>  (65) 
62.79792548488908

>  <Genealogy>  (65) 
O=C(C=C(C=Cc1c(O)[n-]c(=O)[n-]c1=O)c1ccccc1[O-])c1ccccc1 (protonated)
O=C(C=C(/C=C/c1c(O)[n-]c(=O)[n-]c1=O)c1ccccc1[O-])c1ccccc1 (cis-trans isomerization)
O=C(C=C(/C=C/c1c(O)[n-]c(=O)[n-]c1=O)c1ccccc1[O-])c1ccccc1 (3D coordinates assigned)
O=C(C=C(/C=C/c1c(O)[n-]c(=O)[n-]c1=O)c1ccccc1[O-])c1ccccc1 (optimized conformer: 62.79792548488908 kcal/mol)

>  <smiles>  (65) 
O=C(C=C(C=Cc1c(O)[nH]c(=O)[nH]c1=O)c1ccccc1O)c1ccccc1

>  <score_type>  (65) 
oracle

>  <origin>  (65) 
adg

>  <m_score__min__energy>  (65) 
-16.27

>  <m_primary>  (65) 
energy

$$$$
65:0
     RDKit          3D

 66 69  0  0  0  0  0  0  0  0999 V2000
   56.4901   25.7162   48.0980 H   0  0  0  0  0  0  0  0  0  0  0  0
   56.8540   25.6690   47.0610 C   0  0  0  0  0  0  0  0  0  0  0  0
   56.8930   26.7970   46.3030 N   0  0  0  0  0  0  0  0  0  0  0  0
   57.3390   26.7950   45.0170 C   0  0  0  0  0  0  0  0  0  0  0  0
   57.3400   27.9200   44.3620 N   0  0  0  0  0  0  0  0  0  0  0  0
   56.6870   29.4350   44.9100 S   0  0  0  0  0  0  0  0  0  0  0  0
   57.1890   29.6950   46.3020 O   0  0  0  0  0  0  0  0  0  0  0  0
   55.1880   29.3320   44.9400 O   0  0  0  0  0  0  0  0  0  0  0  0
   57.1500   30.7410   43.8030 C   0  0  0  0  0  0  0  0  0  0  0  0
   56.6770   30.6940   42.4810 C   0  0  0  0  0  0  0  0  0  0  0  0
   55.9929   29.8884   42.1761 H   0  0  0  0  0  0  0  0  0  0  0  0
   57.0660   31.6590   41.5500 C   0  0  0  0  0  0  0  0  0  0  0  0
   56.6902   31.6094   40.5174 H   0  0  0  0  0  0  0  0  0  0  0  0
   57.9300   32.6850   41.9280 C   0  0  0  0  0  0  0  0  0  0  0  0
   58.2450   33.4376   41.1902 H   0  0  0  0  0  0  0  0  0  0  0  0
   58.3960   32.7590   43.2410 C   0  0  0  0  0  0  0  0  0  0  0  0
   59.0760   33.5727   43.5333 H   0  0  0  0  0  0  0  0  0  0  0  0
   58.0040   31.8030   44.1930 C   0  0  0  0  0  0  0  0  0  0  0  0
   58.4940   31.9510   45.5790 C   0  0  0  0  0  0  0  0  0  0  0  0
   59.6240   31.2420   46.0120 C   0  0  0  0  0  0  0  0  0  0  0  0
   60.1566   30.5803   45.3131 H   0  0  0  0  0  0  0  0  0  0  0  0
   60.0760   31.3730   47.3280 C   0  0  0  0  0  0  0  0  0  0  0  0
   60.9688   30.8211   47.6572 H   0  0  0  0  0  0  0  0  0  0  0  0
   59.3970   32.2050   48.2320 C   0  0  0  0  0  0  0  0  0  0  0  0
   59.8760   32.3360   49.6560 C   0  0  0  0  0  0  0  0  0  0  0  0
   59.6649   33.3538   50.0159 H   0  0  0  0  0  0  0  0  0  0  0  0
   60.9576   32.1379   49.6853 H   0  0  0  0  0  0  0  0  0  0  0  0
   59.1940   31.3660   50.5240 N   0  0  0  0  0  0  0  0  0  0  0  0
   59.3430   30.0170   50.4860 C   0  0  0  0  0  0  0  0  0  0  0  0
   60.3190   29.2990   49.5880 C   0  0  0  0  0  0  0  0  0  0  0  0
   61.1746   28.9637   50.1926 H   0  0  0  0  0  0  0  0  0  0  0  0
   60.6320   30.0023   48.8022 H   0  0  0  0  0  0  0  0  0  0  0  0
   59.6920   28.0780   48.9010 C   0  0  0  0  0  0  0  0  0  0  0  0
   58.6187   28.0428   49.1391 H   0  0  0  0  0  0  0  0  0  0  0  0
   60.1973   27.1719   49.2665 H   0  0  0  0  0  0  0  0  0  0  0  0
   59.8660   28.1550   47.3800 C   0  0  0  0  0  0  0  0  0  0  0  0
   60.6325   28.9078   47.1439 H   0  0  0  0  0  0  0  0  0  0  0  0
   58.9004   28.4320   46.9318 H   0  0  0  0  0  0  0  0  0  0  0  0
   60.2970   26.8090   46.8070 C   0  0  0  0  0  0  0  0  0  0  0  0
   60.5195   26.1143   47.6303 H   0  0  0  0  0  0  0  0  0  0  0  0
   59.4858   26.3970   46.1887 H   0  0  0  0  0  0  0  0  0  0  0  0
   61.1966   26.9448   46.1887 H   0  0  0  0  0  0  0  0  0  0  0  0
   58.5960   29.3830   51.4160 N   0  0  0  0  0  0  0  0  0  0  0  0
   57.9350   30.3720   52.0450 C   0  0  0  0  0  0  0  0  0  0  0  0
   56.8220   30.0760   53.4200 S   0  0  0  0  0  0  0  0  0  0  0  0
   57.9260   30.8680   54.6290 C   0  0  0  0  0  0  0  0  0  0  0  0
   57.5884   30.6258   55.6475 H   0  0  0  0  0  0  0  0  0  0  0  0
   58.9522   30.4988   54.4854 H   0  0  0  0  0  0  0  0  0  0  0  0
   57.9051   31.9584   54.4854 H   0  0  0  0  0  0  0  0  0  0  0  0
   58.2980   31.5970   51.5130 C   0  0  0  0  0  0  0  0  0  0  0  0
   57.8080   32.9170   51.9750 C   0  0  0  0  0  0  0  0  0  0  0  0
   56.6250   33.0420   52.3830 O   0  0  0  0  0  0  0  0  0  0  0  0
   58.6450   34.0240   52.0030 O   0  0  0  0  0  0  0  0  0  0  0  0
   58.2630   32.9110   47.7970 C   0  0  0  0  0  0  0  0  0  0  0  0
   57.7282   33.5712   48.4957 H   0  0  0  0  0  0  0  0  0  0  0  0
   57.8110   32.7790   46.4820 C   0  0  0  0  0  0  0  0  0  0  0  0
   56.9156   33.3267   46.1531 H   0  0  0  0  0  0  0  0  0  0  0  0
   57.7750   25.5810   44.4460 C   0  0  0  0  0  0  0  0  0  0  0  0
   58.1524   25.5602   43.4130 H   0  0  0  0  0  0  0  0  0  0  0  0
   57.7250   24.4020   45.2010 C   0  0  0  0  0  0  0  0  0  0  0  0
   58.2180   23.1100   44.6180 C   0  0  0  0  0  0  0  0  0  0  0  0
   58.4821   22.4179   45.4312 H   0  0  0  0  0  0  0  0  0  0  0  0
   57.4275   22.6623   43.9977 H   0  0  0  0  0  0  0  0  0  0  0  0
   59.1058   23.3027   43.9977 H   0  0  0  0  0  0  0  0  0  0  0  0
   57.2750   24.4520   46.5250 C   0  0  0  0  0  0  0  0  0  0  0  0
   57.2534   23.5390   47.1381 H   0  0  0  0  0  0  0  0  0  0  0  0
  1  2  1  0
  2  3  1  0
  3  4  1  0
  4  5  2  0
  5  6  1  0
  6  7  2  0
  6  8  2  0
  6  9  1  0
  9 10  2  0
 10 11  1  0
 10 12  1  0
 12 13  1  0
 12 14  2  0
 14 15  1  0
 14 16  1  0
 16 17  1  0
 16 18  2  0
 18 19  1  0
 19 20  2  0
 20 21  1  0
 20 22  1  0
 22 23  1  0
 22 24  2  0
 24 25  1  0
 25 26  1  0
 25 27  1  0
 25 28  1  0
 28 29  1  0
 29 30  1  0
 30 31  1  0
 30 32  1  0
 30 33  1  0
 33 34  1  0
 33 35  1  0
 33 36  1  0
 36 37  1  0
 36 38  1  0
 36 39  1  0
 39 40  1  0
 39 41  1  0
 39 42  1  0
 29 43  2  0
 43 44  1  0
 44 45  1  0
 45 46  1  0
 46 47  1  0
 46 48  1  0
 46 49  1  0
 44 50  2  0
 50 51  1  0
 51 52  2  0
 51 53  1  0
 24 54  1  0
 54 55  1  0
 54 56  2  0
 56 57  1  0
  4 58  1  0
 58 59  1  0
 58 60  2  0
 60 61  1  0
 61 62  1  0
 61 63  1  0
 61 64  1  0
 60 65  1  0
 65 66  1  0
 65  2  2  0
 18  9  1  0
 56 19  1  0
 50 28  1  0
M  CHG  2   3  -1  53  -1
M  END
>  <UniqueID>  (66) 
58

>  <SMILES>  (66) 
CCCCc1nc(SC)c(C(=O)[O-])n1Cc1ccc(-c2ccccc2S(=O)(=O)/N=c2\cc(C)cc[n-]2)cc1

>  <Energy>  (66) 
104.32841665451585

>  <Genealogy>  (66) 
CCCCc1nc(SC)c(C(=O)[O-])n1Cc1ccc(-c2ccccc2S(=O)(=O)N=c2cc(C)cc[n-]2)cc1 (protonated)
CCCCc1nc(SC)c(C(=O)[O-])n1Cc1ccc(-c2ccccc2S(=O)(=O)/N=c2\cc(C)cc[n-]2)cc1 (cis-trans isomerization)
CCCCc1nc(SC)c(C(=O)[O-])n1Cc1ccc(-c2ccccc2S(=O)(=O)/N=c2\cc(C)cc[n-]2)cc1 (3D coordinates assigned)
CCCCc1nc(SC)c(C(=O)[O-])n1Cc1ccc(-c2ccccc2S(=O)(=O)/N=c2\cc(C)cc[n-]2)cc1 (optimized conformer: 104.32841665451585 kcal/mol)

>  <smiles>  (66) 
CCCCc1nc(SC)c(C(=O)O)n1Cc1ccc(-c2ccccc2S(=O)(=O)N=c2cc(C)cc[nH]2)cc1

>  <score_type>  (66) 
oracle

>  <origin>  (66) 
adg

>  <m_score__min__energy>  (66) 
-12.56

>  <m_primary>  (66) 
energy

$$$$
66:0
     RDKit          3D

 41 43  0  0  0  0  0  0  0  0999 V2000
   57.8210   25.8940   42.9280 O   0  0  0  0  0  0  0  0  0  0  0  0
   57.7260   26.3490   44.1030 C   0  0  0  0  0  0  0  0  0  0  0  0
   57.6230   25.3710   45.2440 C   0  0  0  0  0  0  0  0  0  0  0  0
   56.2030   24.9230   45.4110 C   0  0  0  0  0  0  0  0  0  0  0  0
   55.7790   23.6620   45.2040 N   0  0  0  0  0  0  0  0  0  0  0  0
   54.4480   23.7460   45.4210 C   0  0  0  0  0  0  0  0  0  0  0  0
   53.6830   22.7520   45.3250 O   0  0  0  0  0  0  0  0  0  0  0  0
   53.9990   24.9800   45.7410 N   0  0  0  0  0  0  0  0  0  0  0  0
   55.1250   25.7140   45.7260 C   0  0  0  0  0  0  0  0  0  0  0  0
   55.1620   27.0780   45.9890 O   0  0  0  0  0  0  0  0  0  0  0  0
   57.6930   27.7760   44.3160 N   0  0  0  0  0  0  0  0  0  0  0  0
   57.2900   28.6630   43.2120 C   0  0  0  0  0  0  0  0  0  0  0  0
   56.6090   29.9170   43.7680 C   0  0  0  0  0  0  0  0  0  0  0  0
   57.5090   30.6880   44.7700 C   0  0  0  0  0  0  0  0  0  0  0  0
   58.0590   32.0190   44.1950 C   0  0  0  0  0  0  0  0  0  0  0  0
   58.4830   33.0300   45.2390 C   0  0  0  0  0  0  0  0  0  0  0  0
   58.1550   32.8430   46.5930 C   0  0  0  0  0  0  0  0  0  0  0  0
   58.5380   33.7880   47.5490 C   0  0  0  0  0  0  0  0  0  0  0  0
   59.2670   34.9150   47.1670 C   0  0  0  0  0  0  0  0  0  0  0  0
   59.6140   35.1010   45.8270 C   0  0  0  0  0  0  0  0  0  0  0  0
   59.2300   34.1610   44.8660 C   0  0  0  0  0  0  0  0  0  0  0  0
   58.6230   29.8070   45.3870 C   0  0  0  0  0  0  0  0  0  0  0  0
   58.1590   28.3600   45.5860 C   0  0  0  0  0  0  0  0  0  0  0  0
   58.2577   24.4977   45.0331 H   0  0  0  0  0  0  0  0  0  0  0  0
   57.9573   25.8615   46.1701 H   0  0  0  0  0  0  0  0  0  0  0  0
   58.1808   28.9569   42.6374 H   0  0  0  0  0  0  0  0  0  0  0  0
   56.5840   28.1286   42.5594 H   0  0  0  0  0  0  0  0  0  0  0  0
   56.3618   30.5851   42.9298 H   0  0  0  0  0  0  0  0  0  0  0  0
   55.7068   29.5952   44.3087 H   0  0  0  0  0  0  0  0  0  0  0  0
   56.8445   30.9669   45.6010 H   0  0  0  0  0  0  0  0  0  0  0  0
   58.9324   31.7867   43.5679 H   0  0  0  0  0  0  0  0  0  0  0  0
   57.2337   32.4798   43.6324 H   0  0  0  0  0  0  0  0  0  0  0  0
   57.5941   31.9485   46.9017 H   0  0  0  0  0  0  0  0  0  0  0  0
   58.2643   33.6431   48.6045 H   0  0  0  0  0  0  0  0  0  0  0  0
   59.5683   35.6568   47.9213 H   0  0  0  0  0  0  0  0  0  0  0  0
   60.1904   35.9886   45.5272 H   0  0  0  0  0  0  0  0  0  0  0  0
   59.5136   34.3070   43.8133 H   0  0  0  0  0  0  0  0  0  0  0  0
   59.4943   29.8125   44.7155 H   0  0  0  0  0  0  0  0  0  0  0  0
   58.8810   30.2221   46.3725 H   0  0  0  0  0  0  0  0  0  0  0  0
   58.9989   27.7624   45.9701 H   0  0  0  0  0  0  0  0  0  0  0  0
   57.3237   28.3549   46.3017 H   0  0  0  0  0  0  0  0  0  0  0  0
  1  2  2  0
  2  3  1  0
  3  4  1  0
  4  5  1  0
  5  6  1  0
  6  7  2  0
  6  8  1  0
  8  9  1  0
  9 10  1  0
  2 11  1  0
 11 12  1  0
 12 13  1  0
 13 14  1  0
 14 15  1  0
 15 16  1  0
 16 17  2  0
 17 18  1  0
 18 19  2  0
 19 20  1  0
 20 21  2  0
 14 22  1  0
 22 23  1  0
  9  4  2  0
 23 11  1  0
 21 16  1  0
  3 24  1  0
  3 25  1  0
 12 26  1  0
 12 27  1  0
 13 28  1  0
 13 29  1  0
 14 30  1  0
 15 31  1  0
 15 32  1  0
 17 33  1  0
 18 34  1  0
 19 35  1  0
 20 36  1  0
 21 37  1  0
 22 38  1  0
 22 39  1  0
 23 40  1  0
 23 41  1  0
M  CHG  3   5  -1   8  -1  10  -1
M  END
>  <UniqueID>  (67) 
59

>  <SMILES>  (67) 
O=C(Cc1[n-]c(=O)[n-]c1[O-])N1CCC(Cc2ccccc2)CC1

>  <Energy>  (67) 
73.18665866688413

>  <Genealogy>  (67) 
O=C(Cc1[n-]c(=O)[n-]c1[O-])N1CCC(Cc2ccccc2)CC1 (protonated)
O=C(Cc1[n-]c(=O)[n-]c1[O-])N1CCC(Cc2ccccc2)CC1 (3D coordinates assigned)
O=C(Cc1[n-]c(=O)[n-]c1[O-])N1CCC(Cc2ccccc2)CC1 (nonaromatic ring conformer: 73.18665866688413 kcal/mol)

>  <smiles>  (67) 
O=C(Cc1[nH]c(=O)[nH]c1O)N1CCC(Cc2ccccc2)CC1

>  <score_type>  (67) 
oracle

>  <origin>  (67) 
adg

>  <m_score__min__energy>  (67) 
-15.25

>  <m_primary>  (67) 
energy

$$$$
67:0
     RDKit          3D

 54 57  0  0  0  0  0  0  0  0999 V2000
   60.4652   25.9952   46.5933 H   0  0  0  0  0  0  0  0  0  0  0  0
   59.4250   25.9810   46.2360 C   0  0  0  0  0  0  0  0  0  0  0  0
   58.6540   27.0940   46.3460 N   0  0  0  0  0  0  0  0  0  0  0  0
   57.3570   27.1250   45.9280 C   0  0  0  0  0  0  0  0  0  0  0  0
   56.6460   28.2110   46.0260 N   0  0  0  0  0  0  0  0  0  0  0  0
   56.3260   29.0840   44.9320 C   0  0  0  0  0  0  0  0  0  0  0  0
   55.2100   28.9680   44.3610 O   0  0  0  0  0  0  0  0  0  0  0  0
   57.2710   30.0600   44.4600 N   0  0  0  0  0  0  0  0  0  0  0  0
   58.6240   30.1180   45.0330 C   0  0  0  0  0  0  0  0  0  0  0  0
   59.3527   29.7507   44.2953 H   0  0  0  0  0  0  0  0  0  0  0  0
   58.6727   29.4886   45.9338 H   0  0  0  0  0  0  0  0  0  0  0  0
   58.9440   31.5400   45.3910 C   0  0  0  0  0  0  0  0  0  0  0  0
   59.5690   31.8700   46.5990 C   0  0  0  0  0  0  0  0  0  0  0  0
   59.8931   31.0693   47.2800 H   0  0  0  0  0  0  0  0  0  0  0  0
   59.7880   33.2170   46.9530 C   0  0  0  0  0  0  0  0  0  0  0  0
   60.4310   33.5460   48.2880 C   0  0  0  0  0  0  0  0  0  0  0  0
   60.6100   32.3830   49.0140 F   0  0  0  0  0  0  0  0  0  0  0  0
   61.6560   34.1560   48.0890 F   0  0  0  0  0  0  0  0  0  0  0  0
   59.6470   34.4070   49.0370 F   0  0  0  0  0  0  0  0  0  0  0  0
   59.4200   34.2360   46.0310 C   0  0  0  0  0  0  0  0  0  0  0  0
   59.6260   35.6990   46.3360 C   0  0  0  0  0  0  0  0  0  0  0  0
   59.6468   35.8470   47.4258 H   0  0  0  0  0  0  0  0  0  0  0  0
   60.5801   36.0332   45.9023 H   0  0  0  0  0  0  0  0  0  0  0  0
   58.8013   36.2836   45.9023 H   0  0  0  0  0  0  0  0  0  0  0  0
   58.7970   33.8870   44.8210 C   0  0  0  0  0  0  0  0  0  0  0  0
   58.5026   34.6762   44.1135 H   0  0  0  0  0  0  0  0  0  0  0  0
   58.5470   32.5480   44.5060 C   0  0  0  0  0  0  0  0  0  0  0  0
   57.8790   32.1510   43.2130 C   0  0  0  0  0  0  0  0  0  0  0  0
   58.6428   31.7847   42.5113 H   0  0  0  0  0  0  0  0  0  0  0  0
   57.3658   33.0315   42.7991 H   0  0  0  0  0  0  0  0  0  0  0  0
   56.8360   31.0400   43.4480 C   0  0  0  0  0  0  0  0  0  0  0  0
   56.6627   30.5127   42.4983 H   0  0  0  0  0  0  0  0  0  0  0  0
   55.9176   31.5179   43.8196 H   0  0  0  0  0  0  0  0  0  0  0  0
   56.7810   25.9680   45.3920 C   0  0  0  0  0  0  0  0  0  0  0  0
   55.7194   25.9627   45.1038 H   0  0  0  0  0  0  0  0  0  0  0  0
   57.5590   24.8190   45.2240 C   0  0  0  0  0  0  0  0  0  0  0  0
   56.9760   23.6910   44.6330 O   0  0  0  0  0  0  0  0  0  0  0  0
   56.8790   22.4310   45.2480 C   0  0  0  0  0  0  0  0  0  0  0  0
   56.5350   22.2970   46.6040 C   0  0  0  0  0  0  0  0  0  0  0  0
   56.3364   23.1927   47.2109 H   0  0  0  0  0  0  0  0  0  0  0  0
   56.4450   21.0330   47.1810 C   0  0  0  0  0  0  0  0  0  0  0  0
   56.1693   20.9239   48.2403 H   0  0  0  0  0  0  0  0  0  0  0  0
   56.7080   19.9070   46.4020 C   0  0  0  0  0  0  0  0  0  0  0  0
   56.6347   18.9039   46.8475 H   0  0  0  0  0  0  0  0  0  0  0  0
   57.0550   20.0430   45.0930 N   0  0  0  0  0  0  0  0  0  0  0  0
   57.2450   19.1780   44.5390 H   0  0  0  0  0  0  0  0  0  0  0  0
   57.1560   21.2710   44.5020 C   0  0  0  0  0  0  0  0  0  0  0  0
   57.5260   21.3810   43.0510 C   0  0  0  0  0  0  0  0  0  0  0  0
   58.5770   21.6935   42.9633 H   0  0  0  0  0  0  0  0  0  0  0  0
   57.3920   20.4042   42.5633 H   0  0  0  0  0  0  0  0  0  0  0  0
   56.8801   22.1260   42.5633 H   0  0  0  0  0  0  0  0  0  0  0  0
   58.8970   24.8180   45.6690 C   0  0  0  0  0  0  0  0  0  0  0  0
   59.7190   23.6360   45.5910 C   0  0  0  0  0  0  0  0  0  0  0  0
   60.3790   22.6880   45.5300 N   0  0  0  0  0  0  0  0  0  0  0  0
  1  2  1  0
  2  3  1  0
  3  4  1  0
  4  5  2  0
  5  6  1  0
  6  7  2  0
  6  8  1  0
  8  9  1  0
  9 10  1  0
  9 11  1  0
  9 12  1  0
 12 13  2  0
 13 14  1  0
 13 15  1  0
 15 16  1  0
 16 17  1  0
 16 18  1  0
 16 19  1  0
 15 20  2  0
 20 21  1  0
 21 22  1  0
 21 23  1  0
 21 24  1  0
 20 25  1  0
 25 26  1  0
 25 27  2  0
 27 28  1  0
 28 29  1  0
 28 30  1  0
 28 31  1  0
 31 32  1  0
 31 33  1  0
  4 34  1  0
 34 35  1  0
 34 36  2  0
 36 37  1  0
 37 38  1  0
 38 39  2  0
 39 40  1  0
 39 41  1  0
 41 42  1  0
 41 43  2  0
 43 44  1  0
 43 45  1  0
 45 46  1  0
 45 47  2  0
 47 48  1  0
 48 49  1  0
 48 50  1  0
 48 51  1  0
 36 52  1  0
 52 53  1  0
 53 54  3  0
 52  2  2  0
 31  8  1  0
 47 38  1  0
 27 12  1  0
M  CHG  2   3  -1  45   1
M  END
>  <UniqueID>  (68) 
60

>  <SMILES>  (68) 
Cc1cc2c(cc1C(F)(F)F)CN(C(=O)/N=c1/cc(Oc3ccc[nH+]c3C)c(C#N)c[n-]1)CC2

>  <Energy>  (68) 
75.06922350622074

>  <Genealogy>  (68) 
Cc1cc2c(cc1C(F)(F)F)CN(C(=O)N=c1cc(Oc3ccc[nH+]c3C)c(C#N)c[n-]1)CC2 (protonated)
Cc1cc2c(cc1C(F)(F)F)CN(C(=O)/N=c1/cc(Oc3ccc[nH+]c3C)c(C#N)c[n-]1)CC2 (cis-trans isomerization)
Cc1cc2c(cc1C(F)(F)F)CN(C(=O)/N=c1/cc(Oc3ccc[nH+]c3C)c(C#N)c[n-]1)CC2 (3D coordinates assigned)
Cc1cc2c(cc1C(F)(F)F)CN(C(=O)/N=c1/cc(Oc3ccc[nH+]c3C)c(C#N)c[n-]1)CC2 (nonaromatic ring conformer: 75.06922350622074 kcal/mol)

>  <smiles>  (68) 
Cc1cc2c(cc1C(F)(F)F)CN(C(=O)N=c1cc(Oc3cccnc3C)c(C#N)c[nH]1)CC2

>  <score_type>  (68) 
oracle

>  <origin>  (68) 
adg

>  <m_score__min__energy>  (68) 
-8.75

>  <m_primary>  (68) 
energy

$$$$
68:0
     RDKit          3D

 45 47  0  0  0  0  0  0  0  0999 V2000
   58.4690   23.1410   45.2600 C   0  0  0  0  0  0  0  0  0  0  0  0
   57.7410   22.9140   46.5040 N   0  0  0  0  0  0  0  0  0  0  0  0
   57.1580   24.4270   47.1290 S   0  0  0  0  0  0  0  0  0  0  0  0
   57.3660   24.4810   48.6180 O   0  0  0  0  0  0  0  0  0  0  0  0
   55.6850   24.5370   46.8520 O   0  0  0  0  0  0  0  0  0  0  0  0
   57.9910   25.7720   46.3520 C   0  0  0  0  0  0  0  0  0  0  0  0
   59.2960   26.1110   46.7310 C   0  0  0  0  0  0  0  0  0  0  0  0
   59.9550   27.1720   46.1050 C   0  0  0  0  0  0  0  0  0  0  0  0
   59.3140   27.8970   45.0960 C   0  0  0  0  0  0  0  0  0  0  0  0
   58.0120   27.5660   44.7030 C   0  0  0  0  0  0  0  0  0  0  0  0
   57.3930   28.3380   43.6650 N   0  0  0  0  0  0  0  0  0  0  0  0
   56.4770   29.7900   43.9120 S   0  0  0  0  0  0  0  0  0  0  0  0
   55.2460   29.4730   44.7150 O   0  0  0  0  0  0  0  0  0  0  0  0
   56.0840   30.3860   42.5900 O   0  0  0  0  0  0  0  0  0  0  0  0
   57.4600   30.9450   44.7930 C   0  0  0  0  0  0  0  0  0  0  0  0
   57.7490   32.1950   44.2350 C   0  0  0  0  0  0  0  0  0  0  0  0
   58.5210   33.1080   44.9560 C   0  0  0  0  0  0  0  0  0  0  0  0
   58.9930   32.7690   46.2290 C   0  0  0  0  0  0  0  0  0  0  0  0
   59.7620   33.6660   46.9850 C   0  0  0  0  0  0  0  0  0  0  0  0
   60.2200   33.3090   48.2610 C   0  0  0  0  0  0  0  0  0  0  0  0
   60.9880   34.2660   49.0030 N   0  0  0  0  0  0  0  0  0  0  0  0
   62.6790   34.1470   49.3670 S   0  0  0  0  0  0  0  0  0  0  0  0
   63.0300   32.5870   50.1460 C   0  0  0  0  0  0  0  0  0  0  0  0
   63.0460   35.2520   50.3160 O   0  0  0  0  0  0  0  0  0  0  0  0
   63.4890   34.3000   48.1100 O   0  0  0  0  0  0  0  0  0  0  0  0
   59.9080   32.0350   48.7760 C   0  0  0  0  0  0  0  0  0  0  0  0
   59.1420   31.1370   48.0260 C   0  0  0  0  0  0  0  0  0  0  0  0
   58.6810   31.4990   46.7570 C   0  0  0  0  0  0  0  0  0  0  0  0
   57.9280   30.6280   46.0310 N   0  0  0  0  0  0  0  0  0  0  0  0
   57.3530   26.4950   45.3340 C   0  0  0  0  0  0  0  0  0  0  0  0
   59.4960   23.4612   45.4894 H   0  0  0  0  0  0  0  0  0  0  0  0
   58.4972   22.2090   44.6764 H   0  0  0  0  0  0  0  0  0  0  0  0
   57.9625   23.9239   44.6764 H   0  0  0  0  0  0  0  0  0  0  0  0
   59.8031   25.5407   47.5232 H   0  0  0  0  0  0  0  0  0  0  0  0
   60.9792   27.4372   46.4063 H   0  0  0  0  0  0  0  0  0  0  0  0
   59.8363   28.7330   44.6078 H   0  0  0  0  0  0  0  0  0  0  0  0
   57.3708   32.4565   43.2357 H   0  0  0  0  0  0  0  0  0  0  0  0
   58.7577   34.0917   44.5243 H   0  0  0  0  0  0  0  0  0  0  0  0
   60.0074   34.6563   46.5739 H   0  0  0  0  0  0  0  0  0  0  0  0
   63.0027   32.7086   51.2389 H   0  0  0  0  0  0  0  0  0  0  0  0
   62.2760   31.8467   49.8404 H   0  0  0  0  0  0  0  0  0  0  0  0
   64.0284   32.2410   49.8404 H   0  0  0  0  0  0  0  0  0  0  0  0
   60.2691   31.7451   49.7738 H   0  0  0  0  0  0  0  0  0  0  0  0
   58.9020   30.1446   48.4352 H   0  0  0  0  0  0  0  0  0  0  0  0
   56.3321   26.2235   45.0272 H   0  0  0  0  0  0  0  0  0  0  0  0
  1  2  1  0
  2  3  1  0
  3  4  2  0
  3  5  2  0
  3  6  1  0
  6  7  2  0
  7  8  1  0
  8  9  2  0
  9 10  1  0
 10 11  1  0
 11 12  1  0
 12 13  2  0
 12 14  2  0
 12 15  1  0
 15 16  2  0
 16 17  1  0
 17 18  2  0
 18 19  1  0
 19 20  2  0
 20 21  1  0
 21 22  1  0
 22 23  1  0
 22 24  2  0
 22 25  2  0
 20 26  1  0
 26 27  2  0
 27 28  1  0
 28 29  2  0
 10 30  2  0
 30  6  1  0
 29 15  1  0
 28 18  1  0
  1 31  1  0
  1 32  1  0
  1 33  1  0
  7 34  1  0
  8 35  1  0
  9 36  1  0
 16 37  1  0
 17 38  1  0
 19 39  1  0
 23 40  1  0
 23 41  1  0
 23 42  1  0
 26 43  1  0
 27 44  1  0
 30 45  1  0
M  CHG  3   2  -1  11  -1  21  -1
M  END
>  <UniqueID>  (69) 
61

>  <SMILES>  (69) 
C[N-]S(=O)(=O)c1cccc([N-]S(=O)(=O)c2ccc3cc([N-]S(C)(=O)=O)ccc3n2)c1

>  <Energy>  (69) 
51.06907883974446

>  <Genealogy>  (69) 
C[N-]S(=O)(=O)c1cccc([N-]S(=O)(=O)c2ccc3cc([N-]S(C)(=O)=O)ccc3n2)c1 (protonated)
C[N-]S(=O)(=O)c1cccc([N-]S(=O)(=O)c2ccc3cc([N-]S(C)(=O)=O)ccc3n2)c1 (3D coordinates assigned)
C[N-]S(=O)(=O)c1cccc([N-]S(=O)(=O)c2ccc3cc([N-]S(C)(=O)=O)ccc3n2)c1 (optimized conformer: 51.06907883974446 kcal/mol)

>  <smiles>  (69) 
CNS(=O)(=O)c1cccc(NS(=O)(=O)c2ccc3cc(NS(C)(=O)=O)ccc3n2)c1

>  <score_type>  (69) 
oracle

>  <origin>  (69) 
adg

>  <m_score__min__energy>  (69) 
-13.359999999999999

>  <m_primary>  (69) 
energy

$$$$
69:0
     RDKit          3D

 41 42  0  0  0  0  0  0  0  0999 V2000
   57.3650   25.4770   47.8400 C   0  0  0  0  0  0  0  0  0  0  0  0
   57.8800   26.4630   47.0970 C   0  0  0  0  0  0  0  0  0  0  0  0
   58.4410   27.5520   47.6620 N   0  0  0  0  0  0  0  0  0  0  0  0
   58.6930   28.4320   46.6780 C   0  0  0  0  0  0  0  0  0  0  0  0
   59.3010   29.7800   46.9130 C   0  0  0  0  0  0  0  0  0  0  0  0
   58.3130   27.9080   45.4520 C   0  0  0  0  0  0  0  0  0  0  0  0
   58.4180   28.6210   44.1230 C   0  0  0  0  0  0  0  0  0  0  0  0
   57.0440   29.0470   43.5920 C   0  0  0  0  0  0  0  0  0  0  0  0
   56.2500   29.7860   44.6250 C   0  0  0  0  0  0  0  0  0  0  0  0
   55.1410   29.3340   45.0150 O   0  0  0  0  0  0  0  0  0  0  0  0
   56.7540   30.9530   45.1870 O   0  0  0  0  0  0  0  0  0  0  0  0
   57.8150   26.6250   45.7010 C   0  0  0  0  0  0  0  0  0  0  0  0
   57.3840   25.7680   44.7500 C   0  0  0  0  0  0  0  0  0  0  0  0
   56.2730   24.8180   44.8970 C   0  0  0  0  0  0  0  0  0  0  0  0
   56.4000   23.4950   44.6570 N   0  0  0  0  0  0  0  0  0  0  0  0
   55.2130   22.9570   45.0040 C   0  0  0  0  0  0  0  0  0  0  0  0
   54.9280   21.6030   44.8830 O   0  0  0  0  0  0  0  0  0  0  0  0
   54.3380   23.9080   45.4930 C   0  0  0  0  0  0  0  0  0  0  0  0
   52.9270   23.6950   45.9600 C   0  0  0  0  0  0  0  0  0  0  0  0
   51.9220   23.8040   44.8060 C   0  0  0  0  0  0  0  0  0  0  0  0
   50.4730   23.7260   45.2850 C   0  0  0  0  0  0  0  0  0  0  0  0
   55.0280   25.0950   45.4320 C   0  0  0  0  0  0  0  0  0  0  0  0
   54.5670   26.3370   45.8510 O   0  0  0  0  0  0  0  0  0  0  0  0
   56.9134   24.6000   47.3533 H   0  0  0  0  0  0  0  0  0  0  0  0
   57.3931   25.5432   48.9376 H   0  0  0  0  0  0  0  0  0  0  0  0
   58.6000   27.7110   48.6830 H   0  0  0  0  0  0  0  0  0  0  0  0
   59.3830   29.9617   47.9948 H   0  0  0  0  0  0  0  0  0  0  0  0
   60.3021   29.8150   46.4584 H   0  0  0  0  0  0  0  0  0  0  0  0
   58.6646   30.5536   46.4584 H   0  0  0  0  0  0  0  0  0  0  0  0
   59.0440   29.5168   44.2486 H   0  0  0  0  0  0  0  0  0  0  0  0
   58.8629   27.9246   43.3970 H   0  0  0  0  0  0  0  0  0  0  0  0
   57.1873   29.7007   42.7190 H   0  0  0  0  0  0  0  0  0  0  0  0
   56.4871   28.1382   43.3201 H   0  0  0  0  0  0  0  0  0  0  0  0
   57.9093   25.7826   43.7837 H   0  0  0  0  0  0  0  0  0  0  0  0
   52.8476   22.6934   46.4078 H   0  0  0  0  0  0  0  0  0  0  0  0
   52.6887   24.4773   46.6957 H   0  0  0  0  0  0  0  0  0  0  0  0
   52.0738   24.7664   44.2953 H   0  0  0  0  0  0  0  0  0  0  0  0
   52.0969   22.9555   44.1281 H   0  0  0  0  0  0  0  0  0  0  0  0
   50.4499   23.7248   46.3848 H   0  0  0  0  0  0  0  0  0  0  0  0
   49.9147   24.5954   44.9075 H   0  0  0  0  0  0  0  0  0  0  0  0
   50.0113   22.8017   44.9075 H   0  0  0  0  0  0  0  0  0  0  0  0
  1  2  2  0
  2  3  1  0
  3  4  1  0
  4  5  1  0
  4  6  2  0
  6  7  1  0
  7  8  1  0
  8  9  1  0
  9 10  2  0
  9 11  1  0
  6 12  1  0
 12 13  2  3
 13 14  1  0
 14 15  1  0
 15 16  1  0
 16 17  1  0
 16 18  2  0
 18 19  1  0
 19 20  1  0
 20 21  1  0
 18 22  1  0
 22 23  1  0
 12  2  1  0
 22 14  2  0
  1 24  1  0
  1 25  1  0
  3 26  1  0
  5 27  1  0
  5 28  1  0
  5 29  1  0
  7 30  1  0
  7 31  1  0
  8 32  1  0
  8 33  1  0
 13 34  1  0
 19 35  1  0
 19 36  1  0
 20 37  1  0
 20 38  1  0
 21 39  1  0
 21 40  1  0
 21 41  1  0
M  CHG  4  11  -1  15  -1  17  -1  23  -1
M  END
>  <UniqueID>  (70) 
62

>  <SMILES>  (70) 
C=c1[nH]c(C)c(CCC(=O)[O-])c1=Cc1[n-]c([O-])c(CCC)c1[O-]

>  <Energy>  (70) 
97.38582201383102

>  <Genealogy>  (70) 
C=c1[nH]c(C)c(CCC(=O)[O-])c1=Cc1[n-]c([O-])c(CCC)c1[O-] (protonated)
C=c1[nH]c(C)c(CCC(=O)[O-])c1=Cc1[n-]c([O-])c(CCC)c1[O-] (3D coordinates assigned)
C=c1[nH]c(C)c(CCC(=O)[O-])c1=Cc1[n-]c([O-])c(CCC)c1[O-] (optimized conformer: 97.38582201383102 kcal/mol)

>  <smiles>  (70) 
C=c1[nH]c(C)c(CCC(=O)O)c1=Cc1[nH]c(O)c(CCC)c1O

>  <score_type>  (70) 
oracle

>  <origin>  (70) 
adg

>  <m_score__min__energy>  (70) 
-16.420000000000002

>  <m_primary>  (70) 
energy

$$$$
70:0
     RDKit          3D

 59 62  0  0  0  0  0  0  0  0999 V2000
   58.0830   30.7330   51.2280 C   0  0  0  0  0  0  0  0  0  0  0  0
   58.1560   29.7330   50.2180 O   0  0  0  0  0  0  0  0  0  0  0  0
   59.3570   29.3570   49.6090 C   0  0  0  0  0  0  0  0  0  0  0  0
   60.4060   29.2460   50.3030 O   0  0  0  0  0  0  0  0  0  0  0  0
   59.4210   29.1310   48.1430 C   0  0  0  0  0  0  0  0  0  0  0  0
   60.1820   29.8990   47.3040 C   0  0  0  0  0  0  0  0  0  0  0  0
   60.8310   31.1520   47.7500 C   0  0  0  0  0  0  0  0  0  0  0  0
   62.1270   31.4730   47.3150 C   0  0  0  0  0  0  0  0  0  0  0  0
   62.7370   32.6530   47.7420 C   0  0  0  0  0  0  0  0  0  0  0  0
   62.0640   33.5160   48.6100 C   0  0  0  0  0  0  0  0  0  0  0  0
   60.7760   33.2080   49.0630 C   0  0  0  0  0  0  0  0  0  0  0  0
   60.1430   34.1070   49.9340 O   0  0  0  0  0  0  0  0  0  0  0  0
   59.6550   33.7650   51.2290 C   0  0  0  0  0  0  0  0  0  0  0  0
   60.1620   32.0150   48.6320 C   0  0  0  0  0  0  0  0  0  0  0  0
   60.2870   29.5650   45.8150 C   0  0  0  0  0  0  0  0  0  0  0  0
   59.5910   28.2320   45.4560 C   0  0  1  0  0  0  0  0  0  0  0  0
   60.3780   27.0340   46.0110 C   0  0  0  0  0  0  0  0  0  0  0  0
   59.7750   26.7830   47.4030 C   0  0  0  0  0  0  0  0  0  0  0  0
   58.7350   27.8960   47.5710 C   0  0  2  0  0  0  0  0  0  0  0  0
   58.3490   28.1960   46.2050 N   0  0  0  0  0  0  0  0  0  0  0  0
   57.0560   27.9340   45.6390 C   0  0  0  0  0  0  0  0  0  0  0  0
   56.2900   27.0930   46.1810 O   0  0  0  0  0  0  0  0  0  0  0  0
   56.6330   28.6350   44.4650 N   0  0  0  0  0  0  0  0  0  0  0  0
   56.1190   29.9990   44.4750 C   0  0  0  0  0  0  0  0  0  0  0  0
   57.2640   31.0070   44.4020 C   0  0  0  0  0  0  0  0  0  0  0  0
   57.3140   31.7670   45.6070 O   0  0  0  0  0  0  0  0  0  0  0  0
   58.0810   32.9280   45.7820 C   0  0  0  0  0  0  0  0  0  0  0  0
   58.8430   33.3910   44.7000 C   0  0  0  0  0  0  0  0  0  0  0  0
   59.6220   34.5450   44.8250 C   0  0  0  0  0  0  0  0  0  0  0  0
   59.6450   35.2470   46.0330 C   0  0  0  0  0  0  0  0  0  0  0  0
   58.8910   34.7940   47.1180 C   0  0  0  0  0  0  0  0  0  0  0  0
   58.1090   33.6400   46.9980 C   0  0  0  0  0  0  0  0  0  0  0  0
   58.1178   30.2566   52.2189 H   0  0  0  0  0  0  0  0  0  0  0  0
   58.9332   31.4231   51.1229 H   0  0  0  0  0  0  0  0  0  0  0  0
   57.1416   31.2923   51.1229 H   0  0  0  0  0  0  0  0  0  0  0  0
   62.6624   30.7928   46.6362 H   0  0  0  0  0  0  0  0  0  0  0  0
   63.7500   32.9042   47.3944 H   0  0  0  0  0  0  0  0  0  0  0  0
   62.5504   34.4456   48.9404 H   0  0  0  0  0  0  0  0  0  0  0  0
   60.3010   34.2177   51.9956 H   0  0  0  0  0  0  0  0  0  0  0  0
   58.6283   34.1422   51.3453 H   0  0  0  0  0  0  0  0  0  0  0  0
   59.6592   32.6712   51.3453 H   0  0  0  0  0  0  0  0  0  0  0  0
   59.1534   31.7588   48.9886 H   0  0  0  0  0  0  0  0  0  0  0  0
   59.8168   30.3749   45.2379 H   0  0  0  0  0  0  0  0  0  0  0  0
   61.3544   29.4608   45.5706 H   0  0  0  0  0  0  0  0  0  0  0  0
   59.4864   28.1748   44.3625 H   0  0  0  0  0  0  0  0  0  0  0  0
   60.2475   26.1520   45.3668 H   0  0  0  0  0  0  0  0  0  0  0  0
   61.4594   27.2303   46.0548 H   0  0  0  0  0  0  0  0  0  0  0  0
   59.2973   25.7932   47.4481 H   0  0  0  0  0  0  0  0  0  0  0  0
   60.5347   26.7939   48.1985 H   0  0  0  0  0  0  0  0  0  0  0  0
   57.8981   27.6139   48.2267 H   0  0  0  0  0  0  0  0  0  0  0  0
   55.4563   30.1417   43.6087 H   0  0  0  0  0  0  0  0  0  0  0  0
   55.5637   30.1612   45.4106 H   0  0  0  0  0  0  0  0  0  0  0  0
   58.2151   30.4707   44.2685 H   0  0  0  0  0  0  0  0  0  0  0  0
   57.0987   31.6844   43.5512 H   0  0  0  0  0  0  0  0  0  0  0  0
   58.8278   32.8426   43.7466 H   0  0  0  0  0  0  0  0  0  0  0  0
   60.2176   34.9009   43.9714 H   0  0  0  0  0  0  0  0  0  0  0  0
   60.2567   36.1561   46.1294 H   0  0  0  0  0  0  0  0  0  0  0  0
   58.9120   35.3459   48.0693 H   0  0  0  0  0  0  0  0  0  0  0  0
   57.5150   33.2878   47.8542 H   0  0  0  0  0  0  0  0  0  0  0  0
  1  2  1  0
  2  3  1  0
  3  4  2  0
  3  5  1  0
  5  6  2  0
  6  7  1  0
  7  8  2  0
  8  9  1  0
  9 10  2  0
 10 11  1  0
 11 12  1  0
 12 13  1  0
 11 14  2  0
  6 15  1  0
 15 16  1  0
 16 17  1  0
 17 18  1  0
 18 19  1  0
 19 20  1  0
 20 21  1  0
 21 22  2  0
 21 23  1  0
 23 24  1  0
 24 25  1  0
 25 26  1  0
 26 27  1  0
 27 28  2  0
 28 29  1  0
 29 30  2  0
 30 31  1  0
 31 32  2  0
 19  5  1  0
 32 27  1  0
 14  7  1  0
 20 16  1  0
  1 33  1  0
  1 34  1  0
  1 35  1  0
  8 36  1  0
  9 37  1  0
 10 38  1  0
 13 39  1  0
 13 40  1  0
 13 41  1  0
 14 42  1  0
 15 43  1  0
 15 44  1  0
 16 45  1  6
 17 46  1  0
 17 47  1  0
 18 48  1  0
 18 49  1  0
 19 50  1  1
 24 51  1  0
 24 52  1  0
 25 53  1  0
 25 54  1  0
 28 55  1  0
 29 56  1  0
 30 57  1  0
 31 58  1  0
 32 59  1  0
M  CHG  1  23  -1
M  END
>  <UniqueID>  (71) 
63

>  <SMILES>  (71) 
COC(=O)C1=C(c2cccc(OC)c2)C[C@H]2CC[C@@H]1N2C(=O)[N-]CCOc1ccccc1

>  <Energy>  (71) 
82.40733705206182

>  <Genealogy>  (71) 
COC(=O)C1=C(c2cccc(OC)c2)CC2CCC1N2C(=O)[N-]CCOc1ccccc1 (protonated)
COC(=O)C1=C(c2cccc(OC)c2)C[C@H]2CC[C@@H]1N2C(=O)[N-]CCOc1ccccc1 (chirality)
COC(=O)C1=C(c2cccc(OC)c2)C[C@H]2CC[C@@H]1N2C(=O)[N-]CCOc1ccccc1 (3D coordinates assigned)
COC(=O)C1=C(c2cccc(OC)c2)C[C@H]2CC[C@@H]1N2C(=O)[N-]CCOc1ccccc1 (nonaromatic ring conformer: 82.40733705206182 kcal/mol)

>  <smiles>  (71) 
COC(=O)C1=C(c2cccc(OC)c2)CC2CCC1N2C(=O)NCCOc1ccccc1

>  <score_type>  (71) 
oracle

>  <origin>  (71) 
adg

>  <m_score__min__energy>  (71) 
-10.699999999999999

>  <m_primary>  (71) 
energy

$$$$
71:0
     RDKit          3D

 43 45  0  0  0  0  0  0  0  0999 V2000
   59.3377   30.9585   44.4341 H   0  0  0  0  0  0  0  0  0  0  0  0
   58.9880   29.9390   44.6540 C   0  0  0  0  0  0  0  0  0  0  0  0
   58.7908   29.2358   43.8314 H   0  0  0  0  0  0  0  0  0  0  0  0
   58.8020   29.5530   45.9260 C   0  0  0  0  0  0  0  0  0  0  0  0
   58.3630   28.2970   46.3790 C   0  0  0  0  0  0  0  0  0  0  0  0
   57.8560   27.2420   45.7130 C   0  0  0  0  0  0  0  0  0  0  0  0
   57.9279   27.2598   44.6155 H   0  0  0  0  0  0  0  0  0  0  0  0
   57.2140   26.0670   46.3250 C   0  0  0  0  0  0  0  0  0  0  0  0
   57.8690   24.9680   46.7440 N   0  0  0  0  0  0  0  0  0  0  0  0
   56.8710   24.1240   47.0860 C   0  0  0  0  0  0  0  0  0  0  0  0
   57.0870   22.9720   47.5480 O   0  0  0  0  0  0  0  0  0  0  0  0
   55.6260   24.6050   46.8840 N   0  0  0  0  0  0  0  0  0  0  0  0
   55.8630   25.8300   46.3880 C   0  0  0  0  0  0  0  0  0  0  0  0
   54.8640   26.7110   45.9950 O   0  0  0  0  0  0  0  0  0  0  0  0
   58.5190   28.3060   47.7560 C   0  0  0  0  0  0  0  0  0  0  0  0
   58.3149   27.4722   48.4439 H   0  0  0  0  0  0  0  0  0  0  0  0
   58.9790   29.5600   48.0990 C   0  0  0  0  0  0  0  0  0  0  0  0
   59.2680   30.0140   49.4970 C   0  0  0  0  0  0  0  0  0  0  0  0
   58.8190   29.3087   50.2118 H   0  0  0  0  0  0  0  0  0  0  0  0
   60.3563   30.0511   49.6529 H   0  0  0  0  0  0  0  0  0  0  0  0
   58.8409   31.0157   49.6529 H   0  0  0  0  0  0  0  0  0  0  0  0
   59.1400   30.3200   46.9940 N   0  0  0  0  0  0  0  0  0  0  0  0
   59.6700   31.6550   46.9780 C   0  0  0  0  0  0  0  0  0  0  0  0
   58.8330   32.7410   46.6920 C   0  0  0  0  0  0  0  0  0  0  0  0
   57.7678   32.5706   46.4770 H   0  0  0  0  0  0  0  0  0  0  0  0
   59.3470   34.0400   46.6790 C   0  0  0  0  0  0  0  0  0  0  0  0
   58.6884   34.8887   46.4424 H   0  0  0  0  0  0  0  0  0  0  0  0
   60.6960   34.2630   46.9660 C   0  0  0  0  0  0  0  0  0  0  0  0
   61.0988   35.2863   46.9436 H   0  0  0  0  0  0  0  0  0  0  0  0
   61.5400   33.1860   47.2830 C   0  0  0  0  0  0  0  0  0  0  0  0
   62.9680   33.4280   47.5800 C   0  0  0  0  0  0  0  0  0  0  0  0
   63.7570   33.6600   46.6230 O   0  0  0  0  0  0  0  0  0  0  0  0
   63.4740   33.4130   48.9300 N   0  0  0  0  0  0  0  0  0  0  0  0
   62.6330   33.8640   50.0440 C   0  0  0  0  0  0  0  0  0  0  0  0
   63.1169   33.6045   50.9972 H   0  0  0  0  0  0  0  0  0  0  0  0
   62.5002   34.9544   49.9851 H   0  0  0  0  0  0  0  0  0  0  0  0
   61.6513   33.3713   49.9851 H   0  0  0  0  0  0  0  0  0  0  0  0
   64.8860   33.0960   49.1560 C   0  0  0  0  0  0  0  0  0  0  0  0
   65.0833   33.0517   50.2372 H   0  0  0  0  0  0  0  0  0  0  0  0
   65.1208   32.1228   48.7002 H   0  0  0  0  0  0  0  0  0  0  0  0
   65.5143   33.8754   48.7002 H   0  0  0  0  0  0  0  0  0  0  0  0
   61.0230   31.8810   47.2710 C   0  0  0  0  0  0  0  0  0  0  0  0
   61.6834   31.0298   47.4929 H   0  0  0  0  0  0  0  0  0  0  0  0
  1  2  1  0
  2  3  1  0
  2  4  2  0
  4  5  1  0
  5  6  2  0
  6  7  1  0
  6  8  1  0
  8  9  1  0
  9 10  1  0
 10 11  2  0
 10 12  1  0
 12 13  1  0
 13 14  1  0
  5 15  1  0
 15 16  1  0
 15 17  2  0
 17 18  1  0
 18 19  1  0
 18 20  1  0
 18 21  1  0
 17 22  1  0
 22 23  1  0
 23 24  2  0
 24 25  1  0
 24 26  1  0
 26 27  1  0
 26 28  2  0
 28 29  1  0
 28 30  1  0
 30 31  1  0
 31 32  2  0
 31 33  1  0
 33 34  1  0
 34 35  1  0
 34 36  1  0
 34 37  1  0
 33 38  1  0
 38 39  1  0
 38 40  1  0
 38 41  1  0
 30 42  2  0
 42 43  1  0
 22  4  1  0
 42 23  1  0
 13  8  2  0
M  CHG  3   9  -1  12  -1  14  -1
M  END
>  <UniqueID>  (72) 
64

>  <SMILES>  (72) 
C=c1/c(=C\c2[n-]c(=O)[n-]c2[O-])cc(C)n1-c1cccc(C(=O)N(C)C)c1

>  <Energy>  (72) 
122.87261982560324

>  <Genealogy>  (72) 
C=c1c(=Cc2[n-]c(=O)[n-]c2[O-])cc(C)n1-c1cccc(C(=O)N(C)C)c1 (protonated)
C=c1/c(=C\c2[n-]c(=O)[n-]c2[O-])cc(C)n1-c1cccc(C(=O)N(C)C)c1 (cis-trans isomerization)
C=c1/c(=C\c2[n-]c(=O)[n-]c2[O-])cc(C)n1-c1cccc(C(=O)N(C)C)c1 (3D coordinates assigned)
C=c1/c(=C\c2[n-]c(=O)[n-]c2[O-])cc(C)n1-c1cccc(C(=O)N(C)C)c1 (optimized conformer: 122.87261982560324 kcal/mol)

>  <smiles>  (72) 
C=c1c(=Cc2[nH]c(=O)[nH]c2O)cc(C)n1-c1cccc(C(=O)N(C)C)c1

>  <score_type>  (72) 
oracle

>  <origin>  (72) 
adg

>  <m_score__min__energy>  (72) 
-16.050000000000001

>  <m_primary>  (72) 
energy

$$$$
72:0
     RDKit          3D

 70 74  0  0  0  0  0  0  0  0999 V2000
   59.4710   31.0490   50.1380 O   0  0  0  0  0  0  0  0  0  0  0  0
   58.8910   32.1490   50.3340 C   0  0  0  0  0  0  0  0  0  0  0  0
   59.3530   33.3060   49.6290 N   0  0  0  0  0  0  0  0  0  0  0  0
   59.5710   33.4050   48.2140 C   0  0  0  0  0  0  0  0  0  0  0  0
   58.5000   33.3230   47.3100 C   0  0  0  0  0  0  0  0  0  0  0  0
   58.7210   33.4430   45.9340 C   0  0  0  0  0  0  0  0  0  0  0  0
   57.3960   33.1410   44.8160 S   0  0  0  0  0  0  0  0  0  0  0  0
   56.3920   34.2490   44.9440 O   0  0  0  0  0  0  0  0  0  0  0  0
   57.8910   33.0960   43.3970 O   0  0  0  0  0  0  0  0  0  0  0  0
   56.6460   31.6390   45.2400 N   0  0  0  0  0  0  0  0  0  0  0  0
   57.2950   30.3700   45.0930 C   0  0  0  0  0  0  0  0  0  0  0  0
   58.6930   30.3280   45.0260 C   0  0  0  0  0  0  0  0  0  0  0  0
   59.3620   29.1110   44.8730 C   0  0  0  0  0  0  0  0  0  0  0  0
   58.6360   27.9210   44.7900 C   0  0  0  0  0  0  0  0  0  0  0  0
   57.2430   27.9480   44.8730 C   0  0  0  0  0  0  0  0  0  0  0  0
   56.5680   29.1660   45.0350 C   0  0  0  0  0  0  0  0  0  0  0  0
   55.1860   29.1580   45.1720 O   0  0  0  0  0  0  0  0  0  0  0  0
   60.0130   33.6970   45.4600 C   0  0  0  0  0  0  0  0  0  0  0  0
   61.0800   33.8090   46.3530 C   0  0  0  0  0  0  0  0  0  0  0  0
   60.8700   33.6530   47.7290 C   0  0  0  0  0  0  0  0  0  0  0  0
   61.9910   33.7180   48.6230 N   0  0  0  0  0  0  0  0  0  0  0  0
   61.9360   34.5880   49.8020 C   0  0  0  0  0  0  0  0  0  0  0  0
   62.8730   34.0450   50.8820 C   0  0  0  0  0  0  0  0  0  0  0  0
   64.1710   33.8310   50.3560 O   0  0  0  0  0  0  0  0  0  0  0  0
   64.1330   32.8100   49.3750 C   0  0  0  0  0  0  0  0  0  0  0  0
   63.2990   33.2470   48.1680 C   0  0  0  0  0  0  0  0  0  0  0  0
   57.7530   32.2150   51.2060 N   0  0  0  0  0  0  0  0  0  0  0  0
   57.3220   31.0870   51.9670 C   0  0  0  0  0  0  0  0  0  0  0  0
   58.2350   30.0850   52.3180 C   0  0  0  0  0  0  0  0  0  0  0  0
   57.7980   28.9560   53.0150 C   0  0  0  0  0  0  0  0  0  0  0  0
   56.4510   28.8220   53.3620 C   0  0  0  0  0  0  0  0  0  0  0  0
   55.5290   29.8230   53.0170 C   0  0  0  0  0  0  0  0  0  0  0  0
   53.8250   29.6560   53.4480 S   0  0  0  0  0  0  0  0  0  0  0  0
   53.4200   30.8240   54.3030 O   0  0  0  0  0  0  0  0  0  0  0  0
   53.6600   28.4090   54.2690 O   0  0  0  0  0  0  0  0  0  0  0  0
   52.7760   29.5380   52.0500 N   0  0  0  0  0  0  0  0  0  0  0  0
   51.3450   29.5580   52.3980 C   0  0  0  0  0  0  0  0  0  0  0  0
   50.8070   30.9860   52.6370 C   0  0  0  0  0  0  0  0  0  0  0  0
   51.7280   31.9980   52.2730 O   0  0  0  0  0  0  0  0  0  0  0  0
   52.2250   31.7450   50.9800 C   0  0  0  0  0  0  0  0  0  0  0  0
   53.1320   30.5040   50.9870 C   0  0  0  0  0  0  0  0  0  0  0  0
   55.9750   30.9620   52.3270 C   0  0  0  0  0  0  0  0  0  0  0  0
   57.4790   33.1631   47.6868 H   0  0  0  0  0  0  0  0  0  0  0  0
   59.2700   31.2620   45.0945 H   0  0  0  0  0  0  0  0  0  0  0  0
   60.4604   29.0902   44.8179 H   0  0  0  0  0  0  0  0  0  0  0  0
   59.1614   26.9634   44.6594 H   0  0  0  0  0  0  0  0  0  0  0  0
   56.6724   27.0096   44.8110 H   0  0  0  0  0  0  0  0  0  0  0  0
   60.1883   33.8088   44.3798 H   0  0  0  0  0  0  0  0  0  0  0  0
   62.0908   34.0208   45.9742 H   0  0  0  0  0  0  0  0  0  0  0  0
   62.2495   35.6046   49.5222 H   0  0  0  0  0  0  0  0  0  0  0  0
   60.9069   34.6146   50.1897 H   0  0  0  0  0  0  0  0  0  0  0  0
   62.9325   34.7704   51.7068 H   0  0  0  0  0  0  0  0  0  0  0  0
   62.4758   33.0859   51.2459 H   0  0  0  0  0  0  0  0  0  0  0  0
   65.1586   32.5895   49.0440 H   0  0  0  0  0  0  0  0  0  0  0  0
   63.6722   31.9139   49.8162 H   0  0  0  0  0  0  0  0  0  0  0  0
   63.8177   34.0601   47.6391 H   0  0  0  0  0  0  0  0  0  0  0  0
   63.1646   32.3935   47.4872 H   0  0  0  0  0  0  0  0  0  0  0  0
   57.1860   33.0900   51.2730 H   0  0  0  0  0  0  0  0  0  0  0  0
   59.2957   30.1868   52.0450 H   0  0  0  0  0  0  0  0  0  0  0  0
   58.5163   28.1701   53.2915 H   0  0  0  0  0  0  0  0  0  0  0  0
   56.1118   27.9290   53.9074 H   0  0  0  0  0  0  0  0  0  0  0  0
   50.7766   29.1016   51.5742 H   0  0  0  0  0  0  0  0  0  0  0  0
   51.2246   28.9973   53.3367 H   0  0  0  0  0  0  0  0  0  0  0  0
   49.8902   31.1179   52.0436 H   0  0  0  0  0  0  0  0  0  0  0  0
   50.6194   31.0879   53.7161 H   0  0  0  0  0  0  0  0  0  0  0  0
   51.3817   31.5735   50.2948 H   0  0  0  0  0  0  0  0  0  0  0  0
   52.8121   32.6138   50.6475 H   0  0  0  0  0  0  0  0  0  0  0  0
   53.0466   30.0011   50.0124 H   0  0  0  0  0  0  0  0  0  0  0  0
   54.1591   30.8462   51.1817 H   0  0  0  0  0  0  0  0  0  0  0  0
   55.2628   31.7594   52.0683 H   0  0  0  0  0  0  0  0  0  0  0  0
  1  2  2  0
  2  3  1  0
  3  4  1  0
  4  5  2  0
  5  6  1  0
  6  7  1  0
  7  8  2  0
  7  9  2  0
  7 10  1  0
 10 11  1  0
 11 12  2  0
 12 13  1  0
 13 14  2  0
 14 15  1  0
 15 16  2  0
 16 17  1  0
  6 18  2  0
 18 19  1  0
 19 20  2  0
 20 21  1  0
 21 22  1  0
 22 23  1  0
 23 24  1  0
 24 25  1  0
 25 26  1  0
  2 27  1  0
 27 28  1  0
 28 29  2  0
 29 30  1  0
 30 31  2  0
 31 32  1  0
 32 33  1  0
 33 34  2  0
 33 35  2  0
 33 36  1  0
 36 37  1  0
 37 38  1  0
 38 39  1  0
 39 40  1  0
 40 41  1  0
 32 42  2  0
 20  4  1  0
 26 21  1  0
 42 28  1  0
 16 11  1  0
 41 36  1  0
  5 43  1  0
 12 44  1  0
 13 45  1  0
 14 46  1  0
 15 47  1  0
 18 48  1  0
 19 49  1  0
 22 50  1  0
 22 51  1  0
 23 52  1  0
 23 53  1  0
 25 54  1  0
 25 55  1  0
 26 56  1  0
 26 57  1  0
 27 58  1  0
 29 59  1  0
 30 60  1  0
 31 61  1  0
 37 62  1  0
 37 63  1  0
 38 64  1  0
 38 65  1  0
 40 66  1  0
 40 67  1  0
 41 68  1  0
 41 69  1  0
 42 70  1  0
M  CHG  3   3  -1  10  -1  17  -1
M  END
>  <UniqueID>  (73) 
65

>  <SMILES>  (73) 
O=C([N-]c1cc(S(=O)(=O)[N-]c2ccccc2[O-])ccc1N1CCOCC1)Nc1cccc(S(=O)(=O)N2CCOCC2)c1

>  <Energy>  (73) 
107.7155488642344

>  <Genealogy>  (73) 
O=C([N-]c1cc(S(=O)(=O)[N-]c2ccccc2[O-])ccc1N1CCOCC1)Nc1cccc(S(=O)(=O)N2CCOCC2)c1 (protonated)
O=C([N-]c1cc(S(=O)(=O)[N-]c2ccccc2[O-])ccc1N1CCOCC1)Nc1cccc(S(=O)(=O)N2CCOCC2)c1 (3D coordinates assigned)
O=C([N-]c1cc(S(=O)(=O)[N-]c2ccccc2[O-])ccc1N1CCOCC1)Nc1cccc(S(=O)(=O)N2CCOCC2)c1 (nonaromatic ring conformer: 107.7155488642344 kcal/mol)

>  <smiles>  (73) 
O=C(Nc1cccc(S(=O)(=O)N2CCOCC2)c1)Nc1cc(S(=O)(=O)Nc2ccccc2O)ccc1N1CCOCC1

>  <score_type>  (73) 
oracle

>  <origin>  (73) 
adg

>  <m_score__min__energy>  (73) 
-16.629999999999999

>  <m_primary>  (73) 
energy

$$$$
73:0
     RDKit          3D

 68 72  0  0  0  0  0  0  0  0999 V2000
   56.8350   29.8740   52.9140 N   0  0  0  0  0  0  0  0  0  0  0  0
   57.4750   30.8880   52.1390 C   0  0  0  0  0  0  0  0  0  0  0  0
   56.6860   31.6980   51.2570 N   0  0  0  0  0  0  0  0  0  0  0  0
   58.7650   31.0380   52.2460 N   0  0  0  0  0  0  0  0  0  0  0  0
   59.9050   29.7940   52.6500 S   0  0  0  0  0  0  0  0  0  0  0  0
   59.3170   28.9220   53.7230 O   0  0  0  0  0  0  0  0  0  0  0  0
   61.1670   30.4150   53.1840 O   0  0  0  0  0  0  0  0  0  0  0  0
   60.2300   28.8020   51.2330 C   0  0  0  0  0  0  0  0  0  0  0  0
   60.8530   27.5570   51.3940 C   0  0  0  0  0  0  0  0  0  0  0  0
   61.1300   26.7590   50.2810 C   0  0  0  0  0  0  0  0  0  0  0  0
   60.7730   27.1870   48.9970 C   0  0  0  0  0  0  0  0  0  0  0  0
   61.1040   26.3600   47.8730 N   0  0  0  0  0  0  0  0  0  0  0  0
   60.2980   26.1700   46.7040 C   0  0  0  0  0  0  0  0  0  0  0  0
   60.4280   25.0980   46.0520 O   0  0  0  0  0  0  0  0  0  0  0  0
   59.2670   27.1550   46.2920 C   0  0  0  0  0  0  0  0  0  0  0  0
   57.8970   26.8770   46.4480 C   0  0  0  0  0  0  0  0  0  0  0  0
   56.9350   27.7640   45.9570 C   0  0  0  0  0  0  0  0  0  0  0  0
   57.3250   28.9360   45.2960 C   0  0  0  0  0  0  0  0  0  0  0  0
   56.3150   29.8240   44.7050 C   0  0  0  0  0  0  0  0  0  0  0  0
   55.1620   29.3760   44.4740 O   0  0  0  0  0  0  0  0  0  0  0  0
   56.6100   31.1920   44.3970 N   0  0  0  0  0  0  0  0  0  0  0  0
   57.7940   31.9060   44.8740 C   0  0  0  0  0  0  0  0  0  0  0  0
   57.4640   32.7240   46.1000 C   0  0  0  0  0  0  0  0  0  0  0  0
   56.6410   33.6690   45.9800 O   0  0  0  0  0  0  0  0  0  0  0  0
   58.1180   32.5670   47.3730 N   0  0  0  0  0  0  0  0  0  0  0  0
   59.5180   32.7040   47.7940 C   0  0  2  0  0  0  0  0  0  0  0  0
   59.6460   32.8070   49.3390 C   0  0  0  0  0  0  0  0  0  0  0  0
   61.1380   32.8880   49.7330 C   0  0  1  0  0  0  0  0  0  0  0  0
   61.8690   31.6120   49.2610 C   0  0  0  0  0  0  0  0  0  0  0  0
   61.7550   31.4930   47.7260 C   0  0  2  0  0  0  0  0  0  0  0  0
   62.4070   32.7260   47.0650 C   0  0  0  0  0  0  0  0  0  0  0  0
   61.6780   34.0040   47.5300 C   0  0  2  0  0  0  0  0  0  0  0  0
   61.7810   34.1260   49.0670 C   0  0  0  0  0  0  0  0  0  0  0  0
   60.1940   33.9260   47.1170 C   0  0  0  0  0  0  0  0  0  0  0  0
   60.2650   31.4250   47.3270 C   0  0  0  0  0  0  0  0  0  0  0  0
   58.6870   29.2400   45.1750 C   0  0  0  0  0  0  0  0  0  0  0  0
   59.6510   28.3510   45.6590 C   0  0  0  0  0  0  0  0  0  0  0  0
   60.1520   28.4360   48.8340 C   0  0  0  0  0  0  0  0  0  0  0  0
   59.8800   29.2390   49.9480 C   0  0  0  0  0  0  0  0  0  0  0  0
   57.3740   29.3270   53.6210 H   0  0  0  0  0  0  0  0  0  0  0  0
   55.8100   29.7000   52.8170 H   0  0  0  0  0  0  0  0  0  0  0  0
   57.0940   32.4470   50.6610 H   0  0  0  0  0  0  0  0  0  0  0  0
   55.6500   31.5600   51.2110 H   0  0  0  0  0  0  0  0  0  0  0  0
   61.1250   27.2066   52.4006 H   0  0  0  0  0  0  0  0  0  0  0  0
   61.6314   25.7891   50.4146 H   0  0  0  0  0  0  0  0  0  0  0  0
   57.5809   25.9559   46.9595 H   0  0  0  0  0  0  0  0  0  0  0  0
   55.8662   27.5407   46.0902 H   0  0  0  0  0  0  0  0  0  0  0  0
   58.5784   31.1772   45.1262 H   0  0  0  0  0  0  0  0  0  0  0  0
   58.1437   32.5824   44.0802 H   0  0  0  0  0  0  0  0  0  0  0  0
   59.1255   33.7104   49.6897 H   0  0  0  0  0  0  0  0  0  0  0  0
   59.1943   31.9175   49.8024 H   0  0  0  0  0  0  0  0  0  0  0  0
   61.2221   32.9737   50.8264 H   0  0  0  0  0  0  0  0  0  0  0  0
   62.9297   31.6699   49.5467 H   0  0  0  0  0  0  0  0  0  0  0  0
   61.4104   30.7304   49.7327 H   0  0  0  0  0  0  0  0  0  0  0  0
   62.2690   30.5808   47.3887 H   0  0  0  0  0  0  0  0  0  0  0  0
   63.4662   32.7813   47.3566 H   0  0  0  0  0  0  0  0  0  0  0  0
   62.3322   32.6384   45.9711 H   0  0  0  0  0  0  0  0  0  0  0  0
   62.1434   34.8839   47.0619 H   0  0  0  0  0  0  0  0  0  0  0  0
   62.8398   34.1893   49.3585 H   0  0  0  0  0  0  0  0  0  0  0  0
   61.2520   35.0324   49.3964 H   0  0  0  0  0  0  0  0  0  0  0  0
   59.6798   34.8466   47.4303 H   0  0  0  0  0  0  0  0  0  0  0  0
   60.1286   33.8154   46.0245 H   0  0  0  0  0  0  0  0  0  0  0  0
   60.1867   31.3391   46.2332 H   0  0  0  0  0  0  0  0  0  0  0  0
   59.8070   30.5492   47.8099 H   0  0  0  0  0  0  0  0  0  0  0  0
   58.9988   30.1808   44.6978 H   0  0  0  0  0  0  0  0  0  0  0  0
   60.7188   28.5887   45.5439 H   0  0  0  0  0  0  0  0  0  0  0  0
   59.8783   28.7846   47.8273 H   0  0  0  0  0  0  0  0  0  0  0  0
   59.3905   30.2150   49.8146 H   0  0  0  0  0  0  0  0  0  0  0  0
  1  2  1  0
  2  3  1  0
  2  4  2  3
  4  5  1  0
  5  6  2  0
  5  7  2  0
  5  8  1  0
  8  9  2  0
  9 10  1  0
 10 11  2  0
 11 12  1  0
 12 13  1  0
 13 14  2  0
 13 15  1  0
 15 16  2  0
 16 17  1  0
 17 18  2  0
 18 19  1  0
 19 20  2  0
 19 21  1  0
 21 22  1  0
 22 23  1  0
 23 24  2  0
 23 25  1  0
 26 25  1  1
 26 27  1  0
 27 28  1  0
 28 29  1  0
 29 30  1  0
 30 31  1  0
 31 32  1  0
 32 33  1  0
 32 34  1  0
 30 35  1  0
 18 36  1  0
 36 37  2  0
 11 38  1  0
 38 39  2  0
 39  8  1  0
 37 15  1  0
 34 26  1  0
 35 26  1  0
 33 28  1  0
  1 40  1  0
  1 41  1  0
  3 42  1  0
  3 43  1  0
  9 44  1  0
 10 45  1  0
 16 46  1  0
 17 47  1  0
 22 48  1  0
 22 49  1  0
 27 50  1  0
 27 51  1  0
 28 52  1  1
 29 53  1  0
 29 54  1  0
 30 55  1  6
 31 56  1  0
 31 57  1  0
 32 58  1  6
 33 59  1  0
 33 60  1  0
 34 61  1  0
 34 62  1  0
 35 63  1  0
 35 64  1  0
 36 65  1  0
 37 66  1  0
 38 67  1  0
 39 68  1  0
M  CHG  3  12  -1  21  -1  25  -1
M  END
>  <UniqueID>  (74) 
66

>  <SMILES>  (74) 
NC(N)=NS(=O)(=O)c1ccc([N-]C(=O)c2ccc(C(=O)[N-]CC(=O)[N-]C34CC5CC(CC(C5)C3)C4)cc2)cc1

>  <Energy>  (74) 
83.25749426560658

>  <Genealogy>  (74) 
NC(N)=NS(=O)(=O)c1ccc([N-]C(=O)c2ccc(C(=O)[N-]CC(=O)[N-]C34CC5CC(CC(C5)C3)C4)cc2)cc1 (protonated)
NC(N)=NS(=O)(=O)c1ccc([N-]C(=O)c2ccc(C(=O)[N-]CC(=O)[N-]C34CC5CC(CC(C5)C3)C4)cc2)cc1 (3D coordinates assigned)
NC(N)=NS(=O)(=O)c1ccc([N-]C(=O)c2ccc(C(=O)[N-]CC(=O)[N-]C34CC5CC(CC(C5)C3)C4)cc2)cc1 (nonaromatic ring conformer: 83.25749426560658 kcal/mol)

>  <smiles>  (74) 
NC(N)=NS(=O)(=O)c1ccc(NC(=O)c2ccc(C(=O)NCC(=O)NC34CC5CC(CC(C5)C3)C4)cc2)cc1

>  <score_type>  (74) 
oracle

>  <origin>  (74) 
adg

>  <m_score__min__energy>  (74) 
-13.84

>  <m_primary>  (74) 
energy

$$$$
74:0
     RDKit          3D

 47 49  0  0  0  0  0  0  0  0999 V2000
   59.3150   26.9230   47.7330 C   0  0  0  0  0  0  0  0  0  0  0  0
   58.1190   27.3260   46.9240 C   0  0  0  0  0  0  0  0  0  0  0  0
   57.1310   26.4070   46.7500 N   0  0  0  0  0  0  0  0  0  0  0  0
   56.0300   26.6800   46.0090 C   0  0  0  0  0  0  0  0  0  0  0  0
   55.1370   25.8050   45.8660 O   0  0  0  0  0  0  0  0  0  0  0  0
   55.8940   27.8890   45.4160 N   0  0  0  0  0  0  0  0  0  0  0  0
   56.8420   28.8510   45.5560 C   0  0  0  0  0  0  0  0  0  0  0  0
   56.6830   29.9530   44.9690 O   0  0  0  0  0  0  0  0  0  0  0  0
   57.9890   28.6080   46.3370 C   0  0  0  0  0  0  0  0  0  0  0  0
   59.2500   29.8530   46.4790 S   0  0  0  0  0  0  0  0  0  0  0  0
   59.9320   30.0820   45.1600 O   0  0  0  0  0  0  0  0  0  0  0  0
   60.3010   29.4180   47.4610 O   0  0  0  0  0  0  0  0  0  0  0  0
   58.5140   31.3130   47.0580 N   0  0  0  0  0  0  0  0  0  0  0  0
   58.4720   32.5360   46.3160 C   0  0  0  0  0  0  0  0  0  0  0  0
   57.6090   32.6700   45.2190 C   0  0  0  0  0  0  0  0  0  0  0  0
   57.5600   33.8670   44.5010 C   0  0  0  0  0  0  0  0  0  0  0  0
   58.3810   34.9350   44.8670 C   0  0  0  0  0  0  0  0  0  0  0  0
   59.2550   34.8100   45.9490 C   0  0  0  0  0  0  0  0  0  0  0  0
   59.3110   33.6120   46.6830 C   0  0  0  0  0  0  0  0  0  0  0  0
   60.2210   33.4970   47.8490 C   0  0  0  0  0  0  0  0  0  0  0  0
   60.3420   34.4870   48.6250 O   0  0  0  0  0  0  0  0  0  0  0  0
   61.0700   32.3330   48.0200 N   0  0  0  0  0  0  0  0  0  0  0  0
   61.2700   31.9990   49.4560 C   0  0  0  0  0  0  0  0  0  0  0  0
   62.6010   32.5470   49.9960 C   0  0  0  0  0  0  0  0  0  0  0  0
   63.7580   31.9800   49.2640 N   0  0  0  0  0  0  0  0  0  0  0  0
   64.9300   32.8590   49.3990 C   0  0  0  0  0  0  0  0  0  0  0  0
   63.4710   31.6790   47.8400 C   0  0  0  0  0  0  0  0  0  0  0  0
   62.3390   32.5520   47.2830 C   0  0  0  0  0  0  0  0  0  0  0  0
   59.0772   27.0031   48.8040 H   0  0  0  0  0  0  0  0  0  0  0  0
   59.5859   25.8839   47.4943 H   0  0  0  0  0  0  0  0  0  0  0  0
   60.1595   27.5862   47.4943 H   0  0  0  0  0  0  0  0  0  0  0  0
   56.9669   31.8276   44.9222 H   0  0  0  0  0  0  0  0  0  0  0  0
   56.8743   33.9682   43.6469 H   0  0  0  0  0  0  0  0  0  0  0  0
   58.3394   35.8776   44.3016 H   0  0  0  0  0  0  0  0  0  0  0  0
   59.9033   35.6535   46.2286 H   0  0  0  0  0  0  0  0  0  0  0  0
   60.5980   31.5080   47.5820 H   0  0  0  0  0  0  0  0  0  0  0  0
   60.4447   32.4329   50.0396 H   0  0  0  0  0  0  0  0  0  0  0  0
   61.2913   30.9032   49.5497 H   0  0  0  0  0  0  0  0  0  0  0  0
   62.6087   33.6413   49.8844 H   0  0  0  0  0  0  0  0  0  0  0  0
   62.6882   32.2610   51.0546 H   0  0  0  0  0  0  0  0  0  0  0  0
   65.1460   33.0210   50.4654 H   0  0  0  0  0  0  0  0  0  0  0  0
   65.7991   32.3881   48.9163 H   0  0  0  0  0  0  0  0  0  0  0  0
   64.7213   33.8251   48.9163 H   0  0  0  0  0  0  0  0  0  0  0  0
   64.3812   31.8586   47.2490 H   0  0  0  0  0  0  0  0  0  0  0  0
   63.1529   30.6281   47.7731 H   0  0  0  0  0  0  0  0  0  0  0  0
   62.6264   33.6100   47.3728 H   0  0  0  0  0  0  0  0  0  0  0  0
   62.1781   32.2777   46.2300 H   0  0  0  0  0  0  0  0  0  0  0  0
  1  2  1  0
  2  3  1  0
  3  4  1  0
  4  5  2  0
  4  6  1  0
  6  7  1  0
  7  8  2  0
  7  9  1  0
  9 10  1  0
 10 11  2  0
 10 12  2  0
 10 13  1  0
 13 14  1  0
 14 15  2  0
 15 16  1  0
 16 17  2  0
 17 18  1  0
 18 19  2  0
 19 20  1  0
 20 21  2  0
 20 22  1  0
 22 23  1  0
 23 24  1  0
 24 25  1  0
 25 26  1  0
 25 27  1  0
 27 28  1  0
  9  2  2  0
 19 14  1  0
 28 22  1  0
  1 29  1  0
  1 30  1  0
  1 31  1  0
 15 32  1  0
 16 33  1  0
 17 34  1  0
 18 35  1  0
 22 36  1  0
 23 37  1  0
 23 38  1  0
 24 39  1  0
 24 40  1  0
 26 41  1  0
 26 42  1  0
 26 43  1  0
 27 44  1  0
 27 45  1  0
 28 46  1  0
 28 47  1  0
M  CHG  4   3  -1   6  -1  13  -1  22   1
M  END
>  <UniqueID>  (75) 
67

>  <SMILES>  (75) 
Cc1[n-]c(=O)[n-]c(=O)c1S(=O)(=O)[N-]c1ccccc1C(=O)[NH+]1CCN(C)CC1

>  <Energy>  (75) 
75.2485989506716

>  <Genealogy>  (75) 
Cc1[n-]c(=O)[n-]c(=O)c1S(=O)(=O)[N-]c1ccccc1C(=O)[NH+]1CCN(C)CC1 (protonated)
Cc1[n-]c(=O)[n-]c(=O)c1S(=O)(=O)[N-]c1ccccc1C(=O)[NH+]1CCN(C)CC1 (3D coordinates assigned)
Cc1[n-]c(=O)[n-]c(=O)c1S(=O)(=O)[N-]c1ccccc1C(=O)[NH+]1CCN(C)CC1 (nonaromatic ring conformer: 75.2485989506716 kcal/mol)

>  <smiles>  (75) 
Cc1[nH]c(=O)[nH]c(=O)c1S(=O)(=O)Nc1ccccc1C(=O)N1CCN(C)CC1

>  <score_type>  (75) 
oracle

>  <origin>  (75) 
adg

>  <m_score__min__energy>  (75) 
-11.81

>  <m_primary>  (75) 
energy

$$$$
75:0
     RDKit          3D

 32 33  0  0  0  0  0  0  0  0999 V2000
   54.9950   23.3030   45.5860 C   0  0  0  0  0  0  0  0  0  0  0  0
   55.7020   23.9000   46.7990 C   0  0  0  0  0  0  0  0  0  0  0  0
   56.4540   25.1530   46.4140 C   0  0  0  0  0  0  0  0  0  0  0  0
   55.7640   26.3080   46.0080 C   0  0  0  0  0  0  0  0  0  0  0  0
   54.3740   26.3380   45.9900 O   0  0  0  0  0  0  0  0  0  0  0  0
   56.4560   27.4090   45.6180 N   0  0  0  0  0  0  0  0  0  0  0  0
   57.8130   27.4200   45.6080 C   0  0  0  0  0  0  0  0  0  0  0  0
   58.6860   28.8780   45.0430 S   0  0  0  0  0  0  0  0  0  0  0  0
   57.4200   29.3610   43.8150 C   0  0  0  0  0  0  0  0  0  0  0  0
   56.3720   30.2330   44.4300 C   0  0  0  0  0  0  0  0  0  0  0  0
   55.3470   29.7070   44.9400 O   0  0  0  0  0  0  0  0  0  0  0  0
   56.5800   31.6540   44.4730 N   0  0  0  0  0  0  0  0  0  0  0  0
   57.3760   32.3410   45.2440 C   0  0  0  0  0  0  0  0  0  0  0  0
   57.8000   33.6520   44.9380 C   0  0  0  0  0  0  0  0  0  0  0  0
   58.6780   34.3090   45.8030 C   0  0  0  0  0  0  0  0  0  0  0  0
   59.1320   33.6680   46.9560 C   0  0  0  0  0  0  0  0  0  0  0  0
   58.7030   32.3690   47.2260 C   0  0  0  0  0  0  0  0  0  0  0  0
   57.8500   31.7430   46.3710 N   0  0  0  0  0  0  0  0  0  0  0  0
   58.5030   26.3180   45.9940 N   0  0  0  0  0  0  0  0  0  0  0  0
   57.8600   25.1880   46.3870 C   0  0  0  0  0  0  0  0  0  0  0  0
   58.5370   24.1780   46.7200 O   0  0  0  0  0  0  0  0  0  0  0  0
   54.1951   22.6275   45.9235 H   0  0  0  0  0  0  0  0  0  0  0  0
   54.5606   24.1117   44.9800 H   0  0  0  0  0  0  0  0  0  0  0  0
   55.7195   22.7393   44.9800 H   0  0  0  0  0  0  0  0  0  0  0  0
   54.9545   24.1487   47.5668 H   0  0  0  0  0  0  0  0  0  0  0  0
   56.4187   23.1627   47.1898 H   0  0  0  0  0  0  0  0  0  0  0  0
   57.9068   29.9095   42.9951 H   0  0  0  0  0  0  0  0  0  0  0  0
   56.9353   28.4482   43.4383 H   0  0  0  0  0  0  0  0  0  0  0  0
   57.4420   34.1521   44.0260 H   0  0  0  0  0  0  0  0  0  0  0  0
   59.0116   35.3321   45.5751 H   0  0  0  0  0  0  0  0  0  0  0  0
   59.8201   34.1812   47.6438 H   0  0  0  0  0  0  0  0  0  0  0  0
   59.0543   31.8505   48.1303 H   0  0  0  0  0  0  0  0  0  0  0  0
  1  2  1  0
  2  3  1  0
  3  4  2  0
  4  5  1  0
  4  6  1  0
  6  7  1  0
  7  8  1  0
  8  9  1  0
  9 10  1  0
 10 11  2  0
 10 12  1  0
 12 13  2  3
 13 14  1  0
 14 15  2  0
 15 16  1  0
 16 17  2  0
 17 18  1  0
  7 19  2  0
 19 20  1  0
 20 21  2  0
 20  3  1  0
 18 13  1  0
  1 22  1  0
  1 23  1  0
  1 24  1  0
  2 25  1  0
  2 26  1  0
  9 27  1  0
  9 28  1  0
 14 29  1  0
 15 30  1  0
 16 31  1  0
 17 32  1  0
M  CHG  3   5  -1   6  -1  18  -1
M  END
>  <UniqueID>  (76) 
68

>  <SMILES>  (76) 
CCc1c([O-])[n-]c(SCC(=O)N=c2cccc[n-]2)nc1=O

>  <Energy>  (76) 
32.30235939787756

>  <Genealogy>  (76) 
CCc1c([O-])[n-]c(SCC(=O)N=c2cccc[n-]2)nc1=O (protonated)
CCc1c([O-])[n-]c(SCC(=O)N=c2cccc[n-]2)nc1=O (3D coordinates assigned)
CCc1c([O-])[n-]c(SCC(=O)N=c2cccc[n-]2)nc1=O (optimized conformer: 32.30235939787756 kcal/mol)

>  <smiles>  (76) 
CCc1c(O)[nH]c(SCC(=O)N=c2cccc[nH]2)nc1=O

>  <score_type>  (76) 
oracle

>  <origin>  (76) 
adg

>  <m_score__min__energy>  (76) 
-14.33

>  <m_primary>  (76) 
energy

$$$$
76:0
     RDKit          3D

 41 43  0  0  0  0  0  0  0  0999 V2000
   59.6910   27.6120   47.3320 O   0  0  0  0  0  0  0  0  0  0  0  0
   58.6590   27.4660   46.6240 C   0  0  0  0  0  0  0  0  0  0  0  0
   58.5470   26.2540   45.7390 C   0  0  0  0  0  0  0  0  0  0  0  0
   57.6930   25.2090   46.3870 C   0  0  0  0  0  0  0  0  0  0  0  0
   58.1400   24.0050   46.7810 N   0  0  0  0  0  0  0  0  0  0  0  0
   57.0260   23.3920   47.2330 C   0  0  0  0  0  0  0  0  0  0  0  0
   57.0380   22.2230   47.7000 O   0  0  0  0  0  0  0  0  0  0  0  0
   55.8960   24.1270   47.1360 N   0  0  0  0  0  0  0  0  0  0  0  0
   56.3380   25.2750   46.5970 C   0  0  0  0  0  0  0  0  0  0  0  0
   55.5220   26.3600   46.2990 O   0  0  0  0  0  0  0  0  0  0  0  0
   57.5880   28.4120   46.7630 N   0  0  0  0  0  0  0  0  0  0  0  0
   57.4170   29.6040   45.9870 C   0  0  0  0  0  0  0  0  0  0  0  0
   58.2460   30.7210   46.1850 C   0  0  0  0  0  0  0  0  0  0  0  0
   58.0660   31.8830   45.4190 C   0  0  0  0  0  0  0  0  0  0  0  0
   59.1430   33.2670   45.6350 S   0  0  0  0  0  0  0  0  0  0  0  0
   58.4320   34.3270   46.4310 O   0  0  0  0  0  0  0  0  0  0  0  0
   59.4820   33.8460   44.2890 O   0  0  0  0  0  0  0  0  0  0  0  0
   60.6200   32.8160   46.4570 N   0  0  0  0  0  0  0  0  0  0  0  0
   61.6700   33.8260   46.2230 C   0  0  0  0  0  0  0  0  0  0  0  0
   62.7440   33.7700   47.3220 C   0  0  0  0  0  0  0  0  0  0  0  0
   62.2440   33.9870   48.6380 O   0  0  0  0  0  0  0  0  0  0  0  0
   60.8610   33.6990   48.7830 C   0  0  0  0  0  0  0  0  0  0  0  0
   60.3870   32.5400   47.8920 C   0  0  0  0  0  0  0  0  0  0  0  0
   57.0290   31.9340   44.4770 C   0  0  0  0  0  0  0  0  0  0  0  0
   56.1820   30.8380   44.3020 C   0  0  0  0  0  0  0  0  0  0  0  0
   56.3700   29.6760   45.0560 C   0  0  0  0  0  0  0  0  0  0  0  0
   55.5230   28.5880   44.8700 O   0  0  0  0  0  0  0  0  0  0  0  0
   58.0955   26.5467   44.7796 H   0  0  0  0  0  0  0  0  0  0  0  0
   59.5526   25.8397   45.5740 H   0  0  0  0  0  0  0  0  0  0  0  0
   55.9110   27.2920   46.2230 H   0  0  0  0  0  0  0  0  0  0  0  0
   59.0406   30.6845   46.9448 H   0  0  0  0  0  0  0  0  0  0  0  0
   62.1425   33.6343   45.2483 H   0  0  0  0  0  0  0  0  0  0  0  0
   61.2060   34.8233   46.2372 H   0  0  0  0  0  0  0  0  0  0  0  0
   63.2170   32.7774   47.2919 H   0  0  0  0  0  0  0  0  0  0  0  0
   63.4521   34.5857   47.1142 H   0  0  0  0  0  0  0  0  0  0  0  0
   60.6672   33.4345   49.8330 H   0  0  0  0  0  0  0  0  0  0  0  0
   60.3061   34.5970   48.4737 H   0  0  0  0  0  0  0  0  0  0  0  0
   60.9354   31.6286   48.1724 H   0  0  0  0  0  0  0  0  0  0  0  0
   59.3048   32.4142   48.0435 H   0  0  0  0  0  0  0  0  0  0  0  0
   56.8820   32.8416   43.8731 H   0  0  0  0  0  0  0  0  0  0  0  0
   55.3640   30.8890   43.5683 H   0  0  0  0  0  0  0  0  0  0  0  0
  1  2  2  0
  2  3  1  0
  3  4  1  0
  4  5  1  0
  5  6  1  0
  6  7  2  0
  6  8  1  0
  8  9  1  0
  9 10  1  0
  2 11  1  0
 11 12  1  0
 12 13  2  0
 13 14  1  0
 14 15  1  0
 15 16  2  0
 15 17  2  0
 15 18  1  0
 18 19  1  0
 19 20  1  0
 20 21  1  0
 21 22  1  0
 22 23  1  0
 14 24  2  0
 24 25  1  0
 25 26  2  0
 26 27  1  0
  9  4  2  0
 26 12  1  0
 23 18  1  0
  3 28  1  0
  3 29  1  0
 10 30  1  0
 13 31  1  0
 19 32  1  0
 19 33  1  0
 20 34  1  0
 20 35  1  0
 22 36  1  0
 22 37  1  0
 23 38  1  0
 23 39  1  0
 24 40  1  0
 25 41  1  0
M  CHG  4   5  -1   8  -1  11  -1  27  -1
M  END
>  <UniqueID>  (77) 
69

>  <SMILES>  (77) 
O=C(Cc1[n-]c(=O)[n-]c1O)[N-]c1cc(S(=O)(=O)N2CCOCC2)ccc1[O-]

>  <Energy>  (77) 
84.01679523510464

>  <Genealogy>  (77) 
O=C(Cc1[n-]c(=O)[n-]c1O)[N-]c1cc(S(=O)(=O)N2CCOCC2)ccc1[O-] (protonated)
O=C(Cc1[n-]c(=O)[n-]c1O)[N-]c1cc(S(=O)(=O)N2CCOCC2)ccc1[O-] (3D coordinates assigned)
O=C(Cc1[n-]c(=O)[n-]c1O)[N-]c1cc(S(=O)(=O)N2CCOCC2)ccc1[O-] (nonaromatic ring conformer: 84.01679523510464 kcal/mol)

>  <smiles>  (77) 
O=C(Cc1[nH]c(=O)[nH]c1O)Nc1cc(S(=O)(=O)N2CCOCC2)ccc1O

>  <score_type>  (77) 
oracle

>  <origin>  (77) 
adg

>  <m_score__min__energy>  (77) 
-15.81

>  <m_primary>  (77) 
energy

$$$$
77:0
     RDKit          3D

 33 35  0  0  0  0  0  0  0  0999 V2000
   54.9502   28.5743   55.1196 H   0  0  0  0  0  0  0  0  0  0  0  0
   54.3450   29.1800   54.4290 C   0  0  0  0  0  0  0  0  0  0  0  0
   53.2481   29.1767   54.5113 H   0  0  0  0  0  0  0  0  0  0  0  0
   54.9450   29.9230   53.4860 C   0  0  0  0  0  0  0  0  0  0  0  0
   54.3250   30.7470   52.5320 C   0  0  0  0  0  0  0  0  0  0  0  0
   53.0570   31.1870   52.4370 C   0  0  0  0  0  0  0  0  0  0  0  0
   52.5595   31.4942   53.3687 H   0  0  0  0  0  0  0  0  0  0  0  0
   52.2790   31.2920   51.1910 C   0  0  0  0  0  0  0  0  0  0  0  0
   52.2520   30.3580   50.2230 N   0  0  0  0  0  0  0  0  0  0  0  0
   51.3130   30.8220   49.3690 C   0  0  0  0  0  0  0  0  0  0  0  0
   51.0060   30.2190   48.3090 O   0  0  0  0  0  0  0  0  0  0  0  0
   50.7220   31.9750   49.7490 N   0  0  0  0  0  0  0  0  0  0  0  0
   51.3360   32.2500   50.9110 C   0  0  0  0  0  0  0  0  0  0  0  0
   51.0350   33.3510   51.7020 O   0  0  0  0  0  0  0  0  0  0  0  0
   55.3100   31.0890   51.6180 C   0  0  0  0  0  0  0  0  0  0  0  0
   55.1767   31.6836   50.7022 H   0  0  0  0  0  0  0  0  0  0  0  0
   56.4900   30.5400   52.0780 C   0  0  0  0  0  0  0  0  0  0  0  0
   57.8140   30.6560   51.3860 C   0  0  0  0  0  0  0  0  0  0  0  0
   58.6151   30.7262   52.1365 H   0  0  0  0  0  0  0  0  0  0  0  0
   57.9778   29.7688   50.7567 H   0  0  0  0  0  0  0  0  0  0  0  0
   57.8210   31.5582   50.7567 H   0  0  0  0  0  0  0  0  0  0  0  0
   56.2720   29.8400   53.2110 N   0  0  0  0  0  0  0  0  0  0  0  0
   57.2580   29.0700   53.9210 C   0  0  0  0  0  0  0  0  0  0  0  0
   57.2990   27.6790   53.7720 C   0  0  0  0  0  0  0  0  0  0  0  0
   56.5790   27.1753   53.1103 H   0  0  0  0  0  0  0  0  0  0  0  0
   58.2520   26.9320   54.4620 C   0  0  0  0  0  0  0  0  0  0  0  0
   58.2879   25.8383   54.3501 H   0  0  0  0  0  0  0  0  0  0  0  0
   59.1600   27.5850   55.2960 C   0  0  0  0  0  0  0  0  0  0  0  0
   59.9140   27.0038   55.8471 H   0  0  0  0  0  0  0  0  0  0  0  0
   59.1160   28.9390   55.4300 N   0  0  0  0  0  0  0  0  0  0  0  0
   59.8090   29.4080   56.0530 H   0  0  0  0  0  0  0  0  0  0  0  0
   58.1940   29.6930   54.7660 C   0  0  0  0  0  0  0  0  0  0  0  0
   58.2190   31.5980   54.9760 Br  0  0  0  0  0  0  0  0  0  0  0  0
  1  2  1  0
  2  3  1  0
  2  4  2  0
  4  5  1  0
  5  6  2  0
  6  7  1  0
  6  8  1  0
  8  9  1  0
  9 10  1  0
 10 11  2  0
 10 12  1  0
 12 13  1  0
 13 14  1  0
  5 15  1  0
 15 16  1  0
 15 17  2  0
 17 18  1  0
 18 19  1  0
 18 20  1  0
 18 21  1  0
 17 22  1  0
 22 23  1  0
 23 24  2  0
 24 25  1  0
 24 26  1  0
 26 27  1  0
 26 28  2  0
 28 29  1  0
 28 30  1  0
 30 31  1  0
 30 32  2  0
 32 33  1  0
 22  4  1  0
 32 23  1  0
 13  8  2  0
M  CHG  4   9  -1  12  -1  14  -1  30   1
M  END
>  <UniqueID>  (78) 
70

>  <SMILES>  (78) 
C=c1/c(=C\c2[n-]c(=O)[n-]c2[O-])cc(C)n1-c1ccc[nH+]c1Br

>  <Energy>  (78) 
110.39842430085677

>  <Genealogy>  (78) 
C=c1c(=Cc2[n-]c(=O)[n-]c2[O-])cc(C)n1-c1ccc[nH+]c1Br (protonated)
C=c1/c(=C\c2[n-]c(=O)[n-]c2[O-])cc(C)n1-c1ccc[nH+]c1Br (cis-trans isomerization)
C=c1/c(=C\c2[n-]c(=O)[n-]c2[O-])cc(C)n1-c1ccc[nH+]c1Br (3D coordinates assigned)
C=c1/c(=C\c2[n-]c(=O)[n-]c2[O-])cc(C)n1-c1ccc[nH+]c1Br (optimized conformer: 110.39842430085677 kcal/mol)

>  <smiles>  (78) 
C=c1c(=Cc2[nH]c(=O)[nH]c2O)cc(C)n1-c1cccnc1Br

>  <score_type>  (78) 
oracle

>  <origin>  (78) 
adg

>  <m_score__min__energy>  (78) 
-14.49

>  <m_primary>  (78) 
energy

$$$$
78:0
     RDKit          3D

 51 53  0  0  0  0  0  0  0  0999 V2000
   57.4430   32.2580   41.8050 C   0  0  0  0  0  0  0  0  0  0  0  0
   57.8460   32.0920   43.2410 C   0  0  0  0  0  0  0  0  0  0  0  0
   57.7850   33.1830   44.1230 C   0  0  0  0  0  0  0  0  0  0  0  0
   58.1530   33.0270   45.4680 C   0  0  0  0  0  0  0  0  0  0  0  0
   58.0700   34.1880   46.4150 C   0  0  0  0  0  0  0  0  0  0  0  0
   58.5350   31.7620   45.9410 C   0  0  0  0  0  0  0  0  0  0  0  0
   58.5500   30.6540   45.0740 C   0  0  0  0  0  0  0  0  0  0  0  0
   58.9310   29.3500   45.5370 N   0  0  0  0  0  0  0  0  0  0  0  0
   58.6650   28.8340   46.8490 C   0  0  0  0  0  0  0  0  0  0  0  0
   57.7400   27.9930   46.9960 O   0  0  0  0  0  0  0  0  0  0  0  0
   59.4240   29.3060   48.0250 C   0  0  0  0  0  0  0  0  0  0  0  0
   59.2110   28.7420   49.2910 C   0  0  0  0  0  0  0  0  0  0  0  0
   59.9960   29.1630   50.3700 C   0  0  0  0  0  0  0  0  0  0  0  0
   59.8100   28.3740   51.9740 S   0  0  0  0  0  0  0  0  0  0  0  0
   59.1340   29.8540   52.8140 C   0  0  0  0  0  0  0  0  0  0  0  0
   57.7420   30.1610   52.3530 C   0  0  0  0  0  0  0  0  0  0  0  0
   57.5600   30.5590   51.1700 O   0  0  0  0  0  0  0  0  0  0  0  0
   56.6430   30.0750   53.2750 N   0  0  0  0  0  0  0  0  0  0  0  0
   55.2910   30.4170   52.9300 C   0  0  0  0  0  0  0  0  0  0  0  0
   54.9940   30.8210   51.6210 C   0  0  0  0  0  0  0  0  0  0  0  0
   53.6880   31.1720   51.2680 C   0  0  0  0  0  0  0  0  0  0  0  0
   52.6550   31.1450   52.2240 C   0  0  0  0  0  0  0  0  0  0  0  0
   51.2730   31.5230   51.8470 C   0  0  0  0  0  0  0  0  0  0  0  0
   51.0270   32.3360   50.6980 N   0  0  0  0  0  0  0  0  0  0  0  0
   50.2960   31.1310   52.5380 O   0  0  0  0  0  0  0  0  0  0  0  0
   52.9610   30.7570   53.5400 C   0  0  0  0  0  0  0  0  0  0  0  0
   54.2670   30.4010   53.8910 C   0  0  0  0  0  0  0  0  0  0  0  0
   60.9410   30.1780   50.1880 C   0  0  0  0  0  0  0  0  0  0  0  0
   61.1030   30.7380   48.9210 C   0  0  0  0  0  0  0  0  0  0  0  0
   60.3580   30.2880   47.8780 N   0  0  0  0  0  0  0  0  0  0  0  0
   58.2230   30.8290   43.7240 C   0  0  0  0  0  0  0  0  0  0  0  0
   56.4269   32.6765   41.7553 H   0  0  0  0  0  0  0  0  0  0  0  0
   58.1454   32.9400   41.3035 H   0  0  0  0  0  0  0  0  0  0  0  0
   57.4613   31.2791   41.3035 H   0  0  0  0  0  0  0  0  0  0  0  0
   57.4473   34.1641   43.7579 H   0  0  0  0  0  0  0  0  0  0  0  0
   58.0964   33.8188   47.4509 H   0  0  0  0  0  0  0  0  0  0  0  0
   58.9222   34.8622   46.2442 H   0  0  0  0  0  0  0  0  0  0  0  0
   57.1305   34.7341   46.2442 H   0  0  0  0  0  0  0  0  0  0  0  0
   58.8241   31.6362   46.9948 H   0  0  0  0  0  0  0  0  0  0  0  0
   58.4345   27.9762   49.4344 H   0  0  0  0  0  0  0  0  0  0  0  0
   59.1192   29.6733   53.8990 H   0  0  0  0  0  0  0  0  0  0  0  0
   59.7757   30.7129   52.5679 H   0  0  0  0  0  0  0  0  0  0  0  0
   56.8650   29.9130   54.2830 H   0  0  0  0  0  0  0  0  0  0  0  0
   55.7938   30.8620   50.8669 H   0  0  0  0  0  0  0  0  0  0  0  0
   53.4652   31.4722   50.2335 H   0  0  0  0  0  0  0  0  0  0  0  0
   50.2530   32.1090   50.0360 H   0  0  0  0  0  0  0  0  0  0  0  0
   52.1663   30.7332   54.3002 H   0  0  0  0  0  0  0  0  0  0  0  0
   54.4937   30.1066   54.9263 H   0  0  0  0  0  0  0  0  0  0  0  0
   61.5492   30.5304   51.0341 H   0  0  0  0  0  0  0  0  0  0  0  0
   61.8346   31.5447   48.7662 H   0  0  0  0  0  0  0  0  0  0  0  0
   58.2618   29.9708   43.0370 H   0  0  0  0  0  0  0  0  0  0  0  0
  1  2  1  0
  2  3  2  0
  3  4  1  0
  4  5  1  0
  4  6  2  0
  6  7  1  0
  7  8  1  0
  8  9  1  0
  9 10  2  0
  9 11  1  0
 11 12  2  0
 12 13  1  0
 13 14  1  0
 14 15  1  0
 15 16  1  0
 16 17  2  0
 16 18  1  0
 18 19  1  0
 19 20  2  0
 20 21  1  0
 21 22  2  0
 22 23  1  0
 23 24  1  0
 23 25  2  0
 22 26  1  0
 26 27  2  0
 13 28  2  0
 28 29  1  0
 29 30  2  0
  7 31  2  0
 31  2  1  0
 30 11  1  0
 27 19  1  0
  1 32  1  0
  1 33  1  0
  1 34  1  0
  3 35  1  0
  5 36  1  0
  5 37  1  0
  5 38  1  0
  6 39  1  0
 12 40  1  0
 15 41  1  0
 15 42  1  0
 18 43  1  0
 20 44  1  0
 21 45  1  0
 24 46  1  0
 26 47  1  0
 27 48  1  0
 28 49  1  0
 29 50  1  0
 31 51  1  0
M  CHG  2   8  -1  24  -1
M  END
>  <UniqueID>  (79) 
71

>  <SMILES>  (79) 
Cc1cc(C)cc([N-]C(=O)c2cc(SCC(=O)Nc3ccc(C([NH-])=O)cc3)ccn2)c1

>  <Energy>  (79) 
54.75319173892039

>  <Genealogy>  (79) 
Cc1cc(C)cc([N-]C(=O)c2cc(SCC(=O)Nc3ccc(C([NH-])=O)cc3)ccn2)c1 (protonated)
Cc1cc(C)cc([N-]C(=O)c2cc(SCC(=O)Nc3ccc(C([NH-])=O)cc3)ccn2)c1 (3D coordinates assigned)
Cc1cc(C)cc([N-]C(=O)c2cc(SCC(=O)Nc3ccc(C([NH-])=O)cc3)ccn2)c1 (optimized conformer: 54.75319173892039 kcal/mol)

>  <smiles>  (79) 
Cc1cc(C)cc(NC(=O)c2cc(SCC(=O)Nc3ccc(C(N)=O)cc3)ccn2)c1

>  <score_type>  (79) 
oracle

>  <origin>  (79) 
adg

>  <m_score__min__energy>  (79) 
-13.119999999999999

>  <m_primary>  (79) 
energy

$$$$
79:0
     RDKit          3D

 67 70  0  0  0  0  0  0  0  0999 V2000
   59.6280   33.1240   50.3690 H   0  0  0  0  0  0  0  0  0  0  0  0
   60.5920   33.3010   50.6270 O   0  0  0  0  0  0  0  0  0  0  0  0
   61.6010   33.3710   49.6660 C   0  0  0  0  0  0  0  0  0  0  0  0
   62.9060   32.9700   49.9960 C   0  0  0  0  0  0  0  0  0  0  0  0
   63.1338   32.6286   51.0166 H   0  0  0  0  0  0  0  0  0  0  0  0
   63.9180   33.0040   49.0280 C   0  0  0  0  0  0  0  0  0  0  0  0
   64.9413   32.6990   49.2921 H   0  0  0  0  0  0  0  0  0  0  0  0
   63.6290   33.4250   47.7270 C   0  0  0  0  0  0  0  0  0  0  0  0
   64.4246   33.4471   46.9677 H   0  0  0  0  0  0  0  0  0  0  0  0
   62.3310   33.8180   47.3890 C   0  0  0  0  0  0  0  0  0  0  0  0
   62.1047   34.1270   46.3578 H   0  0  0  0  0  0  0  0  0  0  0  0
   61.3140   33.8210   48.3570 C   0  0  0  0  0  0  0  0  0  0  0  0
   60.0260   34.2300   47.9780 O   0  0  0  0  0  0  0  0  0  0  0  0
   59.1790   33.5030   47.1260 C   0  0  0  0  0  0  0  0  0  0  0  0
   58.5740   32.3080   47.5490 C   0  0  0  0  0  0  0  0  0  0  0  0
   58.7760   31.8530   48.8550 O   0  0  0  0  0  0  0  0  0  0  0  0
   59.5870   30.7270   49.1720 C   0  0  0  0  0  0  0  0  0  0  0  0
   60.4582   31.0567   49.7570 H   0  0  0  0  0  0  0  0  0  0  0  0
   59.9270   30.2488   48.2415 H   0  0  0  0  0  0  0  0  0  0  0  0
   58.7770   29.7250   49.9890 C   0  0  0  0  0  0  0  0  0  0  0  0
   59.4650   29.1085   50.5861 H   0  0  0  0  0  0  0  0  0  0  0  0
   58.1973   29.0968   49.2967 H   0  0  0  0  0  0  0  0  0  0  0  0
   57.8690   30.3920   50.8650 O   0  0  0  0  0  0  0  0  0  0  0  0
   58.2310   31.4320   51.7270 C   0  0  0  0  0  0  0  0  0  0  0  0
   59.0090   31.1990   52.8230 N   0  0  0  0  0  0  0  0  0  0  0  0
   59.3470   32.2060   53.6670 C   0  0  0  0  0  0  0  0  0  0  0  0
   59.9682   31.9998   54.5511 H   0  0  0  0  0  0  0  0  0  0  0  0
   58.9040   33.5050   53.4100 C   0  0  0  0  0  0  0  0  0  0  0  0
   59.3450   34.8570   54.5030 S   0  0  0  0  0  0  0  0  0  0  0  0
   59.2520   33.8320   56.0030 C   0  0  0  0  0  0  0  0  0  0  0  0
   59.3105   34.4771   56.8921 H   0  0  0  0  0  0  0  0  0  0  0  0
   58.3001   33.2807   56.0120 H   0  0  0  0  0  0  0  0  0  0  0  0
   60.0891   33.1184   56.0120 H   0  0  0  0  0  0  0  0  0  0  0  0
   58.1130   33.7290   52.2810 C   0  0  0  0  0  0  0  0  0  0  0  0
   57.7513   34.7425   52.0529 H   0  0  0  0  0  0  0  0  0  0  0  0
   57.7920   32.6920   51.4660 N   0  0  0  0  0  0  0  0  0  0  0  0
   57.7700   31.6160   46.6960 N   0  0  0  0  0  0  0  0  0  0  0  0
   57.4990   32.0390   45.4330 C   0  0  0  0  0  0  0  0  0  0  0  0
   56.7260   31.2930   44.6940 N   0  0  0  0  0  0  0  0  0  0  0  0
   56.8770   30.8970   43.3220 C   0  0  0  0  0  0  0  0  0  0  0  0
   57.3480   31.6830   42.4600 O   0  0  0  0  0  0  0  0  0  0  0  0
   56.6250   29.5000   42.9530 C   0  0  0  0  0  0  0  0  0  0  0  0
   55.7450   29.2752   42.3324 H   0  0  0  0  0  0  0  0  0  0  0  0
   57.4120   28.4820   43.3330 C   0  0  0  0  0  0  0  0  0  0  0  0
   57.4692   27.6009   42.6770 H   0  0  0  0  0  0  0  0  0  0  0  0
   58.2080   28.4720   44.5810 C   0  0  0  0  0  0  0  0  0  0  0  0
   59.5270   28.9600   44.5430 C   0  0  0  0  0  0  0  0  0  0  0  0
   59.9466   29.3313   43.5964 H   0  0  0  0  0  0  0  0  0  0  0  0
   60.3050   28.9750   45.7010 C   0  0  0  0  0  0  0  0  0  0  0  0
   61.3286   29.3766   45.6692 H   0  0  0  0  0  0  0  0  0  0  0  0
   59.7880   28.4820   46.8990 C   0  0  0  0  0  0  0  0  0  0  0  0
   60.4045   28.4980   47.8098 H   0  0  0  0  0  0  0  0  0  0  0  0
   58.4900   27.9680   46.9460 C   0  0  0  0  0  0  0  0  0  0  0  0
   58.0873   27.5867   47.8960 H   0  0  0  0  0  0  0  0  0  0  0  0
   57.6990   27.9350   45.7930 C   0  0  0  0  0  0  0  0  0  0  0  0
   56.4110   27.3960   45.8870 O   0  0  0  0  0  0  0  0  0  0  0  0
   56.1440   25.9930   45.9650 C   0  0  0  0  0  0  0  0  0  0  0  0
   56.6496   25.4900   45.1275 H   0  0  0  0  0  0  0  0  0  0  0  0
   56.6300   25.4680   47.1560 F   0  0  0  0  0  0  0  0  0  0  0  0
   54.7830   25.7780   45.8850 F   0  0  0  0  0  0  0  0  0  0  0  0
   58.0290   33.2700   44.9990 C   0  0  0  0  0  0  0  0  0  0  0  0
   57.7733   33.6626   44.0038 H   0  0  0  0  0  0  0  0  0  0  0  0
   58.8860   33.9930   45.8450 C   0  0  0  0  0  0  0  0  0  0  0  0
   59.4460   35.3150   45.3910 C   0  0  0  0  0  0  0  0  0  0  0  0
   59.7043   35.9248   46.2693 H   0  0  0  0  0  0  0  0  0  0  0  0
   60.3484   35.1426   44.7860 H   0  0  0  0  0  0  0  0  0  0  0  0
   58.6944   35.8433   44.7860 H   0  0  0  0  0  0  0  0  0  0  0  0
  1  2  1  0
  2  3  1  0
  3  4  2  0
  4  5  1  0
  4  6  1  0
  6  7  1  0
  6  8  2  0
  8  9  1  0
  8 10  1  0
 10 11  1  0
 10 12  2  0
 12 13  1  0
 13 14  1  0
 14 15  2  0
 15 16  1  0
 16 17  1  0
 17 18  1  0
 17 19  1  0
 17 20  1  0
 20 21  1  0
 20 22  1  0
 20 23  1  0
 23 24  1  0
 24 25  2  0
 25 26  1  0
 26 27  1  0
 26 28  2  0
 28 29  1  0
 29 30  1  0
 30 31  1  0
 30 32  1  0
 30 33  1  0
 28 34  1  0
 34 35  1  0
 34 36  2  0
 15 37  1  0
 37 38  1  0
 38 39  2  3
 39 40  1  0
 40 41  2  0
 40 42  1  0
 42 43  1  0
 42 44  2  0
 44 45  1  0
 44 46  1  0
 46 47  2  0
 47 48  1  0
 47 49  1  0
 49 50  1  0
 49 51  2  0
 51 52  1  0
 51 53  1  0
 53 54  1  0
 53 55  2  0
 55 56  1  0
 56 57  1  0
 57 58  1  0
 57 59  1  0
 57 60  1  0
 38 61  1  0
 61 62  1  0
 61 63  2  0
 63 64  1  0
 64 65  1  0
 64 66  1  0
 64 67  1  0
 12  3  1  0
 63 14  1  0
 36 24  1  0
 55 46  1  0
M  CHG  1  37  -1
M  END
>  <UniqueID>  (80) 
72

>  <SMILES>  (80) 
CSc1cnc(OCCOc2[n-]c(=NC(=O)/C=C\c3ccccc3OC(F)F)cc(C)c2Oc2ccccc2O)nc1

>  <Energy>  (80) 
93.69167309363301

>  <Genealogy>  (80) 
CSc1cnc(OCCOc2[n-]c(=NC(=O)C=Cc3ccccc3OC(F)F)cc(C)c2Oc2ccccc2O)nc1 (protonated)
CSc1cnc(OCCOc2[n-]c(=NC(=O)/C=C\c3ccccc3OC(F)F)cc(C)c2Oc2ccccc2O)nc1 (cis-trans isomerization)
CSc1cnc(OCCOc2[n-]c(=NC(=O)/C=C\c3ccccc3OC(F)F)cc(C)c2Oc2ccccc2O)nc1 (3D coordinates assigned)
CSc1cnc(OCCOc2[n-]c(=NC(=O)/C=C\c3ccccc3OC(F)F)cc(C)c2Oc2ccccc2O)nc1 (optimized conformer: 93.69167309363301 kcal/mol)

>  <smiles>  (80) 
CSc1cnc(OCCOc2[nH]c(=NC(=O)C=Cc3ccccc3OC(F)F)cc(C)c2Oc2ccccc2O)nc1

>  <score_type>  (80) 
oracle

>  <origin>  (80) 
adg

>  <m_score__min__energy>  (80) 
-10.460000000000001

>  <m_primary>  (80) 
energy

$$$$
80:0
     RDKit          3D

 60 64  0  0  0  0  0  0  0  0999 V2000
   54.7740   25.9820   45.6500 N   0  0  0  0  0  0  0  0  0  0  0  0
   54.7400   24.2760   45.9240 S   0  0  0  0  0  0  0  0  0  0  0  0
   54.8210   24.0010   47.4000 O   0  0  0  0  0  0  0  0  0  0  0  0
   53.4400   23.7230   45.4130 O   0  0  0  0  0  0  0  0  0  0  0  0
   56.0940   23.5050   45.0820 C   0  0  0  0  0  0  0  0  0  0  0  0
   55.8560   22.3140   44.3800 C   0  0  0  0  0  0  0  0  0  0  0  0
   56.9020   21.6450   43.7380 C   0  0  0  0  0  0  0  0  0  0  0  0
   58.1970   22.1570   43.7920 C   0  0  0  0  0  0  0  0  0  0  0  0
   58.4510   23.3470   44.4750 C   0  0  0  0  0  0  0  0  0  0  0  0
   57.4070   24.0390   45.1140 C   0  0  0  0  0  0  0  0  0  0  0  0
   57.7240   25.3110   45.7940 C   0  0  0  0  0  0  0  0  0  0  0  0
   58.1210   25.3110   47.1390 C   0  0  0  0  0  0  0  0  0  0  0  0
   58.4290   26.5120   47.7840 C   0  0  0  0  0  0  0  0  0  0  0  0
   58.3410   27.7310   47.0900 C   0  0  0  0  0  0  0  0  0  0  0  0
   58.6650   28.9850   47.7060 N   0  0  0  0  0  0  0  0  0  0  0  0
   59.1840   30.1510   47.0560 C   0  0  0  0  0  0  0  0  0  0  0  0
   60.2130   30.0840   46.3310 O   0  0  0  0  0  0  0  0  0  0  0  0
   58.5540   31.4810   47.3240 C   0  0  0  0  0  0  0  0  0  0  0  0
   58.5210   32.2760   46.0920 N   0  0  0  0  0  0  0  0  0  0  0  0
   59.0670   33.5070   45.8800 C   0  0  0  0  0  0  0  0  0  0  0  0
   59.7140   34.3710   46.9280 C   0  0  0  0  0  0  0  0  0  0  0  0
   61.0600   33.8140   47.3120 C   0  0  0  0  0  0  0  0  0  0  0  0
   61.2430   33.2280   48.5780 C   0  0  0  0  0  0  0  0  0  0  0  0
   62.4820   32.6850   48.9310 C   0  0  0  0  0  0  0  0  0  0  0  0
   63.5460   32.7200   48.0250 C   0  0  0  0  0  0  0  0  0  0  0  0
   63.3730   33.3000   46.7660 C   0  0  0  0  0  0  0  0  0  0  0  0
   62.1350   33.8460   46.4080 C   0  0  0  0  0  0  0  0  0  0  0  0
   58.8970   33.8960   44.5520 C   0  0  0  0  0  0  0  0  0  0  0  0
   58.2460   32.8480   43.9460 C   0  0  0  0  0  0  0  0  0  0  0  0
   57.8400   32.6870   42.6230 C   0  0  0  0  0  0  0  0  0  0  0  0
   57.2020   31.4840   42.2730 C   0  0  0  0  0  0  0  0  0  0  0  0
   56.9880   30.4770   43.2400 C   0  0  0  0  0  0  0  0  0  0  0  0
   56.3560   29.2930   42.8670 O   0  0  0  0  0  0  0  0  0  0  0  0
   57.4110   30.6710   44.5710 C   0  0  0  0  0  0  0  0  0  0  0  0
   58.0370   31.8790   44.8950 C   0  0  0  0  0  0  0  0  0  0  0  0
   57.9840   27.7240   45.7360 C   0  0  0  0  0  0  0  0  0  0  0  0
   57.6750   26.5230   45.0900 C   0  0  0  0  0  0  0  0  0  0  0  0
   53.8020   26.3340   45.8040 H   0  0  0  0  0  0  0  0  0  0  0  0
   54.8368   21.9028   44.3343 H   0  0  0  0  0  0  0  0  0  0  0  0
   56.7026   20.7128   43.1892 H   0  0  0  0  0  0  0  0  0  0  0  0
   59.0201   21.6223   43.2955 H   0  0  0  0  0  0  0  0  0  0  0  0
   59.4751   23.7465   44.5138 H   0  0  0  0  0  0  0  0  0  0  0  0
   58.1903   24.3610   47.6891 H   0  0  0  0  0  0  0  0  0  0  0  0
   58.7414   26.5032   48.8387 H   0  0  0  0  0  0  0  0  0  0  0  0
   57.5271   31.3311   47.6888 H   0  0  0  0  0  0  0  0  0  0  0  0
   59.1446   32.0147   48.0832 H   0  0  0  0  0  0  0  0  0  0  0  0
   59.8432   35.3882   46.5296 H   0  0  0  0  0  0  0  0  0  0  0  0
   59.0698   34.3924   47.8194 H   0  0  0  0  0  0  0  0  0  0  0  0
   60.4077   33.1970   49.2930 H   0  0  0  0  0  0  0  0  0  0  0  0
   62.6198   32.2297   49.9228 H   0  0  0  0  0  0  0  0  0  0  0  0
   64.5197   32.2907   48.3035 H   0  0  0  0  0  0  0  0  0  0  0  0
   64.2115   33.3277   46.0545 H   0  0  0  0  0  0  0  0  0  0  0  0
   62.0032   34.3017   45.4155 H   0  0  0  0  0  0  0  0  0  0  0  0
   59.2161   34.8408   44.0878 H   0  0  0  0  0  0  0  0  0  0  0  0
   58.0131   33.4759   41.8762 H   0  0  0  0  0  0  0  0  0  0  0  0
   56.8667   31.3257   41.2374 H   0  0  0  0  0  0  0  0  0  0  0  0
   56.6190   28.4030   43.2720 H   0  0  0  0  0  0  0  0  0  0  0  0
   57.2530   29.8939   45.3333 H   0  0  0  0  0  0  0  0  0  0  0  0
   57.9464   28.6703   45.1764 H   0  0  0  0  0  0  0  0  0  0  0  0
   57.3927   26.5288   44.0268 H   0  0  0  0  0  0  0  0  0  0  0  0
  1  2  1  0
  2  3  2  0
  2  4  2  0
  2  5  1  0
  5  6  2  0
  6  7  1  0
  7  8  2  0
  8  9  1  0
  9 10  2  0
 10 11  1  0
 11 12  2  0
 12 13  1  0
 13 14  2  0
 14 15  1  0
 15 16  1  0
 16 17  2  0
 16 18  1  0
 18 19  1  0
 19 20  1  0
 20 21  1  0
 21 22  1  0
 22 23  2  0
 23 24  1  0
 24 25  2  0
 25 26  1  0
 26 27  2  0
 20 28  2  0
 28 29  1  0
 29 30  2  0
 30 31  1  0
 31 32  2  0
 32 33  1  0
 32 34  1  0
 34 35  2  0
 14 36  1  0
 36 37  2  0
 10  5  1  0
 37 11  1  0
 35 19  1  0
 27 22  1  0
 35 29  1  0
  1 38  1  0
  6 39  1  0
  7 40  1  0
  8 41  1  0
  9 42  1  0
 12 43  1  0
 13 44  1  0
 18 45  1  0
 18 46  1  0
 21 47  1  0
 21 48  1  0
 23 49  1  0
 24 50  1  0
 25 51  1  0
 26 52  1  0
 27 53  1  0
 28 54  1  0
 30 55  1  0
 31 56  1  0
 33 57  1  0
 34 58  1  0
 36 59  1  0
 37 60  1  0
M  CHG  2   1  -1  15  -1
M  END
>  <UniqueID>  (81) 
73

>  <SMILES>  (81) 
[NH-]S(=O)(=O)c1ccccc1-c1ccc([N-]C(=O)Cn2c(Cc3ccccc3)cc3ccc(O)cc32)cc1

>  <Energy>  (81) 
107.9461002957391

>  <Genealogy>  (81) 
[NH-]S(=O)(=O)c1ccccc1-c1ccc([N-]C(=O)Cn2c(Cc3ccccc3)cc3ccc(O)cc32)cc1 (protonated)
[NH-]S(=O)(=O)c1ccccc1-c1ccc([N-]C(=O)Cn2c(Cc3ccccc3)cc3ccc(O)cc32)cc1 (3D coordinates assigned)
[NH-]S(=O)(=O)c1ccccc1-c1ccc([N-]C(=O)Cn2c(Cc3ccccc3)cc3ccc(O)cc32)cc1 (optimized conformer: 107.9461002957391 kcal/mol)

>  <smiles>  (81) 
NS(=O)(=O)c1ccccc1-c1ccc(NC(=O)Cn2c(Cc3ccccc3)cc3ccc(O)cc32)cc1

>  <score_type>  (81) 
oracle

>  <origin>  (81) 
adg

>  <m_score__min__energy>  (81) 
-14.539999999999999

>  <m_primary>  (81) 
energy

$$$$
81:0
     RDKit          3D

 37 39  0  0  0  0  0  0  0  0999 V2000
   55.4560   29.6720   44.8730 O   0  0  0  0  0  0  0  0  0  0  0  0
   56.6020   29.7470   44.3550 C   0  0  0  0  0  0  0  0  0  0  0  0
   56.8250   30.7360   43.2820 C   0  0  0  0  0  0  0  0  0  0  0  0
   57.6320   31.8040   43.3680 C   0  0  0  0  0  0  0  0  0  0  0  0
   57.8260   32.6350   44.5730 C   0  0  0  0  0  0  0  0  0  0  0  0
   57.0980   33.7710   44.8800 C   0  0  0  0  0  0  0  0  0  0  0  0
   57.5740   34.2210   46.0960 C   0  0  0  0  0  0  0  0  0  0  0  0
   58.5380   33.3930   46.5370 N   0  0  0  0  0  0  0  0  0  0  0  0
   59.4420   33.5540   48.0020 S   0  0  0  0  0  0  0  0  0  0  0  0
   59.2810   34.9450   48.5500 O   0  0  0  0  0  0  0  0  0  0  0  0
   58.9310   32.5750   49.0210 O   0  0  0  0  0  0  0  0  0  0  0  0
   61.1440   33.2500   47.6680 C   0  0  0  0  0  0  0  0  0  0  0  0
   61.8200   34.0010   46.6950 C   0  0  0  0  0  0  0  0  0  0  0  0
   63.1690   33.7510   46.4270 C   0  0  0  0  0  0  0  0  0  0  0  0
   63.8460   32.7420   47.1200 C   0  0  0  0  0  0  0  0  0  0  0  0
   63.1710   31.9790   48.0780 C   0  0  0  0  0  0  0  0  0  0  0  0
   61.8220   32.2300   48.3500 C   0  0  0  0  0  0  0  0  0  0  0  0
   58.6920   32.4150   45.6290 C   0  0  0  0  0  0  0  0  0  0  0  0
   57.6490   28.7980   44.7910 C   0  0  0  0  0  0  0  0  0  0  0  0
   58.7370   29.0910   45.5940 C   0  0  0  0  0  0  0  0  0  0  0  0
   59.4510   27.9180   45.7230 C   0  0  0  0  0  0  0  0  0  0  0  0
   58.7780   26.9640   44.9870 C   0  0  0  0  0  0  0  0  0  0  0  0
   57.6840   27.5030   44.4220 N   0  0  0  0  0  0  0  0  0  0  0  0
   56.2857   30.5849   42.3353 H   0  0  0  0  0  0  0  0  0  0  0  0
   58.1960   32.0840   42.4661 H   0  0  0  0  0  0  0  0  0  0  0  0
   56.2990   34.2254   44.2757 H   0  0  0  0  0  0  0  0  0  0  0  0
   57.2191   35.1189   46.6231 H   0  0  0  0  0  0  0  0  0  0  0  0
   61.2874   34.7884   46.1416 H   0  0  0  0  0  0  0  0  0  0  0  0
   63.6987   34.3484   45.6703 H   0  0  0  0  0  0  0  0  0  0  0  0
   64.9087   32.5488   46.9115 H   0  0  0  0  0  0  0  0  0  0  0  0
   63.7013   31.1808   48.6181 H   0  0  0  0  0  0  0  0  0  0  0  0
   61.2920   31.6256   49.1008 H   0  0  0  0  0  0  0  0  0  0  0  0
   59.3950   31.5731   45.7120 H   0  0  0  0  0  0  0  0  0  0  0  0
   58.9835   30.0655   46.0407 H   0  0  0  0  0  0  0  0  0  0  0  0
   60.3761   27.7715   46.2998 H   0  0  0  0  0  0  0  0  0  0  0  0
   59.0913   25.9152   44.8786 H   0  0  0  0  0  0  0  0  0  0  0  0
   56.9960   27.0050   43.8140 H   0  0  0  0  0  0  0  0  0  0  0  0
  1  2  2  0
  2  3  1  0
  3  4  2  3
  4  5  1  0
  5  6  1  0
  6  7  2  0
  7  8  1  0
  8  9  1  0
  9 10  2  0
  9 11  2  0
  9 12  1  0
 12 13  2  0
 13 14  1  0
 14 15  2  0
 15 16  1  0
 16 17  2  0
  8 18  1  0
  2 19  1  0
 19 20  2  0
 20 21  1  0
 21 22  2  0
 22 23  1  0
 18  5  2  0
 23 19  1  0
 17 12  1  0
  3 24  1  0
  4 25  1  0
  6 26  1  0
  7 27  1  0
 13 28  1  0
 14 29  1  0
 15 30  1  0
 16 31  1  0
 17 32  1  0
 18 33  1  0
 20 34  1  0
 21 35  1  0
 22 36  1  0
 23 37  1  0
M  END
>  <UniqueID>  (82) 
74

>  <SMILES>  (82) 
O=C(C=Cc1ccn(S(=O)(=O)c2ccccc2)c1)c1ccc[nH]1

>  <Energy>  (82) 
96.10966820117807

>  <Genealogy>  (82) 
O=C(C=Cc1ccn(S(=O)(=O)c2ccccc2)c1)c1ccc[nH]1 (3D coordinates assigned)
O=C(C=Cc1ccn(S(=O)(=O)c2ccccc2)c1)c1ccc[nH]1 (optimized conformer: 96.10966820117807 kcal/mol)

>  <smiles>  (82) 
O=C(C=Cc1ccn(S(=O)(=O)c2ccccc2)c1)c1ccc[nH]1

>  <score_type>  (82) 
oracle

>  <origin>  (82) 
adg

>  <m_score__min__energy>  (82) 
-8.9700000000000006

>  <m_primary>  (82) 
energy

$$$$
82:0
     RDKit          3D

 25 26  0  0  0  0  0  0  0  0999 V2000
   55.8840   20.3640   44.1230 N   0  0  0  0  0  0  0  0  0  0  0  0
   56.7510   21.4710   43.1190 S   0  0  0  0  0  0  0  0  0  0  0  0
   58.0180   20.8240   42.6330 O   0  0  0  0  0  0  0  0  0  0  0  0
   55.9060   21.8300   41.9280 O   0  0  0  0  0  0  0  0  0  0  0  0
   57.1360   22.9220   44.0380 C   0  0  0  0  0  0  0  0  0  0  0  0
   57.5780   22.8210   45.3640 C   0  0  0  0  0  0  0  0  0  0  0  0
   57.8980   23.9730   46.0880 C   0  0  0  0  0  0  0  0  0  0  0  0
   57.7750   25.2400   45.4950 C   0  0  0  0  0  0  0  0  0  0  0  0
   58.1560   26.4780   46.2600 C   0  0  0  0  0  0  0  0  0  0  0  0
   57.4060   27.6620   45.7330 C   0  0  0  0  0  0  0  0  0  0  0  0
   58.1020   29.1310   45.2860 S   0  0  0  0  0  0  0  0  0  0  0  0
   56.6100   29.8280   44.9490 C   0  0  0  0  0  0  0  0  0  0  0  0
   56.4560   31.0060   44.5360 O   0  0  0  0  0  0  0  0  0  0  0  0
   55.5780   28.9870   45.1770 N   0  0  0  0  0  0  0  0  0  0  0  0
   56.0220   27.7820   45.6200 C   0  0  0  0  0  0  0  0  0  0  0  0
   55.1430   26.7540   45.9370 O   0  0  0  0  0  0  0  0  0  0  0  0
   57.3500   25.3360   44.1600 C   0  0  0  0  0  0  0  0  0  0  0  0
   57.0310   24.1840   43.4370 C   0  0  0  0  0  0  0  0  0  0  0  0
   55.4530   19.6530   43.4910 H   0  0  0  0  0  0  0  0  0  0  0  0
   57.6734   21.8322   45.8364 H   0  0  0  0  0  0  0  0  0  0  0  0
   58.2479   23.8867   47.1273 H   0  0  0  0  0  0  0  0  0  0  0  0
   57.9125   26.3374   47.3235 H   0  0  0  0  0  0  0  0  0  0  0  0
   59.2353   26.6550   46.1424 H   0  0  0  0  0  0  0  0  0  0  0  0
   57.2679   26.3230   43.6813 H   0  0  0  0  0  0  0  0  0  0  0  0
   56.6963   24.2675   42.3925 H   0  0  0  0  0  0  0  0  0  0  0  0
  1  2  1  0
  2  3  2  0
  2  4  2  0
  2  5  1  0
  5  6  2  0
  6  7  1  0
  7  8  2  0
  8  9  1  0
  9 10  1  0
 10 11  1  0
 11 12  1  0
 12 13  2  0
 12 14  1  0
 14 15  1  0
 15 16  1  0
  8 17  1  0
 17 18  2  0
 18  5  1  0
 15 10  2  0
  1 19  1  0
  6 20  1  0
  7 21  1  0
  9 22  1  0
  9 23  1  0
 17 24  1  0
 18 25  1  0
M  CHG  3   1  -1  14  -1  16  -1
M  END
>  <UniqueID>  (83) 
75

>  <SMILES>  (83) 
[NH-]S(=O)(=O)c1ccc(Cc2sc(=O)[n-]c2[O-])cc1

>  <Energy>  (83) 
54.33167719844085

>  <Genealogy>  (83) 
[NH-]S(=O)(=O)c1ccc(Cc2sc(=O)[n-]c2[O-])cc1 (protonated)
[NH-]S(=O)(=O)c1ccc(Cc2sc(=O)[n-]c2[O-])cc1 (3D coordinates assigned)
[NH-]S(=O)(=O)c1ccc(Cc2sc(=O)[n-]c2[O-])cc1 (optimized conformer: 54.33167719844085 kcal/mol)

>  <smiles>  (83) 
NS(=O)(=O)c1ccc(Cc2sc(=O)[nH]c2O)cc1

>  <score_type>  (83) 
oracle

>  <origin>  (83) 
adg

>  <m_score__min__energy>  (83) 
-13.710000000000001

>  <m_primary>  (83) 
energy

$$$$
83:0
     RDKit          3D

 50 52  0  0  0  0  0  0  0  0999 V2000
   60.3330   27.6080   45.6470 C   0  0  0  0  0  0  0  0  0  0  0  0
   58.8110   27.5650   45.4050 C   0  0  2  0  0  0  0  0  0  0  0  0
   58.1770   26.1760   45.6850 C   0  0  0  0  0  0  0  0  0  0  0  0
   57.0010   25.8480   44.8320 N   0  0  0  0  0  0  0  0  0  0  0  0
   55.9120   25.2220   45.6060 C   0  0  0  0  0  0  0  0  0  0  0  0
   56.0720   23.7070   45.5040 C   0  0  0  0  0  0  0  0  0  0  0  0
   57.1090   23.4770   44.4200 C   0  0  0  0  0  0  0  0  0  0  0  0
   57.3410   24.8460   43.8080 C   0  0  0  0  0  0  0  0  0  0  0  0
   58.3280   28.1540   44.1400 N   0  0  0  0  0  0  0  0  0  0  0  0
   56.9700   29.2510   44.2170 S   0  0  0  0  0  0  0  0  0  0  0  0
   56.4270   29.5280   42.8440 O   0  0  0  0  0  0  0  0  0  0  0  0
   55.8830   28.6100   45.0330 O   0  0  0  0  0  0  0  0  0  0  0  0
   57.4360   30.7520   45.0090 C   0  0  0  0  0  0  0  0  0  0  0  0
   58.2050   30.7190   46.1730 C   0  0  0  0  0  0  0  0  0  0  0  0
   58.5980   31.9090   46.7880 C   0  0  0  0  0  0  0  0  0  0  0  0
   58.2200   33.1420   46.2170 C   0  0  0  0  0  0  0  0  0  0  0  0
   58.5640   34.2920   46.7290 N   0  0  0  0  0  0  0  0  0  0  0  0
   59.8710   34.8890   46.7560 C   0  0  0  0  0  0  0  0  0  0  0  0
   60.0120   36.0500   46.2890 O   0  0  0  0  0  0  0  0  0  0  0  0
   61.0650   34.1670   47.2620 C   0  0  0  0  0  0  0  0  0  0  0  0
   62.1250   33.9120   46.3730 C   0  0  0  0  0  0  0  0  0  0  0  0
   63.2810   33.2640   46.8130 C   0  0  0  0  0  0  0  0  0  0  0  0
   63.3900   32.8530   48.1410 C   0  0  0  0  0  0  0  0  0  0  0  0
   62.3380   33.0780   49.0310 C   0  0  0  0  0  0  0  0  0  0  0  0
   61.1720   33.7260   48.6020 C   0  0  0  0  0  0  0  0  0  0  0  0
   59.8540   33.8880   49.7590 Cl  0  0  0  0  0  0  0  0  0  0  0  0
   57.4470   33.1400   45.0970 N   0  0  0  0  0  0  0  0  0  0  0  0
   57.0510   31.9920   44.4880 C   0  0  0  0  0  0  0  0  0  0  0  0
   60.5322   27.6136   46.7288 H   0  0  0  0  0  0  0  0  0  0  0  0
   60.8017   26.7227   45.1924 H   0  0  0  0  0  0  0  0  0  0  0  0
   60.7510   28.5183   45.1924 H   0  0  0  0  0  0  0  0  0  0  0  0
   58.4384   28.2579   46.1738 H   0  0  0  0  0  0  0  0  0  0  0  0
   58.9465   25.4078   45.5186 H   0  0  0  0  0  0  0  0  0  0  0  0
   57.8119   26.2033   46.7223 H   0  0  0  0  0  0  0  0  0  0  0  0
   56.6550   26.7030   44.3430 H   0  0  0  0  0  0  0  0  0  0  0  0
   55.9750   25.5341   46.6589 H   0  0  0  0  0  0  0  0  0  0  0  0
   54.9339   25.5308   45.2086 H   0  0  0  0  0  0  0  0  0  0  0  0
   56.4196   23.2925   46.4618 H   0  0  0  0  0  0  0  0  0  0  0  0
   55.1186   23.2126   45.2660 H   0  0  0  0  0  0  0  0  0  0  0  0
   58.0406   23.0830   44.8524 H   0  0  0  0  0  0  0  0  0  0  0  0
   56.7739   22.7406   43.6747 H   0  0  0  0  0  0  0  0  0  0  0  0
   58.3953   24.9524   43.5129 H   0  0  0  0  0  0  0  0  0  0  0  0
   56.7198   24.9811   42.9103 H   0  0  0  0  0  0  0  0  0  0  0  0
   58.5022   29.7529   46.6070 H   0  0  0  0  0  0  0  0  0  0  0  0
   59.1974   31.8852   47.7101 H   0  0  0  0  0  0  0  0  0  0  0  0
   62.0425   34.2258   45.3220 H   0  0  0  0  0  0  0  0  0  0  0  0
   64.1070   33.0775   46.1109 H   0  0  0  0  0  0  0  0  0  0  0  0
   64.3054   32.3512   48.4877 H   0  0  0  0  0  0  0  0  0  0  0  0
   62.4251   32.7445   50.0756 H   0  0  0  0  0  0  0  0  0  0  0  0
   56.4265   32.0375   43.5836 H   0  0  0  0  0  0  0  0  0  0  0  0
  1  2  1  0
  2  3  1  0
  3  4  1  0
  4  5  1  0
  5  6  1  0
  6  7  1  0
  7  8  1  0
  2  9  1  0
  9 10  1  0
 10 11  2  0
 10 12  2  0
 10 13  1  0
 13 14  1  0
 14 15  2  0
 15 16  1  0
 16 17  2  3
 17 18  1  0
 18 19  2  0
 18 20  1  0
 20 21  2  0
 21 22  1  0
 22 23  2  0
 23 24  1  0
 24 25  2  0
 25 26  1  0
 16 27  1  0
 27 28  1  0
  8  4  1  0
 28 13  2  0
 25 20  1  0
  1 29  1  0
  1 30  1  0
  1 31  1  0
  2 32  1  1
  3 33  1  0
  3 34  1  0
  4 35  1  0
  5 36  1  0
  5 37  1  0
  6 38  1  0
  6 39  1  0
  7 40  1  0
  7 41  1  0
  8 42  1  0
  8 43  1  0
 14 44  1  0
 15 45  1  0
 21 46  1  0
 22 47  1  0
 23 48  1  0
 24 49  1  0
 28 50  1  0
M  CHG  3   4   1   9  -1  27  -1
M  END
>  <UniqueID>  (84) 
76

>  <SMILES>  (84) 
C[C@H](C[NH+]1CCCC1)[N-]S(=O)(=O)c1ccc(=NC(=O)c2ccccc2Cl)[n-]c1

>  <Energy>  (84) 
78.37694455321063

>  <Genealogy>  (84) 
CC(C[NH+]1CCCC1)[N-]S(=O)(=O)c1ccc(=NC(=O)c2ccccc2Cl)[n-]c1 (protonated)
C[C@H](C[NH+]1CCCC1)[N-]S(=O)(=O)c1ccc(=NC(=O)c2ccccc2Cl)[n-]c1 (chirality)
C[C@H](C[NH+]1CCCC1)[N-]S(=O)(=O)c1ccc(=NC(=O)c2ccccc2Cl)[n-]c1 (3D coordinates assigned)
C[C@H](C[NH+]1CCCC1)[N-]S(=O)(=O)c1ccc(=NC(=O)c2ccccc2Cl)[n-]c1 (nonaromatic ring conformer: 78.37694455321063 kcal/mol)

>  <smiles>  (84) 
CC(CN1CCCC1)NS(=O)(=O)c1ccc(=NC(=O)c2ccccc2Cl)[nH]c1

>  <score_type>  (84) 
oracle

>  <origin>  (84) 
adg

>  <m_score__min__energy>  (84) 
-9.7699999999999996

>  <m_primary>  (84) 
energy

$$$$
84:0
     RDKit          3D

 41 42  0  0  0  0  0  0  0  0999 V2000
   58.4710   34.0970   44.8720 C   0  0  0  0  0  0  0  0  0  0  0  0
   57.3600   33.2710   45.5120 C   0  0  0  0  0  0  0  0  0  0  0  0
   57.9200   32.0900   46.1820 N   0  0  0  0  0  0  0  0  0  0  0  0
   58.4910   32.2010   47.5310 C   0  0  0  0  0  0  0  0  0  0  0  0
   59.8600   32.8760   47.5010 C   0  0  0  0  0  0  0  0  0  0  0  0
   58.0960   30.8700   45.4420 C   0  0  0  0  0  0  0  0  0  0  0  0
   59.3300   30.2030   45.4720 C   0  0  0  0  0  0  0  0  0  0  0  0
   59.4940   28.9890   44.7990 C   0  0  0  0  0  0  0  0  0  0  0  0
   58.4200   28.4170   44.1060 C   0  0  0  0  0  0  0  0  0  0  0  0
   58.5940   27.1020   43.4550 C   0  0  0  0  0  0  0  0  0  0  0  0
   57.7690   26.0550   43.6090 C   0  0  0  0  0  0  0  0  0  0  0  0
   57.2470   25.5510   44.9020 C   0  0  0  0  0  0  0  0  0  0  0  0
   57.9000   25.8110   45.9460 O   0  0  0  0  0  0  0  0  0  0  0  0
   55.9710   24.7990   45.0220 C   0  0  0  0  0  0  0  0  0  0  0  0
   54.8370   25.4000   45.5980 C   0  0  0  0  0  0  0  0  0  0  0  0
   54.8810   26.7140   46.0510 O   0  0  0  0  0  0  0  0  0  0  0  0
   53.6890   24.6900   45.7410 N   0  0  0  0  0  0  0  0  0  0  0  0
   53.6060   23.4000   45.3290 C   0  0  0  0  0  0  0  0  0  0  0  0
   52.5340   22.7590   45.4800 O   0  0  0  0  0  0  0  0  0  0  0  0
   54.6760   22.8010   44.7500 N   0  0  0  0  0  0  0  0  0  0  0  0
   55.8480   23.4670   44.5800 C   0  0  0  0  0  0  0  0  0  0  0  0
   56.8110   22.8820   44.0160 O   0  0  0  0  0  0  0  0  0  0  0  0
   57.2000   29.1090   44.0300 C   0  0  0  0  0  0  0  0  0  0  0  0
   57.0300   30.3230   44.7070 C   0  0  0  0  0  0  0  0  0  0  0  0
   55.8080   30.9890   44.6490 O   0  0  0  0  0  0  0  0  0  0  0  0
   59.0873   34.5552   45.6595 H   0  0  0  0  0  0  0  0  0  0  0  0
   59.0993   33.4450   44.2475 H   0  0  0  0  0  0  0  0  0  0  0  0
   58.0276   34.8865   44.2475 H   0  0  0  0  0  0  0  0  0  0  0  0
   56.8289   33.8890   46.2510 H   0  0  0  0  0  0  0  0  0  0  0  0
   56.6649   32.9392   44.7266 H   0  0  0  0  0  0  0  0  0  0  0  0
   57.8120   32.7960   48.1595 H   0  0  0  0  0  0  0  0  0  0  0  0
   58.6130   31.1874   47.9405 H   0  0  0  0  0  0  0  0  0  0  0  0
   60.2071   33.0471   48.5307 H   0  0  0  0  0  0  0  0  0  0  0  0
   60.5768   32.2281   46.9753 H   0  0  0  0  0  0  0  0  0  0  0  0
   59.7825   33.8392   46.9753 H   0  0  0  0  0  0  0  0  0  0  0  0
   60.1733   30.6380   46.0284 H   0  0  0  0  0  0  0  0  0  0  0  0
   60.4697   28.4813   44.8138 H   0  0  0  0  0  0  0  0  0  0  0  0
   59.4644   26.9717   42.7952 H   0  0  0  0  0  0  0  0  0  0  0  0
   57.4530   25.5254   42.6982 H   0  0  0  0  0  0  0  0  0  0  0  0
   56.3729   28.6947   43.4349 H   0  0  0  0  0  0  0  0  0  0  0  0
   55.0360   30.7360   45.2540 H   0  0  0  0  0  0  0  0  0  0  0  0
  1  2  1  0
  2  3  1  0
  3  4  1  0
  4  5  1  0
  3  6  1  0
  6  7  2  0
  7  8  1  0
  8  9  2  0
  9 10  1  0
 10 11  2  3
 11 12  1  0
 12 13  2  0
 12 14  1  0
 14 15  2  0
 15 16  1  0
 15 17  1  0
 17 18  1  0
 18 19  2  0
 18 20  1  0
 20 21  1  0
 21 22  2  0
  9 23  1  0
 23 24  2  0
 24 25  1  0
 24  6  1  0
 21 14  1  0
  1 26  1  0
  1 27  1  0
  1 28  1  0
  2 29  1  0
  2 30  1  0
  4 31  1  0
  4 32  1  0
  5 33  1  0
  5 34  1  0
  5 35  1  0
  7 36  1  0
  8 37  1  0
 10 38  1  0
 11 39  1  0
 23 40  1  0
 25 41  1  0
M  CHG  3  16  -1  17  -1  20  -1
M  END
>  <UniqueID>  (85) 
77

>  <SMILES>  (85) 
CCN(CC)c1ccc(C=CC(=O)c2c([O-])[n-]c(=O)[n-]c2=O)cc1O

>  <Energy>  (85) 
52.8384851616798

>  <Genealogy>  (85) 
CCN(CC)c1ccc(C=CC(=O)c2c([O-])[n-]c(=O)[n-]c2=O)cc1O (protonated)
CCN(CC)c1ccc(C=CC(=O)c2c([O-])[n-]c(=O)[n-]c2=O)cc1O (3D coordinates assigned)
CCN(CC)c1ccc(C=CC(=O)c2c([O-])[n-]c(=O)[n-]c2=O)cc1O (optimized conformer: 52.8384851616798 kcal/mol)

>  <smiles>  (85) 
CCN(CC)c1ccc(C=CC(=O)c2c(O)[nH]c(=O)[nH]c2=O)cc1O

>  <score_type>  (85) 
oracle

>  <origin>  (85) 
adg

>  <m_score__min__energy>  (85) 
-15.41

>  <m_primary>  (85) 
energy

$$$$
85:0
     RDKit          3D

 40 42  0  0  0  0  0  0  0  0999 V2000
   59.7880   29.2990   46.0270 C   0  0  0  0  0  0  0  0  0  0  0  0
   58.4860   29.8750   45.5490 C   0  0  0  0  0  0  0  0  0  0  0  0
   58.4110   31.2220   45.3850 N   0  0  0  0  0  0  0  0  0  0  0  0
   57.2860   31.8270   44.9240 C   0  0  0  0  0  0  0  0  0  0  0  0
   57.2370   33.1160   44.7630 N   0  0  0  0  0  0  0  0  0  0  0  0
   57.5100   34.0990   45.8120 C   0  0  0  0  0  0  0  0  0  0  0  0
   58.8520   33.8380   46.4470 C   0  0  0  0  0  0  0  0  0  0  0  0
   58.9380   33.2750   47.7300 C   0  0  0  0  0  0  0  0  0  0  0  0
   60.1850   33.0060   48.3000 C   0  0  0  0  0  0  0  0  0  0  0  0
   61.3600   33.2990   47.5960 C   0  0  0  0  0  0  0  0  0  0  0  0
   62.9310   32.9400   48.3050 S   0  0  0  0  0  0  0  0  0  0  0  0
   63.8730   32.0270   47.1790 N   0  0  0  0  0  0  0  0  0  0  0  0
   62.7500   32.1440   49.5670 O   0  0  0  0  0  0  0  0  0  0  0  0
   63.6440   34.2210   48.6390 O   0  0  0  0  0  0  0  0  0  0  0  0
   61.2770   33.8530   46.3110 C   0  0  0  0  0  0  0  0  0  0  0  0
   60.0310   34.1220   45.7400 C   0  0  0  0  0  0  0  0  0  0  0  0
   56.1980   31.0760   44.6200 N   0  0  0  0  0  0  0  0  0  0  0  0
   56.2050   29.7280   44.7700 C   0  0  0  0  0  0  0  0  0  0  0  0
   55.1630   29.0780   44.4900 O   0  0  0  0  0  0  0  0  0  0  0  0
   57.3590   29.0730   45.2500 C   0  0  0  0  0  0  0  0  0  0  0  0
   57.3690   27.5980   45.4250 C   0  0  0  0  0  0  0  0  0  0  0  0
   58.4600   26.8670   45.0660 N   0  0  0  0  0  0  0  0  0  0  0  0
   58.4880   25.5190   45.2290 C   0  0  0  0  0  0  0  0  0  0  0  0
   57.3880   24.8620   45.7780 C   0  0  0  0  0  0  0  0  0  0  0  0
   57.4020   22.9680   46.0200 Br  0  0  0  0  0  0  0  0  0  0  0  0
   56.2790   25.6210   46.1470 C   0  0  0  0  0  0  0  0  0  0  0  0
   56.2910   26.9670   45.9670 N   0  0  0  0  0  0  0  0  0  0  0  0
   59.8040   29.2919   47.1269 H   0  0  0  0  0  0  0  0  0  0  0  0
   59.8934   28.2702   45.6521 H   0  0  0  0  0  0  0  0  0  0  0  0
   60.6202   29.9130   45.6521 H   0  0  0  0  0  0  0  0  0  0  0  0
   57.5081   35.1072   45.3721 H   0  0  0  0  0  0  0  0  0  0  0  0
   56.7307   34.0195   46.5842 H   0  0  0  0  0  0  0  0  0  0  0  0
   58.0193   33.0445   48.2893 H   0  0  0  0  0  0  0  0  0  0  0  0
   60.2442   32.5626   49.3050 H   0  0  0  0  0  0  0  0  0  0  0  0
   64.4600   31.3670   47.7360 H   0  0  0  0  0  0  0  0  0  0  0  0
   64.5280   32.6970   46.7170 H   0  0  0  0  0  0  0  0  0  0  0  0
   62.1965   34.0767   45.7503 H   0  0  0  0  0  0  0  0  0  0  0  0
   59.9733   34.5583   44.7319 H   0  0  0  0  0  0  0  0  0  0  0  0
   59.3777   24.9463   44.9281 H   0  0  0  0  0  0  0  0  0  0  0  0
   55.3960   25.1310   46.5830 H   0  0  0  0  0  0  0  0  0  0  0  0
  1  2  1  0
  2  3  1  0
  3  4  1  0
  4  5  2  3
  5  6  1  0
  6  7  1  0
  7  8  2  0
  8  9  1  0
  9 10  2  0
 10 11  1  0
 11 12  1  0
 11 13  2  0
 11 14  2  0
 10 15  1  0
 15 16  2  0
  4 17  1  0
 17 18  1  0
 18 19  2  0
 18 20  1  0
 20 21  1  0
 21 22  2  0
 22 23  1  0
 23 24  2  0
 24 25  1  0
 24 26  1  0
 26 27  2  0
 20  2  2  0
 27 21  1  0
 16  7  1  0
  1 28  1  0
  1 29  1  0
  1 30  1  0
  6 31  1  0
  6 32  1  0
  8 33  1  0
  9 34  1  0
 12 35  1  0
 12 36  1  0
 15 37  1  0
 16 38  1  0
 23 39  1  0
 26 40  1  0
M  CHG  2   3  -1  17  -1
M  END
>  <UniqueID>  (86) 
78

>  <SMILES>  (86) 
Cc1[n-]c(=NCc2ccc(S(N)(=O)=O)cc2)[n-]c(=O)c1-c1ncc(Br)cn1

>  <Energy>  (86) 
47.88326295131406

>  <Genealogy>  (86) 
Cc1[n-]c(=NCc2ccc(S(N)(=O)=O)cc2)[n-]c(=O)c1-c1ncc(Br)cn1 (protonated)
Cc1[n-]c(=NCc2ccc(S(N)(=O)=O)cc2)[n-]c(=O)c1-c1ncc(Br)cn1 (3D coordinates assigned)
Cc1[n-]c(=NCc2ccc(S(N)(=O)=O)cc2)[n-]c(=O)c1-c1ncc(Br)cn1 (optimized conformer: 47.88326295131406 kcal/mol)

>  <smiles>  (86) 
Cc1[nH]c(=NCc2ccc(S(N)(=O)=O)cc2)[nH]c(=O)c1-c1ncc(Br)cn1

>  <score_type>  (86) 
oracle

>  <origin>  (86) 
adg

>  <m_score__min__energy>  (86) 
-11.51

>  <m_primary>  (86) 
energy

$$$$
86:0
     RDKit          3D

 48 50  0  0  0  0  0  0  0  0999 V2000
   58.2490   26.7960   44.7720 O   0  0  0  0  0  0  0  0  0  0  0  0
   57.2160   27.3510   45.2340 C   0  0  0  0  0  0  0  0  0  0  0  0
   56.3760   26.6430   46.1600 N   0  0  0  0  0  0  0  0  0  0  0  0
   56.7890   25.3900   46.7870 C   0  0  0  0  0  0  0  0  0  0  0  0
   56.8780   24.2750   45.7630 C   0  0  0  0  0  0  0  0  0  0  0  0
   58.1590   23.8040   45.4180 C   0  0  0  0  0  0  0  0  0  0  0  0
   58.3190   22.7630   44.5050 C   0  0  0  0  0  0  0  0  0  0  0  0
   57.2030   22.1670   43.9270 C   0  0  0  0  0  0  0  0  0  0  0  0
   55.9230   22.6150   44.2510 C   0  0  0  0  0  0  0  0  0  0  0  0
   55.7310   23.6840   45.1510 C   0  0  0  0  0  0  0  0  0  0  0  0
   54.3100   24.0970   45.4990 C   0  0  0  0  0  0  0  0  0  0  0  0
   53.9460   23.5270   46.7030 F   0  0  0  0  0  0  0  0  0  0  0  0
   54.1960   25.4710   45.5860 F   0  0  0  0  0  0  0  0  0  0  0  0
   53.4130   23.6720   44.5320 F   0  0  0  0  0  0  0  0  0  0  0  0
   56.8910   28.7280   44.8150 C   0  0  0  0  0  0  0  0  0  0  0  0
   57.7910   29.7670   44.6560 C   0  0  0  0  0  0  0  0  0  0  0  0
   57.0530   30.8550   44.2190 C   0  0  0  0  0  0  0  0  0  0  0  0
   57.5380   32.2150   43.8850 C   0  0  0  0  0  0  0  0  0  0  0  0
   57.7190   32.5060   42.6720 O   0  0  0  0  0  0  0  0  0  0  0  0
   57.8480   33.2690   44.9280 C   0  0  0  0  0  0  0  0  0  0  0  0
   57.7690   32.7040   46.3730 C   0  0  0  0  0  0  0  0  0  0  0  0
   58.7900   33.3460   47.3290 C   0  0  0  0  0  0  0  0  0  0  0  0
   58.9320   34.8460   47.0550 C   0  0  0  0  0  0  0  0  0  0  0  0
   59.4440   35.1340   45.6270 C   0  0  0  0  0  0  0  0  0  0  0  0
   59.1820   33.9860   44.6320 C   0  0  0  0  0  0  0  0  0  0  0  0
   55.7390   30.4310   44.1370 C   0  0  0  0  0  0  0  0  0  0  0  0
   55.6480   29.1380   44.4950 N   0  0  0  0  0  0  0  0  0  0  0  0
   55.4190   27.0030   46.3730 H   0  0  0  0  0  0  0  0  0  0  0  0
   57.7751   25.5292   47.2543 H   0  0  0  0  0  0  0  0  0  0  0  0
   56.0404   25.1127   47.5438 H   0  0  0  0  0  0  0  0  0  0  0  0
   59.0470   24.2644   45.8758 H   0  0  0  0  0  0  0  0  0  0  0  0
   59.3279   22.4128   44.2416 H   0  0  0  0  0  0  0  0  0  0  0  0
   57.3306   21.3403   43.2126 H   0  0  0  0  0  0  0  0  0  0  0  0
   55.0481   22.1265   43.7971 H   0  0  0  0  0  0  0  0  0  0  0  0
   58.8751   29.7354   44.8397 H   0  0  0  0  0  0  0  0  0  0  0  0
   57.0624   34.0363   44.8637 H   0  0  0  0  0  0  0  0  0  0  0  0
   56.7581   32.8875   46.7659 H   0  0  0  0  0  0  0  0  0  0  0  0
   58.0010   31.6301   46.3184 H   0  0  0  0  0  0  0  0  0  0  0  0
   58.4528   33.2002   48.3658 H   0  0  0  0  0  0  0  0  0  0  0  0
   59.7675   32.8671   47.1702 H   0  0  0  0  0  0  0  0  0  0  0  0
   57.9492   35.3235   47.1816 H   0  0  0  0  0  0  0  0  0  0  0  0
   59.6688   35.2499   47.7649 H   0  0  0  0  0  0  0  0  0  0  0  0
   58.9417   36.0386   45.2537 H   0  0  0  0  0  0  0  0  0  0  0  0
   60.5349   35.2579   45.6953 H   0  0  0  0  0  0  0  0  0  0  0  0
   59.1468   34.3984   43.6128 H   0  0  0  0  0  0  0  0  0  0  0  0
   59.9956   33.2525   44.7320 H   0  0  0  0  0  0  0  0  0  0  0  0
   54.8921   31.0597   43.8246 H   0  0  0  0  0  0  0  0  0  0  0  0
   54.7740   28.5660   44.5160 H   0  0  0  0  0  0  0  0  0  0  0  0
  1  2  2  0
  2  3  1  0
  3  4  1  0
  4  5  1  0
  5  6  2  0
  6  7  1  0
  7  8  2  0
  8  9  1  0
  9 10  2  0
 10 11  1  0
 11 12  1  0
 11 13  1  0
 11 14  1  0
  2 15  1  0
 15 16  2  0
 16 17  1  0
 17 18  1  0
 18 19  2  0
 18 20  1  0
 20 21  1  0
 21 22  1  0
 22 23  1  0
 23 24  1  0
 24 25  1  0
 17 26  2  0
 26 27  1  0
 10  5  1  0
 27 15  1  0
 25 20  1  0
  3 28  1  0
  4 29  1  0
  4 30  1  0
  6 31  1  0
  7 32  1  0
  8 33  1  0
  9 34  1  0
 16 35  1  0
 20 36  1  0
 21 37  1  0
 21 38  1  0
 22 39  1  0
 22 40  1  0
 23 41  1  0
 23 42  1  0
 24 43  1  0
 24 44  1  0
 25 45  1  0
 25 46  1  0
 26 47  1  0
 27 48  1  0
M  END
>  <UniqueID>  (87) 
79

>  <SMILES>  (87) 
O=C(NCc1ccccc1C(F)(F)F)c1cc(C(=O)C2CCCCC2)c[nH]1

>  <Energy>  (87) 
78.43664697761939

>  <Genealogy>  (87) 
O=C(NCc1ccccc1C(F)(F)F)c1cc(C(=O)C2CCCCC2)c[nH]1 (3D coordinates assigned)
O=C(NCc1ccccc1C(F)(F)F)c1cc(C(=O)C2CCCCC2)c[nH]1 (nonaromatic ring conformer: 78.43664697761939 kcal/mol)

>  <smiles>  (87) 
O=C(NCc1ccccc1C(F)(F)F)c1cc(C(=O)C2CCCCC2)c[nH]1

>  <score_type>  (87) 
oracle

>  <origin>  (87) 
adg

>  <m_score__min__energy>  (87) 
-8.8499999999999996

>  <m_primary>  (87) 
energy

$$$$
87:0
     RDKit          3D

 62 65  0  0  0  0  0  0  0  0999 V2000
   58.2010   33.3970   52.0500 C   0  0  0  0  0  0  0  0  0  0  0  0
   57.4580   32.3500   51.2260 C   0  0  0  0  0  0  0  0  0  0  0  0
   57.3730   31.0700   51.9650 N   0  0  0  0  0  0  0  0  0  0  0  0
   58.4670   30.2360   52.1070 C   0  0  0  0  0  0  0  0  0  0  0  0
   59.8500   30.5370   51.5350 C   0  0  0  0  0  0  0  0  0  0  0  0
   60.4030   29.3850   50.7870 N   0  0  0  0  0  0  0  0  0  0  0  0
   59.5700   29.0300   49.6050 C   0  0  0  0  0  0  0  0  0  0  0  0
   60.1600   29.4840   48.2520 C   0  0  0  0  0  0  0  0  0  0  0  0
   60.9920   30.6780   48.4250 N   0  0  0  0  0  0  0  0  0  0  0  0
   60.9090   31.7940   47.5180 C   0  0  0  0  0  0  0  0  0  0  0  0
   61.9710   32.3830   47.1700 O   0  0  0  0  0  0  0  0  0  0  0  0
   59.6090   32.2840   46.9960 C   0  0  0  0  0  0  0  0  0  0  0  0
   59.0070   31.6450   45.8950 C   0  0  0  0  0  0  0  0  0  0  0  0
   57.7470   32.0590   45.4240 C   0  0  0  0  0  0  0  0  0  0  0  0
   57.0730   31.4230   44.3300 N   0  0  0  0  0  0  0  0  0  0  0  0
   56.5980   29.7540   44.1750 S   0  0  0  0  0  0  0  0  0  0  0  0
   56.4330   29.3380   42.7400 O   0  0  0  0  0  0  0  0  0  0  0  0
   55.3000   29.5490   44.9040 O   0  0  0  0  0  0  0  0  0  0  0  0
   57.8510   28.7570   44.8890 C   0  0  0  0  0  0  0  0  0  0  0  0
   59.1810   28.7460   44.5020 C   0  0  0  0  0  0  0  0  0  0  0  0
   59.9550   27.8490   45.2470 C   0  0  0  0  0  0  0  0  0  0  0  0
   59.2340   27.1560   46.2140 C   0  0  0  0  0  0  0  0  0  0  0  0
   57.6300   27.6590   46.1420 S   0  0  0  0  0  0  0  0  0  0  0  0
   57.1190   33.1510   46.0310 C   0  0  0  0  0  0  0  0  0  0  0  0
   57.7090   33.7990   47.1190 C   0  0  0  0  0  0  0  0  0  0  0  0
   58.9450   33.3650   47.6150 C   0  0  0  0  0  0  0  0  0  0  0  0
   59.5210   34.0160   48.7080 O   0  0  0  0  0  0  0  0  0  0  0  0
   62.0780   30.6360   49.4070 C   0  0  0  0  0  0  0  0  0  0  0  0
   61.8380   29.5300   50.4480 C   0  0  0  0  0  0  0  0  0  0  0  0
   58.3150   29.0070   52.7550 C   0  0  0  0  0  0  0  0  0  0  0  0
   57.0750   28.6380   53.2470 C   0  0  0  0  0  0  0  0  0  0  0  0
   56.9660   27.5360   53.8550 O   0  0  0  0  0  0  0  0  0  0  0  0
   55.9940   29.4540   53.0670 N   0  0  0  0  0  0  0  0  0  0  0  0
   54.6700   29.0470   53.5700 C   0  0  0  0  0  0  0  0  0  0  0  0
   56.1450   30.6690   52.4490 C   0  0  0  0  0  0  0  0  0  0  0  0
   55.1400   31.4270   52.3190 O   0  0  0  0  0  0  0  0  0  0  0  0
   58.0554   33.1918   53.1208 H   0  0  0  0  0  0  0  0  0  0  0  0
   59.2741   33.3573   51.8117 H   0  0  0  0  0  0  0  0  0  0  0  0
   57.8092   34.3969   51.8117 H   0  0  0  0  0  0  0  0  0  0  0  0
   56.4416   32.7124   51.0125 H   0  0  0  0  0  0  0  0  0  0  0  0
   58.0068   32.1821   50.2876 H   0  0  0  0  0  0  0  0  0  0  0  0
   59.7735   31.3983   50.8551 H   0  0  0  0  0  0  0  0  0  0  0  0
   60.5260   30.7528   52.3755 H   0  0  0  0  0  0  0  0  0  0  0  0
   59.4546   27.9363   49.5809 H   0  0  0  0  0  0  0  0  0  0  0  0
   58.6127   29.5585   49.7243 H   0  0  0  0  0  0  0  0  0  0  0  0
   60.7749   28.6725   47.8355 H   0  0  0  0  0  0  0  0  0  0  0  0
   59.3328   29.7250   47.5682 H   0  0  0  0  0  0  0  0  0  0  0  0
   59.5272   30.8132   45.3976 H   0  0  0  0  0  0  0  0  0  0  0  0
   59.5856   29.3750   43.6954 H   0  0  0  0  0  0  0  0  0  0  0  0
   61.0332   27.7053   45.0831 H   0  0  0  0  0  0  0  0  0  0  0  0
   59.6430   26.4066   46.9077 H   0  0  0  0  0  0  0  0  0  0  0  0
   56.1501   33.5036   45.6477 H   0  0  0  0  0  0  0  0  0  0  0  0
   57.2005   34.6541   47.5884 H   0  0  0  0  0  0  0  0  0  0  0  0
   60.5200   33.9630   48.8960 H   0  0  0  0  0  0  0  0  0  0  0  0
   63.0266   30.4396   48.8859 H   0  0  0  0  0  0  0  0  0  0  0  0
   62.1171   31.6043   49.9275 H   0  0  0  0  0  0  0  0  0  0  0  0
   62.2047   28.5756   50.0423 H   0  0  0  0  0  0  0  0  0  0  0  0
   62.3765   29.8068   51.3664 H   0  0  0  0  0  0  0  0  0  0  0  0
   59.1779   28.3352   52.8736 H   0  0  0  0  0  0  0  0  0  0  0  0
   54.6789   29.0497   54.6700 H   0  0  0  0  0  0  0  0  0  0  0  0
   53.9075   29.7522   53.2078 H   0  0  0  0  0  0  0  0  0  0  0  0
   54.4353   28.0352   53.2078 H   0  0  0  0  0  0  0  0  0  0  0  0
  1  2  1  0
  2  3  1  0
  3  4  1  0
  4  5  1  0
  5  6  1  0
  6  7  1  0
  7  8  1  0
  8  9  1  0
  9 10  1  0
 10 11  2  0
 10 12  1  0
 12 13  2  0
 13 14  1  0
 14 15  1  0
 15 16  1  0
 16 17  2  0
 16 18  2  0
 16 19  1  0
 19 20  2  0
 20 21  1  0
 21 22  2  0
 22 23  1  0
 14 24  2  0
 24 25  1  0
 25 26  2  0
 26 27  1  0
  9 28  1  0
 28 29  1  0
  4 30  2  0
 30 31  1  0
 31 32  2  0
 31 33  1  0
 33 34  1  0
 33 35  1  0
 35 36  2  0
 35  3  1  0
 29  6  1  0
 26 12  1  0
 23 19  1  0
  1 37  1  0
  1 38  1  0
  1 39  1  0
  2 40  1  0
  2 41  1  0
  5 42  1  0
  5 43  1  0
  7 44  1  0
  7 45  1  0
  8 46  1  0
  8 47  1  0
 13 48  1  0
 20 49  1  0
 21 50  1  0
 22 51  1  0
 24 52  1  0
 25 53  1  0
 27 54  1  0
 28 55  1  0
 28 56  1  0
 29 57  1  0
 29 58  1  0
 30 59  1  0
 34 60  1  0
 34 61  1  0
 34 62  1  0
M  CHG  1  15  -1
M  END
>  <UniqueID>  (88) 
80

>  <SMILES>  (88) 
CCn1c(CN2CCN(C(=O)c3cc([N-]S(=O)(=O)c4cccs4)ccc3O)CC2)cc(=O)n(C)c1=O

>  <Energy>  (88) 
119.89142992355083

>  <Genealogy>  (88) 
CCn1c(CN2CCN(C(=O)c3cc([N-]S(=O)(=O)c4cccs4)ccc3O)CC2)cc(=O)n(C)c1=O (protonated)
CCn1c(CN2CCN(C(=O)c3cc([N-]S(=O)(=O)c4cccs4)ccc3O)CC2)cc(=O)n(C)c1=O (3D coordinates assigned)
CCn1c(CN2CCN(C(=O)c3cc([N-]S(=O)(=O)c4cccs4)ccc3O)CC2)cc(=O)n(C)c1=O (nonaromatic ring conformer: 119.89142992355083 kcal/mol)

>  <smiles>  (88) 
CCn1c(CN2CCN(C(=O)c3cc(NS(=O)(=O)c4cccs4)ccc3O)CC2)cc(=O)n(C)c1=O

>  <score_type>  (88) 
oracle

>  <origin>  (88) 
adg

>  <m_score__min__energy>  (88) 
-9.9600000000000009

>  <m_primary>  (88) 
energy

$$$$
88:0
     RDKit          3D

 56 59  0  0  0  0  0  0  0  0999 V2000
   58.0649   25.0352   44.7229 H   0  0  0  0  0  0  0  0  0  0  0  0
   57.8480   26.1110   44.6480 C   0  0  0  0  0  0  0  0  0  0  0  0
   58.0830   26.7900   43.4480 C   0  0  0  0  0  0  0  0  0  0  0  0
   58.4881   26.2488   42.5803 H   0  0  0  0  0  0  0  0  0  0  0  0
   57.8030   28.1570   43.3510 C   0  0  0  0  0  0  0  0  0  0  0  0
   57.9911   28.6899   42.4073 H   0  0  0  0  0  0  0  0  0  0  0  0
   57.2830   28.8500   44.4540 C   0  0  0  0  0  0  0  0  0  0  0  0
   56.9460   30.5740   44.3390 S   0  0  0  0  0  0  0  0  0  0  0  0
   55.4780   30.7700   44.0810 O   0  0  0  0  0  0  0  0  0  0  0  0
   57.7430   31.1550   43.2050 O   0  0  0  0  0  0  0  0  0  0  0  0
   57.4030   31.3190   45.8420 N   0  0  0  0  0  0  0  0  0  0  0  0
   58.2400   32.2950   46.0820 C   0  0  0  0  0  0  0  0  0  0  0  0
   59.3310   32.1990   46.9890 C   0  0  0  0  0  0  0  0  0  0  0  0
   59.5900   31.0140   47.6920 O   0  0  0  0  0  0  0  0  0  0  0  0
   59.9450   29.7880   47.1070 C   0  0  0  0  0  0  0  0  0  0  0  0
   60.3870   29.6970   45.7730 C   0  0  0  0  0  0  0  0  0  0  0  0
   60.4623   30.6052   45.1570 H   0  0  0  0  0  0  0  0  0  0  0  0
   60.7300   28.4570   45.2300 C   0  0  0  0  0  0  0  0  0  0  0  0
   61.0638   28.3891   44.1841 H   0  0  0  0  0  0  0  0  0  0  0  0
   60.6500   27.3020   46.0130 C   0  0  0  0  0  0  0  0  0  0  0  0
   60.9152   26.3255   45.5816 H   0  0  0  0  0  0  0  0  0  0  0  0
   60.2330   27.3880   47.3440 C   0  0  0  0  0  0  0  0  0  0  0  0
   60.1630   26.2690   48.1070 F   0  0  0  0  0  0  0  0  0  0  0  0
   59.8880   28.6290   47.8910 C   0  0  0  0  0  0  0  0  0  0  0  0
   59.5704   28.6945   48.9421 H   0  0  0  0  0  0  0  0  0  0  0  0
   60.1920   33.3050   47.1460 C   0  0  0  0  0  0  0  0  0  0  0  0
   61.3100   33.1780   47.9850 O   0  0  0  0  0  0  0  0  0  0  0  0
   61.2810   32.6600   49.3120 C   0  0  0  0  0  0  0  0  0  0  0  0
   62.1104   33.0939   49.8898 H   0  0  0  0  0  0  0  0  0  0  0  0
   61.3835   31.5655   49.2728 H   0  0  0  0  0  0  0  0  0  0  0  0
   59.9770   33.0080   49.9760 C   0  0  0  0  0  0  0  0  0  0  0  0
   59.6400   34.2220   50.0510 O   0  0  0  0  0  0  0  0  0  0  0  0
   59.1270   31.9910   50.5560 N   0  0  0  0  0  0  0  0  0  0  0  0
   59.4930   30.5690   50.4710 C   0  0  0  0  0  0  0  0  0  0  0  0
   59.1863   30.1747   49.4910 H   0  0  0  0  0  0  0  0  0  0  0  0
   60.5819   30.4750   50.5950 H   0  0  0  0  0  0  0  0  0  0  0  0
   58.7990   29.7670   51.5760 C   0  0  0  0  0  0  0  0  0  0  0  0
   58.9571   28.6936   51.3948 H   0  0  0  0  0  0  0  0  0  0  0  0
   59.2281   30.0617   52.5450 H   0  0  0  0  0  0  0  0  0  0  0  0
   57.4120   30.0320   51.5990 O   0  0  0  0  0  0  0  0  0  0  0  0
   57.1990   31.3780   51.9700 C   0  0  0  0  0  0  0  0  0  0  0  0
   56.1200   31.5508   52.0964 H   0  0  0  0  0  0  0  0  0  0  0  0
   57.7309   31.5722   52.9130 H   0  0  0  0  0  0  0  0  0  0  0  0
   57.7380   32.3300   50.8970 C   0  0  0  0  0  0  0  0  0  0  0  0
   57.1140   32.2485   49.9948 H   0  0  0  0  0  0  0  0  0  0  0  0
   57.7092   33.3579   51.2877 H   0  0  0  0  0  0  0  0  0  0  0  0
   59.9260   34.4910   46.4490 C   0  0  0  0  0  0  0  0  0  0  0  0
   60.5771   35.3678   46.5803 H   0  0  0  0  0  0  0  0  0  0  0  0
   58.8350   34.5530   45.5910 C   0  0  0  0  0  0  0  0  0  0  0  0
   58.6200   35.4839   45.0458 H   0  0  0  0  0  0  0  0  0  0  0  0
   58.0330   33.4710   45.4220 N   0  0  0  0  0  0  0  0  0  0  0  0
   57.2280   33.5570   44.7600 H   0  0  0  0  0  0  0  0  0  0  0  0
   57.0580   28.1660   45.6580 C   0  0  0  0  0  0  0  0  0  0  0  0
   56.6607   28.7058   46.5303 H   0  0  0  0  0  0  0  0  0  0  0  0
   57.3380   26.7990   45.7510 C   0  0  0  0  0  0  0  0  0  0  0  0
   57.1561   26.2645   46.6951 H   0  0  0  0  0  0  0  0  0  0  0  0
  1  2  1  0
  2  3  2  0
  3  4  1  0
  3  5  1  0
  5  6  1  0
  5  7  2  0
  7  8  1  0
  8  9  2  0
  8 10  2  0
  8 11  1  0
 11 12  2  0
 12 13  1  0
 13 14  1  0
 14 15  1  0
 15 16  2  0
 16 17  1  0
 16 18  1  0
 18 19  1  0
 18 20  2  0
 20 21  1  0
 20 22  1  0
 22 23  1  0
 22 24  2  0
 24 25  1  0
 13 26  2  0
 26 27  1  0
 27 28  1  0
 28 29  1  0
 28 30  1  0
 28 31  1  0
 31 32  2  0
 31 33  1  0
 33 34  1  0
 34 35  1  0
 34 36  1  0
 34 37  1  0
 37 38  1  0
 37 39  1  0
 37 40  1  0
 40 41  1  0
 41 42  1  0
 41 43  1  0
 41 44  1  0
 44 45  1  0
 44 46  1  0
 26 47  1  0
 47 48  1  0
 47 49  2  0
 49 50  1  0
 49 51  1  0
 51 52  1  0
  7 53  1  0
 53 54  1  0
 53 55  2  0
 55 56  1  0
 55  2  1  0
 51 12  1  0
 24 15  1  0
 44 33  1  0
M  END
>  <UniqueID>  (89) 
81

>  <SMILES>  (89) 
O=C(COc1cc[nH]/c(=N/S(=O)(=O)c2ccccc2)c1Oc1cccc(F)c1)N1CCOCC1

>  <Energy>  (89) 
78.07488313268556

>  <Genealogy>  (89) 
O=C(COc1cc[nH]/c(=N/S(=O)(=O)c2ccccc2)c1Oc1cccc(F)c1)N1CCOCC1 (cis-trans isomerization)
O=C(COc1cc[nH]/c(=N/S(=O)(=O)c2ccccc2)c1Oc1cccc(F)c1)N1CCOCC1 (3D coordinates assigned)
O=C(COc1cc[nH]/c(=N/S(=O)(=O)c2ccccc2)c1Oc1cccc(F)c1)N1CCOCC1 (nonaromatic ring conformer: 78.07488313268556 kcal/mol)

>  <smiles>  (89) 
O=C(COc1cc[nH]c(=NS(=O)(=O)c2ccccc2)c1Oc1cccc(F)c1)N1CCOCC1

>  <score_type>  (89) 
oracle

>  <origin>  (89) 
adg

>  <m_score__min__energy>  (89) 
-9.7200000000000006

>  <m_primary>  (89) 
energy

$$$$
89:0
     RDKit          3D

 24 25  0  0  0  0  0  0  0  0999 V2000
   55.1370   29.7160   44.8750 O   0  0  0  0  0  0  0  0  0  0  0  0
   56.3440   29.3550   44.9040 C   0  0  0  0  0  0  0  0  0  0  0  0
   57.3680   30.2000   44.3630 N   0  0  0  0  0  0  0  0  0  0  0  0
   57.8920   31.3960   44.9570 C   0  0  0  0  0  0  0  0  0  0  0  0
   57.4600   32.6360   44.4770 C   0  0  0  0  0  0  0  0  0  0  0  0
   57.9680   33.8160   45.0210 C   0  0  0  0  0  0  0  0  0  0  0  0
   58.9230   33.7450   46.0370 C   0  0  0  0  0  0  0  0  0  0  0  0
   59.5740   35.2200   46.7300 Cl  0  0  0  0  0  0  0  0  0  0  0  0
   59.3570   32.5330   46.4820 N   0  0  0  0  0  0  0  0  0  0  0  0
   58.8720   31.3700   45.9650 C   0  0  0  0  0  0  0  0  0  0  0  0
   56.7100   28.0340   45.4460 C   0  0  0  0  0  0  0  0  0  0  0  0
   58.0440   27.7140   45.7530 C   0  0  0  0  0  0  0  0  0  0  0  0
   58.3470   26.4500   46.2630 C   0  0  0  0  0  0  0  0  0  0  0  0
   57.3290   25.5180   46.4630 C   0  0  0  0  0  0  0  0  0  0  0  0
   56.0130   25.8650   46.1470 C   0  0  0  0  0  0  0  0  0  0  0  0
   55.0810   25.0370   46.3200 O   0  0  0  0  0  0  0  0  0  0  0  0
   55.7360   27.1010   45.6510 N   0  0  0  0  0  0  0  0  0  0  0  0
   56.7168   32.6814   43.6674 H   0  0  0  0  0  0  0  0  0  0  0  0
   57.6197   34.7924   44.6532 H   0  0  0  0  0  0  0  0  0  0  0  0
   60.0840   32.4900   47.2310 H   0  0  0  0  0  0  0  0  0  0  0  0
   59.2487   30.4060   46.3377 H   0  0  0  0  0  0  0  0  0  0  0  0
   58.8426   28.4533   45.5928 H   0  0  0  0  0  0  0  0  0  0  0  0
   59.3876   26.1896   46.5068 H   0  0  0  0  0  0  0  0  0  0  0  0
   57.5596   24.5205   46.8652 H   0  0  0  0  0  0  0  0  0  0  0  0
  1  2  2  0
  2  3  1  0
  3  4  1  0
  4  5  2  0
  5  6  1  0
  6  7  2  0
  7  8  1  0
  7  9  1  0
  9 10  2  0
  2 11  1  0
 11 12  2  0
 12 13  1  0
 13 14  2  0
 14 15  1  0
 15 16  2  0
 15 17  1  0
 10  4  1  0
 17 11  1  0
  5 18  1  0
  6 19  1  0
  9 20  1  0
 10 21  1  0
 12 22  1  0
 13 23  1  0
 14 24  1  0
M  CHG  3   3  -1   9   1  17  -1
M  END
>  <UniqueID>  (90) 
82

>  <SMILES>  (90) 
O=C([N-]c1ccc(Cl)[nH+]c1)c1cccc(=O)[n-]1

>  <Energy>  (90) 
28.9693924621189

>  <Genealogy>  (90) 
O=C([N-]c1ccc(Cl)[nH+]c1)c1cccc(=O)[n-]1 (protonated)
O=C([N-]c1ccc(Cl)[nH+]c1)c1cccc(=O)[n-]1 (3D coordinates assigned)
O=C([N-]c1ccc(Cl)[nH+]c1)c1cccc(=O)[n-]1 (optimized conformer: 28.9693924621189 kcal/mol)

>  <smiles>  (90) 
O=C(Nc1ccc(Cl)nc1)c1cccc(=O)[nH]1

>  <score_type>  (90) 
oracle

>  <origin>  (90) 
adg

>  <m_score__min__energy>  (90) 
-9.1899999999999995

>  <m_primary>  (90) 
energy

$$$$
90:0
     RDKit          3D

 52 55  0  0  0  0  0  0  0  0999 V2000
   60.6700   28.9880   45.8990 C   0  0  0  0  0  0  0  0  0  0  0  0
   59.6410   29.8520   45.7550 C   0  0  0  0  0  0  0  0  0  0  0  0
   59.8380   31.2250   46.0440 C   0  0  0  0  0  0  0  0  0  0  0  0
   60.9850   31.6460   46.3570 O   0  0  0  0  0  0  0  0  0  0  0  0
   58.7440   32.1140   45.9340 C   0  0  0  0  0  0  0  0  0  0  0  0
   58.7990   33.4330   46.2120 C   0  0  0  0  0  0  0  0  0  0  0  0
   59.3910   34.0470   47.4180 C   0  0  0  0  0  0  0  0  0  0  0  0
   58.9020   35.1320   47.8370 O   0  0  0  0  0  0  0  0  0  0  0  0
   60.3600   33.3210   48.2150 N   0  0  0  0  0  0  0  0  0  0  0  0
   61.3060   34.2390   48.8840 C   0  0  0  0  0  0  0  0  0  0  0  0
   62.3930   33.4490   49.6440 C   0  0  0  0  0  0  0  0  0  0  0  0
   62.0020   32.0480   49.8720 N   0  0  0  0  0  0  0  0  0  0  0  0
   60.6060   31.9610   50.3100 C   0  0  0  0  0  0  0  0  0  0  0  0
   59.6550   32.4810   49.2090 C   0  0  0  0  0  0  0  0  0  0  0  0
   57.5580   31.6240   45.4950 N   0  0  0  0  0  0  0  0  0  0  0  0
   57.3710   30.3170   45.1990 C   0  0  0  0  0  0  0  0  0  0  0  0
   56.2370   29.9390   44.7980 O   0  0  0  0  0  0  0  0  0  0  0  0
   58.3990   29.4220   45.3340 N   0  0  0  0  0  0  0  0  0  0  0  0
   58.1430   28.0390   45.0090 C   0  0  0  0  0  0  0  0  0  0  0  0
   57.8740   27.1160   46.0270 C   0  0  0  0  0  0  0  0  0  0  0  0
   57.6280   25.7760   45.7140 C   0  0  0  0  0  0  0  0  0  0  0  0
   57.6440   25.3420   44.3760 C   0  0  0  0  0  0  0  0  0  0  0  0
   57.3830   23.9170   44.0420 C   0  0  0  0  0  0  0  0  0  0  0  0
   58.0090   22.8870   44.7660 C   0  0  0  0  0  0  0  0  0  0  0  0
   57.7620   21.5460   44.4490 C   0  0  0  0  0  0  0  0  0  0  0  0
   56.8880   21.2220   43.4090 C   0  0  0  0  0  0  0  0  0  0  0  0
   56.2600   22.2360   42.6840 C   0  0  0  0  0  0  0  0  0  0  0  0
   56.5050   23.5770   42.9950 C   0  0  0  0  0  0  0  0  0  0  0  0
   57.9110   26.2770   43.3580 C   0  0  0  0  0  0  0  0  0  0  0  0
   58.1590   27.6150   43.6740 C   0  0  0  0  0  0  0  0  0  0  0  0
   60.5268   27.9202   45.6771 H   0  0  0  0  0  0  0  0  0  0  0  0
   61.6509   29.3525   46.2382 H   0  0  0  0  0  0  0  0  0  0  0  0
   58.3612   34.1165   45.4696 H   0  0  0  0  0  0  0  0  0  0  0  0
   60.9060   32.6900   47.5810 H   0  0  0  0  0  0  0  0  0  0  0  0
   61.7864   34.8762   48.1269 H   0  0  0  0  0  0  0  0  0  0  0  0
   60.7488   34.8547   49.6054 H   0  0  0  0  0  0  0  0  0  0  0  0
   63.3216   33.4667   49.0546 H   0  0  0  0  0  0  0  0  0  0  0  0
   62.5340   33.9253   50.6254 H   0  0  0  0  0  0  0  0  0  0  0  0
   62.6080   31.6590   50.6320 H   0  0  0  0  0  0  0  0  0  0  0  0
   60.3619   30.9117   50.5320 H   0  0  0  0  0  0  0  0  0  0  0  0
   60.4782   32.5810   51.2096 H   0  0  0  0  0  0  0  0  0  0  0  0
   59.2070   31.6198   48.6916 H   0  0  0  0  0  0  0  0  0  0  0  0
   58.8854   33.1014   49.6916 H   0  0  0  0  0  0  0  0  0  0  0  0
   57.8562   27.4463   47.0761 H   0  0  0  0  0  0  0  0  0  0  0  0
   57.4205   25.0561   46.5194 H   0  0  0  0  0  0  0  0  0  0  0  0
   58.6974   23.1365   45.5869 H   0  0  0  0  0  0  0  0  0  0  0  0
   58.2569   20.7465   45.0198 H   0  0  0  0  0  0  0  0  0  0  0  0
   56.6946   20.1679   43.1613 H   0  0  0  0  0  0  0  0  0  0  0  0
   55.5707   21.9795   41.8660 H   0  0  0  0  0  0  0  0  0  0  0  0
   56.0088   24.3713   42.4181 H   0  0  0  0  0  0  0  0  0  0  0  0
   57.9244   25.9520   42.3072 H   0  0  0  0  0  0  0  0  0  0  0  0
   58.3676   28.3381   42.8717 H   0  0  0  0  0  0  0  0  0  0  0  0
  1  2  2  0
  2  3  1  0
  3  4  2  0
  3  5  1  0
  5  6  2  3
  6  7  1  0
  7  8  2  0
  7  9  1  0
  9 10  1  0
 10 11  1  0
 11 12  1  0
 12 13  1  0
 13 14  1  0
  5 15  1  0
 15 16  1  0
 16 17  2  0
 16 18  1  0
 18 19  1  0
 19 20  2  0
 20 21  1  0
 21 22  2  0
 22 23  1  0
 23 24  2  0
 24 25  1  0
 25 26  2  0
 26 27  1  0
 27 28  2  0
 22 29  1  0
 29 30  2  0
 18  2  1  0
 30 19  1  0
 14  9  1  0
 28 23  1  0
  1 31  1  0
  1 32  1  0
  6 33  1  0
  9 34  1  0
 10 35  1  0
 10 36  1  0
 11 37  1  0
 11 38  1  0
 12 39  1  0
 13 40  1  0
 13 41  1  0
 14 42  1  0
 14 43  1  0
 20 44  1  0
 21 45  1  0
 24 46  1  0
 25 47  1  0
 26 48  1  0
 27 49  1  0
 28 50  1  0
 29 51  1  0
 30 52  1  0
M  CHG  2   9   1  15  -1
M  END
>  <UniqueID>  (91) 
83

>  <SMILES>  (91) 
C=c1c(=O)c(=CC(=O)[NH+]2CCNCC2)[n-]c(=O)n1-c1ccc(-c2ccccc2)cc1

>  <Energy>  (91) 
97.74424526646763

>  <Genealogy>  (91) 
C=c1c(=O)c(=CC(=O)[NH+]2CCNCC2)[n-]c(=O)n1-c1ccc(-c2ccccc2)cc1 (protonated)
C=c1c(=O)c(=CC(=O)[NH+]2CCNCC2)[n-]c(=O)n1-c1ccc(-c2ccccc2)cc1 (3D coordinates assigned)
C=c1c(=O)c(=CC(=O)[NH+]2CCNCC2)[n-]c(=O)n1-c1ccc(-c2ccccc2)cc1 (nonaromatic ring conformer: 97.74424526646763 kcal/mol)

>  <smiles>  (91) 
C=c1c(=O)c(=CC(=O)N2CCNCC2)[nH]c(=O)n1-c1ccc(-c2ccccc2)cc1

>  <score_type>  (91) 
oracle

>  <origin>  (91) 
adg

>  <m_score__min__energy>  (91) 
-9.2100000000000009

>  <m_primary>  (91) 
energy

$$$$
91:0
     RDKit          3D

 70 74  0  0  0  0  0  0  0  0999 V2000
   58.8780   33.9220   52.3940 C   0  0  0  0  0  0  0  0  0  0  0  0
   58.6250   32.7250   51.5140 C   0  0  0  0  0  0  0  0  0  0  0  0
   58.0900   31.5580   52.0800 C   0  0  0  0  0  0  0  0  0  0  0  0
   57.8560   30.4460   51.2680 C   0  0  0  0  0  0  0  0  0  0  0  0
   57.3750   29.3950   51.7660 O   0  0  0  0  0  0  0  0  0  0  0  0
   58.1350   30.4890   49.9700 O   0  0  0  0  0  0  0  0  0  0  0  0
   58.6440   31.5660   49.3800 C   0  0  0  0  0  0  0  0  0  0  0  0
   58.9120   31.5330   48.0070 C   0  0  0  0  0  0  0  0  0  0  0  0
   59.4540   32.6590   47.3590 C   0  0  0  0  0  0  0  0  0  0  0  0
   59.7470   32.6730   45.9850 O   0  0  0  0  0  0  0  0  0  0  0  0
   58.8240   33.0090   44.9480 C   0  0  0  0  0  0  0  0  0  0  0  0
   57.6720   32.0370   44.9050 C   0  0  0  0  0  0  0  0  0  0  0  0
   56.5180   32.4490   45.2040 O   0  0  0  0  0  0  0  0  0  0  0  0
   57.8800   30.6420   44.5870 N   0  0  0  0  0  0  0  0  0  0  0  0
   59.2380   30.0740   44.5860 C   0  0  0  0  0  0  0  0  0  0  0  0
   59.2200   28.5410   44.4640 C   0  0  0  0  0  0  0  0  0  0  0  0
   58.1500   27.8910   45.3690 C   0  0  0  0  0  0  0  0  0  0  0  0
   58.6170   27.8580   46.8070 C   0  0  0  0  0  0  0  0  0  0  0  0
   57.7700   27.7400   47.7350 O   0  0  0  0  0  0  0  0  0  0  0  0
   60.0190   27.9240   47.1130 N   0  0  0  0  0  0  0  0  0  0  0  0
   60.5390   28.1550   48.4330 C   0  0  0  0  0  0  0  0  0  0  0  0
   60.4750   27.1630   49.4280 C   0  0  0  0  0  0  0  0  0  0  0  0
   60.9720   27.4180   50.7090 C   0  0  0  0  0  0  0  0  0  0  0  0
   61.5200   28.6660   51.0140 C   0  0  0  0  0  0  0  0  0  0  0  0
   61.5620   29.6740   50.0420 C   0  0  0  0  0  0  0  0  0  0  0  0
   62.2600   31.2520   50.4270 S   0  0  0  0  0  0  0  0  0  0  0  0
   61.4770   31.8710   51.5510 O   0  0  0  0  0  0  0  0  0  0  0  0
   63.6740   31.0590   50.8980 O   0  0  0  0  0  0  0  0  0  0  0  0
   62.2580   32.3470   49.0650 N   0  0  0  0  0  0  0  0  0  0  0  0
   62.9510   33.5980   49.3640 C   0  0  0  0  0  0  0  0  0  0  0  0
   63.4380   34.1490   48.0310 C   0  0  0  0  0  0  0  0  0  0  0  0
   63.4100   32.9680   47.0720 C   0  0  0  0  0  0  0  0  0  0  0  0
   62.9470   31.7850   47.9060 C   0  0  0  0  0  0  0  0  0  0  0  0
   61.0700   29.4140   48.7550 C   0  0  0  0  0  0  0  0  0  0  0  0
   56.7500   28.5590   45.2420 C   0  0  0  0  0  0  0  0  0  0  0  0
   56.7390   29.7620   44.2940 C   0  0  0  0  0  0  0  0  0  0  0  0
   59.7160   33.8140   48.1030 C   0  0  0  0  0  0  0  0  0  0  0  0
   59.4510   33.8590   49.4740 C   0  0  0  0  0  0  0  0  0  0  0  0
   58.9110   32.7370   50.1300 C   0  0  0  0  0  0  0  0  0  0  0  0
   58.8143   33.6207   53.4500 H   0  0  0  0  0  0  0  0  0  0  0  0
   59.8809   34.3237   52.1871 H   0  0  0  0  0  0  0  0  0  0  0  0
   58.1234   34.6952   52.1871 H   0  0  0  0  0  0  0  0  0  0  0  0
   57.8568   31.5192   53.1543 H   0  0  0  0  0  0  0  0  0  0  0  0
   58.6977   30.6212   47.4302 H   0  0  0  0  0  0  0  0  0  0  0  0
   58.4327   34.0208   45.1303 H   0  0  0  0  0  0  0  0  0  0  0  0
   59.3526   32.9644   43.9843 H   0  0  0  0  0  0  0  0  0  0  0  0
   59.7972   30.4916   43.7358 H   0  0  0  0  0  0  0  0  0  0  0  0
   59.7161   30.3336   45.5420 H   0  0  0  0  0  0  0  0  0  0  0  0
   59.0090   28.2722   43.4184 H   0  0  0  0  0  0  0  0  0  0  0  0
   60.2033   28.1673   44.7855 H   0  0  0  0  0  0  0  0  0  0  0  0
   58.0228   26.8573   45.0152 H   0  0  0  0  0  0  0  0  0  0  0  0
   60.7000   27.7010   46.3530 H   0  0  0  0  0  0  0  0  0  0  0  0
   60.0321   26.1829   49.1971 H   0  0  0  0  0  0  0  0  0  0  0  0
   60.9315   26.6337   51.4792 H   0  0  0  0  0  0  0  0  0  0  0  0
   61.9199   28.8580   52.0206 H   0  0  0  0  0  0  0  0  0  0  0  0
   62.2616   34.3102   49.8410 H   0  0  0  0  0  0  0  0  0  0  0  0
   63.7888   33.4338   50.0576 H   0  0  0  0  0  0  0  0  0  0  0  0
   62.7697   34.9480   47.6774 H   0  0  0  0  0  0  0  0  0  0  0  0
   64.4438   34.5869   48.1119 H   0  0  0  0  0  0  0  0  0  0  0  0
   62.7063   33.1574   46.2480 H   0  0  0  0  0  0  0  0  0  0  0  0
   64.3942   32.7874   46.6150 H   0  0  0  0  0  0  0  0  0  0  0  0
   62.2601   31.1535   47.3234 H   0  0  0  0  0  0  0  0  0  0  0  0
   63.7947   31.1540   48.2112 H   0  0  0  0  0  0  0  0  0  0  0  0
   61.1004   30.2041   47.9903 H   0  0  0  0  0  0  0  0  0  0  0  0
   56.0382   27.8100   44.8646 H   0  0  0  0  0  0  0  0  0  0  0  0
   56.4718   28.9272   46.2405 H   0  0  0  0  0  0  0  0  0  0  0  0
   56.8092   29.4079   43.2549 H   0  0  0  0  0  0  0  0  0  0  0  0
   55.8037   30.3239   44.4336 H   0  0  0  0  0  0  0  0  0  0  0  0
   60.1362   34.6986   47.6021 H   0  0  0  0  0  0  0  0  0  0  0  0
   59.6654   34.7755   50.0433 H   0  0  0  0  0  0  0  0  0  0  0  0
  1  2  1  0
  2  3  2  0
  3  4  1  0
  4  5  2  0
  4  6  1  0
  6  7  1  0
  7  8  2  0
  8  9  1  0
  9 10  1  0
 10 11  1  0
 11 12  1  0
 12 13  2  0
 12 14  1  0
 14 15  1  0
 15 16  1  0
 16 17  1  0
 17 18  1  0
 18 19  2  0
 18 20  1  0
 20 21  1  0
 21 22  2  0
 22 23  1  0
 23 24  2  0
 24 25  1  0
 25 26  1  0
 26 27  2  0
 26 28  2  0
 26 29  1  0
 29 30  1  0
 30 31  1  0
 31 32  1  0
 32 33  1  0
 25 34  2  0
 17 35  1  0
 35 36  1  0
  9 37  2  0
 37 38  1  0
 38 39  2  0
 39  2  1  0
 39  7  1  0
 36 14  1  0
 34 21  1  0
 33 29  1  0
  1 40  1  0
  1 41  1  0
  1 42  1  0
  3 43  1  0
  8 44  1  0
 11 45  1  0
 11 46  1  0
 15 47  1  0
 15 48  1  0
 16 49  1  0
 16 50  1  0
 17 51  1  0
 20 52  1  0
 22 53  1  0
 23 54  1  0
 24 55  1  0
 30 56  1  0
 30 57  1  0
 31 58  1  0
 31 59  1  0
 32 60  1  0
 32 61  1  0
 33 62  1  0
 33 63  1  0
 34 64  1  0
 35 65  1  0
 35 66  1  0
 36 67  1  0
 36 68  1  0
 37 69  1  0
 38 70  1  0
M  END
>  <UniqueID>  (92) 
84

>  <SMILES>  (92) 
Cc1cc(=O)oc2cc(OCC(=O)N3CCC(C(=O)Nc4cccc(S(=O)(=O)N5CCCC5)c4)CC3)ccc12

>  <Energy>  (92) 
87.16229092671023

>  <Genealogy>  (92) 
Cc1cc(=O)oc2cc(OCC(=O)N3CCC(C(=O)Nc4cccc(S(=O)(=O)N5CCCC5)c4)CC3)ccc12 (3D coordinates assigned)
Cc1cc(=O)oc2cc(OCC(=O)N3CCC(C(=O)Nc4cccc(S(=O)(=O)N5CCCC5)c4)CC3)ccc12 (nonaromatic ring conformer: 87.16229092671023 kcal/mol)

>  <smiles>  (92) 
Cc1cc(=O)oc2cc(OCC(=O)N3CCC(C(=O)Nc4cccc(S(=O)(=O)N5CCCC5)c4)CC3)ccc12

>  <score_type>  (92) 
oracle

>  <origin>  (92) 
adg

>  <m_score__min__energy>  (92) 
-12.02

>  <m_primary>  (92) 
energy

$$$$
92:0
     RDKit          3D

 69 72  0  0  0  0  0  0  0  0999 V2000
   59.7770   22.2140   44.5490 C   0  0  0  0  0  0  0  0  0  0  0  0
   59.4760   23.0820   45.6360 O   0  0  0  0  0  0  0  0  0  0  0  0
   58.3380   23.9010   45.7060 C   0  0  0  0  0  0  0  0  0  0  0  0
   57.1130   23.3710   45.2930 C   0  0  0  0  0  0  0  0  0  0  0  0
   55.9510   24.1420   45.3480 C   0  0  0  0  0  0  0  0  0  0  0  0
   55.9910   25.4570   45.8240 C   0  0  0  0  0  0  0  0  0  0  0  0
   54.7960   26.1790   45.8660 O   0  0  0  0  0  0  0  0  0  0  0  0
   57.2230   26.0110   46.2470 C   0  0  0  0  0  0  0  0  0  0  0  0
   57.3190   27.4310   46.7510 C   0  0  0  0  0  0  0  0  0  0  0  0
   57.1920   28.3890   45.6330 N   0  0  0  0  0  0  0  0  0  0  0  0
   57.7320   27.8850   44.3500 C   0  0  0  0  0  0  0  0  0  0  0  0
   59.2640   27.9360   44.2870 C   0  0  0  0  0  0  0  0  0  0  0  0
   59.7740   29.3470   44.5870 C   0  0  0  0  0  0  0  0  0  0  0  0
   59.2290   29.8730   45.9300 C   0  0  2  0  0  0  0  0  0  0  0  0
   59.8840   29.2340   47.1360 C   0  0  0  0  0  0  0  0  0  0  0  0
   60.0620   27.9840   47.1890 O   0  0  0  0  0  0  0  0  0  0  0  0
   60.3470   30.0610   48.2060 N   0  0  0  0  0  0  0  0  0  0  0  0
   60.9090   29.5200   49.4370 C   0  0  0  0  0  0  0  0  0  0  0  0
   59.9300   29.7300   50.5930 C   0  0  0  0  0  0  0  0  0  0  0  0
   58.5780   30.2690   50.1080 C   0  0  0  0  0  0  0  0  0  0  0  0
   58.4800   31.7520   50.3180 C   0  0  0  0  0  0  0  0  0  0  0  0
   57.5440   32.2290   51.0200 O   0  0  0  0  0  0  0  0  0  0  0  0
   59.4710   32.6300   49.7610 N   0  0  0  0  0  0  0  0  0  0  0  0
   60.4670   33.1960   50.6830 C   0  0  0  0  0  0  0  0  0  0  0  0
   61.6840   33.7260   49.9190 C   0  0  0  0  0  0  0  0  0  0  0  0
   61.2660   34.5710   48.8500 O   0  0  0  0  0  0  0  0  0  0  0  0
   60.1980   34.2110   48.0250 C   0  0  0  0  0  0  0  0  0  0  0  0
   60.0270   34.8460   46.7920 C   0  0  0  0  0  0  0  0  0  0  0  0
   58.9920   34.4520   45.9400 C   0  0  0  0  0  0  0  0  0  0  0  0
   58.1280   33.4120   46.3130 C   0  0  0  0  0  0  0  0  0  0  0  0
   57.0130   32.9820   45.4040 C   0  0  0  0  0  0  0  0  0  0  0  0
   58.2820   32.7960   47.5650 C   0  0  0  0  0  0  0  0  0  0  0  0
   59.3050   33.2080   48.4430 C   0  0  0  0  0  0  0  0  0  0  0  0
   57.6850   29.7480   45.9570 C   0  0  0  0  0  0  0  0  0  0  0  0
   58.3880   25.2270   46.1790 C   0  0  0  0  0  0  0  0  0  0  0  0
   60.1141   21.2420   44.9384 H   0  0  0  0  0  0  0  0  0  0  0  0
   58.8762   22.0703   43.9342 H   0  0  0  0  0  0  0  0  0  0  0  0
   60.5734   22.6588   43.9342 H   0  0  0  0  0  0  0  0  0  0  0  0
   57.0640   22.3369   44.9212 H   0  0  0  0  0  0  0  0  0  0  0  0
   54.9952   23.7120   45.0141 H   0  0  0  0  0  0  0  0  0  0  0  0
   54.7570   27.1800   45.9960 H   0  0  0  0  0  0  0  0  0  0  0  0
   56.5121   27.6126   47.4762 H   0  0  0  0  0  0  0  0  0  0  0  0
   58.2993   27.5721   47.2295 H   0  0  0  0  0  0  0  0  0  0  0  0
   57.4097   26.8415   44.2191 H   0  0  0  0  0  0  0  0  0  0  0  0
   57.3465   28.5353   43.5509 H   0  0  0  0  0  0  0  0  0  0  0  0
   59.6788   27.2375   45.0286 H   0  0  0  0  0  0  0  0  0  0  0  0
   59.5846   27.6536   43.2734 H   0  0  0  0  0  0  0  0  0  0  0  0
   60.8730   29.3278   44.6305 H   0  0  0  0  0  0  0  0  0  0  0  0
   59.4245   30.0168   43.7875 H   0  0  0  0  0  0  0  0  0  0  0  0
   59.4946   30.9380   46.0019 H   0  0  0  0  0  0  0  0  0  0  0  0
   61.0974   28.4438   49.3097 H   0  0  0  0  0  0  0  0  0  0  0  0
   61.8524   30.0387   49.6628 H   0  0  0  0  0  0  0  0  0  0  0  0
   59.7676   28.7677   51.1006 H   0  0  0  0  0  0  0  0  0  0  0  0
   60.3663   30.4716   51.2783 H   0  0  0  0  0  0  0  0  0  0  0  0
   58.4679   30.0501   49.0356 H   0  0  0  0  0  0  0  0  0  0  0  0
   57.7798   29.7810   50.6865 H   0  0  0  0  0  0  0  0  0  0  0  0
   60.0077   34.0222   51.2455 H   0  0  0  0  0  0  0  0  0  0  0  0
   60.8014   32.4025   51.3675 H   0  0  0  0  0  0  0  0  0  0  0  0
   62.3229   34.2995   50.6067 H   0  0  0  0  0  0  0  0  0  0  0  0
   62.2454   32.8755   49.5050 H   0  0  0  0  0  0  0  0  0  0  0  0
   60.7076   35.6565   46.4920 H   0  0  0  0  0  0  0  0  0  0  0  0
   58.8544   34.9591   44.9736 H   0  0  0  0  0  0  0  0  0  0  0  0
   56.1549   32.6511   46.0075 H   0  0  0  0  0  0  0  0  0  0  0  0
   56.7104   33.8279   44.7693 H   0  0  0  0  0  0  0  0  0  0  0  0
   57.3568   32.1520   44.7693 H   0  0  0  0  0  0  0  0  0  0  0  0
   57.5997   31.9863   47.8630 H   0  0  0  0  0  0  0  0  0  0  0  0
   57.3325   30.0143   46.9644 H   0  0  0  0  0  0  0  0  0  0  0  0
   57.2940   30.4249   45.1831 H   0  0  0  0  0  0  0  0  0  0  0  0
   59.3499   25.6540   46.4989 H   0  0  0  0  0  0  0  0  0  0  0  0
  1  2  1  0
  2  3  1  0
  3  4  2  0
  4  5  1  0
  5  6  2  0
  6  7  1  0
  6  8  1  0
  8  9  1  0
  9 10  1  0
 10 11  1  0
 11 12  1  0
 12 13  1  0
 13 14  1  0
 14 15  1  0
 15 16  2  0
 15 17  1  0
 17 18  1  0
 18 19  1  0
 19 20  1  0
 20 21  1  0
 21 22  2  0
 21 23  1  0
 23 24  1  0
 24 25  1  0
 25 26  1  0
 26 27  1  0
 27 28  2  0
 28 29  1  0
 29 30  2  0
 30 31  1  0
 30 32  1  0
 32 33  2  0
 14 34  1  0
  8 35  2  0
 35  3  1  0
 34 10  1  0
 33 23  1  0
 33 27  1  0
  1 36  1  0
  1 37  1  0
  1 38  1  0
  4 39  1  0
  5 40  1  0
  7 41  1  0
  9 42  1  0
  9 43  1  0
 11 44  1  0
 11 45  1  0
 12 46  1  0
 12 47  1  0
 13 48  1  0
 13 49  1  0
 14 50  1  1
 18 51  1  0
 18 52  1  0
 19 53  1  0
 19 54  1  0
 20 55  1  0
 20 56  1  0
 24 57  1  0
 24 58  1  0
 25 59  1  0
 25 60  1  0
 28 61  1  0
 29 62  1  0
 31 63  1  0
 31 64  1  0
 31 65  1  0
 32 66  1  0
 34 67  1  0
 34 68  1  0
 35 69  1  0
M  CHG  1  17  -1
M  END
>  <UniqueID>  (93) 
85

>  <SMILES>  (93) 
COc1ccc(O)c(CN2CCC[C@H](C(=O)[N-]CCCC(=O)N3CCOc4ccc(C)cc43)C2)c1

>  <Energy>  (93) 
74.43762544878075

>  <Genealogy>  (93) 
COc1ccc(O)c(CN2CCCC(C(=O)[N-]CCCC(=O)N3CCOc4ccc(C)cc43)C2)c1 (protonated)
COc1ccc(O)c(CN2CCC[C@H](C(=O)[N-]CCCC(=O)N3CCOc4ccc(C)cc43)C2)c1 (chirality)
COc1ccc(O)c(CN2CCC[C@H](C(=O)[N-]CCCC(=O)N3CCOc4ccc(C)cc43)C2)c1 (3D coordinates assigned)
COc1ccc(O)c(CN2CCC[C@H](C(=O)[N-]CCCC(=O)N3CCOc4ccc(C)cc43)C2)c1 (nonaromatic ring conformer: 74.43762544878075 kcal/mol)

>  <smiles>  (93) 
COc1ccc(O)c(CN2CCCC(C(=O)NCCCC(=O)N3CCOc4ccc(C)cc43)C2)c1

>  <score_type>  (93) 
oracle

>  <origin>  (93) 
adg

>  <m_score__min__energy>  (93) 
-11.93

>  <m_primary>  (93) 
energy

$$$$
