0:0
     RDKit          3D

 43 45  0  0  0  0  0  0  0  0999 V2000
   49.9840   33.3710   52.2800 O   0  0  0  0  0  0  0  0  0  0  0  0
   50.9610   32.3920   52.1630 C   0  0  0  0  0  0  0  0  0  0  0  0
   51.4100   31.7200   53.3040 C   0  0  0  0  0  0  0  0  0  0  0  0
   52.3920   30.7330   53.1990 C   0  0  0  0  0  0  0  0  0  0  0  0
   52.9660   30.4300   51.9500 C   0  0  0  0  0  0  0  0  0  0  0  0
   54.0560   29.3760   51.8360 C   0  0  0  0  0  0  0  0  0  0  0  0
   55.3780   29.8250   52.3370 N   0  0  0  0  0  0  0  0  0  0  0  0
   55.6090   29.5500   53.7660 C   0  0  0  0  0  0  0  0  0  0  0  0
   57.1110   29.6250   54.0530 C   0  0  0  0  0  0  0  0  0  0  0  0
   57.7370   30.7400   53.3150 N   0  0  0  0  0  0  0  0  0  0  0  0
   59.1750   30.9030   53.3410 C   0  0  0  0  0  0  0  0  0  0  0  0
   60.0300   30.4610   54.6850 S   0  0  0  0  0  0  0  0  0  0  0  0
   59.8710   31.5900   52.2850 N   0  0  0  0  0  0  0  0  0  0  0  0
   59.4800   31.5660   50.8980 C   0  0  0  0  0  0  0  0  0  0  0  0
   59.1860   32.7780   50.2540 C   0  0  0  0  0  0  0  0  0  0  0  0
   58.7660   32.7950   48.9190 C   0  0  0  0  0  0  0  0  0  0  0  0
   58.6550   31.5930   48.2030 C   0  0  0  0  0  0  0  0  0  0  0  0
   58.9730   30.3790   48.8200 C   0  0  0  0  0  0  0  0  0  0  0  0
   58.8330   28.8770   47.9030 Cl  0  0  0  0  0  0  0  0  0  0  0  0
   59.3890   30.3590   50.1660 C   0  0  0  0  0  0  0  0  0  0  0  0
   59.7250   29.1460   50.7620 O   0  0  0  0  0  0  0  0  0  0  0  0
   56.8650   31.8020   52.7930 C   0  0  0  0  0  0  0  0  0  0  0  0
   55.7410   31.2030   51.9250 C   0  0  0  0  0  0  0  0  0  0  0  0
   52.4960   31.0990   50.8030 C   0  0  0  0  0  0  0  0  0  0  0  0
   51.4940   32.0720   50.9090 C   0  0  0  0  0  0  0  0  0  0  0  0
   51.0260   32.7170   49.7670 O   0  0  0  0  0  0  0  0  0  0  0  0
   50.9878   31.9700   54.2885 H   0  0  0  0  0  0  0  0  0  0  0  0
   52.7189   30.1891   54.0975 H   0  0  0  0  0  0  0  0  0  0  0  0
   53.7470   28.4935   52.4155 H   0  0  0  0  0  0  0  0  0  0  0  0
   54.1774   29.1553   50.7652 H   0  0  0  0  0  0  0  0  0  0  0  0
   55.0796   30.2972   54.3754 H   0  0  0  0  0  0  0  0  0  0  0  0
   55.2330   28.5470   54.0164 H   0  0  0  0  0  0  0  0  0  0  0  0
   57.2637   29.7772   55.1317 H   0  0  0  0  0  0  0  0  0  0  0  0
   57.5771   28.6837   53.7262 H   0  0  0  0  0  0  0  0  0  0  0  0
   60.6820   32.1930   52.5670 H   0  0  0  0  0  0  0  0  0  0  0  0
   59.2868   33.7249   50.8046 H   0  0  0  0  0  0  0  0  0  0  0  0
   58.5229   33.7504   48.4310 H   0  0  0  0  0  0  0  0  0  0  0  0
   58.3177   31.6059   47.1561 H   0  0  0  0  0  0  0  0  0  0  0  0
   56.4181   32.3497   53.6358 H   0  0  0  0  0  0  0  0  0  0  0  0
   57.4671   32.4828   52.1734 H   0  0  0  0  0  0  0  0  0  0  0  0
   54.8503   31.8429   52.0104 H   0  0  0  0  0  0  0  0  0  0  0  0
   56.1077   31.1563   50.8890 H   0  0  0  0  0  0  0  0  0  0  0  0
   52.9188   30.8556   49.8171 H   0  0  0  0  0  0  0  0  0  0  0  0
  1  2  1  0
  2  3  2  0
  3  4  1  0
  4  5  2  0
  5  6  1  0
  6  7  1  0
  7  8  1  0
  8  9  1  0
  9 10  1  0
 10 11  1  0
 11 12  2  0
 11 13  1  0
 13 14  1  0
 14 15  2  0
 15 16  1  0
 16 17  2  0
 17 18  1  0
 18 19  1  0
 18 20  2  0
 20 21  1  0
 10 22  1  0
 22 23  1  0
  5 24  1  0
 24 25  2  0
 25 26  1  0
 25  2  1  0
 23  7  1  0
 20 14  1  0
  3 27  1  0
  4 28  1  0
  6 29  1  0
  6 30  1  0
  8 31  1  0
  8 32  1  0
  9 33  1  0
  9 34  1  0
 13 35  1  0
 15 36  1  0
 16 37  1  0
 17 38  1  0
 22 39  1  0
 22 40  1  0
 23 41  1  0
 23 42  1  0
 24 43  1  0
M  CHG  3   1  -1  21  -1  26  -1
M  END
>  <UniqueID>  (1) 
1

>  <SMILES>  (1) 
[O-]c1ccc(CN2CCN(C(=S)Nc3cccc(Cl)c3[O-])CC2)cc1[O-]

>  <Energy>  (1) 
61.01427717129332

>  <Genealogy>  (1) 
[O-]c1ccc(CN2CCN(C(=S)Nc3cccc(Cl)c3[O-])CC2)cc1[O-] (protonated)
[O-]c1ccc(CN2CCN(C(=S)Nc3cccc(Cl)c3[O-])CC2)cc1[O-] (3D coordinates assigned)
[O-]c1ccc(CN2CCN(C(=S)Nc3cccc(Cl)c3[O-])CC2)cc1[O-] (nonaromatic ring conformer: 61.01427717129332 kcal/mol)

>  <smiles>  (1) 
Oc1ccc(CN2CCN(C(=S)Nc3cccc(Cl)c3O)CC2)cc1O

>  <score_type>  (1) 
oracle

>  <origin>  (1) 
adg

>  <m_score__min__energy>  (1) 
-17

>  <m_primary>  (1) 
energy

$$$$
1:0
     RDKit          3D

 71 74  0  0  0  0  0  0  0  0999 V2000
   56.6690   30.2390   44.1520 C   0  0  0  0  0  0  0  0  0  0  0  0
   58.0790   30.7270   43.8260 C   0  0  0  0  0  0  0  0  0  0  0  0
   58.0950   32.1850   43.6270 N   0  0  0  0  0  0  0  0  0  0  0  0
   57.8400   32.7090   42.2750 C   0  0  0  0  0  0  0  0  0  0  0  0
   57.0190   31.7160   41.4560 C   0  0  0  0  0  0  0  0  0  0  0  0
   58.2980   33.1080   44.7250 C   0  0  0  0  0  0  0  0  0  0  0  0
   58.1670   34.3490   44.5330 O   0  0  0  0  0  0  0  0  0  0  0  0
   58.6370   32.6540   46.0870 C   0  0  0  0  0  0  0  0  0  0  0  0
   58.4500   31.0850   46.6510 S   0  0  0  0  0  0  0  0  0  0  0  0
   59.1360   31.3260   48.1630 C   0  0  0  0  0  0  0  0  0  0  0  0
   59.2430   30.2440   49.1070 N   0  0  0  0  0  0  0  0  0  0  0  0
   59.5490   28.8490   48.9710 C   0  0  0  0  0  0  0  0  0  0  0  0
   60.0150   28.1880   49.9330 O   0  0  0  0  0  0  0  0  0  0  0  0
   59.3050   28.1700   47.6760 C   0  0  0  0  0  0  0  0  0  0  0  0
   60.2310   28.2880   46.6220 C   0  0  0  0  0  0  0  0  0  0  0  0
   60.0000   27.6480   45.4010 C   0  0  0  0  0  0  0  0  0  0  0  0
   58.8480   26.8820   45.2180 C   0  0  0  0  0  0  0  0  0  0  0  0
   57.9170   26.7520   46.2560 C   0  0  0  0  0  0  0  0  0  0  0  0
   56.4640   25.7780   46.0460 S   0  0  0  0  0  0  0  0  0  0  0  0
   55.2530   26.6670   45.9640 O   0  0  0  0  0  0  0  0  0  0  0  0
   56.3240   24.8720   47.2380 O   0  0  0  0  0  0  0  0  0  0  0  0
   56.6050   24.8200   44.5880 N   0  0  0  0  0  0  0  0  0  0  0  0
   55.4260   23.9630   44.4180 C   0  0  0  0  0  0  0  0  0  0  0  0
   55.7290   22.6110   45.0460 C   0  0  0  0  0  0  0  0  0  0  0  0
   57.2360   22.5720   45.2230 C   0  0  0  0  0  0  0  0  0  0  0  0
   57.7450   23.9020   44.6870 C   0  0  0  0  0  0  0  0  0  0  0  0
   58.1480   27.3920   47.4800 C   0  0  0  0  0  0  0  0  0  0  0  0
   59.5490   32.6680   48.2500 C   0  0  0  0  0  0  0  0  0  0  0  0
   60.2090   33.2920   49.4060 C   0  0  0  0  0  0  0  0  0  0  0  0
   59.4850   33.8380   50.2810 O   0  0  0  0  0  0  0  0  0  0  0  0
   61.6440   33.2490   49.5680 N   0  0  0  0  0  0  0  0  0  0  0  0
   62.2480   33.7540   50.8090 C   0  0  0  0  0  0  0  0  0  0  0  0
   63.6880   34.2070   50.5530 C   0  0  0  0  0  0  0  0  0  0  0  0
   64.4260   33.1920   49.9030 O   0  0  0  0  0  0  0  0  0  0  0  0
   63.8990   32.9820   48.6080 C   0  0  0  0  0  0  0  0  0  0  0  0
   62.4760   32.4200   48.6820 C   0  0  0  0  0  0  0  0  0  0  0  0
   59.2620   33.4100   47.0800 C   0  0  0  0  0  0  0  0  0  0  0  0
   59.6300   34.8590   46.9030 C   0  0  0  0  0  0  0  0  0  0  0  0
   56.5397   30.1942   45.2435 H   0  0  0  0  0  0  0  0  0  0  0  0
   55.9321   30.9344   43.7237 H   0  0  0  0  0  0  0  0  0  0  0  0
   56.5196   29.2369   43.7237 H   0  0  0  0  0  0  0  0  0  0  0  0
   58.7510   30.4693   44.6578 H   0  0  0  0  0  0  0  0  0  0  0  0
   58.4142   30.2410   42.8979 H   0  0  0  0  0  0  0  0  0  0  0  0
   57.2867   33.6565   42.3536 H   0  0  0  0  0  0  0  0  0  0  0  0
   58.8044   32.8702   41.7711 H   0  0  0  0  0  0  0  0  0  0  0  0
   56.4673   31.0487   42.1345 H   0  0  0  0  0  0  0  0  0  0  0  0
   56.3069   32.2642   40.8217 H   0  0  0  0  0  0  0  0  0  0  0  0
   57.6913   31.1196   40.8217 H   0  0  0  0  0  0  0  0  0  0  0  0
   61.1425   28.8880   46.7604 H   0  0  0  0  0  0  0  0  0  0  0  0
   60.7280   27.7484   44.5825 H   0  0  0  0  0  0  0  0  0  0  0  0
   58.6708   26.3790   44.2559 H   0  0  0  0  0  0  0  0  0  0  0  0
   54.5583   24.4196   44.9167 H   0  0  0  0  0  0  0  0  0  0  0  0
   55.1934   23.8430   43.3496 H   0  0  0  0  0  0  0  0  0  0  0  0
   55.2255   22.5183   46.0196 H   0  0  0  0  0  0  0  0  0  0  0  0
   55.3711   21.7813   44.4187 H   0  0  0  0  0  0  0  0  0  0  0  0
   57.4951   22.4620   46.2864 H   0  0  0  0  0  0  0  0  0  0  0  0
   57.6864   21.7200   44.6927 H   0  0  0  0  0  0  0  0  0  0  0  0
   58.4989   24.3163   45.3726 H   0  0  0  0  0  0  0  0  0  0  0  0
   58.2087   23.7624   43.6993 H   0  0  0  0  0  0  0  0  0  0  0  0
   57.4184   27.2858   48.2963 H   0  0  0  0  0  0  0  0  0  0  0  0
   61.6595   34.6069   51.1781 H   0  0  0  0  0  0  0  0  0  0  0  0
   62.2541   32.9482   51.5577 H   0  0  0  0  0  0  0  0  0  0  0  0
   63.6758   35.1060   49.9192 H   0  0  0  0  0  0  0  0  0  0  0  0
   64.1656   34.4259   51.5195 H   0  0  0  0  0  0  0  0  0  0  0  0
   63.8804   33.9396   48.0670 H   0  0  0  0  0  0  0  0  0  0  0  0
   64.5368   32.2562   48.0822 H   0  0  0  0  0  0  0  0  0  0  0  0
   62.0362   32.4124   47.6738 H   0  0  0  0  0  0  0  0  0  0  0  0
   62.5163   31.3968   49.0838 H   0  0  0  0  0  0  0  0  0  0  0  0
   59.7496   35.3301   47.8898 H   0  0  0  0  0  0  0  0  0  0  0  0
   60.5751   34.9317   46.3449 H   0  0  0  0  0  0  0  0  0  0  0  0
   58.8341   35.3739   46.3449 H   0  0  0  0  0  0  0  0  0  0  0  0
  1  2  1  0
  2  3  1  0
  3  4  1  0
  4  5  1  0
  3  6  1  0
  6  7  2  0
  6  8  1  0
  8  9  1  0
  9 10  1  0
 10 11  1  0
 11 12  1  0
 12 13  2  0
 12 14  1  0
 14 15  2  0
 15 16  1  0
 16 17  2  0
 17 18  1  0
 18 19  1  0
 19 20  2  0
 19 21  2  0
 19 22  1  0
 22 23  1  0
 23 24  1  0
 24 25  1  0
 25 26  1  0
 18 27  2  0
 10 28  2  0
 28 29  1  0
 29 30  2  0
 29 31  1  0
 31 32  1  0
 32 33  1  0
 33 34  1  0
 34 35  1  0
 35 36  1  0
 28 37  1  0
 37 38  1  0
 37  8  2  0
 27 14  1  0
 36 31  1  0
 26 22  1  0
  1 39  1  0
  1 40  1  0
  1 41  1  0
  2 42  1  0
  2 43  1  0
  4 44  1  0
  4 45  1  0
  5 46  1  0
  5 47  1  0
  5 48  1  0
 15 49  1  0
 16 50  1  0
 17 51  1  0
 23 52  1  0
 23 53  1  0
 24 54  1  0
 24 55  1  0
 25 56  1  0
 25 57  1  0
 26 58  1  0
 26 59  1  0
 27 60  1  0
 32 61  1  0
 32 62  1  0
 33 63  1  0
 33 64  1  0
 35 65  1  0
 35 66  1  0
 36 67  1  0
 36 68  1  0
 38 69  1  0
 38 70  1  0
 38 71  1  0
M  CHG  1  11  -1
M  END
>  <UniqueID>  (2) 
2

>  <SMILES>  (2) 
CCN(CC)C(=O)c1sc([N-]C(=O)c2cccc(S(=O)(=O)N3CCCC3)c2)c(C(=O)N2CCOCC2)c1C

>  <Energy>  (2) 
116.55264706203111

>  <Genealogy>  (2) 
CCN(CC)C(=O)c1sc([N-]C(=O)c2cccc(S(=O)(=O)N3CCCC3)c2)c(C(=O)N2CCOCC2)c1C (protonated)
CCN(CC)C(=O)c1sc([N-]C(=O)c2cccc(S(=O)(=O)N3CCCC3)c2)c(C(=O)N2CCOCC2)c1C (3D coordinates assigned)
CCN(CC)C(=O)c1sc([N-]C(=O)c2cccc(S(=O)(=O)N3CCCC3)c2)c(C(=O)N2CCOCC2)c1C (nonaromatic ring conformer: 116.55264706203111 kcal/mol)

>  <smiles>  (2) 
CCN(CC)C(=O)c1sc(NC(=O)c2cccc(S(=O)(=O)N3CCCC3)c2)c(C(=O)N2CCOCC2)c1C

>  <score_type>  (2) 
oracle

>  <origin>  (2) 
adg

>  <m_score__min__energy>  (2) 
-12.19

>  <m_primary>  (2) 
energy

$$$$
2:0
     RDKit          3D

 59 62  0  0  0  0  0  0  0  0999 V2000
   56.2550   30.6400   44.8680 O   0  0  0  0  0  0  0  0  0  0  0  0
   57.5460   30.9790   44.1750 S   0  0  0  0  0  0  0  0  0  0  0  0
   57.2700   31.2440   42.7210 O   0  0  0  0  0  0  0  0  0  0  0  0
   58.2120   32.4280   44.9210 C   0  0  0  0  0  0  0  0  0  0  0  0
   58.6930   33.4750   44.1260 C   0  0  0  0  0  0  0  0  0  0  0  0
   59.2190   34.6190   44.7250 C   0  0  0  0  0  0  0  0  0  0  0  0
   59.2740   34.7230   46.1190 C   0  0  0  0  0  0  0  0  0  0  0  0
   58.8090   33.6820   46.9280 C   0  0  0  0  0  0  0  0  0  0  0  0
   58.9230   33.8000   48.3550 N   0  0  0  0  0  0  0  0  0  0  0  0
   59.3460   32.7270   49.2060 C   0  0  0  0  0  0  0  0  0  0  0  0
   58.1980   32.0230   50.1610 S   0  0  0  0  0  0  0  0  0  0  0  0
   60.7280   32.2870   49.2240 N   0  0  0  0  0  0  0  0  0  0  0  0
   61.7660   33.0120   48.4900 C   0  0  0  0  0  0  0  0  0  0  0  0
   62.5760   33.8680   49.4690 C   0  0  0  0  0  0  0  0  0  0  0  0
   63.0470   33.1110   50.6480 N   0  0  0  0  0  0  0  0  0  0  0  0
   64.6220   32.3740   50.4350 S   0  0  0  0  0  0  0  0  0  0  0  0
   64.7990   31.9670   48.9980 O   0  0  0  0  0  0  0  0  0  0  0  0
   64.6830   31.1250   51.2700 O   0  0  0  0  0  0  0  0  0  0  0  0
   65.9660   33.4190   50.8950 C   0  0  0  0  0  0  0  0  0  0  0  0
   65.7560   34.4930   51.7750 C   0  0  0  0  0  0  0  0  0  0  0  0
   66.8320   35.2860   52.1830 C   0  0  0  0  0  0  0  0  0  0  0  0
   68.1210   35.0160   51.7130 C   0  0  0  0  0  0  0  0  0  0  0  0
   68.3360   33.9450   50.8430 C   0  0  0  0  0  0  0  0  0  0  0  0
   67.2650   33.1410   50.4430 C   0  0  0  0  0  0  0  0  0  0  0  0
   62.0420   32.2270   51.2740 C   0  0  0  0  0  0  0  0  0  0  0  0
   61.2640   31.3930   50.2550 C   0  0  0  0  0  0  0  0  0  0  0  0
   58.2690   32.5350   46.3170 C   0  0  0  0  0  0  0  0  0  0  0  0
   58.6800   29.6520   44.3450 N   0  0  0  0  0  0  0  0  0  0  0  0
   58.1150   28.3700   43.8690 C   0  0  0  0  0  0  0  0  0  0  0  0
   57.5960   27.4860   45.0160 C   0  0  0  0  0  0  0  0  0  0  0  0
   57.1020   28.2860   46.0660 O   0  0  0  0  0  0  0  0  0  0  0  0
   58.1680   28.9620   46.7080 C   0  0  0  0  0  0  0  0  0  0  0  0
   59.2030   29.5570   45.7200 C   0  0  0  0  0  0  0  0  0  0  0  0
   58.6560   33.3953   43.0295 H   0  0  0  0  0  0  0  0  0  0  0  0
   59.5922   35.4429   44.0990 H   0  0  0  0  0  0  0  0  0  0  0  0
   59.6865   35.6314   46.5824 H   0  0  0  0  0  0  0  0  0  0  0  0
   58.5220   34.6360   48.8140 H   0  0  0  0  0  0  0  0  0  0  0  0
   62.4332   32.2934   47.9916 H   0  0  0  0  0  0  0  0  0  0  0  0
   61.2979   33.6603   47.7346 H   0  0  0  0  0  0  0  0  0  0  0  0
   63.4515   34.2718   48.9395 H   0  0  0  0  0  0  0  0  0  0  0  0
   61.9122   34.6653   49.8347 H   0  0  0  0  0  0  0  0  0  0  0  0
   64.7428   34.7105   52.1438 H   0  0  0  0  0  0  0  0  0  0  0  0
   66.6646   36.1243   52.8753 H   0  0  0  0  0  0  0  0  0  0  0  0
   68.9651   35.6468   52.0284 H   0  0  0  0  0  0  0  0  0  0  0  0
   69.3498   33.7338   50.4720 H   0  0  0  0  0  0  0  0  0  0  0  0
   67.4410   32.2875   49.7717 H   0  0  0  0  0  0  0  0  0  0  0  0
   62.5575   31.5444   51.9656 H   0  0  0  0  0  0  0  0  0  0  0  0
   61.3175   32.8694   51.7960 H   0  0  0  0  0  0  0  0  0  0  0  0
   61.9352   30.6548   49.7918 H   0  0  0  0  0  0  0  0  0  0  0  0
   60.4401   30.8637   50.7560 H   0  0  0  0  0  0  0  0  0  0  0  0
   57.8877   31.7139   46.9418 H   0  0  0  0  0  0  0  0  0  0  0  0
   57.2802   28.5857   43.1859 H   0  0  0  0  0  0  0  0  0  0  0  0
   58.9223   27.8187   43.3647 H   0  0  0  0  0  0  0  0  0  0  0  0
   56.7879   26.8414   44.6400 H   0  0  0  0  0  0  0  0  0  0  0  0
   58.4244   26.8698   45.3954 H   0  0  0  0  0  0  0  0  0  0  0  0
   57.7489   29.7819   47.3097 H   0  0  0  0  0  0  0  0  0  0  0  0
   58.6971   28.2214   47.3258 H   0  0  0  0  0  0  0  0  0  0  0  0
   59.4792   30.5650   46.0629 H   0  0  0  0  0  0  0  0  0  0  0  0
   60.0729   28.8840   45.7013 H   0  0  0  0  0  0  0  0  0  0  0  0
  1  2  2  0
  2  3  2  0
  2  4  1  0
  4  5  2  0
  5  6  1  0
  6  7  2  0
  7  8  1  0
  8  9  1  0
  9 10  1  0
 10 11  2  0
 10 12  1  0
 12 13  1  0
 13 14  1  0
 14 15  1  0
 15 16  1  0
 16 17  2  0
 16 18  2  0
 16 19  1  0
 19 20  2  0
 20 21  1  0
 21 22  2  0
 22 23  1  0
 23 24  2  0
 15 25  1  0
 25 26  1  0
  8 27  2  0
  2 28  1  0
 28 29  1  0
 29 30  1  0
 30 31  1  0
 31 32  1  0
 32 33  1  0
 27  4  1  0
 33 28  1  0
 26 12  1  0
 24 19  1  0
  5 34  1  0
  6 35  1  0
  7 36  1  0
  9 37  1  0
 13 38  1  0
 13 39  1  0
 14 40  1  0
 14 41  1  0
 20 42  1  0
 21 43  1  0
 22 44  1  0
 23 45  1  0
 24 46  1  0
 25 47  1  0
 25 48  1  0
 26 49  1  0
 26 50  1  0
 27 51  1  0
 29 52  1  0
 29 53  1  0
 30 54  1  0
 30 55  1  0
 32 56  1  0
 32 57  1  0
 33 58  1  0
 33 59  1  0
M  END
>  <UniqueID>  (3) 
3

>  <SMILES>  (3) 
O=S(=O)(c1cccc(NC(=S)N2CCN(S(=O)(=O)c3ccccc3)CC2)c1)N1CCOCC1

>  <Energy>  (3) 
83.2835401384123

>  <Genealogy>  (3) 
O=S(=O)(c1cccc(NC(=S)N2CCN(S(=O)(=O)c3ccccc3)CC2)c1)N1CCOCC1 (3D coordinates assigned)
O=S(=O)(c1cccc(NC(=S)N2CCN(S(=O)(=O)c3ccccc3)CC2)c1)N1CCOCC1 (nonaromatic ring conformer: 83.2835401384123 kcal/mol)

>  <smiles>  (3) 
O=S(=O)(c1cccc(NC(=S)N2CCN(S(=O)(=O)c3ccccc3)CC2)c1)N1CCOCC1

>  <score_type>  (3) 
oracle

>  <origin>  (3) 
adg

>  <m_score__min__energy>  (3) 
-10.49

>  <m_primary>  (3) 
energy

$$$$
3:0
     RDKit          3D

 58 61  0  0  1  0  0  0  0  0999 V2000
   62.2690   28.6690   51.2370 C   0  0  0  0  0  0  0  0  0  0  0  0
   60.9380   28.9720   50.6290 C   0  0  0  0  0  0  0  0  0  0  0  0
   60.7530   28.9530   49.2940 N   0  0  0  0  0  0  0  0  0  0  0  0
   59.5570   29.2220   48.7340 C   0  0  0  0  0  0  0  0  0  0  0  0
   59.4150   29.1890   47.2680 C   0  0  0  0  0  0  0  0  0  0  0  0
   60.3330   28.4850   46.4920 C   0  0  0  0  0  0  0  0  0  0  0  0
   60.2070   28.4430   45.0970 C   0  0  0  0  0  0  0  0  0  0  0  0
   59.1490   29.1210   44.5360 C   0  0  0  0  0  0  0  0  0  0  0  0
   58.2370   29.8200   45.2960 C   0  0  0  0  0  0  0  0  0  0  0  0
   56.9370   30.6180   44.4420 S   0  0  0  0  0  0  0  0  0  0  0  0
   55.4730   29.7900   44.8460 N   0  0  0  0  0  0  0  0  0  0  0  0
   57.1040   30.4780   42.9400 O   0  0  0  0  0  0  0  0  0  0  0  0
   56.8520   32.0430   44.8390 O   0  0  0  0  0  0  0  0  0  0  0  0
   58.3560   29.8660   46.6840 C   0  0  0  0  0  0  0  0  0  0  0  0
   58.5230   29.5200   49.5770 C   0  0  0  0  0  0  0  0  0  0  0  0
   58.6650   29.5510   50.9710 C   0  0  0  0  0  0  0  0  0  0  0  0
   57.6740   29.8210   51.7460 N   0  0  0  0  0  0  0  0  0  0  0  0
   57.1330   31.1520   51.8150 C   0  0  0  0  0  0  0  0  0  0  0  0
   58.2500   32.0950   51.4800 C   0  0  0  0  0  0  0  0  0  0  0  0
   58.9790   32.5830   52.5370 C   0  0  0  0  0  0  0  0  0  0  0  0
   60.0270   33.4690   52.3900 C   0  0  0  0  0  0  0  0  0  0  0  0
   60.3220   33.8580   51.0960 C   0  0  0  0  0  0  0  0  0  0  0  0
   59.5880   33.3680   50.0010 C   0  0  0  0  0  0  0  0  0  0  0  0
   59.9970   33.8660   48.7030 C   0  0  0  0  0  0  0  0  0  0  0  0
   59.3530   34.8830   48.2700 O   0  0  0  0  0  0  0  0  0  0  0  0
   61.0380   33.3010   47.9200 N   0  0  0  0  0  0  0  0  0  0  0  0
   61.8140   32.1450   48.3300 C   0  0  0  0  0  0  0  0  0  0  0  0
   63.2470   32.6160   48.4730 C   0  0  0  0  0  0  0  0  0  0  0  0
   63.5390   33.6920   47.6760 O   0  0  0  0  0  0  0  0  0  0  0  0
   62.8670   33.7560   46.4790 C   0  0  0  0  0  0  0  0  0  0  0  0
   61.3590   33.9100   46.6310 C   0  0  0  0  0  0  0  0  0  0  0  0
   58.5520   32.4850   50.2080 C   0  0  0  0  0  0  0  0  0  0  0  0
   59.8980   29.2690   51.4420 N   0  0  0  0  0  0  0  0  0  0  0  0
   62.1842   28.6883   52.3336 H   0  0  0  0  0  0  0  0  0  0  0  0
   62.6019   27.6721   50.9125 H   0  0  0  0  0  0  0  0  0  0  0  0
   63.0007   29.4236   50.9125 H   0  0  0  0  0  0  0  0  0  0  0  0
   61.1655   27.9565   46.9794 H   0  0  0  0  0  0  0  0  0  0  0  0
   60.9257   27.8897   44.4747 H   0  0  0  0  0  0  0  0  0  0  0  0
   59.0273   29.1042   43.4429 H   0  0  0  0  0  0  0  0  0  0  0  0
   54.7630   30.0640   44.1220 H   0  0  0  0  0  0  0  0  0  0  0  0
   55.1370   30.0690   45.7760 H   0  0  0  0  0  0  0  0  0  0  0  0
   57.6317   30.4225   47.2970 H   0  0  0  0  0  0  0  0  0  0  0  0
   57.5377   29.7450   49.1429 H   0  0  0  0  0  0  0  0  0  0  0  0
   56.3128   31.2648   51.0907 H   0  0  0  0  0  0  0  0  0  0  0  0
   56.7288   31.3609   52.8165 H   0  0  0  0  0  0  0  0  0  0  0  0
   58.7142   32.2509   53.5517 H   0  0  0  0  0  0  0  0  0  0  0  0
   60.5956   33.8446   53.2535 H   0  0  0  0  0  0  0  0  0  0  0  0
   61.1467   34.5643   50.9199 H   0  0  0  0  0  0  0  0  0  0  0  0
   61.4430   31.7601   49.2914 H   0  0  0  0  0  0  0  0  0  0  0  0
   61.7347   31.3318   47.5936 H   0  0  0  0  0  0  0  0  0  0  0  0
   63.4198   32.8994   49.5217 H   0  0  0  0  0  0  0  0  0  0  0  0
   63.8987   31.7873   48.1589 H   0  0  0  0  0  0  0  0  0  0  0  0
   63.2487   34.6179   45.9120 H   0  0  0  0  0  0  0  0  0  0  0  0
   63.0421   32.8018   45.9605 H   0  0  0  0  0  0  0  0  0  0  0  0
   61.0778   34.9734   46.6264 H   0  0  0  0  0  0  0  0  0  0  0  0
   60.8123   33.4330   45.8042 H   0  0  0  0  0  0  0  0  0  0  0  0
   57.9736   32.0979   49.3562 H   0  0  0  0  0  0  0  0  0  0  0  0
   60.0020   29.2930   52.4830 H   0  0  0  0  0  0  0  0  0  0  0  0
  1  2  1  0
  2  3  2  0
  3  4  1  0
  4  5  1  0
  5  6  2  0
  6  7  1  0
  7  8  2  0
  8  9  1  0
  9 10  1  0
 10 11  1  0
 10 12  2  0
 10 13  2  0
  9 14  2  0
  4 15  2  0
 15 16  1  0
 16 17  2  0
 17 18  1  0
 18 19  1  0
 19 20  2  0
 20 21  1  0
 21 22  2  0
 22 23  1  0
 23 24  1  0
 24 25  2  0
 24 26  1  0
 26 27  1  0
 27 28  1  0
 28 29  1  0
 29 30  1  0
 30 31  1  0
 23 32  2  0
 16 33  1  0
 33  2  1  0
 14  5  1  0
 32 19  1  0
 31 26  1  0
  1 34  1  0
  1 35  1  0
  1 36  1  0
  6 37  1  0
  7 38  1  0
  8 39  1  0
 11 40  1  0
 11 41  1  0
 14 42  1  0
 15 43  1  0
 18 44  1  0
 18 45  1  0
 20 46  1  0
 21 47  1  0
 22 48  1  0
 27 49  1  0
 27 50  1  0
 28 51  1  0
 28 52  1  0
 30 53  1  0
 30 54  1  0
 31 55  1  0
 31 56  1  0
 32 57  1  0
 33 58  1  0
M  END
>  <smiles>  (4) 
Cc1nc(-c2cccc(S(N)(=O)=O)c2)cc(=NCc2cccc(C(=O)N3CCOCC3)c2)[nH]1

>  <score_type>  (4) 
oracle

>  <origin>  (4) 
adg

>  <m_score__min__energy>  (4) 
-10.380000000000001

>  <m_primary>  (4) 
energy

$$$$
4:0
     RDKit          3D

 36 37  0  0  0  0  0  0  0  0999 V2000
   59.4070   26.3780   47.5980 H   0  0  0  0  0  0  0  0  0  0  0  0
   58.5850   25.7910   47.5270 O   0  0  0  0  0  0  0  0  0  0  0  0
   57.4480   26.2100   46.8420 C   0  0  0  0  0  0  0  0  0  0  0  0
   56.3020   25.5120   46.8140 N   0  0  0  0  0  0  0  0  0  0  0  0
   55.4960   26.2890   46.0610 C   0  0  0  0  0  0  0  0  0  0  0  0
   54.3050   25.9780   45.7980 O   0  0  0  0  0  0  0  0  0  0  0  0
   56.0620   27.4320   45.6180 N   0  0  0  0  0  0  0  0  0  0  0  0
   57.3170   27.3660   46.1030 C   0  0  0  0  0  0  0  0  0  0  0  0
   58.3180   28.4450   45.9830 C   0  0  0  0  0  0  0  0  0  0  0  0
   59.3677   28.1775   46.1740 H   0  0  0  0  0  0  0  0  0  0  0  0
   58.0590   29.7380   45.6580 C   0  0  0  0  0  0  0  0  0  0  0  0
   58.5970   30.7270   46.5110 C   0  0  0  0  0  0  0  0  0  0  0  0
   59.3041   30.4288   47.2991 H   0  0  0  0  0  0  0  0  0  0  0  0
   58.2520   32.0790   46.3780 C   0  0  0  0  0  0  0  0  0  0  0  0
   58.8110   33.0990   47.3400 C   0  0  0  0  0  0  0  0  0  0  0  0
   58.0478   33.8690   47.5262 H   0  0  0  0  0  0  0  0  0  0  0  0
   59.0825   32.5794   48.2708 H   0  0  0  0  0  0  0  0  0  0  0  0
   60.0510   33.7620   46.7930 C   0  0  0  0  0  0  0  0  0  0  0  0
   59.9892   34.2162   45.7931 H   0  0  0  0  0  0  0  0  0  0  0  0
   61.2320   33.8370   47.4450 C   0  0  0  0  0  0  0  0  0  0  0  0
   61.2240   34.2090   48.9050 C   0  0  0  0  0  0  0  0  0  0  0  0
   61.2437   33.2948   49.5164 H   0  0  0  0  0  0  0  0  0  0  0  0
   62.1092   34.8212   49.1323 H   0  0  0  0  0  0  0  0  0  0  0  0
   60.3133   34.7826   49.1323 H   0  0  0  0  0  0  0  0  0  0  0  0
   62.5470   33.5550   46.7570 C   0  0  0  0  0  0  0  0  0  0  0  0
   63.3280   33.3875   47.5133 H   0  0  0  0  0  0  0  0  0  0  0  0
   62.4469   32.6579   46.1284 H   0  0  0  0  0  0  0  0  0  0  0  0
   62.8236   34.4143   46.1284 H   0  0  0  0  0  0  0  0  0  0  0  0
   57.3510   32.4590   45.3740 C   0  0  0  0  0  0  0  0  0  0  0  0
   56.9430   33.7840   45.2540 O   0  0  0  0  0  0  0  0  0  0  0  0
   56.8710   31.5160   44.4680 C   0  0  0  0  0  0  0  0  0  0  0  0
   56.1698   31.8307   43.6811 H   0  0  0  0  0  0  0  0  0  0  0  0
   57.2680   30.1660   44.5420 C   0  0  0  0  0  0  0  0  0  0  0  0
   56.9870   29.3820   43.4860 C   0  0  0  0  0  0  0  0  0  0  0  0
   57.2767   28.3209   43.4962 H   0  0  0  0  0  0  0  0  0  0  0  0
   56.4674   29.8019   42.6121 H   0  0  0  0  0  0  0  0  0  0  0  0
  1  2  1  0
  2  3  1  0
  3  4  1  0
  4  5  1  0
  5  6  2  0
  5  7  1  0
  7  8  1  0
  8  9  1  0
  9 10  1  0
  9 11  2  0
 11 12  1  0
 12 13  1  0
 12 14  2  0
 14 15  1  0
 15 16  1  0
 15 17  1  0
 15 18  1  0
 18 19  1  0
 18 20  2  3
 20 21  1  0
 21 22  1  0
 21 23  1  0
 21 24  1  0
 20 25  1  0
 25 26  1  0
 25 27  1  0
 25 28  1  0
 14 29  1  0
 29 30  1  0
 29 31  2  0
 31 32  1  0
 31 33  1  0
 33 34  2  0
 34 35  1  0
 34 36  1  0
  8  3  2  0
 33 11  1  0
M  CHG  3   4  -1   7  -1  30  -1
M  END
>  <UniqueID>  (5) 
4

>  <SMILES>  (5) 
C=c1cc([O-])c(CC=C(C)C)c/c1=C/c1[n-]c(=O)[n-]c1O

>  <Energy>  (5) 
80.69676540768567

>  <Genealogy>  (5) 
C=c1cc([O-])c(CC=C(C)C)cc1=Cc1[n-]c(=O)[n-]c1O (protonated)
C=c1cc([O-])c(CC=C(C)C)c/c1=C/c1[n-]c(=O)[n-]c1O (cis-trans isomerization)
C=c1cc([O-])c(CC=C(C)C)c/c1=C/c1[n-]c(=O)[n-]c1O (3D coordinates assigned)
C=c1cc([O-])c(CC=C(C)C)c/c1=C/c1[n-]c(=O)[n-]c1O (optimized conformer: 80.69676540768567 kcal/mol)

>  <smiles>  (5) 
C=c1cc(O)c(CC=C(C)C)cc1=Cc1[nH]c(=O)[nH]c1O

>  <score_type>  (5) 
oracle

>  <origin>  (5) 
adg

>  <m_score__min__energy>  (5) 
-12.41

>  <m_primary>  (5) 
energy

$$$$
5:0
     RDKit          3D

 53 55  0  0  0  0  0  0  0  0999 V2000
   57.8710   33.6800   46.4180 C   0  0  0  0  0  0  0  0  0  0  0  0
   57.5500   33.6980   45.1190 C   0  0  0  0  0  0  0  0  0  0  0  0
   57.4750   32.4310   44.3150 C   0  0  0  0  0  0  0  0  0  0  0  0
   56.3810   31.6010   44.8200 N   0  0  0  0  0  0  0  0  0  0  0  0
   56.6780   29.9250   44.4620 S   0  0  0  0  0  0  0  0  0  0  0  0
   55.4950   29.0940   44.8780 O   0  0  0  0  0  0  0  0  0  0  0  0
   56.8580   29.7750   42.9740 O   0  0  0  0  0  0  0  0  0  0  0  0
   58.1250   29.3390   45.2880 C   0  0  0  0  0  0  0  0  0  0  0  0
   58.5670   28.0230   45.1040 C   0  0  0  0  0  0  0  0  0  0  0  0
   59.6910   27.5600   45.7960 C   0  0  0  0  0  0  0  0  0  0  0  0
   60.3680   28.4040   46.6840 C   0  0  0  0  0  0  0  0  0  0  0  0
   59.9400   29.7320   46.8830 C   0  0  0  0  0  0  0  0  0  0  0  0
   60.6850   30.6030   47.8470 C   0  0  0  0  0  0  0  0  0  0  0  0
   61.8210   31.0280   47.4930 O   0  0  0  0  0  0  0  0  0  0  0  0
   60.1820   30.9960   49.1570 N   0  0  0  0  0  0  0  0  0  0  0  0
   60.2660   29.9200   50.1920 C   0  0  0  0  0  0  0  0  0  0  0  0
   58.9370   29.5670   50.9050 C   0  0  0  0  0  0  0  0  0  0  0  0
   58.0740   30.7320   51.1470 N   0  0  0  0  0  0  0  0  0  0  0  0
   56.9680   30.6270   52.0700 C   0  0  0  0  0  0  0  0  0  0  0  0
   57.1890   30.2740   53.4140 C   0  0  0  0  0  0  0  0  0  0  0  0
   56.1060   30.1110   54.2830 C   0  0  0  0  0  0  0  0  0  0  0  0
   54.8000   30.3070   53.8340 C   0  0  0  0  0  0  0  0  0  0  0  0
   54.5570   30.7020   52.5080 C   0  0  0  0  0  0  0  0  0  0  0  0
   53.1420   30.8460   52.0070 C   0  0  0  0  0  0  0  0  0  0  0  0
   52.9130   32.1360   51.5590 F   0  0  0  0  0  0  0  0  0  0  0  0
   52.2670   30.5640   53.0410 F   0  0  0  0  0  0  0  0  0  0  0  0
   52.9000   29.9750   50.9550 F   0  0  0  0  0  0  0  0  0  0  0  0
   55.6490   30.8330   51.6280 C   0  0  0  0  0  0  0  0  0  0  0  0
   58.2940   31.9810   50.4130 C   0  0  0  0  0  0  0  0  0  0  0  0
   58.8750   31.6780   49.0350 C   0  0  0  0  0  0  0  0  0  0  0  0
   58.8230   30.1890   46.1580 C   0  0  0  0  0  0  0  0  0  0  0  0
   57.9195   34.6210   46.9857 H   0  0  0  0  0  0  0  0  0  0  0  0
   58.0864   32.7242   46.9181 H   0  0  0  0  0  0  0  0  0  0  0  0
   57.3367   34.6599   44.6299 H   0  0  0  0  0  0  0  0  0  0  0  0
   57.2921   32.6767   43.2585 H   0  0  0  0  0  0  0  0  0  0  0  0
   58.4243   31.8823   44.4031 H   0  0  0  0  0  0  0  0  0  0  0  0
   58.0305   27.3536   44.4155 H   0  0  0  0  0  0  0  0  0  0  0  0
   60.0439   26.5296   45.6419 H   0  0  0  0  0  0  0  0  0  0  0  0
   61.2436   28.0267   47.2325 H   0  0  0  0  0  0  0  0  0  0  0  0
   60.8400   31.7440   49.4950 H   0  0  0  0  0  0  0  0  0  0  0  0
   60.6389   29.0085   49.7020 H   0  0  0  0  0  0  0  0  0  0  0  0
   60.9318   30.3101   50.9759 H   0  0  0  0  0  0  0  0  0  0  0  0
   58.3860   28.8496   50.2791 H   0  0  0  0  0  0  0  0  0  0  0  0
   59.1985   29.1483   51.8880 H   0  0  0  0  0  0  0  0  0  0  0  0
   58.2152   30.1261   53.7815 H   0  0  0  0  0  0  0  0  0  0  0  0
   56.2854   29.8257   55.3301 H   0  0  0  0  0  0  0  0  0  0  0  0
   53.9559   30.1514   54.5219 H   0  0  0  0  0  0  0  0  0  0  0  0
   55.4669   31.1011   50.5768 H   0  0  0  0  0  0  0  0  0  0  0  0
   57.3362   32.5094   50.2969 H   0  0  0  0  0  0  0  0  0  0  0  0
   59.0005   32.6108   50.9735 H   0  0  0  0  0  0  0  0  0  0  0  0
   58.1787   31.0283   48.4845 H   0  0  0  0  0  0  0  0  0  0  0  0
   59.0197   32.6259   48.4960 H   0  0  0  0  0  0  0  0  0  0  0  0
   58.4919   31.2313   46.2761 H   0  0  0  0  0  0  0  0  0  0  0  0
  1  2  2  0
  2  3  1  0
  3  4  1  0
  4  5  1  0
  5  6  2  0
  5  7  2  0
  5  8  1  0
  8  9  2  0
  9 10  1  0
 10 11  2  0
 11 12  1  0
 12 13  1  0
 13 14  2  0
 13 15  1  0
 15 16  1  0
 16 17  1  0
 17 18  1  0
 18 19  1  0
 19 20  2  0
 20 21  1  0
 21 22  2  0
 22 23  1  0
 23 24  1  0
 24 25  1  0
 24 26  1  0
 24 27  1  0
 23 28  2  0
 18 29  1  0
 29 30  1  0
 12 31  2  0
 31  8  1  0
 30 15  1  0
 28 19  1  0
  1 32  1  0
  1 33  1  0
  2 34  1  0
  3 35  1  0
  3 36  1  0
  9 37  1  0
 10 38  1  0
 11 39  1  0
 15 40  1  0
 16 41  1  0
 16 42  1  0
 17 43  1  0
 17 44  1  0
 20 45  1  0
 21 46  1  0
 22 47  1  0
 28 48  1  0
 29 49  1  0
 29 50  1  0
 30 51  1  0
 30 52  1  0
 31 53  1  0
M  CHG  2   4  -1  15   1
M  END
>  <UniqueID>  (6) 
5

>  <SMILES>  (6) 
C=CC[N-]S(=O)(=O)c1cccc(C(=O)[NH+]2CCN(c3cccc(C(F)(F)F)c3)CC2)c1

>  <Energy>  (6) 
69.7107045664687

>  <Genealogy>  (6) 
C=CC[N-]S(=O)(=O)c1cccc(C(=O)[NH+]2CCN(c3cccc(C(F)(F)F)c3)CC2)c1 (protonated)
C=CC[N-]S(=O)(=O)c1cccc(C(=O)[NH+]2CCN(c3cccc(C(F)(F)F)c3)CC2)c1 (3D coordinates assigned)
C=CC[N-]S(=O)(=O)c1cccc(C(=O)[NH+]2CCN(c3cccc(C(F)(F)F)c3)CC2)c1 (nonaromatic ring conformer: 69.7107045664687 kcal/mol)

>  <smiles>  (6) 
C=CCNS(=O)(=O)c1cccc(C(=O)N2CCN(c3cccc(C(F)(F)F)c3)CC2)c1

>  <score_type>  (6) 
oracle

>  <origin>  (6) 
adg

>  <m_score__min__energy>  (6) 
-8.3100000000000005

>  <m_primary>  (6) 
energy

$$$$
6:0
     RDKit          3D

 49 51  0  0  0  0  0  0  0  0999 V2000
   52.4650   23.0980   45.9830 C   0  0  0  0  0  0  0  0  0  0  0  0
   52.9270   24.3170   45.1960 C   0  0  0  0  0  0  0  0  0  0  0  0
   54.0900   24.8940   45.7940 O   0  0  0  0  0  0  0  0  0  0  0  0
   55.4190   24.5650   45.4840 C   0  0  0  0  0  0  0  0  0  0  0  0
   55.7960   23.2720   45.0650 C   0  0  0  0  0  0  0  0  0  0  0  0
   57.1280   22.9900   44.7610 C   0  0  0  0  0  0  0  0  0  0  0  0
   58.0960   23.9890   44.8620 C   0  0  0  0  0  0  0  0  0  0  0  0
   57.7370   25.2720   45.2780 C   0  0  0  0  0  0  0  0  0  0  0  0
   56.4030   25.5630   45.6120 C   0  0  0  0  0  0  0  0  0  0  0  0
   56.0160   26.8880   46.0010 N   0  0  0  0  0  0  0  0  0  0  0  0
   56.6420   28.0970   45.5570 C   0  0  0  0  0  0  0  0  0  0  0  0
   57.8170   28.3450   45.9380 O   0  0  0  0  0  0  0  0  0  0  0  0
   55.9460   29.0010   44.6830 N   0  0  0  0  0  0  0  0  0  0  0  0
   56.5100   30.1900   44.0970 C   0  0  0  0  0  0  0  0  0  0  0  0
   56.5950   30.2790   42.6990 C   0  0  0  0  0  0  0  0  0  0  0  0
   57.2170   31.3750   42.0900 C   0  0  0  0  0  0  0  0  0  0  0  0
   57.7670   32.3920   42.8730 C   0  0  0  0  0  0  0  0  0  0  0  0
   57.6840   32.3260   44.2750 C   0  0  0  0  0  0  0  0  0  0  0  0
   58.2800   33.3920   45.1030 C   0  0  0  0  0  0  0  0  0  0  0  0
   57.7260   34.5230   45.1250 O   0  0  0  0  0  0  0  0  0  0  0  0
   59.4700   33.1600   45.8790 N   0  0  0  0  0  0  0  0  0  0  0  0
   60.2870   34.3150   46.2720 C   0  0  0  0  0  0  0  0  0  0  0  0
   61.6800   33.8520   46.7110 C   0  0  0  0  0  0  0  0  0  0  0  0
   61.5820   32.8410   47.6960 O   0  0  0  0  0  0  0  0  0  0  0  0
   61.0100   31.6840   47.1220 C   0  0  0  0  0  0  0  0  0  0  0  0
   59.5590   31.9440   46.6980 C   0  0  0  0  0  0  0  0  0  0  0  0
   57.0670   31.2170   44.8840 C   0  0  0  0  0  0  0  0  0  0  0  0
   52.5437   23.3057   47.0603 H   0  0  0  0  0  0  0  0  0  0  0  0
   51.4189   22.8722   45.7286 H   0  0  0  0  0  0  0  0  0  0  0  0
   53.0986   22.2356   45.7286 H   0  0  0  0  0  0  0  0  0  0  0  0
   53.1639   24.0130   44.1657 H   0  0  0  0  0  0  0  0  0  0  0  0
   52.1206   25.0652   45.1976 H   0  0  0  0  0  0  0  0  0  0  0  0
   55.0357   22.4819   44.9775 H   0  0  0  0  0  0  0  0  0  0  0  0
   57.4154   21.9776   44.4410 H   0  0  0  0  0  0  0  0  0  0  0  0
   59.1440   23.7654   44.6134 H   0  0  0  0  0  0  0  0  0  0  0  0
   58.5020   26.0596   45.3448 H   0  0  0  0  0  0  0  0  0  0  0  0
   54.9490   28.7910   44.4560 H   0  0  0  0  0  0  0  0  0  0  0  0
   56.1685   29.4793   42.0756 H   0  0  0  0  0  0  0  0  0  0  0  0
   57.2727   31.4353   40.9931 H   0  0  0  0  0  0  0  0  0  0  0  0
   58.2660   33.2462   42.3921 H   0  0  0  0  0  0  0  0  0  0  0  0
   60.3843   34.9994   45.4163 H   0  0  0  0  0  0  0  0  0  0  0  0
   59.7988   34.8313   47.1117 H   0  0  0  0  0  0  0  0  0  0  0  0
   62.2206   33.4556   45.8388 H   0  0  0  0  0  0  0  0  0  0  0  0
   62.2208   34.7101   47.1366 H   0  0  0  0  0  0  0  0  0  0  0  0
   61.5968   31.3925   46.2384 H   0  0  0  0  0  0  0  0  0  0  0  0
   61.0185   30.8788   47.8713 H   0  0  0  0  0  0  0  0  0  0  0  0
   59.1940   31.0867   46.1133 H   0  0  0  0  0  0  0  0  0  0  0  0
   58.9444   32.0783   47.6003 H   0  0  0  0  0  0  0  0  0  0  0  0
   57.0195   31.1519   45.9810 H   0  0  0  0  0  0  0  0  0  0  0  0
  1  2  1  0
  2  3  1  0
  3  4  1  0
  4  5  2  0
  5  6  1  0
  6  7  2  0
  7  8  1  0
  8  9  2  0
  9 10  1  0
 10 11  1  0
 11 12  2  0
 11 13  1  0
 13 14  1  0
 14 15  2  0
 15 16  1  0
 16 17  2  0
 17 18  1  0
 18 19  1  0
 19 20  2  0
 19 21  1  0
 21 22  1  0
 22 23  1  0
 23 24  1  0
 24 25  1  0
 25 26  1  0
 18 27  2  0
  9  4  1  0
 27 14  1  0
 26 21  1  0
  1 28  1  0
  1 29  1  0
  1 30  1  0
  2 31  1  0
  2 32  1  0
  5 33  1  0
  6 34  1  0
  7 35  1  0
  8 36  1  0
 13 37  1  0
 15 38  1  0
 16 39  1  0
 17 40  1  0
 22 41  1  0
 22 42  1  0
 23 43  1  0
 23 44  1  0
 25 45  1  0
 25 46  1  0
 26 47  1  0
 26 48  1  0
 27 49  1  0
M  CHG  1  10  -1
M  END
>  <UniqueID>  (7) 
6

>  <SMILES>  (7) 
CCOc1ccccc1[N-]C(=O)Nc1cccc(C(=O)N2CCOCC2)c1

>  <Energy>  (7) 
63.38167025097174

>  <Genealogy>  (7) 
CCOc1ccccc1[N-]C(=O)Nc1cccc(C(=O)N2CCOCC2)c1 (protonated)
CCOc1ccccc1[N-]C(=O)Nc1cccc(C(=O)N2CCOCC2)c1 (3D coordinates assigned)
CCOc1ccccc1[N-]C(=O)Nc1cccc(C(=O)N2CCOCC2)c1 (nonaromatic ring conformer: 63.38167025097174 kcal/mol)

>  <smiles>  (7) 
CCOc1ccccc1NC(=O)Nc1cccc(C(=O)N2CCOCC2)c1

>  <score_type>  (7) 
oracle

>  <origin>  (7) 
adg

>  <m_score__min__energy>  (7) 
-10.609999999999999

>  <m_primary>  (7) 
energy

$$$$
7:0
     RDKit          3D

 41 42  0  0  0  0  0  0  0  0999 V2000
   60.7250   29.2050   47.5410 C   0  0  0  0  0  0  0  0  0  0  0  0
   60.2620   27.8160   47.4760 N   0  0  0  0  0  0  0  0  0  0  0  0
   61.1350   26.7190   47.9070 C   0  0  0  0  0  0  0  0  0  0  0  0
   58.9350   27.5270   46.9940 C   0  0  0  0  0  0  0  0  0  0  0  0
   58.3690   26.3130   47.2290 N   0  0  0  0  0  0  0  0  0  0  0  0
   57.1140   26.0280   46.7980 C   0  0  0  0  0  0  0  0  0  0  0  0
   56.6150   24.8960   47.0350 O   0  0  0  0  0  0  0  0  0  0  0  0
   56.3810   26.9900   46.0980 C   0  0  0  0  0  0  0  0  0  0  0  0
   55.0890   26.7050   45.6660 O   0  0  0  0  0  0  0  0  0  0  0  0
   56.9730   28.2410   45.8560 C   0  0  0  0  0  0  0  0  0  0  0  0
   56.2770   29.2880   45.0730 C   0  0  0  0  0  0  0  0  0  0  0  0
   55.1890   29.0090   44.5010 O   0  0  0  0  0  0  0  0  0  0  0  0
   56.8040   30.6140   44.9140 N   0  0  0  0  0  0  0  0  0  0  0  0
   58.1550   30.9650   44.4830 C   0  0  0  0  0  0  0  0  0  0  0  0
   58.6310   32.2090   45.1860 C   0  0  0  0  0  0  0  0  0  0  0  0
   58.0700   33.4520   44.8560 C   0  0  0  0  0  0  0  0  0  0  0  0
   58.5130   34.6140   45.4900 C   0  0  0  0  0  0  0  0  0  0  0  0
   59.5220   34.5460   46.4530 C   0  0  0  0  0  0  0  0  0  0  0  0
   60.0920   33.3160   46.7980 C   0  0  0  0  0  0  0  0  0  0  0  0
   61.1330   33.2970   47.7850 N   0  0  0  0  0  0  0  0  0  0  0  0
   62.8160   33.0370   47.4620 S   0  0  0  0  0  0  0  0  0  0  0  0
   63.7510   33.4500   48.9160 C   0  0  0  0  0  0  0  0  0  0  0  0
   63.0490   31.5940   47.1240 O   0  0  0  0  0  0  0  0  0  0  0  0
   63.2650   33.9140   46.3270 O   0  0  0  0  0  0  0  0  0  0  0  0
   59.6390   32.1440   46.1620 C   0  0  0  0  0  0  0  0  0  0  0  0
   58.2350   28.4700   46.3070 N   0  0  0  0  0  0  0  0  0  0  0  0
   60.8263   29.5089   48.5933 H   0  0  0  0  0  0  0  0  0  0  0  0
   61.7002   29.2903   47.0392 H   0  0  0  0  0  0  0  0  0  0  0  0
   59.9961   29.8583   47.0392 H   0  0  0  0  0  0  0  0  0  0  0  0
   61.1635   26.6832   49.0061 H   0  0  0  0  0  0  0  0  0  0  0  0
   60.7454   25.7663   47.5191 H   0  0  0  0  0  0  0  0  0  0  0  0
   62.1509   26.8848   47.5191 H   0  0  0  0  0  0  0  0  0  0  0  0
   58.8364   30.1341   44.7181 H   0  0  0  0  0  0  0  0  0  0  0  0
   58.1430   31.1535   43.3993 H   0  0  0  0  0  0  0  0  0  0  0  0
   57.2781   33.5110   44.0948 H   0  0  0  0  0  0  0  0  0  0  0  0
   58.0664   35.5852   45.2305 H   0  0  0  0  0  0  0  0  0  0  0  0
   59.8711   35.4664   46.9439 H   0  0  0  0  0  0  0  0  0  0  0  0
   63.1678   33.1924   49.8124 H   0  0  0  0  0  0  0  0  0  0  0  0
   64.6948   32.8850   48.9177 H   0  0  0  0  0  0  0  0  0  0  0  0
   63.9690   34.5282   48.9177 H   0  0  0  0  0  0  0  0  0  0  0  0
   60.0773   31.1717   46.4312 H   0  0  0  0  0  0  0  0  0  0  0  0
  1  2  1  0
  2  3  1  0
  2  4  1  0
  4  5  2  0
  5  6  1  0
  6  7  2  0
  6  8  1  0
  8  9  1  0
  8 10  2  0
 10 11  1  0
 11 12  2  0
 11 13  1  0
 13 14  1  0
 14 15  1  0
 15 16  2  0
 16 17  1  0
 17 18  2  0
 18 19  1  0
 19 20  1  0
 20 21  1  0
 21 22  1  0
 21 23  2  0
 21 24  2  0
 19 25  2  0
 10 26  1  0
 26  4  1  0
 25 15  1  0
  1 27  1  0
  1 28  1  0
  1 29  1  0
  3 30  1  0
  3 31  1  0
  3 32  1  0
 14 33  1  0
 14 34  1  0
 16 35  1  0
 17 36  1  0
 18 37  1  0
 22 38  1  0
 22 39  1  0
 22 40  1  0
 25 41  1  0
M  CHG  4   9  -1  13  -1  20  -1  26  -1
M  END
>  <UniqueID>  (8) 
7

>  <SMILES>  (8) 
CN(C)c1nc(=O)c([O-])c(C(=O)[N-]Cc2cccc([N-]S(C)(=O)=O)c2)[n-]1

>  <Energy>  (8) 
37.54409428455241

>  <Genealogy>  (8) 
CN(C)c1nc(=O)c([O-])c(C(=O)[N-]Cc2cccc([N-]S(C)(=O)=O)c2)[n-]1 (protonated)
CN(C)c1nc(=O)c([O-])c(C(=O)[N-]Cc2cccc([N-]S(C)(=O)=O)c2)[n-]1 (3D coordinates assigned)
CN(C)c1nc(=O)c([O-])c(C(=O)[N-]Cc2cccc([N-]S(C)(=O)=O)c2)[n-]1 (optimized conformer: 37.54409428455241 kcal/mol)

>  <smiles>  (8) 
CN(C)c1nc(=O)c(O)c(C(=O)NCc2cccc(NS(C)(=O)=O)c2)[nH]1

>  <score_type>  (8) 
oracle

>  <origin>  (8) 
adg

>  <m_score__min__energy>  (8) 
-14.800000000000001

>  <m_primary>  (8) 
energy

$$$$
8:0
     RDKit          3D

 41 43  0  0  0  0  0  0  0  0999 V2000
   57.7500   32.1710   43.0020 O   0  0  0  0  0  0  0  0  0  0  0  0
   57.3870   31.9380   44.1870 C   0  0  0  0  0  0  0  0  0  0  0  0
   57.4580   32.9730   45.1790 N   0  0  0  0  0  0  0  0  0  0  0  0
   57.9010   34.3300   44.8690 C   0  0  0  0  0  0  0  0  0  0  0  0
   59.3110   34.5740   45.4240 C   0  0  0  0  0  0  0  0  0  0  0  0
   59.3040   34.8880   46.9330 C   0  0  0  0  0  0  0  0  0  0  0  0
   59.8380   33.7360   47.7960 C   0  0  0  0  0  0  0  0  0  0  0  0
   61.2970   33.6850   47.7860 N   0  0  0  0  0  0  0  0  0  0  0  0
   62.0890   33.4030   46.7380 C   0  0  0  0  0  0  0  0  0  0  0  0
   63.3950   33.4520   47.1720 C   0  0  0  0  0  0  0  0  0  0  0  0
   63.4240   33.7620   48.4860 N   0  0  0  0  0  0  0  0  0  0  0  0
   62.1260   33.8970   48.8260 C   0  0  0  0  0  0  0  0  0  0  0  0
   56.8980   30.5970   44.5430 C   0  0  0  0  0  0  0  0  0  0  0  0
   57.6710   29.5380   44.9730 C   0  0  0  0  0  0  0  0  0  0  0  0
   56.7600   28.5160   45.1720 C   0  0  0  0  0  0  0  0  0  0  0  0
   57.0500   27.1380   45.6380 C   0  0  0  0  0  0  0  0  0  0  0  0
   55.9900   26.2730   45.9750 C   0  0  0  0  0  0  0  0  0  0  0  0
   56.2480   24.9720   46.4160 C   0  0  0  0  0  0  0  0  0  0  0  0
   57.5640   24.5170   46.5260 C   0  0  0  0  0  0  0  0  0  0  0  0
   58.6240   25.3630   46.1950 C   0  0  0  0  0  0  0  0  0  0  0  0
   58.3720   26.6660   45.7540 C   0  0  0  0  0  0  0  0  0  0  0  0
   55.5210   28.9600   44.8730 N   0  0  0  0  0  0  0  0  0  0  0  0
   55.6060   30.2240   44.4900 N   0  0  0  0  0  0  0  0  0  0  0  0
   57.2340   32.7440   46.1740 H   0  0  0  0  0  0  0  0  0  0  0  0
   57.9127   34.4667   43.7776 H   0  0  0  0  0  0  0  0  0  0  0  0
   57.2067   35.0461   45.3330 H   0  0  0  0  0  0  0  0  0  0  0  0
   59.9182   33.6727   45.2538 H   0  0  0  0  0  0  0  0  0  0  0  0
   59.7295   35.4473   44.9023 H   0  0  0  0  0  0  0  0  0  0  0  0
   59.9309   35.7748   47.1079 H   0  0  0  0  0  0  0  0  0  0  0  0
   58.2571   35.0559   47.2258 H   0  0  0  0  0  0  0  0  0  0  0  0
   59.4933   33.8766   48.8311 H   0  0  0  0  0  0  0  0  0  0  0  0
   59.4591   32.7912   47.3792 H   0  0  0  0  0  0  0  0  0  0  0  0
   61.7540   33.1738   45.7156 H   0  0  0  0  0  0  0  0  0  0  0  0
   64.2792   33.2669   46.5444 H   0  0  0  0  0  0  0  0  0  0  0  0
   61.7827   34.1518   49.8395 H   0  0  0  0  0  0  0  0  0  0  0  0
   58.7604   29.5123   45.1230 H   0  0  0  0  0  0  0  0  0  0  0  0
   54.9511   26.6244   45.8903 H   0  0  0  0  0  0  0  0  0  0  0  0
   55.4130   24.3051   46.6769 H   0  0  0  0  0  0  0  0  0  0  0  0
   57.7650   23.4928   46.8732 H   0  0  0  0  0  0  0  0  0  0  0  0
   59.6601   25.0038   46.2813 H   0  0  0  0  0  0  0  0  0  0  0  0
   59.2124   27.3271   45.4958 H   0  0  0  0  0  0  0  0  0  0  0  0
  1  2  2  0
  2  3  1  0
  3  4  1  0
  4  5  1  0
  5  6  1  0
  6  7  1  0
  7  8  1  0
  8  9  1  0
  9 10  2  0
 10 11  1  0
 11 12  2  0
  2 13  1  0
 13 14  1  0
 14 15  2  0
 15 16  1  0
 16 17  2  0
 17 18  1  0
 18 19  2  0
 19 20  1  0
 20 21  2  0
 15 22  1  0
 22 23  1  0
 12  8  1  0
 23 13  2  0
 21 16  1  0
  3 24  1  0
  4 25  1  0
  4 26  1  0
  5 27  1  0
  5 28  1  0
  6 29  1  0
  6 30  1  0
  7 31  1  0
  7 32  1  0
  9 33  1  0
 10 34  1  0
 12 35  1  0
 14 36  1  0
 17 37  1  0
 18 38  1  0
 19 39  1  0
 20 40  1  0
 21 41  1  0
M  CHG  1  22  -1
M  END
>  <UniqueID>  (9) 
8

>  <SMILES>  (9) 
O=C(NCCCCn1ccnc1)c1cc(-c2ccccc2)[n-]n1

>  <Energy>  (9) 
95.2088875363383

>  <Genealogy>  (9) 
O=C(NCCCCn1ccnc1)c1cc(-c2ccccc2)[n-]n1 (protonated)
O=C(NCCCCn1ccnc1)c1cc(-c2ccccc2)[n-]n1 (3D coordinates assigned)
O=C(NCCCCn1ccnc1)c1cc(-c2ccccc2)[n-]n1 (optimized conformer: 95.2088875363383 kcal/mol)

>  <smiles>  (9) 
O=C(NCCCCn1ccnc1)c1cc(-c2ccccc2)[nH]n1

>  <score_type>  (9) 
oracle

>  <origin>  (9) 
adg

>  <m_score__min__energy>  (9) 
-9.7400000000000002

>  <m_primary>  (9) 
energy

$$$$
9:0
     RDKit          3D

 53 55  0  0  0  0  0  0  0  0999 V2000
   55.3470   28.6140   45.5980 H   0  0  0  0  0  0  0  0  0  0  0  0
   55.1500   29.3500   44.8810 N   0  0  0  0  0  0  0  0  0  0  0  0
   56.5520   29.4900   43.8830 S   0  0  0  0  0  0  0  0  0  0  0  0
   57.5420   28.4200   44.2440 O   0  0  0  0  0  0  0  0  0  0  0  0
   56.1590   29.3190   42.4430 O   0  0  0  0  0  0  0  0  0  0  0  0
   57.2820   31.0710   44.1340 C   0  0  0  0  0  0  0  0  0  0  0  0
   57.8040   31.7810   43.0420 C   0  0  0  0  0  0  0  0  0  0  0  0
   57.7327   31.3582   42.0290 H   0  0  0  0  0  0  0  0  0  0  0  0
   58.4130   33.0210   43.2360 C   0  0  0  0  0  0  0  0  0  0  0  0
   58.7985   33.5855   42.3742 H   0  0  0  0  0  0  0  0  0  0  0  0
   58.5330   33.5450   44.5240 C   0  0  0  0  0  0  0  0  0  0  0  0
   59.0077   34.5259   44.6737 H   0  0  0  0  0  0  0  0  0  0  0  0
   58.0520   32.8280   45.6270 C   0  0  0  0  0  0  0  0  0  0  0  0
   58.2320   33.3710   46.9390 N   0  0  0  0  0  0  0  0  0  0  0  0
   59.4990   33.5360   47.5960 C   0  0  0  0  0  0  0  0  0  0  0  0
   60.0850   34.6470   47.5270 O   0  0  0  0  0  0  0  0  0  0  0  0
   60.1500   32.4370   48.2430 N   0  0  0  0  0  0  0  0  0  0  0  0
   59.7230   32.0160   49.0970 H   0  0  0  0  0  0  0  0  0  0  0  0
   61.2160   31.7050   47.5730 C   0  0  0  0  0  0  0  0  0  0  0  0
   61.4278   32.1751   46.6013 H   0  0  0  0  0  0  0  0  0  0  0  0
   62.1209   31.7255   48.1980 H   0  0  0  0  0  0  0  0  0  0  0  0
   60.7930   30.2820   47.3570 C   0  0  0  0  0  0  0  0  0  0  0  0
   60.7590   29.3850   48.4350 C   0  0  0  0  0  0  0  0  0  0  0  0
   61.1083   29.7103   49.4260 H   0  0  0  0  0  0  0  0  0  0  0  0
   60.2850   28.0810   48.2610 C   0  0  0  0  0  0  0  0  0  0  0  0
   60.2677   27.3858   49.1133 H   0  0  0  0  0  0  0  0  0  0  0  0
   59.8300   27.6550   46.9990 C   0  0  0  0  0  0  0  0  0  0  0  0
   59.2690   26.3030   46.7770 C   0  0  0  0  0  0  0  0  0  0  0  0
   59.8331   25.6016   46.1446 H   0  0  0  0  0  0  0  0  0  0  0  0
   58.1110   25.8900   47.3060 C   0  0  0  0  0  0  0  0  0  0  0  0
   58.1310   25.2977   48.2327 H   0  0  0  0  0  0  0  0  0  0  0  0
   56.8120   26.2020   46.6890 C   0  0  0  0  0  0  0  0  0  0  0  0
   56.5350   27.3820   46.3350 O   0  0  0  0  0  0  0  0  0  0  0  0
   55.8900   25.1350   46.4420 N   0  0  0  0  0  0  0  0  0  0  0  0
   56.1140   24.0100   45.5770 C   0  0  0  0  0  0  0  0  0  0  0  0
   55.7720   22.7050   45.9780 C   0  0  0  0  0  0  0  0  0  0  0  0
   55.3307   22.5366   46.9714 H   0  0  0  0  0  0  0  0  0  0  0  0
   55.9890   21.6240   45.1240 C   0  0  0  0  0  0  0  0  0  0  0  0
   55.7071   20.6088   45.4400 H   0  0  0  0  0  0  0  0  0  0  0  0
   56.5630   21.8290   43.8700 C   0  0  0  0  0  0  0  0  0  0  0  0
   56.7269   20.9764   43.1945 H   0  0  0  0  0  0  0  0  0  0  0  0
   56.9300   23.1160   43.4710 C   0  0  0  0  0  0  0  0  0  0  0  0
   57.3889   23.2715   42.4835 H   0  0  0  0  0  0  0  0  0  0  0  0
   56.7180   24.2100   44.3190 C   0  0  0  0  0  0  0  0  0  0  0  0
   57.0920   25.5240   43.8860 N   0  0  0  0  0  0  0  0  0  0  0  0
   57.5780   25.6630   42.9760 H   0  0  0  0  0  0  0  0  0  0  0  0
   56.8590   26.3690   44.4500 H   0  0  0  0  0  0  0  0  0  0  0  0
   59.8450   28.5630   45.9310 C   0  0  0  0  0  0  0  0  0  0  0  0
   59.4738   28.2489   44.9443 H   0  0  0  0  0  0  0  0  0  0  0  0
   60.3270   29.8640   46.1070 C   0  0  0  0  0  0  0  0  0  0  0  0
   60.3395   30.5623   45.2571 H   0  0  0  0  0  0  0  0  0  0  0  0
   57.3940   31.6040   45.4240 C   0  0  0  0  0  0  0  0  0  0  0  0
   56.9656   31.0627   46.2804 H   0  0  0  0  0  0  0  0  0  0  0  0
  1  2  1  0
  2  3  1  0
  3  4  2  0
  3  5  2  0
  3  6  1  0
  6  7  2  0
  7  8  1  0
  7  9  1  0
  9 10  1  0
  9 11  2  0
 11 12  1  0
 11 13  1  0
 13 14  1  0
 14 15  1  0
 15 16  2  0
 15 17  1  0
 17 18  1  0
 17 19  1  0
 19 20  1  0
 19 21  1  0
 19 22  1  0
 22 23  2  0
 23 24  1  0
 23 25  1  0
 25 26  1  0
 25 27  2  0
 27 28  1  0
 28 29  1  0
 28 30  2  0
 30 31  1  0
 30 32  1  0
 32 33  2  0
 32 34  1  0
 34 35  1  0
 35 36  2  0
 36 37  1  0
 36 38  1  0
 38 39  1  0
 38 40  2  0
 40 41  1  0
 40 42  1  0
 42 43  1  0
 42 44  2  0
 44 45  1  0
 45 46  1  0
 45 47  1  0
 27 48  1  0
 48 49  1  0
 48 50  2  0
 50 51  1  0
 13 52  2  0
 52 53  1  0
 52  6  1  0
 50 22  1  0
 44 35  1  0
M  CHG  3   2  -1  14  -1  34  -1
M  END
>  <UniqueID>  (10) 
9

>  <SMILES>  (10) 
[NH-]S(=O)(=O)c1cccc([N-]C(=O)NCc2ccc(/C=C/C(=O)[N-]c3ccccc3N)cc2)c1

>  <Energy>  (10) 
64.74306679166261

>  <Genealogy>  (10) 
[NH-]S(=O)(=O)c1cccc([N-]C(=O)NCc2ccc(C=CC(=O)[N-]c3ccccc3N)cc2)c1 (protonated)
[NH-]S(=O)(=O)c1cccc([N-]C(=O)NCc2ccc(/C=C/C(=O)[N-]c3ccccc3N)cc2)c1 (cis-trans isomerization)
[NH-]S(=O)(=O)c1cccc([N-]C(=O)NCc2ccc(/C=C/C(=O)[N-]c3ccccc3N)cc2)c1 (3D coordinates assigned)
[NH-]S(=O)(=O)c1cccc([N-]C(=O)NCc2ccc(/C=C/C(=O)[N-]c3ccccc3N)cc2)c1 (optimized conformer: 64.74306679166261 kcal/mol)

>  <smiles>  (10) 
Nc1ccccc1NC(=O)C=Cc1ccc(CNC(=O)Nc2cccc(S(N)(=O)=O)c2)cc1

>  <score_type>  (10) 
oracle

>  <origin>  (10) 
adg

>  <m_score__min__energy>  (10) 
-15.09

>  <m_primary>  (10) 
energy

$$$$
10:0
     RDKit          3D

 67 70  0  0  0  0  0  0  0  0999 V2000
   59.3760   27.0470   47.0890 C   0  0  0  0  0  0  0  0  0  0  0  0
   58.6940   28.1220   46.2680 C   0  0  0  0  0  0  0  0  0  0  0  0
   58.9640   29.5480   46.2710 C   0  0  0  0  0  0  0  0  0  0  0  0
   59.9800   30.2970   47.0850 C   0  0  0  0  0  0  0  0  0  0  0  0
   59.3380   30.7980   48.3950 C   0  0  0  0  0  0  0  0  0  0  0  0
   59.3300   29.8870   49.4640 C   0  0  0  0  0  0  0  0  0  0  0  0
   58.7920   30.3000   50.6680 C   0  0  0  0  0  0  0  0  0  0  0  0
   58.1890   31.5560   50.8510 C   0  0  0  0  0  0  0  0  0  0  0  0
   57.3970   31.8340   52.0930 C   0  0  0  0  0  0  0  0  0  0  0  0
   57.0740   33.0150   52.3500 O   0  0  0  0  0  0  0  0  0  0  0  0
   56.8860   30.7630   52.9690 N   0  0  0  0  0  0  0  0  0  0  0  0
   55.8070   30.1230   52.7340 C   0  0  0  0  0  0  0  0  0  0  0  0
   54.8040   30.6960   51.9870 N   0  0  0  0  0  0  0  0  0  0  0  0
   53.6700   29.9700   52.0760 C   0  0  0  0  0  0  0  0  0  0  0  0
   52.3550   30.4540   51.4570 C   0  0  0  0  0  0  0  0  0  0  0  0
   51.1880   30.0140   52.4020 C   0  0  0  0  0  0  0  0  0  0  0  0
   52.2920   32.0260   51.2700 C   0  0  0  0  0  0  0  0  0  0  0  0
   52.2290   29.8200   50.0540 C   0  0  0  0  0  0  0  0  0  0  0  0
   53.7840   28.7790   52.8380 C   0  0  0  0  0  0  0  0  0  0  0  0
   55.2770   28.7730   53.4930 S   0  0  0  0  0  0  0  0  0  0  0  0
   58.2050   32.5090   49.7910 C   0  0  0  0  0  0  0  0  0  0  0  0
   58.8050   32.1440   48.5600 C   0  0  0  0  0  0  0  0  0  0  0  0
   58.9720   33.5300   47.4310 S   0  0  0  0  0  0  0  0  0  0  0  0
   59.6040   34.9530   48.2210 N   0  0  0  0  0  0  0  0  0  0  0  0
   57.6320   33.8000   46.9160 O   0  0  0  0  0  0  0  0  0  0  0  0
   59.9130   33.0850   46.2990 O   0  0  0  0  0  0  0  0  0  0  0  0
   58.0390   30.1010   45.4030 C   0  0  0  0  0  0  0  0  0  0  0  0
   57.2870   29.1010   44.9480 C   0  0  0  0  0  0  0  0  0  0  0  0
   57.6470   27.8870   45.4320 N   0  0  0  0  0  0  0  0  0  0  0  0
   57.0420   26.5980   45.0990 C   0  0  0  0  0  0  0  0  0  0  0  0
   56.1070   26.1510   46.1750 C   0  0  0  0  0  0  0  0  0  0  0  0
   56.5520   25.5880   47.2110 O   0  0  0  0  0  0  0  0  0  0  0  0
   54.7410   26.3340   45.9650 O   0  0  0  0  0  0  0  0  0  0  0  0
   56.2160   29.3360   43.9260 C   0  0  0  0  0  0  0  0  0  0  0  0
   56.7360   30.3740   42.8920 C   0  0  0  0  0  0  0  0  0  0  0  0
   57.5700   31.5710   43.4970 C   0  0  0  0  0  0  0  0  0  0  0  0
   57.7430   31.5360   45.0350 C   0  0  0  0  0  0  0  0  0  0  0  0
   59.2400   27.2614   48.1593 H   0  0  0  0  0  0  0  0  0  0  0  0
   58.9332   26.0684   46.8519 H   0  0  0  0  0  0  0  0  0  0  0  0
   60.4500   27.0306   46.8519 H   0  0  0  0  0  0  0  0  0  0  0  0
   60.8207   29.6289   47.3232 H   0  0  0  0  0  0  0  0  0  0  0  0
   60.3425   31.1596   46.5066 H   0  0  0  0  0  0  0  0  0  0  0  0
   59.7405   28.8733   49.3461 H   0  0  0  0  0  0  0  0  0  0  0  0
   58.8380   29.6119   51.5250 H   0  0  0  0  0  0  0  0  0  0  0  0
   54.8870   31.6120   51.5240 H   0  0  0  0  0  0  0  0  0  0  0  0
   51.5006   30.1319   53.4500 H   0  0  0  0  0  0  0  0  0  0  0  0
   50.3047   30.6408   52.2101 H   0  0  0  0  0  0  0  0  0  0  0  0
   50.9384   28.9600   52.2101 H   0  0  0  0  0  0  0  0  0  0  0  0
   52.2725   32.5121   52.2566 H   0  0  0  0  0  0  0  0  0  0  0  0
   53.1773   32.3646   50.7118 H   0  0  0  0  0  0  0  0  0  0  0  0
   51.3824   32.2927   50.7118 H   0  0  0  0  0  0  0  0  0  0  0  0
   52.0155   28.7457   50.1550 H   0  0  0  0  0  0  0  0  0  0  0  0
   51.4100   30.3065   49.5040 H   0  0  0  0  0  0  0  0  0  0  0  0
   53.1718   29.9564   49.5040 H   0  0  0  0  0  0  0  0  0  0  0  0
   53.0115   28.0060   52.9632 H   0  0  0  0  0  0  0  0  0  0  0  0
   57.7611   33.5064   49.9256 H   0  0  0  0  0  0  0  0  0  0  0  0
   59.0000   35.7780   48.0040 H   0  0  0  0  0  0  0  0  0  0  0  0
   56.4846   26.6953   44.1557 H   0  0  0  0  0  0  0  0  0  0  0  0
   57.8429   25.8508   44.9982 H   0  0  0  0  0  0  0  0  0  0  0  0
   55.9777   28.3915   43.4151 H   0  0  0  0  0  0  0  0  0  0  0  0
   55.3069   29.7159   44.4150 H   0  0  0  0  0  0  0  0  0  0  0  0
   57.3761   29.8441   42.1713 H   0  0  0  0  0  0  0  0  0  0  0  0
   55.8413   30.8257   42.4387 H   0  0  0  0  0  0  0  0  0  0  0  0
   58.5707   31.5548   43.0405 H   0  0  0  0  0  0  0  0  0  0  0  0
   57.0023   32.4860   43.2721 H   0  0  0  0  0  0  0  0  0  0  0  0
   58.5775   32.1855   45.3380 H   0  0  0  0  0  0  0  0  0  0  0  0
   56.8378   31.8978   45.5446 H   0  0  0  0  0  0  0  0  0  0  0  0
  1  2  1  0
  2  3  2  0
  3  4  1  0
  4  5  1  0
  5  6  2  0
  6  7  1  0
  7  8  2  0
  8  9  1  0
  9 10  2  0
  9 11  1  0
 11 12  2  3
 12 13  1  0
 13 14  1  0
 14 15  1  0
 15 16  1  0
 15 17  1  0
 15 18  1  0
 14 19  2  0
 19 20  1  0
  8 21  1  0
 21 22  2  0
 22 23  1  0
 23 24  1  0
 23 25  2  0
 23 26  2  0
  3 27  1  0
 27 28  2  0
 28 29  1  0
 29 30  1  0
 30 31  1  0
 31 32  2  0
 31 33  1  0
 28 34  1  0
 34 35  1  0
 35 36  1  0
 36 37  1  0
 29  2  1  0
 22  5  1  0
 37 27  1  0
 20 12  1  0
  1 38  1  0
  1 39  1  0
  1 40  1  0
  4 41  1  0
  4 42  1  0
  6 43  1  0
  7 44  1  0
 13 45  1  0
 16 46  1  0
 16 47  1  0
 16 48  1  0
 17 49  1  0
 17 50  1  0
 17 51  1  0
 18 52  1  0
 18 53  1  0
 18 54  1  0
 19 55  1  0
 21 56  1  0
 24 57  1  0
 30 58  1  0
 30 59  1  0
 34 60  1  0
 34 61  1  0
 35 62  1  0
 35 63  1  0
 36 64  1  0
 36 65  1  0
 37 66  1  0
 37 67  1  0
M  CHG  2  24  -1  33  -1
M  END
>  <UniqueID>  (11) 
10

>  <SMILES>  (11) 
Cc1c(Cc2ccc(C(=O)N=c3[nH]c(C(C)(C)C)cs3)cc2S([NH-])(=O)=O)c2c(n1CC(=O)[O-])CCCC2

>  <Energy>  (11) 
180.4194158064819

>  <Genealogy>  (11) 
Cc1c(Cc2ccc(C(=O)N=c3[nH]c(C(C)(C)C)cs3)cc2S([NH-])(=O)=O)c2c(n1CC(=O)[O-])CCCC2 (protonated)
Cc1c(Cc2ccc(C(=O)N=c3[nH]c(C(C)(C)C)cs3)cc2S([NH-])(=O)=O)c2c(n1CC(=O)[O-])CCCC2 (3D coordinates assigned)
Cc1c(Cc2ccc(C(=O)N=c3[nH]c(C(C)(C)C)cs3)cc2S([NH-])(=O)=O)c2c(n1CC(=O)[O-])CCCC2 (nonaromatic ring conformer: 180.4194158064819 kcal/mol)

>  <smiles>  (11) 
Cc1c(Cc2ccc(C(=O)N=c3[nH]c(C(C)(C)C)cs3)cc2S(N)(=O)=O)c2c(n1CC(=O)O)CCCC2

>  <score_type>  (11) 
oracle

>  <origin>  (11) 
adg

>  <m_score__min__energy>  (11) 
-14.710000000000001

>  <m_primary>  (11) 
energy

$$$$
11:0
     RDKit          3D

 40 42  0  0  0  0  0  0  0  0999 V2000
   57.9520   25.7510   44.9750 C   0  0  0  0  0  0  0  0  0  0  0  0
   58.4350   26.5170   46.1660 C   0  0  0  0  0  0  0  0  0  0  0  0
   59.1580   25.9620   47.1560 N   0  0  0  0  0  0  0  0  0  0  0  0
   59.4010   26.9950   47.9890 C   0  0  0  0  0  0  0  0  0  0  0  0
   58.8730   28.1200   47.5650 O   0  0  0  0  0  0  0  0  0  0  0  0
   58.2530   27.8640   46.4390 C   0  0  0  0  0  0  0  0  0  0  0  0
   57.5240   28.8810   45.6480 C   0  0  0  0  0  0  0  0  0  0  0  0
   58.1610   30.0680   45.2480 C   0  0  0  0  0  0  0  0  0  0  0  0
   57.4760   31.0360   44.4940 C   0  0  0  0  0  0  0  0  0  0  0  0
   58.1360   32.2990   44.0870 C   0  0  0  0  0  0  0  0  0  0  0  0
   58.1530   32.6200   42.8670 O   0  0  0  0  0  0  0  0  0  0  0  0
   58.7220   33.1760   45.0650 N   0  0  0  0  0  0  0  0  0  0  0  0
   59.2640   34.4900   44.7170 C   0  0  0  0  0  0  0  0  0  0  0  0
   59.6630   35.2640   45.9790 C   0  0  0  0  0  0  0  0  0  0  0  0
   60.3170   34.3670   46.9980 C   0  0  0  0  0  0  0  0  0  0  0  0
   61.5610   33.7740   46.7290 C   0  0  0  0  0  0  0  0  0  0  0  0
   62.1220   32.9010   47.6630 C   0  0  0  0  0  0  0  0  0  0  0  0
   61.4670   32.6280   48.8220 N   0  0  0  0  0  0  0  0  0  0  0  0
   60.2580   33.1850   49.1060 C   0  0  0  0  0  0  0  0  0  0  0  0
   59.6590   34.0600   48.1980 C   0  0  0  0  0  0  0  0  0  0  0  0
   56.1470   30.7870   44.1110 C   0  0  0  0  0  0  0  0  0  0  0  0
   55.5150   29.6000   44.4850 C   0  0  0  0  0  0  0  0  0  0  0  0
   56.1950   28.6490   45.2490 C   0  0  0  0  0  0  0  0  0  0  0  0
   55.5340   27.4810   45.6180 O   0  0  0  0  0  0  0  0  0  0  0  0
   57.3933   24.8650   45.3108 H   0  0  0  0  0  0  0  0  0  0  0  0
   57.2941   26.3915   44.3693 H   0  0  0  0  0  0  0  0  0  0  0  0
   58.8135   25.4334   44.3693 H   0  0  0  0  0  0  0  0  0  0  0  0
   59.9781   26.9047   48.9211 H   0  0  0  0  0  0  0  0  0  0  0  0
   59.2102   30.2418   45.5290 H   0  0  0  0  0  0  0  0  0  0  0  0
   58.5900   32.9740   46.0800 H   0  0  0  0  0  0  0  0  0  0  0  0
   60.1505   34.3575   44.0794 H   0  0  0  0  0  0  0  0  0  0  0  0
   58.4907   35.0608   44.1821 H   0  0  0  0  0  0  0  0  0  0  0  0
   60.3681   36.0611   45.7006 H   0  0  0  0  0  0  0  0  0  0  0  0
   58.7505   35.6845   46.4269 H   0  0  0  0  0  0  0  0  0  0  0  0
   62.0893   33.9955   45.7899 H   0  0  0  0  0  0  0  0  0  0  0  0
   63.0966   32.4330   47.4603 H   0  0  0  0  0  0  0  0  0  0  0  0
   59.7519   32.9452   50.0528 H   0  0  0  0  0  0  0  0  0  0  0  0
   58.6784   34.5053   48.4220 H   0  0  0  0  0  0  0  0  0  0  0  0
   55.6016   31.5319   43.5130 H   0  0  0  0  0  0  0  0  0  0  0  0
   54.4759   29.4126   44.1764 H   0  0  0  0  0  0  0  0  0  0  0  0
  1  2  1  0
  2  3  1  0
  3  4  2  0
  4  5  1  0
  5  6  1  0
  6  7  1  0
  7  8  2  0
  8  9  1  0
  9 10  1  0
 10 11  2  0
 10 12  1  0
 12 13  1  0
 13 14  1  0
 14 15  1  0
 15 16  2  0
 16 17  1  0
 17 18  2  0
 18 19  1  0
 19 20  2  0
  9 21  2  0
 21 22  1  0
 22 23  2  0
 23 24  1  0
  6  2  2  0
 23  7  1  0
 20 15  1  0
  1 25  1  0
  1 26  1  0
  1 27  1  0
  4 28  1  0
  8 29  1  0
 12 30  1  0
 13 31  1  0
 13 32  1  0
 14 33  1  0
 14 34  1  0
 16 35  1  0
 17 36  1  0
 19 37  1  0
 20 38  1  0
 21 39  1  0
 22 40  1  0
M  CHG  1  24  -1
M  END
>  <UniqueID>  (12) 
11

>  <SMILES>  (12) 
Cc1ncoc1-c1cc(C(=O)NCCc2ccncc2)ccc1[O-]

>  <Energy>  (12) 
74.06314093580211

>  <Genealogy>  (12) 
Cc1ncoc1-c1cc(C(=O)NCCc2ccncc2)ccc1[O-] (protonated)
Cc1ncoc1-c1cc(C(=O)NCCc2ccncc2)ccc1[O-] (3D coordinates assigned)
Cc1ncoc1-c1cc(C(=O)NCCc2ccncc2)ccc1[O-] (optimized conformer: 74.06314093580211 kcal/mol)

>  <smiles>  (12) 
Cc1ncoc1-c1cc(C(=O)NCCc2ccncc2)ccc1O

>  <score_type>  (12) 
oracle

>  <origin>  (12) 
adg

>  <m_score__min__energy>  (12) 
-11

>  <m_primary>  (12) 
energy

$$$$
12:0
     RDKit          3D

 58 61  0  0  0  0  0  0  0  0999 V2000
   58.4749   27.2704   44.0569 H   0  0  0  0  0  0  0  0  0  0  0  0
   58.6260   26.7230   44.9990 C   0  0  0  0  0  0  0  0  0  0  0  0
   58.3752   25.6537   45.0601 H   0  0  0  0  0  0  0  0  0  0  0  0
   59.1150   27.3580   46.0710 C   0  0  0  0  0  0  0  0  0  0  0  0
   59.6000   28.6760   46.1570 C   0  0  0  0  0  0  0  0  0  0  0  0
   59.5510   29.6860   45.2610 C   0  0  0  0  0  0  0  0  0  0  0  0
   60.1515   29.5772   44.3458 H   0  0  0  0  0  0  0  0  0  0  0  0
   58.7600   30.9220   45.4070 C   0  0  0  0  0  0  0  0  0  0  0  0
   59.3870   32.1410   45.6950 C   0  0  0  0  0  0  0  0  0  0  0  0
   60.4766   32.1709   45.8431 H   0  0  0  0  0  0  0  0  0  0  0  0
   58.6590   33.2940   45.7940 N   0  0  0  0  0  0  0  0  0  0  0  0
   59.3520   34.5570   46.0920 C   0  0  0  0  0  0  0  0  0  0  0  0
   59.6540   35.0364   45.1491 H   0  0  0  0  0  0  0  0  0  0  0  0
   58.6700   35.2165   46.6486 H   0  0  0  0  0  0  0  0  0  0  0  0
   60.5750   34.2970   46.9310 C   0  0  0  0  0  0  0  0  0  0  0  0
   60.5320   34.4930   48.3210 C   0  0  0  0  0  0  0  0  0  0  0  0
   59.6103   34.8637   48.7933 H   0  0  0  0  0  0  0  0  0  0  0  0
   61.6560   34.2190   49.1080 C   0  0  0  0  0  0  0  0  0  0  0  0
   61.6188   34.3805   50.1954 H   0  0  0  0  0  0  0  0  0  0  0  0
   62.8260   33.7400   48.5120 C   0  0  0  0  0  0  0  0  0  0  0  0
   63.7085   33.5219   49.1314 H   0  0  0  0  0  0  0  0  0  0  0  0
   62.8760   33.5380   47.1310 C   0  0  0  0  0  0  0  0  0  0  0  0
   63.7988   33.1635   46.6639 H   0  0  0  0  0  0  0  0  0  0  0  0
   61.7550   33.8110   46.3410 C   0  0  0  0  0  0  0  0  0  0  0  0
   61.7965   33.6450   45.2544 H   0  0  0  0  0  0  0  0  0  0  0  0
   57.3070   33.2640   45.5670 C   0  0  0  0  0  0  0  0  0  0  0  0
   56.6160   34.3160   45.6410 O   0  0  0  0  0  0  0  0  0  0  0  0
   56.6920   32.0930   45.2540 N   0  0  0  0  0  0  0  0  0  0  0  0
   57.3820   30.9310   45.1620 C   0  0  0  0  0  0  0  0  0  0  0  0
   56.7740   29.8680   44.8630 O   0  0  0  0  0  0  0  0  0  0  0  0
   60.1510   28.7840   47.4340 C   0  0  0  0  0  0  0  0  0  0  0  0
   60.8210   29.9680   48.0140 C   0  0  0  0  0  0  0  0  0  0  0  0
   61.8070   30.4630   47.4040 O   0  0  0  0  0  0  0  0  0  0  0  0
   60.3790   30.5550   49.2550 N   0  0  0  0  0  0  0  0  0  0  0  0
   61.3560   31.2720   50.0850 C   0  0  0  0  0  0  0  0  0  0  0  0
   62.1126   30.5596   50.4457 H   0  0  0  0  0  0  0  0  0  0  0  0
   61.8249   32.0570   49.4735 H   0  0  0  0  0  0  0  0  0  0  0  0
   60.6790   31.9310   51.2850 C   0  0  0  0  0  0  0  0  0  0  0  0
   60.4331   31.1676   52.0378 H   0  0  0  0  0  0  0  0  0  0  0  0
   61.3536   32.6722   51.7384 H   0  0  0  0  0  0  0  0  0  0  0  0
   59.4470   32.5870   50.8230 N   0  0  0  0  0  0  0  0  0  0  0  0
   58.9170   33.4820   51.8630 C   0  0  0  0  0  0  0  0  0  0  0  0
   59.1585   33.0742   52.8556 H   0  0  0  0  0  0  0  0  0  0  0  0
   59.3709   34.4782   51.7556 H   0  0  0  0  0  0  0  0  0  0  0  0
   57.8253   33.5629   51.7556 H   0  0  0  0  0  0  0  0  0  0  0  0
   58.4220   31.5960   50.4200 C   0  0  0  0  0  0  0  0  0  0  0  0
   57.8636   31.2889   51.3166 H   0  0  0  0  0  0  0  0  0  0  0  0
   57.7782   32.0832   49.6729 H   0  0  0  0  0  0  0  0  0  0  0  0
   59.0120   30.3320   49.7550 C   0  0  0  0  0  0  0  0  0  0  0  0
   59.0336   29.5190   50.4956 H   0  0  0  0  0  0  0  0  0  0  0  0
   58.3755   30.0731   48.8960 H   0  0  0  0  0  0  0  0  0  0  0  0
   59.9540   27.5660   48.0640 C   0  0  0  0  0  0  0  0  0  0  0  0
   60.4040   27.1820   49.4400 C   0  0  0  0  0  0  0  0  0  0  0  0
   59.7894   27.7065   50.1865 H   0  0  0  0  0  0  0  0  0  0  0  0
   60.2935   26.0956   49.5720 H   0  0  0  0  0  0  0  0  0  0  0  0
   61.4595   27.4620   49.5720 H   0  0  0  0  0  0  0  0  0  0  0  0
   59.3130   26.7190   47.2410 N   0  0  0  0  0  0  0  0  0  0  0  0
   59.0720   25.7240   47.4560 H   0  0  0  0  0  0  0  0  0  0  0  0
  1  2  1  0
  2  3  1  0
  2  4  2  0
  4  5  1  0
  5  6  2  0
  6  7  1  0
  6  8  1  0
  8  9  2  0
  9 10  1  0
  9 11  1  0
 11 12  1  0
 12 13  1  0
 12 14  1  0
 12 15  1  0
 15 16  2  0
 16 17  1  0
 16 18  1  0
 18 19  1  0
 18 20  2  0
 20 21  1  0
 20 22  1  0
 22 23  1  0
 22 24  2  0
 24 25  1  0
 11 26  1  0
 26 27  2  0
 26 28  1  0
 28 29  1  0
 29 30  2  0
  5 31  1  0
 31 32  1  0
 32 33  2  0
 32 34  1  0
 34 35  1  0
 35 36  1  0
 35 37  1  0
 35 38  1  0
 38 39  1  0
 38 40  1  0
 38 41  1  0
 41 42  1  0
 42 43  1  0
 42 44  1  0
 42 45  1  0
 41 46  1  0
 46 47  1  0
 46 48  1  0
 46 49  1  0
 49 50  1  0
 49 51  1  0
 31 52  2  0
 52 53  1  0
 53 54  1  0
 53 55  1  0
 53 56  1  0
 52 57  1  0
 57 58  1  0
 57  4  1  0
 29  8  1  0
 49 34  1  0
 24 15  1  0
M  CHG  1  28  -1
M  END
>  <UniqueID>  (13) 
12

>  <SMILES>  (13) 
C=c1[nH]c(C)c(C(=O)N2CCN(C)CC2)/c1=C/c1cn(Cc2ccccc2)c(=O)[n-]c1=O

>  <Energy>  (13) 
112.61274540018096

>  <Genealogy>  (13) 
C=c1[nH]c(C)c(C(=O)N2CCN(C)CC2)c1=Cc1cn(Cc2ccccc2)c(=O)[n-]c1=O (protonated)
C=c1[nH]c(C)c(C(=O)N2CCN(C)CC2)/c1=C/c1cn(Cc2ccccc2)c(=O)[n-]c1=O (cis-trans isomerization)
C=c1[nH]c(C)c(C(=O)N2CCN(C)CC2)/c1=C/c1cn(Cc2ccccc2)c(=O)[n-]c1=O (3D coordinates assigned)
C=c1[nH]c(C)c(C(=O)N2CCN(C)CC2)/c1=C/c1cn(Cc2ccccc2)c(=O)[n-]c1=O (nonaromatic ring conformer: 112.61274540018096 kcal/mol)

>  <smiles>  (13) 
C=c1[nH]c(C)c(C(=O)N2CCN(C)CC2)c1=Cc1cn(Cc2ccccc2)c(=O)[nH]c1=O

>  <score_type>  (13) 
oracle

>  <origin>  (13) 
adg

>  <m_score__min__energy>  (13) 
-12.210000000000001

>  <m_primary>  (13) 
energy

$$$$
13:0
     RDKit          3D

 59 62  0  0  0  0  0  0  0  0999 V2000
   58.8810   30.1360   48.3890 C   0  0  0  0  0  0  0  0  0  0  0  0
   59.2460   29.1980   49.5300 C   0  0  0  0  0  0  0  0  0  0  0  0
   60.6610   29.0660   49.6000 O   0  0  0  0  0  0  0  0  0  0  0  0
   61.4590   29.8710   50.4170 C   0  0  0  0  0  0  0  0  0  0  0  0
   61.7580   29.4900   51.5830 O   0  0  0  0  0  0  0  0  0  0  0  0
   61.9420   31.1820   49.9380 C   0  0  0  0  0  0  0  0  0  0  0  0
   62.2750   32.1860   50.7720 N   0  0  0  0  0  0  0  0  0  0  0  0
   62.6170   33.2440   50.0130 C   0  0  0  0  0  0  0  0  0  0  0  0
   63.0220   34.5670   50.5820 C   0  0  0  0  0  0  0  0  0  0  0  0
   62.5050   32.9250   48.6650 C   0  0  0  0  0  0  0  0  0  0  0  0
   62.7330   33.8350   47.5250 C   0  0  0  0  0  0  0  0  0  0  0  0
   63.8730   34.3400   47.3430 O   0  0  0  0  0  0  0  0  0  0  0  0
   61.6380   34.2040   46.6780 N   0  0  0  0  0  0  0  0  0  0  0  0
   60.3060   33.6720   46.7230 C   0  0  0  0  0  0  0  0  0  0  0  0
   59.4400   33.9240   47.8020 C   0  0  0  0  0  0  0  0  0  0  0  0
   58.1360   33.4240   47.7860 C   0  0  0  0  0  0  0  0  0  0  0  0
   57.6780   32.6890   46.6900 C   0  0  0  0  0  0  0  0  0  0  0  0
   58.5220   32.4550   45.5910 C   0  0  0  0  0  0  0  0  0  0  0  0
   58.0120   31.6920   44.3960 C   0  0  0  0  0  0  0  0  0  0  0  0
   57.4790   30.3410   44.8050 C   0  0  0  0  0  0  0  0  0  0  0  0
   56.1290   30.1830   44.8590 N   0  0  0  0  0  0  0  0  0  0  0  0
   55.5610   29.0100   45.1400 N   0  0  0  0  0  0  0  0  0  0  0  0
   56.3030   27.9020   45.3790 C   0  0  0  0  0  0  0  0  0  0  0  0
   55.7240   26.8100   45.6190 O   0  0  0  0  0  0  0  0  0  0  0  0
   57.7020   27.9880   45.3500 C   0  0  0  0  0  0  0  0  0  0  0  0
   58.3090   29.2250   45.0730 C   0  0  0  0  0  0  0  0  0  0  0  0
   59.8200   29.2650   44.9580 C   0  0  0  0  0  0  0  0  0  0  0  0
   60.5280   28.4030   46.0260 C   0  0  0  0  0  0  0  0  0  0  0  0
   59.7390   27.1620   46.5030 C   0  0  0  0  0  0  0  0  0  0  0  0
   58.5840   26.7850   45.5740 C   0  0  0  0  0  0  0  0  0  0  0  0
   59.8380   32.9480   45.6200 C   0  0  0  0  0  0  0  0  0  0  0  0
   62.0950   31.5930   48.6150 C   0  0  0  0  0  0  0  0  0  0  0  0
   61.8710   30.7670   47.3800 C   0  0  0  0  0  0  0  0  0  0  0  0
   58.5110   31.0868   48.8001 H   0  0  0  0  0  0  0  0  0  0  0  0
   59.7711   30.3254   47.7710 H   0  0  0  0  0  0  0  0  0  0  0  0
   58.0970   29.6740   47.7710 H   0  0  0  0  0  0  0  0  0  0  0  0
   58.8686   29.6091   50.4779 H   0  0  0  0  0  0  0  0  0  0  0  0
   58.7936   28.2111   49.3529 H   0  0  0  0  0  0  0  0  0  0  0  0
   62.2520   32.1600   51.8160 H   0  0  0  0  0  0  0  0  0  0  0  0
   63.0058   34.5141   51.6806 H   0  0  0  0  0  0  0  0  0  0  0  0
   64.0378   34.8169   50.2419 H   0  0  0  0  0  0  0  0  0  0  0  0
   62.3202   35.3427   50.2419 H   0  0  0  0  0  0  0  0  0  0  0  0
   59.7903   34.5161   48.6603 H   0  0  0  0  0  0  0  0  0  0  0  0
   57.4673   33.6097   48.6395 H   0  0  0  0  0  0  0  0  0  0  0  0
   56.6523   32.2916   46.6871 H   0  0  0  0  0  0  0  0  0  0  0  0
   57.2052   32.2678   43.9190 H   0  0  0  0  0  0  0  0  0  0  0  0
   58.8453   31.5423   43.6938 H   0  0  0  0  0  0  0  0  0  0  0  0
   60.1060   28.8948   43.9624 H   0  0  0  0  0  0  0  0  0  0  0  0
   60.1350   30.3074   45.1138 H   0  0  0  0  0  0  0  0  0  0  0  0
   61.4834   28.0570   45.6047 H   0  0  0  0  0  0  0  0  0  0  0  0
   60.6437   29.0479   46.9096 H   0  0  0  0  0  0  0  0  0  0  0  0
   60.4317   26.3096   46.5624 H   0  0  0  0  0  0  0  0  0  0  0  0
   59.3021   27.4103   47.4815 H   0  0  0  0  0  0  0  0  0  0  0  0
   58.9868   26.4417   44.6097 H   0  0  0  0  0  0  0  0  0  0  0  0
   57.9931   25.9792   46.0339 H   0  0  0  0  0  0  0  0  0  0  0  0
   60.5073   32.7629   44.7669 H   0  0  0  0  0  0  0  0  0  0  0  0
   61.5932   29.7427   47.6693 H   0  0  0  0  0  0  0  0  0  0  0  0
   61.0611   31.2119   46.7833 H   0  0  0  0  0  0  0  0  0  0  0  0
   62.7947   30.7417   46.7833 H   0  0  0  0  0  0  0  0  0  0  0  0
  1  2  1  0
  2  3  1  0
  3  4  1  0
  4  5  2  0
  4  6  1  0
  6  7  1  0
  7  8  1  0
  8  9  1  0
  8 10  2  0
 10 11  1  0
 11 12  2  0
 11 13  1  0
 13 14  1  0
 14 15  2  0
 15 16  1  0
 16 17  2  0
 17 18  1  0
 18 19  1  0
 19 20  1  0
 20 21  2  0
 21 22  1  0
 22 23  1  0
 23 24  2  0
 23 25  1  0
 25 26  2  0
 26 27  1  0
 27 28  1  0
 28 29  1  0
 29 30  1  0
 18 31  2  0
 10 32  1  0
 32 33  1  0
 32  6  2  0
 31 14  1  0
 26 20  1  0
 30 25  1  0
  1 34  1  0
  1 35  1  0
  1 36  1  0
  2 37  1  0
  2 38  1  0
  7 39  1  0
  9 40  1  0
  9 41  1  0
  9 42  1  0
 15 43  1  0
 16 44  1  0
 17 45  1  0
 19 46  1  0
 19 47  1  0
 27 48  1  0
 27 49  1  0
 28 50  1  0
 28 51  1  0
 29 52  1  0
 29 53  1  0
 30 54  1  0
 30 55  1  0
 31 56  1  0
 33 57  1  0
 33 58  1  0
 33 59  1  0
M  CHG  2  13  -1  22  -1
M  END
>  <UniqueID>  (14) 
13

>  <SMILES>  (14) 
CCOC(=O)c1[nH]c(C)c(C(=O)[N-]c2cccc(Cc3n[n-]c(=O)c4c3CCCC4)c2)c1C

>  <Energy>  (14) 
94.7141507641079

>  <Genealogy>  (14) 
CCOC(=O)c1[nH]c(C)c(C(=O)[N-]c2cccc(Cc3n[n-]c(=O)c4c3CCCC4)c2)c1C (protonated)
CCOC(=O)c1[nH]c(C)c(C(=O)[N-]c2cccc(Cc3n[n-]c(=O)c4c3CCCC4)c2)c1C (3D coordinates assigned)
CCOC(=O)c1[nH]c(C)c(C(=O)[N-]c2cccc(Cc3n[n-]c(=O)c4c3CCCC4)c2)c1C (nonaromatic ring conformer: 94.7141507641079 kcal/mol)

>  <smiles>  (14) 
CCOC(=O)c1[nH]c(C)c(C(=O)Nc2cccc(Cc3n[nH]c(=O)c4c3CCCC4)c2)c1C

>  <score_type>  (14) 
oracle

>  <origin>  (14) 
adg

>  <m_score__min__energy>  (14) 
-13.43

>  <m_primary>  (14) 
energy

$$$$
14:0
     RDKit          3D

 41 43  0  0  0  0  0  0  0  0999 V2000
   59.6840   35.1520   46.5810 C   0  0  0  0  0  0  0  0  0  0  0  0
   59.0500   34.1340   46.0000 C   0  0  0  0  0  0  0  0  0  0  0  0
   58.2600   34.2290   44.8760 C   0  0  0  0  0  0  0  0  0  0  0  0
   57.8050   32.9530   44.6170 C   0  0  0  0  0  0  0  0  0  0  0  0
   58.3390   32.1170   45.6030 C   0  0  0  0  0  0  0  0  0  0  0  0
   58.1380   30.7710   45.7170 C   0  0  0  0  0  0  0  0  0  0  0  0
   58.7500   30.0170   46.7420 C   0  0  0  0  0  0  0  0  0  0  0  0
   58.5450   28.6390   46.8540 C   0  0  0  0  0  0  0  0  0  0  0  0
   57.7180   27.9430   45.9480 C   0  0  0  0  0  0  0  0  0  0  0  0
   57.5080   26.5980   46.0540 C   0  0  0  0  0  0  0  0  0  0  0  0
   58.5720   25.6870   46.0520 O   0  0  0  0  0  0  0  0  0  0  0  0
   56.1630   25.9880   46.1780 C   0  0  0  0  0  0  0  0  0  0  0  0
   55.1470   26.7140   46.0130 O   0  0  0  0  0  0  0  0  0  0  0  0
   56.0110   24.5710   46.3340 N   0  0  0  0  0  0  0  0  0  0  0  0
   56.3370   23.5970   45.3320 C   0  0  0  0  0  0  0  0  0  0  0  0
   56.2880   23.9940   43.9890 C   0  0  0  0  0  0  0  0  0  0  0  0
   56.5780   23.0870   42.9690 C   0  0  0  0  0  0  0  0  0  0  0  0
   56.9310   21.7750   43.2810 C   0  0  0  0  0  0  0  0  0  0  0  0
   57.0180   21.3710   44.6150 C   0  0  0  0  0  0  0  0  0  0  0  0
   56.7500   22.2790   45.6550 C   0  0  0  0  0  0  0  0  0  0  0  0
   56.9190   21.8110   47.0760 C   0  0  0  0  0  0  0  0  0  0  0  0
   57.1000   28.6960   44.9270 C   0  0  0  0  0  0  0  0  0  0  0  0
   57.3070   30.0730   44.8130 C   0  0  0  0  0  0  0  0  0  0  0  0
   59.1010   32.8640   46.4420 N   0  0  0  0  0  0  0  0  0  0  0  0
   60.2948   34.9789   47.4793 H   0  0  0  0  0  0  0  0  0  0  0  0
   59.5965   36.1654   46.1623 H   0  0  0  0  0  0  0  0  0  0  0  0
   58.0368   35.1395   44.3005 H   0  0  0  0  0  0  0  0  0  0  0  0
   57.1459   32.6497   43.7902 H   0  0  0  0  0  0  0  0  0  0  0  0
   59.4020   30.5250   47.4679 H   0  0  0  0  0  0  0  0  0  0  0  0
   59.0392   28.0855   47.6661 H   0  0  0  0  0  0  0  0  0  0  0  0
   58.4610   24.6810   46.0740 H   0  0  0  0  0  0  0  0  0  0  0  0
   56.0184   25.0301   43.7365 H   0  0  0  0  0  0  0  0  0  0  0  0
   56.5280   23.4075   41.9179 H   0  0  0  0  0  0  0  0  0  0  0  0
   57.1414   21.0566   42.4750 H   0  0  0  0  0  0  0  0  0  0  0  0
   57.2983   20.3346   44.8542 H   0  0  0  0  0  0  0  0  0  0  0  0
   56.6277   22.6177   47.7648 H   0  0  0  0  0  0  0  0  0  0  0  0
   56.2816   20.9317   47.2507 H   0  0  0  0  0  0  0  0  0  0  0  0
   57.9711   21.5418   47.2507 H   0  0  0  0  0  0  0  0  0  0  0  0
   56.4420   28.1885   44.2063 H   0  0  0  0  0  0  0  0  0  0  0  0
   56.8118   30.6259   44.0011 H   0  0  0  0  0  0  0  0  0  0  0  0
   59.6430   32.5550   47.2780 H   0  0  0  0  0  0  0  0  0  0  0  0
  1  2  2  0
  2  3  1  0
  3  4  2  0
  4  5  1  0
  5  6  2  3
  6  7  1  0
  7  8  2  0
  8  9  1  0
  9 10  2  3
 10 11  1  0
 10 12  1  0
 12 13  2  0
 12 14  1  0
 14 15  1  0
 15 16  2  0
 16 17  1  0
 17 18  2  0
 18 19  1  0
 19 20  2  0
 20 21  1  0
  9 22  1  0
 22 23  2  0
  5 24  1  0
 24  2  1  0
 23  6  1  0
 20 15  1  0
  1 25  1  0
  1 26  1  0
  3 27  1  0
  4 28  1  0
  7 29  1  0
  8 30  1  0
 11 31  1  0
 16 32  1  0
 17 33  1  0
 18 34  1  0
 19 35  1  0
 21 36  1  0
 21 37  1  0
 21 38  1  0
 22 39  1  0
 23 40  1  0
 24 41  1  0
M  CHG  1  14  -1
M  END
>  <UniqueID>  (15) 
14

>  <SMILES>  (15) 
C=c1ccc(=c2ccc(=C(O)C(=O)[N-]c3ccccc3C)cc2)[nH]1

>  <Energy>  (15) 
96.2087449069917

>  <Genealogy>  (15) 
C=c1ccc(=c2ccc(=C(O)C(=O)[N-]c3ccccc3C)cc2)[nH]1 (protonated)
C=c1ccc(=c2ccc(=C(O)C(=O)[N-]c3ccccc3C)cc2)[nH]1 (3D coordinates assigned)
C=c1ccc(=c2ccc(=C(O)C(=O)[N-]c3ccccc3C)cc2)[nH]1 (optimized conformer: 96.2087449069917 kcal/mol)

>  <smiles>  (15) 
C=c1ccc(=c2ccc(=C(O)C(=O)Nc3ccccc3C)cc2)[nH]1

>  <score_type>  (15) 
oracle

>  <origin>  (15) 
adg

>  <m_score__min__energy>  (15) 
-9.4600000000000009

>  <m_primary>  (15) 
energy

$$$$
15:0
     RDKit          3D

 44 46  0  0  0  0  0  0  0  0999 V2000
   52.5600   23.9750   45.0680 C   0  0  0  0  0  0  0  0  0  0  0  0
   53.8270   24.6470   45.4780 C   0  0  0  0  0  0  0  0  0  0  0  0
   55.0240   24.0210   45.7600 C   0  0  0  0  0  0  0  0  0  0  0  0
   55.8530   25.0760   46.0670 C   0  0  0  0  0  0  0  0  0  0  0  0
   57.0960   24.9520   46.4290 N   0  0  0  0  0  0  0  0  0  0  0  0
   58.1500   25.8760   46.1270 C   0  0  0  0  0  0  0  0  0  0  0  0
   59.6720   25.2840   46.0020 S   0  0  0  0  0  0  0  0  0  0  0  0
   57.8470   27.1980   45.6480 N   0  0  0  0  0  0  0  0  0  0  0  0
   58.6740   28.3490   45.8990 C   0  0  0  0  0  0  0  0  0  0  0  0
   59.7410   28.2250   46.5610 O   0  0  0  0  0  0  0  0  0  0  0  0
   58.2930   29.6900   45.3940 C   0  0  0  0  0  0  0  0  0  0  0  0
   57.2860   29.8460   44.4240 C   0  0  0  0  0  0  0  0  0  0  0  0
   56.9410   31.1190   43.9630 C   0  0  0  0  0  0  0  0  0  0  0  0
   57.5850   32.2500   44.4690 C   0  0  0  0  0  0  0  0  0  0  0  0
   58.5750   32.1130   45.4490 C   0  0  0  0  0  0  0  0  0  0  0  0
   59.3890   33.5330   46.1020 S   0  0  0  0  0  0  0  0  0  0  0  0
   58.4440   34.3060   46.9790 O   0  0  0  0  0  0  0  0  0  0  0  0
   59.8230   34.4040   44.9570 O   0  0  0  0  0  0  0  0  0  0  0  0
   60.7810   33.0360   47.0350 N   0  0  0  0  0  0  0  0  0  0  0  0
   60.4570   32.9480   48.4790 C   0  0  0  0  0  0  0  0  0  0  0  0
   60.8470   34.2020   49.2710 C   0  0  0  0  0  0  0  0  0  0  0  0
   62.6640   34.4130   49.3510 S   0  0  0  0  0  0  0  0  0  0  0  0
   63.0770   33.7170   47.7080 C   0  0  0  0  0  0  0  0  0  0  0  0
   61.9330   33.9020   46.7120 C   0  0  0  0  0  0  0  0  0  0  0  0
   58.9270   30.8360   45.9070 C   0  0  0  0  0  0  0  0  0  0  0  0
   55.1870   26.2440   45.9820 N   0  0  0  0  0  0  0  0  0  0  0  0
   53.9730   25.9460   45.6200 O   0  0  0  0  0  0  0  0  0  0  0  0
   51.9967   23.6762   45.9644 H   0  0  0  0  0  0  0  0  0  0  0  0
   51.9536   24.6700   44.4686 H   0  0  0  0  0  0  0  0  0  0  0  0
   52.7953   23.0831   44.4686 H   0  0  0  0  0  0  0  0  0  0  0  0
   55.2576   22.9462   45.7435 H   0  0  0  0  0  0  0  0  0  0  0  0
   56.9760   27.3090   45.0830 H   0  0  0  0  0  0  0  0  0  0  0  0
   56.7675   28.9611   44.0264 H   0  0  0  0  0  0  0  0  0  0  0  0
   56.1585   31.2308   43.1980 H   0  0  0  0  0  0  0  0  0  0  0  0
   57.3141   33.2492   44.0972 H   0  0  0  0  0  0  0  0  0  0  0  0
   59.3730   32.7931   48.5838 H   0  0  0  0  0  0  0  0  0  0  0  0
   61.0398   32.1109   48.8909 H   0  0  0  0  0  0  0  0  0  0  0  0
   60.4067   35.0837   48.7824 H   0  0  0  0  0  0  0  0  0  0  0  0
   60.4687   34.0910   50.2979 H   0  0  0  0  0  0  0  0  0  0  0  0
   63.9726   34.2249   47.3206 H   0  0  0  0  0  0  0  0  0  0  0  0
   63.2563   32.6383   47.8278 H   0  0  0  0  0  0  0  0  0  0  0  0
   61.6068   34.9523   46.7351 H   0  0  0  0  0  0  0  0  0  0  0  0
   62.3004   33.6248   45.7129 H   0  0  0  0  0  0  0  0  0  0  0  0
   59.7069   30.7289   46.6753 H   0  0  0  0  0  0  0  0  0  0  0  0
  1  2  1  0
  2  3  2  0
  3  4  1  0
  4  5  2  3
  5  6  1  0
  6  7  2  0
  6  8  1  0
  8  9  1  0
  9 10  2  0
  9 11  1  0
 11 12  2  0
 12 13  1  0
 13 14  2  0
 14 15  1  0
 15 16  1  0
 16 17  2  0
 16 18  2  0
 16 19  1  0
 19 20  1  0
 20 21  1  0
 21 22  1  0
 22 23  1  0
 23 24  1  0
 15 25  2  0
  4 26  1  0
 26 27  1  0
 27  2  1  0
 25 11  1  0
 24 19  1  0
  1 28  1  0
  1 29  1  0
  1 30  1  0
  3 31  1  0
  8 32  1  0
 12 33  1  0
 13 34  1  0
 14 35  1  0
 20 36  1  0
 20 37  1  0
 21 38  1  0
 21 39  1  0
 23 40  1  0
 23 41  1  0
 24 42  1  0
 24 43  1  0
 25 44  1  0
M  CHG  1  26  -1
M  END
>  <UniqueID>  (16) 
15

>  <SMILES>  (16) 
Cc1cc(=NC(=S)NC(=O)c2cccc(S(=O)(=O)N3CCSCC3)c2)[n-]o1

>  <Energy>  (16) 
87.6002181939055

>  <Genealogy>  (16) 
Cc1cc(=NC(=S)NC(=O)c2cccc(S(=O)(=O)N3CCSCC3)c2)[n-]o1 (protonated)
Cc1cc(=NC(=S)NC(=O)c2cccc(S(=O)(=O)N3CCSCC3)c2)[n-]o1 (3D coordinates assigned)
Cc1cc(=NC(=S)NC(=O)c2cccc(S(=O)(=O)N3CCSCC3)c2)[n-]o1 (nonaromatic ring conformer: 87.6002181939055 kcal/mol)

>  <smiles>  (16) 
Cc1cc(=NC(=S)NC(=O)c2cccc(S(=O)(=O)N3CCSCC3)c2)[nH]o1

>  <score_type>  (16) 
oracle

>  <origin>  (16) 
adg

>  <m_score__min__energy>  (16) 
-11.699999999999999

>  <m_primary>  (16) 
energy

$$$$
16:0
     RDKit          3D

 27 29  0  0  0  0  0  0  0  0999 V2000
   53.9209   24.2504   44.1830 H   0  0  0  0  0  0  0  0  0  0  0  0
   54.8880   24.3300   44.7010 C   0  0  0  0  0  0  0  0  0  0  0  0
   56.1930   23.2750   44.5340 S   0  0  0  0  0  0  0  0  0  0  0  0
   57.1540   24.1250   45.6170 C   0  0  0  0  0  0  0  0  0  0  0  0
   58.3240   23.7890   45.9420 O   0  0  0  0  0  0  0  0  0  0  0  0
   56.5160   25.2140   46.1120 N   0  0  0  0  0  0  0  0  0  0  0  0
   57.0760   26.1150   47.1230 C   0  0  0  0  0  0  0  0  0  0  0  0
   57.8757   25.5953   47.6711 H   0  0  0  0  0  0  0  0  0  0  0  0
   56.2797   26.4148   47.8202 H   0  0  0  0  0  0  0  0  0  0  0  0
   57.6380   27.3350   46.4660 C   0  0  0  0  0  0  0  0  0  0  0  0
   58.8520   27.6280   46.6380 O   0  0  0  0  0  0  0  0  0  0  0  0
   56.7880   28.1270   45.6190 N   0  0  0  0  0  0  0  0  0  0  0  0
   56.9340   29.3790   45.2950 C   0  0  0  0  0  0  0  0  0  0  0  0
   55.9070   30.1220   44.8340 N   0  0  0  0  0  0  0  0  0  0  0  0
   56.2490   31.3790   44.5580 N   0  0  0  0  0  0  0  0  0  0  0  0
   57.5550   31.6410   44.7840 C   0  0  0  0  0  0  0  0  0  0  0  0
   58.1710   32.9930   44.6100 C   0  0  0  0  0  0  0  0  0  0  0  0
   58.8335   32.7165   43.7765 H   0  0  0  0  0  0  0  0  0  0  0  0
   58.3310   33.7890   45.8970 C   0  0  0  0  0  0  0  0  0  0  0  0
   58.0684   33.3319   46.8625 H   0  0  0  0  0  0  0  0  0  0  0  0
   59.1585   34.3309   46.3783 H   0  0  0  0  0  0  0  0  0  0  0  0
   57.2370   34.1570   44.9080 C   0  0  0  0  0  0  0  0  0  0  0  0
   56.1829   33.9662   45.1579 H   0  0  0  0  0  0  0  0  0  0  0  0
   56.9451   35.0753   44.3774 H   0  0  0  0  0  0  0  0  0  0  0  0
   58.3580   30.2860   45.3850 S   0  0  0  0  0  0  0  0  0  0  0  0
   55.2510   25.3190   45.6100 C   0  0  0  0  0  0  0  0  0  0  0  0
   54.3820   26.3390   45.9820 O   0  0  0  0  0  0  0  0  0  0  0  0
  1  2  1  0
  2  3  1  0
  3  4  1  0
  4  5  2  0
  4  6  1  0
  6  7  1  0
  7  8  1  0
  7  9  1  0
  7 10  1  0
 10 11  2  0
 10 12  1  0
 12 13  2  0
 13 14  1  0
 14 15  1  0
 15 16  2  0
 16 17  1  0
 17 18  1  0
 17 19  1  0
 19 20  1  0
 19 21  1  0
 19 22  1  0
 22 23  1  0
 22 24  1  0
 16 25  1  0
  6 26  1  0
 26 27  1  0
 26  2  2  0
 25 13  1  0
 22 17  1  0
M  CHG  2  14  -1  27  -1
M  END
>  <UniqueID>  (17) 
16

>  <SMILES>  (17) 
O=C(Cn1c([O-])csc1=O)/N=c1/[n-]nc(C2CC2)s1

>  <Energy>  (17) 
358.47106970513045

>  <Genealogy>  (17) 
O=C(Cn1c([O-])csc1=O)N=c1[n-]nc(C2CC2)s1 (protonated)
O=C(Cn1c([O-])csc1=O)/N=c1/[n-]nc(C2CC2)s1 (cis-trans isomerization)
O=C(Cn1c([O-])csc1=O)/N=c1/[n-]nc(C2CC2)s1 (3D coordinates assigned)
O=C(Cn1c([O-])csc1=O)/N=c1/[n-]nc(C2CC2)s1 (nonaromatic ring conformer: 358.47106970513045 kcal/mol)

>  <smiles>  (17) 
O=C(Cn1c(O)csc1=O)N=c1[nH]nc(C2CC2)s1

>  <score_type>  (17) 
oracle

>  <origin>  (17) 
adg

>  <m_score__min__energy>  (17) 
-12.390000000000001

>  <m_primary>  (17) 
energy

$$$$
17:0
     RDKit          3D

 60 62  0  0  0  0  0  0  0  0999 V2000
   59.8033   26.6860   49.1199 H   0  0  0  0  0  0  0  0  0  0  0  0
   59.3980   26.8810   48.1160 C   0  0  0  0  0  0  0  0  0  0  0  0
   58.8487   26.0918   47.5818 H   0  0  0  0  0  0  0  0  0  0  0  0
   59.5740   28.0840   47.5420 C   0  0  0  0  0  0  0  0  0  0  0  0
   59.1150   28.4720   46.2740 C   0  0  0  0  0  0  0  0  0  0  0  0
   58.4470   27.7110   45.3800 C   0  0  0  0  0  0  0  0  0  0  0  0
   58.8225   27.7009   44.3461 H   0  0  0  0  0  0  0  0  0  0  0  0
   57.2510   26.8890   45.6760 C   0  0  0  0  0  0  0  0  0  0  0  0
   57.2560   25.6400   46.1800 N   0  0  0  0  0  0  0  0  0  0  0  0
   55.9540   25.3810   46.4070 C   0  0  0  0  0  0  0  0  0  0  0  0
   55.5550   24.2920   46.8950 O   0  0  0  0  0  0  0  0  0  0  0  0
   55.1160   26.3880   46.0890 N   0  0  0  0  0  0  0  0  0  0  0  0
   55.9480   27.3310   45.6260 C   0  0  0  0  0  0  0  0  0  0  0  0
   55.5340   28.5830   45.1930 O   0  0  0  0  0  0  0  0  0  0  0  0
   59.4920   29.8000   46.1240 C   0  0  0  0  0  0  0  0  0  0  0  0
   59.2910   30.4439   45.2551 H   0  0  0  0  0  0  0  0  0  0  0  0
   60.1680   30.1580   47.2750 C   0  0  0  0  0  0  0  0  0  0  0  0
   60.7980   31.4780   47.4750 C   0  0  0  0  0  0  0  0  0  0  0  0
   61.2290   32.0740   46.4500 O   0  0  0  0  0  0  0  0  0  0  0  0
   60.6300   32.1920   48.7350 N   0  0  2  0  0  0  0  0  0  0  0  0
   60.4970   31.4390   49.4480 H   0  0  0  0  0  0  0  0  0  0  0  0
   59.3430   32.9630   48.7050 C   0  0  0  0  0  0  0  0  0  0  0  0
   58.5727   32.3786   49.2295 H   0  0  0  0  0  0  0  0  0  0  0  0
   59.5296   33.9311   49.1929 H   0  0  0  0  0  0  0  0  0  0  0  0
   58.8540   33.2530   47.2970 C   0  0  0  0  0  0  0  0  0  0  0  0
   59.3110   34.3900   46.6050 C   0  0  0  0  0  0  0  0  0  0  0  0
   60.0237   35.0746   47.0880 H   0  0  0  0  0  0  0  0  0  0  0  0
   58.8640   34.6540   45.3070 C   0  0  0  0  0  0  0  0  0  0  0  0
   59.2344   35.5390   44.7689 H   0  0  0  0  0  0  0  0  0  0  0  0
   57.9480   33.7970   44.6910 C   0  0  0  0  0  0  0  0  0  0  0  0
   57.6141   33.9983   43.6624 H   0  0  0  0  0  0  0  0  0  0  0  0
   57.4510   32.6750   45.3850 C   0  0  0  0  0  0  0  0  0  0  0  0
   56.5170   31.7910   44.8290 O   0  0  0  0  0  0  0  0  0  0  0  0
   56.8250   30.7850   43.8650 C   0  0  0  0  0  0  0  0  0  0  0  0
   57.1093   29.8566   44.3819 H   0  0  0  0  0  0  0  0  0  0  0  0
   55.9428   30.5985   43.2350 H   0  0  0  0  0  0  0  0  0  0  0  0
   57.6604   31.1244   43.2350 H   0  0  0  0  0  0  0  0  0  0  0  0
   57.8940   32.4230   46.6890 C   0  0  0  0  0  0  0  0  0  0  0  0
   57.4867   31.5657   47.2450 H   0  0  0  0  0  0  0  0  0  0  0  0
   61.8630   32.9540   49.1920 C   0  0  0  0  0  0  0  0  0  0  0  0
   61.6590   34.4860   49.0380 C   0  0  0  0  0  0  0  0  0  0  0  0
   61.5973   34.9496   50.0336 H   0  0  0  0  0  0  0  0  0  0  0  0
   62.5079   34.9153   48.4857 H   0  0  0  0  0  0  0  0  0  0  0  0
   60.7273   34.6782   48.4857 H   0  0  0  0  0  0  0  0  0  0  0  0
   62.0740   32.7130   50.7230 C   0  0  0  0  0  0  0  0  0  0  0  0
   61.4548   33.4203   51.2943 H   0  0  0  0  0  0  0  0  0  0  0  0
   61.7821   31.6830   50.9757 H   0  0  0  0  0  0  0  0  0  0  0  0
   63.1336   32.8663   50.9757 H   0  0  0  0  0  0  0  0  0  0  0  0
   63.2200   32.5360   48.5120 C   0  0  0  0  0  0  0  0  0  0  0  0
   63.9953   32.5559   49.2921 H   0  0  0  0  0  0  0  0  0  0  0  0
   63.0101   31.5518   48.0679 H   0  0  0  0  0  0  0  0  0  0  0  0
   63.7320   33.3770   47.3430 C   0  0  0  0  0  0  0  0  0  0  0  0
   64.2673   34.2563   47.7306 H   0  0  0  0  0  0  0  0  0  0  0  0
   64.4157   32.7729   46.7285 H   0  0  0  0  0  0  0  0  0  0  0  0
   62.8814   33.7070   46.7285 H   0  0  0  0  0  0  0  0  0  0  0  0
   60.2660   29.1010   48.1150 N   0  0  0  0  0  0  0  0  0  0  0  0
   61.0090   29.0830   49.3810 C   0  0  0  0  0  0  0  0  0  0  0  0
   60.3005   29.1002   50.2222 H   0  0  0  0  0  0  0  0  0  0  0  0
   61.6199   28.1698   49.4347 H   0  0  0  0  0  0  0  0  0  0  0  0
   61.6634   29.9656   49.4347 H   0  0  0  0  0  0  0  0  0  0  0  0
  1  2  1  0
  2  3  1  0
  2  4  2  0
  4  5  1  0
  5  6  2  0
  6  7  1  0
  6  8  1  0
  8  9  1  0
  9 10  1  0
 10 11  2  0
 10 12  1  0
 12 13  1  0
 13 14  1  0
  5 15  1  0
 15 16  1  0
 15 17  2  0
 17 18  1  0
 18 19  2  0
 18 20  1  0
 20 21  1  1
 20 22  1  0
 22 23  1  0
 22 24  1  0
 22 25  1  0
 25 26  2  0
 26 27  1  0
 26 28  1  0
 28 29  1  0
 28 30  2  0
 30 31  1  0
 30 32  1  0
 32 33  1  0
 33 34  1  0
 34 35  1  0
 34 36  1  0
 34 37  1  0
 32 38  2  0
 38 39  1  0
 20 40  1  0
 40 41  1  0
 41 42  1  0
 41 43  1  0
 41 44  1  0
 40 45  1  0
 45 46  1  0
 45 47  1  0
 45 48  1  0
 40 49  1  0
 49 50  1  0
 49 51  1  0
 49 52  1  0
 52 53  1  0
 52 54  1  0
 52 55  1  0
 17 56  1  0
 56 57  1  0
 57 58  1  0
 57 59  1  0
 57 60  1  0
 56  4  1  0
 13  8  2  0
 38 25  1  0
M  CHG  4   9  -1  12  -1  14  -1  20   1
M  END
>  <UniqueID>  (18) 
17

>  <SMILES>  (18) 
C=c1/c(=C/c2[n-]c(=O)[n-]c2[O-])cc(C(=O)[N@H+](Cc2cccc(OC)c2)C(C)(C)CC)n1C

>  <Energy>  (18) 
153.7818327211946

>  <Genealogy>  (18) 
C=c1c(=Cc2[n-]c(=O)[n-]c2[O-])cc(C(=O)[NH+](Cc2cccc(OC)c2)C(C)(C)CC)n1C (protonated)
C=c1c(=Cc2[n-]c(=O)[n-]c2[O-])cc(C(=O)[N@H+](Cc2cccc(OC)c2)C(C)(C)CC)n1C (chirality)
C=c1/c(=C/c2[n-]c(=O)[n-]c2[O-])cc(C(=O)[N@H+](Cc2cccc(OC)c2)C(C)(C)CC)n1C (cis-trans isomerization)
C=c1/c(=C/c2[n-]c(=O)[n-]c2[O-])cc(C(=O)[N@H+](Cc2cccc(OC)c2)C(C)(C)CC)n1C (3D coordinates assigned)
C=c1/c(=C/c2[n-]c(=O)[n-]c2[O-])cc(C(=O)[N@H+](Cc2cccc(OC)c2)C(C)(C)CC)n1C (optimized conformer: 153.7818327211946 kcal/mol)

>  <smiles>  (18) 
C=c1c(=Cc2[nH]c(=O)[nH]c2O)cc(C(=O)N(Cc2cccc(OC)c2)C(C)(C)CC)n1C

>  <score_type>  (18) 
oracle

>  <origin>  (18) 
adg

>  <m_score__min__energy>  (18) 
-16.690000000000001

>  <m_primary>  (18) 
energy

$$$$
18:0
     RDKit          3D

 98102  0  0  0  0  0  0  0  0999 V2000
   59.2240   34.5200   46.3690 C   0  0  0  0  0  0  0  0  0  0  0  0
   58.7220   34.5760   45.1350 C   0  0  0  0  0  0  0  0  0  0  0  0
   57.8980   33.4950   44.5640 C   0  0  0  0  0  0  0  0  0  0  0  0
   56.9490   32.9970   45.2310 O   0  0  0  0  0  0  0  0  0  0  0  0
   58.1750   33.0140   43.2410 N   0  0  0  0  0  0  0  0  0  0  0  0
   57.4300   31.9140   42.6320 C   0  0  0  0  0  0  0  0  0  0  0  0
   57.3240   30.7620   43.5960 C   0  0  0  0  0  0  0  0  0  0  0  0
   56.0700   30.2910   44.0140 C   0  0  0  0  0  0  0  0  0  0  0  0
   55.9830   29.2280   44.9190 C   0  0  0  0  0  0  0  0  0  0  0  0
   57.1430   28.6340   45.4320 C   0  0  0  0  0  0  0  0  0  0  0  0
   57.0100   27.5190   46.3260 N   0  0  0  0  0  0  0  0  0  0  0  0
   58.0820   26.7990   46.9500 C   0  0  0  0  0  0  0  0  0  0  0  0
   58.1790   25.5510   46.7950 O   0  0  0  0  0  0  0  0  0  0  0  0
   59.0710   27.5050   47.7250 N   0  0  0  0  0  0  0  0  0  0  0  0
   59.0370   28.9640   47.8180 C   0  0  0  0  0  0  0  0  0  0  0  0
   60.4440   29.5240   48.0830 C   0  0  0  0  0  0  0  0  0  0  0  0
   61.1540   28.8930   49.2360 N   0  0  0  0  0  0  0  0  0  0  0  0
   61.5990   29.8550   50.3110 C   0  0  0  0  0  0  0  0  0  0  0  0
   60.3040   30.5300   50.8890 C   0  0  0  0  0  0  0  0  0  0  0  0
   59.2220   29.7800   51.2100 C   0  0  0  0  0  0  0  0  0  0  0  0
   57.9390   30.3780   51.6350 C   0  0  0  0  0  0  0  0  0  0  0  0
   56.9720   29.6210   51.9190 O   0  0  0  0  0  0  0  0  0  0  0  0
   57.7660   31.8670   51.7670 C   0  0  0  0  0  0  0  0  0  0  0  0
   58.8960   32.6620   51.0650 C   0  0  0  0  0  0  0  0  0  0  0  0
   58.6610   32.7180   49.5390 C   0  0  0  0  0  0  0  0  0  0  0  0
   58.9080   34.1060   51.6110 C   0  0  0  0  0  0  0  0  0  0  0  0
   60.2500   31.9810   51.3840 C   0  0  0  0  0  0  0  0  0  0  0  0
   62.5350   30.9830   49.6990 C   0  0  0  0  0  0  0  0  0  0  0  0
   63.1730   31.8560   50.7830 C   0  0  0  0  0  0  0  0  0  0  0  0
   63.9220   31.0250   51.7370 N   0  0  0  0  0  0  0  0  0  0  0  0
   64.4540   31.6140   52.9360 C   0  0  0  0  0  0  0  0  0  0  0  0
   64.2380   31.0570   54.0500 O   0  0  0  0  0  0  0  0  0  0  0  0
   65.2570   32.8560   52.8950 C   0  0  0  0  0  0  0  0  0  0  0  0
   64.9780   33.9060   53.7780 C   0  0  0  0  0  0  0  0  0  0  0  0
   65.7460   35.0730   53.7640 C   0  0  0  0  0  0  0  0  0  0  0  0
   66.8320   35.2200   52.8680 C   0  0  0  0  0  0  0  0  0  0  0  0
   67.7080   36.4880   52.8180 C   0  0  0  0  0  0  0  0  0  0  0  0
   68.5970   36.5500   54.0810 C   0  0  0  0  0  0  0  0  0  0  0  0
   66.8050   37.7410   52.7660 C   0  0  0  0  0  0  0  0  0  0  0  0
   68.6410   36.5290   51.5830 C   0  0  0  0  0  0  0  0  0  0  0  0
   67.1100   34.1440   51.9950 C   0  0  0  0  0  0  0  0  0  0  0  0
   66.3390   32.9800   52.0140 C   0  0  0  0  0  0  0  0  0  0  0  0
   63.8990   29.5640   51.5800 C   0  0  0  0  0  0  0  0  0  0  0  0
   62.4450   29.0970   51.4290 C   0  0  0  0  0  0  0  0  0  0  0  0
   60.5500   27.6180   49.6990 C   0  0  0  0  0  0  0  0  0  0  0  0
   60.0370   26.7610   48.5360 C   0  0  0  0  0  0  0  0  0  0  0  0
   58.4000   29.0980   45.0040 C   0  0  0  0  0  0  0  0  0  0  0  0
   58.4870   30.1610   44.0990 C   0  0  0  0  0  0  0  0  0  0  0  0
   59.8338   35.3511   46.7529 H   0  0  0  0  0  0  0  0  0  0  0  0
   59.0283   33.6427   47.0031 H   0  0  0  0  0  0  0  0  0  0  0  0
   58.9308   35.4632   44.5191 H   0  0  0  0  0  0  0  0  0  0  0  0
   58.9360   33.4660   42.6820 H   0  0  0  0  0  0  0  0  0  0  0  0
   56.4201   32.2612   42.3681 H   0  0  0  0  0  0  0  0  0  0  0  0
   57.9596   31.5785   41.7282 H   0  0  0  0  0  0  0  0  0  0  0  0
   55.1523   30.7593   43.6287 H   0  0  0  0  0  0  0  0  0  0  0  0
   54.9958   28.8557   45.2302 H   0  0  0  0  0  0  0  0  0  0  0  0
   58.6559   29.3774   46.8726 H   0  0  0  0  0  0  0  0  0  0  0  0
   58.3793   29.2502   48.6520 H   0  0  0  0  0  0  0  0  0  0  0  0
   61.0514   29.3694   47.1790 H   0  0  0  0  0  0  0  0  0  0  0  0
   60.3154   30.5863   48.3378 H   0  0  0  0  0  0  0  0  0  0  0  0
   59.3016   28.6844   51.1520 H   0  0  0  0  0  0  0  0  0  0  0  0
   56.8032   32.1512   51.3172 H   0  0  0  0  0  0  0  0  0  0  0  0
   57.8011   32.1131   52.8385 H   0  0  0  0  0  0  0  0  0  0  0  0
   57.6088   32.9687   49.3390 H   0  0  0  0  0  0  0  0  0  0  0  0
   59.3116   33.4862   49.0958 H   0  0  0  0  0  0  0  0  0  0  0  0
   58.8952   31.7389   49.0958 H   0  0  0  0  0  0  0  0  0  0  0  0
   58.9078   34.0822   52.7107 H   0  0  0  0  0  0  0  0  0  0  0  0
   59.8105   34.6249   51.2556 H   0  0  0  0  0  0  0  0  0  0  0  0
   58.0143   34.6398   51.2556 H   0  0  0  0  0  0  0  0  0  0  0  0
   61.0555   32.5507   50.8976 H   0  0  0  0  0  0  0  0  0  0  0  0
   60.3702   31.9678   52.4773 H   0  0  0  0  0  0  0  0  0  0  0  0
   63.3340   30.5023   49.1155 H   0  0  0  0  0  0  0  0  0  0  0  0
   61.9121   31.6320   49.0659 H   0  0  0  0  0  0  0  0  0  0  0  0
   63.8596   32.5747   50.3117 H   0  0  0  0  0  0  0  0  0  0  0  0
   62.3780   32.3905   51.3237 H   0  0  0  0  0  0  0  0  0  0  0  0
   64.1452   33.8112   54.4904 H   0  0  0  0  0  0  0  0  0  0  0  0
   65.5032   35.8898   54.4596 H   0  0  0  0  0  0  0  0  0  0  0  0
   67.9625   36.5058   54.9785 H   0  0  0  0  0  0  0  0  0  0  0  0
   69.2930   35.6982   54.0816 H   0  0  0  0  0  0  0  0  0  0  0  0
   69.1681   37.4902   54.0816 H   0  0  0  0  0  0  0  0  0  0  0  0
   66.5703   38.0666   53.7902 H   0  0  0  0  0  0  0  0  0  0  0  0
   67.3296   38.5493   52.2354 H   0  0  0  0  0  0  0  0  0  0  0  0
   65.8723   37.4990   52.2354 H   0  0  0  0  0  0  0  0  0  0  0  0
   69.6884   36.5750   51.9161 H   0  0  0  0  0  0  0  0  0  0  0  0
   68.4882   35.6233   50.9778 H   0  0  0  0  0  0  0  0  0  0  0  0
   68.4093   37.4178   50.9778 H   0  0  0  0  0  0  0  0  0  0  0  0
   67.9487   34.2249   51.2879 H   0  0  0  0  0  0  0  0  0  0  0  0
   66.5834   32.1530   51.3311 H   0  0  0  0  0  0  0  0  0  0  0  0
   64.4715   29.2809   50.6844 H   0  0  0  0  0  0  0  0  0  0  0  0
   64.3503   29.0896   52.4639 H   0  0  0  0  0  0  0  0  0  0  0  0
   62.4563   28.0259   51.1788 H   0  0  0  0  0  0  0  0  0  0  0  0
   61.9526   29.3205   52.3869 H   0  0  0  0  0  0  0  0  0  0  0  0
   61.3105   27.0463   50.2511 H   0  0  0  0  0  0  0  0  0  0  0  0
   59.6904   27.8658   50.3391 H   0  0  0  0  0  0  0  0  0  0  0  0
   60.8872   26.4664   47.9033 H   0  0  0  0  0  0  0  0  0  0  0  0
   59.5384   25.8713   48.9482 H   0  0  0  0  0  0  0  0  0  0  0  0
   59.3175   28.6234   45.3822 H   0  0  0  0  0  0  0  0  0  0  0  0
   59.4737   30.5278   43.7799 H   0  0  0  0  0  0  0  0  0  0  0  0
  1  2  2  0
  2  3  1  0
  3  4  2  0
  3  5  1  0
  5  6  1  0
  6  7  1  0
  7  8  2  0
  8  9  1  0
  9 10  2  0
 10 11  1  0
 11 12  1  0
 12 13  2  0
 12 14  1  0
 14 15  1  0
 15 16  1  0
 16 17  1  0
 17 18  1  0
 18 19  1  0
 19 20  2  0
 20 21  1  0
 21 22  2  0
 21 23  1  0
 23 24  1  0
 24 25  1  0
 24 26  1  0
 24 27  1  0
 18 28  1  0
 28 29  1  0
 29 30  1  0
 30 31  1  0
 31 32  2  0
 31 33  1  0
 33 34  2  0
 34 35  1  0
 35 36  2  0
 36 37  1  0
 37 38  1  0
 37 39  1  0
 37 40  1  0
 36 41  1  0
 41 42  2  0
 30 43  1  0
 43 44  1  0
 17 45  1  0
 45 46  1  0
 10 47  1  0
 47 48  2  0
 48  7  1  0
 46 14  1  0
 44 18  1  0
 27 19  1  0
 42 33  1  0
  1 49  1  0
  1 50  1  0
  2 51  1  0
  5 52  1  0
  6 53  1  0
  6 54  1  0
  8 55  1  0
  9 56  1  0
 15 57  1  0
 15 58  1  0
 16 59  1  0
 16 60  1  0
 20 61  1  0
 23 62  1  0
 23 63  1  0
 25 64  1  0
 25 65  1  0
 25 66  1  0
 26 67  1  0
 26 68  1  0
 26 69  1  0
 27 70  1  0
 27 71  1  0
 28 72  1  0
 28 73  1  0
 29 74  1  0
 29 75  1  0
 34 76  1  0
 35 77  1  0
 38 78  1  0
 38 79  1  0
 38 80  1  0
 39 81  1  0
 39 82  1  0
 39 83  1  0
 40 84  1  0
 40 85  1  0
 40 86  1  0
 41 87  1  0
 42 88  1  0
 43 89  1  0
 43 90  1  0
 44 91  1  0
 44 92  1  0
 45 93  1  0
 45 94  1  0
 46 95  1  0
 46 96  1  0
 47 97  1  0
 48 98  1  0
M  CHG  1  11  -1
M  END
>  <UniqueID>  (19) 
18

>  <SMILES>  (19) 
C=CC(=O)NCc1ccc([N-]C(=O)N2CCN(C3(C4=CC(=O)CC(C)(C)C4)CCN(C(=O)c4ccc(C(C)(C)C)cc4)CC3)CC2)cc1

>  <Energy>  (19) 
140.6498346186598

>  <Genealogy>  (19) 
C=CC(=O)NCc1ccc([N-]C(=O)N2CCN(C3(C4=CC(=O)CC(C)(C)C4)CCN(C(=O)c4ccc(C(C)(C)C)cc4)CC3)CC2)cc1 (protonated)
C=CC(=O)NCc1ccc([N-]C(=O)N2CCN(C3(C4=CC(=O)CC(C)(C)C4)CCN(C(=O)c4ccc(C(C)(C)C)cc4)CC3)CC2)cc1 (3D coordinates assigned)
C=CC(=O)NCc1ccc([N-]C(=O)N2CCN(C3(C4=CC(=O)CC(C)(C)C4)CCN(C(=O)c4ccc(C(C)(C)C)cc4)CC3)CC2)cc1 (nonaromatic ring conformer: 140.6498346186598 kcal/mol)

>  <smiles>  (19) 
C=CC(=O)NCc1ccc(NC(=O)N2CCN(C3(C4=CC(=O)CC(C)(C)C4)CCN(C(=O)c4ccc(C(C)(C)C)cc4)CC3)CC2)cc1

>  <score_type>  (19) 
oracle

>  <origin>  (19) 
adg

>  <m_score__min__energy>  (19) 
-11.41

>  <m_primary>  (19) 
energy

$$$$
19:0
     RDKit          3D

 20 21  0  0  0  0  0  0  0  0999 V2000
   60.6460   30.3450   46.7840 C   0  0  0  0  0  0  0  0  0  0  0  0
   59.4730   30.0790   46.2240 C   0  0  0  0  0  0  0  0  0  0  0  0
   59.0640   28.8260   45.9180 N   0  0  0  0  0  0  0  0  0  0  0  0
   57.8220   28.8170   45.3570 C   0  0  0  0  0  0  0  0  0  0  0  0
   57.2180   27.6880   44.9510 C   0  0  0  0  0  0  0  0  0  0  0  0
   57.1690   26.4510   45.7650 C   0  0  0  0  0  0  0  0  0  0  0  0
   55.9460   26.0110   46.2930 C   0  0  0  0  0  0  0  0  0  0  0  0
   54.7710   26.7100   46.0370 O   0  0  0  0  0  0  0  0  0  0  0  0
   55.8970   24.8860   47.0530 N   0  0  0  0  0  0  0  0  0  0  0  0
   57.0200   24.1770   47.3280 C   0  0  0  0  0  0  0  0  0  0  0  0
   56.9490   23.1360   48.0290 O   0  0  0  0  0  0  0  0  0  0  0  0
   58.2210   24.5950   46.8530 N   0  0  0  0  0  0  0  0  0  0  0  0
   58.3240   25.7140   46.0910 C   0  0  0  0  0  0  0  0  0  0  0  0
   59.4640   26.0910   45.7050 O   0  0  0  0  0  0  0  0  0  0  0  0
   57.2620   30.0860   45.2150 C   0  0  0  0  0  0  0  0  0  0  0  0
   56.1330   30.3420   44.7190 O   0  0  0  0  0  0  0  0  0  0  0  0
   58.3240   31.2430   45.8090 S   0  0  0  0  0  0  0  0  0  0  0  0
   60.9243   31.3849   47.0101 H   0  0  0  0  0  0  0  0  0  0  0  0
   61.3402   29.5256   47.0222 H   0  0  0  0  0  0  0  0  0  0  0  0
   56.7347   27.6815   43.9629 H   0  0  0  0  0  0  0  0  0  0  0  0
  1  2  2  0
  2  3  1  0
  3  4  1  0
  4  5  2  3
  5  6  1  0
  6  7  2  0
  7  8  1  0
  7  9  1  0
  9 10  1  0
 10 11  2  0
 10 12  1  0
 12 13  1  0
 13 14  2  0
  4 15  1  0
 15 16  2  0
 15 17  1  0
 17  2  1  0
 13  6  1  0
  1 18  1  0
  1 19  1  0
  5 20  1  0
M  CHG  4   3  -1   8  -1   9  -1  12  -1
M  END
>  <UniqueID>  (20) 
19

>  <SMILES>  (20) 
C=c1[n-]c(=Cc2c([O-])[n-]c(=O)[n-]c2=O)c(=O)s1

>  <Energy>  (20) 
60.39897155856216

>  <Genealogy>  (20) 
C=c1[n-]c(=Cc2c([O-])[n-]c(=O)[n-]c2=O)c(=O)s1 (protonated)
C=c1[n-]c(=Cc2c([O-])[n-]c(=O)[n-]c2=O)c(=O)s1 (3D coordinates assigned)
C=c1[n-]c(=Cc2c([O-])[n-]c(=O)[n-]c2=O)c(=O)s1 (optimized conformer: 60.39897155856216 kcal/mol)

>  <smiles>  (20) 
C=c1[nH]c(=Cc2c(O)[nH]c(=O)[nH]c2=O)c(=O)s1

>  <score_type>  (20) 
oracle

>  <origin>  (20) 
adg

>  <m_score__min__energy>  (20) 
-14.300000000000001

>  <m_primary>  (20) 
energy

$$$$
20:0
     RDKit          3D

 52 54  0  0  0  0  0  0  0  0999 V2000
   63.3950   33.7870   46.4700 C   0  0  0  0  0  0  0  0  0  0  0  0
   62.9280   32.7880   47.4740 C   0  0  0  0  0  0  0  0  0  0  0  0
   63.3750   32.6880   48.7860 C   0  0  0  0  0  0  0  0  0  0  0  0
   62.8100   31.6120   49.4810 C   0  0  0  0  0  0  0  0  0  0  0  0
   61.9400   30.8560   48.7030 C   0  0  0  0  0  0  0  0  0  0  0  0
   61.1320   29.6840   49.1740 C   0  0  0  0  0  0  0  0  0  0  0  0
   59.7160   29.8350   48.7770 N   0  0  0  0  0  0  0  0  0  0  0  0
   58.8500   30.1780   49.9360 C   0  0  0  0  0  0  0  0  0  0  0  0
   58.7870   31.6650   50.1250 C   0  0  0  0  0  0  0  0  0  0  0  0
   58.1940   32.1570   51.1240 O   0  0  0  0  0  0  0  0  0  0  0  0
   59.4300   32.5230   49.1740 N   0  0  0  0  0  0  0  0  0  0  0  0
   59.5980   33.9590   49.3960 C   0  0  0  0  0  0  0  0  0  0  0  0
   60.0950   34.6650   48.1280 C   0  0  0  0  0  0  0  0  0  0  0  0
   59.2530   34.3060   46.9300 C   0  0  0  0  0  0  0  0  0  0  0  0
   57.9450   33.8220   47.1020 C   0  0  0  0  0  0  0  0  0  0  0  0
   57.1510   33.5290   45.9890 C   0  0  0  0  0  0  0  0  0  0  0  0
   57.6540   33.7200   44.7000 C   0  0  0  0  0  0  0  0  0  0  0  0
   58.9510   34.2090   44.5210 C   0  0  0  0  0  0  0  0  0  0  0  0
   59.7480   34.5060   45.6310 C   0  0  0  0  0  0  0  0  0  0  0  0
   59.2420   28.6210   48.0800 C   0  0  0  0  0  0  0  0  0  0  0  0
   58.6950   28.9750   46.7230 C   0  0  0  0  0  0  0  0  0  0  0  0
   57.9050   28.0660   46.0040 C   0  0  0  0  0  0  0  0  0  0  0  0
   57.4210   28.4270   44.7450 C   0  0  0  0  0  0  0  0  0  0  0  0
   57.7240   29.6830   44.2170 C   0  0  0  0  0  0  0  0  0  0  0  0
   58.5180   30.5610   44.9580 C   0  0  0  0  0  0  0  0  0  0  0  0
   58.9840   30.1900   46.1800 N   0  0  0  0  0  0  0  0  0  0  0  0
   61.8580   31.5280   47.1620 S   0  0  0  0  0  0  0  0  0  0  0  0
   63.8055   34.6651   46.9900 H   0  0  0  0  0  0  0  0  0  0  0  0
   64.1756   33.3360   45.8397 H   0  0  0  0  0  0  0  0  0  0  0  0
   62.5484   34.0967   45.8397 H   0  0  0  0  0  0  0  0  0  0  0  0
   64.0997   33.3841   49.2334 H   0  0  0  0  0  0  0  0  0  0  0  0
   63.0316   31.3875   50.5348 H   0  0  0  0  0  0  0  0  0  0  0  0
   61.5363   28.7634   48.7278 H   0  0  0  0  0  0  0  0  0  0  0  0
   61.1890   29.6319   50.2713 H   0  0  0  0  0  0  0  0  0  0  0  0
   57.8354   29.7930   49.7559 H   0  0  0  0  0  0  0  0  0  0  0  0
   59.2739   29.7224   50.8431 H   0  0  0  0  0  0  0  0  0  0  0  0
   59.8120   32.1070   48.2960 H   0  0  0  0  0  0  0  0  0  0  0  0
   58.6306   34.3915   49.6910 H   0  0  0  0  0  0  0  0  0  0  0  0
   60.3467   34.1023   50.1891 H   0  0  0  0  0  0  0  0  0  0  0  0
   60.0499   35.7530   48.2836 H   0  0  0  0  0  0  0  0  0  0  0  0
   61.1278   34.3398   47.9341 H   0  0  0  0  0  0  0  0  0  0  0  0
   57.5444   33.6731   48.1156 H   0  0  0  0  0  0  0  0  0  0  0  0
   56.1288   33.1475   46.1287 H   0  0  0  0  0  0  0  0  0  0  0  0
   57.0292   33.4855   43.8256 H   0  0  0  0  0  0  0  0  0  0  0  0
   59.3455   34.3605   43.5054 H   0  0  0  0  0  0  0  0  0  0  0  0
   60.7657   34.8975   45.4863 H   0  0  0  0  0  0  0  0  0  0  0  0
   60.0816   27.9203   47.9609 H   0  0  0  0  0  0  0  0  0  0  0  0
   58.4433   28.1559   48.6765 H   0  0  0  0  0  0  0  0  0  0  0  0
   57.6691   27.0787   46.4277 H   0  0  0  0  0  0  0  0  0  0  0  0
   56.8018   27.7226   44.1701 H   0  0  0  0  0  0  0  0  0  0  0  0
   57.3418   29.9779   43.2286 H   0  0  0  0  0  0  0  0  0  0  0  0
   58.7664   31.5530   44.5528 H   0  0  0  0  0  0  0  0  0  0  0  0
  1  2  1  0
  2  3  2  0
  3  4  1  0
  4  5  2  0
  5  6  1  0
  6  7  1  0
  7  8  1  0
  8  9  1  0
  9 10  2  0
  9 11  1  0
 11 12  1  0
 12 13  1  0
 13 14  1  0
 14 15  2  0
 15 16  1  0
 16 17  2  0
 17 18  1  0
 18 19  2  0
  7 20  1  0
 20 21  1  0
 21 22  2  0
 22 23  1  0
 23 24  2  0
 24 25  1  0
 25 26  2  0
  5 27  1  0
 27  2  1  0
 19 14  1  0
 26 21  1  0
  1 28  1  0
  1 29  1  0
  1 30  1  0
  3 31  1  0
  4 32  1  0
  6 33  1  0
  6 34  1  0
  8 35  1  0
  8 36  1  0
 11 37  1  0
 12 38  1  0
 12 39  1  0
 13 40  1  0
 13 41  1  0
 15 42  1  0
 16 43  1  0
 17 44  1  0
 18 45  1  0
 19 46  1  0
 20 47  1  0
 20 48  1  0
 22 49  1  0
 23 50  1  0
 24 51  1  0
 25 52  1  0
M  END
>  <UniqueID>  (21) 
20

>  <SMILES>  (21) 
Cc1ccc(CN(CC(=O)NCCc2ccccc2)Cc2ccccn2)s1

>  <Energy>  (21) 
72.56108677595596

>  <Genealogy>  (21) 
Cc1ccc(CN(CC(=O)NCCc2ccccc2)Cc2ccccn2)s1 (3D coordinates assigned)
Cc1ccc(CN(CC(=O)NCCc2ccccc2)Cc2ccccn2)s1 (optimized conformer: 72.56108677595596 kcal/mol)

>  <smiles>  (21) 
Cc1ccc(CN(CC(=O)NCCc2ccccc2)Cc2ccccn2)s1

>  <score_type>  (21) 
oracle

>  <origin>  (21) 
adg

>  <m_score__min__energy>  (21) 
-7.5899999999999999

>  <m_primary>  (21) 
energy

$$$$
21:0
     RDKit          3D

 48 50  0  0  0  0  0  0  0  0999 V2000
   62.4900   33.5470   49.0340 C   0  0  0  0  0  0  0  0  0  0  0  0
   61.3200   33.7160   48.1090 C   0  0  0  0  0  0  0  0  0  0  0  0
   60.0150   33.7110   48.6200 C   0  0  0  0  0  0  0  0  0  0  0  0
   58.9210   33.8510   47.7600 C   0  0  0  0  0  0  0  0  0  0  0  0
   59.1110   33.9930   46.3790 C   0  0  0  0  0  0  0  0  0  0  0  0
   57.9810   34.1550   45.5630 O   0  0  0  0  0  0  0  0  0  0  0  0
   57.0400   33.1250   45.2650 C   0  0  0  0  0  0  0  0  0  0  0  0
   57.7000   32.0610   44.4340 C   0  0  0  0  0  0  0  0  0  0  0  0
   57.9500   32.3080   43.2230 O   0  0  0  0  0  0  0  0  0  0  0  0
   58.0210   30.7650   44.9910 N   0  0  0  0  0  0  0  0  0  0  0  0
   58.1380   30.5960   46.4510 C   0  0  0  0  0  0  0  0  0  0  0  0
   58.5260   29.1650   46.8350 C   0  0  0  0  0  0  0  0  0  0  0  0
   57.7270   28.2060   46.0600 N   0  0  0  0  0  0  0  0  0  0  0  0
   57.2620   26.9970   46.6850 C   0  0  0  0  0  0  0  0  0  0  0  0
   57.9360   26.4680   47.6090 O   0  0  0  0  0  0  0  0  0  0  0  0
   56.0380   26.3760   46.2820 N   0  0  0  0  0  0  0  0  0  0  0  0
   55.9390   25.2500   45.4010 C   0  0  0  0  0  0  0  0  0  0  0  0
   54.7800   24.4500   45.3550 C   0  0  0  0  0  0  0  0  0  0  0  0
   54.7160   23.3570   44.4880 C   0  0  0  0  0  0  0  0  0  0  0  0
   55.8110   23.0420   43.6750 C   0  0  0  0  0  0  0  0  0  0  0  0
   56.9750   23.8140   43.7430 C   0  0  0  0  0  0  0  0  0  0  0  0
   57.0420   24.9070   44.6090 C   0  0  0  0  0  0  0  0  0  0  0  0
   57.5670   28.3810   44.6080 C   0  0  0  0  0  0  0  0  0  0  0  0
   58.3000   29.6260   44.1040 C   0  0  0  0  0  0  0  0  0  0  0  0
   60.4210   33.9550   45.8650 C   0  0  0  0  0  0  0  0  0  0  0  0
   61.5170   33.8230   46.7230 C   0  0  0  0  0  0  0  0  0  0  0  0
   62.1433   33.5971   50.0767 H   0  0  0  0  0  0  0  0  0  0  0  0
   62.9637   32.5711   48.8516 H   0  0  0  0  0  0  0  0  0  0  0  0
   63.2205   34.3490   48.8516 H   0  0  0  0  0  0  0  0  0  0  0  0
   59.8505   33.5965   49.7016 H   0  0  0  0  0  0  0  0  0  0  0  0
   57.9010   33.8496   48.1719 H   0  0  0  0  0  0  0  0  0  0  0  0
   56.6738   32.6818   46.2028 H   0  0  0  0  0  0  0  0  0  0  0  0
   56.1960   33.5536   44.7047 H   0  0  0  0  0  0  0  0  0  0  0  0
   58.9079   31.2856   46.8275 H   0  0  0  0  0  0  0  0  0  0  0  0
   57.1562   30.8126   46.8973 H   0  0  0  0  0  0  0  0  0  0  0  0
   59.5935   29.0068   46.6220 H   0  0  0  0  0  0  0  0  0  0  0  0
   58.3347   29.0130   47.9075 H   0  0  0  0  0  0  0  0  0  0  0  0
   53.9236   24.6869   46.0035 H   0  0  0  0  0  0  0  0  0  0  0  0
   53.8043   22.7431   44.4440 H   0  0  0  0  0  0  0  0  0  0  0  0
   55.7560   22.1883   42.9835 H   0  0  0  0  0  0  0  0  0  0  0  0
   57.8398   23.5595   43.1127 H   0  0  0  0  0  0  0  0  0  0  0  0
   57.9655   25.5016   44.6696 H   0  0  0  0  0  0  0  0  0  0  0  0
   57.9729   27.4964   44.0954 H   0  0  0  0  0  0  0  0  0  0  0  0
   56.4951   28.5037   44.3934 H   0  0  0  0  0  0  0  0  0  0  0  0
   59.3825   29.4312   44.0902 H   0  0  0  0  0  0  0  0  0  0  0  0
   57.9519   29.8646   43.0882 H   0  0  0  0  0  0  0  0  0  0  0  0
   60.5836   34.0298   44.7797 H   0  0  0  0  0  0  0  0  0  0  0  0
   62.5367   33.8029   46.3109 H   0  0  0  0  0  0  0  0  0  0  0  0
  1  2  1  0
  2  3  2  0
  3  4  1  0
  4  5  2  0
  5  6  1  0
  6  7  1  0
  7  8  1  0
  8  9  2  0
  8 10  1  0
 10 11  1  0
 11 12  1  0
 12 13  1  0
 13 14  1  0
 14 15  2  0
 14 16  1  0
 16 17  1  0
 17 18  2  0
 18 19  1  0
 19 20  2  0
 20 21  1  0
 21 22  2  0
 13 23  1  0
 23 24  1  0
  5 25  1  0
 25 26  2  0
 26  2  1  0
 24 10  1  0
 22 17  1  0
  1 27  1  0
  1 28  1  0
  1 29  1  0
  3 30  1  0
  4 31  1  0
  7 32  1  0
  7 33  1  0
 11 34  1  0
 11 35  1  0
 12 36  1  0
 12 37  1  0
 18 38  1  0
 19 39  1  0
 20 40  1  0
 21 41  1  0
 22 42  1  0
 23 43  1  0
 23 44  1  0
 24 45  1  0
 24 46  1  0
 25 47  1  0
 26 48  1  0
M  CHG  1  16  -1
M  END
>  <UniqueID>  (22) 
21

>  <SMILES>  (22) 
Cc1ccc(OCC(=O)N2CCN(C(=O)[N-]c3ccccc3)CC2)cc1

>  <Energy>  (22) 
55.63934668822132

>  <Genealogy>  (22) 
Cc1ccc(OCC(=O)N2CCN(C(=O)[N-]c3ccccc3)CC2)cc1 (protonated)
Cc1ccc(OCC(=O)N2CCN(C(=O)[N-]c3ccccc3)CC2)cc1 (3D coordinates assigned)
Cc1ccc(OCC(=O)N2CCN(C(=O)[N-]c3ccccc3)CC2)cc1 (nonaromatic ring conformer: 55.63934668822132 kcal/mol)

>  <smiles>  (22) 
Cc1ccc(OCC(=O)N2CCN(C(=O)Nc3ccccc3)CC2)cc1

>  <score_type>  (22) 
oracle

>  <origin>  (22) 
adg

>  <m_score__min__energy>  (22) 
-9.4499999999999993

>  <m_primary>  (22) 
energy

$$$$
22:0
     RDKit          3D

 39 41  0  0  0  0  0  0  0  0999 V2000
   56.9050   30.3520   43.2580 C   0  0  0  0  0  0  0  0  0  0  0  0
   57.4550   30.6660   44.6120 C   0  0  0  0  0  0  0  0  0  0  0  0
   57.3340   31.8730   45.1970 N   0  0  0  0  0  0  0  0  0  0  0  0
   57.9220   31.8100   46.3820 N   0  0  0  0  0  0  0  0  0  0  0  0
   58.0070   32.9580   47.2860 C   0  0  0  0  0  0  0  0  0  0  0  0
   59.4450   33.2880   47.5860 C   0  0  0  0  0  0  0  0  0  0  0  0
   60.3830   33.3720   46.5430 C   0  0  0  0  0  0  0  0  0  0  0  0
   61.7200   33.6760   46.8170 C   0  0  0  0  0  0  0  0  0  0  0  0
   62.1290   33.9060   48.1330 C   0  0  0  0  0  0  0  0  0  0  0  0
   61.2030   33.8330   49.1760 C   0  0  0  0  0  0  0  0  0  0  0  0
   59.8650   33.5280   48.9070 C   0  0  0  0  0  0  0  0  0  0  0  0
   58.4470   30.5760   46.5670 C   0  0  0  0  0  0  0  0  0  0  0  0
   59.2080   30.1360   47.7840 C   0  0  0  0  0  0  0  0  0  0  0  0
   58.1450   29.8030   45.4520 C   0  0  0  0  0  0  0  0  0  0  0  0
   58.4770   28.3840   45.1930 C   0  0  0  0  0  0  0  0  0  0  0  0
   59.5280   28.1010   44.5580 O   0  0  0  0  0  0  0  0  0  0  0  0
   57.5820   27.2860   45.6190 C   0  0  0  0  0  0  0  0  0  0  0  0
   56.1780   27.4340   45.6220 C   0  0  0  0  0  0  0  0  0  0  0  0
   55.5550   28.5970   45.1640 O   0  0  0  0  0  0  0  0  0  0  0  0
   55.3970   26.4120   46.0580 N   0  0  0  0  0  0  0  0  0  0  0  0
   55.9360   25.2430   46.4880 C   0  0  0  0  0  0  0  0  0  0  0  0
   55.1860   24.3140   46.8840 O   0  0  0  0  0  0  0  0  0  0  0  0
   57.2800   25.0750   46.4910 N   0  0  0  0  0  0  0  0  0  0  0  0
   58.1130   26.0630   46.0720 C   0  0  0  0  0  0  0  0  0  0  0  0
   59.3580   25.8740   46.1080 O   0  0  0  0  0  0  0  0  0  0  0  0
   55.9543   29.8092   43.3653 H   0  0  0  0  0  0  0  0  0  0  0  0
   56.7327   31.2878   42.7062 H   0  0  0  0  0  0  0  0  0  0  0  0
   57.6233   29.7279   42.7062 H   0  0  0  0  0  0  0  0  0  0  0  0
   57.5272   33.8275   46.8129 H   0  0  0  0  0  0  0  0  0  0  0  0
   57.4957   32.7080   48.2273 H   0  0  0  0  0  0  0  0  0  0  0  0
   60.0636   33.1976   45.5050 H   0  0  0  0  0  0  0  0  0  0  0  0
   62.4500   33.7341   45.9962 H   0  0  0  0  0  0  0  0  0  0  0  0
   63.1811   34.1447   48.3478 H   0  0  0  0  0  0  0  0  0  0  0  0
   61.5268   34.0158   50.2112 H   0  0  0  0  0  0  0  0  0  0  0  0
   59.1384   33.4756   49.7312 H   0  0  0  0  0  0  0  0  0  0  0  0
   58.6660   30.4493   48.6885 H   0  0  0  0  0  0  0  0  0  0  0  0
   59.3082   29.0406   47.7776 H   0  0  0  0  0  0  0  0  0  0  0  0
   60.2073   30.5957   47.7776 H   0  0  0  0  0  0  0  0  0  0  0  0
   54.7090   28.9670   45.5750 H   0  0  0  0  0  0  0  0  0  0  0  0
  1  2  1  0
  2  3  2  0
  3  4  1  0
  4  5  1  0
  5  6  1  0
  6  7  2  0
  7  8  1  0
  8  9  2  0
  9 10  1  0
 10 11  2  0
  4 12  1  0
 12 13  1  0
 12 14  2  0
 14 15  1  0
 15 16  2  0
 15 17  1  0
 17 18  2  0
 18 19  1  0
 18 20  1  0
 20 21  1  0
 21 22  2  0
 21 23  1  0
 23 24  1  0
 24 25  2  0
 14  2  1  0
 24 17  1  0
 11  6  1  0
  1 26  1  0
  1 27  1  0
  1 28  1  0
  5 29  1  0
  5 30  1  0
  7 31  1  0
  8 32  1  0
  9 33  1  0
 10 34  1  0
 11 35  1  0
 13 36  1  0
 13 37  1  0
 13 38  1  0
 19 39  1  0
M  CHG  2  20  -1  23  -1
M  END
>  <UniqueID>  (23) 
22

>  <SMILES>  (23) 
Cc1nn(Cc2ccccc2)c(C)c1C(=O)c1c(O)[n-]c(=O)[n-]c1=O

>  <Energy>  (23) 
79.70268968015503

>  <Genealogy>  (23) 
Cc1nn(Cc2ccccc2)c(C)c1C(=O)c1c(O)[n-]c(=O)[n-]c1=O (protonated)
Cc1nn(Cc2ccccc2)c(C)c1C(=O)c1c(O)[n-]c(=O)[n-]c1=O (3D coordinates assigned)
Cc1nn(Cc2ccccc2)c(C)c1C(=O)c1c(O)[n-]c(=O)[n-]c1=O (optimized conformer: 79.70268968015503 kcal/mol)

>  <smiles>  (23) 
Cc1nn(Cc2ccccc2)c(C)c1C(=O)c1c(O)[nH]c(=O)[nH]c1=O

>  <score_type>  (23) 
oracle

>  <origin>  (23) 
adg

>  <m_score__min__energy>  (23) 
-13.25

>  <m_primary>  (23) 
energy

$$$$
23:0
     RDKit          3D

 52 54  0  0  0  0  0  0  0  0999 V2000
   59.6840   27.3750   46.7610 C   0  0  0  0  0  0  0  0  0  0  0  0
   59.1510   28.1190   45.7790 C   0  0  0  0  0  0  0  0  0  0  0  0
   58.1350   27.7320   44.8920 C   0  0  0  0  0  0  0  0  0  0  0  0
   57.6040   26.5220   44.6290 C   0  0  0  0  0  0  0  0  0  0  0  0
   57.0870   25.5820   45.6350 C   0  0  0  0  0  0  0  0  0  0  0  0
   57.6930   24.4350   45.9960 N   0  0  0  0  0  0  0  0  0  0  0  0
   56.7990   23.8570   46.8250 C   0  0  0  0  0  0  0  0  0  0  0  0
   57.0130   22.7530   47.3880 O   0  0  0  0  0  0  0  0  0  0  0  0
   55.6520   24.5510   46.9940 N   0  0  0  0  0  0  0  0  0  0  0  0
   55.8460   25.6330   46.2230 C   0  0  0  0  0  0  0  0  0  0  0  0
   54.9090   26.6430   46.0500 O   0  0  0  0  0  0  0  0  0  0  0  0
   57.7350   28.8830   44.2390 C   0  0  0  0  0  0  0  0  0  0  0  0
   58.5450   29.9070   44.6900 C   0  0  0  0  0  0  0  0  0  0  0  0
   58.4720   31.3190   44.1650 C   0  0  0  0  0  0  0  0  0  0  0  0
   57.8680   32.2720   45.1680 C   0  0  0  0  0  0  0  0  0  0  0  0
   56.6140   32.3750   45.2540 O   0  0  0  0  0  0  0  0  0  0  0  0
   58.7060   33.0800   46.0180 N   0  0  0  0  0  0  0  0  0  0  0  0
   60.1140   33.3230   45.6770 C   0  0  0  0  0  0  0  0  0  0  0  0
   60.5940   34.6270   46.3250 C   0  0  0  0  0  0  0  0  0  0  0  0
   60.3000   34.6460   47.7080 O   0  0  0  0  0  0  0  0  0  0  0  0
   58.8980   34.6510   47.8950 C   0  0  0  0  0  0  0  0  0  0  0  0
   58.2840   33.3410   47.3980 C   0  0  0  0  0  0  0  0  0  0  0  0
   59.4290   29.4400   45.6070 N   0  0  0  0  0  0  0  0  0  0  0  0
   60.4420   30.2240   46.3360 C   0  0  0  0  0  0  0  0  0  0  0  0
   59.9550   30.5750   47.7220 C   0  0  0  0  0  0  0  0  0  0  0  0
   58.8200   30.1560   48.0800 O   0  0  0  0  0  0  0  0  0  0  0  0
   60.7700   31.3140   48.6590 N   0  0  0  0  0  0  0  0  0  0  0  0
   60.2050   31.6680   49.9670 C   0  0  0  0  0  0  0  0  0  0  0  0
   62.1480   31.7030   48.3300 C   0  0  0  0  0  0  0  0  0  0  0  0
   60.4807   27.7907   47.3953 H   0  0  0  0  0  0  0  0  0  0  0  0
   59.3240   26.3496   46.9314 H   0  0  0  0  0  0  0  0  0  0  0  0
   57.5529   26.2116   43.5749 H   0  0  0  0  0  0  0  0  0  0  0  0
   54.3790   26.7120   45.1890 H   0  0  0  0  0  0  0  0  0  0  0  0
   56.9247   28.9674   43.4999 H   0  0  0  0  0  0  0  0  0  0  0  0
   59.4894   31.6592   43.9219 H   0  0  0  0  0  0  0  0  0  0  0  0
   57.8268   31.3141   43.2741 H   0  0  0  0  0  0  0  0  0  0  0  0
   60.7271   32.4868   46.0442 H   0  0  0  0  0  0  0  0  0  0  0  0
   60.2113   33.4060   44.5845 H   0  0  0  0  0  0  0  0  0  0  0  0
   61.6816   34.7174   46.1876 H   0  0  0  0  0  0  0  0  0  0  0  0
   60.0726   35.4684   45.8452 H   0  0  0  0  0  0  0  0  0  0  0  0
   58.6765   34.7707   48.9658 H   0  0  0  0  0  0  0  0  0  0  0  0
   58.4667   35.4848   47.3217 H   0  0  0  0  0  0  0  0  0  0  0  0
   58.6174   32.5148   48.0431 H   0  0  0  0  0  0  0  0  0  0  0  0
   57.1874   33.4214   47.4307 H   0  0  0  0  0  0  0  0  0  0  0  0
   61.3656   29.6322   46.4176 H   0  0  0  0  0  0  0  0  0  0  0  0
   60.6312   31.1558   45.7828 H   0  0  0  0  0  0  0  0  0  0  0  0
   60.8469   31.2658   50.7647 H   0  0  0  0  0  0  0  0  0  0  0  0
   60.1493   32.7628   50.0582 H   0  0  0  0  0  0  0  0  0  0  0  0
   59.1955   31.2406   50.0582 H   0  0  0  0  0  0  0  0  0  0  0  0
   62.7154   31.8632   49.2586 H   0  0  0  0  0  0  0  0  0  0  0  0
   62.6242   30.9042   47.7425 H   0  0  0  0  0  0  0  0  0  0  0  0
   62.1362   32.6329   47.7425 H   0  0  0  0  0  0  0  0  0  0  0  0
  1  2  2  0
  2  3  1  0
  3  4  2  3
  4  5  1  0
  5  6  1  0
  6  7  1  0
  7  8  2  0
  7  9  1  0
  9 10  1  0
 10 11  1  0
  3 12  1  0
 12 13  2  0
 13 14  1  0
 14 15  1  0
 15 16  2  0
 15 17  1  0
 17 18  1  0
 18 19  1  0
 19 20  1  0
 20 21  1  0
 21 22  1  0
 13 23  1  0
 23 24  1  0
 24 25  1  0
 25 26  2  0
 25 27  1  0
 27 28  1  0
 27 29  1  0
 23  2  1  0
 10  5  2  0
 22 17  1  0
  1 30  1  0
  1 31  1  0
  4 32  1  0
 11 33  1  0
 12 34  1  0
 14 35  1  0
 14 36  1  0
 18 37  1  0
 18 38  1  0
 19 39  1  0
 19 40  1  0
 21 41  1  0
 21 42  1  0
 22 43  1  0
 22 44  1  0
 24 45  1  0
 24 46  1  0
 28 47  1  0
 28 48  1  0
 28 49  1  0
 29 50  1  0
 29 51  1  0
 29 52  1  0
M  CHG  2   6  -1   9  -1
M  END
>  <UniqueID>  (24) 
23

>  <SMILES>  (24) 
C=c1c(=Cc2[n-]c(=O)[n-]c2O)cc(CC(=O)N2CCOCC2)n1CC(=O)N(C)C

>  <Energy>  (24) 
121.51452914468095

>  <Genealogy>  (24) 
C=c1c(=Cc2[n-]c(=O)[n-]c2O)cc(CC(=O)N2CCOCC2)n1CC(=O)N(C)C (protonated)
C=c1c(=Cc2[n-]c(=O)[n-]c2O)cc(CC(=O)N2CCOCC2)n1CC(=O)N(C)C (3D coordinates assigned)
C=c1c(=Cc2[n-]c(=O)[n-]c2O)cc(CC(=O)N2CCOCC2)n1CC(=O)N(C)C (nonaromatic ring conformer: 121.51452914468095 kcal/mol)

>  <smiles>  (24) 
C=c1c(=Cc2[nH]c(=O)[nH]c2O)cc(CC(=O)N2CCOCC2)n1CC(=O)N(C)C

>  <score_type>  (24) 
oracle

>  <origin>  (24) 
adg

>  <m_score__min__energy>  (24) 
-12.609999999999999

>  <m_primary>  (24) 
energy

$$$$
24:0
     RDKit          3D

 51 54  0  0  0  0  0  0  0  0999 V2000
   53.6930   23.6580   46.1630 C   0  0  0  0  0  0  0  0  0  0  0  0
   54.8200   23.6680   45.4430 C   0  0  0  0  0  0  0  0  0  0  0  0
   55.1620   22.5460   44.7590 N   0  0  0  0  0  0  0  0  0  0  0  0
   56.2870   22.4940   44.0100 C   0  0  0  0  0  0  0  0  0  0  0  0
   56.6680   21.1220   43.2130 S   0  0  0  0  0  0  0  0  0  0  0  0
   57.1030   23.5740   43.9290 N   0  0  0  0  0  0  0  0  0  0  0  0
   56.8380   24.7400   44.5880 C   0  0  0  0  0  0  0  0  0  0  0  0
   57.7230   25.7660   44.4620 C   0  0  0  0  0  0  0  0  0  0  0  0
   57.9120   26.4990   43.2300 C   0  0  0  0  0  0  0  0  0  0  0  0
   58.0700   27.0900   42.2460 N   0  0  0  0  0  0  0  0  0  0  0  0
   58.5110   26.2560   45.6150 C   0  0  0  0  0  0  0  0  0  0  0  0
   58.4740   25.6630   46.8240 N   0  0  0  0  0  0  0  0  0  0  0  0
   59.1600   26.4410   47.6430 N   0  0  0  0  0  0  0  0  0  0  0  0
   59.5930   27.5080   46.9480 C   0  0  0  0  0  0  0  0  0  0  0  0
   60.2790   28.6890   47.5800 C   0  0  0  0  0  0  0  0  0  0  0  0
   59.8870   28.8110   49.0290 C   0  0  0  0  0  0  0  0  0  0  0  0
   60.0320   27.7930   49.7610 O   0  0  0  0  0  0  0  0  0  0  0  0
   59.4070   30.0480   49.6140 N   0  0  0  0  0  0  0  0  0  0  0  0
   59.1080   30.0590   51.0550 C   0  0  0  0  0  0  0  0  0  0  0  0
   59.0470   31.4880   51.5990 C   0  0  0  0  0  0  0  0  0  0  0  0
   58.1990   32.2890   50.8020 O   0  0  0  0  0  0  0  0  0  0  0  0
   58.7770   32.4440   49.5240 C   0  0  0  0  0  0  0  0  0  0  0  0
   58.8220   31.1070   48.7750 C   0  0  0  0  0  0  0  0  0  0  0  0
   59.2050   27.4200   45.6530 N   0  0  0  0  0  0  0  0  0  0  0  0
   59.3520   28.4280   44.5920 C   0  0  0  0  0  0  0  0  0  0  0  0
   58.6570   29.7330   44.9300 C   0  0  0  0  0  0  0  0  0  0  0  0
   59.3510   30.8220   45.4840 C   0  0  0  0  0  0  0  0  0  0  0  0
   58.6970   31.9820   45.7570 N   0  0  0  0  0  0  0  0  0  0  0  0
   57.3750   32.1190   45.4900 C   0  0  0  0  0  0  0  0  0  0  0  0
   56.7890   33.2000   45.7550 O   0  0  0  0  0  0  0  0  0  0  0  0
   56.6840   31.0920   44.9340 N   0  0  0  0  0  0  0  0  0  0  0  0
   57.2910   29.9120   44.6420 C   0  0  0  0  0  0  0  0  0  0  0  0
   56.6170   28.9880   44.1130 O   0  0  0  0  0  0  0  0  0  0  0  0
   55.6550   24.8050   45.3770 C   0  0  0  0  0  0  0  0  0  0  0  0
   55.3350   25.8550   46.0010 O   0  0  0  0  0  0  0  0  0  0  0  0
   53.3925   24.5535   46.7266 H   0  0  0  0  0  0  0  0  0  0  0  0
   53.0666   22.7542   46.1915 H   0  0  0  0  0  0  0  0  0  0  0  0
   59.2930   26.2490   48.6600 H   0  0  0  0  0  0  0  0  0  0  0  0
   61.3686   28.5556   47.5094 H   0  0  0  0  0  0  0  0  0  0  0  0
   59.9748   29.6037   47.0501 H   0  0  0  0  0  0  0  0  0  0  0  0
   58.1373   29.5697   51.2233 H   0  0  0  0  0  0  0  0  0  0  0  0
   59.9110   29.5213   51.5804 H   0  0  0  0  0  0  0  0  0  0  0  0
   58.6607   31.4664   52.6287 H   0  0  0  0  0  0  0  0  0  0  0  0
   60.0596   31.9173   51.5807 H   0  0  0  0  0  0  0  0  0  0  0  0
   58.1787   33.1616   48.9433 H   0  0  0  0  0  0  0  0  0  0  0  0
   59.8065   32.8112   49.6474 H   0  0  0  0  0  0  0  0  0  0  0  0
   57.7985   30.8182   48.4940 H   0  0  0  0  0  0  0  0  0  0  0  0
   59.4492   31.2294   47.8797 H   0  0  0  0  0  0  0  0  0  0  0  0
   60.4232   28.6276   44.4411 H   0  0  0  0  0  0  0  0  0  0  0  0
   58.8833   28.0258   43.6818 H   0  0  0  0  0  0  0  0  0  0  0  0
   60.4266   30.7356   45.6974 H   0  0  0  0  0  0  0  0  0  0  0  0
  1  2  2  0
  2  3  1  0
  3  4  1  0
  4  5  2  0
  4  6  1  0
  6  7  1  0
  7  8  2  3
  8  9  1  0
  9 10  3  0
  8 11  1  0
 11 12  2  0
 12 13  1  0
 13 14  2  0
 14 15  1  0
 15 16  1  0
 16 17  2  0
 16 18  1  0
 18 19  1  0
 19 20  1  0
 20 21  1  0
 21 22  1  0
 22 23  1  0
 14 24  1  0
 24 25  1  0
 25 26  1  0
 26 27  2  0
 27 28  1  0
 28 29  1  0
 29 30  2  0
 29 31  1  0
 31 32  1  0
 32 33  2  0
  7 34  1  0
 34 35  2  0
 34  2  1  0
 24 11  1  0
 32 26  1  0
 23 18  1  0
  1 36  1  0
  1 37  1  0
 13 38  1  0
 15 39  1  0
 15 40  1  0
 19 41  1  0
 19 42  1  0
 20 43  1  0
 20 44  1  0
 22 45  1  0
 22 46  1  0
 23 47  1  0
 23 48  1  0
 25 49  1  0
 25 50  1  0
 27 51  1  0
M  CHG  5   3  -1   6  -1  13   1  28  -1  31  -1
M  END
>  <UniqueID>  (25) 
24

>  <SMILES>  (25) 
C=c1[n-]c(=S)[n-]c(=C(C#N)c2n[nH+]c(CC(=O)N3CCOCC3)n2Cc2c[n-]c(=O)[n-]c2=O)c1=O

>  <Energy>  (25) 
107.64300119908886

>  <Genealogy>  (25) 
C=c1[n-]c(=S)[n-]c(=C(C#N)c2n[nH+]c(CC(=O)N3CCOCC3)n2Cc2c[n-]c(=O)[n-]c2=O)c1=O (protonated)
C=c1[n-]c(=S)[n-]c(=C(C#N)c2n[nH+]c(CC(=O)N3CCOCC3)n2Cc2c[n-]c(=O)[n-]c2=O)c1=O (3D coordinates assigned)
C=c1[n-]c(=S)[n-]c(=C(C#N)c2n[nH+]c(CC(=O)N3CCOCC3)n2Cc2c[n-]c(=O)[n-]c2=O)c1=O (nonaromatic ring conformer: 107.64300119908886 kcal/mol)

>  <smiles>  (25) 
C=c1[nH]c(=S)[nH]c(=C(C#N)c2nnc(CC(=O)N3CCOCC3)n2Cc2c[nH]c(=O)[nH]c2=O)c1=O

>  <score_type>  (25) 
oracle

>  <origin>  (25) 
adg

>  <m_score__min__energy>  (25) 
-12.210000000000001

>  <m_primary>  (25) 
energy

$$$$
25:0
     RDKit          3D

 46 48  0  0  0  0  0  0  0  0999 V2000
   55.8350   24.9640   45.8970 C   0  0  0  0  0  0  0  0  0  0  0  0
   56.6910   25.7960   46.8460 C   0  0  0  0  0  0  0  0  0  0  0  0
   57.2170   27.0190   46.1520 C   0  0  0  0  0  0  0  0  0  0  0  0
   56.4820   27.7260   45.2690 N   0  0  0  0  0  0  0  0  0  0  0  0
   57.1980   28.7810   44.9230 N   0  0  0  0  0  0  0  0  0  0  0  0
   56.8110   29.7560   44.0570 C   0  0  0  0  0  0  0  0  0  0  0  0
   55.4680   29.7130   43.3890 C   0  0  0  0  0  0  0  0  0  0  0  0
   57.6920   30.8280   43.8510 C   0  0  0  0  0  0  0  0  0  0  0  0
   58.8880   30.8520   44.5040 N   0  0  0  0  0  0  0  0  0  0  0  0
   59.2720   29.8670   45.3680 C   0  0  0  0  0  0  0  0  0  0  0  0
   60.6100   29.9840   46.0300 C   0  0  0  0  0  0  0  0  0  0  0  0
   58.3810   28.7910   45.5690 C   0  0  0  0  0  0  0  0  0  0  0  0
   58.4420   27.6530   46.3780 C   0  0  0  0  0  0  0  0  0  0  0  0
   59.4970   27.2180   47.3600 C   0  0  0  0  0  0  0  0  0  0  0  0
   59.8300   28.3030   48.3460 C   0  0  0  0  0  0  0  0  0  0  0  0
   60.9860   28.3350   48.8490 O   0  0  0  0  0  0  0  0  0  0  0  0
   58.8740   29.3220   48.6790 N   0  0  0  0  0  0  0  0  0  0  0  0
   59.2260   30.4900   49.4810 C   0  0  0  0  0  0  0  0  0  0  0  0
   59.3270   31.7070   48.6010 C   0  0  0  0  0  0  0  0  0  0  0  0
   60.4340   32.5610   48.7140 C   0  0  0  0  0  0  0  0  0  0  0  0
   60.5210   33.7090   47.9220 C   0  0  0  0  0  0  0  0  0  0  0  0
   59.5030   34.0170   47.0120 C   0  0  0  0  0  0  0  0  0  0  0  0
   59.6470   35.4720   46.0340 Cl  0  0  0  0  0  0  0  0  0  0  0  0
   58.3890   33.1690   46.8990 C   0  0  0  0  0  0  0  0  0  0  0  0
   57.0840   33.5250   45.7740 Cl  0  0  0  0  0  0  0  0  0  0  0  0
   58.3040   32.0200   47.6930 C   0  0  0  0  0  0  0  0  0  0  0  0
   55.1664   24.3141   46.4806 H   0  0  0  0  0  0  0  0  0  0  0  0
   55.2346   25.6329   45.2629 H   0  0  0  0  0  0  0  0  0  0  0  0
   56.4866   24.3448   45.2629 H   0  0  0  0  0  0  0  0  0  0  0  0
   56.0800   26.1042   47.7072 H   0  0  0  0  0  0  0  0  0  0  0  0
   57.5426   25.1858   47.1812 H   0  0  0  0  0  0  0  0  0  0  0  0
   54.6784   29.6877   44.1544 H   0  0  0  0  0  0  0  0  0  0  0  0
   55.3418   30.6076   42.7614 H   0  0  0  0  0  0  0  0  0  0  0  0
   55.3993   28.8122   42.7614 H   0  0  0  0  0  0  0  0  0  0  0  0
   57.4191   31.6446   43.1663 H   0  0  0  0  0  0  0  0  0  0  0  0
   60.4809   29.9727   47.1223 H   0  0  0  0  0  0  0  0  0  0  0  0
   61.2443   29.1379   45.7270 H   0  0  0  0  0  0  0  0  0  0  0  0
   61.0878   30.9273   45.7270 H   0  0  0  0  0  0  0  0  0  0  0  0
   59.1296   26.3390   47.9098 H   0  0  0  0  0  0  0  0  0  0  0  0
   60.4103   26.9805   46.7947 H   0  0  0  0  0  0  0  0  0  0  0  0
   57.8950   29.2540   48.3230 H   0  0  0  0  0  0  0  0  0  0  0  0
   58.4508   30.6553   50.2437 H   0  0  0  0  0  0  0  0  0  0  0  0
   60.1968   30.3147   49.9677 H   0  0  0  0  0  0  0  0  0  0  0  0
   61.2366   32.3262   49.4287 H   0  0  0  0  0  0  0  0  0  0  0  0
   61.3929   34.3733   48.0141 H   0  0  0  0  0  0  0  0  0  0  0  0
   57.4299   31.3581   47.6049 H   0  0  0  0  0  0  0  0  0  0  0  0
  1  2  1  0
  2  3  1  0
  3  4  2  0
  4  5  1  0
  5  6  1  0
  6  7  1  0
  6  8  2  0
  8  9  1  0
  9 10  2  0
 10 11  1  0
 10 12  1  0
 12 13  2  0
 13 14  1  0
 14 15  1  0
 15 16  2  0
 15 17  1  0
 17 18  1  0
 18 19  1  0
 19 20  2  0
 20 21  1  0
 21 22  2  0
 22 23  1  0
 22 24  1  0
 24 25  1  0
 24 26  2  0
 13  3  1  0
 26 19  1  0
 12  5  1  0
  1 27  1  0
  1 28  1  0
  1 29  1  0
  2 30  1  0
  2 31  1  0
  7 32  1  0
  7 33  1  0
  7 34  1  0
  8 35  1  0
 11 36  1  0
 11 37  1  0
 11 38  1  0
 14 39  1  0
 14 40  1  0
 17 41  1  0
 18 42  1  0
 18 43  1  0
 20 44  1  0
 21 45  1  0
 26 46  1  0
M  END
>  <UniqueID>  (26) 
25

>  <SMILES>  (26) 
CCc1nn2c(C)cnc(C)c2c1CC(=O)NCc1ccc(Cl)c(Cl)c1

>  <Energy>  (26) 
78.25679975944682

>  <Genealogy>  (26) 
CCc1nn2c(C)cnc(C)c2c1CC(=O)NCc1ccc(Cl)c(Cl)c1 (3D coordinates assigned)
CCc1nn2c(C)cnc(C)c2c1CC(=O)NCc1ccc(Cl)c(Cl)c1 (optimized conformer: 78.25679975944682 kcal/mol)

>  <smiles>  (26) 
CCc1nn2c(C)cnc(C)c2c1CC(=O)NCc1ccc(Cl)c(Cl)c1

>  <score_type>  (26) 
oracle

>  <origin>  (26) 
adg

>  <m_score__min__energy>  (26) 
-8.3200000000000003

>  <m_primary>  (26) 
energy

$$$$
26:0
     RDKit          3D

 59 62  0  0  0  0  0  0  0  0999 V2000
   57.0160   24.6570   43.5610 C   0  0  0  0  0  0  0  0  0  0  0  0
   57.8300   24.6510   44.8490 C   0  0  0  0  0  0  0  0  0  0  0  0
   58.0050   26.0470   45.3700 C   0  0  0  0  0  0  0  0  0  0  0  0
   58.9320   26.3230   46.3810 C   0  0  0  0  0  0  0  0  0  0  0  0
   59.0420   27.6280   46.8820 C   0  0  0  0  0  0  0  0  0  0  0  0
   60.0210   27.9490   47.9460 C   0  0  0  0  0  0  0  0  0  0  0  0
   60.4280   27.0230   48.7000 O   0  0  0  0  0  0  0  0  0  0  0  0
   60.5050   29.2900   48.1540 N   0  0  0  0  0  0  0  0  0  0  0  0
   60.7260   30.2020   47.0220 C   0  0  0  0  0  0  0  0  0  0  0  0
   62.0860   30.8960   47.1580 C   0  0  0  0  0  0  0  0  0  0  0  0
   62.3220   31.5400   48.5590 C   0  0  0  0  0  0  0  0  0  0  0  0
   62.5140   33.0710   48.4730 C   0  0  0  0  0  0  0  0  0  0  0  0
   61.3660   33.7490   47.7640 C   0  0  0  0  0  0  0  0  0  0  0  0
   60.3080   34.3140   48.4970 C   0  0  0  0  0  0  0  0  0  0  0  0
   59.2430   34.9330   47.8330 C   0  0  0  0  0  0  0  0  0  0  0  0
   59.2280   34.9930   46.4350 C   0  0  0  0  0  0  0  0  0  0  0  0
   60.2770   34.4350   45.6990 C   0  0  0  0  0  0  0  0  0  0  0  0
   61.3420   33.8150   46.3590 C   0  0  0  0  0  0  0  0  0  0  0  0
   61.1940   31.2110   49.5620 C   0  0  0  0  0  0  0  0  0  0  0  0
   60.8320   29.7230   49.5210 C   0  0  0  0  0  0  0  0  0  0  0  0
   58.2350   28.6380   46.3380 C   0  0  0  0  0  0  0  0  0  0  0  0
   57.3100   28.3290   45.3270 C   0  0  0  0  0  0  0  0  0  0  0  0
   56.4230   29.3810   44.7640 C   0  0  0  0  0  0  0  0  0  0  0  0
   55.1730   29.2350   44.8580 O   0  0  0  0  0  0  0  0  0  0  0  0
   56.9410   30.5630   44.1130 N   0  0  0  0  0  0  0  0  0  0  0  0
   56.9870   30.8280   42.6740 C   0  0  0  0  0  0  0  0  0  0  0  0
   57.8460   32.1060   42.4990 C   0  0  0  0  0  0  0  0  0  0  0  0
   58.1960   32.5350   43.8450 N   0  0  0  0  0  0  0  0  0  0  0  0
   57.6610   31.6020   44.7520 C   0  0  0  0  0  0  0  0  0  0  0  0
   57.8140   31.6910   45.9990 O   0  0  0  0  0  0  0  0  0  0  0  0
   57.2190   27.0460   44.8870 N   0  0  0  0  0  0  0  0  0  0  0  0
   55.9435   24.6649   43.8051 H   0  0  0  0  0  0  0  0  0  0  0  0
   57.2651   25.5533   42.9740 H   0  0  0  0  0  0  0  0  0  0  0  0
   57.2518   23.7571   42.9740 H   0  0  0  0  0  0  0  0  0  0  0  0
   57.3069   24.0462   45.6044 H   0  0  0  0  0  0  0  0  0  0  0  0
   58.8218   24.2239   44.6395 H   0  0  0  0  0  0  0  0  0  0  0  0
   59.5705   25.5212   46.7803 H   0  0  0  0  0  0  0  0  0  0  0  0
   60.7032   29.6284   46.0837 H   0  0  0  0  0  0  0  0  0  0  0  0
   59.9333   30.9646   47.0158 H   0  0  0  0  0  0  0  0  0  0  0  0
   62.8757   30.1511   46.9804 H   0  0  0  0  0  0  0  0  0  0  0  0
   62.1065   31.7120   46.4207 H   0  0  0  0  0  0  0  0  0  0  0  0
   63.2537   31.0911   48.9337 H   0  0  0  0  0  0  0  0  0  0  0  0
   62.5903   33.4766   49.4926 H   0  0  0  0  0  0  0  0  0  0  0  0
   63.4303   33.2654   47.8963 H   0  0  0  0  0  0  0  0  0  0  0  0
   60.3172   34.2694   49.5961 H   0  0  0  0  0  0  0  0  0  0  0  0
   58.4167   35.3729   48.4106 H   0  0  0  0  0  0  0  0  0  0  0  0
   58.3898   35.4798   45.9149 H   0  0  0  0  0  0  0  0  0  0  0  0
   60.2646   34.4837   44.6002 H   0  0  0  0  0  0  0  0  0  0  0  0
   62.1657   33.3764   45.7766 H   0  0  0  0  0  0  0  0  0  0  0  0
   61.5294   31.4707   50.5769 H   0  0  0  0  0  0  0  0  0  0  0  0
   60.3026   31.7938   49.2868 H   0  0  0  0  0  0  0  0  0  0  0  0
   61.6869   29.1360   49.8879 H   0  0  0  0  0  0  0  0  0  0  0  0
   59.9485   29.5630   50.1565 H   0  0  0  0  0  0  0  0  0  0  0  0
   58.3264   29.6717   46.7029 H   0  0  0  0  0  0  0  0  0  0  0  0
   57.4495   29.9819   42.1447 H   0  0  0  0  0  0  0  0  0  0  0  0
   55.9776   30.9624   42.2579 H   0  0  0  0  0  0  0  0  0  0  0  0
   58.7540   31.8811   41.9202 H   0  0  0  0  0  0  0  0  0  0  0  0
   57.3000   32.8895   41.9531 H   0  0  0  0  0  0  0  0  0  0  0  0
   58.7730   33.3680   44.0920 H   0  0  0  0  0  0  0  0  0  0  0  0
  1  2  1  0
  2  3  1  0
  3  4  2  0
  4  5  1  0
  5  6  1  0
  6  7  2  0
  6  8  1  0
  8  9  1  0
  9 10  1  0
 10 11  1  0
 11 12  1  0
 12 13  1  0
 13 14  2  0
 14 15  1  0
 15 16  2  0
 16 17  1  0
 17 18  2  0
 11 19  1  0
 19 20  1  0
  5 21  2  0
 21 22  1  0
 22 23  1  0
 23 24  2  0
 23 25  1  0
 25 26  1  0
 26 27  1  0
 27 28  1  0
 28 29  1  0
 29 30  2  0
 22 31  2  0
 31  3  1  0
 20  8  1  0
 29 25  1  0
 18 13  1  0
  1 32  1  0
  1 33  1  0
  1 34  1  0
  2 35  1  0
  2 36  1  0
  4 37  1  0
  9 38  1  0
  9 39  1  0
 10 40  1  0
 10 41  1  0
 11 42  1  0
 12 43  1  0
 12 44  1  0
 14 45  1  0
 15 46  1  0
 16 47  1  0
 17 48  1  0
 18 49  1  0
 19 50  1  0
 19 51  1  0
 20 52  1  0
 20 53  1  0
 21 54  1  0
 26 55  1  0
 26 56  1  0
 27 57  1  0
 27 58  1  0
 28 59  1  0
M  END
>  <UniqueID>  (27) 
26

>  <SMILES>  (27) 
CCc1cc(C(=O)N2CCC(Cc3ccccc3)CC2)cc(C(=O)N2CCNC2=O)n1

>  <Energy>  (27) 
78.17216488836819

>  <Genealogy>  (27) 
CCc1cc(C(=O)N2CCC(Cc3ccccc3)CC2)cc(C(=O)N2CCNC2=O)n1 (3D coordinates assigned)
CCc1cc(C(=O)N2CCC(Cc3ccccc3)CC2)cc(C(=O)N2CCNC2=O)n1 (nonaromatic ring conformer: 78.17216488836819 kcal/mol)

>  <smiles>  (27) 
CCc1cc(C(=O)N2CCC(Cc3ccccc3)CC2)cc(C(=O)N2CCNC2=O)n1

>  <score_type>  (27) 
oracle

>  <origin>  (27) 
adg

>  <m_score__min__energy>  (27) 
-10.859999999999999

>  <m_primary>  (27) 
energy

$$$$
27:0
     RDKit          3D

 52 55  0  0  0  0  0  0  0  0999 V2000
   64.9070   32.8730   47.9620 H   0  0  0  0  0  0  0  0  0  0  0  0
   64.1030   33.1690   48.5660 N   0  0  0  0  0  0  0  0  0  0  0  0
   62.8720   32.9730   48.2070 C   0  0  0  0  0  0  0  0  0  0  0  0
   62.4760   31.6040   47.1190 S   0  0  0  0  0  0  0  0  0  0  0  0
   61.1160   30.8820   48.1300 C   0  0  0  0  0  0  0  0  0  0  0  0
   61.5065   29.9816   48.6268 H   0  0  0  0  0  0  0  0  0  0  0  0
   60.2938   30.6846   47.4264 H   0  0  0  0  0  0  0  0  0  0  0  0
   60.5210   31.8080   49.2230 C   0  0  1  0  0  0  0  0  0  0  0  0
   61.2322   31.7932   50.0621 H   0  0  0  0  0  0  0  0  0  0  0  0
   60.4420   33.3160   48.8070 C   0  0  2  0  0  0  0  0  0  0  0  0
   59.7180   33.4860   47.4800 C   0  0  0  0  0  0  0  0  0  0  0  0
   58.7300   32.6600   47.0620 N   0  0  0  0  0  0  0  0  0  0  0  0
   58.2020   33.0540   45.8710 C   0  0  0  0  0  0  0  0  0  0  0  0
   57.1090   32.3660   45.2540 N   0  0  0  0  0  0  0  0  0  0  0  0
   57.2480   31.5140   44.1110 C   0  0  0  0  0  0  0  0  0  0  0  0
   57.6820   32.0050   43.0350 O   0  0  0  0  0  0  0  0  0  0  0  0
   56.9290   30.1130   44.1790 N   0  0  0  0  0  0  0  0  0  0  0  0
   55.5200   29.7040   44.1930 C   0  0  0  0  0  0  0  0  0  0  0  0
   55.1774   29.6045   45.2335 H   0  0  0  0  0  0  0  0  0  0  0  0
   54.9128   30.4630   43.6780 H   0  0  0  0  0  0  0  0  0  0  0  0
   55.4135   28.7379   43.6780 H   0  0  0  0  0  0  0  0  0  0  0  0
   57.9870   29.1100   43.9680 C   0  0  0  0  0  0  0  0  0  0  0  0
   57.5508   28.2073   43.5154 H   0  0  0  0  0  0  0  0  0  0  0  0
   58.7545   29.5238   43.2974 H   0  0  0  0  0  0  0  0  0  0  0  0
   58.6150   28.7550   45.2870 C   0  0  0  0  0  0  0  0  0  0  0  0
   58.1360   29.3160   46.4790 C   0  0  0  0  0  0  0  0  0  0  0  0
   57.3403   30.0747   46.4450 H   0  0  0  0  0  0  0  0  0  0  0  0
   58.6490   28.9280   47.6770 N   0  0  0  0  0  0  0  0  0  0  0  0
   59.6280   27.9910   47.7620 C   0  0  0  0  0  0  0  0  0  0  0  0
   60.0203   27.6942   48.7459 H   0  0  0  0  0  0  0  0  0  0  0  0
   60.1380   27.4030   46.6010 C   0  0  0  0  0  0  0  0  0  0  0  0
   60.9361   26.6487   46.6652 H   0  0  0  0  0  0  0  0  0  0  0  0
   59.6250   27.7820   45.3590 C   0  0  0  0  0  0  0  0  0  0  0  0
   60.0112   27.3194   44.4388 H   0  0  0  0  0  0  0  0  0  0  0  0
   58.7480   34.2110   45.3270 C   0  0  0  0  0  0  0  0  0  0  0  0
   58.4567   34.6839   44.3775 H   0  0  0  0  0  0  0  0  0  0  0  0
   59.9350   34.7550   46.3860 S   0  0  0  0  0  0  0  0  0  0  0  0
   61.8220   33.8250   48.6840 N   0  0  0  0  0  0  0  0  0  0  0  0
   62.0770   34.7790   49.0470 H   0  0  0  0  0  0  0  0  0  0  0  0
   59.6750   34.1320   49.9070 C   0  0  0  0  0  0  0  0  0  0  0  0
   60.3338   34.9326   50.2745 H   0  0  0  0  0  0  0  0  0  0  0  0
   58.7623   34.5359   49.4447 H   0  0  0  0  0  0  0  0  0  0  0  0
   59.2790   33.3310   51.0060 O   0  0  0  0  0  0  0  0  0  0  0  0
   58.4010   32.3170   50.5620 C   0  0  2  0  0  0  0  0  0  0  0  0
   57.6315   32.7527   49.9078 H   0  0  0  0  0  0  0  0  0  0  0  0
   57.7230   31.6820   51.7730 C   0  0  0  0  0  0  0  0  0  0  0  0
   58.1607   32.0920   52.6951 H   0  0  0  0  0  0  0  0  0  0  0  0
   56.6459   31.9037   51.7483 H   0  0  0  0  0  0  0  0  0  0  0  0
   57.8738   30.5927   51.7483 H   0  0  0  0  0  0  0  0  0  0  0  0
   59.1700   31.2600   49.7360 C   0  0  0  0  0  0  0  0  0  0  0  0
   59.3593   30.3810   50.3696 H   0  0  0  0  0  0  0  0  0  0  0  0
   58.5551   30.9922   48.8641 H   0  0  0  0  0  0  0  0  0  0  0  0
  1  2  1  0
  2  3  2  0
  3  4  1  0
  4  5  1  0
  5  6  1  0
  5  7  1  0
  5  8  1  0
  8  9  1  1
  8 10  1  0
 10 11  1  6
 11 12  2  0
 12 13  1  0
 13 14  1  0
 14 15  1  0
 15 16  2  0
 15 17  1  0
 17 18  1  0
 18 19  1  0
 18 20  1  0
 18 21  1  0
 17 22  1  0
 22 23  1  0
 22 24  1  0
 22 25  1  0
 25 26  2  0
 26 27  1  0
 26 28  1  0
 28 29  2  0
 29 30  1  0
 29 31  1  0
 31 32  1  0
 31 33  2  0
 33 34  1  0
 13 35  2  0
 35 36  1  0
 35 37  1  0
 10 38  1  0
 38 39  1  0
 10 40  1  0
 40 41  1  0
 40 42  1  0
 40 43  1  0
 43 44  1  0
 44 45  1  6
 44 46  1  0
 46 47  1  0
 46 48  1  0
 46 49  1  0
 44 50  1  0
 50 51  1  0
 50 52  1  0
 38  3  1  0
 50  8  1  0
 37 11  1  0
 33 25  1  0
M  CHG  1  14  -1
M  END
>  <UniqueID>  (28) 
27

>  <SMILES>  (28) 
[H]/N=C1\NC2(c3nc([N-]C(=O)N(C)Cc4cccnc4)cs3)CO[C@H](C)C[C@H]2CS1

>  <Energy>  (28) 
100.8229307067652

>  <Genealogy>  (28) 
CC1CC2CSC(=N)NC2(c2nc([N-]C(=O)N(C)Cc3cccnc3)cs2)CO1 (protonated)
C[C@@H]1C[C@H]2CSC(=N)NC2(c2nc([N-]C(=O)N(C)Cc3cccnc3)cs2)CO1 (chirality)
[H]/N=C1\NC2(c3nc([N-]C(=O)N(C)Cc4cccnc4)cs3)CO[C@H](C)C[C@H]2CS1 (cis-trans isomerization)
[H]/N=C1\NC2(c3nc([N-]C(=O)N(C)Cc4cccnc4)cs3)CO[C@H](C)C[C@H]2CS1 (3D coordinates assigned)
[H]/N=C1\NC2(c3nc([N-]C(=O)N(C)Cc4cccnc4)cs3)CO[C@H](C)C[C@H]2CS1 (nonaromatic ring conformer: 100.8229307067652 kcal/mol)

>  <smiles>  (28) 
CC1CC2CSC(=N)NC2(c2nc(NC(=O)N(C)Cc3cccnc3)cs2)CO1

>  <score_type>  (28) 
oracle

>  <origin>  (28) 
adg

>  <m_score__min__energy>  (28) 
-9.9299999999999997

>  <m_primary>  (28) 
energy

$$$$
28:0
     RDKit          3D

 54 58  0  0  0  0  0  0  0  0999 V2000
   57.0360   22.3570   48.0850 O   0  0  0  0  0  0  0  0  0  0  0  0
   57.0670   22.9850   46.9940 C   0  0  0  0  0  0  0  0  0  0  0  0
   57.2640   24.4110   46.8090 C   0  0  0  0  0  0  0  0  0  0  0  0
   57.4290   25.2480   47.7370 O   0  0  0  0  0  0  0  0  0  0  0  0
   57.2350   24.7390   45.4150 N   0  0  0  0  0  0  0  0  0  0  0  0
   57.3450   26.0610   44.8610 C   0  0  0  0  0  0  0  0  0  0  0  0
   58.0620   26.2490   43.8410 O   0  0  0  0  0  0  0  0  0  0  0  0
   56.6160   27.1540   45.4320 N   0  0  0  0  0  0  0  0  0  0  0  0
   56.9630   28.5450   45.3740 C   0  0  0  0  0  0  0  0  0  0  0  0
   58.0000   29.0110   46.1890 C   0  0  0  0  0  0  0  0  0  0  0  0
   58.3840   30.3540   46.1500 C   0  0  0  0  0  0  0  0  0  0  0  0
   57.7520   31.2490   45.2720 C   0  0  0  0  0  0  0  0  0  0  0  0
   58.1540   32.6720   45.2430 C   0  0  0  0  0  0  0  0  0  0  0  0
   57.6630   33.4320   44.3640 O   0  0  0  0  0  0  0  0  0  0  0  0
   59.0900   33.2060   46.1970 N   0  0  0  0  0  0  0  0  0  0  0  0
   59.9880   34.2950   45.7880 C   0  0  0  0  0  0  0  0  0  0  0  0
   61.3190   34.2120   46.5500 C   0  0  0  0  0  0  0  0  0  0  0  0
   61.1160   33.9170   47.9770 N   0  0  0  0  0  0  0  0  0  0  0  0
   62.2680   33.8000   48.8330 C   0  0  0  0  0  0  0  0  0  0  0  0
   63.4390   33.1560   48.3930 C   0  0  0  0  0  0  0  0  0  0  0  0
   64.5420   33.0810   49.2460 C   0  0  0  0  0  0  0  0  0  0  0  0
   64.4790   33.6500   50.5180 C   0  0  0  0  0  0  0  0  0  0  0  0
   63.3100   34.2980   50.9170 C   0  0  0  0  0  0  0  0  0  0  0  0
   62.2450   34.3620   50.0750 N   0  0  0  0  0  0  0  0  0  0  0  0
   59.7510   33.8190   48.5090 C   0  0  0  0  0  0  0  0  0  0  0  0
   58.9250   32.8820   47.6260 C   0  0  0  0  0  0  0  0  0  0  0  0
   56.7150   30.7810   44.4490 C   0  0  0  0  0  0  0  0  0  0  0  0
   56.3310   29.4360   44.4900 C   0  0  0  0  0  0  0  0  0  0  0  0
   57.0190   23.4780   44.7500 C   0  0  0  0  0  0  0  0  0  0  0  0
   56.9380   23.2220   43.3740 C   0  0  0  0  0  0  0  0  0  0  0  0
   56.7350   21.8980   42.9480 C   0  0  0  0  0  0  0  0  0  0  0  0
   56.6220   20.8510   43.8830 C   0  0  0  0  0  0  0  0  0  0  0  0
   56.7160   21.1160   45.2580 C   0  0  0  0  0  0  0  0  0  0  0  0
   56.9150   22.4350   45.6600 C   0  0  0  0  0  0  0  0  0  0  0  0
   58.5171   28.3149   46.8658 H   0  0  0  0  0  0  0  0  0  0  0  0
   59.1866   30.7123   46.8114 H   0  0  0  0  0  0  0  0  0  0  0  0
   60.1838   34.2161   44.7084 H   0  0  0  0  0  0  0  0  0  0  0  0
   59.5068   35.2571   46.0178 H   0  0  0  0  0  0  0  0  0  0  0  0
   61.9340   33.4154   46.1060 H   0  0  0  0  0  0  0  0  0  0  0  0
   61.8187   35.1888   46.4712 H   0  0  0  0  0  0  0  0  0  0  0  0
   63.4852   32.7155   47.3861 H   0  0  0  0  0  0  0  0  0  0  0  0
   65.4601   32.5735   48.9150 H   0  0  0  0  0  0  0  0  0  0  0  0
   65.3411   33.5884   51.1985 H   0  0  0  0  0  0  0  0  0  0  0  0
   63.2500   34.7578   51.9145 H   0  0  0  0  0  0  0  0  0  0  0  0
   59.7848   33.4216   49.5341 H   0  0  0  0  0  0  0  0  0  0  0  0
   59.2885   34.8170   48.5174 H   0  0  0  0  0  0  0  0  0  0  0  0
   59.2527   31.8462   47.7984 H   0  0  0  0  0  0  0  0  0  0  0  0
   57.8638   33.0042   47.8887 H   0  0  0  0  0  0  0  0  0  0  0  0
   56.2015   31.4757   43.7681 H   0  0  0  0  0  0  0  0  0  0  0  0
   55.5309   29.0746   43.8273 H   0  0  0  0  0  0  0  0  0  0  0  0
   57.0313   24.0394   42.6438 H   0  0  0  0  0  0  0  0  0  0  0  0
   56.6636   21.6773   41.8727 H   0  0  0  0  0  0  0  0  0  0  0  0
   56.4593   19.8206   43.5340 H   0  0  0  0  0  0  0  0  0  0  0  0
   56.6349   20.3054   45.9972 H   0  0  0  0  0  0  0  0  0  0  0  0
  1  2  2  0
  2  3  1  0
  3  4  2  0
  3  5  1  0
  5  6  1  0
  6  7  2  0
  6  8  1  0
  8  9  1  0
  9 10  2  0
 10 11  1  0
 11 12  2  0
 12 13  1  0
 13 14  2  0
 13 15  1  0
 15 16  1  0
 16 17  1  0
 17 18  1  0
 18 19  1  0
 19 20  2  0
 20 21  1  0
 21 22  2  0
 22 23  1  0
 23 24  2  0
 18 25  1  0
 25 26  1  0
 12 27  1  0
 27 28  2  0
  5 29  1  0
 29 30  2  0
 30 31  1  0
 31 32  2  0
 32 33  1  0
 33 34  2  0
 34  2  1  0
 28  9  1  0
 34 29  1  0
 26 15  1  0
 24 19  1  0
 10 35  1  0
 11 36  1  0
 16 37  1  0
 16 38  1  0
 17 39  1  0
 17 40  1  0
 20 41  1  0
 21 42  1  0
 22 43  1  0
 23 44  1  0
 25 45  1  0
 25 46  1  0
 26 47  1  0
 26 48  1  0
 27 49  1  0
 28 50  1  0
 30 51  1  0
 31 52  1  0
 32 53  1  0
 33 54  1  0
M  CHG  1   8  -1
M  END
>  <UniqueID>  (29) 
28

>  <SMILES>  (29) 
O=C1C(=O)N(C(=O)[N-]c2ccc(C(=O)N3CCN(c4ccccn4)CC3)cc2)c2ccccc21

>  <Energy>  (29) 
107.42886806513746

>  <Genealogy>  (29) 
O=C1C(=O)N(C(=O)[N-]c2ccc(C(=O)N3CCN(c4ccccn4)CC3)cc2)c2ccccc21 (protonated)
O=C1C(=O)N(C(=O)[N-]c2ccc(C(=O)N3CCN(c4ccccn4)CC3)cc2)c2ccccc21 (3D coordinates assigned)
O=C1C(=O)N(C(=O)[N-]c2ccc(C(=O)N3CCN(c4ccccn4)CC3)cc2)c2ccccc21 (nonaromatic ring conformer: 107.42886806513746 kcal/mol)

>  <smiles>  (29) 
O=C1C(=O)N(C(=O)Nc2ccc(C(=O)N3CCN(c4ccccn4)CC3)cc2)c2ccccc21

>  <score_type>  (29) 
oracle

>  <origin>  (29) 
adg

>  <m_score__min__energy>  (29) 
-11.51

>  <m_primary>  (29) 
energy

$$$$
29:0
     RDKit          3D

 41 43  0  0  0  0  0  0  0  0999 V2000
   60.6510   26.6300   47.1690 C   0  0  0  0  0  0  0  0  0  0  0  0
   59.8400   27.3690   46.3900 C   0  0  0  0  0  0  0  0  0  0  0  0
   60.4450   28.3150   45.5430 C   0  0  0  0  0  0  0  0  0  0  0  0
   59.6910   29.2900   44.8960 C   0  0  0  0  0  0  0  0  0  0  0  0
   58.3040   29.3620   45.0860 C   0  0  0  0  0  0  0  0  0  0  0  0
   57.4920   30.4280   44.4390 C   0  0  0  0  0  0  0  0  0  0  0  0
   56.2770   30.5580   44.7590 O   0  0  0  0  0  0  0  0  0  0  0  0
   58.0790   31.3290   43.3760 C   0  0  0  0  0  0  0  0  0  0  0  0
   57.6770   32.8000   43.5520 C   0  0  0  0  0  0  0  0  0  0  0  0
   58.2310   33.3490   44.8400 C   0  0  0  0  0  0  0  0  0  0  0  0
   57.6450   33.0020   46.0690 C   0  0  0  0  0  0  0  0  0  0  0  0
   58.1390   33.5400   47.2610 C   0  0  0  0  0  0  0  0  0  0  0  0
   59.2150   34.4320   47.2360 C   0  0  0  0  0  0  0  0  0  0  0  0
   59.6930   34.9530   48.3920 F   0  0  0  0  0  0  0  0  0  0  0  0
   59.7950   34.7920   46.0140 C   0  0  0  0  0  0  0  0  0  0  0  0
   59.3030   34.2570   44.8200 C   0  0  0  0  0  0  0  0  0  0  0  0
   57.6790   28.3840   45.8790 C   0  0  0  0  0  0  0  0  0  0  0  0
   58.4090   27.3310   46.4750 C   0  0  0  0  0  0  0  0  0  0  0  0
   57.6860   26.3480   47.0700 C   0  0  0  0  0  0  0  0  0  0  0  0
   56.8220   25.3640   46.3890 C   0  0  0  0  0  0  0  0  0  0  0  0
   57.1450   24.0720   46.2220 N   0  0  0  0  0  0  0  0  0  0  0  0
   56.0510   23.5140   45.6660 C   0  0  0  0  0  0  0  0  0  0  0  0
   55.9850   22.2980   45.3510 O   0  0  0  0  0  0  0  0  0  0  0  0
   55.0240   24.3750   45.4860 N   0  0  0  0  0  0  0  0  0  0  0  0
   55.5210   25.5340   45.9590 C   0  0  0  0  0  0  0  0  0  0  0  0
   54.7870   26.7110   46.0270 O   0  0  0  0  0  0  0  0  0  0  0  0
   60.2249   25.8770   47.8483 H   0  0  0  0  0  0  0  0  0  0  0  0
   61.7400   26.7789   47.1265 H   0  0  0  0  0  0  0  0  0  0  0  0
   61.5337   28.2838   45.3891 H   0  0  0  0  0  0  0  0  0  0  0  0
   60.1880   30.0104   44.2297 H   0  0  0  0  0  0  0  0  0  0  0  0
   59.1757   31.2569   43.4211 H   0  0  0  0  0  0  0  0  0  0  0  0
   57.6866   30.9932   42.4048 H   0  0  0  0  0  0  0  0  0  0  0  0
   58.0721   33.3863   42.7093 H   0  0  0  0  0  0  0  0  0  0  0  0
   56.5794   32.8673   43.5802 H   0  0  0  0  0  0  0  0  0  0  0  0
   56.7946   32.3046   46.0933 H   0  0  0  0  0  0  0  0  0  0  0  0
   57.6799   33.2608   48.2208 H   0  0  0  0  0  0  0  0  0  0  0  0
   60.6392   35.4969   45.9933 H   0  0  0  0  0  0  0  0  0  0  0  0
   59.7568   34.5480   43.8611 H   0  0  0  0  0  0  0  0  0  0  0  0
   56.5923   28.4399   46.0400 H   0  0  0  0  0  0  0  0  0  0  0  0
   57.7503   26.2781   48.1659 H   0  0  0  0  0  0  0  0  0  0  0  0
   58.0430   23.6010   46.4730 H   0  0  0  0  0  0  0  0  0  0  0  0
  1  2  2  0
  2  3  1  0
  3  4  2  0
  4  5  1  0
  5  6  1  0
  6  7  2  0
  6  8  1  0
  8  9  1  0
  9 10  1  0
 10 11  2  0
 11 12  1  0
 12 13  2  0
 13 14  1  0
 13 15  1  0
 15 16  2  0
  5 17  2  0
 17 18  1  0
 18 19  2  3
 19 20  1  0
 20 21  1  0
 21 22  1  0
 22 23  2  0
 22 24  1  0
 24 25  1  0
 25 26  1  0
 18  2  1  0
 25 20  2  0
 16 10  1  0
  1 27  1  0
  1 28  1  0
  3 29  1  0
  4 30  1  0
  8 31  1  0
  8 32  1  0
  9 33  1  0
  9 34  1  0
 11 35  1  0
 12 36  1  0
 15 37  1  0
 16 38  1  0
 17 39  1  0
 19 40  1  0
 21 41  1  0
M  CHG  2  24  -1  26  -1
M  END
>  <UniqueID>  (30) 
29

>  <SMILES>  (30) 
C=c1ccc(C(=O)CCc2ccc(F)cc2)cc1=Cc1[nH]c(=O)[n-]c1[O-]

>  <Energy>  (30) 
95.73044511523874

>  <Genealogy>  (30) 
C=c1ccc(C(=O)CCc2ccc(F)cc2)cc1=Cc1[nH]c(=O)[n-]c1[O-] (protonated)
C=c1ccc(C(=O)CCc2ccc(F)cc2)cc1=Cc1[nH]c(=O)[n-]c1[O-] (3D coordinates assigned)
C=c1ccc(C(=O)CCc2ccc(F)cc2)cc1=Cc1[nH]c(=O)[n-]c1[O-] (optimized conformer: 95.73044511523874 kcal/mol)

>  <smiles>  (30) 
C=c1ccc(C(=O)CCc2ccc(F)cc2)cc1=Cc1[nH]c(=O)[nH]c1O

>  <score_type>  (30) 
oracle

>  <origin>  (30) 
adg

>  <m_score__min__energy>  (30) 
-15.609999999999999

>  <m_primary>  (30) 
energy

$$$$
30:0
     RDKit          3D

 59 63  0  0  0  0  0  0  0  0999 V2000
   66.8820   32.9550   52.6470 C   0  0  0  0  0  0  0  0  0  0  0  0
   66.9250   32.7240   51.1330 C   0  0  0  0  0  0  0  0  0  0  0  0
   67.9900   33.6060   50.4730 C   0  0  0  0  0  0  0  0  0  0  0  0
   65.5740   32.9760   50.5290 C   0  0  0  0  0  0  0  0  0  0  0  0
   65.2650   32.7140   49.2330 N   0  0  0  0  0  0  0  0  0  0  0  0
   64.0270   33.0940   48.9230 N   0  0  0  0  0  0  0  0  0  0  0  0
   63.4630   32.9750   47.6910 C   0  0  0  0  0  0  0  0  0  0  0  0
   64.1020   32.4550   46.7350 O   0  0  0  0  0  0  0  0  0  0  0  0
   62.1580   33.4470   47.4960 C   0  0  0  0  0  0  0  0  0  0  0  0
   61.4720   34.0200   48.5900 C   0  0  0  0  0  0  0  0  0  0  0  0
   60.1000   34.6010   48.4170 C   0  0  0  0  0  0  0  0  0  0  0  0
   59.7860   34.6870   47.0270 O   0  0  0  0  0  0  0  0  0  0  0  0
   58.8890   33.8330   46.3680 C   0  0  0  0  0  0  0  0  0  0  0  0
   57.9870   34.3040   45.3980 C   0  0  0  0  0  0  0  0  0  0  0  0
   57.0710   33.4300   44.8060 C   0  0  0  0  0  0  0  0  0  0  0  0
   57.0270   32.0860   45.1920 C   0  0  0  0  0  0  0  0  0  0  0  0
   56.0400   31.2250   44.6090 N   0  0  0  0  0  0  0  0  0  0  0  0
   56.3070   29.9230   44.0810 C   0  0  0  0  0  0  0  0  0  0  0  0
   56.7640   29.8200   42.9110 O   0  0  0  0  0  0  0  0  0  0  0  0
   56.0070   28.7550   44.8610 N   0  0  0  0  0  0  0  0  0  0  0  0
   56.8420   28.0770   45.5910 C   0  0  0  0  0  0  0  0  0  0  0  0
   56.5140   26.9730   46.3030 N   0  0  0  0  0  0  0  0  0  0  0  0
   57.5850   26.4860   46.9850 C   0  0  0  0  0  0  0  0  0  0  0  0
   58.7640   27.2080   46.8110 C   0  0  0  0  0  0  0  0  0  0  0  0
   60.0810   26.9180   47.4640 C   0  0  0  0  0  0  0  0  0  0  0  0
   60.4810   28.0650   48.3530 C   0  0  0  0  0  0  0  0  0  0  0  0
   60.7430   27.8470   49.7200 C   0  0  0  0  0  0  0  0  0  0  0  0
   61.1800   28.9020   50.5280 C   0  0  0  0  0  0  0  0  0  0  0  0
   61.3620   30.1770   49.9810 C   0  0  0  0  0  0  0  0  0  0  0  0
   61.7850   31.1970   50.7630 F   0  0  0  0  0  0  0  0  0  0  0  0
   61.1120   30.3990   48.6230 C   0  0  0  0  0  0  0  0  0  0  0  0
   60.6790   29.3470   47.8090 C   0  0  0  0  0  0  0  0  0  0  0  0
   58.4590   28.4970   45.7700 S   0  0  0  0  0  0  0  0  0  0  0  0
   57.9630   31.6040   46.1250 C   0  0  0  0  0  0  0  0  0  0  0  0
   58.8940   32.4740   46.6990 C   0  0  0  0  0  0  0  0  0  0  0  0
   62.0890   34.1240   49.8030 N   0  0  0  0  0  0  0  0  0  0  0  0
   63.3540   33.6580   49.9480 C   0  0  0  0  0  0  0  0  0  0  0  0
   64.2870   33.7300   51.3410 S   0  0  0  0  0  0  0  0  0  0  0  0
   67.0593   32.0028   53.1684 H   0  0  0  0  0  0  0  0  0  0  0  0
   67.6609   33.6784   52.9298 H   0  0  0  0  0  0  0  0  0  0  0  0
   65.8950   33.3497   52.9298 H   0  0  0  0  0  0  0  0  0  0  0  0
   67.1985   31.6742   50.9510 H   0  0  0  0  0  0  0  0  0  0  0  0
   68.5889   34.1020   51.2510 H   0  0  0  0  0  0  0  0  0  0  0  0
   68.6457   32.9829   49.8471 H   0  0  0  0  0  0  0  0  0  0  0  0
   67.5000   34.3663   49.8471 H   0  0  0  0  0  0  0  0  0  0  0  0
   61.6768   33.3727   46.5096 H   0  0  0  0  0  0  0  0  0  0  0  0
   59.3638   33.9561   48.9190 H   0  0  0  0  0  0  0  0  0  0  0  0
   60.0720   35.6075   48.8599 H   0  0  0  0  0  0  0  0  0  0  0  0
   58.0022   35.3639   45.1040 H   0  0  0  0  0  0  0  0  0  0  0  0
   56.3816   33.8005   44.0331 H   0  0  0  0  0  0  0  0  0  0  0  0
   57.5253   25.5924   47.6237 H   0  0  0  0  0  0  0  0  0  0  0  0
   59.9940   26.0027   48.0679 H   0  0  0  0  0  0  0  0  0  0  0  0
   60.8465   26.7815   46.6859 H   0  0  0  0  0  0  0  0  0  0  0  0
   60.6037   26.8453   50.1528 H   0  0  0  0  0  0  0  0  0  0  0  0
   61.3810   28.7289   51.5955 H   0  0  0  0  0  0  0  0  0  0  0  0
   61.2560   31.4019   48.1946 H   0  0  0  0  0  0  0  0  0  0  0  0
   60.4926   29.5230   46.7393 H   0  0  0  0  0  0  0  0  0  0  0  0
   57.9621   30.5398   46.4034 H   0  0  0  0  0  0  0  0  0  0  0  0
   59.6346   32.0880   47.4149 H   0  0  0  0  0  0  0  0  0  0  0  0
  1  2  1  0
  2  3  1  0
  2  4  1  0
  4  5  2  0
  5  6  1  0
  6  7  1  0
  7  8  2  0
  7  9  1  0
  9 10  2  0
 10 11  1  0
 11 12  1  0
 12 13  1  0
 13 14  2  0
 14 15  1  0
 15 16  2  0
 16 17  1  0
 17 18  1  0
 18 19  2  0
 18 20  1  0
 20 21  2  3
 21 22  1  0
 22 23  1  0
 23 24  2  0
 24 25  1  0
 25 26  1  0
 26 27  2  0
 27 28  1  0
 28 29  2  0
 29 30  1  0
 29 31  1  0
 31 32  2  0
 24 33  1  0
 16 34  1  0
 34 35  2  0
 10 36  1  0
 36 37  2  0
 37 38  1  0
 38  4  1  0
 37  6  1  0
 35 13  1  0
 33 21  1  0
 32 26  1  0
  1 39  1  0
  1 40  1  0
  1 41  1  0
  2 42  1  0
  3 43  1  0
  3 44  1  0
  3 45  1  0
  9 46  1  0
 11 47  1  0
 11 48  1  0
 14 49  1  0
 15 50  1  0
 23 51  1  0
 25 52  1  0
 25 53  1  0
 27 54  1  0
 28 55  1  0
 31 56  1  0
 32 57  1  0
 34 58  1  0
 35 59  1  0
M  CHG  2  17  -1  22  -1
M  END
>  <UniqueID>  (31) 
30

>  <SMILES>  (31) 
CC(C)c1nn2c(=O)cc(COc3ccc([N-]C(=O)N=c4[n-]cc(Cc5ccc(F)cc5)s4)cc3)nc2s1

>  <Energy>  (31) 
133.09064739835242

>  <Genealogy>  (31) 
CC(C)c1nn2c(=O)cc(COc3ccc([N-]C(=O)N=c4[n-]cc(Cc5ccc(F)cc5)s4)cc3)nc2s1 (protonated)
CC(C)c1nn2c(=O)cc(COc3ccc([N-]C(=O)N=c4[n-]cc(Cc5ccc(F)cc5)s4)cc3)nc2s1 (3D coordinates assigned)
CC(C)c1nn2c(=O)cc(COc3ccc([N-]C(=O)N=c4[n-]cc(Cc5ccc(F)cc5)s4)cc3)nc2s1 (optimized conformer: 133.09064739835242 kcal/mol)

>  <smiles>  (31) 
CC(C)c1nn2c(=O)cc(COc3ccc(NC(=O)N=c4[nH]cc(Cc5ccc(F)cc5)s4)cc3)nc2s1

>  <score_type>  (31) 
oracle

>  <origin>  (31) 
adg

>  <m_score__min__energy>  (31) 
-12.08

>  <m_primary>  (31) 
energy

$$$$
31:0
     RDKit          3D

 86 90  0  0  0  0  0  0  0  0999 V2000
   61.3320   30.9800   52.7890 C   0  0  0  0  0  0  0  0  0  0  0  0
   60.6380   29.3050   52.9310 S   0  0  0  0  0  0  0  0  0  0  0  0
   60.2260   29.1910   51.1830 C   0  0  0  0  0  0  0  0  0  0  0  0
   61.0860   28.4820   50.3350 C   0  0  0  0  0  0  0  0  0  0  0  0
   60.7800   28.3350   48.9830 C   0  0  0  0  0  0  0  0  0  0  0  0
   59.6230   28.9210   48.4440 C   0  0  0  0  0  0  0  0  0  0  0  0
   59.2730   28.7320   47.0170 C   0  0  0  0  0  0  0  0  0  0  0  0
   60.0240   29.2110   46.1270 O   0  0  0  0  0  0  0  0  0  0  0  0
   58.0750   28.0600   46.6120 N   0  0  0  0  0  0  0  0  0  0  0  0
   58.0370   26.8980   45.7200 C   0  0  1  0  0  0  0  0  0  0  0  0
   56.8400   26.0070   46.1130 C   0  0  0  0  0  0  0  0  0  0  0  0
   56.8230   24.7350   45.3070 C   0  0  0  0  0  0  0  0  0  0  0  0
   55.6240   24.2630   44.7440 C   0  0  0  0  0  0  0  0  0  0  0  0
   55.6020   23.0480   44.0530 C   0  0  0  0  0  0  0  0  0  0  0  0
   56.7720   22.2970   43.9170 C   0  0  0  0  0  0  0  0  0  0  0  0
   57.9670   22.7580   44.4750 C   0  0  0  0  0  0  0  0  0  0  0  0
   57.9920   23.9690   45.1740 C   0  0  0  0  0  0  0  0  0  0  0  0
   57.9610   27.3890   44.2500 C   0  0  2  0  0  0  0  0  0  0  0  0
   59.2500   27.5130   43.7020 O   0  0  0  0  0  0  0  0  0  0  0  0
   57.2070   28.7250   44.1220 C   0  0  0  0  0  0  0  0  0  0  0  0
   58.1610   29.8460   44.0370 N   0  0  0  0  0  0  0  0  0  0  0  0
   57.4890   31.0960   43.6550 C   0  0  0  0  0  0  0  0  0  0  0  0
   57.8640   32.2110   44.6000 C   0  0  0  0  0  0  0  0  0  0  0  0
   57.3800   33.5120   44.3830 C   0  0  0  0  0  0  0  0  0  0  0  0
   57.6750   34.5350   45.2870 C   0  0  0  0  0  0  0  0  0  0  0  0
   58.4530   34.2690   46.4150 C   0  0  0  0  0  0  0  0  0  0  0  0
   58.9340   32.9700   46.6590 C   0  0  0  0  0  0  0  0  0  0  0  0
   59.7620   32.6910   47.8540 C   0  0  0  0  0  0  0  0  0  0  0  0
   59.2000   32.4160   48.9490 O   0  0  0  0  0  0  0  0  0  0  0  0
   61.1980   32.7090   47.7810 N   0  0  0  0  0  0  0  0  0  0  0  0
   61.8790   33.9160   47.2990 C   0  0  0  0  0  0  0  0  0  0  0  0
   63.2710   33.5490   46.7780 C   0  0  0  0  0  0  0  0  0  0  0  0
   63.9950   32.8190   47.7500 O   0  0  0  0  0  0  0  0  0  0  0  0
   63.3620   31.5730   47.9830 C   0  0  0  0  0  0  0  0  0  0  0  0
   61.9720   31.7740   48.6010 C   0  0  0  0  0  0  0  0  0  0  0  0
   58.6370   31.9450   45.7450 C   0  0  0  0  0  0  0  0  0  0  0  0
   58.7570   29.6270   49.2950 C   0  0  0  0  0  0  0  0  0  0  0  0
   59.0500   29.7670   50.6620 C   0  0  0  0  0  0  0  0  0  0  0  0
   58.1210   30.4520   51.5200 N   0  0  0  0  0  0  0  0  0  0  0  0
   58.1710   31.9160   51.6100 C   0  0  0  0  0  0  0  0  0  0  0  0
   56.9480   32.4550   52.3650 C   0  0  0  0  0  0  0  0  0  0  0  0
   55.7590   31.6540   52.0550 N   0  0  0  0  0  0  0  0  0  0  0  0
   55.8760   30.2770   52.5710 C   0  0  0  0  0  0  0  0  0  0  0  0
   57.3030   29.6940   52.4720 C   0  0  0  0  0  0  0  0  0  0  0  0
   61.5029   31.3925   53.7943 H   0  0  0  0  0  0  0  0  0  0  0  0
   62.2862   30.9365   52.2434 H   0  0  0  0  0  0  0  0  0  0  0  0
   60.6267   31.6241   52.2434 H   0  0  0  0  0  0  0  0  0  0  0  0
   62.0084   28.0385   50.7382 H   0  0  0  0  0  0  0  0  0  0  0  0
   61.4508   27.7548   48.3324 H   0  0  0  0  0  0  0  0  0  0  0  0
   58.9490   26.2906   45.8159 H   0  0  0  0  0  0  0  0  0  0  0  0
   56.9155   25.7546   47.1810 H   0  0  0  0  0  0  0  0  0  0  0  0
   55.9112   26.5608   45.9112 H   0  0  0  0  0  0  0  0  0  0  0  0
   54.7006   24.8516   44.8476 H   0  0  0  0  0  0  0  0  0  0  0  0
   54.6613   22.6825   43.6154 H   0  0  0  0  0  0  0  0  0  0  0  0
   56.7524   21.3426   43.3705 H   0  0  0  0  0  0  0  0  0  0  0  0
   58.8888   22.1680   44.3645 H   0  0  0  0  0  0  0  0  0  0  0  0
   58.9322   24.3231   45.6218 H   0  0  0  0  0  0  0  0  0  0  0  0
   57.3968   26.6306   43.6874 H   0  0  0  0  0  0  0  0  0  0  0  0
   59.6850   28.2790   44.1560 H   0  0  0  0  0  0  0  0  0  0  0  0
   56.5875   28.7062   43.2132 H   0  0  0  0  0  0  0  0  0  0  0  0
   56.5714   28.8631   45.0091 H   0  0  0  0  0  0  0  0  0  0  0  0
   58.8600   29.6220   43.2900 H   0  0  0  0  0  0  0  0  0  0  0  0
   57.7907   31.3710   42.6336 H   0  0  0  0  0  0  0  0  0  0  0  0
   56.4008   30.9423   43.7021 H   0  0  0  0  0  0  0  0  0  0  0  0
   56.7653   33.7261   43.4962 H   0  0  0  0  0  0  0  0  0  0  0  0
   57.2938   35.5515   45.1098 H   0  0  0  0  0  0  0  0  0  0  0  0
   58.6915   35.0808   47.1179 H   0  0  0  0  0  0  0  0  0  0  0  0
   61.2915   34.3675   46.4860 H   0  0  0  0  0  0  0  0  0  0  0  0
   61.9771   34.6343   48.1263 H   0  0  0  0  0  0  0  0  0  0  0  0
   63.1664   32.9360   45.8706 H   0  0  0  0  0  0  0  0  0  0  0  0
   63.8189   34.4759   46.5529 H   0  0  0  0  0  0  0  0  0  0  0  0
   63.2578   31.0374   47.0278 H   0  0  0  0  0  0  0  0  0  0  0  0
   63.9781   30.9906   48.6839 H   0  0  0  0  0  0  0  0  0  0  0  0
   61.4487   30.8075   48.6463 H   0  0  0  0  0  0  0  0  0  0  0  0
   62.0803   32.1831   49.6163 H   0  0  0  0  0  0  0  0  0  0  0  0
   59.0117   30.9268   45.9261 H   0  0  0  0  0  0  0  0  0  0  0  0
   57.8392   30.0753   48.8868 H   0  0  0  0  0  0  0  0  0  0  0  0
   59.0853   32.2140   52.1441 H   0  0  0  0  0  0  0  0  0  0  0  0
   58.1706   32.3332   50.5922 H   0  0  0  0  0  0  0  0  0  0  0  0
   57.1421   32.4111   53.4468 H   0  0  0  0  0  0  0  0  0  0  0  0
   56.7676   33.4946   52.0541 H   0  0  0  0  0  0  0  0  0  0  0  0
   55.6390   31.6180   51.0140 H   0  0  0  0  0  0  0  0  0  0  0  0
   55.5734   30.2759   53.6286 H   0  0  0  0  0  0  0  0  0  0  0  0
   55.2272   29.6446   51.9472 H   0  0  0  0  0  0  0  0  0  0  0  0
   57.7767   29.7346   53.4639 H   0  0  0  0  0  0  0  0  0  0  0  0
   57.2308   28.6548   52.1187 H   0  0  0  0  0  0  0  0  0  0  0  0
  1  2  1  0
  2  3  1  0
  3  4  2  0
  4  5  1  0
  5  6  2  0
  6  7  1  0
  7  8  2  0
  7  9  1  0
  9 10  1  0
 10 11  1  0
 11 12  1  0
 12 13  2  0
 13 14  1  0
 14 15  2  0
 15 16  1  0
 16 17  2  0
 10 18  1  0
 18 19  1  0
 18 20  1  0
 20 21  1  0
 21 22  1  0
 22 23  1  0
 23 24  2  0
 24 25  1  0
 25 26  2  0
 26 27  1  0
 27 28  1  0
 28 29  2  0
 28 30  1  0
 30 31  1  0
 31 32  1  0
 32 33  1  0
 33 34  1  0
 34 35  1  0
 27 36  2  0
  6 37  1  0
 37 38  2  0
 38 39  1  0
 39 40  1  0
 40 41  1  0
 41 42  1  0
 42 43  1  0
 43 44  1  0
 38  3  1  0
 44 39  1  0
 17 12  1  0
 36 23  1  0
 35 30  1  0
  1 45  1  0
  1 46  1  0
  1 47  1  0
  4 48  1  0
  5 49  1  0
 10 50  1  6
 11 51  1  0
 11 52  1  0
 13 53  1  0
 14 54  1  0
 15 55  1  0
 16 56  1  0
 17 57  1  0
 18 58  1  6
 19 59  1  0
 20 60  1  0
 20 61  1  0
 21 62  1  0
 22 63  1  0
 22 64  1  0
 24 65  1  0
 25 66  1  0
 26 67  1  0
 31 68  1  0
 31 69  1  0
 32 70  1  0
 32 71  1  0
 34 72  1  0
 34 73  1  0
 35 74  1  0
 35 75  1  0
 36 76  1  0
 37 77  1  0
 40 78  1  0
 40 79  1  0
 41 80  1  0
 41 81  1  0
 42 82  1  0
 43 83  1  0
 43 84  1  0
 44 85  1  0
 44 86  1  0
M  CHG  1   9  -1
M  END
>  <UniqueID>  (32) 
31

>  <SMILES>  (32) 
CSc1ccc(C(=O)[N-][C@@H](Cc2ccccc2)[C@H](O)CNCc2cccc(C(=O)N3CCOCC3)c2)cc1N1CCNCC1

>  <Energy>  (32) 
101.2648806242002

>  <Genealogy>  (32) 
CSc1ccc(C(=O)[N-]C(Cc2ccccc2)C(O)CNCc2cccc(C(=O)N3CCOCC3)c2)cc1N1CCNCC1 (protonated)
CSc1ccc(C(=O)[N-][C@@H](Cc2ccccc2)[C@H](O)CNCc2cccc(C(=O)N3CCOCC3)c2)cc1N1CCNCC1 (chirality)
CSc1ccc(C(=O)[N-][C@@H](Cc2ccccc2)[C@H](O)CNCc2cccc(C(=O)N3CCOCC3)c2)cc1N1CCNCC1 (3D coordinates assigned)
CSc1ccc(C(=O)[N-][C@@H](Cc2ccccc2)[C@H](O)CNCc2cccc(C(=O)N3CCOCC3)c2)cc1N1CCNCC1 (nonaromatic ring conformer: 101.2648806242002 kcal/mol)

>  <smiles>  (32) 
CSc1ccc(C(=O)NC(Cc2ccccc2)C(O)CNCc2cccc(C(=O)N3CCOCC3)c2)cc1N1CCNCC1

>  <score_type>  (32) 
oracle

>  <origin>  (32) 
adg

>  <m_score__min__energy>  (32) 
-11.35

>  <m_primary>  (32) 
energy

$$$$
32:0
     RDKit          3D

 36 38  0  0  0  0  0  0  0  0999 V2000
   58.0025   29.4000   49.3041 H   0  0  0  0  0  0  0  0  0  0  0  0
   58.8260   30.0260   48.9300 C   0  0  0  0  0  0  0  0  0  0  0  0
   58.6930   31.3640   48.7210 N   0  0  0  0  0  0  0  0  0  0  0  0
   59.8340   31.9200   48.2590 C   0  0  0  0  0  0  0  0  0  0  0  0
   59.9200   33.1900   47.9930 N   0  0  0  0  0  0  0  0  0  0  0  0
   59.2860   33.9080   46.9210 C   0  0  0  0  0  0  0  0  0  0  0  0
   59.2170   35.1660   46.9280 O   0  0  0  0  0  0  0  0  0  0  0  0
   58.7080   33.1630   45.7960 C   0  0  0  0  0  0  0  0  0  0  0  0
   58.8330   33.5920   44.1730 S   0  0  0  0  0  0  0  0  0  0  0  0
   57.9480   32.2990   43.5650 C   0  0  0  0  0  0  0  0  0  0  0  0
   57.7265   32.1088   42.5044 H   0  0  0  0  0  0  0  0  0  0  0  0
   57.5450   31.5120   44.6380 C   0  0  0  0  0  0  0  0  0  0  0  0
   56.5840   30.0540   44.4590 S   0  0  0  0  0  0  0  0  0  0  0  0
   56.8460   29.1240   45.6110 O   0  0  0  0  0  0  0  0  0  0  0  0
   55.1260   30.4150   44.4430 O   0  0  0  0  0  0  0  0  0  0  0  0
   57.0100   29.2610   42.9830 N   0  0  0  0  0  0  0  0  0  0  0  0
   58.0530   29.2350   42.9380 H   0  0  0  0  0  0  0  0  0  0  0  0
   56.6860   28.2720   43.0640 H   0  0  0  0  0  0  0  0  0  0  0  0
   57.9660   31.9900   45.8850 C   0  0  0  0  0  0  0  0  0  0  0  0
   57.7339   31.4895   46.8366 H   0  0  0  0  0  0  0  0  0  0  0  0
   61.0620   30.7700   48.0900 S   0  0  0  0  0  0  0  0  0  0  0  0
   60.0840   29.5110   48.6340 C   0  0  0  0  0  0  0  0  0  0  0  0
   60.4980   28.1080   48.7640 C   0  0  0  0  0  0  0  0  0  0  0  0
   60.5990   27.5900   49.9080 O   0  0  0  0  0  0  0  0  0  0  0  0
   60.7520   27.3270   47.5920 N   0  0  0  0  0  0  0  0  0  0  0  0
   59.7510   26.9480   46.6390 C   0  0  0  0  0  0  0  0  0  0  0  0
   58.8210   25.9630   46.9990 C   0  0  0  0  0  0  0  0  0  0  0  0
   58.8721   25.5019   47.9964 H   0  0  0  0  0  0  0  0  0  0  0  0
   57.8300   25.5630   46.1000 C   0  0  0  0  0  0  0  0  0  0  0  0
   57.1133   24.7789   46.3854 H   0  0  0  0  0  0  0  0  0  0  0  0
   57.7480   26.1570   44.8400 C   0  0  0  0  0  0  0  0  0  0  0  0
   56.9737   25.8332   44.1290 H   0  0  0  0  0  0  0  0  0  0  0  0
   58.6490   27.1630   44.4810 C   0  0  0  0  0  0  0  0  0  0  0  0
   58.5748   27.6366   43.4910 H   0  0  0  0  0  0  0  0  0  0  0  0
   59.6460   27.5710   45.3760 C   0  0  0  0  0  0  0  0  0  0  0  0
   60.6770   28.9230   44.9190 Cl  0  0  0  0  0  0  0  0  0  0  0  0
  1  2  1  0
  2  3  1  0
  3  4  1  0
  4  5  2  0
  5  6  1  0
  6  7  2  0
  6  8  1  0
  8  9  1  0
  9 10  1  0
 10 11  1  0
 10 12  2  0
 12 13  1  0
 13 14  2  0
 13 15  2  0
 13 16  1  0
 16 17  1  0
 16 18  1  0
 12 19  1  0
 19 20  1  0
  4 21  1  0
 21 22  1  0
 22 23  1  0
 23 24  2  0
 23 25  1  0
 25 26  1  0
 26 27  2  0
 27 28  1  0
 27 29  1  0
 29 30  1  0
 29 31  2  0
 31 32  1  0
 31 33  1  0
 33 34  1  0
 33 35  2  0
 35 36  1  0
 22  2  2  0
 35 26  1  0
 19  8  2  0
M  CHG  2   3  -1  25  -1
M  END
>  <UniqueID>  (33) 
32

>  <SMILES>  (33) 
NS(=O)(=O)c1csc(C(=O)/N=c2/[n-]cc(C(=O)[N-]c3ccccc3Cl)s2)c1

>  <Energy>  (33) 
101.9284771818588

>  <Genealogy>  (33) 
NS(=O)(=O)c1csc(C(=O)N=c2[n-]cc(C(=O)[N-]c3ccccc3Cl)s2)c1 (protonated)
NS(=O)(=O)c1csc(C(=O)/N=c2/[n-]cc(C(=O)[N-]c3ccccc3Cl)s2)c1 (cis-trans isomerization)
NS(=O)(=O)c1csc(C(=O)/N=c2/[n-]cc(C(=O)[N-]c3ccccc3Cl)s2)c1 (3D coordinates assigned)
NS(=O)(=O)c1csc(C(=O)/N=c2/[n-]cc(C(=O)[N-]c3ccccc3Cl)s2)c1 (optimized conformer: 101.9284771818588 kcal/mol)

>  <smiles>  (33) 
NS(=O)(=O)c1csc(C(=O)N=c2[nH]cc(C(=O)Nc3ccccc3Cl)s2)c1

>  <score_type>  (33) 
oracle

>  <origin>  (33) 
adg

>  <m_score__min__energy>  (33) 
-11.609999999999999

>  <m_primary>  (33) 
energy

$$$$
33:0
     RDKit          3D

 46 48  0  0  0  0  0  0  0  0999 V2000
   57.6070   31.9560   41.8430 C   0  0  0  0  0  0  0  0  0  0  0  0
   57.1370   31.2270   43.0550 C   0  0  0  0  0  0  0  0  0  0  0  0
   56.6130   29.9520   43.0870 C   0  0  0  0  0  0  0  0  0  0  0  0
   56.3160   29.7750   44.4190 C   0  0  0  0  0  0  0  0  0  0  0  0
   55.8140   28.6830   44.9190 N   0  0  0  0  0  0  0  0  0  0  0  0
   56.5030   27.6420   45.6320 C   0  0  0  0  0  0  0  0  0  0  0  0
   55.8330   26.6530   46.0350 O   0  0  0  0  0  0  0  0  0  0  0  0
   57.9860   27.6870   45.9020 C   0  0  0  0  0  0  0  0  0  0  0  0
   58.4830   29.0640   45.9110 N   0  0  0  0  0  0  0  0  0  0  0  0
   59.1660   29.6210   47.0450 C   0  0  0  0  0  0  0  0  0  0  0  0
   59.4570   28.8790   48.0230 O   0  0  0  0  0  0  0  0  0  0  0  0
   59.5580   31.0510   47.0790 C   0  0  0  0  0  0  0  0  0  0  0  0
   58.5890   32.0690   47.1540 C   0  0  0  0  0  0  0  0  0  0  0  0
   58.9760   33.4110   47.1950 C   0  0  0  0  0  0  0  0  0  0  0  0
   60.3280   33.7530   47.1720 C   0  0  0  0  0  0  0  0  0  0  0  0
   61.3070   32.7530   47.1170 C   0  0  0  0  0  0  0  0  0  0  0  0
   63.0190   33.1840   47.1180 S   0  0  0  0  0  0  0  0  0  0  0  0
   63.2730   34.2000   46.0380 O   0  0  0  0  0  0  0  0  0  0  0  0
   63.8350   31.9620   46.8020 O   0  0  0  0  0  0  0  0  0  0  0  0
   63.5310   33.8420   48.6580 N   0  0  0  0  0  0  0  0  0  0  0  0
   64.5690   33.0070   49.2730 C   0  0  0  0  0  0  0  0  0  0  0  0
   63.9120   32.1020   50.3050 C   0  0  0  0  0  0  0  0  0  0  0  0
   62.5170   32.6570   50.5110 C   0  0  0  0  0  0  0  0  0  0  0  0
   62.4190   33.8810   49.6130 C   0  0  0  0  0  0  0  0  0  0  0  0
   60.9190   31.4060   47.0660 C   0  0  0  0  0  0  0  0  0  0  0  0
   56.6490   30.8730   45.1270 N   0  0  0  0  0  0  0  0  0  0  0  0
   57.1330   31.7250   44.2710 O   0  0  0  0  0  0  0  0  0  0  0  0
   58.1796   32.8442   42.1484 H   0  0  0  0  0  0  0  0  0  0  0  0
   58.2490   31.2943   41.2430 H   0  0  0  0  0  0  0  0  0  0  0  0
   56.7393   32.2676   41.2430 H   0  0  0  0  0  0  0  0  0  0  0  0
   56.4681   29.2494   42.2532 H   0  0  0  0  0  0  0  0  0  0  0  0
   58.1862   27.2273   46.8811 H   0  0  0  0  0  0  0  0  0  0  0  0
   58.5018   27.1367   45.1013 H   0  0  0  0  0  0  0  0  0  0  0  0
   58.3700   29.6260   45.0390 H   0  0  0  0  0  0  0  0  0  0  0  0
   57.5211   31.8067   47.1805 H   0  0  0  0  0  0  0  0  0  0  0  0
   58.2117   34.2005   47.2456 H   0  0  0  0  0  0  0  0  0  0  0  0
   60.6263   34.8115   47.1971 H   0  0  0  0  0  0  0  0  0  0  0  0
   65.0587   32.3952   48.5011 H   0  0  0  0  0  0  0  0  0  0  0  0
   65.3263   33.6419   49.7561 H   0  0  0  0  0  0  0  0  0  0  0  0
   63.8620   31.0684   49.9319 H   0  0  0  0  0  0  0  0  0  0  0  0
   64.4820   32.0792   51.2455 H   0  0  0  0  0  0  0  0  0  0  0  0
   61.7618   31.9104   50.2241 H   0  0  0  0  0  0  0  0  0  0  0  0
   62.3359   32.9137   51.5652 H   0  0  0  0  0  0  0  0  0  0  0  0
   61.4622   33.8685   49.0704 H   0  0  0  0  0  0  0  0  0  0  0  0
   62.4702   34.7990   50.2169 H   0  0  0  0  0  0  0  0  0  0  0  0
   61.6865   30.6197   47.0154 H   0  0  0  0  0  0  0  0  0  0  0  0
  1  2  1  0
  2  3  2  0
  3  4  1  0
  4  5  2  3
  5  6  1  0
  6  7  2  0
  6  8  1  0
  8  9  1  0
  9 10  1  0
 10 11  2  0
 10 12  1  0
 12 13  2  0
 13 14  1  0
 14 15  2  0
 15 16  1  0
 16 17  1  0
 17 18  2  0
 17 19  2  0
 17 20  1  0
 20 21  1  0
 21 22  1  0
 22 23  1  0
 23 24  1  0
 16 25  2  0
  4 26  1  0
 26 27  1  0
 27  2  1  0
 25 12  1  0
 24 20  1  0
  1 28  1  0
  1 29  1  0
  1 30  1  0
  3 31  1  0
  8 32  1  0
  8 33  1  0
  9 34  1  0
 13 35  1  0
 14 36  1  0
 15 37  1  0
 21 38  1  0
 21 39  1  0
 22 40  1  0
 22 41  1  0
 23 42  1  0
 23 43  1  0
 24 44  1  0
 24 45  1  0
 25 46  1  0
M  CHG  1  26  -1
M  END
>  <UniqueID>  (34) 
33

>  <SMILES>  (34) 
Cc1cc(=NC(=O)CNC(=O)c2cccc(S(=O)(=O)N3CCCC3)c2)[n-]o1

>  <Energy>  (34) 
80.88578003353344

>  <Genealogy>  (34) 
Cc1cc(=NC(=O)CNC(=O)c2cccc(S(=O)(=O)N3CCCC3)c2)[n-]o1 (protonated)
Cc1cc(=NC(=O)CNC(=O)c2cccc(S(=O)(=O)N3CCCC3)c2)[n-]o1 (3D coordinates assigned)
Cc1cc(=NC(=O)CNC(=O)c2cccc(S(=O)(=O)N3CCCC3)c2)[n-]o1 (nonaromatic ring conformer: 80.88578003353344 kcal/mol)

>  <smiles>  (34) 
Cc1cc(=NC(=O)CNC(=O)c2cccc(S(=O)(=O)N3CCCC3)c2)[nH]o1

>  <score_type>  (34) 
oracle

>  <origin>  (34) 
adg

>  <m_score__min__energy>  (34) 
-12.43

>  <m_primary>  (34) 
energy

$$$$
34:0
     RDKit          3D

 60 63  0  0  0  0  0  0  0  0999 V2000
   54.7430   26.1590   45.9250 N   0  0  0  0  0  0  0  0  0  0  0  0
   56.3720   25.5960   45.7920 S   0  0  0  0  0  0  0  0  0  0  0  0
   57.2260   26.7030   45.2370 O   0  0  0  0  0  0  0  0  0  0  0  0
   56.8940   25.2220   47.1500 O   0  0  0  0  0  0  0  0  0  0  0  0
   56.4270   24.1880   44.7240 C   0  0  0  0  0  0  0  0  0  0  0  0
   55.5090   24.0810   43.6680 C   0  0  0  0  0  0  0  0  0  0  0  0
   55.5260   22.9660   42.8260 C   0  0  0  0  0  0  0  0  0  0  0  0
   56.4610   21.9500   43.0290 C   0  0  0  0  0  0  0  0  0  0  0  0
   57.3790   22.0430   44.0760 C   0  0  0  0  0  0  0  0  0  0  0  0
   57.3570   23.1500   44.9450 C   0  0  0  0  0  0  0  0  0  0  0  0
   58.3150   23.2620   46.0090 N   0  0  0  0  0  0  0  0  0  0  0  0
   59.5610   23.9620   45.9330 C   0  0  0  0  0  0  0  0  0  0  0  0
   60.6020   23.3260   45.6180 O   0  0  0  0  0  0  0  0  0  0  0  0
   59.6230   25.3810   46.1500 N   0  0  0  0  0  0  0  0  0  0  0  0
   60.8870   26.1000   46.2610 C   0  0  0  0  0  0  0  0  0  0  0  0
   60.6580   27.4300   46.8300 C   0  0  0  0  0  0  0  0  0  0  0  0
   60.4700   28.5290   47.2890 C   0  0  0  0  0  0  0  0  0  0  0  0
   60.2390   29.8410   47.8310 C   0  0  0  0  0  0  0  0  0  0  0  0
   60.1950   30.0250   49.2180 C   0  0  0  0  0  0  0  0  0  0  0  0
   59.9520   31.2930   49.7510 C   0  0  0  0  0  0  0  0  0  0  0  0
   59.7480   32.3860   48.9010 C   0  0  0  0  0  0  0  0  0  0  0  0
   59.4960   33.6130   49.4270 N   0  0  0  0  0  0  0  0  0  0  0  0
   59.2840   34.6980   48.6390 C   0  0  0  0  0  0  0  0  0  0  0  0
   59.3240   34.5770   47.2500 C   0  0  0  0  0  0  0  0  0  0  0  0
   59.5780   33.3250   46.6620 C   0  0  0  0  0  0  0  0  0  0  0  0
   59.6300   33.1510   45.2670 O   0  0  0  0  0  0  0  0  0  0  0  0
   58.5060   33.1130   44.3870 C   0  0  0  0  0  0  0  0  0  0  0  0
   58.1490   31.6630   44.0080 C   0  0  0  0  0  0  0  0  0  0  0  0
   57.3050   31.6100   42.7130 C   0  0  0  0  0  0  0  0  0  0  0  0
   56.4430   30.3350   42.6210 C   0  0  0  0  0  0  0  0  0  0  0  0
   57.0390   29.2190   43.3660 N   0  0  0  0  0  0  0  0  0  0  0  0
   57.0930   29.4920   44.8160 C   0  0  0  0  0  0  0  0  0  0  0  0
   57.4090   30.9660   45.1590 C   0  0  0  0  0  0  0  0  0  0  0  0
   59.7960   32.2130   47.4980 C   0  0  0  0  0  0  0  0  0  0  0  0
   60.0430   30.9310   46.9730 C   0  0  0  0  0  0  0  0  0  0  0  0
   54.7800   27.0930   46.3970 H   0  0  0  0  0  0  0  0  0  0  0  0
   54.7714   24.8800   43.5020 H   0  0  0  0  0  0  0  0  0  0  0  0
   54.8014   22.8889   42.0020 H   0  0  0  0  0  0  0  0  0  0  0  0
   56.4744   21.0747   42.3629 H   0  0  0  0  0  0  0  0  0  0  0  0
   58.1238   21.2469   44.2229 H   0  0  0  0  0  0  0  0  0  0  0  0
   58.7360   25.9320   46.1790 H   0  0  0  0  0  0  0  0  0  0  0  0
   61.5703   25.5371   46.9139 H   0  0  0  0  0  0  0  0  0  0  0  0
   61.3310   26.2068   45.2603 H   0  0  0  0  0  0  0  0  0  0  0  0
   60.3523   29.1685   49.8901 H   0  0  0  0  0  0  0  0  0  0  0  0
   59.9209   31.4329   50.8416 H   0  0  0  0  0  0  0  0  0  0  0  0
   59.0798   35.6767   49.0979 H   0  0  0  0  0  0  0  0  0  0  0  0
   59.1571   35.4598   46.6153 H   0  0  0  0  0  0  0  0  0  0  0  0
   57.6427   33.5771   44.8863 H   0  0  0  0  0  0  0  0  0  0  0  0
   58.7617   33.6620   43.4687 H   0  0  0  0  0  0  0  0  0  0  0  0
   59.0910   31.1268   43.8207 H   0  0  0  0  0  0  0  0  0  0  0  0
   56.6413   32.4869   42.6885 H   0  0  0  0  0  0  0  0  0  0  0  0
   58.0007   31.6049   41.8610 H   0  0  0  0  0  0  0  0  0  0  0  0
   55.4467   30.5481   43.0356 H   0  0  0  0  0  0  0  0  0  0  0  0
   56.3766   30.0428   41.5626 H   0  0  0  0  0  0  0  0  0  0  0  0
   58.0110   29.0550   43.0100 H   0  0  0  0  0  0  0  0  0  0  0  0
   56.1175   29.2347   45.2545 H   0  0  0  0  0  0  0  0  0  0  0  0
   57.9115   28.8833   45.2277 H   0  0  0  0  0  0  0  0  0  0  0  0
   56.4661   31.4984   45.3527 H   0  0  0  0  0  0  0  0  0  0  0  0
   58.0568   30.9833   46.0478 H   0  0  0  0  0  0  0  0  0  0  0  0
   60.0824   30.7840   45.8836 H   0  0  0  0  0  0  0  0  0  0  0  0
  1  2  1  0
  2  3  2  0
  2  4  2  0
  2  5  1  0
  5  6  2  0
  6  7  1  0
  7  8  2  0
  8  9  1  0
  9 10  2  0
 10 11  1  0
 11 12  1  0
 12 13  2  0
 12 14  1  0
 14 15  1  0
 15 16  1  0
 16 17  3  0
 17 18  1  0
 18 19  2  0
 19 20  1  0
 20 21  2  0
 21 22  1  0
 22 23  2  0
 23 24  1  0
 24 25  2  0
 25 26  1  0
 26 27  1  0
 27 28  1  0
 28 29  1  0
 29 30  1  0
 30 31  1  0
 31 32  1  0
 32 33  1  0
 25 34  1  0
 34 35  2  0
 10  5  1  0
 35 18  1  0
 34 21  1  0
 33 28  1  0
  1 36  1  0
  6 37  1  0
  7 38  1  0
  8 39  1  0
  9 40  1  0
 14 41  1  0
 15 42  1  0
 15 43  1  0
 19 44  1  0
 20 45  1  0
 23 46  1  0
 24 47  1  0
 27 48  1  0
 27 49  1  0
 28 50  1  0
 29 51  1  0
 29 52  1  0
 30 53  1  0
 30 54  1  0
 31 55  1  0
 32 56  1  0
 32 57  1  0
 33 58  1  0
 33 59  1  0
 35 60  1  0
M  CHG  2   1  -1  11  -1
M  END
>  <UniqueID>  (35) 
34

>  <SMILES>  (35) 
[NH-]S(=O)(=O)c1ccccc1[N-]C(=O)NCC#Cc1ccc2nccc(OCC3CCNCC3)c2c1

>  <Energy>  (35) 
67.77489835723964

>  <Genealogy>  (35) 
[NH-]S(=O)(=O)c1ccccc1[N-]C(=O)NCC#Cc1ccc2nccc(OCC3CCNCC3)c2c1 (protonated)
[NH-]S(=O)(=O)c1ccccc1[N-]C(=O)NCC#Cc1ccc2nccc(OCC3CCNCC3)c2c1 (3D coordinates assigned)
[NH-]S(=O)(=O)c1ccccc1[N-]C(=O)NCC#Cc1ccc2nccc(OCC3CCNCC3)c2c1 (nonaromatic ring conformer: 67.77489835723964 kcal/mol)

>  <smiles>  (35) 
NS(=O)(=O)c1ccccc1NC(=O)NCC#Cc1ccc2nccc(OCC3CCNCC3)c2c1

>  <score_type>  (35) 
oracle

>  <origin>  (35) 
adg

>  <m_score__min__energy>  (35) 
-13.74

>  <m_primary>  (35) 
energy

$$$$
35:0
     RDKit          3D

 44 46  0  0  0  0  0  0  0  0999 V2000
   58.1340   32.7150   43.1860 C   0  0  0  0  0  0  0  0  0  0  0  0
   58.5050   33.0240   44.5880 C   0  0  0  0  0  0  0  0  0  0  0  0
   59.2050   34.1560   44.9500 C   0  0  0  0  0  0  0  0  0  0  0  0
   59.5470   34.4380   46.2580 C   0  0  0  0  0  0  0  0  0  0  0  0
   59.2020   33.5900   47.2750 C   0  0  0  0  0  0  0  0  0  0  0  0
   59.5210   33.7670   48.7010 C   0  0  0  0  0  0  0  0  0  0  0  0
   59.1350   32.6090   49.5280 C   0  0  0  0  0  0  0  0  0  0  0  0
   57.8600   32.6440   50.0230 N   0  0  0  0  0  0  0  0  0  0  0  0
   57.3850   31.6860   50.7600 N   0  0  0  0  0  0  0  0  0  0  0  0
   58.1180   30.6240   51.0700 C   0  0  0  0  0  0  0  0  0  0  0  0
   57.6140   29.7080   51.7960 O   0  0  0  0  0  0  0  0  0  0  0  0
   59.4160   30.5310   50.5970 C   0  0  0  0  0  0  0  0  0  0  0  0
   60.3890   28.9740   51.0920 Br  0  0  0  0  0  0  0  0  0  0  0  0
   59.9780   31.5370   49.7980 C   0  0  0  0  0  0  0  0  0  0  0  0
   61.2890   31.4280   49.3330 N   0  0  0  0  0  0  0  0  0  0  0  0
   61.5190   30.7560   48.0650 C   0  0  0  0  0  0  0  0  0  0  0  0
   62.1640   31.7240   47.1250 C   0  0  0  0  0  0  0  0  0  0  0  0
   62.9500   32.7090   47.6900 N   0  0  0  0  0  0  0  0  0  0  0  0
   63.4580   33.7220   46.8170 C   0  0  0  0  0  0  0  0  0  0  0  0
   63.0960   32.9280   49.0540 C   0  0  0  0  0  0  0  0  0  0  0  0
   62.4720   31.9440   49.9980 C   0  0  0  0  0  0  0  0  0  0  0  0
   58.4920   32.4370   46.9300 C   0  0  0  0  0  0  0  0  0  0  0  0
   58.1530   32.1630   45.6130 C   0  0  0  0  0  0  0  0  0  0  0  0
   57.4650   31.0350   45.3160 F   0  0  0  0  0  0  0  0  0  0  0  0
   57.2888   32.0110   43.1770 H   0  0  0  0  0  0  0  0  0  0  0  0
   57.8442   33.6425   42.6705 H   0  0  0  0  0  0  0  0  0  0  0  0
   58.9938   32.2622   42.6705 H   0  0  0  0  0  0  0  0  0  0  0  0
   59.5036   34.8644   44.1633 H   0  0  0  0  0  0  0  0  0  0  0  0
   60.1051   35.3581   46.4857 H   0  0  0  0  0  0  0  0  0  0  0  0
   60.6054   33.9223   48.8005 H   0  0  0  0  0  0  0  0  0  0  0  0
   58.9462   34.6331   49.0607 H   0  0  0  0  0  0  0  0  0  0  0  0
   56.4070   31.7430   51.1230 H   0  0  0  0  0  0  0  0  0  0  0  0
   62.1807   29.8907   48.2183 H   0  0  0  0  0  0  0  0  0  0  0  0
   60.5646   30.4035   47.6467 H   0  0  0  0  0  0  0  0  0  0  0  0
   62.7977   31.1468   46.4356 H   0  0  0  0  0  0  0  0  0  0  0  0
   61.3311   32.2592   46.6456 H   0  0  0  0  0  0  0  0  0  0  0  0
   63.8719   34.5474   47.4148 H   0  0  0  0  0  0  0  0  0  0  0  0
   64.2492   33.2962   46.1824 H   0  0  0  0  0  0  0  0  0  0  0  0
   62.6435   34.1014   46.1824 H   0  0  0  0  0  0  0  0  0  0  0  0
   64.1748   32.9471   49.2681 H   0  0  0  0  0  0  0  0  0  0  0  0
   62.5542   33.8671   49.2400 H   0  0  0  0  0  0  0  0  0  0  0  0
   63.1747   31.1254   50.2129 H   0  0  0  0  0  0  0  0  0  0  0  0
   62.2143   32.4199   50.9556 H   0  0  0  0  0  0  0  0  0  0  0  0
   58.1954   31.7312   47.7199 H   0  0  0  0  0  0  0  0  0  0  0  0
  1  2  1  0
  2  3  2  0
  3  4  1  0
  4  5  2  0
  5  6  1  0
  6  7  1  0
  7  8  2  0
  8  9  1  0
  9 10  1  0
 10 11  2  0
 10 12  1  0
 12 13  1  0
 12 14  2  0
 14 15  1  0
 15 16  1  0
 16 17  1  0
 17 18  1  0
 18 19  1  0
 18 20  1  0
 20 21  1  0
  5 22  1  0
 22 23  2  0
 23 24  1  0
 23  2  1  0
 14  7  1  0
 21 15  1  0
  1 25  1  0
  1 26  1  0
  1 27  1  0
  3 28  1  0
  4 29  1  0
  6 30  1  0
  6 31  1  0
  9 32  1  0
 16 33  1  0
 16 34  1  0
 17 35  1  0
 17 36  1  0
 19 37  1  0
 19 38  1  0
 19 39  1  0
 20 40  1  0
 20 41  1  0
 21 42  1  0
 21 43  1  0
 22 44  1  0
M  END
>  <smiles>  (36) 
Cc1ccc(Cc2n[nH]c(=O)c(Br)c2N2CCN(C)CC2)cc1F

>  <score_type>  (36) 
oracle

>  <origin>  (36) 
adg

>  <m_score__min__energy>  (36) 
-7.1200000000000001

>  <m_primary>  (36) 
energy

$$$$
36:0
     RDKit          3D

 53 55  0  0  0  0  0  0  0  0999 V2000
   59.3930   34.6640   47.4640 C   0  0  0  0  0  0  0  0  0  0  0  0
   60.3130   33.5650   47.1490 N   0  0  0  0  0  0  0  0  0  0  0  0
   61.7210   33.8520   46.8550 C   0  0  0  0  0  0  0  0  0  0  0  0
   59.8040   32.2120   47.1260 C   0  0  0  0  0  0  0  0  0  0  0  0
   58.6090   31.9880   47.4630 O   0  0  0  0  0  0  0  0  0  0  0  0
   60.6520   31.0440   46.6930 C   0  0  0  0  0  0  0  0  0  0  0  0
   60.3720   29.8480   47.4970 N   0  0  0  0  0  0  0  0  0  0  0  0
   59.7130   28.7160   46.9000 C   0  0  0  0  0  0  0  0  0  0  0  0
   60.4180   27.5240   46.6830 C   0  0  0  0  0  0  0  0  0  0  0  0
   59.7880   26.4330   46.0810 C   0  0  0  0  0  0  0  0  0  0  0  0
   58.4440   26.5140   45.7140 C   0  0  0  0  0  0  0  0  0  0  0  0
   57.7070   27.6840   45.9660 C   0  0  0  0  0  0  0  0  0  0  0  0
   56.2680   27.7660   45.6200 C   0  0  0  0  0  0  0  0  0  0  0  0
   55.5250   26.7660   45.8210 O   0  0  0  0  0  0  0  0  0  0  0  0
   55.6760   28.9610   45.0930 N   0  0  0  0  0  0  0  0  0  0  0  0
   56.3480   29.9840   44.3430 C   0  0  0  0  0  0  0  0  0  0  0  0
   56.2900   29.9470   42.9430 C   0  0  0  0  0  0  0  0  0  0  0  0
   56.9310   30.9290   42.1820 C   0  0  0  0  0  0  0  0  0  0  0  0
   57.6470   31.9470   42.8150 C   0  0  0  0  0  0  0  0  0  0  0  0
   57.7350   31.9770   44.2110 C   0  0  0  0  0  0  0  0  0  0  0  0
   58.4420   32.9600   44.8210 F   0  0  0  0  0  0  0  0  0  0  0  0
   57.0960   30.9940   44.9750 C   0  0  0  0  0  0  0  0  0  0  0  0
   58.3580   28.7900   46.5400 C   0  0  0  0  0  0  0  0  0  0  0  0
   60.4800   29.9260   49.2340 S   0  0  0  0  0  0  0  0  0  0  0  0
   59.1040   29.9970   49.8380 O   0  0  0  0  0  0  0  0  0  0  0  0
   61.1440   28.6770   49.7440 O   0  0  0  0  0  0  0  0  0  0  0  0
   61.4010   31.3420   49.7300 C   0  0  0  0  0  0  0  0  0  0  0  0
   60.8070   32.3340   50.5280 C   0  0  0  0  0  0  0  0  0  0  0  0
   61.5490   33.4460   50.9350 C   0  0  0  0  0  0  0  0  0  0  0  0
   62.8870   33.5750   50.5490 C   0  0  0  0  0  0  0  0  0  0  0  0
   63.4820   32.5940   49.7510 C   0  0  0  0  0  0  0  0  0  0  0  0
   62.7410   31.4820   49.3390 C   0  0  0  0  0  0  0  0  0  0  0  0
   59.3060   34.7679   48.5556 H   0  0  0  0  0  0  0  0  0  0  0  0
   59.7804   35.6005   47.0363 H   0  0  0  0  0  0  0  0  0  0  0  0
   58.4030   34.4474   47.0363 H   0  0  0  0  0  0  0  0  0  0  0  0
   62.2767   33.9653   47.7975 H   0  0  0  0  0  0  0  0  0  0  0  0
   62.1505   33.0229   46.2735 H   0  0  0  0  0  0  0  0  0  0  0  0
   61.7918   34.7830   46.2735 H   0  0  0  0  0  0  0  0  0  0  0  0
   60.4414   30.8217   45.6365 H   0  0  0  0  0  0  0  0  0  0  0  0
   61.7090   31.3143   46.8334 H   0  0  0  0  0  0  0  0  0  0  0  0
   61.4720   27.4478   46.9883 H   0  0  0  0  0  0  0  0  0  0  0  0
   60.3525   25.5073   45.8955 H   0  0  0  0  0  0  0  0  0  0  0  0
   57.9584   25.6569   45.2245 H   0  0  0  0  0  0  0  0  0  0  0  0
   55.7367   29.1403   42.4400 H   0  0  0  0  0  0  0  0  0  0  0  0
   56.8713   30.8997   41.0840 H   0  0  0  0  0  0  0  0  0  0  0  0
   58.1420   32.7256   42.2160 H   0  0  0  0  0  0  0  0  0  0  0  0
   57.1787   31.0111   46.0717 H   0  0  0  0  0  0  0  0  0  0  0  0
   57.8000   29.7228   46.7088 H   0  0  0  0  0  0  0  0  0  0  0  0
   59.7549   32.2351   50.8333 H   0  0  0  0  0  0  0  0  0  0  0  0
   61.0802   34.2207   51.5596 H   0  0  0  0  0  0  0  0  0  0  0  0
   63.4712   34.4487   50.8735 H   0  0  0  0  0  0  0  0  0  0  0  0
   64.5341   32.6967   49.4468 H   0  0  0  0  0  0  0  0  0  0  0  0
   63.2104   30.7144   48.7062 H   0  0  0  0  0  0  0  0  0  0  0  0
  1  2  1  0
  2  3  1  0
  2  4  1  0
  4  5  2  0
  4  6  1  0
  6  7  1  0
  7  8  1  0
  8  9  2  0
  9 10  1  0
 10 11  2  0
 11 12  1  0
 12 13  1  0
 13 14  2  0
 13 15  1  0
 15 16  1  0
 16 17  2  0
 17 18  1  0
 18 19  2  0
 19 20  1  0
 20 21  1  0
 20 22  2  0
 12 23  2  0
  7 24  1  0
 24 25  2  0
 24 26  2  0
 24 27  1  0
 27 28  2  0
 28 29  1  0
 29 30  2  0
 30 31  1  0
 31 32  2  0
 23  8  1  0
 32 27  1  0
 22 16  1  0
  1 33  1  0
  1 34  1  0
  1 35  1  0
  3 36  1  0
  3 37  1  0
  3 38  1  0
  6 39  1  0
  6 40  1  0
  9 41  1  0
 10 42  1  0
 11 43  1  0
 17 44  1  0
 18 45  1  0
 19 46  1  0
 22 47  1  0
 23 48  1  0
 28 49  1  0
 29 50  1  0
 30 51  1  0
 31 52  1  0
 32 53  1  0
M  CHG  1  15  -1
M  END
>  <UniqueID>  (37) 
35

>  <SMILES>  (37) 
CN(C)C(=O)CN(c1cccc(C(=O)[N-]c2cccc(F)c2)c1)S(=O)(=O)c1ccccc1

>  <Energy>  (37) 
62.92661941725417

>  <Genealogy>  (37) 
CN(C)C(=O)CN(c1cccc(C(=O)[N-]c2cccc(F)c2)c1)S(=O)(=O)c1ccccc1 (protonated)
CN(C)C(=O)CN(c1cccc(C(=O)[N-]c2cccc(F)c2)c1)S(=O)(=O)c1ccccc1 (3D coordinates assigned)
CN(C)C(=O)CN(c1cccc(C(=O)[N-]c2cccc(F)c2)c1)S(=O)(=O)c1ccccc1 (optimized conformer: 62.92661941725417 kcal/mol)

>  <smiles>  (37) 
CN(C)C(=O)CN(c1cccc(C(=O)Nc2cccc(F)c2)c1)S(=O)(=O)c1ccccc1

>  <score_type>  (37) 
oracle

>  <origin>  (37) 
adg

>  <m_score__min__energy>  (37) 
-11.140000000000001

>  <m_primary>  (37) 
energy

$$$$
37:0
     RDKit          3D

 45 47  0  0  0  0  0  0  0  0999 V2000
   63.2920   31.9410   47.2510 C   0  0  0  0  0  0  0  0  0  0  0  0
   62.3370   32.8580   47.3660 C   0  0  0  0  0  0  0  0  0  0  0  0
   61.4160   33.1730   46.3810 O   0  0  0  0  0  0  0  0  0  0  0  0
   60.5910   34.1830   46.8850 C   0  0  0  0  0  0  0  0  0  0  0  0
   59.4760   34.7580   46.1180 C   0  0  0  0  0  0  0  0  0  0  0  0
   59.6670   35.8160   45.4610 O   0  0  0  0  0  0  0  0  0  0  0  0
   58.1750   34.1450   46.1160 N   0  0  0  0  0  0  0  0  0  0  0  0
   57.5040   33.8850   44.8370 C   0  0  0  0  0  0  0  0  0  0  0  0
   57.8160   32.4880   44.2990 C   0  0  0  0  0  0  0  0  0  0  0  0
   57.4690   31.4640   45.2290 O   0  0  0  0  0  0  0  0  0  0  0  0
   58.2400   31.1880   46.3610 C   0  0  0  0  0  0  0  0  0  0  0  0
   58.9430   29.9800   46.4170 C   0  0  0  0  0  0  0  0  0  0  0  0
   59.6920   29.6490   47.5480 C   0  0  0  0  0  0  0  0  0  0  0  0
   59.7510   30.5280   48.6390 C   0  0  0  0  0  0  0  0  0  0  0  0
   60.5750   30.1710   49.8550 C   0  0  0  0  0  0  0  0  0  0  0  0
   61.1050   31.3750   50.5390 N   0  0  0  0  0  0  0  0  0  0  0  0
   60.2150   31.8080   51.6330 C   0  0  0  0  0  0  0  0  0  0  0  0
   62.4490   31.0970   51.0740 C   0  0  0  0  0  0  0  0  0  0  0  0
   59.0750   31.7560   48.5720 C   0  0  0  0  0  0  0  0  0  0  0  0
   58.3240   32.0980   47.4330 C   0  0  0  0  0  0  0  0  0  0  0  0
   57.7030   33.4630   47.3240 C   0  0  0  0  0  0  0  0  0  0  0  0
   60.9230   34.5260   48.1330 C   0  0  0  0  0  0  0  0  0  0  0  0
   62.0570   33.7010   48.5100 C   0  0  0  0  0  0  0  0  0  0  0  0
   62.6630   33.7130   49.6130 O   0  0  0  0  0  0  0  0  0  0  0  0
   63.9815   31.7570   48.0881 H   0  0  0  0  0  0  0  0  0  0  0  0
   63.3930   31.3660   46.3187 H   0  0  0  0  0  0  0  0  0  0  0  0
   56.4173   33.9752   44.9815 H   0  0  0  0  0  0  0  0  0  0  0  0
   57.8710   34.6201   44.1056 H   0  0  0  0  0  0  0  0  0  0  0  0
   57.2479   32.3308   43.3703 H   0  0  0  0  0  0  0  0  0  0  0  0
   58.8996   32.4289   44.1195 H   0  0  0  0  0  0  0  0  0  0  0  0
   58.9055   29.2861   45.5643 H   0  0  0  0  0  0  0  0  0  0  0  0
   60.2380   28.6948   47.5833 H   0  0  0  0  0  0  0  0  0  0  0  0
   59.9434   29.6109   50.5602 H   0  0  0  0  0  0  0  0  0  0  0  0
   61.4304   29.5658   49.5204 H   0  0  0  0  0  0  0  0  0  0  0  0
   61.1920   32.1590   49.8490 H   0  0  0  0  0  0  0  0  0  0  0  0
   60.6854   31.5792   52.6007 H   0  0  0  0  0  0  0  0  0  0  0  0
   60.0409   32.8915   51.5570 H   0  0  0  0  0  0  0  0  0  0  0  0
   59.2551   31.2762   51.5570 H   0  0  0  0  0  0  0  0  0  0  0  0
   62.4147   31.1041   52.1734 H   0  0  0  0  0  0  0  0  0  0  0  0
   62.7861   30.1101   50.7240 H   0  0  0  0  0  0  0  0  0  0  0  0
   63.1499   31.8692   50.7240 H   0  0  0  0  0  0  0  0  0  0  0  0
   59.1330   32.4571   49.4176 H   0  0  0  0  0  0  0  0  0  0  0  0
   56.6087   33.3605   47.2780 H   0  0  0  0  0  0  0  0  0  0  0  0
   57.9909   34.0568   48.2041 H   0  0  0  0  0  0  0  0  0  0  0  0
   60.4313   35.2878   48.7558 H   0  0  0  0  0  0  0  0  0  0  0  0
  1  2  2  0
  2  3  1  0
  3  4  1  0
  4  5  1  0
  5  6  2  0
  5  7  1  0
  7  8  1  0
  8  9  1  0
  9 10  1  0
 10 11  1  0
 11 12  2  0
 12 13  1  0
 13 14  2  0
 14 15  1  0
 15 16  1  0
 16 17  1  0
 16 18  1  0
 14 19  1  0
 19 20  2  0
 20 21  1  0
  4 22  2  0
 22 23  1  0
 23 24  2  0
 23  2  1  0
 21  7  1  0
 20 11  1  0
  1 25  1  0
  1 26  1  0
  8 27  1  0
  8 28  1  0
  9 29  1  0
  9 30  1  0
 12 31  1  0
 13 32  1  0
 15 33  1  0
 15 34  1  0
 16 35  1  0
 17 36  1  0
 17 37  1  0
 17 38  1  0
 18 39  1  0
 18 40  1  0
 18 41  1  0
 19 42  1  0
 21 43  1  0
 21 44  1  0
 22 45  1  0
M  CHG  1  16   1
M  END
>  <UniqueID>  (38) 
36

>  <SMILES>  (38) 
C=C1OC(C(=O)N2CCOc3ccc(C[NH+](C)C)cc3C2)=CC1=O

>  <Energy>  (38) 
83.00138704186335

>  <Genealogy>  (38) 
C=C1OC(C(=O)N2CCOc3ccc(C[NH+](C)C)cc3C2)=CC1=O (protonated)
C=C1OC(C(=O)N2CCOc3ccc(C[NH+](C)C)cc3C2)=CC1=O (3D coordinates assigned)
C=C1OC(C(=O)N2CCOc3ccc(C[NH+](C)C)cc3C2)=CC1=O (nonaromatic ring conformer: 83.00138704186335 kcal/mol)

>  <smiles>  (38) 
C=C1OC(C(=O)N2CCOc3ccc(CN(C)C)cc3C2)=CC1=O

>  <score_type>  (38) 
oracle

>  <origin>  (38) 
adg

>  <m_score__min__energy>  (38) 
-4.1299999999999999

>  <m_primary>  (38) 
energy

$$$$
38:0
     RDKit          3D

 50 53  0  0  0  0  0  0  0  0999 V2000
   58.1280   27.4760   43.3250 C   0  0  0  0  0  0  0  0  0  0  0  0
   58.2400   27.2420   44.6430 C   0  0  0  0  0  0  0  0  0  0  0  0
   57.7030   26.1610   45.3610 C   0  0  0  0  0  0  0  0  0  0  0  0
   57.1320   25.0160   44.9390 C   0  0  0  0  0  0  0  0  0  0  0  0
   55.7650   24.5740   45.2550 C   0  0  0  0  0  0  0  0  0  0  0  0
   55.3050   23.3360   45.0020 N   0  0  0  0  0  0  0  0  0  0  0  0
   53.9990   23.4150   45.3390 C   0  0  0  0  0  0  0  0  0  0  0  0
   53.2180   22.4300   45.2580 O   0  0  0  0  0  0  0  0  0  0  0  0
   53.5930   24.6320   45.7610 N   0  0  0  0  0  0  0  0  0  0  0  0
   54.7190   25.3580   45.6880 C   0  0  0  0  0  0  0  0  0  0  0  0
   54.7840   26.7140   45.9830 O   0  0  0  0  0  0  0  0  0  0  0  0
   57.8660   26.4670   46.7020 C   0  0  0  0  0  0  0  0  0  0  0  0
   58.5480   27.6640   46.7590 C   0  0  0  0  0  0  0  0  0  0  0  0
   58.9550   28.3500   48.0290 C   0  0  0  0  0  0  0  0  0  0  0  0
   58.7700   28.1390   45.5140 N   0  0  0  0  0  0  0  0  0  0  0  0
   59.4270   29.3770   45.1930 C   0  0  0  0  0  0  0  0  0  0  0  0
   60.5620   29.3510   44.6440 O   0  0  0  0  0  0  0  0  0  0  0  0
   58.7950   30.6350   45.4830 N   0  0  0  0  0  0  0  0  0  0  0  0
   57.5130   30.9960   45.2200 C   0  0  0  0  0  0  0  0  0  0  0  0
   56.6740   30.2290   44.6760 O   0  0  0  0  0  0  0  0  0  0  0  0
   57.2100   32.2710   45.5750 N   0  0  0  0  0  0  0  0  0  0  0  0
   58.3760   32.7160   46.0800 C   0  0  0  0  0  0  0  0  0  0  0  0
   58.6380   33.9770   46.6060 C   0  0  0  0  0  0  0  0  0  0  0  0
   59.9330   34.2280   47.0970 C   0  0  0  0  0  0  0  0  0  0  0  0
   60.9240   33.2180   47.0620 C   0  0  0  0  0  0  0  0  0  0  0  0
   62.5410   33.5600   47.6750 S   0  0  0  0  0  0  0  0  0  0  0  0
   62.4590   34.5790   48.7790 O   0  0  0  0  0  0  0  0  0  0  0  0
   63.3700   34.1320   46.5580 O   0  0  0  0  0  0  0  0  0  0  0  0
   63.2780   32.0920   48.2660 N   0  0  0  0  0  0  0  0  0  0  0  0
   62.2970   31.3060   49.0270 C   0  0  0  0  0  0  0  0  0  0  0  0
   64.4390   32.4200   49.1050 C   0  0  0  0  0  0  0  0  0  0  0  0
   60.6250   31.9530   46.5160 C   0  0  0  0  0  0  0  0  0  0  0  0
   59.3340   31.7420   46.0270 C   0  0  0  0  0  0  0  0  0  0  0  0
   58.5993   28.3660   42.8824 H   0  0  0  0  0  0  0  0  0  0  0  0
   57.5650   26.7777   42.6883 H   0  0  0  0  0  0  0  0  0  0  0  0
   57.7401   24.3551   44.3038 H   0  0  0  0  0  0  0  0  0  0  0  0
   57.5180   25.8696   47.5576 H   0  0  0  0  0  0  0  0  0  0  0  0
   58.6064   27.7624   48.8911 H   0  0  0  0  0  0  0  0  0  0  0  0
   60.0510   28.4371   48.0637 H   0  0  0  0  0  0  0  0  0  0  0  0
   58.5061   29.3537   48.0637 H   0  0  0  0  0  0  0  0  0  0  0  0
   57.8586   34.7526   46.6372 H   0  0  0  0  0  0  0  0  0  0  0  0
   60.1769   35.2173   47.5114 H   0  0  0  0  0  0  0  0  0  0  0  0
   63.6010   31.5300   47.4440 H   0  0  0  0  0  0  0  0  0  0  0  0
   62.4714   31.4457   50.1041 H   0  0  0  0  0  0  0  0  0  0  0  0
   61.2811   31.6429   48.7733 H   0  0  0  0  0  0  0  0  0  0  0  0
   62.4042   30.2410   48.7733 H   0  0  0  0  0  0  0  0  0  0  0  0
   64.1589   32.3409   50.1658 H   0  0  0  0  0  0  0  0  0  0  0  0
   65.2578   31.7180   48.8886 H   0  0  0  0  0  0  0  0  0  0  0  0
   64.7694   33.4466   48.8886 H   0  0  0  0  0  0  0  0  0  0  0  0
   61.3841   31.1579   46.4764 H   0  0  0  0  0  0  0  0  0  0  0  0
  1  2  2  0
  2  3  1  0
  3  4  2  3
  4  5  1  0
  5  6  1  0
  6  7  1  0
  7  8  2  0
  7  9  1  0
  9 10  1  0
 10 11  1  0
  3 12  1  0
 12 13  2  0
 13 14  1  0
 13 15  1  0
 15 16  1  0
 16 17  2  0
 16 18  1  0
 18 19  1  0
 19 20  2  0
 19 21  1  0
 21 22  1  0
 22 23  2  0
 23 24  1  0
 24 25  2  0
 25 26  1  0
 26 27  2  0
 26 28  2  0
 26 29  1  0
 29 30  1  0
 29 31  1  0
 25 32  1  0
 32 33  2  0
 15  2  1  0
 33 18  1  0
 10  5  2  0
 33 22  1  0
  1 34  1  0
  1 35  1  0
  4 36  1  0
 12 37  1  0
 14 38  1  0
 14 39  1  0
 14 40  1  0
 23 41  1  0
 24 42  1  0
 29 43  1  0
 30 44  1  0
 30 45  1  0
 30 46  1  0
 31 47  1  0
 31 48  1  0
 31 49  1  0
 32 50  1  0
M  CHG  5   6  -1   9  -1  11  -1  21  -1  29   1
M  END
>  <UniqueID>  (39) 
37

>  <SMILES>  (39) 
C=c1c(=Cc2[n-]c(=O)[n-]c2[O-])cc(C)n1C(=O)n1c(=O)[n-]c2ccc(S(=O)(=O)[NH+](C)C)cc21

>  <Energy>  (39) 
166.7501880116575

>  <Genealogy>  (39) 
C=c1c(=Cc2[n-]c(=O)[n-]c2[O-])cc(C)n1C(=O)n1c(=O)[n-]c2ccc(S(=O)(=O)[NH+](C)C)cc21 (protonated)
C=c1c(=Cc2[n-]c(=O)[n-]c2[O-])cc(C)n1C(=O)n1c(=O)[n-]c2ccc(S(=O)(=O)[NH+](C)C)cc21 (3D coordinates assigned)
C=c1c(=Cc2[n-]c(=O)[n-]c2[O-])cc(C)n1C(=O)n1c(=O)[n-]c2ccc(S(=O)(=O)[NH+](C)C)cc21 (optimized conformer: 166.7501880116575 kcal/mol)

>  <smiles>  (39) 
C=c1c(=Cc2[nH]c(=O)[nH]c2O)cc(C)n1C(=O)n1c(=O)[nH]c2ccc(S(=O)(=O)N(C)C)cc21

>  <score_type>  (39) 
oracle

>  <origin>  (39) 
adg

>  <m_score__min__energy>  (39) 
-17.420000000000002

>  <m_primary>  (39) 
energy

$$$$
39:0
     RDKit          3D

 58 61  0  0  0  0  0  0  0  0999 V2000
   64.8530   33.0430   49.5390 C   0  0  0  0  0  0  0  0  0  0  0  0
   63.4360   32.6430   49.5100 N   0  0  0  0  0  0  0  0  0  0  0  0
   62.8760   32.7270   48.1340 C   0  0  0  0  0  0  0  0  0  0  0  0
   62.4790   31.3680   47.5400 C   0  0  0  0  0  0  0  0  0  0  0  0
   61.6110   30.6410   48.4760 N   0  0  0  0  0  0  0  0  0  0  0  0
   60.5950   29.7370   47.9910 C   0  0  0  0  0  0  0  0  0  0  0  0
   60.4080   28.4800   48.5880 C   0  0  0  0  0  0  0  0  0  0  0  0
   59.4180   27.6130   48.1220 C   0  0  0  0  0  0  0  0  0  0  0  0
   58.5960   27.9760   47.0450 C   0  0  0  0  0  0  0  0  0  0  0  0
   57.5260   27.1080   46.6360 N   0  0  0  0  0  0  0  0  0  0  0  0
   57.6280   26.2170   45.5140 C   0  0  0  0  0  0  0  0  0  0  0  0
   58.5450   26.3840   44.6630 O   0  0  0  0  0  0  0  0  0  0  0  0
   56.6310   25.1380   45.3050 C   0  0  0  0  0  0  0  0  0  0  0  0
   57.0410   23.9150   44.7490 C   0  0  0  0  0  0  0  0  0  0  0  0
   56.1160   22.8920   44.5400 C   0  0  0  0  0  0  0  0  0  0  0  0
   54.7830   23.0920   44.8950 C   0  0  0  0  0  0  0  0  0  0  0  0
   54.3970   24.2710   45.4490 N   0  0  0  0  0  0  0  0  0  0  0  0
   55.2750   25.2870   45.6670 C   0  0  0  0  0  0  0  0  0  0  0  0
   54.8620   26.3440   46.2160 O   0  0  0  0  0  0  0  0  0  0  0  0
   58.7740   29.2370   46.4340 C   0  0  0  0  0  0  0  0  0  0  0  0
   57.9790   29.6480   45.2540 C   0  0  0  0  0  0  0  0  0  0  0  0
   56.6680   29.3670   45.2070 C   0  0  0  0  0  0  0  0  0  0  0  0
   55.7730   29.8630   44.1070 C   0  0  0  0  0  0  0  0  0  0  0  0
   56.5590   30.3970   42.8980 C   0  0  0  0  0  0  0  0  0  0  0  0
   57.7450   31.1770   43.3000 N   0  0  0  0  0  0  0  0  0  0  0  0
   57.3910   32.4350   43.9810 C   0  0  0  0  0  0  0  0  0  0  0  0
   58.6690   30.3540   44.1050 C   0  0  0  0  0  0  0  0  0  0  0  0
   59.7680   30.1060   46.9150 C   0  0  0  0  0  0  0  0  0  0  0  0
   61.8650   30.7610   49.9180 C   0  0  0  0  0  0  0  0  0  0  0  0
   63.2640   31.3310   50.1700 C   0  0  0  0  0  0  0  0  0  0  0  0
   65.1861   33.1370   50.5831 H   0  0  0  0  0  0  0  0  0  0  0  0
   65.4596   32.2810   49.0278 H   0  0  0  0  0  0  0  0  0  0  0  0
   64.9716   34.0097   49.0278 H   0  0  0  0  0  0  0  0  0  0  0  0
   61.9819   33.3671   48.1624 H   0  0  0  0  0  0  0  0  0  0  0  0
   63.6687   33.1372   47.4911 H   0  0  0  0  0  0  0  0  0  0  0  0
   61.9406   31.5279   46.5942 H   0  0  0  0  0  0  0  0  0  0  0  0
   63.3879   30.7756   47.3584 H   0  0  0  0  0  0  0  0  0  0  0  0
   61.0470   28.1758   49.4301 H   0  0  0  0  0  0  0  0  0  0  0  0
   59.2810   26.6342   48.6049 H   0  0  0  0  0  0  0  0  0  0  0  0
   56.6040   27.1940   47.1210 H   0  0  0  0  0  0  0  0  0  0  0  0
   58.0960   23.7633   44.4772 H   0  0  0  0  0  0  0  0  0  0  0  0
   56.4356   21.9362   44.0991 H   0  0  0  0  0  0  0  0  0  0  0  0
   54.0435   22.2952   44.7266 H   0  0  0  0  0  0  0  0  0  0  0  0
   56.2312   28.7491   46.0053 H   0  0  0  0  0  0  0  0  0  0  0  0
   55.1336   29.0329   43.7723 H   0  0  0  0  0  0  0  0  0  0  0  0
   55.1794   30.6960   44.5117 H   0  0  0  0  0  0  0  0  0  0  0  0
   56.8875   29.5445   42.2854 H   0  0  0  0  0  0  0  0  0  0  0  0
   55.8929   31.0655   42.3329 H   0  0  0  0  0  0  0  0  0  0  0  0
   57.4327   32.2867   45.0702 H   0  0  0  0  0  0  0  0  0  0  0  0
   58.1026   33.2220   43.6906 H   0  0  0  0  0  0  0  0  0  0  0  0
   56.3734   32.7354   43.6906 H   0  0  0  0  0  0  0  0  0  0  0  0
   59.1255   29.5967   43.4508 H   0  0  0  0  0  0  0  0  0  0  0  0
   59.4226   31.0292   44.5365 H   0  0  0  0  0  0  0  0  0  0  0  0
   59.9014   31.0904   46.4425 H   0  0  0  0  0  0  0  0  0  0  0  0
   61.1152   31.4315   50.3632 H   0  0  0  0  0  0  0  0  0  0  0  0
   61.7996   29.7627   50.3753 H   0  0  0  0  0  0  0  0  0  0  0  0
   63.4117   31.4526   51.2532 H   0  0  0  0  0  0  0  0  0  0  0  0
   64.0041   30.6324   49.7526 H   0  0  0  0  0  0  0  0  0  0  0  0
  1  2  1  0
  2  3  1  0
  3  4  1  0
  4  5  1  0
  5  6  1  0
  6  7  2  0
  7  8  1  0
  8  9  2  0
  9 10  1  0
 10 11  1  0
 11 12  2  0
 11 13  1  0
 13 14  2  0
 14 15  1  0
 15 16  2  0
 16 17  1  0
 17 18  1  0
 18 19  2  0
  9 20  1  0
 20 21  1  0
 21 22  2  0
 22 23  1  0
 23 24  1  0
 24 25  1  0
 25 26  1  0
 25 27  1  0
 20 28  2  0
  5 29  1  0
 29 30  1  0
 30  2  1  0
 28  6  1  0
 18 13  1  0
 27 21  1  0
  1 31  1  0
  1 32  1  0
  1 33  1  0
  3 34  1  0
  3 35  1  0
  4 36  1  0
  4 37  1  0
  7 38  1  0
  8 39  1  0
 10 40  1  0
 14 41  1  0
 15 42  1  0
 16 43  1  0
 22 44  1  0
 23 45  1  0
 23 46  1  0
 24 47  1  0
 24 48  1  0
 26 49  1  0
 26 50  1  0
 26 51  1  0
 27 52  1  0
 27 53  1  0
 28 54  1  0
 29 55  1  0
 29 56  1  0
 30 57  1  0
 30 58  1  0
M  CHG  1  17  -1
M  END
>  <UniqueID>  (40) 
38

>  <SMILES>  (40) 
CN1CCN(c2ccc(NC(=O)c3ccc[n-]c3=O)c(C3=CCCN(C)C3)c2)CC1

>  <Energy>  (40) 
88.85337618817756

>  <Genealogy>  (40) 
CN1CCN(c2ccc(NC(=O)c3ccc[n-]c3=O)c(C3=CCCN(C)C3)c2)CC1 (protonated)
CN1CCN(c2ccc(NC(=O)c3ccc[n-]c3=O)c(C3=CCCN(C)C3)c2)CC1 (3D coordinates assigned)
CN1CCN(c2ccc(NC(=O)c3ccc[n-]c3=O)c(C3=CCCN(C)C3)c2)CC1 (nonaromatic ring conformer: 88.85337618817756 kcal/mol)

>  <smiles>  (40) 
CN1CCN(c2ccc(NC(=O)c3ccc[nH]c3=O)c(C3=CCCN(C)C3)c2)CC1

>  <score_type>  (40) 
oracle

>  <origin>  (40) 
adg

>  <m_score__min__energy>  (40) 
-10.5

>  <m_primary>  (40) 
energy

$$$$
40:0
     RDKit          3D

 48 50  0  0  0  0  0  0  0  0999 V2000
   56.1600   22.5840   45.6540 C   0  0  0  0  0  0  0  0  0  0  0  0
   56.8730   23.6960   45.8040 C   0  0  0  0  0  0  0  0  0  0  0  0
   58.2910   23.7540   45.8060 N   0  0  0  0  0  0  0  0  0  0  0  0
   58.6320   25.1320   45.9860 C   0  0  0  0  0  0  0  0  0  0  0  0
   60.0530   25.6000   46.0410 C   0  0  0  0  0  0  0  0  0  0  0  0
   57.5400   25.9140   46.0970 C   0  0  0  0  0  0  0  0  0  0  0  0
   57.5090   27.3850   46.2750 C   0  0  0  0  0  0  0  0  0  0  0  0
   57.7710   27.8860   47.4020 O   0  0  0  0  0  0  0  0  0  0  0  0
   57.1440   28.2390   45.1790 N   0  0  0  0  0  0  0  0  0  0  0  0
   57.3930   29.6550   45.1570 C   0  0  0  0  0  0  0  0  0  0  0  0
   56.8170   30.4420   44.1480 C   0  0  0  0  0  0  0  0  0  0  0  0
   57.0340   31.8230   44.1140 C   0  0  0  0  0  0  0  0  0  0  0  0
   57.8300   32.4360   45.0940 C   0  0  0  0  0  0  0  0  0  0  0  0
   58.0020   33.9000   45.0910 C   0  0  0  0  0  0  0  0  0  0  0  0
   57.1520   34.6160   44.5000 O   0  0  0  0  0  0  0  0  0  0  0  0
   59.0970   34.5340   45.7670 N   0  0  0  0  0  0  0  0  0  0  0  0
   59.2300   34.6760   47.2160 C   0  0  0  0  0  0  0  0  0  0  0  0
   60.5870   34.2110   47.6760 C   0  0  0  0  0  0  0  0  0  0  0  0
   61.5480   33.8060   46.7350 C   0  0  0  0  0  0  0  0  0  0  0  0
   62.8230   33.4110   47.1520 C   0  0  0  0  0  0  0  0  0  0  0  0
   63.1560   33.4210   48.5160 C   0  0  0  0  0  0  0  0  0  0  0  0
   64.5200   32.9980   48.9760 C   0  0  0  0  0  0  0  0  0  0  0  0
   62.1970   33.8210   49.4570 C   0  0  0  0  0  0  0  0  0  0  0  0
   60.9190   34.2070   49.0420 C   0  0  0  0  0  0  0  0  0  0  0  0
   58.4510   31.6470   46.0710 C   0  0  0  0  0  0  0  0  0  0  0  0
   58.2380   30.2660   46.1030 C   0  0  0  0  0  0  0  0  0  0  0  0
   56.3680   25.0430   45.9830 C   0  0  0  0  0  0  0  0  0  0  0  0
   55.1580   25.3950   45.9820 O   0  0  0  0  0  0  0  0  0  0  0  0
   55.0610   22.6296   45.6649 H   0  0  0  0  0  0  0  0  0  0  0  0
   56.6691   21.6183   45.5190 H   0  0  0  0  0  0  0  0  0  0  0  0
   58.9540   22.9530   45.6950 H   0  0  0  0  0  0  0  0  0  0  0  0
   60.3648   25.7027   47.0909 H   0  0  0  0  0  0  0  0  0  0  0  0
   60.7001   24.8675   45.5363 H   0  0  0  0  0  0  0  0  0  0  0  0
   60.1382   26.5737   45.5363 H   0  0  0  0  0  0  0  0  0  0  0  0
   56.5230   27.8430   44.4380 H   0  0  0  0  0  0  0  0  0  0  0  0
   56.1900   29.9689   43.3779 H   0  0  0  0  0  0  0  0  0  0  0  0
   56.5797   32.4303   43.3173 H   0  0  0  0  0  0  0  0  0  0  0  0
   59.0997   35.7338   47.4883 H   0  0  0  0  0  0  0  0  0  0  0  0
   58.4614   34.0581   47.7032 H   0  0  0  0  0  0  0  0  0  0  0  0
   61.2963   33.7995   45.6642 H   0  0  0  0  0  0  0  0  0  0  0  0
   63.5680   33.0912   46.4085 H   0  0  0  0  0  0  0  0  0  0  0  0
   64.5496   32.9888   50.0756 H   0  0  0  0  0  0  0  0  0  0  0  0
   64.7392   31.9897   48.5949 H   0  0  0  0  0  0  0  0  0  0  0  0
   65.2712   33.7054   48.5949 H   0  0  0  0  0  0  0  0  0  0  0  0
   62.4513   33.8312   50.5272 H   0  0  0  0  0  0  0  0  0  0  0  0
   60.1694   34.5091   49.7882 H   0  0  0  0  0  0  0  0  0  0  0  0
   59.1094   32.1166   46.8166 H   0  0  0  0  0  0  0  0  0  0  0  0
   58.7330   29.6535   46.8710 H   0  0  0  0  0  0  0  0  0  0  0  0
  1  2  2  0
  2  3  1  0
  3  4  1  0
  4  5  1  0
  4  6  2  0
  6  7  1  0
  7  8  2  0
  7  9  1  0
  9 10  1  0
 10 11  2  0
 11 12  1  0
 12 13  2  0
 13 14  1  0
 14 15  2  0
 14 16  1  0
 16 17  1  0
 17 18  1  0
 18 19  2  0
 19 20  1  0
 20 21  2  0
 21 22  1  0
 21 23  1  0
 23 24  2  0
 13 25  1  0
 25 26  2  0
  6 27  1  0
 27 28  2  0
 27  2  1  0
 26 10  1  0
 24 18  1  0
  1 29  1  0
  1 30  1  0
  3 31  1  0
  5 32  1  0
  5 33  1  0
  5 34  1  0
  9 35  1  0
 11 36  1  0
 12 37  1  0
 17 38  1  0
 17 39  1  0
 19 40  1  0
 20 41  1  0
 22 42  1  0
 22 43  1  0
 22 44  1  0
 23 45  1  0
 24 46  1  0
 25 47  1  0
 26 48  1  0
M  CHG  1  16  -1
M  END
>  <UniqueID>  (41) 
39

>  <SMILES>  (41) 
C=C1NC(C)=C(C(=O)Nc2ccc(C(=O)[N-]Cc3ccc(C)cc3)cc2)C1=O

>  <Energy>  (41) 
80.42068816975144

>  <Genealogy>  (41) 
C=C1NC(C)=C(C(=O)Nc2ccc(C(=O)[N-]Cc3ccc(C)cc3)cc2)C1=O (protonated)
C=C1NC(C)=C(C(=O)Nc2ccc(C(=O)[N-]Cc3ccc(C)cc3)cc2)C1=O (3D coordinates assigned)
C=C1NC(C)=C(C(=O)Nc2ccc(C(=O)[N-]Cc3ccc(C)cc3)cc2)C1=O (nonaromatic ring conformer: 80.42068816975144 kcal/mol)

>  <smiles>  (41) 
C=C1NC(C)=C(C(=O)Nc2ccc(C(=O)NCc3ccc(C)cc3)cc2)C1=O

>  <score_type>  (41) 
oracle

>  <origin>  (41) 
adg

>  <m_score__min__energy>  (41) 
-10.029999999999999

>  <m_primary>  (41) 
energy

$$$$
41:0
     RDKit          3D

 52 55  0  0  0  0  0  0  0  0999 V2000
   53.2190   23.1270   45.4080 H   0  0  0  0  0  0  0  0  0  0  0  0
   54.1380   23.1130   44.9100 N   0  0  0  0  0  0  0  0  0  0  0  0
   55.0130   24.0610   45.0210 C   0  0  0  0  0  0  0  0  0  0  0  0
   54.7590   25.1060   45.8530 N   0  0  0  0  0  0  0  0  0  0  0  0
   55.6350   26.1340   46.0110 C   0  0  0  0  0  0  0  0  0  0  0  0
   55.3888   26.9617   46.6924 H   0  0  0  0  0  0  0  0  0  0  0  0
   56.8520   26.1460   45.3100 C   0  0  0  0  0  0  0  0  0  0  0  0
   57.8140   27.2650   45.4760 C   0  0  0  0  0  0  0  0  0  0  0  0
   58.5490   27.7510   44.3630 C   0  0  0  0  0  0  0  0  0  0  0  0
   58.4155   27.2804   43.3778 H   0  0  0  0  0  0  0  0  0  0  0  0
   59.4440   28.8240   44.5020 C   0  0  0  0  0  0  0  0  0  0  0  0
   60.0064   29.1999   43.6346 H   0  0  0  0  0  0  0  0  0  0  0  0
   59.6070   29.4040   45.7580 C   0  0  0  0  0  0  0  0  0  0  0  0
   60.4310   30.4520   46.0150 N   0  0  0  0  0  0  0  0  0  0  0  0
   60.3720   30.8000   47.3230 C   0  0  0  0  0  0  0  0  0  0  0  0
   61.0760   31.7810   47.8030 N   0  0  0  0  0  0  0  0  0  0  0  0
   60.8020   32.4970   49.0480 C   0  0  0  0  0  0  0  0  0  0  0  0
   59.7814   32.2600   49.3829 H   0  0  0  0  0  0  0  0  0  0  0  0
   61.5366   32.1824   49.8039 H   0  0  0  0  0  0  0  0  0  0  0  0
   60.9250   34.0120   48.8450 C   0  0  0  0  0  0  0  0  0  0  0  0
   61.0975   34.4918   49.8197 H   0  0  0  0  0  0  0  0  0  0  0  0
   61.7666   34.2049   48.1634 H   0  0  0  0  0  0  0  0  0  0  0  0
   59.6490   34.5940   48.2190 C   0  0  0  0  0  0  0  0  0  0  0  0
   58.8263   34.5270   48.9462 H   0  0  0  0  0  0  0  0  0  0  0  0
   59.8331   35.6444   47.9492 H   0  0  0  0  0  0  0  0  0  0  0  0
   59.2810   33.8450   46.9980 N   0  0  0  0  0  0  0  0  0  0  0  0
   57.9240   33.2710   47.1310 C   0  0  0  0  0  0  0  0  0  0  0  0
   57.9522   32.4611   47.8748 H   0  0  0  0  0  0  0  0  0  0  0  0
   57.2436   34.0762   47.4454 H   0  0  0  0  0  0  0  0  0  0  0  0
   57.4030   32.7010   45.7920 C   0  0  0  0  0  0  0  0  0  0  0  0
   56.9372   31.7213   45.9745 H   0  0  0  0  0  0  0  0  0  0  0  0
   56.6678   33.4038   45.3730 H   0  0  0  0  0  0  0  0  0  0  0  0
   58.5070   32.5390   44.8230 N   0  0  0  0  0  0  0  0  0  0  0  0
   59.2260   31.8960   45.2350 H   0  0  0  0  0  0  0  0  0  0  0  0
   58.0160   31.9110   43.5830 C   0  0  0  0  0  0  0  0  0  0  0  0
   57.3565   31.0675   43.8354 H   0  0  0  0  0  0  0  0  0  0  0  0
   57.4550   32.6516   42.9942 H   0  0  0  0  0  0  0  0  0  0  0  0
   58.8701   31.5452   42.9942 H   0  0  0  0  0  0  0  0  0  0  0  0
   59.1430   33.8440   44.5240 C   0  0  0  0  0  0  0  0  0  0  0  0
   60.1227   33.6623   44.0580 H   0  0  0  0  0  0  0  0  0  0  0  0
   58.4755   34.3986   43.8481 H   0  0  0  0  0  0  0  0  0  0  0  0
   59.3470   34.6970   45.7950 C   0  0  0  0  0  0  0  0  0  0  0  0
   60.3313   35.1861   45.7500 H   0  0  0  0  0  0  0  0  0  0  0  0
   58.5522   35.4555   45.8490 H   0  0  0  0  0  0  0  0  0  0  0  0
   59.3030   29.8200   48.2100 S   0  0  0  0  0  0  0  0  0  0  0  0
   58.9010   28.9230   46.8480 C   0  0  0  0  0  0  0  0  0  0  0  0
   58.0030   27.8640   46.7420 C   0  0  0  0  0  0  0  0  0  0  0  0
   57.4534   27.5020   47.6234 H   0  0  0  0  0  0  0  0  0  0  0  0
   57.1350   25.0720   44.4480 C   0  0  0  0  0  0  0  0  0  0  0  0
   58.0823   25.0533   43.8892 H   0  0  0  0  0  0  0  0  0  0  0  0
   56.2190   24.0290   44.2980 C   0  0  0  0  0  0  0  0  0  0  0  0
   56.5010   23.0070   43.4500 F   0  0  0  0  0  0  0  0  0  0  0  0
  1  2  1  0
  2  3  2  0
  3  4  1  0
  4  5  1  0
  5  6  1  0
  5  7  2  0
  7  8  1  0
  8  9  2  0
  9 10  1  0
  9 11  1  0
 11 12  1  0
 11 13  2  0
 13 14  1  0
 14 15  1  0
 15 16  2  0
 16 17  1  0
 17 18  1  0
 17 19  1  0
 17 20  1  0
 20 21  1  0
 20 22  1  0
 20 23  1  0
 23 24  1  0
 23 25  1  0
 23 26  1  0
 26 27  1  0
 27 28  1  0
 27 29  1  0
 27 30  1  0
 30 31  1  0
 30 32  1  0
 30 33  1  0
 33 34  1  0
 33 35  1  0
 35 36  1  0
 35 37  1  0
 35 38  1  0
 33 39  1  0
 39 40  1  0
 39 41  1  0
 39 42  1  0
 42 43  1  0
 42 44  1  0
 15 45  1  0
 45 46  1  0
 46 47  2  0
 47 48  1  0
  7 49  1  0
 49 50  1  0
 49 51  2  0
 51 52  1  0
 51  3  1  0
 47  8  1  0
 46 13  1  0
 42 26  1  0
M  CHG  3   4  -1  14  -1  33   1
M  END
>  <UniqueID>  (42) 
40

>  <SMILES>  (42) 
[H]/N=c1/[n-]cc(-c2ccc3[n-]/c(=N/CCCN4CC[NH+](C)CC4)sc3c2)cc1F

>  <Energy>  (42) 
102.03257549548466

>  <Genealogy>  (42) 
C[NH+]1CCN(CCCN=c2[n-]c3ccc(-c4c[n-]c(=N)c(F)c4)cc3s2)CC1 (protonated)
[H]/N=c1/[n-]cc(-c2ccc3[n-]/c(=N/CCCN4CC[NH+](C)CC4)sc3c2)cc1F (cis-trans isomerization)
[H]/N=c1/[n-]cc(-c2ccc3[n-]/c(=N/CCCN4CC[NH+](C)CC4)sc3c2)cc1F (3D coordinates assigned)
[H]/N=c1/[n-]cc(-c2ccc3[n-]/c(=N/CCCN4CC[NH+](C)CC4)sc3c2)cc1F (nonaromatic ring conformer: 102.03257549548466 kcal/mol)

>  <smiles>  (42) 
CN1CCN(CCCN=c2[nH]c3ccc(-c4c[nH]c(=N)c(F)c4)cc3s2)CC1

>  <score_type>  (42) 
oracle

>  <origin>  (42) 
adg

>  <m_score__min__energy>  (42) 
-8.3200000000000003

>  <m_primary>  (42) 
energy

$$$$
42:0
     RDKit          3D

 74 78  0  0  0  0  0  0  0  0999 V2000
   59.5236   26.7413   46.2549 H   0  0  0  0  0  0  0  0  0  0  0  0
   58.9500   27.6170   45.9170 C   0  0  0  0  0  0  0  0  0  0  0  0
   58.3770   28.5020   46.8450 C   0  0  0  0  0  0  0  0  0  0  0  0
   58.9270   28.6140   48.1960 C   0  0  0  0  0  0  0  0  0  0  0  0
   59.9090   27.6740   48.5500 C   0  0  0  0  0  0  0  0  0  0  0  0
   60.0692   26.7867   47.9199 H   0  0  0  0  0  0  0  0  0  0  0  0
   60.6720   27.8570   49.6810 C   0  0  0  0  0  0  0  0  0  0  0  0
   61.4529   27.1277   49.9422 H   0  0  0  0  0  0  0  0  0  0  0  0
   60.4530   28.9730   50.4990 C   0  0  0  0  0  0  0  0  0  0  0  0
   61.4050   29.2770   51.5230 N   0  0  0  0  0  0  0  0  0  0  0  0
   60.9400   29.7740   52.8170 C   0  0  0  0  0  0  0  0  0  0  0  0
   60.0262   30.3694   52.6742 H   0  0  0  0  0  0  0  0  0  0  0  0
   60.7237   28.9235   53.4802 H   0  0  0  0  0  0  0  0  0  0  0  0
   62.0230   30.6470   53.4460 C   0  0  0  0  0  0  0  0  0  0  0  0
   61.5682   31.3255   54.1827 H   0  0  0  0  0  0  0  0  0  0  0  0
   62.7658   30.0119   53.9508 H   0  0  0  0  0  0  0  0  0  0  0  0
   62.6570   31.4090   52.4220 O   0  0  0  0  0  0  0  0  0  0  0  0
   63.4890   30.5780   51.6230 C   0  0  0  0  0  0  0  0  0  0  0  0
   63.7295   31.1172   50.6949 H   0  0  0  0  0  0  0  0  0  0  0  0
   64.3842   30.3502   52.2202 H   0  0  0  0  0  0  0  0  0  0  0  0
   62.8390   29.2230   51.2470 C   0  0  0  0  0  0  0  0  0  0  0  0
   62.9992   29.0239   50.1771 H   0  0  0  0  0  0  0  0  0  0  0  0
   63.2968   28.4192   51.8423 H   0  0  0  0  0  0  0  0  0  0  0  0
   59.4110   29.8770   50.2190 C   0  0  0  0  0  0  0  0  0  0  0  0
   59.2330   30.9780   51.0780 O   0  0  0  0  0  0  0  0  0  0  0  0
   58.0450   31.7470   51.1570 C   0  0  0  0  0  0  0  0  0  0  0  0
   57.7862   31.9145   52.2129 H   0  0  0  0  0  0  0  0  0  0  0  0
   58.2015   32.7156   50.6597 H   0  0  0  0  0  0  0  0  0  0  0  0
   57.2254   31.2077   50.6597 H   0  0  0  0  0  0  0  0  0  0  0  0
   58.6290   29.6930   49.0550 C   0  0  0  0  0  0  0  0  0  0  0  0
   57.8018   30.3800   48.8231 H   0  0  0  0  0  0  0  0  0  0  0  0
   57.6010   29.5260   46.4080 N   0  0  0  0  0  0  0  0  0  0  0  0
   57.4510   29.8440   45.1070 C   0  0  0  0  0  0  0  0  0  0  0  0
   56.9270   30.9930   44.8470 N   0  0  0  0  0  0  0  0  0  0  0  0
   57.4280   32.0020   43.9830 C   0  0  0  0  0  0  0  0  0  0  0  0
   58.0610   31.7120   42.9350 O   0  0  0  0  0  0  0  0  0  0  0  0
   57.3780   33.3950   44.4780 C   0  0  0  0  0  0  0  0  0  0  0  0
   57.8449   34.0651   43.7411 H   0  0  0  0  0  0  0  0  0  0  0  0
   56.3314   33.6978   44.6297 H   0  0  0  0  0  0  0  0  0  0  0  0
   58.1280   33.4800   45.7860 C   0  0  0  0  0  0  0  0  0  0  0  0
   59.0930   34.4790   45.9850 C   0  0  0  0  0  0  0  0  0  0  0  0
   59.3238   35.1932   45.1808 H   0  0  0  0  0  0  0  0  0  0  0  0
   59.7560   34.5610   47.2050 C   0  0  0  0  0  0  0  0  0  0  0  0
   60.5452   35.3145   47.3441 H   0  0  0  0  0  0  0  0  0  0  0  0
   59.4300   33.6910   48.2660 C   0  0  0  0  0  0  0  0  0  0  0  0
   60.3980   33.6170   49.3900 C   0  0  0  0  0  0  0  0  0  0  0  0
   60.2200   34.4980   50.2920 O   0  0  0  0  0  0  0  0  0  0  0  0
   61.3790   32.5280   49.5830 N   0  0  0  0  0  0  0  0  0  0  0  0
   61.0450   32.0040   50.4260 H   0  0  0  0  0  0  0  0  0  0  0  0
   61.4000   31.5300   48.4850 C   0  0  0  0  0  0  0  0  0  0  0  0
   61.9594   30.6449   48.8221 H   0  0  0  0  0  0  0  0  0  0  0  0
   60.3578   31.2773   48.2400 H   0  0  0  0  0  0  0  0  0  0  0  0
   62.0640   32.0790   47.2090 C   0  0  0  0  0  0  0  0  0  0  0  0
   62.8111   31.3551   46.8513 H   0  0  0  0  0  0  0  0  0  0  0  0
   61.2865   32.2356   46.4468 H   0  0  0  0  0  0  0  0  0  0  0  0
   62.7320   33.3730   47.4780 N   0  0  0  0  0  0  0  0  0  0  0  0
   63.5320   33.8060   46.3160 C   0  0  0  0  0  0  0  0  0  0  0  0
   64.4489   34.3023   46.6666 H   0  0  0  0  0  0  0  0  0  0  0  0
   63.7992   32.9294   45.7076 H   0  0  0  0  0  0  0  0  0  0  0  0
   62.9442   34.5091   45.7076 H   0  0  0  0  0  0  0  0  0  0  0  0
   63.5810   33.3230   48.6830 C   0  0  0  0  0  0  0  0  0  0  0  0
   64.3305   32.5266   48.5647 H   0  0  0  0  0  0  0  0  0  0  0  0
   64.0776   34.2965   48.8082 H   0  0  0  0  0  0  0  0  0  0  0  0
   62.7380   33.0380   49.9200 C   0  0  0  0  0  0  0  0  0  0  0  0
   63.2550   32.2847   50.5326 H   0  0  0  0  0  0  0  0  0  0  0  0
   62.6125   33.9863   50.4630 H   0  0  0  0  0  0  0  0  0  0  0  0
   58.4410   32.6980   48.0790 C   0  0  0  0  0  0  0  0  0  0  0  0
   58.1958   31.9949   48.8886 H   0  0  0  0  0  0  0  0  0  0  0  0
   57.7780   32.6230   46.8470 C   0  0  0  0  0  0  0  0  0  0  0  0
   56.9740   31.8854   46.7069 H   0  0  0  0  0  0  0  0  0  0  0  0
   58.0940   29.0250   44.1370 C   0  0  0  0  0  0  0  0  0  0  0  0
   58.0569   29.2923   43.0706 H   0  0  0  0  0  0  0  0  0  0  0  0
   58.7750   27.8740   44.5560 C   0  0  0  0  0  0  0  0  0  0  0  0
   59.1730   27.1706   43.8098 H   0  0  0  0  0  0  0  0  0  0  0  0
  1  2  1  0
  2  3  2  0
  3  4  1  0
  4  5  2  0
  5  6  1  0
  5  7  1  0
  7  8  1  0
  7  9  2  0
  9 10  1  0
 10 11  1  0
 11 12  1  0
 11 13  1  0
 11 14  1  0
 14 15  1  0
 14 16  1  0
 14 17  1  0
 17 18  1  0
 18 19  1  0
 18 20  1  0
 18 21  1  0
 21 22  1  0
 21 23  1  0
  9 24  1  0
 24 25  1  0
 25 26  1  0
 26 27  1  0
 26 28  1  0
 26 29  1  0
 24 30  2  0
 30 31  1  0
  3 32  1  0
 32 33  1  0
 33 34  2  0
 34 35  1  0
 35 36  2  0
 35 37  1  0
 37 38  1  0
 37 39  1  0
 37 40  1  0
 40 41  2  0
 41 42  1  0
 41 43  1  0
 43 44  1  0
 43 45  2  0
 45 46  1  0
 46 47  2  0
 46 48  1  0
 48 49  1  0
 48 50  1  0
 50 51  1  0
 50 52  1  0
 50 53  1  0
 53 54  1  0
 53 55  1  0
 53 56  1  0
 56 57  1  0
 57 58  1  0
 57 59  1  0
 57 60  1  0
 56 61  1  0
 61 62  1  0
 61 63  1  0
 61 64  1  0
 64 65  1  0
 64 66  1  0
 45 67  1  0
 67 68  1  0
 67 69  2  0
 69 70  1  0
 33 71  1  0
 71 72  1  0
 71 73  2  0
 73 74  1  0
 73  2  1  0
 30  4  1  0
 69 40  1  0
 21 10  1  0
 64 48  1  0
M  CHG  2  32  -1  48   1
M  END
>  <UniqueID>  (43) 
41

>  <SMILES>  (43) 
COc1cc(-c2ccc/c(=N\C(=O)Cc3ccc(C(=O)[NH+]4CCN(C)CC4)cc3)[n-]2)ccc1N1CCOCC1

>  <Energy>  (43) 
149.50361691655223

>  <Genealogy>  (43) 
COc1cc(-c2cccc(=NC(=O)Cc3ccc(C(=O)[NH+]4CCN(C)CC4)cc3)[n-]2)ccc1N1CCOCC1 (protonated)
COc1cc(-c2ccc/c(=N\C(=O)Cc3ccc(C(=O)[NH+]4CCN(C)CC4)cc3)[n-]2)ccc1N1CCOCC1 (cis-trans isomerization)
COc1cc(-c2ccc/c(=N\C(=O)Cc3ccc(C(=O)[NH+]4CCN(C)CC4)cc3)[n-]2)ccc1N1CCOCC1 (3D coordinates assigned)
COc1cc(-c2ccc/c(=N\C(=O)Cc3ccc(C(=O)[NH+]4CCN(C)CC4)cc3)[n-]2)ccc1N1CCOCC1 (nonaromatic ring conformer: 149.50361691655223 kcal/mol)

>  <smiles>  (43) 
COc1cc(-c2cccc(=NC(=O)Cc3ccc(C(=O)N4CCN(C)CC4)cc3)[nH]2)ccc1N1CCOCC1

>  <score_type>  (43) 
oracle

>  <origin>  (43) 
adg

>  <m_score__min__energy>  (43) 
-9.6099999999999994

>  <m_primary>  (43) 
energy

$$$$
43:0
     RDKit          3D

 41 44  0  0  0  0  0  0  0  0999 V2000
   56.4310   24.2240   48.1160 O   0  0  0  0  0  0  0  0  0  0  0  0
   57.1950   23.6490   47.2910 C   0  0  0  0  0  0  0  0  0  0  0  0
   58.0600   24.4660   46.3870 C   0  0  0  0  0  0  0  0  0  0  0  0
   57.2820   25.6650   45.9280 C   0  0  0  0  0  0  0  0  0  0  0  0
   55.8950   25.8120   45.8730 C   0  0  0  0  0  0  0  0  0  0  0  0
   54.9620   24.7970   46.0720 O   0  0  0  0  0  0  0  0  0  0  0  0
   55.5290   27.0940   45.6320 N   0  0  0  0  0  0  0  0  0  0  0  0
   56.6950   27.7640   45.5560 C   0  0  0  0  0  0  0  0  0  0  0  0
   56.8470   29.1390   45.3920 C   0  0  0  0  0  0  0  0  0  0  0  0
   58.1550   29.6820   45.4190 C   0  0  0  0  0  0  0  0  0  0  0  0
   58.3610   31.1470   45.2970 C   0  0  0  0  0  0  0  0  0  0  0  0
   59.1000   31.8530   46.2620 C   0  0  0  0  0  0  0  0  0  0  0  0
   59.2890   33.2300   46.1200 C   0  0  0  0  0  0  0  0  0  0  0  0
   58.7590   33.8860   45.0520 N   0  0  0  0  0  0  0  0  0  0  0  0
   58.0340   33.2340   44.1050 C   0  0  0  0  0  0  0  0  0  0  0  0
   57.8210   31.8570   44.2090 C   0  0  0  0  0  0  0  0  0  0  0  0
   59.2660   28.8120   45.5920 C   0  0  0  0  0  0  0  0  0  0  0  0
   59.0770   27.4290   45.7580 C   0  0  0  0  0  0  0  0  0  0  0  0
   57.7750   26.9380   45.7330 C   0  0  0  0  0  0  0  0  0  0  0  0
   57.3240   22.2230   47.2930 N   0  0  0  0  0  0  0  0  0  0  0  0
   56.6010   21.3620   46.3620 C   0  0  0  0  0  0  0  0  0  0  0  0
   56.4490   22.0700   45.0530 C   0  0  0  0  0  0  0  0  0  0  0  0
   57.4300   22.2040   44.0910 C   0  0  0  0  0  0  0  0  0  0  0  0
   56.8270   22.8490   43.0320 C   0  0  0  0  0  0  0  0  0  0  0  0
   55.5190   23.0680   43.4130 C   0  0  0  0  0  0  0  0  0  0  0  0
   55.3220   22.5900   44.6210 O   0  0  0  0  0  0  0  0  0  0  0  0
   58.9580   24.7939   46.9312 H   0  0  0  0  0  0  0  0  0  0  0  0
   58.3671   23.8645   45.5188 H   0  0  0  0  0  0  0  0  0  0  0  0
   55.2380   23.8620   46.3420 H   0  0  0  0  0  0  0  0  0  0  0  0
   55.9713   29.7882   45.2449 H   0  0  0  0  0  0  0  0  0  0  0  0
   59.5280   31.3233   47.1259 H   0  0  0  0  0  0  0  0  0  0  0  0
   59.8675   33.7851   46.8731 H   0  0  0  0  0  0  0  0  0  0  0  0
   57.6140   33.7916   43.2549 H   0  0  0  0  0  0  0  0  0  0  0  0
   57.2332   31.3300   43.4430 H   0  0  0  0  0  0  0  0  0  0  0  0
   60.2852   29.2258   45.5960 H   0  0  0  0  0  0  0  0  0  0  0  0
   59.9335   26.7543   45.9035 H   0  0  0  0  0  0  0  0  0  0  0  0
   57.1632   20.4285   46.2121 H   0  0  0  0  0  0  0  0  0  0  0  0
   55.6078   21.1266   46.7720 H   0  0  0  0  0  0  0  0  0  0  0  0
   58.4749   21.8665   44.1558 H   0  0  0  0  0  0  0  0  0  0  0  0
   57.2940   23.1317   42.0770 H   0  0  0  0  0  0  0  0  0  0  0  0
   54.7560   23.5676   42.7980 H   0  0  0  0  0  0  0  0  0  0  0  0
  1  2  2  0
  2  3  1  0
  3  4  1  0
  4  5  2  0
  5  6  1  0
  5  7  1  0
  7  8  1  0
  8  9  2  0
  9 10  1  0
 10 11  1  0
 11 12  2  0
 12 13  1  0
 13 14  2  0
 14 15  1  0
 15 16  2  0
 10 17  2  0
 17 18  1  0
 18 19  2  0
  2 20  1  0
 20 21  1  0
 21 22  1  0
 22 23  2  0
 23 24  1  0
 24 25  2  0
 25 26  1  0
 19  4  1  0
 26 22  1  0
 19  8  1  0
 16 11  1  0
  3 27  1  0
  3 28  1  0
  6 29  1  0
  9 30  1  0
 12 31  1  0
 13 32  1  0
 15 33  1  0
 16 34  1  0
 17 35  1  0
 18 36  1  0
 21 37  1  0
 21 38  1  0
 23 39  1  0
 24 40  1  0
 25 41  1  0
M  CHG  2   7  -1  20  -1
M  END
>  <UniqueID>  (44) 
42

>  <SMILES>  (44) 
O=C(Cc1c(O)[n-]c2cc(-c3ccncc3)ccc12)[N-]Cc1ccco1

>  <Energy>  (44) 
102.07409509911407

>  <Genealogy>  (44) 
O=C(Cc1c(O)[n-]c2cc(-c3ccncc3)ccc12)[N-]Cc1ccco1 (protonated)
O=C(Cc1c(O)[n-]c2cc(-c3ccncc3)ccc12)[N-]Cc1ccco1 (3D coordinates assigned)
O=C(Cc1c(O)[n-]c2cc(-c3ccncc3)ccc12)[N-]Cc1ccco1 (optimized conformer: 102.07409509911407 kcal/mol)

>  <smiles>  (44) 
O=C(Cc1c(O)[nH]c2cc(-c3ccncc3)ccc12)NCc1ccco1

>  <score_type>  (44) 
oracle

>  <origin>  (44) 
adg

>  <m_score__min__energy>  (44) 
-12.59

>  <m_primary>  (44) 
energy

$$$$
44:0
     RDKit          3D

 57 60  0  0  0  0  0  0  0  0999 V2000
   55.5280   28.9740   44.9340 N   0  0  0  0  0  0  0  0  0  0  0  0
   56.6440   29.4170   43.6920 S   0  0  0  0  0  0  0  0  0  0  0  0
   55.9240   29.4730   42.3740 O   0  0  0  0  0  0  0  0  0  0  0  0
   57.7350   28.3880   43.6020 O   0  0  0  0  0  0  0  0  0  0  0  0
   57.3450   30.9880   44.0640 C   0  0  0  0  0  0  0  0  0  0  0  0
   57.8790   31.7880   43.0460 C   0  0  0  0  0  0  0  0  0  0  0  0
   58.4660   33.0140   43.3540 C   0  0  0  0  0  0  0  0  0  0  0  0
   58.5300   33.4500   44.6790 C   0  0  0  0  0  0  0  0  0  0  0  0
   57.9800   32.6710   45.7210 C   0  0  0  0  0  0  0  0  0  0  0  0
   58.1240   33.0570   47.1230 N   0  0  2  0  0  0  0  0  0  0  0  0
   58.6150   34.4630   47.2850 C   0  0  0  0  0  0  0  0  0  0  0  0
   60.0400   34.5690   47.8400 C   0  0  0  0  0  0  0  0  0  0  0  0
   60.1400   33.8270   49.0960 N   0  0  0  0  0  0  0  0  0  0  0  0
   61.1460   34.1990   50.0960 C   0  0  0  0  0  0  0  0  0  0  0  0
   62.4080   33.4090   49.8730 C   0  0  0  0  0  0  0  0  0  0  0  0
   63.2180   33.6620   48.7530 C   0  0  0  0  0  0  0  0  0  0  0  0
   64.4170   32.9660   48.5790 C   0  0  0  0  0  0  0  0  0  0  0  0
   64.8190   32.0170   49.5240 C   0  0  0  0  0  0  0  0  0  0  0  0
   64.0230   31.7660   50.6440 C   0  0  0  0  0  0  0  0  0  0  0  0
   62.8230   32.4610   50.8220 C   0  0  0  0  0  0  0  0  0  0  0  0
   59.4370   32.5800   49.1890 C   0  0  0  0  0  0  0  0  0  0  0  0
   59.3970   31.9430   50.2760 O   0  0  0  0  0  0  0  0  0  0  0  0
   58.8040   32.0000   47.9520 C   0  0  2  0  0  0  0  0  0  0  0  0
   59.8500   31.1910   47.1910 C   0  0  0  0  0  0  0  0  0  0  0  0
   60.8890   31.7620   46.7600 O   0  0  0  0  0  0  0  0  0  0  0  0
   59.6400   29.8010   46.8810 N   0  0  0  0  0  0  0  0  0  0  0  0
   58.7330   28.9180   47.5970 C   0  0  0  0  0  0  0  0  0  0  0  0
   58.9390   27.5370   46.9880 C   0  0  0  0  0  0  0  0  0  0  0  0
   59.6660   27.7700   45.6670 C   0  0  0  0  0  0  0  0  0  0  0  0
   60.3390   29.1280   45.8010 C   0  0  0  0  0  0  0  0  0  0  0  0
   57.3830   31.4380   45.3900 C   0  0  0  0  0  0  0  0  0  0  0  0
   54.5940   29.3460   44.6500 H   0  0  0  0  0  0  0  0  0  0  0  0
   57.8350   31.4479   42.0008 H   0  0  0  0  0  0  0  0  0  0  0  0
   58.8804   33.6404   42.5504 H   0  0  0  0  0  0  0  0  0  0  0  0
   59.0136   34.4097   44.9137 H   0  0  0  0  0  0  0  0  0  0  0  0
   57.1470   33.0990   47.5030 H   0  0  0  0  0  0  0  0  0  0  0  0
   58.5906   34.9529   46.3004 H   0  0  0  0  0  0  0  0  0  0  0  0
   57.9527   34.9475   48.0176 H   0  0  0  0  0  0  0  0  0  0  0  0
   60.7480   34.1488   47.1105 H   0  0  0  0  0  0  0  0  0  0  0  0
   60.2801   35.6267   48.0235 H   0  0  0  0  0  0  0  0  0  0  0  0
   61.3678   35.2728   50.0081 H   0  0  0  0  0  0  0  0  0  0  0  0
   60.7553   33.9806   51.1008 H   0  0  0  0  0  0  0  0  0  0  0  0
   62.9068   34.4112   48.0101 H   0  0  0  0  0  0  0  0  0  0  0  0
   65.0451   33.1647   47.6981 H   0  0  0  0  0  0  0  0  0  0  0  0
   65.7621   31.4681   49.3854 H   0  0  0  0  0  0  0  0  0  0  0  0
   64.3409   31.0201   51.3874 H   0  0  0  0  0  0  0  0  0  0  0  0
   62.2020   32.2645   51.7084 H   0  0  0  0  0  0  0  0  0  0  0  0
   57.9943   31.3108   48.2340 H   0  0  0  0  0  0  0  0  0  0  0  0
   58.9769   28.9049   48.6695 H   0  0  0  0  0  0  0  0  0  0  0  0
   57.6880   29.2498   47.5087 H   0  0  0  0  0  0  0  0  0  0  0  0
   59.5490   26.9109   47.6558 H   0  0  0  0  0  0  0  0  0  0  0  0
   57.9831   27.0140   46.8375 H   0  0  0  0  0  0  0  0  0  0  0  0
   60.4175   26.9845   45.4991 H   0  0  0  0  0  0  0  0  0  0  0  0
   58.9739   27.7426   44.8125 H   0  0  0  0  0  0  0  0  0  0  0  0
   61.4039   29.0068   46.0486 H   0  0  0  0  0  0  0  0  0  0  0  0
   60.2918   29.7017   44.8636 H   0  0  0  0  0  0  0  0  0  0  0  0
   56.9402   30.8198   46.1848 H   0  0  0  0  0  0  0  0  0  0  0  0
  1  2  1  0
  2  3  2  0
  2  4  2  0
  2  5  1  0
  5  6  2  0
  6  7  1  0
  7  8  2  0
  8  9  1  0
  9 10  1  0
 10 11  1  0
 11 12  1  0
 12 13  1  0
 13 14  1  0
 14 15  1  0
 15 16  2  0
 16 17  1  0
 17 18  2  0
 18 19  1  0
 19 20  2  0
 13 21  1  0
 21 22  2  0
 21 23  1  0
 23 24  1  0
 24 25  2  0
 24 26  1  0
 26 27  1  0
 27 28  1  0
 28 29  1  0
 29 30  1  0
  9 31  2  0
 31  5  1  0
 23 10  1  0
 30 26  1  0
 20 15  1  0
  1 32  1  0
  6 33  1  0
  7 34  1  0
  8 35  1  0
 10 36  1  1
 11 37  1  0
 11 38  1  0
 12 39  1  0
 12 40  1  0
 14 41  1  0
 14 42  1  0
 16 43  1  0
 17 44  1  0
 18 45  1  0
 19 46  1  0
 20 47  1  0
 23 48  1  1
 27 49  1  0
 27 50  1  0
 28 51  1  0
 28 52  1  0
 29 53  1  0
 29 54  1  0
 30 55  1  0
 30 56  1  0
 31 57  1  0
M  CHG  2   1  -1  10   1
M  END
>  <UniqueID>  (45) 
43

>  <SMILES>  (45) 
[NH-]S(=O)(=O)c1cccc([N@@H+]2CCN(Cc3ccccc3)C(=O)[C@@H]2C(=O)N2CCCC2)c1

>  <Energy>  (45) 
72.59839865515877

>  <Genealogy>  (45) 
[NH-]S(=O)(=O)c1cccc([NH+]2CCN(Cc3ccccc3)C(=O)C2C(=O)N2CCCC2)c1 (protonated)
[NH-]S(=O)(=O)c1cccc([N@@H+]2CCN(Cc3ccccc3)C(=O)[C@@H]2C(=O)N2CCCC2)c1 (chirality)
[NH-]S(=O)(=O)c1cccc([N@@H+]2CCN(Cc3ccccc3)C(=O)[C@@H]2C(=O)N2CCCC2)c1 (3D coordinates assigned)
[NH-]S(=O)(=O)c1cccc([N@@H+]2CCN(Cc3ccccc3)C(=O)[C@@H]2C(=O)N2CCCC2)c1 (nonaromatic ring conformer: 72.59839865515877 kcal/mol)

>  <smiles>  (45) 
NS(=O)(=O)c1cccc(N2CCN(Cc3ccccc3)C(=O)C2C(=O)N2CCCC2)c1

>  <score_type>  (45) 
oracle

>  <origin>  (45) 
adg

>  <m_score__min__energy>  (45) 
-10.18

>  <m_primary>  (45) 
energy

$$$$
45:0
     RDKit          3D

 53 56  0  0  0  0  0  0  0  0999 V2000
   57.6310   33.8540   44.5260 H   0  0  0  0  0  0  0  0  0  0  0  0
   58.0780   32.9620   44.3720 O   0  0  0  0  0  0  0  0  0  0  0  0
   58.2550   31.9610   45.3380 C   0  0  0  0  0  0  0  0  0  0  0  0
   58.6240   32.3830   46.6260 C   0  0  0  0  0  0  0  0  0  0  0  0
   58.9410   34.1480   46.8900 S   0  0  0  0  0  0  0  0  0  0  0  0
   60.6560   33.8770   47.3630 C   0  0  0  0  0  0  0  0  0  0  0  0
   61.6070   33.5540   46.3880 C   0  0  0  0  0  0  0  0  0  0  0  0
   61.2875   33.3663   45.3523 H   0  0  0  0  0  0  0  0  0  0  0  0
   62.9610   33.4690   46.7250 C   0  0  0  0  0  0  0  0  0  0  0  0
   63.7032   33.2015   45.9584 H   0  0  0  0  0  0  0  0  0  0  0  0
   63.3710   33.7240   48.0360 C   0  0  0  0  0  0  0  0  0  0  0  0
   64.4396   33.6882   48.2944 H   0  0  0  0  0  0  0  0  0  0  0  0
   62.4230   34.0250   49.0210 C   0  0  0  0  0  0  0  0  0  0  0  0
   62.9700   34.4820   50.6660 S   0  0  0  0  0  0  0  0  0  0  0  0
   64.4020   33.4030   50.5620 C   0  0  0  0  0  0  0  0  0  0  0  0
   65.6730   33.8390   50.6550 N   0  0  0  0  0  0  0  0  0  0  0  0
   66.3690   32.6800   50.6040 C   0  0  0  0  0  0  0  0  0  0  0  0
   67.8500   32.6040   50.7570 C   0  0  0  0  0  0  0  0  0  0  0  0
   68.1080   32.5908   51.8262 H   0  0  0  0  0  0  0  0  0  0  0  0
   68.2214   31.6856   50.2788 H   0  0  0  0  0  0  0  0  0  0  0  0
   68.3134   33.4795   50.2788 H   0  0  0  0  0  0  0  0  0  0  0  0
   65.5770   31.5930   50.5010 N   0  0  0  0  0  0  0  0  0  0  0  0
   64.3440   32.0620   50.4670 N   0  0  0  0  0  0  0  0  0  0  0  0
   63.1520   31.2320   50.3530 C   0  0  0  0  0  0  0  0  0  0  0  0
   62.7854   30.9768   51.3582 H   0  0  0  0  0  0  0  0  0  0  0  0
   62.3721   31.7834   49.8074 H   0  0  0  0  0  0  0  0  0  0  0  0
   63.3985   30.3092   49.8074 H   0  0  0  0  0  0  0  0  0  0  0  0
   61.0620   34.0510   48.6940 C   0  0  0  0  0  0  0  0  0  0  0  0
   60.3105   34.2080   49.4817 H   0  0  0  0  0  0  0  0  0  0  0  0
   58.7720   31.4440   47.6610 C   0  0  0  0  0  0  0  0  0  0  0  0
   58.9680   31.8550   49.1040 C   0  0  0  0  0  0  0  0  0  0  0  0
   59.5852   32.7648   49.1408 H   0  0  0  0  0  0  0  0  0  0  0  0
   57.9838   32.0463   49.5566 H   0  0  0  0  0  0  0  0  0  0  0  0
   59.6630   30.7450   49.8850 C   0  0  0  0  0  0  0  0  0  0  0  0
   59.5482   30.9283   50.9635 H   0  0  0  0  0  0  0  0  0  0  0  0
   59.2098   29.7763   49.6274 H   0  0  0  0  0  0  0  0  0  0  0  0
   60.7323   30.7296   49.6274 H   0  0  0  0  0  0  0  0  0  0  0  0
   58.6860   30.0800   47.3650 C   0  0  0  0  0  0  0  0  0  0  0  0
   58.8595   29.3496   48.1690 H   0  0  0  0  0  0  0  0  0  0  0  0
   58.3840   29.6090   46.0690 C   0  0  0  0  0  0  0  0  0  0  0  0
   58.4540   28.2750   45.7950 C   0  0  0  0  0  0  0  0  0  0  0  0
   59.4180   27.8945   45.4262 H   0  0  0  0  0  0  0  0  0  0  0  0
   57.3600   27.2880   45.9450 C   0  0  0  0  0  0  0  0  0  0  0  0
   57.4660   26.0880   46.5480 N   0  0  0  0  0  0  0  0  0  0  0  0
   56.2000   25.6180   46.5380 C   0  0  0  0  0  0  0  0  0  0  0  0
   55.8920   24.4920   47.0090 O   0  0  0  0  0  0  0  0  0  0  0  0
   55.2890   26.4530   45.9930 N   0  0  0  0  0  0  0  0  0  0  0  0
   56.0380   27.5090   45.6370 C   0  0  0  0  0  0  0  0  0  0  0  0
   55.5200   28.6580   45.0500 O   0  0  0  0  0  0  0  0  0  0  0  0
   58.0650   30.5760   45.0540 C   0  0  0  0  0  0  0  0  0  0  0  0
   57.5070   30.2050   43.8790 C   0  0  0  0  0  0  0  0  0  0  0  0
   57.3575   29.1388   43.6535 H   0  0  0  0  0  0  0  0  0  0  0  0
   57.2027   30.9695   43.1490 H   0  0  0  0  0  0  0  0  0  0  0  0
  1  2  1  0
  2  3  1  0
  3  4  2  0
  4  5  1  0
  5  6  1  0
  6  7  2  0
  7  8  1  0
  7  9  1  0
  9 10  1  0
  9 11  2  0
 11 12  1  0
 11 13  1  0
 13 14  1  0
 14 15  1  0
 15 16  2  0
 16 17  1  0
 17 18  1  0
 18 19  1  0
 18 20  1  0
 18 21  1  0
 17 22  2  0
 22 23  1  0
 23 24  1  0
 24 25  1  0
 24 26  1  0
 24 27  1  0
 13 28  2  0
 28 29  1  0
  4 30  1  0
 30 31  1  0
 31 32  1  0
 31 33  1  0
 31 34  1  0
 34 35  1  0
 34 36  1  0
 34 37  1  0
 30 38  2  0
 38 39  1  0
 38 40  1  0
 40 41  2  0
 41 42  1  0
 41 43  1  0
 43 44  1  0
 44 45  1  0
 45 46  2  0
 45 47  1  0
 47 48  1  0
 48 49  1  0
 40 50  1  0
 50 51  2  0
 51 52  1  0
 51 53  1  0
 50  3  1  0
 28  6  1  0
 48 43  2  0
 23 15  1  0
M  CHG  3  44  -1  47  -1  49  -1
M  END
>  <UniqueID>  (46) 
44

>  <SMILES>  (46) 
C=c1c(O)c(Sc2cccc(Sc3nc(C)nn3C)c2)c(CC)c/c1=C\c1[n-]c(=O)[n-]c1[O-]

>  <Energy>  (46) 
126.64417807438619

>  <Genealogy>  (46) 
C=c1c(O)c(Sc2cccc(Sc3nc(C)nn3C)c2)c(CC)cc1=Cc1[n-]c(=O)[n-]c1[O-] (protonated)
C=c1c(O)c(Sc2cccc(Sc3nc(C)nn3C)c2)c(CC)c/c1=C\c1[n-]c(=O)[n-]c1[O-] (cis-trans isomerization)
C=c1c(O)c(Sc2cccc(Sc3nc(C)nn3C)c2)c(CC)c/c1=C\c1[n-]c(=O)[n-]c1[O-] (3D coordinates assigned)
C=c1c(O)c(Sc2cccc(Sc3nc(C)nn3C)c2)c(CC)c/c1=C\c1[n-]c(=O)[n-]c1[O-] (optimized conformer: 126.64417807438619 kcal/mol)

>  <smiles>  (46) 
C=c1c(O)c(Sc2cccc(Sc3nc(C)nn3C)c2)c(CC)cc1=Cc1[nH]c(=O)[nH]c1O

>  <score_type>  (46) 
oracle

>  <origin>  (46) 
adg

>  <m_score__min__energy>  (46) 
-17.120000000000001

>  <m_primary>  (46) 
energy

$$$$
46:0
     RDKit          3D

 65 68  0  0  0  0  0  0  0  0999 V2000
   57.0600   21.5650   43.2190 C   0  0  0  0  0  0  0  0  0  0  0  0
   55.8260   22.2720   43.3040 O   0  0  0  0  0  0  0  0  0  0  0  0
   55.5710   23.3140   44.2060 C   0  0  0  0  0  0  0  0  0  0  0  0
   54.2810   23.4400   44.7310 C   0  0  0  0  0  0  0  0  0  0  0  0
   53.9940   24.4690   45.6290 C   0  0  0  0  0  0  0  0  0  0  0  0
   54.9670   25.3450   45.9930 N   0  0  0  0  0  0  0  0  0  0  0  0
   56.2380   25.2500   45.5110 C   0  0  0  0  0  0  0  0  0  0  0  0
   57.2580   26.2690   45.9150 C   0  0  0  0  0  0  0  0  0  0  0  0
   56.6490   27.5950   45.8930 N   0  0  0  0  0  0  0  0  0  0  0  0
   57.3810   28.8250   45.9570 C   0  0  0  0  0  0  0  0  0  0  0  0
   58.0950   29.0550   46.9690 O   0  0  0  0  0  0  0  0  0  0  0  0
   57.3520   29.8130   44.8590 C   0  0  0  0  0  0  0  0  0  0  0  0
   56.6670   29.5170   43.6700 C   0  0  0  0  0  0  0  0  0  0  0  0
   56.6580   30.4340   42.6180 C   0  0  0  0  0  0  0  0  0  0  0  0
   57.3510   31.6410   42.7330 C   0  0  0  0  0  0  0  0  0  0  0  0
   58.0770   31.9340   43.9000 C   0  0  0  0  0  0  0  0  0  0  0  0
   58.8400   33.1460   44.0200 N   0  0  0  0  0  0  0  0  0  0  0  0
   58.6060   34.2680   45.3230 S   0  0  0  0  0  0  0  0  0  0  0  0
   57.1710   34.2280   45.7670 O   0  0  0  0  0  0  0  0  0  0  0  0
   58.9220   35.6630   44.8590 O   0  0  0  0  0  0  0  0  0  0  0  0
   59.6340   33.8110   46.6800 C   0  0  0  0  0  0  0  0  0  0  0  0
   61.0260   33.8290   46.5330 C   0  0  0  0  0  0  0  0  0  0  0  0
   61.8500   33.5380   47.6210 C   0  0  0  0  0  0  0  0  0  0  0  0
   61.2920   33.2360   48.8670 C   0  0  0  0  0  0  0  0  0  0  0  0
   59.8970   33.2090   49.0310 C   0  0  0  0  0  0  0  0  0  0  0  0
   59.3060   32.9490   50.3670 C   0  0  0  0  0  0  0  0  0  0  0  0
   59.6220   33.6890   51.3400 O   0  0  0  0  0  0  0  0  0  0  0  0
   58.3550   31.8880   50.5690 N   0  0  0  0  0  0  0  0  0  0  0  0
   57.1720   32.0940   51.4070 C   0  0  0  0  0  0  0  0  0  0  0  0
   57.1830   31.0860   52.5580 C   0  0  0  0  0  0  0  0  0  0  0  0
   57.3180   29.7130   52.0300 N   0  0  0  0  0  0  0  0  0  0  0  0
   57.2670   28.7440   53.1360 C   0  0  0  0  0  0  0  0  0  0  0  0
   58.5880   29.5640   51.2880 C   0  0  0  0  0  0  0  0  0  0  0  0
   58.6220   30.5270   50.0980 C   0  0  0  0  0  0  0  0  0  0  0  0
   59.0730   33.4950   47.9270 C   0  0  0  0  0  0  0  0  0  0  0  0
   58.0610   31.0190   44.9650 C   0  0  0  0  0  0  0  0  0  0  0  0
   56.5590   24.2360   44.5960 C   0  0  0  0  0  0  0  0  0  0  0  0
   57.4313   21.3523   44.2324 H   0  0  0  0  0  0  0  0  0  0  0  0
   56.9043   20.6191   42.6795 H   0  0  0  0  0  0  0  0  0  0  0  0
   57.7972   22.1777   42.6795 H   0  0  0  0  0  0  0  0  0  0  0  0
   53.4943   22.7297   44.4368 H   0  0  0  0  0  0  0  0  0  0  0  0
   52.9797   24.5710   46.0423 H   0  0  0  0  0  0  0  0  0  0  0  0
   57.6177   26.0465   46.9304 H   0  0  0  0  0  0  0  0  0  0  0  0
   58.1053   26.2406   45.2141 H   0  0  0  0  0  0  0  0  0  0  0  0
   56.1357   28.5593   43.5672 H   0  0  0  0  0  0  0  0  0  0  0  0
   56.1036   30.2055   41.6958 H   0  0  0  0  0  0  0  0  0  0  0  0
   57.3285   32.3660   41.9060 H   0  0  0  0  0  0  0  0  0  0  0  0
   59.3910   33.4760   43.1950 H   0  0  0  0  0  0  0  0  0  0  0  0
   61.4715   34.0732   45.5573 H   0  0  0  0  0  0  0  0  0  0  0  0
   62.9431   33.5462   47.4979 H   0  0  0  0  0  0  0  0  0  0  0  0
   61.9482   33.0186   49.7226 H   0  0  0  0  0  0  0  0  0  0  0  0
   57.1839   33.1159   51.8139 H   0  0  0  0  0  0  0  0  0  0  0  0
   56.2641   31.9516   50.8025 H   0  0  0  0  0  0  0  0  0  0  0  0
   58.0304   31.3043   53.2245 H   0  0  0  0  0  0  0  0  0  0  0  0
   56.2379   31.1658   53.1151 H   0  0  0  0  0  0  0  0  0  0  0  0
   57.2953   29.2810   54.0956 H   0  0  0  0  0  0  0  0  0  0  0  0
   56.3369   28.1605   53.0696 H   0  0  0  0  0  0  0  0  0  0  0  0
   58.1307   28.0661   53.0696 H   0  0  0  0  0  0  0  0  0  0  0  0
   59.4297   29.7872   51.9601 H   0  0  0  0  0  0  0  0  0  0  0  0
   58.6673   28.5317   50.9164 H   0  0  0  0  0  0  0  0  0  0  0  0
   59.6138   30.4902   49.6237 H   0  0  0  0  0  0  0  0  0  0  0  0
   57.8562   30.2339   49.3647 H   0  0  0  0  0  0  0  0  0  0  0  0
   57.9793   33.4707   48.0423 H   0  0  0  0  0  0  0  0  0  0  0  0
   58.6091   31.2498   45.8904 H   0  0  0  0  0  0  0  0  0  0  0  0
   57.5771   24.1625   44.1861 H   0  0  0  0  0  0  0  0  0  0  0  0
  1  2  1  0
  2  3  1  0
  3  4  2  0
  4  5  1  0
  5  6  2  0
  6  7  1  0
  7  8  1  0
  8  9  1  0
  9 10  1  0
 10 11  2  0
 10 12  1  0
 12 13  2  0
 13 14  1  0
 14 15  2  0
 15 16  1  0
 16 17  1  0
 17 18  1  0
 18 19  2  0
 18 20  2  0
 18 21  1  0
 21 22  2  0
 22 23  1  0
 23 24  2  0
 24 25  1  0
 25 26  1  0
 26 27  2  0
 26 28  1  0
 28 29  1  0
 29 30  1  0
 30 31  1  0
 31 32  1  0
 31 33  1  0
 33 34  1  0
 25 35  2  0
 16 36  2  0
  7 37  2  0
 37  3  1  0
 36 12  1  0
 35 21  1  0
 34 28  1  0
  1 38  1  0
  1 39  1  0
  1 40  1  0
  4 41  1  0
  5 42  1  0
  8 43  1  0
  8 44  1  0
 13 45  1  0
 14 46  1  0
 15 47  1  0
 17 48  1  0
 22 49  1  0
 23 50  1  0
 24 51  1  0
 29 52  1  0
 29 53  1  0
 30 54  1  0
 30 55  1  0
 32 56  1  0
 32 57  1  0
 32 58  1  0
 33 59  1  0
 33 60  1  0
 34 61  1  0
 34 62  1  0
 35 63  1  0
 36 64  1  0
 37 65  1  0
M  CHG  1   9  -1
M  END
>  <UniqueID>  (47) 
45

>  <SMILES>  (47) 
COc1ccnc(C[N-]C(=O)c2cccc(NS(=O)(=O)c3cccc(C(=O)N4CCN(C)CC4)c3)c2)c1

>  <Energy>  (47) 
78.48593512076532

>  <Genealogy>  (47) 
COc1ccnc(C[N-]C(=O)c2cccc(NS(=O)(=O)c3cccc(C(=O)N4CCN(C)CC4)c3)c2)c1 (protonated)
COc1ccnc(C[N-]C(=O)c2cccc(NS(=O)(=O)c3cccc(C(=O)N4CCN(C)CC4)c3)c2)c1 (3D coordinates assigned)
COc1ccnc(C[N-]C(=O)c2cccc(NS(=O)(=O)c3cccc(C(=O)N4CCN(C)CC4)c3)c2)c1 (nonaromatic ring conformer: 78.48593512076532 kcal/mol)

>  <smiles>  (47) 
COc1ccnc(CNC(=O)c2cccc(NS(=O)(=O)c3cccc(C(=O)N4CCN(C)CC4)c3)c2)c1

>  <score_type>  (47) 
oracle

>  <origin>  (47) 
adg

>  <m_score__min__energy>  (47) 
-14.16

>  <m_primary>  (47) 
energy

$$$$
47:0
     RDKit          3D

 45 47  0  0  0  0  0  0  0  0999 V2000
   52.1150   22.2120   45.2760 O   0  0  0  0  0  0  0  0  0  0  0  0
   52.1460   23.4380   44.9840 C   0  0  0  0  0  0  0  0  0  0  0  0
   51.0200   24.2230   45.1910 O   0  0  0  0  0  0  0  0  0  0  0  0
   53.3720   24.0320   44.3690 C   0  0  0  0  0  0  0  0  0  0  0  0
   54.5330   23.8980   45.3010 C   0  0  0  0  0  0  0  0  0  0  0  0
   55.1980   22.7420   45.5200 N   0  0  0  0  0  0  0  0  0  0  0  0
   56.1890   23.1000   46.3680 C   0  0  0  0  0  0  0  0  0  0  0  0
   57.0420   22.2810   46.8030 O   0  0  0  0  0  0  0  0  0  0  0  0
   56.1810   24.4120   46.6910 N   0  0  0  0  0  0  0  0  0  0  0  0
   57.1430   25.1430   47.5140 C   0  0  0  0  0  0  0  0  0  0  0  0
   57.7200   26.2860   46.7350 C   0  0  0  0  0  0  0  0  0  0  0  0
   58.9450   26.2710   46.4370 O   0  0  0  0  0  0  0  0  0  0  0  0
   56.9000   27.4210   46.4150 N   0  0  0  0  0  0  0  0  0  0  0  0
   57.3050   28.4900   45.5410 C   0  0  0  0  0  0  0  0  0  0  0  0
   58.5950   29.0240   45.6620 C   0  0  0  0  0  0  0  0  0  0  0  0
   59.0070   30.0810   44.8470 C   0  0  0  0  0  0  0  0  0  0  0  0
   58.1240   30.6310   43.8990 C   0  0  0  0  0  0  0  0  0  0  0  0
   58.4850   31.6910   43.0510 O   0  0  0  0  0  0  0  0  0  0  0  0
   58.1550   33.0650   43.2610 C   0  0  0  0  0  0  0  0  0  0  0  0
   58.4190   33.4660   44.6890 C   0  0  0  0  0  0  0  0  0  0  0  0
   59.5530   34.2320   45.0070 C   0  0  0  0  0  0  0  0  0  0  0  0
   59.7980   34.6130   46.3300 C   0  0  0  0  0  0  0  0  0  0  0  0
   58.9100   34.2380   47.3430 C   0  0  0  0  0  0  0  0  0  0  0  0
   57.7740   33.4860   47.0330 C   0  0  0  0  0  0  0  0  0  0  0  0
   57.5240   33.1040   45.7110 C   0  0  0  0  0  0  0  0  0  0  0  0
   56.8270   30.1150   43.7960 C   0  0  0  0  0  0  0  0  0  0  0  0
   56.4160   29.0560   44.6110 C   0  0  0  0  0  0  0  0  0  0  0  0
   55.1450   24.9160   46.0010 C   0  0  0  0  0  0  0  0  0  0  0  0
   54.7760   26.2560   45.9940 O   0  0  0  0  0  0  0  0  0  0  0  0
   53.5980   23.5071   43.4291 H   0  0  0  0  0  0  0  0  0  0  0  0
   53.1929   25.0988   44.1693 H   0  0  0  0  0  0  0  0  0  0  0  0
   56.6354   25.5317   48.4091 H   0  0  0  0  0  0  0  0  0  0  0  0
   57.9545   24.4625   47.8112 H   0  0  0  0  0  0  0  0  0  0  0  0
   55.9920   27.5240   46.9220 H   0  0  0  0  0  0  0  0  0  0  0  0
   59.2897   28.6068   46.4058 H   0  0  0  0  0  0  0  0  0  0  0  0
   60.0253   30.4850   44.9465 H   0  0  0  0  0  0  0  0  0  0  0  0
   58.7661   33.6890   42.5923 H   0  0  0  0  0  0  0  0  0  0  0  0
   57.0856   33.2077   43.0465 H   0  0  0  0  0  0  0  0  0  0  0  0
   60.2510   34.5333   44.2120 H   0  0  0  0  0  0  0  0  0  0  0  0
   60.6902   35.2083   46.5741 H   0  0  0  0  0  0  0  0  0  0  0  0
   59.1058   34.5350   48.3839 H   0  0  0  0  0  0  0  0  0  0  0  0
   57.0748   33.1938   47.8303 H   0  0  0  0  0  0  0  0  0  0  0  0
   56.6244   32.5186   45.4702 H   0  0  0  0  0  0  0  0  0  0  0  0
   56.1249   30.5465   43.0674 H   0  0  0  0  0  0  0  0  0  0  0  0
   55.3920   28.6639   44.5240 H   0  0  0  0  0  0  0  0  0  0  0  0
  1  2  2  0
  2  3  1  0
  2  4  1  0
  4  5  1  0
  5  6  1  0
  6  7  1  0
  7  8  2  0
  7  9  1  0
  9 10  1  0
 10 11  1  0
 11 12  2  0
 11 13  1  0
 13 14  1  0
 14 15  2  0
 15 16  1  0
 16 17  2  0
 17 18  1  0
 18 19  1  0
 19 20  1  0
 20 21  2  0
 21 22  1  0
 22 23  2  0
 23 24  1  0
 24 25  2  0
 17 26  1  0
 26 27  2  0
  9 28  1  0
 28 29  1  0
 28  5  2  0
 27 14  1  0
 25 20  1  0
  4 30  1  0
  4 31  1  0
 10 32  1  0
 10 33  1  0
 13 34  1  0
 15 35  1  0
 16 36  1  0
 19 37  1  0
 19 38  1  0
 21 39  1  0
 22 40  1  0
 23 41  1  0
 24 42  1  0
 25 43  1  0
 26 44  1  0
 27 45  1  0
M  CHG  3   3  -1   6  -1  29  -1
M  END
>  <UniqueID>  (48) 
46

>  <SMILES>  (48) 
O=C([O-])Cc1[n-]c(=O)n(CC(=O)Nc2ccc(OCc3ccccc3)cc2)c1[O-]

>  <Energy>  (48) 
78.58459746381183

>  <Genealogy>  (48) 
O=C([O-])Cc1[n-]c(=O)n(CC(=O)Nc2ccc(OCc3ccccc3)cc2)c1[O-] (protonated)
O=C([O-])Cc1[n-]c(=O)n(CC(=O)Nc2ccc(OCc3ccccc3)cc2)c1[O-] (3D coordinates assigned)
O=C([O-])Cc1[n-]c(=O)n(CC(=O)Nc2ccc(OCc3ccccc3)cc2)c1[O-] (optimized conformer: 78.58459746381183 kcal/mol)

>  <smiles>  (48) 
O=C(O)Cc1[nH]c(=O)n(CC(=O)Nc2ccc(OCc3ccccc3)cc2)c1O

>  <score_type>  (48) 
oracle

>  <origin>  (48) 
adg

>  <m_score__min__energy>  (48) 
-15.41

>  <m_primary>  (48) 
energy

$$$$
48:0
     RDKit          3D

 53 56  0  0  0  0  0  0  0  0999 V2000
   59.8710   30.1430   48.9610 O   0  0  0  0  0  0  0  0  0  0  0  0
   60.1980   29.7670   47.8020 C   0  0  0  0  0  0  0  0  0  0  0  0
   59.3610   28.7070   47.1320 C   0  0  0  0  0  0  0  0  0  0  0  0
   58.5910   29.2420   45.9930 N   0  0  0  0  0  0  0  0  0  0  0  0
   58.7620   30.5640   45.6790 C   0  0  0  0  0  0  0  0  0  0  0  0
   58.0990   31.1420   44.5900 C   0  0  0  0  0  0  0  0  0  0  0  0
   58.3430   32.5590   44.2580 C   0  0  0  0  0  0  0  0  0  0  0  0
   58.0940   32.9640   43.0900 O   0  0  0  0  0  0  0  0  0  0  0  0
   58.8240   33.4840   45.2480 N   0  0  0  0  0  0  0  0  0  0  0  0
   58.7530   33.2450   46.6820 C   0  0  0  0  0  0  0  0  0  0  0  0
   59.0150   34.5950   47.3350 C   0  0  0  0  0  0  0  0  0  0  0  0
   59.6480   35.4660   46.2530 C   0  0  0  0  0  0  0  0  0  0  0  0
   59.2430   34.8360   44.9260 C   0  0  0  0  0  0  0  0  0  0  0  0
   57.2120   30.3570   43.8420 C   0  0  0  0  0  0  0  0  0  0  0  0
   56.5600   30.8550   42.8850 O   0  0  0  0  0  0  0  0  0  0  0  0
   57.0350   29.0140   44.1690 C   0  0  0  0  0  0  0  0  0  0  0  0
   57.7440   28.4540   45.2410 C   0  0  0  0  0  0  0  0  0  0  0  0
   57.5340   27.0190   45.5340 C   0  0  0  0  0  0  0  0  0  0  0  0
   58.5660   26.0890   45.3290 C   0  0  0  0  0  0  0  0  0  0  0  0
   58.3560   24.7340   45.6060 C   0  0  0  0  0  0  0  0  0  0  0  0
   57.1150   24.3000   46.0830 C   0  0  0  0  0  0  0  0  0  0  0  0
   56.0810   25.2200   46.2800 C   0  0  0  0  0  0  0  0  0  0  0  0
   56.2860   26.5750   46.0020 C   0  0  0  0  0  0  0  0  0  0  0  0
   61.3600   30.3290   47.1650 N   0  0  0  0  0  0  0  0  0  0  0  0
   62.0170   31.5160   47.6370 C   0  0  0  0  0  0  0  0  0  0  0  0
   62.0300   32.6590   46.8240 C   0  0  0  0  0  0  0  0  0  0  0  0
   62.6470   33.8340   47.2650 C   0  0  0  0  0  0  0  0  0  0  0  0
   63.2400   33.8810   48.5300 C   0  0  0  0  0  0  0  0  0  0  0  0
   63.2080   32.7560   49.3600 C   0  0  0  0  0  0  0  0  0  0  0  0
   62.5940   31.5770   48.9220 C   0  0  0  0  0  0  0  0  0  0  0  0
   62.5230   30.5180   49.7670 F   0  0  0  0  0  0  0  0  0  0  0  0
   60.0250   27.9094   46.7673 H   0  0  0  0  0  0  0  0  0  0  0  0
   58.6446   28.3238   47.8736 H   0  0  0  0  0  0  0  0  0  0  0  0
   59.4324   31.1828   46.2936 H   0  0  0  0  0  0  0  0  0  0  0  0
   57.7567   32.8707   46.9601 H   0  0  0  0  0  0  0  0  0  0  0  0
   59.4825   32.4878   47.0053 H   0  0  0  0  0  0  0  0  0  0  0  0
   58.0718   35.0416   47.6827 H   0  0  0  0  0  0  0  0  0  0  0  0
   59.6716   34.4991   48.2123 H   0  0  0  0  0  0  0  0  0  0  0  0
   59.2688   36.4964   46.3198 H   0  0  0  0  0  0  0  0  0  0  0  0
   60.7415   35.5165   46.3611 H   0  0  0  0  0  0  0  0  0  0  0  0
   58.4132   35.3973   44.4718 H   0  0  0  0  0  0  0  0  0  0  0  0
   60.0710   34.8441   44.2019 H   0  0  0  0  0  0  0  0  0  0  0  0
   56.3389   28.3932   43.5859 H   0  0  0  0  0  0  0  0  0  0  0  0
   59.5417   26.4268   44.9497 H   0  0  0  0  0  0  0  0  0  0  0  0
   59.1680   24.0089   45.4484 H   0  0  0  0  0  0  0  0  0  0  0  0
   56.9525   23.2346   46.3032 H   0  0  0  0  0  0  0  0  0  0  0  0
   55.1049   24.8776   46.6542 H   0  0  0  0  0  0  0  0  0  0  0  0
   55.4679   27.2952   46.1501 H   0  0  0  0  0  0  0  0  0  0  0  0
   61.8320   29.7920   46.4040 H   0  0  0  0  0  0  0  0  0  0  0  0
   61.5520   32.6310   45.8337 H   0  0  0  0  0  0  0  0  0  0  0  0
   62.6657   34.7219   46.6159 H   0  0  0  0  0  0  0  0  0  0  0  0
   63.7320   34.8032   48.8727 H   0  0  0  0  0  0  0  0  0  0  0  0
   63.6663   32.7978   50.3591 H   0  0  0  0  0  0  0  0  0  0  0  0
  1  2  2  0
  2  3  1  0
  3  4  1  0
  4  5  1  0
  5  6  2  0
  6  7  1  0
  7  8  2  0
  7  9  1  0
  9 10  1  0
 10 11  1  0
 11 12  1  0
 12 13  1  0
  6 14  1  0
 14 15  2  0
 14 16  1  0
 16 17  2  0
 17 18  1  0
 18 19  2  0
 19 20  1  0
 20 21  2  0
 21 22  1  0
 22 23  2  0
  2 24  1  0
 24 25  1  0
 25 26  2  0
 26 27  1  0
 27 28  2  0
 28 29  1  0
 29 30  2  0
 30 31  1  0
 17  4  1  0
 23 18  1  0
 30 25  1  0
 13  9  1  0
  3 32  1  0
  3 33  1  0
  5 34  1  0
 10 35  1  0
 10 36  1  0
 11 37  1  0
 11 38  1  0
 12 39  1  0
 12 40  1  0
 13 41  1  0
 13 42  1  0
 16 43  1  0
 19 44  1  0
 20 45  1  0
 21 46  1  0
 22 47  1  0
 23 48  1  0
 24 49  1  0
 26 50  1  0
 27 51  1  0
 28 52  1  0
 29 53  1  0
M  END
>  <UniqueID>  (49) 
47

>  <SMILES>  (49) 
O=C(Cn1cc(C(=O)N2CCCC2)c(=O)cc1-c1ccccc1)Nc1ccccc1F

>  <Energy>  (49) 
76.06674612248655

>  <Genealogy>  (49) 
O=C(Cn1cc(C(=O)N2CCCC2)c(=O)cc1-c1ccccc1)Nc1ccccc1F (3D coordinates assigned)
O=C(Cn1cc(C(=O)N2CCCC2)c(=O)cc1-c1ccccc1)Nc1ccccc1F (nonaromatic ring conformer: 76.06674612248655 kcal/mol)

>  <smiles>  (49) 
O=C(Cn1cc(C(=O)N2CCCC2)c(=O)cc1-c1ccccc1)Nc1ccccc1F

>  <score_type>  (49) 
oracle

>  <origin>  (49) 
adg

>  <m_score__min__energy>  (49) 
-8.5600000000000005

>  <m_primary>  (49) 
energy

$$$$
49:0
     RDKit          3D

 40 43  0  0  0  0  0  0  0  0999 V2000
   56.8820   25.7050   54.6810 N   0  0  0  0  0  0  0  0  0  0  0  0
   57.6630   26.7760   54.1560 C   0  0  0  0  0  0  0  0  0  0  0  0
   58.9210   26.7080   54.2040 O   0  0  0  0  0  0  0  0  0  0  0  0
   56.9950   27.9510   53.5660 C   0  0  0  0  0  0  0  0  0  0  0  0
   57.7360   29.0140   53.0290 C   0  0  0  0  0  0  0  0  0  0  0  0
   57.0780   30.1160   52.4620 C   0  0  0  0  0  0  0  0  0  0  0  0
   57.9000   31.1960   51.8670 C   0  0  0  0  0  0  0  0  0  0  0  0
   58.4670   31.0300   50.5940 C   0  0  0  0  0  0  0  0  0  0  0  0
   59.2260   32.0570   50.0220 C   0  0  0  0  0  0  0  0  0  0  0  0
   59.4140   33.2580   50.7140 C   0  0  0  0  0  0  0  0  0  0  0  0
   60.1480   34.2520   50.1590 F   0  0  0  0  0  0  0  0  0  0  0  0
   58.8400   33.4340   51.9770 C   0  0  0  0  0  0  0  0  0  0  0  0
   58.0810   32.4090   52.5510 C   0  0  0  0  0  0  0  0  0  0  0  0
   55.6620   30.1510   52.4640 C   0  0  0  0  0  0  0  0  0  0  0  0
   54.9280   31.2480   51.9690 C   0  0  0  0  0  0  0  0  0  0  0  0
   53.5310   31.2330   51.9920 C   0  0  0  0  0  0  0  0  0  0  0  0
   52.8370   30.1310   52.5130 C   0  0  0  0  0  0  0  0  0  0  0  0
   51.3330   30.1320   52.5680 C   0  0  0  0  0  0  0  0  0  0  0  0
   50.8440   31.4230   53.0560 N   0  0  0  0  0  0  0  0  0  0  0  0
   50.6960   32.5530   52.3460 C   0  0  0  0  0  0  0  0  0  0  0  0
   51.0430   32.7000   51.0080 O   0  0  0  0  0  0  0  0  0  0  0  0
   50.1510   33.5280   53.1450 C   0  0  0  0  0  0  0  0  0  0  0  0
   49.9390   33.0170   54.3760 N   0  0  0  0  0  0  0  0  0  0  0  0
   50.3680   31.7380   54.2840 C   0  0  0  0  0  0  0  0  0  0  0  0
   50.3070   30.6990   55.5480 S   0  0  0  0  0  0  0  0  0  0  0  0
   53.5590   29.0460   53.0280 C   0  0  0  0  0  0  0  0  0  0  0  0
   54.9590   29.0530   53.0110 C   0  0  0  0  0  0  0  0  0  0  0  0
   55.6380   28.0000   53.5380 N   0  0  0  0  0  0  0  0  0  0  0  0
   55.8410   25.7160   54.6110 H   0  0  0  0  0  0  0  0  0  0  0  0
   58.8353   28.9837   53.0524 H   0  0  0  0  0  0  0  0  0  0  0  0
   58.3143   30.0896   50.0442 H   0  0  0  0  0  0  0  0  0  0  0  0
   59.6752   31.9198   49.0273 H   0  0  0  0  0  0  0  0  0  0  0  0
   58.9856   34.3797   52.5197 H   0  0  0  0  0  0  0  0  0  0  0  0
   57.6244   32.5535   53.5413 H   0  0  0  0  0  0  0  0  0  0  0  0
   55.4585   32.1215   51.5620 H   0  0  0  0  0  0  0  0  0  0  0  0
   52.9703   32.0934   51.5979 H   0  0  0  0  0  0  0  0  0  0  0  0
   50.9327   29.9498   51.5597 H   0  0  0  0  0  0  0  0  0  0  0  0
   50.9992   29.3399   53.2544 H   0  0  0  0  0  0  0  0  0  0  0  0
   49.9241   34.5580   52.8325 H   0  0  0  0  0  0  0  0  0  0  0  0
   53.0221   28.1829   53.4485 H   0  0  0  0  0  0  0  0  0  0  0  0
  1  2  1  0
  2  3  2  0
  2  4  1  0
  4  5  2  0
  5  6  1  0
  6  7  1  0
  7  8  2  0
  8  9  1  0
  9 10  2  0
 10 11  1  0
 10 12  1  0
 12 13  2  0
  6 14  2  0
 14 15  1  0
 15 16  2  0
 16 17  1  0
 17 18  1  0
 18 19  1  0
 19 20  1  0
 20 21  1  0
 20 22  2  0
 22 23  1  0
 23 24  1  0
 24 25  2  0
 17 26  2  0
 26 27  1  0
 27 28  2  0
 28  4  1  0
 13  7  1  0
 27 14  1  0
 24 19  1  0
  1 29  1  0
  5 30  1  0
  8 31  1  0
  9 32  1  0
 12 33  1  0
 13 34  1  0
 15 35  1  0
 16 36  1  0
 18 37  1  0
 18 38  1  0
 22 39  1  0
 26 40  1  0
M  CHG  3   1  -1  21  -1  23  -1
M  END
>  <UniqueID>  (50) 
48

>  <SMILES>  (50) 
[NH-]C(=O)c1cc(-c2ccc(F)cc2)c2ccc(Cn3c([O-])c[n-]c3=S)cc2n1

>  <Energy>  (50) 
86.34869389359262

>  <Genealogy>  (50) 
[NH-]C(=O)c1cc(-c2ccc(F)cc2)c2ccc(Cn3c([O-])c[n-]c3=S)cc2n1 (protonated)
[NH-]C(=O)c1cc(-c2ccc(F)cc2)c2ccc(Cn3c([O-])c[n-]c3=S)cc2n1 (3D coordinates assigned)
[NH-]C(=O)c1cc(-c2ccc(F)cc2)c2ccc(Cn3c([O-])c[n-]c3=S)cc2n1 (optimized conformer: 86.34869389359262 kcal/mol)

>  <smiles>  (50) 
NC(=O)c1cc(-c2ccc(F)cc2)c2ccc(Cn3c(O)c[nH]c3=S)cc2n1

>  <score_type>  (50) 
oracle

>  <origin>  (50) 
adg

>  <m_score__min__energy>  (50) 
-13.949999999999999

>  <m_primary>  (50) 
energy

$$$$
50:0
     RDKit          3D

 62 65  0  0  0  0  0  0  0  0999 V2000
   56.9920   34.4160   44.8760 C   0  0  0  0  0  0  0  0  0  0  0  0
   58.1570   34.0840   45.7610 C   0  0  0  0  0  0  0  0  0  0  0  0
   59.4550   34.4670   45.3920 C   0  0  0  0  0  0  0  0  0  0  0  0
   60.5380   34.1910   46.2330 C   0  0  0  0  0  0  0  0  0  0  0  0
   60.3350   33.5280   47.4540 C   0  0  0  0  0  0  0  0  0  0  0  0
   61.4950   33.2530   48.3690 C   0  0  0  0  0  0  0  0  0  0  0  0
   61.7950   31.4960   48.4870 S   0  0  0  0  0  0  0  0  0  0  0  0
   63.1650   31.2560   49.0580 O   0  0  0  0  0  0  0  0  0  0  0  0
   61.7140   30.8750   47.1200 O   0  0  0  0  0  0  0  0  0  0  0  0
   60.5830   30.7460   49.5580 C   0  0  0  0  0  0  0  0  0  0  0  0
   60.5440   29.2680   49.3420 C   0  0  0  0  0  0  0  0  0  0  0  0
   60.9170   28.3080   50.2620 C   0  0  0  0  0  0  0  0  0  0  0  0
   60.7460   27.0970   49.6260 C   0  0  0  0  0  0  0  0  0  0  0  0
   60.2870   27.3970   48.3550 C   0  0  0  0  0  0  0  0  0  0  0  0
   59.9560   26.4410   47.2850 C   0  0  0  0  0  0  0  0  0  0  0  0
   60.8090   26.2230   46.3820 O   0  0  0  0  0  0  0  0  0  0  0  0
   58.7020   25.7390   47.2780 N   0  0  0  0  0  0  0  0  0  0  0  0
   58.2350   24.9610   46.1590 C   0  0  0  0  0  0  0  0  0  0  0  0
   58.6910   23.6420   45.9760 C   0  0  0  0  0  0  0  0  0  0  0  0
   58.2900   22.9010   44.8620 C   0  0  0  0  0  0  0  0  0  0  0  0
   57.4400   23.4680   43.9130 C   0  0  0  0  0  0  0  0  0  0  0  0
   56.9910   24.7800   44.0720 C   0  0  0  0  0  0  0  0  0  0  0  0
   57.3880   25.5400   45.1840 C   0  0  0  0  0  0  0  0  0  0  0  0
   56.8650   26.9140   45.3390 C   0  0  0  0  0  0  0  0  0  0  0  0
   55.7710   27.0820   45.9460 O   0  0  0  0  0  0  0  0  0  0  0  0
   57.5850   28.0530   44.8220 N   0  0  0  0  0  0  0  0  0  0  0  0
   56.8920   29.3260   44.5740 C   0  0  0  0  0  0  0  0  0  0  0  0
   57.5070   30.4490   45.4240 C   0  0  0  0  0  0  0  0  0  0  0  0
   59.0440   30.3510   45.5520 C   0  0  0  0  0  0  0  0  0  0  0  0
   59.6650   29.3910   44.5310 C   0  0  0  0  0  0  0  0  0  0  0  0
   59.0490   27.9910   44.6740 C   0  0  0  0  0  0  0  0  0  0  0  0
   60.1770   28.7000   48.2180 O   0  0  0  0  0  0  0  0  0  0  0  0
   59.0320   33.1720   47.8370 C   0  0  0  0  0  0  0  0  0  0  0  0
   57.9500   33.4510   46.9960 C   0  0  0  0  0  0  0  0  0  0  0  0
   56.1189   34.6648   45.4971 H   0  0  0  0  0  0  0  0  0  0  0  0
   57.2476   35.2771   44.2410 H   0  0  0  0  0  0  0  0  0  0  0  0
   56.7553   33.5496   44.2410 H   0  0  0  0  0  0  0  0  0  0  0  0
   59.6219   34.9867   44.4370 H   0  0  0  0  0  0  0  0  0  0  0  0
   61.5529   34.4946   45.9367 H   0  0  0  0  0  0  0  0  0  0  0  0
   62.3939   33.7480   47.9729 H   0  0  0  0  0  0  0  0  0  0  0  0
   61.2585   33.6418   49.3704 H   0  0  0  0  0  0  0  0  0  0  0  0
   60.8470   30.9528   50.6056 H   0  0  0  0  0  0  0  0  0  0  0  0
   59.5932   31.1674   49.3286 H   0  0  0  0  0  0  0  0  0  0  0  0
   61.2758   28.4749   51.2884 H   0  0  0  0  0  0  0  0  0  0  0  0
   60.9355   26.0970   50.0431 H   0  0  0  0  0  0  0  0  0  0  0  0
   58.1290   25.7320   48.1500 H   0  0  0  0  0  0  0  0  0  0  0  0
   59.3685   23.1912   46.7161 H   0  0  0  0  0  0  0  0  0  0  0  0
   58.6454   21.8680   44.7330 H   0  0  0  0  0  0  0  0  0  0  0  0
   57.1231   22.8809   43.0384 H   0  0  0  0  0  0  0  0  0  0  0  0
   56.3208   25.2222   43.3202 H   0  0  0  0  0  0  0  0  0  0  0  0
   56.9837   29.5865   43.5092 H   0  0  0  0  0  0  0  0  0  0  0  0
   55.8325   29.2130   44.8472 H   0  0  0  0  0  0  0  0  0  0  0  0
   57.2567   31.4144   44.9599 H   0  0  0  0  0  0  0  0  0  0  0  0
   57.0903   30.3542   46.4376 H   0  0  0  0  0  0  0  0  0  0  0  0
   59.4739   31.3520   45.3999 H   0  0  0  0  0  0  0  0  0  0  0  0
   59.2685   29.9586   46.5548 H   0  0  0  0  0  0  0  0  0  0  0  0
   59.4758   29.7689   43.5154 H   0  0  0  0  0  0  0  0  0  0  0  0
   60.7480   29.3262   44.7127 H   0  0  0  0  0  0  0  0  0  0  0  0
   59.2921   27.4012   43.7779 H   0  0  0  0  0  0  0  0  0  0  0  0
   59.4658   27.5235   45.5783 H   0  0  0  0  0  0  0  0  0  0  0  0
   58.8616   32.6719   48.8018 H   0  0  0  0  0  0  0  0  0  0  0  0
   56.9314   33.1728   47.3043 H   0  0  0  0  0  0  0  0  0  0  0  0
  1  2  1  0
  2  3  2  0
  3  4  1  0
  4  5  2  0
  5  6  1  0
  6  7  1  0
  7  8  2  0
  7  9  2  0
  7 10  1  0
 10 11  1  0
 11 12  2  0
 12 13  1  0
 13 14  2  0
 14 15  1  0
 15 16  2  0
 15 17  1  0
 17 18  1  0
 18 19  2  0
 19 20  1  0
 20 21  2  0
 21 22  1  0
 22 23  2  0
 23 24  1  0
 24 25  2  0
 24 26  1  0
 26 27  1  0
 27 28  1  0
 28 29  1  0
 29 30  1  0
 30 31  1  0
 14 32  1  0
  5 33  1  0
 33 34  2  0
 34  2  1  0
 32 11  1  0
 23 18  1  0
 31 26  1  0
  1 35  1  0
  1 36  1  0
  1 37  1  0
  3 38  1  0
  4 39  1  0
  6 40  1  0
  6 41  1  0
 10 42  1  0
 10 43  1  0
 12 44  1  0
 13 45  1  0
 17 46  1  0
 19 47  1  0
 20 48  1  0
 21 49  1  0
 22 50  1  0
 27 51  1  0
 27 52  1  0
 28 53  1  0
 28 54  1  0
 29 55  1  0
 29 56  1  0
 30 57  1  0
 30 58  1  0
 31 59  1  0
 31 60  1  0
 33 61  1  0
 34 62  1  0
M  END
>  <UniqueID>  (51) 
49

>  <SMILES>  (51) 
Cc1ccc(CS(=O)(=O)Cc2ccc(C(=O)Nc3ccccc3C(=O)N3CCCCC3)o2)cc1

>  <Energy>  (51) 
91.36427280401053

>  <Genealogy>  (51) 
Cc1ccc(CS(=O)(=O)Cc2ccc(C(=O)Nc3ccccc3C(=O)N3CCCCC3)o2)cc1 (3D coordinates assigned)
Cc1ccc(CS(=O)(=O)Cc2ccc(C(=O)Nc3ccccc3C(=O)N3CCCCC3)o2)cc1 (nonaromatic ring conformer: 91.36427280401053 kcal/mol)

>  <smiles>  (51) 
Cc1ccc(CS(=O)(=O)Cc2ccc(C(=O)Nc3ccccc3C(=O)N3CCCCC3)o2)cc1

>  <score_type>  (51) 
oracle

>  <origin>  (51) 
adg

>  <m_score__min__energy>  (51) 
-9.5999999999999996

>  <m_primary>  (51) 
energy

$$$$
51:0
     RDKit          3D

 44 47  0  0  0  0  0  0  0  0999 V2000
   64.0660   32.0200   52.7090 C   0  0  0  0  0  0  0  0  0  0  0  0
   64.9820   33.0030   52.1050 N   0  0  0  0  0  0  0  0  0  0  0  0
   64.3340   34.3190   51.9230 C   0  0  0  0  0  0  0  0  0  0  0  0
   63.2220   34.2680   50.8610 C   0  0  0  0  0  0  0  0  0  0  0  0
   63.6060   33.3900   49.7510 N   0  0  0  0  0  0  0  0  0  0  0  0
   62.6000   32.8450   48.8750 C   0  0  0  0  0  0  0  0  0  0  0  0
   62.3770   31.4590   48.8260 C   0  0  0  0  0  0  0  0  0  0  0  0
   61.4130   30.9240   47.9680 C   0  0  0  0  0  0  0  0  0  0  0  0
   60.6630   31.7670   47.1430 C   0  0  0  0  0  0  0  0  0  0  0  0
   59.7260   31.2390   46.3120 N   0  0  0  0  0  0  0  0  0  0  0  0
   58.9660   32.0090   45.4840 C   0  0  0  0  0  0  0  0  0  0  0  0
   57.9650   31.3550   44.6020 C   0  0  0  0  0  0  0  0  0  0  0  0
   57.9170   31.6250   43.2190 C   0  0  0  0  0  0  0  0  0  0  0  0
   56.9610   31.0040   42.4090 C   0  0  0  0  0  0  0  0  0  0  0  0
   56.0400   30.1140   42.9660 C   0  0  0  0  0  0  0  0  0  0  0  0
   56.0700   29.8450   44.3360 C   0  0  0  0  0  0  0  0  0  0  0  0
   55.1510   28.9620   44.8910 O   0  0  0  0  0  0  0  0  0  0  0  0
   57.0230   30.4650   45.1520 C   0  0  0  0  0  0  0  0  0  0  0  0
   59.1620   33.4020   45.4730 C   0  0  0  0  0  0  0  0  0  0  0  0
   60.1160   33.9780   46.3160 C   0  0  0  0  0  0  0  0  0  0  0  0
   60.2820   35.2280   46.2980 O   0  0  0  0  0  0  0  0  0  0  0  0
   60.8800   33.1610   47.1700 C   0  0  0  0  0  0  0  0  0  0  0  0
   61.8530   33.6910   48.0370 C   0  0  0  0  0  0  0  0  0  0  0  0
   65.0260   33.0730   49.5670 C   0  0  0  0  0  0  0  0  0  0  0  0
   65.6120   32.4800   50.8630 C   0  0  0  0  0  0  0  0  0  0  0  0
   64.1279   32.0864   53.8052 H   0  0  0  0  0  0  0  0  0  0  0  0
   63.0360   32.2321   52.3864 H   0  0  0  0  0  0  0  0  0  0  0  0
   64.3501   31.0075   52.3864 H   0  0  0  0  0  0  0  0  0  0  0  0
   63.8965   34.6357   52.8813 H   0  0  0  0  0  0  0  0  0  0  0  0
   65.0992   35.0319   51.5820 H   0  0  0  0  0  0  0  0  0  0  0  0
   62.2996   33.8851   51.3220 H   0  0  0  0  0  0  0  0  0  0  0  0
   63.0597   35.2831   50.4695 H   0  0  0  0  0  0  0  0  0  0  0  0
   62.9666   30.7889   49.4689 H   0  0  0  0  0  0  0  0  0  0  0  0
   61.2439   29.8374   47.9416 H   0  0  0  0  0  0  0  0  0  0  0  0
   58.6361   32.3286   42.7743 H   0  0  0  0  0  0  0  0  0  0  0  0
   56.9343   31.2171   41.3302 H   0  0  0  0  0  0  0  0  0  0  0  0
   55.2911   29.6250   42.3257 H   0  0  0  0  0  0  0  0  0  0  0  0
   57.0362   30.2553   46.2317 H   0  0  0  0  0  0  0  0  0  0  0  0
   58.5651   34.0369   44.8017 H   0  0  0  0  0  0  0  0  0  0  0  0
   62.0307   34.7763   48.0593 H   0  0  0  0  0  0  0  0  0  0  0  0
   65.1323   32.3415   48.7524 H   0  0  0  0  0  0  0  0  0  0  0  0
   65.5699   33.9958   49.3169 H   0  0  0  0  0  0  0  0  0  0  0  0
   65.4740   31.3890   50.8378 H   0  0  0  0  0  0  0  0  0  0  0  0
   66.6722   32.7714   50.8961 H   0  0  0  0  0  0  0  0  0  0  0  0
  1  2  1  0
  2  3  1  0
  3  4  1  0
  4  5  1  0
  5  6  1  0
  6  7  2  0
  7  8  1  0
  8  9  2  0
  9 10  1  0
 10 11  1  0
 11 12  1  0
 12 13  2  0
 13 14  1  0
 14 15  2  0
 15 16  1  0
 16 17  1  0
 16 18  2  0
 11 19  2  0
 19 20  1  0
 20 21  2  0
 20 22  1  0
 22 23  2  0
  5 24  1  0
 24 25  1  0
 25  2  1  0
 23  6  1  0
 22  9  1  0
 18 12  1  0
  1 26  1  0
  1 27  1  0
  1 28  1  0
  3 29  1  0
  3 30  1  0
  4 31  1  0
  4 32  1  0
  7 33  1  0
  8 34  1  0
 13 35  1  0
 14 36  1  0
 15 37  1  0
 18 38  1  0
 19 39  1  0
 23 40  1  0
 24 41  1  0
 24 42  1  0
 25 43  1  0
 25 44  1  0
M  CHG  2  10  -1  17  -1
M  END
>  <UniqueID>  (52) 
50

>  <SMILES>  (52) 
CN1CCN(c2ccc3[n-]c(-c4cccc([O-])c4)cc(=O)c3c2)CC1

>  <Energy>  (52) 
67.48112951962159

>  <Genealogy>  (52) 
CN1CCN(c2ccc3[n-]c(-c4cccc([O-])c4)cc(=O)c3c2)CC1 (protonated)
CN1CCN(c2ccc3[n-]c(-c4cccc([O-])c4)cc(=O)c3c2)CC1 (3D coordinates assigned)
CN1CCN(c2ccc3[n-]c(-c4cccc([O-])c4)cc(=O)c3c2)CC1 (nonaromatic ring conformer: 67.48112951962159 kcal/mol)

>  <smiles>  (52) 
CN1CCN(c2ccc3[nH]c(-c4cccc(O)c4)cc(=O)c3c2)CC1

>  <score_type>  (52) 
oracle

>  <origin>  (52) 
adg

>  <m_score__min__energy>  (52) 
-12.039999999999999

>  <m_primary>  (52) 
energy

$$$$
52:0
     RDKit          3D

 52 55  0  0  0  0  0  0  0  0999 V2000
   58.0060   30.1610   44.8150 C   0  0  0  0  0  0  0  0  0  0  0  0
   58.3670   29.6070   45.9830 C   0  0  0  0  0  0  0  0  0  0  0  0
   58.2230   28.2650   46.3710 C   0  0  0  0  0  0  0  0  0  0  0  0
   57.8790   27.1720   45.6640 C   0  0  0  0  0  0  0  0  0  0  0  0
   57.1980   25.9830   46.1990 C   0  0  0  0  0  0  0  0  0  0  0  0
   57.8300   24.8360   46.4990 N   0  0  0  0  0  0  0  0  0  0  0  0
   56.8190   23.9970   46.8180 C   0  0  0  0  0  0  0  0  0  0  0  0
   57.0140   22.8090   47.1780 O   0  0  0  0  0  0  0  0  0  0  0  0
   55.5840   24.5310   46.7090 N   0  0  0  0  0  0  0  0  0  0  0  0
   55.8390   25.7840   46.3010 C   0  0  0  0  0  0  0  0  0  0  0  0
   54.8520   26.7130   46.0020 O   0  0  0  0  0  0  0  0  0  0  0  0
   58.5210   28.2180   47.7230 C   0  0  0  0  0  0  0  0  0  0  0  0
   58.8920   29.4930   48.0970 C   0  0  0  0  0  0  0  0  0  0  0  0
   59.3180   29.8950   49.4750 C   0  0  0  0  0  0  0  0  0  0  0  0
   58.8010   30.3340   47.0440 N   0  0  0  0  0  0  0  0  0  0  0  0
   59.0520   31.7480   47.0760 C   0  0  0  0  0  0  0  0  0  0  0  0
   58.0920   32.5360   47.2900 O   0  0  0  0  0  0  0  0  0  0  0  0
   60.3880   32.2620   46.8980 N   0  0  0  0  0  0  0  0  0  0  0  0
   60.6140   33.7000   46.7630 C   0  0  0  0  0  0  0  0  0  0  0  0
   60.9730   34.2840   48.1310 C   0  0  0  0  0  0  0  0  0  0  0  0
   62.0140   33.4790   48.7960 N   0  0  0  0  0  0  0  0  0  0  0  0
   62.8450   34.1070   49.7920 C   0  0  0  0  0  0  0  0  0  0  0  0
   63.0300   35.3550   49.7630 O   0  0  0  0  0  0  0  0  0  0  0  0
   63.4040   33.3250   50.8570 N   0  0  0  0  0  0  0  0  0  0  0  0
   64.6880   32.6860   50.8680 C   0  0  0  0  0  0  0  0  0  0  0  0
   65.8560   33.3490   50.4460 C   0  0  0  0  0  0  0  0  0  0  0  0
   67.0860   32.6820   50.4560 C   0  0  0  0  0  0  0  0  0  0  0  0
   67.1590   31.3500   50.8750 C   0  0  0  0  0  0  0  0  0  0  0  0
   65.9980   30.6790   51.2710 C   0  0  0  0  0  0  0  0  0  0  0  0
   64.7670   31.3430   51.2590 C   0  0  0  0  0  0  0  0  0  0  0  0
   61.9100   32.0090   48.7790 C   0  0  0  0  0  0  0  0  0  0  0  0
   61.5360   31.5000   47.3880 C   0  0  0  0  0  0  0  0  0  0  0  0
   58.1769   31.2333   44.6388 H   0  0  0  0  0  0  0  0  0  0  0  0
   57.5393   29.5428   44.0340 H   0  0  0  0  0  0  0  0  0  0  0  0
   58.1290   27.1678   44.5928 H   0  0  0  0  0  0  0  0  0  0  0  0
   58.4713   27.3329   48.3742 H   0  0  0  0  0  0  0  0  0  0  0  0
   58.7282   29.3384   50.2181 H   0  0  0  0  0  0  0  0  0  0  0  0
   60.3858   29.6678   49.6096 H   0  0  0  0  0  0  0  0  0  0  0  0
   59.1530   30.9742   49.6096 H   0  0  0  0  0  0  0  0  0  0  0  0
   61.4401   33.8780   46.0588 H   0  0  0  0  0  0  0  0  0  0  0  0
   59.7018   34.1832   46.3830 H   0  0  0  0  0  0  0  0  0  0  0  0
   61.3440   35.3108   47.9970 H   0  0  0  0  0  0  0  0  0  0  0  0
   60.0712   34.2775   48.7609 H   0  0  0  0  0  0  0  0  0  0  0  0
   65.8015   34.3942   50.1075 H   0  0  0  0  0  0  0  0  0  0  0  0
   67.9975   33.2066   50.1336 H   0  0  0  0  0  0  0  0  0  0  0  0
   68.1285   30.8307   50.8931 H   0  0  0  0  0  0  0  0  0  0  0  0
   66.0528   29.6284   51.5922 H   0  0  0  0  0  0  0  0  0  0  0  0
   63.8544   30.8069   51.5587 H   0  0  0  0  0  0  0  0  0  0  0  0
   62.8785   31.5770   49.0712 H   0  0  0  0  0  0  0  0  0  0  0  0
   61.1227   31.7063   49.4851 H   0  0  0  0  0  0  0  0  0  0  0  0
   62.3873   31.6342   46.7044 H   0  0  0  0  0  0  0  0  0  0  0  0
   61.2802   30.4314   47.4383 H   0  0  0  0  0  0  0  0  0  0  0  0
  1  2  2  0
  2  3  1  0
  3  4  2  3
  4  5  1  0
  5  6  1  0
  6  7  1  0
  7  8  2  0
  7  9  1  0
  9 10  1  0
 10 11  1  0
  3 12  1  0
 12 13  2  0
 13 14  1  0
 13 15  1  0
 15 16  1  0
 16 17  2  0
 16 18  1  0
 18 19  1  0
 19 20  1  0
 20 21  1  0
 21 22  1  0
 22 23  2  0
 22 24  1  0
 24 25  1  0
 25 26  2  0
 26 27  1  0
 27 28  2  0
 28 29  1  0
 29 30  2  0
 21 31  1  0
 31 32  1  0
 15  2  1  0
 32 18  1  0
 10  5  2  0
 30 25  1  0
  1 33  1  0
  1 34  1  0
  4 35  1  0
 12 36  1  0
 14 37  1  0
 14 38  1  0
 14 39  1  0
 19 40  1  0
 19 41  1  0
 20 42  1  0
 20 43  1  0
 26 44  1  0
 27 45  1  0
 28 46  1  0
 29 47  1  0
 30 48  1  0
 31 49  1  0
 31 50  1  0
 32 51  1  0
 32 52  1  0
M  CHG  4   6  -1   9  -1  11  -1  24  -1
M  END
>  <UniqueID>  (53) 
51

>  <SMILES>  (53) 
C=c1c(=Cc2[n-]c(=O)[n-]c2[O-])cc(C)n1C(=O)N1CCN(C(=O)[N-]c2ccccc2)CC1

>  <Energy>  (53) 
134.6655013640949

>  <Genealogy>  (53) 
C=c1c(=Cc2[n-]c(=O)[n-]c2[O-])cc(C)n1C(=O)N1CCN(C(=O)[N-]c2ccccc2)CC1 (protonated)
C=c1c(=Cc2[n-]c(=O)[n-]c2[O-])cc(C)n1C(=O)N1CCN(C(=O)[N-]c2ccccc2)CC1 (3D coordinates assigned)
C=c1c(=Cc2[n-]c(=O)[n-]c2[O-])cc(C)n1C(=O)N1CCN(C(=O)[N-]c2ccccc2)CC1 (nonaromatic ring conformer: 134.6655013640949 kcal/mol)

>  <smiles>  (53) 
C=c1c(=Cc2[nH]c(=O)[nH]c2O)cc(C)n1C(=O)N1CCN(C(=O)Nc2ccccc2)CC1

>  <score_type>  (53) 
oracle

>  <origin>  (53) 
adg

>  <m_score__min__energy>  (53) 
-19.050000000000001

>  <m_primary>  (53) 
energy

$$$$
53:0
     RDKit          3D

 57 59  0  0  0  0  0  0  0  0999 V2000
   57.4050   33.3890   44.4960 C   0  0  0  0  0  0  0  0  0  0  0  0
   57.0800   32.1560   45.2350 N   0  0  0  0  0  0  0  0  0  0  0  0
   57.0040   30.9620   44.3490 C   0  0  0  0  0  0  0  0  0  0  0  0
   55.6850   30.1670   44.3930 C   0  0  0  0  0  0  0  0  0  0  0  0
   55.8030   28.9810   45.2340 N   0  0  0  0  0  0  0  0  0  0  0  0
   56.9570   28.1340   45.2040 C   0  0  0  0  0  0  0  0  0  0  0  0
   57.9500   28.4620   44.4970 O   0  0  0  0  0  0  0  0  0  0  0  0
   56.9900   26.8810   45.9920 C   0  0  0  0  0  0  0  0  0  0  0  0
   58.1380   26.5050   46.7080 C   0  0  0  0  0  0  0  0  0  0  0  0
   58.1470   25.3230   47.4520 C   0  0  0  0  0  0  0  0  0  0  0  0
   57.0060   24.5160   47.4670 C   0  0  0  0  0  0  0  0  0  0  0  0
   57.0010   23.4410   48.1210 O   0  0  0  0  0  0  0  0  0  0  0  0
   55.9020   24.8860   46.7660 N   0  0  0  0  0  0  0  0  0  0  0  0
   55.8680   26.0340   46.0370 C   0  0  0  0  0  0  0  0  0  0  0  0
   57.9570   32.0160   46.4170 C   0  0  0  0  0  0  0  0  0  0  0  0
   58.7380   33.2750   46.7120 C   0  0  0  0  0  0  0  0  0  0  0  0
   58.1520   34.2640   47.2240 O   0  0  0  0  0  0  0  0  0  0  0  0
   60.0950   33.4290   46.2660 N   0  0  0  0  0  0  0  0  0  0  0  0
   61.2290   33.3320   47.1310 C   0  0  0  0  0  0  0  0  0  0  0  0
   62.4630   33.8180   46.6960 C   0  0  0  0  0  0  0  0  0  0  0  0
   63.5990   33.6460   47.4860 C   0  0  0  0  0  0  0  0  0  0  0  0
   63.5100   33.0090   48.7320 C   0  0  0  0  0  0  0  0  0  0  0  0
   65.0100   32.7380   49.6160 Cl  0  0  0  0  0  0  0  0  0  0  0  0
   62.2520   32.5710   49.2100 C   0  0  0  0  0  0  0  0  0  0  0  0
   62.0690   31.7690   50.7780 S   0  0  0  0  0  0  0  0  0  0  0  0
   63.1840   30.7690   50.9300 O   0  0  0  0  0  0  0  0  0  0  0  0
   62.1540   32.7760   51.8930 O   0  0  0  0  0  0  0  0  0  0  0  0
   60.5300   30.9470   50.8890 N   0  0  0  0  0  0  0  0  0  0  0  0
   59.4540   31.9450   50.8720 C   0  0  0  0  0  0  0  0  0  0  0  0
   58.0850   31.2420   51.0110 C   0  0  0  0  0  0  0  0  0  0  0  0
   58.0790   29.9040   50.5230 O   0  0  0  0  0  0  0  0  0  0  0  0
   58.9010   29.7840   49.3810 C   0  0  0  0  0  0  0  0  0  0  0  0
   60.3800   29.9780   49.7740 C   0  0  0  0  0  0  0  0  0  0  0  0
   61.1200   32.7250   48.3920 C   0  0  0  0  0  0  0  0  0  0  0  0
   57.6184   34.1986   45.2094 H   0  0  0  0  0  0  0  0  0  0  0  0
   58.2881   33.2154   43.8635 H   0  0  0  0  0  0  0  0  0  0  0  0
   56.5511   33.6733   43.8635 H   0  0  0  0  0  0  0  0  0  0  0  0
   57.1572   31.3015   43.3140 H   0  0  0  0  0  0  0  0  0  0  0  0
   57.7771   30.2716   44.7174 H   0  0  0  0  0  0  0  0  0  0  0  0
   54.8914   30.8134   44.7960 H   0  0  0  0  0  0  0  0  0  0  0  0
   55.4439   29.8420   43.3702 H   0  0  0  0  0  0  0  0  0  0  0  0
   59.0333   27.1436   46.6828 H   0  0  0  0  0  0  0  0  0  0  0  0
   59.0424   25.0304   48.0200 H   0  0  0  0  0  0  0  0  0  0  0  0
   54.9581   26.3013   45.4797 H   0  0  0  0  0  0  0  0  0  0  0  0
   57.3345   31.7744   47.2911 H   0  0  0  0  0  0  0  0  0  0  0  0
   58.6815   31.2167   46.2021 H   0  0  0  0  0  0  0  0  0  0  0  0
   62.5394   34.3371   45.7292 H   0  0  0  0  0  0  0  0  0  0  0  0
   64.5726   34.0129   47.1290 H   0  0  0  0  0  0  0  0  0  0  0  0
   59.5918   32.6447   51.7095 H   0  0  0  0  0  0  0  0  0  0  0  0
   59.4844   32.4953   49.9200 H   0  0  0  0  0  0  0  0  0  0  0  0
   57.8093   31.2251   52.0758 H   0  0  0  0  0  0  0  0  0  0  0  0
   57.3670   31.8107   50.4019 H   0  0  0  0  0  0  0  0  0  0  0  0
   58.7690   28.7848   48.9403 H   0  0  0  0  0  0  0  0  0  0  0  0
   58.6174   30.5545   48.6489 H   0  0  0  0  0  0  0  0  0  0  0  0
   60.7960   29.0086   50.0859 H   0  0  0  0  0  0  0  0  0  0  0  0
   60.9175   30.3751   48.9003 H   0  0  0  0  0  0  0  0  0  0  0  0
   60.1407   32.3671   48.7425 H   0  0  0  0  0  0  0  0  0  0  0  0
  1  2  1  0
  2  3  1  0
  3  4  1  0
  4  5  1  0
  5  6  1  0
  6  7  2  0
  6  8  1  0
  8  9  1  0
  9 10  2  0
 10 11  1  0
 11 12  2  0
 11 13  1  0
 13 14  1  0
  2 15  1  0
 15 16  1  0
 16 17  2  0
 16 18  1  0
 18 19  1  0
 19 20  2  0
 20 21  1  0
 21 22  2  0
 22 23  1  0
 22 24  1  0
 24 25  1  0
 25 26  2  0
 25 27  2  0
 25 28  1  0
 28 29  1  0
 29 30  1  0
 30 31  1  0
 31 32  1  0
 32 33  1  0
 24 34  2  0
 14  8  2  0
 34 19  1  0
 33 28  1  0
  1 35  1  0
  1 36  1  0
  1 37  1  0
  3 38  1  0
  3 39  1  0
  4 40  1  0
  4 41  1  0
  9 42  1  0
 10 43  1  0
 14 44  1  0
 15 45  1  0
 15 46  1  0
 20 47  1  0
 21 48  1  0
 29 49  1  0
 29 50  1  0
 30 51  1  0
 30 52  1  0
 32 53  1  0
 32 54  1  0
 33 55  1  0
 33 56  1  0
 34 57  1  0
M  CHG  3   5  -1  13  -1  18  -1
M  END
>  <UniqueID>  (54) 
52

>  <SMILES>  (54) 
CN(CC[N-]C(=O)c1ccc(=O)[n-]c1)CC(=O)[N-]c1ccc(Cl)c(S(=O)(=O)N2CCOCC2)c1

>  <Energy>  (54) 
77.31118140900819

>  <Genealogy>  (54) 
CN(CC[N-]C(=O)c1ccc(=O)[n-]c1)CC(=O)[N-]c1ccc(Cl)c(S(=O)(=O)N2CCOCC2)c1 (protonated)
CN(CC[N-]C(=O)c1ccc(=O)[n-]c1)CC(=O)[N-]c1ccc(Cl)c(S(=O)(=O)N2CCOCC2)c1 (3D coordinates assigned)
CN(CC[N-]C(=O)c1ccc(=O)[n-]c1)CC(=O)[N-]c1ccc(Cl)c(S(=O)(=O)N2CCOCC2)c1 (nonaromatic ring conformer: 77.31118140900819 kcal/mol)

>  <smiles>  (54) 
CN(CCNC(=O)c1ccc(=O)[nH]c1)CC(=O)Nc1ccc(Cl)c(S(=O)(=O)N2CCOCC2)c1

>  <score_type>  (54) 
oracle

>  <origin>  (54) 
adg

>  <m_score__min__energy>  (54) 
-15.470000000000001

>  <m_primary>  (54) 
energy

$$$$
54:0
     RDKit          3D

 43 45  0  0  0  0  0  0  0  0999 V2000
   59.6420   35.5050   46.6790 C   0  0  0  0  0  0  0  0  0  0  0  0
   59.0440   34.2410   46.1170 C   0  0  0  0  0  0  0  0  0  0  0  0
   58.6750   34.1900   44.7640 C   0  0  0  0  0  0  0  0  0  0  0  0
   58.1210   33.0280   44.2280 C   0  0  0  0  0  0  0  0  0  0  0  0
   57.9320   31.9070   45.0490 C   0  0  0  0  0  0  0  0  0  0  0  0
   57.3540   30.6520   44.5090 C   0  0  0  0  0  0  0  0  0  0  0  0
   56.0990   30.5050   44.5030 O   0  0  0  0  0  0  0  0  0  0  0  0
   58.2010   29.6340   43.9140 N   0  0  0  0  0  0  0  0  0  0  0  0
   59.4170   29.3870   44.7410 C   0  0  0  0  0  0  0  0  0  0  0  0
   59.2600   28.2160   45.7250 C   0  0  0  0  0  0  0  0  0  0  0  0
   58.7820   27.0120   45.0360 N   0  0  0  0  0  0  0  0  0  0  0  0
   58.9880   25.7200   45.6320 C   0  0  0  0  0  0  0  0  0  0  0  0
   60.1220   25.4330   46.1060 O   0  0  0  0  0  0  0  0  0  0  0  0
   57.8920   24.7270   45.7170 C   0  0  0  0  0  0  0  0  0  0  0  0
   56.6280   25.0960   46.2130 C   0  0  0  0  0  0  0  0  0  0  0  0
   55.6020   24.1510   46.3030 C   0  0  0  0  0  0  0  0  0  0  0  0
   55.8270   22.8290   45.9080 C   0  0  0  0  0  0  0  0  0  0  0  0
   54.5370   21.6450   46.0240 Cl  0  0  0  0  0  0  0  0  0  0  0  0
   57.0840   22.4500   45.4280 C   0  0  0  0  0  0  0  0  0  0  0  0
   58.1140   23.3920   45.3360 C   0  0  0  0  0  0  0  0  0  0  0  0
   58.2150   27.1350   43.6900 C   0  0  0  0  0  0  0  0  0  0  0  0
   57.3900   28.4220   43.6180 C   0  0  0  0  0  0  0  0  0  0  0  0
   58.2980   31.9760   46.3580 N   0  0  0  0  0  0  0  0  0  0  0  0
   58.8410   33.0930   46.9120 C   0  0  0  0  0  0  0  0  0  0  0  0
   59.2440   33.0590   48.5010 S   0  0  0  0  0  0  0  0  0  0  0  0
   59.6221   35.4629   47.7780 H   0  0  0  0  0  0  0  0  0  0  0  0
   60.6821   35.6032   46.3346 H   0  0  0  0  0  0  0  0  0  0  0  0
   59.0583   36.3714   46.3346 H   0  0  0  0  0  0  0  0  0  0  0  0
   58.8236   35.0714   44.1228 H   0  0  0  0  0  0  0  0  0  0  0  0
   57.8338   32.9909   43.1668 H   0  0  0  0  0  0  0  0  0  0  0  0
   58.5550   30.0020   43.0000 H   0  0  0  0  0  0  0  0  0  0  0  0
   60.2577   29.1656   44.0671 H   0  0  0  0  0  0  0  0  0  0  0  0
   59.5912   30.2929   45.3402 H   0  0  0  0  0  0  0  0  0  0  0  0
   60.2344   28.0024   46.1887 H   0  0  0  0  0  0  0  0  0  0  0  0
   58.5227   28.4979   46.4911 H   0  0  0  0  0  0  0  0  0  0  0  0
   56.4464   26.1331   46.5315 H   0  0  0  0  0  0  0  0  0  0  0  0
   54.6146   24.4484   46.6858 H   0  0  0  0  0  0  0  0  0  0  0  0
   57.2636   21.4088   45.1220 H   0  0  0  0  0  0  0  0  0  0  0  0
   59.1030   23.0866   44.9636 H   0  0  0  0  0  0  0  0  0  0  0  0
   59.0270   27.1744   42.9490 H   0  0  0  0  0  0  0  0  0  0  0  0
   57.5740   26.2676   43.4738 H   0  0  0  0  0  0  0  0  0  0  0  0
   56.9706   28.5164   42.6055 H   0  0  0  0  0  0  0  0  0  0  0  0
   56.5978   28.3551   44.3783 H   0  0  0  0  0  0  0  0  0  0  0  0
  1  2  1  0
  2  3  2  0
  3  4  1  0
  4  5  2  0
  5  6  1  0
  6  7  2  0
  6  8  1  0
  8  9  1  0
  9 10  1  0
 10 11  1  0
 11 12  1  0
 12 13  2  0
 12 14  1  0
 14 15  2  0
 15 16  1  0
 16 17  2  0
 17 18  1  0
 17 19  1  0
 19 20  2  0
 11 21  1  0
 21 22  1  0
  5 23  1  0
 23 24  1  0
 24 25  2  0
 24  2  1  0
 22  8  1  0
 20 14  1  0
  1 26  1  0
  1 27  1  0
  1 28  1  0
  3 29  1  0
  4 30  1  0
  8 31  1  0
  9 32  1  0
  9 33  1  0
 10 34  1  0
 10 35  1  0
 15 36  1  0
 16 37  1  0
 19 38  1  0
 20 39  1  0
 21 40  1  0
 21 41  1  0
 22 42  1  0
 22 43  1  0
M  CHG  2   8   1  23  -1
M  END
>  <UniqueID>  (55) 
53

>  <SMILES>  (55) 
Cc1ccc(C(=O)[NH+]2CCN(C(=O)c3ccc(Cl)cc3)CC2)[n-]c1=S

>  <Energy>  (55) 
61.69538979117348

>  <Genealogy>  (55) 
Cc1ccc(C(=O)[NH+]2CCN(C(=O)c3ccc(Cl)cc3)CC2)[n-]c1=S (protonated)
Cc1ccc(C(=O)[NH+]2CCN(C(=O)c3ccc(Cl)cc3)CC2)[n-]c1=S (3D coordinates assigned)
Cc1ccc(C(=O)[NH+]2CCN(C(=O)c3ccc(Cl)cc3)CC2)[n-]c1=S (nonaromatic ring conformer: 61.69538979117348 kcal/mol)

>  <smiles>  (55) 
Cc1ccc(C(=O)N2CCN(C(=O)c3ccc(Cl)cc3)CC2)[nH]c1=S

>  <score_type>  (55) 
oracle

>  <origin>  (55) 
adg

>  <m_score__min__energy>  (55) 
-7.96

>  <m_primary>  (55) 
energy

$$$$
55:0
     RDKit          3D

 26 27  0  0  0  0  0  0  0  0999 V2000
   60.3860   27.4730   45.9210 C   0  0  0  0  0  0  0  0  0  0  0  0
   59.1870   27.9410   45.5650 C   0  0  0  0  0  0  0  0  0  0  0  0
   59.0200   29.2970   44.5820 S   0  0  0  0  0  0  0  0  0  0  0  0
   57.3570   29.1960   44.3960 C   0  0  0  0  0  0  0  0  0  0  0  0
   56.5090   30.1640   43.6250 C   0  0  0  0  0  0  0  0  0  0  0  0
   55.6790   30.8500   44.5200 O   0  0  0  0  0  0  0  0  0  0  0  0
   57.3290   31.0820   42.9510 O   0  0  0  0  0  0  0  0  0  0  0  0
   56.8920   28.1040   45.1160 C   0  0  0  0  0  0  0  0  0  0  0  0
   57.9010   27.3980   45.8040 C   0  0  0  0  0  0  0  0  0  0  0  0
   57.5700   26.3500   46.5890 C   0  0  0  0  0  0  0  0  0  0  0  0
   56.6940   25.2230   46.2100 C   0  0  0  0  0  0  0  0  0  0  0  0
   55.3250   25.4330   45.9950 C   0  0  0  0  0  0  0  0  0  0  0  0
   54.7820   26.7100   46.0850 O   0  0  0  0  0  0  0  0  0  0  0  0
   54.5190   24.3840   45.6890 N   0  0  0  0  0  0  0  0  0  0  0  0
   55.0120   23.1220   45.6020 C   0  0  0  0  0  0  0  0  0  0  0  0
   54.2460   22.1670   45.3120 O   0  0  0  0  0  0  0  0  0  0  0  0
   56.3290   22.8890   45.8310 N   0  0  0  0  0  0  0  0  0  0  0  0
   57.1770   23.9040   46.1420 C   0  0  0  0  0  0  0  0  0  0  0  0
   58.3900   23.6480   46.3710 O   0  0  0  0  0  0  0  0  0  0  0  0
   60.4605   26.5842   46.5648 H   0  0  0  0  0  0  0  0  0  0  0  0
   61.2991   27.9763   45.5704 H   0  0  0  0  0  0  0  0  0  0  0  0
   55.9000   29.6184   42.8891 H   0  0  0  0  0  0  0  0  0  0  0  0
   54.7770   30.4440   44.4320 H   0  0  0  0  0  0  0  0  0  0  0  0
   58.1230   30.5770   42.6350 H   0  0  0  0  0  0  0  0  0  0  0  0
   55.8311   27.8150   45.1472 H   0  0  0  0  0  0  0  0  0  0  0  0
   57.9920   26.3344   47.6047 H   0  0  0  0  0  0  0  0  0  0  0  0
  1  2  2  0
  2  3  1  0
  3  4  1  0
  4  5  1  0
  5  6  1  0
  5  7  1  0
  4  8  2  0
  8  9  1  0
  9 10  2  3
 10 11  1  0
 11 12  2  0
 12 13  1  0
 12 14  1  0
 14 15  1  0
 15 16  2  0
 15 17  1  0
 17 18  1  0
 18 19  2  0
  9  2  1  0
 18 11  1  0
  1 20  1  0
  1 21  1  0
  5 22  1  0
  6 23  1  0
  7 24  1  0
  8 25  1  0
 10 26  1  0
M  CHG  3  13  -1  14  -1  17  -1
M  END
>  <UniqueID>  (56) 
54

>  <SMILES>  (56) 
C=c1sc(C(O)O)cc1=Cc1c([O-])[n-]c(=O)[n-]c1=O

>  <Energy>  (56) 
68.7723943338205

>  <Genealogy>  (56) 
C=c1sc(C(O)O)cc1=Cc1c([O-])[n-]c(=O)[n-]c1=O (protonated)
C=c1sc(C(O)O)cc1=Cc1c([O-])[n-]c(=O)[n-]c1=O (3D coordinates assigned)
C=c1sc(C(O)O)cc1=Cc1c([O-])[n-]c(=O)[n-]c1=O (optimized conformer: 68.7723943338205 kcal/mol)

>  <smiles>  (56) 
C=c1sc(C(O)O)cc1=Cc1c(O)[nH]c(=O)[nH]c1=O

>  <score_type>  (56) 
oracle

>  <origin>  (56) 
adg

>  <m_score__min__energy>  (56) 
-14.109999999999999

>  <m_primary>  (56) 
energy

$$$$
56:0
     RDKit          3D

 60 63  0  0  0  0  0  0  0  0999 V2000
   57.3880   31.9450   41.3990 C   0  0  0  0  0  0  0  0  0  0  0  0
   57.0440   31.4370   42.7590 C   0  0  0  0  0  0  0  0  0  0  0  0
   56.2770   30.3610   42.9920 N   0  0  0  0  0  0  0  0  0  0  0  0
   56.2210   30.2650   44.3310 C   0  0  0  0  0  0  0  0  0  0  0  0
   55.5780   29.3650   44.9270 O   0  0  0  0  0  0  0  0  0  0  0  0
   56.9090   31.2290   44.9780 N   0  0  0  0  0  0  0  0  0  0  0  0
   57.4220   31.9790   43.9780 C   0  0  0  0  0  0  0  0  0  0  0  0
   58.2830   33.1880   44.2110 C   0  0  0  0  0  0  0  0  0  0  0  0
   58.2530   33.6270   45.6510 C   0  0  0  0  0  0  0  0  0  0  0  0
   57.1820   33.4830   46.3060 O   0  0  0  0  0  0  0  0  0  0  0  0
   59.4230   34.1730   46.3060 N   0  0  0  0  0  0  0  0  0  0  0  0
   59.2880   34.9330   47.5590 C   0  0  0  0  0  0  0  0  0  0  0  0
   59.9640   34.1560   48.6950 C   0  0  0  0  0  0  0  0  0  0  0  0
   61.2200   33.5420   48.2380 N   0  0  0  0  0  0  0  0  0  0  0  0
   61.8100   32.5020   49.0370 C   0  0  0  0  0  0  0  0  0  0  0  0
   63.1990   32.5070   49.2480 C   0  0  0  0  0  0  0  0  0  0  0  0
   63.7790   31.6210   50.1600 C   0  0  0  0  0  0  0  0  0  0  0  0
   62.9740   30.7370   50.8820 C   0  0  0  0  0  0  0  0  0  0  0  0
   61.5900   30.7270   50.6880 C   0  0  0  0  0  0  0  0  0  0  0  0
   60.9990   31.5980   49.7590 C   0  0  0  0  0  0  0  0  0  0  0  0
   59.2050   31.6190   49.5740 S   0  0  0  0  0  0  0  0  0  0  0  0
   59.1760   30.3480   48.3010 C   0  0  0  0  0  0  0  0  0  0  0  0
   58.8870   29.0310   48.6610 C   0  0  0  0  0  0  0  0  0  0  0  0
   58.8260   28.0290   47.6880 C   0  0  0  0  0  0  0  0  0  0  0  0
   59.0530   28.3290   46.3260 C   0  0  0  0  0  0  0  0  0  0  0  0
   58.9620   27.2980   45.3110 N   0  0  0  0  0  0  0  0  0  0  0  0
   59.1650   25.8790   45.6360 C   0  0  0  0  0  0  0  0  0  0  0  0
   58.7730   27.6620   43.8990 C   0  0  0  0  0  0  0  0  0  0  0  0
   59.3580   29.6640   45.9810 C   0  0  0  0  0  0  0  0  0  0  0  0
   59.4150   30.6630   46.9600 C   0  0  0  0  0  0  0  0  0  0  0  0
   61.8180   33.9600   46.9640 C   0  0  0  0  0  0  0  0  0  0  0  0
   60.7800   33.8390   45.8340 C   0  0  0  0  0  0  0  0  0  0  0  0
   58.0026   32.8526   41.4912 H   0  0  0  0  0  0  0  0  0  0  0  0
   57.9512   31.1749   40.8515 H   0  0  0  0  0  0  0  0  0  0  0  0
   56.4638   32.1821   40.8515 H   0  0  0  0  0  0  0  0  0  0  0  0
   55.8200   29.7370   42.2900 H   0  0  0  0  0  0  0  0  0  0  0  0
   59.3196   32.9455   43.9343 H   0  0  0  0  0  0  0  0  0  0  0  0
   57.8912   34.0106   43.5946 H   0  0  0  0  0  0  0  0  0  0  0  0
   59.7702   35.9153   47.4473 H   0  0  0  0  0  0  0  0  0  0  0  0
   58.2224   35.0758   47.7918 H   0  0  0  0  0  0  0  0  0  0  0  0
   60.1814   34.8462   49.5235 H   0  0  0  0  0  0  0  0  0  0  0  0
   59.2839   33.3578   49.0273 H   0  0  0  0  0  0  0  0  0  0  0  0
   63.8339   33.2126   48.6920 H   0  0  0  0  0  0  0  0  0  0  0  0
   64.8688   31.6198   50.3091 H   0  0  0  0  0  0  0  0  0  0  0  0
   63.4309   30.0462   51.6059 H   0  0  0  0  0  0  0  0  0  0  0  0
   60.9610   30.0337   51.2657 H   0  0  0  0  0  0  0  0  0  0  0  0
   58.7061   28.7798   49.7166 H   0  0  0  0  0  0  0  0  0  0  0  0
   58.5986   26.9949   47.9862 H   0  0  0  0  0  0  0  0  0  0  0  0
   59.1832   25.7520   46.7285 H   0  0  0  0  0  0  0  0  0  0  0  0
   58.3428   25.2843   45.2114 H   0  0  0  0  0  0  0  0  0  0  0  0
   60.1210   25.5387   45.2114 H   0  0  0  0  0  0  0  0  0  0  0  0
   58.2669   28.6366   43.8362 H   0  0  0  0  0  0  0  0  0  0  0  0
   59.7524   27.7247   43.4022 H   0  0  0  0  0  0  0  0  0  0  0  0
   58.1582   26.8969   43.4022 H   0  0  0  0  0  0  0  0  0  0  0  0
   59.5533   29.9221   44.9297 H   0  0  0  0  0  0  0  0  0  0  0  0
   59.6485   31.6990   46.6733 H   0  0  0  0  0  0  0  0  0  0  0  0
   62.1512   35.0054   47.0429 H   0  0  0  0  0  0  0  0  0  0  0  0
   62.6776   33.3121   46.7373 H   0  0  0  0  0  0  0  0  0  0  0  0
   61.0549   34.5275   45.0213 H   0  0  0  0  0  0  0  0  0  0  0  0
   60.7751   32.7972   45.4811 H   0  0  0  0  0  0  0  0  0  0  0  0
  1  2  1  0
  2  3  1  0
  3  4  1  0
  4  5  2  0
  4  6  1  0
  6  7  1  0
  7  8  1  0
  8  9  1  0
  9 10  2  0
  9 11  1  0
 11 12  1  0
 12 13  1  0
 13 14  1  0
 14 15  1  0
 15 16  2  0
 16 17  1  0
 17 18  2  0
 18 19  1  0
 19 20  2  0
 20 21  1  0
 21 22  1  0
 22 23  2  0
 23 24  1  0
 24 25  2  0
 25 26  1  0
 26 27  1  0
 26 28  1  0
 25 29  1  0
 29 30  2  0
 14 31  1  0
 31 32  1  0
  7  2  2  0
 32 11  1  0
 20 15  1  0
 30 22  1  0
  1 33  1  0
  1 34  1  0
  1 35  1  0
  3 36  1  0
  8 37  1  0
  8 38  1  0
 12 39  1  0
 12 40  1  0
 13 41  1  0
 13 42  1  0
 16 43  1  0
 17 44  1  0
 18 45  1  0
 19 46  1  0
 23 47  1  0
 24 48  1  0
 27 49  1  0
 27 50  1  0
 27 51  1  0
 28 52  1  0
 28 53  1  0
 28 54  1  0
 29 55  1  0
 30 56  1  0
 31 57  1  0
 31 58  1  0
 32 59  1  0
 32 60  1  0
M  CHG  1   6  -1
M  END
>  <UniqueID>  (57) 
55

>  <SMILES>  (57) 
Cc1[nH]c(=O)[n-]c1CC(=O)N1CCN(c2ccccc2Sc2ccc(N(C)C)cc2)CC1

>  <Energy>  (57) 
94.0418439482871

>  <Genealogy>  (57) 
Cc1[nH]c(=O)[n-]c1CC(=O)N1CCN(c2ccccc2Sc2ccc(N(C)C)cc2)CC1 (protonated)
Cc1[nH]c(=O)[n-]c1CC(=O)N1CCN(c2ccccc2Sc2ccc(N(C)C)cc2)CC1 (3D coordinates assigned)
Cc1[nH]c(=O)[n-]c1CC(=O)N1CCN(c2ccccc2Sc2ccc(N(C)C)cc2)CC1 (nonaromatic ring conformer: 94.0418439482871 kcal/mol)

>  <smiles>  (57) 
Cc1[nH]c(=O)[nH]c1CC(=O)N1CCN(c2ccccc2Sc2ccc(N(C)C)cc2)CC1

>  <score_type>  (57) 
oracle

>  <origin>  (57) 
adg

>  <m_score__min__energy>  (57) 
-11.050000000000001

>  <m_primary>  (57) 
energy

$$$$
57:0
     RDKit          3D

 69 73  0  0  0  0  0  0  0  0999 V2000
   59.6700   34.9570   48.6670 N   0  0  0  0  0  0  0  0  0  0  0  0
   60.5590   34.2030   49.4880 C   0  0  0  0  0  0  0  0  0  0  0  0
   61.8930   34.4630   49.7160 C   0  0  0  0  0  0  0  0  0  0  0  0
   62.3860   33.4980   50.5180 N   0  0  0  0  0  0  0  0  0  0  0  0
   61.3950   32.6610   50.7990 N   0  0  0  0  0  0  0  0  0  0  0  0
   61.5610   31.4420   51.5850 C   0  0  0  0  0  0  0  0  0  0  0  0
   60.2480   31.0860   52.2890 C   0  0  0  0  0  0  0  0  0  0  0  0
   59.9230   29.6560   52.0880 N   0  0  0  0  0  0  0  0  0  0  0  0
   58.5990   29.4510   51.4590 C   0  0  0  0  0  0  0  0  0  0  0  0
   58.6080   29.8240   49.9720 C   0  0  0  0  0  0  0  0  0  0  0  0
   59.6850   29.0950   49.3000 N   0  0  0  0  0  0  0  0  0  0  0  0
   59.4660   28.4530   48.0290 C   0  0  0  0  0  0  0  0  0  0  0  0
   60.5430   27.8930   47.3270 C   0  0  0  0  0  0  0  0  0  0  0  0
   60.3430   27.3150   46.0730 C   0  0  0  0  0  0  0  0  0  0  0  0
   59.0680   27.2900   45.5060 C   0  0  0  0  0  0  0  0  0  0  0  0
   57.9670   27.8240   46.2020 C   0  0  0  0  0  0  0  0  0  0  0  0
   56.6060   27.8120   45.6080 C   0  0  0  0  0  0  0  0  0  0  0  0
   55.9230   26.7560   45.6460 O   0  0  0  0  0  0  0  0  0  0  0  0
   56.0180   28.9830   45.0260 N   0  0  0  0  0  0  0  0  0  0  0  0
   56.7310   30.1200   44.5150 C   0  0  0  0  0  0  0  0  0  0  0  0
   56.6950   30.4610   43.1520 C   0  0  0  0  0  0  0  0  0  0  0  0
   57.3930   31.5810   42.6900 C   0  0  0  0  0  0  0  0  0  0  0  0
   58.1210   32.3710   43.5830 C   0  0  0  0  0  0  0  0  0  0  0  0
   58.1440   32.0540   44.9500 C   0  0  0  0  0  0  0  0  0  0  0  0
   59.0790   33.0440   46.0790 S   0  0  0  0  0  0  0  0  0  0  0  0
   58.4940   32.8960   47.4560 O   0  0  0  0  0  0  0  0  0  0  0  0
   58.9600   34.4890   45.6760 O   0  0  0  0  0  0  0  0  0  0  0  0
   60.7700   32.6050   46.1300 N   0  0  0  0  0  0  0  0  0  0  0  0
   61.0630   31.6710   47.2140 C   0  0  0  0  0  0  0  0  0  0  0  0
   62.5400   31.8390   47.5310 C   0  0  0  0  0  0  0  0  0  0  0  0
   62.9020   33.2260   47.0190 C   0  0  0  0  0  0  0  0  0  0  0  0
   61.6340   33.7610   46.3660 C   0  0  0  0  0  0  0  0  0  0  0  0
   57.4470   30.9260   45.4080 C   0  0  0  0  0  0  0  0  0  0  0  0
   58.1800   28.4150   47.4600 C   0  0  0  0  0  0  0  0  0  0  0  0
   61.0300   29.1950   49.8710 C   0  0  0  0  0  0  0  0  0  0  0  0
   60.9850   28.9020   51.3800 C   0  0  0  0  0  0  0  0  0  0  0  0
   60.2650   33.0510   50.1780 C   0  0  0  0  0  0  0  0  0  0  0  0
   59.5710   34.7330   47.6520 H   0  0  0  0  0  0  0  0  0  0  0  0
   59.0950   35.7230   49.0780 H   0  0  0  0  0  0  0  0  0  0  0  0
   62.4600   35.3145   49.3117 H   0  0  0  0  0  0  0  0  0  0  0  0
   61.8519   30.6165   50.9188 H   0  0  0  0  0  0  0  0  0  0  0  0
   62.3422   31.6056   52.3419 H   0  0  0  0  0  0  0  0  0  0  0  0
   60.3488   31.2864   53.3659 H   0  0  0  0  0  0  0  0  0  0  0  0
   59.4390   31.6979   51.8634 H   0  0  0  0  0  0  0  0  0  0  0  0
   58.3184   28.3920   51.5582 H   0  0  0  0  0  0  0  0  0  0  0  0
   57.8748   30.1029   51.9694 H   0  0  0  0  0  0  0  0  0  0  0  0
   57.6426   29.5542   49.5191 H   0  0  0  0  0  0  0  0  0  0  0  0
   58.7702   30.9065   49.8632 H   0  0  0  0  0  0  0  0  0  0  0  0
   61.5509   27.9095   47.7673 H   0  0  0  0  0  0  0  0  0  0  0  0
   61.1933   26.8775   45.5293 H   0  0  0  0  0  0  0  0  0  0  0  0
   58.9224   26.8500   44.5084 H   0  0  0  0  0  0  0  0  0  0  0  0
   56.1165   29.8455   42.4473 H   0  0  0  0  0  0  0  0  0  0  0  0
   57.3688   31.8405   41.6213 H   0  0  0  0  0  0  0  0  0  0  0  0
   58.6781   33.2445   43.2135 H   0  0  0  0  0  0  0  0  0  0  0  0
   60.4537   31.9097   48.0982 H   0  0  0  0  0  0  0  0  0  0  0  0
   60.8304   30.6355   46.9247 H   0  0  0  0  0  0  0  0  0  0  0  0
   62.7121   31.7709   48.6153 H   0  0  0  0  0  0  0  0  0  0  0  0
   63.1531   31.0547   47.0630 H   0  0  0  0  0  0  0  0  0  0  0  0
   63.2092   33.8755   47.8520 H   0  0  0  0  0  0  0  0  0  0  0  0
   63.7436   33.1936   46.3115 H   0  0  0  0  0  0  0  0  0  0  0  0
   61.1354   34.4780   47.0348 H   0  0  0  0  0  0  0  0  0  0  0  0
   61.8611   34.2866   45.4268 H   0  0  0  0  0  0  0  0  0  0  0  0
   57.4632   30.6726   46.4783 H   0  0  0  0  0  0  0  0  0  0  0  0
   57.3311   28.8528   48.0056 H   0  0  0  0  0  0  0  0  0  0  0  0
   61.6899   28.4660   49.3781 H   0  0  0  0  0  0  0  0  0  0  0  0
   61.4142   30.2135   49.7127 H   0  0  0  0  0  0  0  0  0  0  0  0
   60.8047   27.8263   51.5224 H   0  0  0  0  0  0  0  0  0  0  0  0
   61.9495   29.2180   51.8041 H   0  0  0  0  0  0  0  0  0  0  0  0
   59.2901   32.5430   50.2159 H   0  0  0  0  0  0  0  0  0  0  0  0
  1  2  1  0
  2  3  1  0
  3  4  2  0
  4  5  1  0
  5  6  1  0
  6  7  1  0
  7  8  1  0
  8  9  1  0
  9 10  1  0
 10 11  1  0
 11 12  1  0
 12 13  2  0
 13 14  1  0
 14 15  2  0
 15 16  1  0
 16 17  1  0
 17 18  2  0
 17 19  1  0
 19 20  1  0
 20 21  2  0
 21 22  1  0
 22 23  2  0
 23 24  1  0
 24 25  1  0
 25 26  2  0
 25 27  2  0
 25 28  1  0
 28 29  1  0
 29 30  1  0
 30 31  1  0
 31 32  1  0
 24 33  2  0
 16 34  2  0
 11 35  1  0
 35 36  1  0
  5 37  1  0
 37  2  2  0
 36  8  1  0
 34 12  1  0
 33 20  1  0
 32 28  1  0
  1 38  1  0
  1 39  1  0
  3 40  1  0
  6 41  1  0
  6 42  1  0
  7 43  1  0
  7 44  1  0
  9 45  1  0
  9 46  1  0
 10 47  1  0
 10 48  1  0
 13 49  1  0
 14 50  1  0
 15 51  1  0
 21 52  1  0
 22 53  1  0
 23 54  1  0
 29 55  1  0
 29 56  1  0
 30 57  1  0
 30 58  1  0
 31 59  1  0
 31 60  1  0
 32 61  1  0
 32 62  1  0
 33 63  1  0
 34 64  1  0
 35 65  1  0
 35 66  1  0
 36 67  1  0
 36 68  1  0
 37 69  1  0
M  CHG  1  19  -1
M  END
>  <UniqueID>  (58) 
56

>  <SMILES>  (58) 
Nc1cnn(CCN2CCN(c3cccc(C(=O)[N-]c4cccc(S(=O)(=O)N5CCCC5)c4)c3)CC2)c1

>  <Energy>  (58) 
116.43876091322234

>  <Genealogy>  (58) 
Nc1cnn(CCN2CCN(c3cccc(C(=O)[N-]c4cccc(S(=O)(=O)N5CCCC5)c4)c3)CC2)c1 (protonated)
Nc1cnn(CCN2CCN(c3cccc(C(=O)[N-]c4cccc(S(=O)(=O)N5CCCC5)c4)c3)CC2)c1 (3D coordinates assigned)
Nc1cnn(CCN2CCN(c3cccc(C(=O)[N-]c4cccc(S(=O)(=O)N5CCCC5)c4)c3)CC2)c1 (nonaromatic ring conformer: 116.43876091322234 kcal/mol)

>  <smiles>  (58) 
Nc1cnn(CCN2CCN(c3cccc(C(=O)Nc4cccc(S(=O)(=O)N5CCCC5)c4)c3)CC2)c1

>  <score_type>  (58) 
oracle

>  <origin>  (58) 
adg

>  <m_score__min__energy>  (58) 
-11.59

>  <m_primary>  (58) 
energy

$$$$
58:0
     RDKit          3D

 51 53  0  0  0  0  0  0  0  0999 V2000
   62.5870   34.5780   49.4730 C   0  0  0  0  0  0  0  0  0  0  0  0
   61.9540   33.3680   48.8520 C   0  0  0  0  0  0  0  0  0  0  0  0
   62.5160   32.7910   47.7050 C   0  0  0  0  0  0  0  0  0  0  0  0
   61.9520   31.6410   47.1430 C   0  0  0  0  0  0  0  0  0  0  0  0
   60.8190   31.0420   47.7270 C   0  0  0  0  0  0  0  0  0  0  0  0
   60.2300   29.8600   47.1450 N   0  0  0  0  0  0  0  0  0  0  0  0
   60.6030   29.4700   45.7730 C   0  0  0  0  0  0  0  0  0  0  0  0
   60.1430   28.0470   45.4550 C   0  0  0  0  0  0  0  0  0  0  0  0
   58.7280   27.9000   45.8220 N   0  0  0  0  0  0  0  0  0  0  0  0
   57.7770   27.2830   44.9330 C   0  0  0  0  0  0  0  0  0  0  0  0
   56.8560   26.5630   45.4130 O   0  0  0  0  0  0  0  0  0  0  0  0
   57.8650   27.4720   43.4380 C   0  0  0  0  0  0  0  0  0  0  0  0
   57.0520   28.6810   42.9530 C   0  0  0  0  0  0  0  0  0  0  0  0
   57.6490   29.9410   43.4050 N   0  0  0  0  0  0  0  0  0  0  0  0
   56.9460   30.8190   44.2980 C   0  0  0  0  0  0  0  0  0  0  0  0
   55.7360   30.5880   44.5740 O   0  0  0  0  0  0  0  0  0  0  0  0
   57.6120   32.0060   44.8900 C   0  0  0  0  0  0  0  0  0  0  0  0
   58.0720   33.0410   44.0560 C   0  0  0  0  0  0  0  0  0  0  0  0
   58.6990   34.1660   44.6020 C   0  0  0  0  0  0  0  0  0  0  0  0
   58.8680   34.2740   45.9840 C   0  0  0  0  0  0  0  0  0  0  0  0
   59.6530   35.6870   46.6670 Cl  0  0  0  0  0  0  0  0  0  0  0  0
   58.4040   33.2570   46.8240 C   0  0  0  0  0  0  0  0  0  0  0  0
   57.7770   32.1300   46.2840 C   0  0  0  0  0  0  0  0  0  0  0  0
   58.2730   28.3440   47.1490 C   0  0  0  0  0  0  0  0  0  0  0  0
   59.4140   28.9580   47.9730 C   0  0  0  0  0  0  0  0  0  0  0  0
   60.2660   31.6200   48.8840 C   0  0  0  0  0  0  0  0  0  0  0  0
   60.8330   32.7670   49.4460 C   0  0  0  0  0  0  0  0  0  0  0  0
   62.5427   34.4933   50.5688 H   0  0  0  0  0  0  0  0  0  0  0  0
   63.6370   34.6476   49.1528 H   0  0  0  0  0  0  0  0  0  0  0  0
   62.0454   35.4803   49.1528 H   0  0  0  0  0  0  0  0  0  0  0  0
   63.4056   33.2451   47.2442 H   0  0  0  0  0  0  0  0  0  0  0  0
   62.3967   31.2012   46.2381 H   0  0  0  0  0  0  0  0  0  0  0  0
   60.1328   30.1657   45.0624 H   0  0  0  0  0  0  0  0  0  0  0  0
   61.6990   29.5077   45.6874 H   0  0  0  0  0  0  0  0  0  0  0  0
   60.2655   27.8531   44.3792 H   0  0  0  0  0  0  0  0  0  0  0  0
   60.7483   27.3280   46.0266 H   0  0  0  0  0  0  0  0  0  0  0  0
   58.9193   27.6214   43.1621 H   0  0  0  0  0  0  0  0  0  0  0  0
   57.4474   26.5732   42.9607 H   0  0  0  0  0  0  0  0  0  0  0  0
   57.0205   28.6737   41.8535 H   0  0  0  0  0  0  0  0  0  0  0  0
   56.0377   28.6077   43.3722 H   0  0  0  0  0  0  0  0  0  0  0  0
   58.5830   30.2280   43.0350 H   0  0  0  0  0  0  0  0  0  0  0  0
   57.9378   32.9653   42.9668 H   0  0  0  0  0  0  0  0  0  0  0  0
   59.0599   34.9677   43.9410 H   0  0  0  0  0  0  0  0  0  0  0  0
   58.5327   33.3439   47.9130 H   0  0  0  0  0  0  0  0  0  0  0  0
   57.4105   31.3358   46.9510 H   0  0  0  0  0  0  0  0  0  0  0  0
   57.4829   29.0982   47.0194 H   0  0  0  0  0  0  0  0  0  0  0  0
   57.8979   27.4637   47.6915 H   0  0  0  0  0  0  0  0  0  0  0  0
   58.9872   29.5265   48.8124 H   0  0  0  0  0  0  0  0  0  0  0  0
   60.0552   28.1462   48.3469 H   0  0  0  0  0  0  0  0  0  0  0  0
   59.3796   31.1653   49.3504 H   0  0  0  0  0  0  0  0  0  0  0  0
   60.3986   33.2012   50.3586 H   0  0  0  0  0  0  0  0  0  0  0  0
  1  2  1  0
  2  3  2  0
  3  4  1  0
  4  5  2  0
  5  6  1  0
  6  7  1  0
  7  8  1  0
  8  9  1  0
  9 10  1  0
 10 11  2  0
 10 12  1  0
 12 13  1  0
 13 14  1  0
 14 15  1  0
 15 16  2  0
 15 17  1  0
 17 18  2  0
 18 19  1  0
 19 20  2  0
 20 21  1  0
 20 22  1  0
 22 23  2  0
  9 24  1  0
 24 25  1  0
  5 26  1  0
 26 27  2  0
 27  2  1  0
 25  6  1  0
 23 17  1  0
  1 28  1  0
  1 29  1  0
  1 30  1  0
  3 31  1  0
  4 32  1  0
  7 33  1  0
  7 34  1  0
  8 35  1  0
  8 36  1  0
 12 37  1  0
 12 38  1  0
 13 39  1  0
 13 40  1  0
 14 41  1  0
 18 42  1  0
 19 43  1  0
 22 44  1  0
 23 45  1  0
 24 46  1  0
 24 47  1  0
 25 48  1  0
 25 49  1  0
 26 50  1  0
 27 51  1  0
M  END
>  <UniqueID>  (59) 
57

>  <SMILES>  (59) 
Cc1ccc(N2CCN(C(=O)CCNC(=O)c3ccc(Cl)cc3)CC2)cc1

>  <Energy>  (59) 
55.34628418967981

>  <Genealogy>  (59) 
Cc1ccc(N2CCN(C(=O)CCNC(=O)c3ccc(Cl)cc3)CC2)cc1 (3D coordinates assigned)
Cc1ccc(N2CCN(C(=O)CCNC(=O)c3ccc(Cl)cc3)CC2)cc1 (nonaromatic ring conformer: 55.34628418967981 kcal/mol)

>  <smiles>  (59) 
Cc1ccc(N2CCN(C(=O)CCNC(=O)c3ccc(Cl)cc3)CC2)cc1

>  <score_type>  (59) 
oracle

>  <origin>  (59) 
adg

>  <m_score__min__energy>  (59) 
-8.8100000000000005

>  <m_primary>  (59) 
energy

$$$$
59:0
     RDKit          3D

 58 61  0  0  0  0  0  0  0  0999 V2000
   59.5370   34.9090   45.6730 C   0  0  0  0  0  0  0  0  0  0  0  0
   59.1640   33.6780   44.9890 N   0  0  0  0  0  0  0  0  0  0  0  0
   57.8440   33.1240   45.0110 C   0  0  0  0  0  0  0  0  0  0  0  0
   56.8620   33.8860   45.2090 O   0  0  0  0  0  0  0  0  0  0  0  0
   57.6060   31.6940   44.7530 C   0  0  0  0  0  0  0  0  0  0  0  0
   57.0420   31.3370   43.5110 C   0  0  0  0  0  0  0  0  0  0  0  0
   56.9130   29.9900   43.1370 C   0  0  0  0  0  0  0  0  0  0  0  0
   57.3570   28.9770   43.9910 C   0  0  0  0  0  0  0  0  0  0  0  0
   57.8930   29.3370   45.2220 C   0  0  0  0  0  0  0  0  0  0  0  0
   58.4900   28.3030   46.3940 S   0  0  0  0  0  0  0  0  0  0  0  0
   58.8910   29.5150   47.4940 C   0  0  0  0  0  0  0  0  0  0  0  0
   59.5530   29.2380   48.7830 C   0  0  0  0  0  0  0  0  0  0  0  0
   60.7300   28.7860   48.7850 O   0  0  0  0  0  0  0  0  0  0  0  0
   58.9090   29.5790   50.0170 N   0  0  0  0  0  0  0  0  0  0  0  0
   58.9280   30.8600   50.6640 C   0  0  0  0  0  0  0  0  0  0  0  0
   57.7190   31.4010   51.1120 C   0  0  0  0  0  0  0  0  0  0  0  0
   57.6930   32.6380   51.7580 C   0  0  0  0  0  0  0  0  0  0  0  0
   58.8820   33.3450   51.9820 C   0  0  0  0  0  0  0  0  0  0  0  0
   58.8490   34.5870   52.6150 O   0  0  0  0  0  0  0  0  0  0  0  0
   60.1100   32.7970   51.5660 C   0  0  0  0  0  0  0  0  0  0  0  0
   61.4010   33.5500   51.7850 C   0  0  0  0  0  0  0  0  0  0  0  0
   62.0020   33.9580   50.4980 N   0  0  0  0  0  0  0  0  0  0  0  0
   63.2330   33.1800   50.2030 C   0  0  0  0  0  0  0  0  0  0  0  0
   62.9810   32.0570   49.1880 C   0  0  0  0  0  0  0  0  0  0  0  0
   62.5170   32.6000   47.8910 N   0  0  0  0  0  0  0  0  0  0  0  0
   61.8240   31.5570   47.1180 C   0  0  0  0  0  0  0  0  0  0  0  0
   61.6820   33.8190   48.0230 C   0  0  0  0  0  0  0  0  0  0  0  0
   61.0040   33.9140   49.3980 C   0  0  0  0  0  0  0  0  0  0  0  0
   60.1270   31.5520   50.9110 C   0  0  0  0  0  0  0  0  0  0  0  0
   58.5160   30.7670   46.9660 C   0  0  0  0  0  0  0  0  0  0  0  0
   58.5620   32.0410   47.7710 C   0  0  0  0  0  0  0  0  0  0  0  0
   58.0020   30.6620   45.6430 C   0  0  0  0  0  0  0  0  0  0  0  0
   59.4897   34.7528   46.7608 H   0  0  0  0  0  0  0  0  0  0  0  0
   60.5610   35.1914   45.3873 H   0  0  0  0  0  0  0  0  0  0  0  0
   58.8419   35.7123   45.3873 H   0  0  0  0  0  0  0  0  0  0  0  0
   56.6981   32.1253   42.8252 H   0  0  0  0  0  0  0  0  0  0  0  0
   56.4608   29.7311   42.1682 H   0  0  0  0  0  0  0  0  0  0  0  0
   57.2841   27.9198   43.6961 H   0  0  0  0  0  0  0  0  0  0  0  0
   56.7815   30.8477   50.9542 H   0  0  0  0  0  0  0  0  0  0  0  0
   56.7341   33.0602   52.0931 H   0  0  0  0  0  0  0  0  0  0  0  0
   58.4240   35.3960   52.1760 H   0  0  0  0  0  0  0  0  0  0  0  0
   61.1960   34.4477   52.3867 H   0  0  0  0  0  0  0  0  0  0  0  0
   62.1078   32.8885   52.3074 H   0  0  0  0  0  0  0  0  0  0  0  0
   63.9935   33.8620   49.7949 H   0  0  0  0  0  0  0  0  0  0  0  0
   63.5721   32.7167   51.1413 H   0  0  0  0  0  0  0  0  0  0  0  0
   63.9164   31.5003   49.0296 H   0  0  0  0  0  0  0  0  0  0  0  0
   62.1983   31.3957   49.5882 H   0  0  0  0  0  0  0  0  0  0  0  0
   61.3499   30.8434   47.8079 H   0  0  0  0  0  0  0  0  0  0  0  0
   61.0540   32.0210   46.4842 H   0  0  0  0  0  0  0  0  0  0  0  0
   62.5501   31.0269   46.4842 H   0  0  0  0  0  0  0  0  0  0  0  0
   62.3214   34.7029   47.8818 H   0  0  0  0  0  0  0  0  0  0  0  0
   60.8911   33.7698   47.2601 H   0  0  0  0  0  0  0  0  0  0  0  0
   60.3939   34.8286   49.4327 H   0  0  0  0  0  0  0  0  0  0  0  0
   60.3790   33.0194   49.5360 H   0  0  0  0  0  0  0  0  0  0  0  0
   61.0849   31.1169   50.5898 H   0  0  0  0  0  0  0  0  0  0  0  0
   58.5532   31.7975   48.8437 H   0  0  0  0  0  0  0  0  0  0  0  0
   59.4807   32.5951   47.5283 H   0  0  0  0  0  0  0  0  0  0  0  0
   57.6856   32.6599   47.5283 H   0  0  0  0  0  0  0  0  0  0  0  0
  1  2  1  0
  2  3  1  0
  3  4  2  0
  3  5  1  0
  5  6  2  0
  6  7  1  0
  7  8  2  0
  8  9  1  0
  9 10  1  0
 10 11  1  0
 11 12  1  0
 12 13  2  0
 12 14  1  0
 14 15  1  0
 15 16  2  0
 16 17  1  0
 17 18  2  0
 18 19  1  0
 18 20  1  0
 20 21  1  0
 21 22  1  0
 22 23  1  0
 23 24  1  0
 24 25  1  0
 25 26  1  0
 25 27  1  0
 27 28  1  0
 20 29  2  0
 11 30  2  0
 30 31  1  0
 30 32  1  0
 32  5  1  0
 32  9  2  0
 29 15  1  0
 28 22  1  0
  1 33  1  0
  1 34  1  0
  1 35  1  0
  6 36  1  0
  7 37  1  0
  8 38  1  0
 16 39  1  0
 17 40  1  0
 19 41  1  0
 21 42  1  0
 21 43  1  0
 23 44  1  0
 23 45  1  0
 24 46  1  0
 24 47  1  0
 26 48  1  0
 26 49  1  0
 26 50  1  0
 27 51  1  0
 27 52  1  0
 28 53  1  0
 28 54  1  0
 29 55  1  0
 31 56  1  0
 31 57  1  0
 31 58  1  0
M  CHG  2   2  -1  14  -1
M  END
>  <UniqueID>  (60) 
58

>  <SMILES>  (60) 
C[N-]C(=O)c1cccc2sc(C(=O)[N-]c3ccc(O)c(CN4CCN(C)CC4)c3)c(C)c12

>  <Energy>  (60) 
117.26864244394075

>  <Genealogy>  (60) 
C[N-]C(=O)c1cccc2sc(C(=O)[N-]c3ccc(O)c(CN4CCN(C)CC4)c3)c(C)c12 (protonated)
C[N-]C(=O)c1cccc2sc(C(=O)[N-]c3ccc(O)c(CN4CCN(C)CC4)c3)c(C)c12 (3D coordinates assigned)
C[N-]C(=O)c1cccc2sc(C(=O)[N-]c3ccc(O)c(CN4CCN(C)CC4)c3)c(C)c12 (nonaromatic ring conformer: 117.26864244394075 kcal/mol)

>  <smiles>  (60) 
CNC(=O)c1cccc2sc(C(=O)Nc3ccc(O)c(CN4CCN(C)CC4)c3)c(C)c12

>  <score_type>  (60) 
oracle

>  <origin>  (60) 
adg

>  <m_score__min__energy>  (60) 
-11.210000000000001

>  <m_primary>  (60) 
energy

$$$$
60:0
     RDKit          3D

 37 38  0  0  0  0  0  0  0  0999 V2000
   54.2560   25.0540   45.6190 C   0  0  0  0  0  0  0  0  0  0  0  0
   54.8290   26.3410   45.9920 N   0  0  0  0  0  0  0  0  0  0  0  0
   56.2330   26.5860   46.1340 C   0  0  0  0  0  0  0  0  0  0  0  0
   56.8240   26.1800   47.1680 O   0  0  0  0  0  0  0  0  0  0  0  0
   56.9670   27.3410   45.1640 N   0  0  0  0  0  0  0  0  0  0  0  0
   57.1280   28.7650   45.1750 C   0  0  0  0  0  0  0  0  0  0  0  0
   57.9660   29.3470   46.1320 C   0  0  0  0  0  0  0  0  0  0  0  0
   58.1620   30.7320   46.1520 C   0  0  0  0  0  0  0  0  0  0  0  0
   57.5480   31.5490   45.1960 C   0  0  0  0  0  0  0  0  0  0  0  0
   57.7590   32.9670   45.2640 N   0  0  0  0  0  0  0  0  0  0  0  0
   57.8460   33.7530   46.4560 C   0  0  0  0  0  0  0  0  0  0  0  0
   57.1760   33.4110   47.4670 O   0  0  0  0  0  0  0  0  0  0  0  0
   58.7240   34.8830   46.5240 N   0  0  0  0  0  0  0  0  0  0  0  0
   60.0760   34.8920   45.9780 C   0  0  0  0  0  0  0  0  0  0  0  0
   61.0340   34.2230   46.9330 C   0  0  0  0  0  0  0  0  0  0  0  0
   62.2610   33.7360   46.4470 C   0  0  0  0  0  0  0  0  0  0  0  0
   63.1750   33.1240   47.3090 C   0  0  0  0  0  0  0  0  0  0  0  0
   62.8740   32.9910   48.6650 C   0  0  0  0  0  0  0  0  0  0  0  0
   61.6630   33.4740   49.1630 C   0  0  0  0  0  0  0  0  0  0  0  0
   60.7380   34.0910   48.3120 C   0  0  0  0  0  0  0  0  0  0  0  0
   59.5450   34.5600   48.8650 O   0  0  0  0  0  0  0  0  0  0  0  0
   56.7010   30.9670   44.2360 C   0  0  0  0  0  0  0  0  0  0  0  0
   56.5050   29.5840   44.2160 C   0  0  0  0  0  0  0  0  0  0  0  0
   54.0039   24.4877   46.5277 H   0  0  0  0  0  0  0  0  0  0  0  0
   53.3453   25.2167   45.0239 H   0  0  0  0  0  0  0  0  0  0  0  0
   54.9863   24.4861   45.0239 H   0  0  0  0  0  0  0  0  0  0  0  0
   58.4737   28.7120   46.8730 H   0  0  0  0  0  0  0  0  0  0  0  0
   58.8031   31.1819   46.9244 H   0  0  0  0  0  0  0  0  0  0  0  0
   60.0834   34.3520   45.0197 H   0  0  0  0  0  0  0  0  0  0  0  0
   60.3927   35.9346   45.8271 H   0  0  0  0  0  0  0  0  0  0  0  0
   62.5032   33.8378   45.3788 H   0  0  0  0  0  0  0  0  0  0  0  0
   64.1318   32.7471   46.9185 H   0  0  0  0  0  0  0  0  0  0  0  0
   63.5919   32.5050   49.3421 H   0  0  0  0  0  0  0  0  0  0  0  0
   61.4332   33.3690   50.2336 H   0  0  0  0  0  0  0  0  0  0  0  0
   58.6980   34.6910   48.3270 H   0  0  0  0  0  0  0  0  0  0  0  0
   56.1908   31.6033   43.4979 H   0  0  0  0  0  0  0  0  0  0  0  0
   55.8605   29.1334   43.4468 H   0  0  0  0  0  0  0  0  0  0  0  0
  1  2  1  0
  2  3  1  0
  3  4  2  0
  3  5  1  0
  5  6  1  0
  6  7  2  0
  7  8  1  0
  8  9  2  0
  9 10  1  0
 10 11  1  0
 11 12  2  0
 11 13  1  0
 13 14  1  0
 14 15  1  0
 15 16  2  0
 16 17  1  0
 17 18  2  0
 18 19  1  0
 19 20  2  0
 20 21  1  0
  9 22  1  0
 22 23  2  0
 23  6  1  0
 20 15  1  0
  1 24  1  0
  1 25  1  0
  1 26  1  0
  7 27  1  0
  8 28  1  0
 14 29  1  0
 14 30  1  0
 16 31  1  0
 17 32  1  0
 18 33  1  0
 19 34  1  0
 21 35  1  0
 22 36  1  0
 23 37  1  0
M  CHG  4   2  -1   5  -1  10  -1  13  -1
M  END
>  <UniqueID>  (61) 
59

>  <SMILES>  (61) 
C[N-]C(=O)[N-]c1ccc([N-]C(=O)[N-]Cc2ccccc2O)cc1

>  <Energy>  (61) 
44.213847824523455

>  <Genealogy>  (61) 
C[N-]C(=O)[N-]c1ccc([N-]C(=O)[N-]Cc2ccccc2O)cc1 (protonated)
C[N-]C(=O)[N-]c1ccc([N-]C(=O)[N-]Cc2ccccc2O)cc1 (3D coordinates assigned)
C[N-]C(=O)[N-]c1ccc([N-]C(=O)[N-]Cc2ccccc2O)cc1 (optimized conformer: 44.213847824523455 kcal/mol)

>  <smiles>  (61) 
CNC(=O)Nc1ccc(NC(=O)NCc2ccccc2O)cc1

>  <score_type>  (61) 
oracle

>  <origin>  (61) 
adg

>  <m_score__min__energy>  (61) 
-12.390000000000001

>  <m_primary>  (61) 
energy

$$$$
61:0
     RDKit          3D

 54 56  0  0  0  0  0  0  0  0999 V2000
   56.5606   26.6291   44.2843 H   0  0  0  0  0  0  0  0  0  0  0  0
   57.2550   26.4480   45.1180 C   0  0  0  0  0  0  0  0  0  0  0  0
   56.9440   25.3770   46.0850 C   0  0  0  0  0  0  0  0  0  0  0  0
   56.2800   25.6700   47.1150 O   0  0  0  0  0  0  0  0  0  0  0  0
   57.3720   24.0180   45.8800 N   0  0  0  0  0  0  0  0  0  0  0  0
   58.7790   23.7120   45.6050 C   0  0  0  0  0  0  0  0  0  0  0  0
   59.2804   24.6192   45.2368 H   0  0  0  0  0  0  0  0  0  0  0  0
   59.2532   23.3641   46.5345 H   0  0  0  0  0  0  0  0  0  0  0  0
   58.8980   22.6020   44.5430 C   0  0  0  0  0  0  0  0  0  0  0  0
   58.8716   23.0720   43.5488 H   0  0  0  0  0  0  0  0  0  0  0  0
   59.8432   22.0756   44.7417 H   0  0  0  0  0  0  0  0  0  0  0  0
   57.8160   21.5760   44.6040 N   0  0  0  0  0  0  0  0  0  0  0  0
   58.2860   20.6430   44.5300 H   0  0  0  0  0  0  0  0  0  0  0  0
   56.8960   21.6990   43.4830 C   0  0  0  0  0  0  0  0  0  0  0  0
   56.3600   20.7070   43.0100 O   0  0  0  0  0  0  0  0  0  0  0  0
   56.5720   23.0390   42.8840 C   0  0  0  0  0  0  0  0  0  0  0  0
   56.3958   23.7676   43.6891 H   0  0  0  0  0  0  0  0  0  0  0  0
   57.4145   23.3761   42.2623 H   0  0  0  0  0  0  0  0  0  0  0  0
   55.6685   22.9539   42.2623 H   0  0  0  0  0  0  0  0  0  0  0  0
   57.0820   21.5570   45.8900 C   0  0  0  0  0  0  0  0  0  0  0  0
   56.2739   20.8136   45.8236 H   0  0  0  0  0  0  0  0  0  0  0  0
   57.8025   21.3030   46.6815 H   0  0  0  0  0  0  0  0  0  0  0  0
   56.4670   22.9240   46.2400 C   0  0  0  0  0  0  0  0  0  0  0  0
   55.5219   23.0440   45.6900 H   0  0  0  0  0  0  0  0  0  0  0  0
   56.2905   22.9598   47.3252 H   0  0  0  0  0  0  0  0  0  0  0  0
   58.3540   27.2070   45.2210 C   0  0  0  0  0  0  0  0  0  0  0  0
   59.3241   26.7507   44.9747 H   0  0  0  0  0  0  0  0  0  0  0  0
   58.3380   28.6270   45.6480 C   0  0  0  0  0  0  0  0  0  0  0  0
   57.3280   29.4830   45.1740 C   0  0  0  0  0  0  0  0  0  0  0  0
   56.3630   28.9990   44.2830 O   0  0  0  0  0  0  0  0  0  0  0  0
   56.2910   29.4070   42.9230 C   0  0  0  0  0  0  0  0  0  0  0  0
   56.1000   30.4892   42.8745 H   0  0  0  0  0  0  0  0  0  0  0  0
   57.2431   29.1798   42.4211 H   0  0  0  0  0  0  0  0  0  0  0  0
   55.4742   28.8677   42.4211 H   0  0  0  0  0  0  0  0  0  0  0  0
   57.2970   30.7850   45.5750 N   0  0  0  0  0  0  0  0  0  0  0  0
   58.2110   31.3140   46.4290 C   0  0  0  0  0  0  0  0  0  0  0  0
   58.0970   32.5710   46.7600 N   0  0  0  0  0  0  0  0  0  0  0  0
   59.0400   33.6220   46.5010 C   0  0  0  0  0  0  0  0  0  0  0  0
   58.7640   34.4730   45.6150 O   0  0  0  0  0  0  0  0  0  0  0  0
   60.3540   33.6810   47.1900 C   0  0  0  0  0  0  0  0  0  0  0  0
   61.5430   33.4780   46.4660 C   0  0  0  0  0  0  0  0  0  0  0  0
   61.4974   33.2771   45.3855 H   0  0  0  0  0  0  0  0  0  0  0  0
   62.7820   33.5300   47.1110 C   0  0  0  0  0  0  0  0  0  0  0  0
   63.7070   33.3762   46.5359 H   0  0  0  0  0  0  0  0  0  0  0  0
   62.8480   33.7770   48.4850 C   0  0  0  0  0  0  0  0  0  0  0  0
   64.0510   33.8260   49.1080 F   0  0  0  0  0  0  0  0  0  0  0  0
   61.6730   33.9700   49.2150 C   0  0  0  0  0  0  0  0  0  0  0  0
   61.7249   34.1627   50.2967 H   0  0  0  0  0  0  0  0  0  0  0  0
   60.4310   33.9190   48.5750 C   0  0  0  0  0  0  0  0  0  0  0  0
   59.5092   34.0657   49.1570 H   0  0  0  0  0  0  0  0  0  0  0  0
   59.2200   30.4820   46.9470 C   0  0  0  0  0  0  0  0  0  0  0  0
   59.9575   30.8836   47.6575 H   0  0  0  0  0  0  0  0  0  0  0  0
   59.2800   29.1460   46.5550 C   0  0  0  0  0  0  0  0  0  0  0  0
   60.0687   28.4932   46.9572 H   0  0  0  0  0  0  0  0  0  0  0  0
  1  2  1  0
  2  3  1  0
  3  4  2  0
  3  5  1  0
  5  6  1  0
  6  7  1  0
  6  8  1  0
  6  9  1  0
  9 10  1  0
  9 11  1  0
  9 12  1  0
 12 13  1  0
 12 14  1  0
 14 15  2  0
 14 16  1  0
 16 17  1  0
 16 18  1  0
 16 19  1  0
 12 20  1  0
 20 21  1  0
 20 22  1  0
 20 23  1  0
 23 24  1  0
 23 25  1  0
  2 26  2  0
 26 27  1  0
 26 28  1  0
 28 29  2  0
 29 30  1  0
 30 31  1  0
 31 32  1  0
 31 33  1  0
 31 34  1  0
 29 35  1  0
 35 36  1  0
 36 37  2  3
 37 38  1  0
 38 39  2  0
 38 40  1  0
 40 41  2  0
 41 42  1  0
 41 43  1  0
 43 44  1  0
 43 45  2  0
 45 46  1  0
 45 47  1  0
 47 48  1  0
 47 49  2  0
 49 50  1  0
 36 51  1  0
 51 52  1  0
 51 53  2  0
 53 54  1  0
 23  5  1  0
 53 28  1  0
 49 40  1  0
M  CHG  2  12   1  35  -1
M  END
>  <UniqueID>  (62) 
60

>  <SMILES>  (62) 
COc1[n-]c(=NC(=O)c2ccc(F)cc2)ccc1/C=C/C(=O)N1CC[NH+](C(C)=O)CC1

>  <Energy>  (62) 
76.77325944045981

>  <Genealogy>  (62) 
COc1[n-]c(=NC(=O)c2ccc(F)cc2)ccc1C=CC(=O)N1CC[NH+](C(C)=O)CC1 (protonated)
COc1[n-]c(=NC(=O)c2ccc(F)cc2)ccc1/C=C/C(=O)N1CC[NH+](C(C)=O)CC1 (cis-trans isomerization)
COc1[n-]c(=NC(=O)c2ccc(F)cc2)ccc1/C=C/C(=O)N1CC[NH+](C(C)=O)CC1 (3D coordinates assigned)
COc1[n-]c(=NC(=O)c2ccc(F)cc2)ccc1/C=C/C(=O)N1CC[NH+](C(C)=O)CC1 (nonaromatic ring conformer: 76.77325944045981 kcal/mol)

>  <smiles>  (62) 
COc1[nH]c(=NC(=O)c2ccc(F)cc2)ccc1C=CC(=O)N1CCN(C(C)=O)CC1

>  <score_type>  (62) 
oracle

>  <origin>  (62) 
adg

>  <m_score__min__energy>  (62) 
-9.5199999999999996

>  <m_primary>  (62) 
energy

$$$$
62:0
     RDKit          3D

 60 63  0  0  0  0  0  0  0  0999 V2000
   59.6320   35.6650   46.6040 C   0  0  0  0  0  0  0  0  0  0  0  0
   59.6250   34.2470   47.1230 C   0  0  0  0  0  0  0  0  0  0  0  0
   60.2430   33.9010   48.2730 C   0  0  0  0  0  0  0  0  0  0  0  0
   59.5760   33.4760   49.5230 C   0  0  0  0  0  0  0  0  0  0  0  0
   58.6280   32.4750   49.6020 C   0  0  0  0  0  0  0  0  0  0  0  0
   58.2460   32.4620   50.9300 C   0  0  0  0  0  0  0  0  0  0  0  0
   57.2430   31.5420   51.5100 C   0  0  0  0  0  0  0  0  0  0  0  0
   56.2450   32.0190   52.1150 O   0  0  0  0  0  0  0  0  0  0  0  0
   57.3960   30.1240   51.3940 N   0  0  0  0  0  0  0  0  0  0  0  0
   58.6580   29.4240   51.6100 C   0  0  0  0  0  0  0  0  0  0  0  0
   59.5370   29.5380   50.3940 C   0  0  0  0  0  0  0  0  0  0  0  0
   60.7380   30.2660   50.4470 C   0  0  0  0  0  0  0  0  0  0  0  0
   61.5340   30.3940   49.3030 C   0  0  0  0  0  0  0  0  0  0  0  0
   61.1350   29.8000   48.1020 C   0  0  0  0  0  0  0  0  0  0  0  0
   59.9400   29.0770   48.0400 C   0  0  0  0  0  0  0  0  0  0  0  0
   59.1410   28.9470   49.1820 C   0  0  0  0  0  0  0  0  0  0  0  0
   58.9400   33.4220   51.5850 N   0  0  0  0  0  0  0  0  0  0  0  0
   58.8640   33.7760   52.9990 C   0  0  0  0  0  0  0  0  0  0  0  0
   59.7430   34.0420   50.7350 N   0  0  0  0  0  0  0  0  0  0  0  0
   58.8890   33.2120   46.3490 C   0  0  0  0  0  0  0  0  0  0  0  0
   58.9450   31.8610   46.7390 C   0  0  0  0  0  0  0  0  0  0  0  0
   58.2490   30.8860   46.0210 C   0  0  0  0  0  0  0  0  0  0  0  0
   57.4890   31.2410   44.8990 C   0  0  0  0  0  0  0  0  0  0  0  0
   56.6110   30.0140   43.9880 S   0  0  0  0  0  0  0  0  0  0  0  0
   56.6060   30.3740   42.5270 O   0  0  0  0  0  0  0  0  0  0  0  0
   55.1960   29.9610   44.4880 O   0  0  0  0  0  0  0  0  0  0  0  0
   57.3690   28.4570   44.2130 N   0  0  0  0  0  0  0  0  0  0  0  0
   57.0680   27.9020   45.5310 C   0  0  0  0  0  0  0  0  0  0  0  0
   58.2230   26.9800   45.8870 C   0  0  0  0  0  0  0  0  0  0  0  0
   59.3780   27.4210   45.0010 C   0  0  0  0  0  0  0  0  0  0  0  0
   58.8270   28.5590   44.1550 C   0  0  0  0  0  0  0  0  0  0  0  0
   57.4340   32.5820   44.5010 C   0  0  0  0  0  0  0  0  0  0  0  0
   58.1200   33.5620   45.2230 C   0  0  0  0  0  0  0  0  0  0  0  0
   59.6355   36.3658   47.4519 H   0  0  0  0  0  0  0  0  0  0  0  0
   60.5310   35.8267   45.9910 H   0  0  0  0  0  0  0  0  0  0  0  0
   58.7347   35.8355   45.9910 H   0  0  0  0  0  0  0  0  0  0  0  0
   61.3423   33.9387   48.2808 H   0  0  0  0  0  0  0  0  0  0  0  0
   58.2593   31.8317   48.7894 H   0  0  0  0  0  0  0  0  0  0  0  0
   59.1751   29.8675   52.4737 H   0  0  0  0  0  0  0  0  0  0  0  0
   58.4480   28.3610   51.7996 H   0  0  0  0  0  0  0  0  0  0  0  0
   61.0532   30.7364   51.3901 H   0  0  0  0  0  0  0  0  0  0  0  0
   62.4745   30.9626   49.3489 H   0  0  0  0  0  0  0  0  0  0  0  0
   61.7624   29.9017   47.2042 H   0  0  0  0  0  0  0  0  0  0  0  0
   59.6277   28.6104   47.0941 H   0  0  0  0  0  0  0  0  0  0  0  0
   58.1997   28.3802   49.1306 H   0  0  0  0  0  0  0  0  0  0  0  0
   59.0558   32.8826   53.6115 H   0  0  0  0  0  0  0  0  0  0  0  0
   59.6176   34.5446   53.2256 H   0  0  0  0  0  0  0  0  0  0  0  0
   57.8613   34.1675   53.2256 H   0  0  0  0  0  0  0  0  0  0  0  0
   59.5417   31.5706   47.6163 H   0  0  0  0  0  0  0  0  0  0  0  0
   58.2978   29.8338   46.3382 H   0  0  0  0  0  0  0  0  0  0  0  0
   56.9843   28.7097   46.2730 H   0  0  0  0  0  0  0  0  0  0  0  0
   56.1126   27.3570   45.5236 H   0  0  0  0  0  0  0  0  0  0  0  0
   58.4890   27.0884   46.9488 H   0  0  0  0  0  0  0  0  0  0  0  0
   57.9663   25.9221   45.7290 H   0  0  0  0  0  0  0  0  0  0  0  0
   60.2215   27.7709   45.6142 H   0  0  0  0  0  0  0  0  0  0  0  0
   59.7553   26.5953   44.3799 H   0  0  0  0  0  0  0  0  0  0  0  0
   59.1559   29.5270   44.5609 H   0  0  0  0  0  0  0  0  0  0  0  0
   59.1877   28.4921   43.1180 H   0  0  0  0  0  0  0  0  0  0  0  0
   56.8474   32.8658   43.6148 H   0  0  0  0  0  0  0  0  0  0  0  0
   58.0587   34.6145   44.9093 H   0  0  0  0  0  0  0  0  0  0  0  0
  1  2  1  0
  2  3  2  3
  3  4  1  0
  4  5  1  0
  5  6  2  0
  6  7  1  0
  7  8  2  0
  7  9  1  0
  9 10  1  0
 10 11  1  0
 11 12  2  0
 12 13  1  0
 13 14  2  0
 14 15  1  0
 15 16  2  0
  6 17  1  0
 17 18  1  0
 17 19  1  0
  2 20  1  0
 20 21  2  0
 21 22  1  0
 22 23  2  0
 23 24  1  0
 24 25  2  0
 24 26  2  0
 24 27  1  0
 27 28  1  0
 28 29  1  0
 29 30  1  0
 30 31  1  0
 23 32  1  0
 32 33  2  0
 19  4  2  0
 33 20  1  0
 16 11  1  0
 31 27  1  0
  1 34  1  0
  1 35  1  0
  1 36  1  0
  3 37  1  0
  5 38  1  0
 10 39  1  0
 10 40  1  0
 12 41  1  0
 13 42  1  0
 14 43  1  0
 15 44  1  0
 16 45  1  0
 18 46  1  0
 18 47  1  0
 18 48  1  0
 21 49  1  0
 22 50  1  0
 28 51  1  0
 28 52  1  0
 29 53  1  0
 29 54  1  0
 30 55  1  0
 30 56  1  0
 31 57  1  0
 31 58  1  0
 32 59  1  0
 33 60  1  0
M  CHG  1   9  -1
M  END
>  <UniqueID>  (63) 
61

>  <SMILES>  (63) 
CC(=Cc1cc(C(=O)[N-]Cc2ccccc2)n(C)n1)c1ccc(S(=O)(=O)N2CCCC2)cc1

>  <Energy>  (63) 
97.80355660401703

>  <Genealogy>  (63) 
CC(=Cc1cc(C(=O)[N-]Cc2ccccc2)n(C)n1)c1ccc(S(=O)(=O)N2CCCC2)cc1 (protonated)
CC(=Cc1cc(C(=O)[N-]Cc2ccccc2)n(C)n1)c1ccc(S(=O)(=O)N2CCCC2)cc1 (3D coordinates assigned)
CC(=Cc1cc(C(=O)[N-]Cc2ccccc2)n(C)n1)c1ccc(S(=O)(=O)N2CCCC2)cc1 (nonaromatic ring conformer: 97.80355660401703 kcal/mol)

>  <smiles>  (63) 
CC(=Cc1cc(C(=O)NCc2ccccc2)n(C)n1)c1ccc(S(=O)(=O)N2CCCC2)cc1

>  <score_type>  (63) 
oracle

>  <origin>  (63) 
adg

>  <m_score__min__energy>  (63) 
-11.84

>  <m_primary>  (63) 
energy

$$$$
63:0
     RDKit          3D

 45 47  0  0  0  0  0  0  0  0999 V2000
   57.5840   27.4470   44.1510 O   0  0  0  0  0  0  0  0  0  0  0  0
   57.2380   28.2290   45.0740 C   0  0  0  0  0  0  0  0  0  0  0  0
   55.9130   28.7790   45.0510 N   0  0  0  0  0  0  0  0  0  0  0  0
   55.4090   29.7450   44.0780 C   0  0  0  0  0  0  0  0  0  0  0  0
   56.4130   30.8420   43.8440 C   0  0  0  0  0  0  0  0  0  0  0  0
   57.0210   30.9990   42.5860 C   0  0  0  0  0  0  0  0  0  0  0  0
   57.9720   32.0030   42.3810 C   0  0  0  0  0  0  0  0  0  0  0  0
   58.3320   32.8500   43.4330 C   0  0  0  0  0  0  0  0  0  0  0  0
   59.2560   33.8220   43.2330 F   0  0  0  0  0  0  0  0  0  0  0  0
   57.7450   32.6910   44.6910 C   0  0  0  0  0  0  0  0  0  0  0  0
   56.7930   31.6880   44.8990 C   0  0  0  0  0  0  0  0  0  0  0  0
   58.1900   28.5190   46.1610 C   0  0  0  0  0  0  0  0  0  0  0  0
   58.3500   27.6230   47.2280 C   0  0  0  0  0  0  0  0  0  0  0  0
   59.2680   27.8920   48.2450 C   0  0  0  0  0  0  0  0  0  0  0  0
   60.0170   29.0780   48.2260 C   0  0  0  0  0  0  0  0  0  0  0  0
   61.0150   29.3710   49.3160 C   0  0  0  0  0  0  0  0  0  0  0  0
   60.3480   29.7960   50.5480 N   0  0  0  0  0  0  0  0  0  0  0  0
   59.6140   31.3690   50.3820 S   0  0  0  0  0  0  0  0  0  0  0  0
   59.5790   32.0750   51.7100 O   0  0  0  0  0  0  0  0  0  0  0  0
   58.2070   31.1960   49.8830 O   0  0  0  0  0  0  0  0  0  0  0  0
   60.5100   32.3360   49.2150 C   0  0  0  0  0  0  0  0  0  0  0  0
   61.9080   32.2480   49.1510 C   0  0  0  0  0  0  0  0  0  0  0  0
   62.6170   33.0030   48.2130 C   0  0  0  0  0  0  0  0  0  0  0  0
   61.9340   33.8310   47.3180 C   0  0  0  0  0  0  0  0  0  0  0  0
   60.5390   33.9090   47.3640 C   0  0  0  0  0  0  0  0  0  0  0  0
   59.6050   35.0310   46.1310 Br  0  0  0  0  0  0  0  0  0  0  0  0
   59.8270   33.1650   48.3130 C   0  0  0  0  0  0  0  0  0  0  0  0
   59.8240   29.9970   47.1830 C   0  0  0  0  0  0  0  0  0  0  0  0
   58.9180   29.7180   46.1560 C   0  0  0  0  0  0  0  0  0  0  0  0
   55.2106   29.2289   43.1271 H   0  0  0  0  0  0  0  0  0  0  0  0
   54.4841   30.1918   44.4716 H   0  0  0  0  0  0  0  0  0  0  0  0
   56.7469   30.3281   41.7585 H   0  0  0  0  0  0  0  0  0  0  0  0
   58.4370   32.1264   41.3918 H   0  0  0  0  0  0  0  0  0  0  0  0
   58.0322   33.3558   45.5190 H   0  0  0  0  0  0  0  0  0  0  0  0
   56.3397   31.5610   45.8932 H   0  0  0  0  0  0  0  0  0  0  0  0
   57.7486   26.7027   47.2639 H   0  0  0  0  0  0  0  0  0  0  0  0
   59.4045   27.1710   49.0645 H   0  0  0  0  0  0  0  0  0  0  0  0
   61.5996   28.4619   49.5204 H   0  0  0  0  0  0  0  0  0  0  0  0
   61.6700   30.1870   48.9767 H   0  0  0  0  0  0  0  0  0  0  0  0
   62.4480   31.5829   49.8410 H   0  0  0  0  0  0  0  0  0  0  0  0
   63.7150   32.9455   48.1790 H   0  0  0  0  0  0  0  0  0  0  0  0
   62.4939   34.4212   46.5776 H   0  0  0  0  0  0  0  0  0  0  0  0
   58.7296   33.2309   48.3511 H   0  0  0  0  0  0  0  0  0  0  0  0
   60.3883   30.9412   47.1738 H   0  0  0  0  0  0  0  0  0  0  0  0
   58.7752   30.4419   45.3402 H   0  0  0  0  0  0  0  0  0  0  0  0
  1  2  2  0
  2  3  1  0
  3  4  1  0
  4  5  1  0
  5  6  2  0
  6  7  1  0
  7  8  2  0
  8  9  1  0
  8 10  1  0
 10 11  2  0
  2 12  1  0
 12 13  2  0
 13 14  1  0
 14 15  2  0
 15 16  1  0
 16 17  1  0
 17 18  1  0
 18 19  2  0
 18 20  2  0
 18 21  1  0
 21 22  2  0
 22 23  1  0
 23 24  2  0
 24 25  1  0
 25 26  1  0
 25 27  2  0
 15 28  1  0
 28 29  2  0
 11  5  1  0
 29 12  1  0
 27 21  1  0
  4 30  1  0
  4 31  1  0
  6 32  1  0
  7 33  1  0
 10 34  1  0
 11 35  1  0
 13 36  1  0
 14 37  1  0
 16 38  1  0
 16 39  1  0
 22 40  1  0
 23 41  1  0
 24 42  1  0
 27 43  1  0
 28 44  1  0
 29 45  1  0
M  CHG  2   3  -1  17  -1
M  END
>  <UniqueID>  (64) 
62

>  <SMILES>  (64) 
O=C([N-]Cc1ccc(F)cc1)c1ccc(C[N-]S(=O)(=O)c2cccc(Br)c2)cc1

>  <Energy>  (64) 
46.130243457315295

>  <Genealogy>  (64) 
O=C([N-]Cc1ccc(F)cc1)c1ccc(C[N-]S(=O)(=O)c2cccc(Br)c2)cc1 (protonated)
O=C([N-]Cc1ccc(F)cc1)c1ccc(C[N-]S(=O)(=O)c2cccc(Br)c2)cc1 (3D coordinates assigned)
O=C([N-]Cc1ccc(F)cc1)c1ccc(C[N-]S(=O)(=O)c2cccc(Br)c2)cc1 (optimized conformer: 46.130243457315295 kcal/mol)

>  <smiles>  (64) 
O=C(NCc1ccc(F)cc1)c1ccc(CNS(=O)(=O)c2cccc(Br)c2)cc1

>  <score_type>  (64) 
oracle

>  <origin>  (64) 
adg

>  <m_score__min__energy>  (64) 
-11.98

>  <m_primary>  (64) 
energy

$$$$
64:0
     RDKit          3D

 63 66  0  0  0  0  0  0  0  0999 V2000
   61.3860   33.8270   48.2940 H   0  0  0  0  0  0  0  0  0  0  0  0
   61.8250   34.2320   49.1500 N   0  0  0  0  0  0  0  0  0  0  0  0
   63.0050   33.9210   49.5920 C   0  0  0  0  0  0  0  0  0  0  0  0
   63.2440   34.0240   50.9250 N   0  0  0  0  0  0  0  0  0  0  0  0
   64.4510   33.7210   51.4610 C   0  0  0  0  0  0  0  0  0  0  0  0
   64.6164   33.8197   52.5440 H   0  0  0  0  0  0  0  0  0  0  0  0
   65.4850   33.2820   50.6280 C   0  0  0  0  0  0  0  0  0  0  0  0
   66.8410   32.9930   51.1970 C   0  0  0  0  0  0  0  0  0  0  0  0
   66.7877   33.0044   52.2956 H   0  0  0  0  0  0  0  0  0  0  0  0
   67.1781   32.0028   50.8565 H   0  0  0  0  0  0  0  0  0  0  0  0
   67.5525   33.7597   50.8565 H   0  0  0  0  0  0  0  0  0  0  0  0
   65.2660   33.1900   49.2860 N   0  0  0  0  0  0  0  0  0  0  0  0
   66.0480   32.8740   48.6680 H   0  0  0  0  0  0  0  0  0  0  0  0
   64.0490   33.4800   48.7380 C   0  0  0  0  0  0  0  0  0  0  0  0
   63.8690   33.3470   47.2410 C   0  0  0  0  0  0  0  0  0  0  0  0
   63.2411   34.1733   46.8764 H   0  0  0  0  0  0  0  0  0  0  0  0
   64.8566   33.3820   46.7578 H   0  0  0  0  0  0  0  0  0  0  0  0
   63.2280   32.0770   46.9180 N   0  0  0  0  0  0  0  0  0  0  0  0
   61.8340   31.8250   47.1400 C   0  0  0  0  0  0  0  0  0  0  0  0
   60.9700   32.5200   46.5400 O   0  0  0  0  0  0  0  0  0  0  0  0
   61.4040   30.7230   48.0280 C   0  0  0  0  0  0  0  0  0  0  0  0
   61.7240   30.7370   49.3960 C   0  0  0  0  0  0  0  0  0  0  0  0
   62.2837   31.5846   49.8183 H   0  0  0  0  0  0  0  0  0  0  0  0
   61.3350   29.6800   50.2230 C   0  0  0  0  0  0  0  0  0  0  0  0
   61.5745   29.7073   51.2963 H   0  0  0  0  0  0  0  0  0  0  0  0
   60.6420   28.5870   49.6910 C   0  0  0  0  0  0  0  0  0  0  0  0
   60.3360   27.7598   50.3483 H   0  0  0  0  0  0  0  0  0  0  0  0
   60.3360   28.5420   48.3230 C   0  0  0  0  0  0  0  0  0  0  0  0
   59.6360   27.3710   47.7520 C   0  0  0  0  0  0  0  0  0  0  0  0
   59.6310   26.2810   48.3910 O   0  0  0  0  0  0  0  0  0  0  0  0
   58.9420   27.4590   46.4930 N   0  0  0  0  0  0  0  0  0  0  0  0
   57.6670   26.7490   46.3050 C   0  0  0  0  0  0  0  0  0  0  0  0
   57.8360   25.8548   45.6871 H   0  0  0  0  0  0  0  0  0  0  0  0
   57.2700   26.4547   47.2877 H   0  0  0  0  0  0  0  0  0  0  0  0
   56.6490   27.6680   45.6040 C   0  0  0  0  0  0  0  0  0  0  0  0
   55.9262   27.0471   45.0545 H   0  0  0  0  0  0  0  0  0  0  0  0
   56.1430   28.2714   46.3720 H   0  0  0  0  0  0  0  0  0  0  0  0
   57.3090   28.5830   44.6590 N   0  0  0  0  0  0  0  0  0  0  0  0
   56.7800   29.9180   44.5190 C   0  0  0  0  0  0  0  0  0  0  0  0
   55.5280   30.0850   44.5020 O   0  0  0  0  0  0  0  0  0  0  0  0
   57.6720   31.0980   44.4580 C   0  0  0  0  0  0  0  0  0  0  0  0
   58.7049   30.9428   44.1129 H   0  0  0  0  0  0  0  0  0  0  0  0
   57.3060   32.3430   44.7950 C   0  0  0  0  0  0  0  0  0  0  0  0
   56.3066   32.6792   44.4818 H   0  0  0  0  0  0  0  0  0  0  0  0
   58.1400   33.3010   45.5550 C   0  0  0  0  0  0  0  0  0  0  0  0
   58.8620   34.3240   44.9110 C   0  0  0  0  0  0  0  0  0  0  0  0
   58.8334   34.4077   43.8146 H   0  0  0  0  0  0  0  0  0  0  0  0
   59.6160   35.2350   45.6600 C   0  0  0  0  0  0  0  0  0  0  0  0
   60.1923   36.0214   45.1506 H   0  0  0  0  0  0  0  0  0  0  0  0
   59.6370   35.1460   47.0550 C   0  0  0  0  0  0  0  0  0  0  0  0
   60.2358   35.8576   47.6424 H   0  0  0  0  0  0  0  0  0  0  0  0
   58.8980   34.1540   47.7030 C   0  0  0  0  0  0  0  0  0  0  0  0
   58.9135   34.0871   48.8009 H   0  0  0  0  0  0  0  0  0  0  0  0
   58.1380   33.2450   46.9590 C   0  0  0  0  0  0  0  0  0  0  0  0
   57.5361   32.4829   47.4756 H   0  0  0  0  0  0  0  0  0  0  0  0
   58.6300   28.2060   44.1520 C   0  0  0  0  0  0  0  0  0  0  0  0
   58.5654   27.2367   43.6361 H   0  0  0  0  0  0  0  0  0  0  0  0
   58.9895   28.9658   43.4425 H   0  0  0  0  0  0  0  0  0  0  0  0
   59.5980   28.0970   45.3340 C   0  0  0  0  0  0  0  0  0  0  0  0
   60.4668   27.4928   45.0339 H   0  0  0  0  0  0  0  0  0  0  0  0
   59.9166   29.1095   45.6229 H   0  0  0  0  0  0  0  0  0  0  0  0
   60.6920   29.6280   47.5050 C   0  0  0  0  0  0  0  0  0  0  0  0
   60.4102   29.6218   46.4417 H   0  0  0  0  0  0  0  0  0  0  0  0
  1  2  1  0
  2  3  2  0
  3  4  1  0
  4  5  1  0
  5  6  1  0
  5  7  2  0
  7  8  1  0
  8  9  1  0
  8 10  1  0
  8 11  1  0
  7 12  1  0
 12 13  1  0
 12 14  2  0
 14 15  1  0
 15 16  1  0
 15 17  1  0
 15 18  1  0
 18 19  1  0
 19 20  2  0
 19 21  1  0
 21 22  2  0
 22 23  1  0
 22 24  1  0
 24 25  1  0
 24 26  2  0
 26 27  1  0
 26 28  1  0
 28 29  1  0
 29 30  2  0
 29 31  1  0
 31 32  1  0
 32 33  1  0
 32 34  1  0
 32 35  1  0
 35 36  1  0
 35 37  1  0
 35 38  1  0
 38 39  1  0
 39 40  2  0
 39 41  1  0
 41 42  1  0
 41 43  2  3
 43 44  1  0
 43 45  1  0
 45 46  2  0
 46 47  1  0
 46 48  1  0
 48 49  1  0
 48 50  2  0
 50 51  1  0
 50 52  1  0
 52 53  1  0
 52 54  2  0
 54 55  1  0
 38 56  1  0
 56 57  1  0
 56 58  1  0
 56 59  1  0
 59 60  1  0
 59 61  1  0
 28 62  2  0
 62 63  1  0
 14  3  1  0
 62 21  1  0
 59 31  1  0
 54 45  1  0
M  CHG  3   4  -1  12   1  18  -1
M  END
>  <UniqueID>  (65) 
63

>  <SMILES>  (65) 
[H]/N=c1/[n-]cc(C)[nH+]c1C[N-]C(=O)c1cccc(C(=O)N2CCN(C(=O)C=Cc3ccccc3)CC2)c1

>  <Energy>  (65) 
82.26014813093138

>  <Genealogy>  (65) 
Cc1c[n-]c(=N)c(C[N-]C(=O)c2cccc(C(=O)N3CCN(C(=O)C=Cc4ccccc4)CC3)c2)[nH+]1 (protonated)
[H]/N=c1/[n-]cc(C)[nH+]c1C[N-]C(=O)c1cccc(C(=O)N2CCN(C(=O)C=Cc3ccccc3)CC2)c1 (cis-trans isomerization)
[H]/N=c1/[n-]cc(C)[nH+]c1C[N-]C(=O)c1cccc(C(=O)N2CCN(C(=O)C=Cc3ccccc3)CC2)c1 (3D coordinates assigned)
[H]/N=c1/[n-]cc(C)[nH+]c1C[N-]C(=O)c1cccc(C(=O)N2CCN(C(=O)C=Cc3ccccc3)CC2)c1 (nonaromatic ring conformer: 82.26014813093138 kcal/mol)

>  <smiles>  (65) 
Cc1c[nH]c(=N)c(CNC(=O)c2cccc(C(=O)N3CCN(C(=O)C=Cc4ccccc4)CC3)c2)n1

>  <score_type>  (65) 
oracle

>  <origin>  (65) 
adg

>  <m_score__min__energy>  (65) 
-11.970000000000001

>  <m_primary>  (65) 
energy

$$$$
65:0
     RDKit          3D

 57 60  0  0  0  0  0  0  0  0999 V2000
   61.3870   28.0020   45.5070 H   0  0  0  0  0  0  0  0  0  0  0  0
   60.7840   28.3280   46.2470 O   0  0  0  0  0  0  0  0  0  0  0  0
   59.9210   29.4320   46.1910 C   0  0  0  0  0  0  0  0  0  0  0  0
   60.1280   30.4510   47.1600 C   0  0  0  0  0  0  0  0  0  0  0  0
   61.2150   30.3020   48.2090 C   0  0  0  0  0  0  0  0  0  0  0  0
   60.7466   30.1552   49.1934 H   0  0  0  0  0  0  0  0  0  0  0  0
   61.8391   29.4356   47.9448 H   0  0  0  0  0  0  0  0  0  0  0  0
   62.0920   31.5260   48.2590 C   0  0  0  0  0  0  0  0  0  0  0  0
   62.2510   32.2350   49.4630 C   0  0  0  0  0  0  0  0  0  0  0  0
   61.7515   31.8809   50.3769 H   0  0  0  0  0  0  0  0  0  0  0  0
   63.0410   33.3880   49.5040 C   0  0  0  0  0  0  0  0  0  0  0  0
   63.1578   33.9406   50.4480 H   0  0  0  0  0  0  0  0  0  0  0  0
   63.6820   33.8390   48.3480 C   0  0  0  0  0  0  0  0  0  0  0  0
   64.3022   34.7469   48.3820 H   0  0  0  0  0  0  0  0  0  0  0  0
   63.5360   33.1380   47.1490 C   0  0  0  0  0  0  0  0  0  0  0  0
   64.0466   33.4910   46.2409 H   0  0  0  0  0  0  0  0  0  0  0  0
   62.7410   31.9870   47.1010 C   0  0  0  0  0  0  0  0  0  0  0  0
   62.6238   31.4412   46.1532 H   0  0  0  0  0  0  0  0  0  0  0  0
   59.3280   31.6090   47.1300 C   0  0  0  0  0  0  0  0  0  0  0  0
   59.5030   32.5300   47.9720 O   0  0  0  0  0  0  0  0  0  0  0  0
   58.3590   31.7060   46.1800 N   0  0  0  0  0  0  0  0  0  0  0  0
   57.4310   32.6550   45.9020 C   0  0  0  0  0  0  0  0  0  0  0  0
   57.2690   33.8220   46.5290 C   0  0  0  0  0  0  0  0  0  0  0  0
   57.9272   34.0915   47.3681 H   0  0  0  0  0  0  0  0  0  0  0  0
   56.4773   34.5143   46.2066 H   0  0  0  0  0  0  0  0  0  0  0  0
   56.6530   32.2770   44.8700 N   0  0  0  0  0  0  0  0  0  0  0  0
   57.0800   31.0850   44.4770 N   0  0  0  0  0  0  0  0  0  0  0  0
   58.1170   30.7490   45.2670 C   0  0  0  0  0  0  0  0  0  0  0  0
   58.8790   29.5570   45.2110 C   0  0  0  0  0  0  0  0  0  0  0  0
   58.6430   28.5710   44.3010 C   0  0  0  0  0  0  0  0  0  0  0  0
   58.7653   28.8435   43.2423 H   0  0  0  0  0  0  0  0  0  0  0  0
   58.2320   27.1450   44.5840 C   0  0  0  0  0  0  0  0  0  0  0  0
   57.6652   26.7613   43.7229 H   0  0  0  0  0  0  0  0  0  0  0  0
   59.1452   26.5557   44.7540 H   0  0  0  0  0  0  0  0  0  0  0  0
   57.3740   27.0390   45.8170 C   0  0  0  0  0  0  0  0  0  0  0  0
   56.3100   27.7120   45.8760 O   0  0  0  0  0  0  0  0  0  0  0  0
   57.7440   26.1990   46.9270 N   0  0  0  0  0  0  0  0  0  0  0  0
   58.8470   26.5850   47.8140 C   0  0  0  0  0  0  0  0  0  0  0  0
   58.5308   26.4744   48.8618 H   0  0  0  0  0  0  0  0  0  0  0  0
   59.7153   25.9373   47.6226 H   0  0  0  0  0  0  0  0  0  0  0  0
   59.1219   27.6328   47.6226 H   0  0  0  0  0  0  0  0  0  0  0  0
   56.9730   24.9750   47.1880 C   0  0  0  0  0  0  0  0  0  0  0  0
   57.5260   24.3380   47.8940 H   0  0  0  0  0  0  0  0  0  0  0  0
   55.9975   25.2438   47.6194 H   0  0  0  0  0  0  0  0  0  0  0  0
   56.7580   24.2210   45.8910 C   0  0  0  0  0  0  0  0  0  0  0  0
   57.8540   23.5130   45.3670 C   0  0  0  0  0  0  0  0  0  0  0  0
   58.7854   23.4469   45.9484 H   0  0  0  0  0  0  0  0  0  0  0  0
   57.7760   22.8940   44.1210 C   0  0  0  0  0  0  0  0  0  0  0  0
   58.6404   22.3385   43.7283 H   0  0  0  0  0  0  0  0  0  0  0  0
   56.6040   22.9780   43.3720 C   0  0  0  0  0  0  0  0  0  0  0  0
   56.5470   22.4950   42.3854 H   0  0  0  0  0  0  0  0  0  0  0  0
   55.5040   23.6730   43.8710 C   0  0  0  0  0  0  0  0  0  0  0  0
   54.5860   23.7424   43.2689 H   0  0  0  0  0  0  0  0  0  0  0  0
   55.5540   24.2870   45.1360 C   0  0  0  0  0  0  0  0  0  0  0  0
   54.3330   24.9560   45.6280 C   0  0  0  0  0  0  0  0  0  0  0  0
   54.3720   26.1640   45.9820 O   0  0  0  0  0  0  0  0  0  0  0  0
   53.1160   24.2870   45.6430 O   0  0  0  0  0  0  0  0  0  0  0  0
  1  2  1  0
  2  3  1  0
  3  4  2  0
  4  5  1  0
  5  6  1  0
  5  7  1  0
  5  8  1  0
  8  9  2  0
  9 10  1  0
  9 11  1  0
 11 12  1  0
 11 13  2  0
 13 14  1  0
 13 15  1  0
 15 16  1  0
 15 17  2  0
 17 18  1  0
  4 19  1  0
 19 20  2  0
 19 21  1  0
 21 22  1  0
 22 23  2  0
 23 24  1  0
 23 25  1  0
 22 26  1  0
 26 27  1  0
 27 28  2  0
 28 29  1  0
 29 30  2  0
 30 31  1  0
 30 32  1  0
 32 33  1  0
 32 34  1  0
 32 35  1  0
 35 36  2  0
 35 37  1  0
 37 38  1  0
 38 39  1  0
 38 40  1  0
 38 41  1  0
 37 42  1  0
 42 43  1  0
 42 44  1  0
 42 45  1  0
 45 46  2  0
 46 47  1  0
 46 48  1  0
 48 49  1  0
 48 50  2  0
 50 51  1  0
 50 52  1  0
 52 53  1  0
 52 54  2  0
 54 55  1  0
 55 56  2  0
 55 57  1  0
 29  3  1  0
 54 45  1  0
 17  8  1  0
 28 21  1  0
M  CHG  2  26  -1  57  -1
M  END
>  <UniqueID>  (66) 
64

>  <SMILES>  (66) 
C=c1[n-]nc2/c(=C\CC(=O)N(C)Cc3ccccc3C(=O)[O-])c(O)c(Cc3ccccc3)c(=O)n12

>  <Energy>  (66) 
111.67656398358963

>  <Genealogy>  (66) 
C=c1[n-]nc2c(=CCC(=O)N(C)Cc3ccccc3C(=O)[O-])c(O)c(Cc3ccccc3)c(=O)n12 (protonated)
C=c1[n-]nc2/c(=C\CC(=O)N(C)Cc3ccccc3C(=O)[O-])c(O)c(Cc3ccccc3)c(=O)n12 (cis-trans isomerization)
C=c1[n-]nc2/c(=C\CC(=O)N(C)Cc3ccccc3C(=O)[O-])c(O)c(Cc3ccccc3)c(=O)n12 (3D coordinates assigned)
C=c1[n-]nc2/c(=C\CC(=O)N(C)Cc3ccccc3C(=O)[O-])c(O)c(Cc3ccccc3)c(=O)n12 (optimized conformer: 111.67656398358963 kcal/mol)

>  <smiles>  (66) 
C=c1[nH]nc2c(=CCC(=O)N(C)Cc3ccccc3C(=O)O)c(O)c(Cc3ccccc3)c(=O)n12

>  <score_type>  (66) 
oracle

>  <origin>  (66) 
adg

>  <m_score__min__energy>  (66) 
-13.449999999999999

>  <m_primary>  (66) 
energy

$$$$
66:0
     RDKit          3D

 35 37  0  0  0  0  0  0  0  0999 V2000
   61.0424   33.7468   50.9896 H   0  0  0  0  0  0  0  0  0  0  0  0
   60.1360   33.2140   51.3130 C   0  0  0  0  0  0  0  0  0  0  0  0
   59.1390   33.7710   51.9910 C   0  0  0  0  0  0  0  0  0  0  0  0
   59.1129   34.8249   52.3052 H   0  0  0  0  0  0  0  0  0  0  0  0
   58.0620   32.7830   52.2700 C   0  0  0  0  0  0  0  0  0  0  0  0
   57.9261   32.6441   53.3527 H   0  0  0  0  0  0  0  0  0  0  0  0
   57.0807   33.0973   51.8848 H   0  0  0  0  0  0  0  0  0  0  0  0
   58.5540   31.5610   51.6450 N   0  0  0  0  0  0  0  0  0  0  0  0
   57.9450   30.2680   51.7930 C   0  0  0  0  0  0  0  0  0  0  0  0
   58.6310   29.2270   51.6080 O   0  0  0  0  0  0  0  0  0  0  0  0
   56.5360   30.1320   52.1950 C   0  0  0  0  0  0  0  0  0  0  0  0
   55.5510   31.0380   51.8640 C   0  0  0  0  0  0  0  0  0  0  0  0
   55.6741   31.9475   51.2576 H   0  0  0  0  0  0  0  0  0  0  0  0
   54.3770   30.5840   52.4410 C   0  0  0  0  0  0  0  0  0  0  0  0
   53.2160   31.2640   52.3570 C   0  0  0  0  0  0  0  0  0  0  0  0
   52.9491   31.9078   53.2081 H   0  0  0  0  0  0  0  0  0  0  0  0
   52.2750   31.2210   51.2280 C   0  0  0  0  0  0  0  0  0  0  0  0
   52.3400   30.3120   50.2400 N   0  0  0  0  0  0  0  0  0  0  0  0
   51.3880   30.7240   49.3740 C   0  0  0  0  0  0  0  0  0  0  0  0
   51.1300   30.1080   48.3070 O   0  0  0  0  0  0  0  0  0  0  0  0
   50.7450   31.8550   49.7330 N   0  0  0  0  0  0  0  0  0  0  0  0
   51.3280   32.1660   50.9020 C   0  0  0  0  0  0  0  0  0  0  0  0
   51.0220   33.3030   51.6390 O   0  0  0  0  0  0  0  0  0  0  0  0
   54.6950   29.3710   53.0750 C   0  0  0  0  0  0  0  0  0  0  0  0
   53.8410   28.4940   53.6240 C   0  0  0  0  0  0  0  0  0  0  0  0
   54.2223   27.5748   54.0927 H   0  0  0  0  0  0  0  0  0  0  0  0
   52.7595   28.6941   53.6054 H   0  0  0  0  0  0  0  0  0  0  0  0
   56.0260   29.1310   52.9480 N   0  0  0  0  0  0  0  0  0  0  0  0
   56.7710   28.0170   53.5450 C   0  0  0  0  0  0  0  0  0  0  0  0
   56.7226   28.0894   54.6415 H   0  0  0  0  0  0  0  0  0  0  0  0
   56.3279   27.0639   53.2205 H   0  0  0  0  0  0  0  0  0  0  0  0
   57.8211   28.0625   53.2205 H   0  0  0  0  0  0  0  0  0  0  0  0
   59.8660   31.7740   51.0480 C   0  0  0  0  0  0  0  0  0  0  0  0
   60.6243   31.1368   51.5265 H   0  0  0  0  0  0  0  0  0  0  0  0
   59.8971   31.5211   49.9779 H   0  0  0  0  0  0  0  0  0  0  0  0
  1  2  1  0
  2  3  2  0
  3  4  1  0
  3  5  1  0
  5  6  1  0
  5  7  1  0
  5  8  1  0
  8  9  1  0
  9 10  2  0
  9 11  1  0
 11 12  2  0
 12 13  1  0
 12 14  1  0
 14 15  2  0
 15 16  1  0
 15 17  1  0
 17 18  1  0
 18 19  1  0
 19 20  2  0
 19 21  1  0
 21 22  1  0
 22 23  1  0
 14 24  1  0
 24 25  2  0
 25 26  1  0
 25 27  1  0
 24 28  1  0
 28 29  1  0
 29 30  1  0
 29 31  1  0
 29 32  1  0
  8 33  1  0
 33 34  1  0
 33 35  1  0
 33  2  1  0
 28 11  1  0
 22 17  2  0
M  CHG  3  18  -1  21  -1  23  -1
M  END
>  <UniqueID>  (67) 
65

>  <SMILES>  (67) 
C=c1/c(=C\c2[n-]c(=O)[n-]c2[O-])cc(C(=O)N2CC=CC2)n1C

>  <Energy>  (67) 
117.77956665223132

>  <Genealogy>  (67) 
C=c1c(=Cc2[n-]c(=O)[n-]c2[O-])cc(C(=O)N2CC=CC2)n1C (protonated)
C=c1/c(=C\c2[n-]c(=O)[n-]c2[O-])cc(C(=O)N2CC=CC2)n1C (cis-trans isomerization)
C=c1/c(=C\c2[n-]c(=O)[n-]c2[O-])cc(C(=O)N2CC=CC2)n1C (3D coordinates assigned)
C=c1/c(=C\c2[n-]c(=O)[n-]c2[O-])cc(C(=O)N2CC=CC2)n1C (nonaromatic ring conformer: 117.77956665223132 kcal/mol)

>  <smiles>  (67) 
C=c1c(=Cc2[nH]c(=O)[nH]c2O)cc(C(=O)N2CC=CC2)n1C

>  <score_type>  (67) 
oracle

>  <origin>  (67) 
adg

>  <m_score__min__energy>  (67) 
-16.530000000000001

>  <m_primary>  (67) 
energy

$$$$
67:0
     RDKit          3D

 30 31  0  0  0  0  0  0  0  0999 V2000
   54.7430   27.4700   46.3620 H   0  0  0  0  0  0  0  0  0  0  0  0
   54.8380   26.4890   46.1270 O   0  0  0  0  0  0  0  0  0  0  0  0
   56.0800   25.8880   45.9160 C   0  0  0  0  0  0  0  0  0  0  0  0
   56.1380   24.5100   45.6850 C   0  0  0  0  0  0  0  0  0  0  0  0
   55.2122   23.9161   45.6720 H   0  0  0  0  0  0  0  0  0  0  0  0
   57.3680   23.8870   45.4710 C   0  0  0  0  0  0  0  0  0  0  0  0
   57.4181   22.8033   45.2893 H   0  0  0  0  0  0  0  0  0  0  0  0
   58.5330   24.6530   45.4900 C   0  0  0  0  0  0  0  0  0  0  0  0
   59.5089   24.1738   45.3228 H   0  0  0  0  0  0  0  0  0  0  0  0
   58.4630   25.9910   45.7150 N   0  0  0  0  0  0  0  0  0  0  0  0
   57.2770   26.6320   45.9280 C   0  0  0  0  0  0  0  0  0  0  0  0
   57.2370   27.9170   46.1400 N   0  0  0  0  0  0  0  0  0  0  0  0
   56.6770   28.9220   45.2800 C   0  0  0  0  0  0  0  0  0  0  0  0
   55.5010   28.8160   44.8380 O   0  0  0  0  0  0  0  0  0  0  0  0
   57.5020   30.0240   44.8860 N   0  0  0  0  0  0  0  0  0  0  0  0
   58.0150   31.0580   45.7400 C   0  0  0  0  0  0  0  0  0  0  0  0
   58.6730   30.6890   46.9200 C   0  0  0  0  0  0  0  0  0  0  0  0
   58.7996   29.6241   47.1647 H   0  0  0  0  0  0  0  0  0  0  0  0
   59.1700   31.6650   47.7890 C   0  0  0  0  0  0  0  0  0  0  0  0
   59.7005   31.3656   48.7049 H   0  0  0  0  0  0  0  0  0  0  0  0
   58.9940   33.0220   47.4960 C   0  0  0  0  0  0  0  0  0  0  0  0
   59.6420   34.2750   48.6070 S   0  0  0  0  0  0  0  0  0  0  0  0
   61.3740   33.7140   48.4880 C   0  0  0  0  0  0  0  0  0  0  0  0
   61.7160   33.5040   47.1650 F   0  0  0  0  0  0  0  0  0  0  0  0
   62.2190   34.6590   49.0410 F   0  0  0  0  0  0  0  0  0  0  0  0
   61.5100   32.5280   49.1830 F   0  0  0  0  0  0  0  0  0  0  0  0
   58.3220   33.3980   46.3280 C   0  0  0  0  0  0  0  0  0  0  0  0
   58.1833   34.4640   46.0947 H   0  0  0  0  0  0  0  0  0  0  0  0
   57.8260   32.4240   45.4560 C   0  0  0  0  0  0  0  0  0  0  0  0
   57.2868   32.7257   44.5459 H   0  0  0  0  0  0  0  0  0  0  0  0
  1  2  1  0
  2  3  1  0
  3  4  2  0
  4  5  1  0
  4  6  1  0
  6  7  1  0
  6  8  2  0
  8  9  1  0
  8 10  1  0
 10 11  1  0
 11 12  2  0
 12 13  1  0
 13 14  2  0
 13 15  1  0
 15 16  1  0
 16 17  2  0
 17 18  1  0
 17 19  1  0
 19 20  1  0
 19 21  2  0
 21 22  1  0
 22 23  1  0
 23 24  1  0
 23 25  1  0
 23 26  1  0
 21 27  1  0
 27 28  1  0
 27 29  2  0
 29 30  1  0
 11  3  1  0
 29 16  1  0
M  CHG  2  10  -1  15  -1
M  END
>  <UniqueID>  (68) 
66

>  <SMILES>  (68) 
O=C(/N=c1\[n-]cccc1O)[N-]c1ccc(SC(F)(F)F)cc1

>  <Energy>  (68) 
34.199383102660754

>  <Genealogy>  (68) 
O=C(N=c1[n-]cccc1O)[N-]c1ccc(SC(F)(F)F)cc1 (protonated)
O=C(/N=c1\[n-]cccc1O)[N-]c1ccc(SC(F)(F)F)cc1 (cis-trans isomerization)
O=C(/N=c1\[n-]cccc1O)[N-]c1ccc(SC(F)(F)F)cc1 (3D coordinates assigned)
O=C(/N=c1\[n-]cccc1O)[N-]c1ccc(SC(F)(F)F)cc1 (optimized conformer: 34.199383102660754 kcal/mol)

>  <smiles>  (68) 
O=C(N=c1[nH]cccc1O)Nc1ccc(SC(F)(F)F)cc1

>  <score_type>  (68) 
oracle

>  <origin>  (68) 
adg

>  <m_score__min__energy>  (68) 
-10.039999999999999

>  <m_primary>  (68) 
energy

$$$$
68:0
     RDKit          3D

 49 51  0  0  0  0  0  0  0  0999 V2000
   50.6340   32.1720   54.3700 C   0  0  0  0  0  0  0  0  0  0  0  0
   51.1500   32.0440   52.9740 C   0  0  0  0  0  0  0  0  0  0  0  0
   50.6410   32.7130   51.9240 N   0  0  0  0  0  0  0  0  0  0  0  0
   51.4110   32.3040   50.8940 C   0  0  0  0  0  0  0  0  0  0  0  0
   51.2440   32.7150   49.7160 O   0  0  0  0  0  0  0  0  0  0  0  0
   52.3760   31.4230   51.2270 N   0  0  0  0  0  0  0  0  0  0  0  0
   52.2110   31.2680   52.5530 C   0  0  0  0  0  0  0  0  0  0  0  0
   53.0510   30.3500   53.3920 C   0  0  0  0  0  0  0  0  0  0  0  0
   54.3550   30.0660   52.7150 C   0  0  0  0  0  0  0  0  0  0  0  0
   54.3930   29.2580   51.7460 O   0  0  0  0  0  0  0  0  0  0  0  0
   55.5590   30.6660   53.2190 N   0  0  0  0  0  0  0  0  0  0  0  0
   56.6050   31.2590   52.4340 C   0  0  0  0  0  0  0  0  0  0  0  0
   57.1260   32.5350   52.7210 C   0  0  0  0  0  0  0  0  0  0  0  0
   58.1350   33.0820   51.9220 C   0  0  0  0  0  0  0  0  0  0  0  0
   58.6620   32.3490   50.8460 C   0  0  0  0  0  0  0  0  0  0  0  0
   59.9170   33.0200   49.7980 S   0  0  0  0  0  0  0  0  0  0  0  0
   60.9830   31.9760   49.6200 O   0  0  0  0  0  0  0  0  0  0  0  0
   60.5170   34.2230   50.4720 O   0  0  0  0  0  0  0  0  0  0  0  0
   59.3030   33.4930   48.2290 N   0  0  1  0  0  0  0  0  0  0  0  0
   60.2500   34.4090   47.5660 C   0  0  0  0  0  0  0  0  0  0  0  0
   59.6260   35.0040   46.2890 C   0  0  0  0  0  0  0  0  0  0  0  0
   58.7980   33.9710   45.4780 C   0  0  2  0  0  0  0  0  0  0  0  0
   57.2880   34.2330   45.5780 C   0  0  0  0  0  0  0  0  0  0  0  0
   59.1410   32.5270   45.8860 C   0  0  0  0  0  0  0  0  0  0  0  0
   59.0250   32.2850   47.4090 C   0  0  0  0  0  0  0  0  0  0  0  0
   58.1530   31.0720   50.5710 C   0  0  0  0  0  0  0  0  0  0  0  0
   57.1330   30.5320   51.3600 C   0  0  0  0  0  0  0  0  0  0  0  0
   51.4480   31.9701   55.0818 H   0  0  0  0  0  0  0  0  0  0  0  0
   50.2532   33.1918   54.5281 H   0  0  0  0  0  0  0  0  0  0  0  0
   49.8208   31.4484   54.5281 H   0  0  0  0  0  0  0  0  0  0  0  0
   53.2445   30.8249   54.3651 H   0  0  0  0  0  0  0  0  0  0  0  0
   52.5100   29.4026   53.5327 H   0  0  0  0  0  0  0  0  0  0  0  0
   56.7375   33.1046   53.5781 H   0  0  0  0  0  0  0  0  0  0  0  0
   58.5176   34.0906   52.1371 H   0  0  0  0  0  0  0  0  0  0  0  0
   58.4010   33.9950   48.3950 H   0  0  0  0  0  0  0  0  0  0  0  0
   61.1616   33.8547   47.2983 H   0  0  0  0  0  0  0  0  0  0  0  0
   60.4924   35.2295   48.2574 H   0  0  0  0  0  0  0  0  0  0  0  0
   60.4352   35.3846   45.6484 H   0  0  0  0  0  0  0  0  0  0  0  0
   58.9380   35.8033   46.6016 H   0  0  0  0  0  0  0  0  0  0  0  0
   59.0792   34.0975   44.4221 H   0  0  0  0  0  0  0  0  0  0  0  0
   56.9940   34.2840   46.6368 H   0  0  0  0  0  0  0  0  0  0  0  0
   57.0478   35.1862   45.0844 H   0  0  0  0  0  0  0  0  0  0  0  0
   56.7407   33.4164   45.0844 H   0  0  0  0  0  0  0  0  0  0  0  0
   60.1736   32.3107   45.5745 H   0  0  0  0  0  0  0  0  0  0  0  0
   58.4153   31.8645   45.3916 H   0  0  0  0  0  0  0  0  0  0  0  0
   59.7427   31.5008   47.6916 H   0  0  0  0  0  0  0  0  0  0  0  0
   57.9836   31.9931   47.6096 H   0  0  0  0  0  0  0  0  0  0  0  0
   58.5586   30.4914   49.7293 H   0  0  0  0  0  0  0  0  0  0  0  0
   56.7423   29.5285   51.1354 H   0  0  0  0  0  0  0  0  0  0  0  0
  1  2  1  0
  2  3  1  0
  3  4  1  0
  4  5  2  0
  4  6  1  0
  6  7  1  0
  7  8  1  0
  8  9  1  0
  9 10  2  0
  9 11  1  0
 11 12  1  0
 12 13  2  0
 13 14  1  0
 14 15  2  0
 15 16  1  0
 16 17  2  0
 16 18  2  0
 16 19  1  0
 19 20  1  0
 20 21  1  0
 21 22  1  0
 22 23  1  0
 22 24  1  0
 24 25  1  0
 15 26  1  0
 26 27  2  0
  7  2  2  0
 27 12  1  0
 25 19  1  0
  1 28  1  0
  1 29  1  0
  1 30  1  0
  8 31  1  0
  8 32  1  0
 13 33  1  0
 14 34  1  0
 19 35  1  1
 20 36  1  0
 20 37  1  0
 21 38  1  0
 21 39  1  0
 22 40  1  6
 23 41  1  0
 23 42  1  0
 23 43  1  0
 24 44  1  0
 24 45  1  0
 25 46  1  0
 25 47  1  0
 26 48  1  0
 27 49  1  0
M  CHG  4   3  -1   6  -1  11  -1  19   1
M  END
>  <UniqueID>  (69) 
67

>  <SMILES>  (69) 
Cc1[n-]c(=O)[n-]c1CC(=O)[N-]c1ccc(S(=O)(=O)[NH+]2CCC(C)CC2)cc1

>  <Energy>  (69) 
82.75951519776788

>  <Genealogy>  (69) 
Cc1[n-]c(=O)[n-]c1CC(=O)[N-]c1ccc(S(=O)(=O)[NH+]2CCC(C)CC2)cc1 (protonated)
Cc1[n-]c(=O)[n-]c1CC(=O)[N-]c1ccc(S(=O)(=O)[NH+]2CCC(C)CC2)cc1 (3D coordinates assigned)
Cc1[n-]c(=O)[n-]c1CC(=O)[N-]c1ccc(S(=O)(=O)[NH+]2CCC(C)CC2)cc1 (nonaromatic ring conformer: 82.75951519776788 kcal/mol)

>  <smiles>  (69) 
Cc1[nH]c(=O)[nH]c1CC(=O)Nc1ccc(S(=O)(=O)N2CCC(C)CC2)cc1

>  <score_type>  (69) 
oracle

>  <origin>  (69) 
adg

>  <m_score__min__energy>  (69) 
-12.75

>  <m_primary>  (69) 
energy

$$$$
69:0
     RDKit          3D

 32 33  0  0  1  0  0  0  0  0999 V2000
   59.3250   25.7290   46.3870 C   0  0  0  0  0  0  0  0  0  0  0  0
   58.0320   25.5300   46.5820 C   0  0  0  0  0  0  0  0  0  0  0  0
   57.0050   25.8230   45.5060 C   0  0  0  0  0  0  0  0  0  0  0  0
   56.3860   27.0870   45.7280 N   0  0  0  0  0  0  0  0  0  0  0  0
   56.7270   28.2210   45.2840 C   0  0  0  0  0  0  0  0  0  0  0  0
   55.7750   29.1680   45.1190 N   0  0  0  0  0  0  0  0  0  0  0  0
   56.1390   30.3490   44.6590 N   0  0  0  0  0  0  0  0  0  0  0  0
   57.4160   30.6400   44.3490 C   0  0  0  0  0  0  0  0  0  0  0  0
   57.7670   32.0020   43.8380 C   0  0  0  0  0  0  0  0  0  0  0  0
   58.1610   32.9310   44.8990 C   0  0  0  0  0  0  0  0  0  0  0  0
   58.9570   34.0150   44.5500 C   0  0  0  0  0  0  0  0  0  0  0  0
   59.3870   34.9500   45.4700 C   0  0  0  0  0  0  0  0  0  0  0  0
   59.0280   34.8330   46.8040 C   0  0  0  0  0  0  0  0  0  0  0  0
   58.2430   33.7610   47.1420 C   0  0  0  0  0  0  0  0  0  0  0  0
   57.8090   32.8200   46.2260 C   0  0  0  0  0  0  0  0  0  0  0  0
   58.3490   29.6490   44.5320 C   0  0  0  0  0  0  0  0  0  0  0  0
   59.5580   29.8530   44.2640 O   0  0  0  0  0  0  0  0  0  0  0  0
   58.0180   28.4320   44.9990 N   0  0  0  0  0  0  0  0  0  0  0  0
   60.0431   25.5056   47.1898 H   0  0  0  0  0  0  0  0  0  0  0  0
   59.6822   26.1179   45.4220 H   0  0  0  0  0  0  0  0  0  0  0  0
   57.6920   25.1406   47.5530 H   0  0  0  0  0  0  0  0  0  0  0  0
   57.5030   25.8326   44.5252 H   0  0  0  0  0  0  0  0  0  0  0  0
   56.2313   25.0416   45.5350 H   0  0  0  0  0  0  0  0  0  0  0  0
   54.7640   28.9610   45.3550 H   0  0  0  0  0  0  0  0  0  0  0  0
   58.6029   31.9052   43.1296 H   0  0  0  0  0  0  0  0  0  0  0  0
   56.8664   32.4143   43.3596 H   0  0  0  0  0  0  0  0  0  0  0  0
   59.2566   34.1329   43.4982 H   0  0  0  0  0  0  0  0  0  0  0  0
   60.0167   35.7908   45.1436 H   0  0  0  0  0  0  0  0  0  0  0  0
   59.3574   35.5655   47.5556 H   0  0  0  0  0  0  0  0  0  0  0  0
   57.9435   33.6435   48.1939 H   0  0  0  0  0  0  0  0  0  0  0  0
   57.1808   31.9804   46.5583 H   0  0  0  0  0  0  0  0  0  0  0  0
   58.7520   27.7080   45.1220 H   0  0  0  0  0  0  0  0  0  0  0  0
  1  2  2  0
  2  3  1  0
  3  4  1  0
  4  5  2  0
  5  6  1  0
  6  7  1  0
  7  8  2  0
  8  9  1  0
  9 10  1  0
 10 11  2  0
 11 12  1  0
 12 13  2  0
 13 14  1  0
 14 15  2  0
  8 16  1  0
 16 17  2  0
 16 18  1  0
 18  5  1  0
 15 10  1  0
  1 19  1  0
  1 20  1  0
  2 21  1  0
  3 22  1  0
  3 23  1  0
  6 24  1  0
  9 25  1  0
  9 26  1  0
 11 27  1  0
 12 28  1  0
 13 29  1  0
 14 30  1  0
 15 31  1  0
 18 32  1  0
M  END
>  <smiles>  (70) 
C=CCN=c1[nH]nc(Cc2ccccc2)c(=O)[nH]1

>  <score_type>  (70) 
oracle

>  <origin>  (70) 
adg

>  <m_score__min__energy>  (70) 
-6.9400000000000004

>  <m_primary>  (70) 
energy

$$$$
70:0
     RDKit          3D

 45 46  0  0  0  0  0  0  0  0999 V2000
   58.0280   27.0870   42.4030 C   0  0  0  0  0  0  0  0  0  0  0  0
   57.6110   28.1720   43.3520 C   0  0  0  0  0  0  0  0  0  0  0  0
   56.7340   29.3010   42.8530 C   0  0  0  0  0  0  0  0  0  0  0  0
   57.3160   30.6460   43.1850 C   0  0  0  0  0  0  0  0  0  0  0  0
   57.2040   31.5910   42.3590 O   0  0  0  0  0  0  0  0  0  0  0  0
   58.0090   30.8450   44.4290 N   0  0  0  0  0  0  0  0  0  0  0  0
   58.3070   32.1350   44.9940 C   0  0  0  0  0  0  0  0  0  0  0  0
   58.0810   33.3260   44.2800 C   0  0  0  0  0  0  0  0  0  0  0  0
   58.3490   34.5650   44.8690 C   0  0  0  0  0  0  0  0  0  0  0  0
   58.8300   34.6300   46.1780 C   0  0  0  0  0  0  0  0  0  0  0  0
   59.0410   33.4540   46.9030 C   0  0  0  0  0  0  0  0  0  0  0  0
   59.6280   33.5370   48.5560 Cl  0  0  0  0  0  0  0  0  0  0  0  0
   58.7730   32.2120   46.3170 C   0  0  0  0  0  0  0  0  0  0  0  0
   58.1230   28.1420   44.5530 N   0  0  0  0  0  0  0  0  0  0  0  0
   57.4620   28.3360   45.8120 C   0  0  0  0  0  0  0  0  0  0  0  0
   56.6370   29.2760   45.9660 O   0  0  0  0  0  0  0  0  0  0  0  0
   57.7650   27.4330   46.9900 C   0  0  2  0  0  0  0  0  0  0  0  0
   59.2380   27.5860   47.4160 C   0  0  0  0  0  0  0  0  0  0  0  0
   60.1980   26.8720   46.4550 C   0  0  0  0  0  0  0  0  0  0  0  0
   59.8480   25.3840   46.3370 C   0  0  0  0  0  0  0  0  0  0  0  0
   58.4000   25.1830   45.8720 C   0  0  0  0  0  0  0  0  0  0  0  0
   57.4020   25.9330   46.7860 C   0  0  2  0  0  0  0  0  0  0  0  0
   55.9800   25.7600   46.3200 C   0  0  0  0  0  0  0  0  0  0  0  0
   55.4690   24.6080   46.2810 O   0  0  0  0  0  0  0  0  0  0  0  0
   55.2000   26.8620   45.9900 O   0  0  0  0  0  0  0  0  0  0  0  0
   58.3652   26.2097   42.9745 H   0  0  0  0  0  0  0  0  0  0  0  0
   57.1739   26.8058   41.7694 H   0  0  0  0  0  0  0  0  0  0  0  0
   58.8506   27.4502   41.7694 H   0  0  0  0  0  0  0  0  0  0  0  0
   56.6315   29.2167   41.7610 H   0  0  0  0  0  0  0  0  0  0  0  0
   55.7553   29.2194   43.3485 H   0  0  0  0  0  0  0  0  0  0  0  0
   58.3900   30.0010   44.9140 H   0  0  0  0  0  0  0  0  0  0  0  0
   57.6912   33.2819   43.2523 H   0  0  0  0  0  0  0  0  0  0  0  0
   58.1805   35.4910   44.2998 H   0  0  0  0  0  0  0  0  0  0  0  0
   59.0428   35.6061   46.6384 H   0  0  0  0  0  0  0  0  0  0  0  0
   58.9282   31.2898   46.8961 H   0  0  0  0  0  0  0  0  0  0  0  0
   57.0988   27.7748   47.7958 H   0  0  0  0  0  0  0  0  0  0  0  0
   59.4907   28.6564   47.4384 H   0  0  0  0  0  0  0  0  0  0  0  0
   59.3512   27.1263   48.4089 H   0  0  0  0  0  0  0  0  0  0  0  0
   60.1262   27.3387   45.4615 H   0  0  0  0  0  0  0  0  0  0  0  0
   61.2211   26.9622   46.8489 H   0  0  0  0  0  0  0  0  0  0  0  0
   60.5258   24.9139   45.6093 H   0  0  0  0  0  0  0  0  0  0  0  0
   59.9592   24.9232   47.3296 H   0  0  0  0  0  0  0  0  0  0  0  0
   58.2985   25.5626   44.8446 H   0  0  0  0  0  0  0  0  0  0  0  0
   58.1689   24.1085   45.9169 H   0  0  0  0  0  0  0  0  0  0  0  0
   57.4868   25.4638   47.7773 H   0  0  0  0  0  0  0  0  0  0  0  0
  1  2  1  0
  2  3  1  0
  3  4  1  0
  4  5  2  0
  4  6  1  0
  6  7  1  0
  7  8  2  0
  8  9  1  0
  9 10  2  0
 10 11  1  0
 11 12  1  0
 11 13  2  0
  2 14  2  3
 14 15  1  0
 15 16  2  0
 15 17  1  0
 17 18  1  0
 18 19  1  0
 19 20  1  0
 20 21  1  0
 21 22  1  0
 22 23  1  0
 23 24  2  0
 23 25  1  0
 13  7  1  0
 22 17  1  0
  1 26  1  0
  1 27  1  0
  1 28  1  0
  3 29  1  0
  3 30  1  0
  6 31  1  0
  8 32  1  0
  9 33  1  0
 10 34  1  0
 13 35  1  0
 17 36  1  1
 18 37  1  0
 18 38  1  0
 19 39  1  0
 19 40  1  0
 20 41  1  0
 20 42  1  0
 21 43  1  0
 21 44  1  0
 22 45  1  1
M  CHG  1  25  -1
M  END
>  <UniqueID>  (71) 
68

>  <SMILES>  (71) 
CC(CC(=O)Nc1cccc(Cl)c1)=NC(=O)[C@@H]1CCCC[C@@H]1C(=O)[O-]

>  <Energy>  (71) 
45.04064509780214

>  <Genealogy>  (71) 
CC(CC(=O)Nc1cccc(Cl)c1)=NC(=O)C1CCCCC1C(=O)[O-] (protonated)
CC(CC(=O)Nc1cccc(Cl)c1)=NC(=O)[C@@H]1CCCC[C@@H]1C(=O)[O-] (chirality)
CC(CC(=O)Nc1cccc(Cl)c1)=NC(=O)[C@@H]1CCCC[C@@H]1C(=O)[O-] (3D coordinates assigned)
CC(CC(=O)Nc1cccc(Cl)c1)=NC(=O)[C@@H]1CCCC[C@@H]1C(=O)[O-] (nonaromatic ring conformer: 45.04064509780214 kcal/mol)

>  <smiles>  (71) 
CC(CC(=O)Nc1cccc(Cl)c1)=NC(=O)C1CCCCC1C(=O)O

>  <score_type>  (71) 
oracle

>  <origin>  (71) 
adg

>  <m_score__min__energy>  (71) 
-11.49

>  <m_primary>  (71) 
energy

$$$$
71:0
     RDKit          3D

 53 56  0  0  0  0  0  0  0  0999 V2000
   54.6980   29.4750   43.1740 O   0  0  0  0  0  0  0  0  0  0  0  0
   55.5840   29.7020   44.0420 C   0  0  0  0  0  0  0  0  0  0  0  0
   55.6400   28.8960   45.2260 N   0  0  0  0  0  0  0  0  0  0  0  0
   56.6740   27.9000   45.4810 C   0  0  0  0  0  0  0  0  0  0  0  0
   58.0090   28.5610   45.6560 C   0  0  0  0  0  0  0  0  0  0  0  0
   59.0480   28.3250   44.7440 C   0  0  0  0  0  0  0  0  0  0  0  0
   60.2820   28.9490   44.9380 C   0  0  0  0  0  0  0  0  0  0  0  0
   60.4720   29.7880   46.0380 C   0  0  0  0  0  0  0  0  0  0  0  0
   59.4180   29.9890   46.9330 C   0  0  0  0  0  0  0  0  0  0  0  0
   58.2220   29.3770   46.7260 N   0  0  0  0  0  0  0  0  0  0  0  0
   56.5530   30.8040   43.8430 C   0  0  0  0  0  0  0  0  0  0  0  0
   57.2400   30.9360   42.6210 C   0  0  0  0  0  0  0  0  0  0  0  0
   58.1460   31.9810   42.4290 C   0  0  0  0  0  0  0  0  0  0  0  0
   58.3770   32.9080   43.4460 C   0  0  0  0  0  0  0  0  0  0  0  0
   57.6960   32.8050   44.6690 C   0  0  0  0  0  0  0  0  0  0  0  0
   57.9420   33.7850   45.7530 C   0  0  0  0  0  0  0  0  0  0  0  0
   57.0860   34.6850   45.9810 O   0  0  0  0  0  0  0  0  0  0  0  0
   59.1300   33.7190   46.5620 N   0  0  0  0  0  0  0  0  0  0  0  0
   60.4490   33.7150   45.9140 C   0  0  0  0  0  0  0  0  0  0  0  0
   61.4420   32.8950   46.7380 C   0  0  0  0  0  0  0  0  0  0  0  0
   61.3750   33.2940   48.1490 N   0  0  0  0  0  0  0  0  0  0  0  0
   62.5700   33.3380   48.9510 C   0  0  0  0  0  0  0  0  0  0  0  0
   63.7100   32.6000   48.5840 C   0  0  0  0  0  0  0  0  0  0  0  0
   64.8680   32.6550   49.3650 C   0  0  0  0  0  0  0  0  0  0  0  0
   64.8990   33.4440   50.5170 C   0  0  0  0  0  0  0  0  0  0  0  0
   63.7710   34.1800   50.8910 C   0  0  0  0  0  0  0  0  0  0  0  0
   62.6110   34.1280   50.1130 C   0  0  0  0  0  0  0  0  0  0  0  0
   60.0580   33.2990   48.7970 C   0  0  0  0  0  0  0  0  0  0  0  0
   59.0670   34.1200   47.9710 C   0  0  0  0  0  0  0  0  0  0  0  0
   56.7970   31.7410   44.8660 C   0  0  0  0  0  0  0  0  0  0  0  0
   56.4228   27.3437   46.3961 H   0  0  0  0  0  0  0  0  0  0  0  0
   56.7266   27.2143   44.6225 H   0  0  0  0  0  0  0  0  0  0  0  0
   58.8925   27.6556   43.8851 H   0  0  0  0  0  0  0  0  0  0  0  0
   61.1030   28.7800   44.2256 H   0  0  0  0  0  0  0  0  0  0  0  0
   61.4402   30.2849   46.1980 H   0  0  0  0  0  0  0  0  0  0  0  0
   59.5562   30.6434   47.8063 H   0  0  0  0  0  0  0  0  0  0  0  0
   57.0619   30.2115   41.8127 H   0  0  0  0  0  0  0  0  0  0  0  0
   58.6800   32.0739   41.4718 H   0  0  0  0  0  0  0  0  0  0  0  0
   59.0971   33.7244   43.2883 H   0  0  0  0  0  0  0  0  0  0  0  0
   60.3589   33.2741   44.9103 H   0  0  0  0  0  0  0  0  0  0  0  0
   60.8143   34.7499   45.8393 H   0  0  0  0  0  0  0  0  0  0  0  0
   61.1941   31.8270   46.6495 H   0  0  0  0  0  0  0  0  0  0  0  0
   62.4593   33.0749   46.3602 H   0  0  0  0  0  0  0  0  0  0  0  0
   63.6901   31.9766   47.6780 H   0  0  0  0  0  0  0  0  0  0  0  0
   65.7562   32.0760   49.0718 H   0  0  0  0  0  0  0  0  0  0  0  0
   65.8113   33.4863   51.1301 H   0  0  0  0  0  0  0  0  0  0  0  0
   63.7963   34.8009   51.7987 H   0  0  0  0  0  0  0  0  0  0  0  0
   61.7255   34.7083   50.4116 H   0  0  0  0  0  0  0  0  0  0  0  0
   59.6912   32.2655   48.8828 H   0  0  0  0  0  0  0  0  0  0  0  0
   60.1512   33.7482   49.7968 H   0  0  0  0  0  0  0  0  0  0  0  0
   58.0489   33.9515   48.3518 H   0  0  0  0  0  0  0  0  0  0  0  0
   59.3264   35.1858   48.0535 H   0  0  0  0  0  0  0  0  0  0  0  0
   56.2783   31.6395   45.8307 H   0  0  0  0  0  0  0  0  0  0  0  0
  1  2  2  0
  2  3  1  0
  3  4  1  0
  4  5  1  0
  5  6  2  0
  6  7  1  0
  7  8  2  0
  8  9  1  0
  9 10  2  0
  2 11  1  0
 11 12  2  0
 12 13  1  0
 13 14  2  0
 14 15  1  0
 15 16  1  0
 16 17  2  0
 16 18  1  0
 18 19  1  0
 19 20  1  0
 20 21  1  0
 21 22  1  0
 22 23  2  0
 23 24  1  0
 24 25  2  0
 25 26  1  0
 26 27  2  0
 21 28  1  0
 28 29  1  0
 15 30  2  0
 10  5  1  0
 30 11  1  0
 29 18  1  0
 27 22  1  0
  4 31  1  0
  4 32  1  0
  6 33  1  0
  7 34  1  0
  8 35  1  0
  9 36  1  0
 12 37  1  0
 13 38  1  0
 14 39  1  0
 19 40  1  0
 19 41  1  0
 20 42  1  0
 20 43  1  0
 23 44  1  0
 24 45  1  0
 25 46  1  0
 26 47  1  0
 27 48  1  0
 28 49  1  0
 28 50  1  0
 29 51  1  0
 29 52  1  0
 30 53  1  0
M  CHG  1   3  -1
M  END
>  <UniqueID>  (72) 
69

>  <SMILES>  (72) 
O=C([N-]Cc1ccccn1)c1cccc(C(=O)N2CCN(c3ccccc3)CC2)c1

>  <Energy>  (72) 
63.08985164143019

>  <Genealogy>  (72) 
O=C([N-]Cc1ccccn1)c1cccc(C(=O)N2CCN(c3ccccc3)CC2)c1 (protonated)
O=C([N-]Cc1ccccn1)c1cccc(C(=O)N2CCN(c3ccccc3)CC2)c1 (3D coordinates assigned)
O=C([N-]Cc1ccccn1)c1cccc(C(=O)N2CCN(c3ccccc3)CC2)c1 (nonaromatic ring conformer: 63.08985164143019 kcal/mol)

>  <smiles>  (72) 
O=C(NCc1ccccn1)c1cccc(C(=O)N2CCN(c3ccccc3)CC2)c1

>  <score_type>  (72) 
oracle

>  <origin>  (72) 
adg

>  <m_score__min__energy>  (72) 
-11.17

>  <m_primary>  (72) 
energy

$$$$
72:0
     RDKit          3D

 58 62  0  0  0  0  0  0  0  0999 V2000
   56.2230   30.6460   44.3020 C   0  0  0  0  0  0  0  0  0  0  0  0
   56.9340   29.8360   45.0910 C   0  0  0  0  0  0  0  0  0  0  0  0
   56.7840   28.4970   45.1170 N   0  0  0  0  0  0  0  0  0  0  0  0
   57.6620   28.0280   46.0350 C   0  0  0  0  0  0  0  0  0  0  0  0
   57.8530   26.7350   46.3340 C   0  0  0  0  0  0  0  0  0  0  0  0
   56.9940   25.6460   45.8350 C   0  0  0  0  0  0  0  0  0  0  0  0
   55.6080   25.6320   45.7170 C   0  0  0  0  0  0  0  0  0  0  0  0
   54.7750   26.7080   46.0010 O   0  0  0  0  0  0  0  0  0  0  0  0
   55.1350   24.4240   45.3280 N   0  0  0  0  0  0  0  0  0  0  0  0
   56.2410   23.6630   45.2200 C   0  0  0  0  0  0  0  0  0  0  0  0
   56.2890   22.3170   44.8620 C   0  0  0  0  0  0  0  0  0  0  0  0
   57.5470   21.6850   44.8260 C   0  0  0  0  0  0  0  0  0  0  0  0
   58.7190   22.4070   45.1480 C   0  0  0  0  0  0  0  0  0  0  0  0
   58.6430   23.7640   45.5090 C   0  0  0  0  0  0  0  0  0  0  0  0
   57.3810   24.3610   45.5340 C   0  0  0  0  0  0  0  0  0  0  0  0
   58.3830   29.0720   46.5940 C   0  0  0  0  0  0  0  0  0  0  0  0
   57.9110   30.2230   45.9930 C   0  0  0  0  0  0  0  0  0  0  0  0
   58.3790   31.5870   46.2760 C   0  0  0  0  0  0  0  0  0  0  0  0
   57.5260   32.5060   46.3800 O   0  0  0  0  0  0  0  0  0  0  0  0
   59.7820   31.8870   46.4260 N   0  0  0  0  0  0  0  0  0  0  0  0
   60.7740   30.8210   46.6330 C   0  0  0  0  0  0  0  0  0  0  0  0
   61.7830   31.2480   47.7060 C   0  0  0  0  0  0  0  0  0  0  0  0
   62.2840   32.6100   47.4670 N   0  0  0  0  0  0  0  0  0  0  0  0
   63.4920   33.0420   48.1150 C   0  0  0  0  0  0  0  0  0  0  0  0
   64.4420   33.4820   47.4110 O   0  0  0  0  0  0  0  0  0  0  0  0
   63.6260   33.0080   49.5510 N   0  0  0  0  0  0  0  0  0  0  0  0
   64.9460   32.8800   50.1780 C   0  0  0  0  0  0  0  0  0  0  0  0
   64.9980   33.7430   51.4430 C   0  0  0  0  0  0  0  0  0  0  0  0
   63.9120   33.4500   52.3010 O   0  0  0  0  0  0  0  0  0  0  0  0
   62.6950   33.8030   51.6700 C   0  0  0  0  0  0  0  0  0  0  0  0
   62.4540   32.9390   50.4300 C   0  0  0  0  0  0  0  0  0  0  0  0
   61.7480   33.4070   46.3590 C   0  0  0  0  0  0  0  0  0  0  0  0
   60.2220   33.2860   46.3150 C   0  0  0  0  0  0  0  0  0  0  0  0
   56.3957   31.7320   44.3302 H   0  0  0  0  0  0  0  0  0  0  0  0
   55.4648   30.2271   43.6241 H   0  0  0  0  0  0  0  0  0  0  0  0
   56.1400   27.9390   44.5110 H   0  0  0  0  0  0  0  0  0  0  0  0
   58.6976   26.4723   46.9880 H   0  0  0  0  0  0  0  0  0  0  0  0
   55.3707   21.7642   44.6147 H   0  0  0  0  0  0  0  0  0  0  0  0
   57.6181   20.6237   44.5458 H   0  0  0  0  0  0  0  0  0  0  0  0
   59.6968   21.9040   45.1160 H   0  0  0  0  0  0  0  0  0  0  0  0
   59.5475   24.3360   45.7632 H   0  0  0  0  0  0  0  0  0  0  0  0
   59.1697   28.9989   47.3593 H   0  0  0  0  0  0  0  0  0  0  0  0
   60.2613   29.9040   46.9588 H   0  0  0  0  0  0  0  0  0  0  0  0
   61.3067   30.6338   45.6890 H   0  0  0  0  0  0  0  0  0  0  0  0
   61.2926   31.2156   48.6901 H   0  0  0  0  0  0  0  0  0  0  0  0
   62.6373   30.5560   47.6697 H   0  0  0  0  0  0  0  0  0  0  0  0
   65.1245   31.8278   50.4446 H   0  0  0  0  0  0  0  0  0  0  0  0
   65.7203   33.2168   49.4730 H   0  0  0  0  0  0  0  0  0  0  0  0
   65.9403   33.5453   51.9749 H   0  0  0  0  0  0  0  0  0  0  0  0
   64.9367   34.8011   51.1485 H   0  0  0  0  0  0  0  0  0  0  0  0
   61.8661   33.6564   52.3781 H   0  0  0  0  0  0  0  0  0  0  0  0
   62.7521   34.8567   51.3593 H   0  0  0  0  0  0  0  0  0  0  0  0
   62.2865   31.8960   50.7367 H   0  0  0  0  0  0  0  0  0  0  0  0
   61.5693   33.3092   49.8913 H   0  0  0  0  0  0  0  0  0  0  0  0
   62.0255   34.4618   46.5018 H   0  0  0  0  0  0  0  0  0  0  0  0
   62.1665   33.0352   45.4121 H   0  0  0  0  0  0  0  0  0  0  0  0
   59.7949   33.8610   47.1499 H   0  0  0  0  0  0  0  0  0  0  0  0
   59.8755   33.6778   45.3473 H   0  0  0  0  0  0  0  0  0  0  0  0
  1  2  2  0
  2  3  1  0
  3  4  1  0
  4  5  2  3
  5  6  1  0
  6  7  2  0
  7  8  1  0
  7  9  1  0
  9 10  1  0
 10 11  2  0
 11 12  1  0
 12 13  2  0
 13 14  1  0
 14 15  2  0
  4 16  1  0
 16 17  2  0
 17 18  1  0
 18 19  2  0
 18 20  1  0
 20 21  1  0
 21 22  1  0
 22 23  1  0
 23 24  1  0
 24 25  2  0
 24 26  1  0
 26 27  1  0
 27 28  1  0
 28 29  1  0
 29 30  1  0
 30 31  1  0
 23 32  1  0
 32 33  1  0
 17  2  1  0
 33 20  1  0
 15  6  1  0
 31 26  1  0
 15 10  1  0
  1 34  1  0
  1 35  1  0
  3 36  1  0
  5 37  1  0
 11 38  1  0
 12 39  1  0
 13 40  1  0
 14 41  1  0
 16 42  1  0
 21 43  1  0
 21 44  1  0
 22 45  1  0
 22 46  1  0
 27 47  1  0
 27 48  1  0
 28 49  1  0
 28 50  1  0
 30 51  1  0
 30 52  1  0
 31 53  1  0
 31 54  1  0
 32 55  1  0
 32 56  1  0
 33 57  1  0
 33 58  1  0
M  CHG  2   8  -1   9  -1
M  END
>  <UniqueID>  (73) 
70

>  <SMILES>  (73) 
C=c1[nH]c(=Cc2c([O-])[n-]c3ccccc23)cc1C(=O)N1CCN(C(=O)N2CCOCC2)CC1

>  <Energy>  (73) 
140.30352255887436

>  <Genealogy>  (73) 
C=c1[nH]c(=Cc2c([O-])[n-]c3ccccc23)cc1C(=O)N1CCN(C(=O)N2CCOCC2)CC1 (protonated)
C=c1[nH]c(=Cc2c([O-])[n-]c3ccccc23)cc1C(=O)N1CCN(C(=O)N2CCOCC2)CC1 (3D coordinates assigned)
C=c1[nH]c(=Cc2c([O-])[n-]c3ccccc23)cc1C(=O)N1CCN(C(=O)N2CCOCC2)CC1 (nonaromatic ring conformer: 140.30352255887436 kcal/mol)

>  <smiles>  (73) 
C=c1[nH]c(=Cc2c(O)[nH]c3ccccc23)cc1C(=O)N1CCN(C(=O)N2CCOCC2)CC1

>  <score_type>  (73) 
oracle

>  <origin>  (73) 
adg

>  <m_score__min__energy>  (73) 
-15.130000000000001

>  <m_primary>  (73) 
energy

$$$$
73:0
     RDKit          3D

 63 67  0  0  0  0  0  0  0  0999 V2000
   64.8920   33.0860   49.0240 C   0  0  0  0  0  0  0  0  0  0  0  0
   65.1750   33.8050   50.2040 O   0  0  0  0  0  0  0  0  0  0  0  0
   64.0460   33.8210   51.0580 C   0  0  0  0  0  0  0  0  0  0  0  0
   64.3460   33.0750   52.3720 C   0  0  2  0  0  0  0  0  0  0  0  0
   65.7620   32.5310   52.4650 C   0  0  0  0  0  0  0  0  0  0  0  0
   65.6640   31.4680   53.5460 C   0  0  0  0  0  0  0  0  0  0  0  0
   64.1650   31.2450   53.7760 C   0  0  0  0  0  0  0  0  0  0  0  0
   63.4300   31.9740   52.7310 N   0  0  0  0  0  0  0  0  0  0  0  0
   62.9880   30.8700   51.4260 S   0  0  0  0  0  0  0  0  0  0  0  0
   62.6230   29.5260   51.9870 O   0  0  0  0  0  0  0  0  0  0  0  0
   64.1910   30.6660   50.5470 O   0  0  0  0  0  0  0  0  0  0  0  0
   61.6690   31.4590   50.4040 C   0  0  0  0  0  0  0  0  0  0  0  0
   60.3260   31.2690   50.8140 C   0  0  0  0  0  0  0  0  0  0  0  0
   59.2590   31.6850   50.0030 C   0  0  0  0  0  0  0  0  0  0  0  0
   59.5610   32.3060   48.7940 C   0  0  0  0  0  0  0  0  0  0  0  0
   60.8630   32.5390   48.4080 C   0  0  0  0  0  0  0  0  0  0  0  0
   61.9400   32.1390   49.1950 C   0  0  0  0  0  0  0  0  0  0  0  0
   60.8280   33.1910   47.1030 C   0  0  0  0  0  0  0  0  0  0  0  0
   61.8330   33.5410   46.4290 O   0  0  0  0  0  0  0  0  0  0  0  0
   59.4740   33.3420   46.6700 N   0  0  0  0  0  0  0  0  0  0  0  0
   59.0250   33.7750   45.3770 C   0  0  0  0  0  0  0  0  0  0  0  0
   59.1940   34.9760   45.0330 O   0  0  0  0  0  0  0  0  0  0  0  0
   58.3790   32.8290   44.4410 C   0  0  0  0  0  0  0  0  0  0  0  0
   58.4160   33.0610   43.0580 C   0  0  0  0  0  0  0  0  0  0  0  0
   57.7690   32.1860   42.1810 C   0  0  0  0  0  0  0  0  0  0  0  0
   57.0950   31.0660   42.6730 C   0  0  0  0  0  0  0  0  0  0  0  0
   57.0780   30.7970   44.0530 C   0  0  0  0  0  0  0  0  0  0  0  0
   56.3780   29.6070   44.5820 C   0  0  0  0  0  0  0  0  0  0  0  0
   55.2680   29.7330   45.1660 O   0  0  0  0  0  0  0  0  0  0  0  0
   56.9330   28.3010   44.3800 N   0  0  0  0  0  0  0  0  0  0  0  0
   57.3970   27.4200   45.4060 C   0  0  0  0  0  0  0  0  0  0  0  0
   58.7660   27.3970   45.7040 C   0  0  0  0  0  0  0  0  0  0  0  0
   59.2570   26.5720   46.7190 C   0  0  0  0  0  0  0  0  0  0  0  0
   58.3810   25.7770   47.4560 C   0  0  0  0  0  0  0  0  0  0  0  0
   57.0100   25.8150   47.1900 C   0  0  0  0  0  0  0  0  0  0  0  0
   56.5100   26.6420   46.1790 C   0  0  0  0  0  0  0  0  0  0  0  0
   55.1340   26.7060   45.9750 O   0  0  0  0  0  0  0  0  0  0  0  0
   57.7330   31.6800   44.9280 C   0  0  0  0  0  0  0  0  0  0  0  0
   58.6890   32.8040   47.7400 C   0  0  0  0  0  0  0  0  0  0  0  0
   57.4290   32.7950   47.7670 O   0  0  0  0  0  0  0  0  0  0  0  0
   64.5007   32.0918   49.2854 H   0  0  0  0  0  0  0  0  0  0  0  0
   64.1416   33.6317   48.4332 H   0  0  0  0  0  0  0  0  0  0  0  0
   65.8131   32.9738   48.4332 H   0  0  0  0  0  0  0  0  0  0  0  0
   63.7815   34.8638   51.2872 H   0  0  0  0  0  0  0  0  0  0  0  0
   63.2106   33.3182   50.5489 H   0  0  0  0  0  0  0  0  0  0  0  0
   64.1925   33.8903   53.0943 H   0  0  0  0  0  0  0  0  0  0  0  0
   66.0774   32.0903   51.5078 H   0  0  0  0  0  0  0  0  0  0  0  0
   66.5052   33.3086   52.6953 H   0  0  0  0  0  0  0  0  0  0  0  0
   66.1433   30.5361   53.2117 H   0  0  0  0  0  0  0  0  0  0  0  0
   66.1737   31.7806   54.4693 H   0  0  0  0  0  0  0  0  0  0  0  0
   63.9339   30.1713   53.7147 H   0  0  0  0  0  0  0  0  0  0  0  0
   63.8735   31.6092   54.7722 H   0  0  0  0  0  0  0  0  0  0  0  0
   60.1169   30.7888   51.7813 H   0  0  0  0  0  0  0  0  0  0  0  0
   58.2157   31.5253   50.3130 H   0  0  0  0  0  0  0  0  0  0  0  0
   62.9744   32.3468   48.8839 H   0  0  0  0  0  0  0  0  0  0  0  0
   58.9558   33.9341   42.6626 H   0  0  0  0  0  0  0  0  0  0  0  0
   57.7907   32.3803   41.0985 H   0  0  0  0  0  0  0  0  0  0  0  0
   56.5749   30.3910   41.9774 H   0  0  0  0  0  0  0  0  0  0  0  0
   59.4594   28.0333   45.1345 H   0  0  0  0  0  0  0  0  0  0  0  0
   60.3351   26.5499   46.9365 H   0  0  0  0  0  0  0  0  0  0  0  0
   58.7693   25.1193   48.2476 H   0  0  0  0  0  0  0  0  0  0  0  0
   56.3206   25.1916   47.7784 H   0  0  0  0  0  0  0  0  0  0  0  0
   57.7402   31.4692   46.0076 H   0  0  0  0  0  0  0  0  0  0  0  0
  1  2  1  0
  2  3  1  0
  3  4  1  0
  4  5  1  0
  5  6  1  0
  6  7  1  0
  7  8  1  0
  8  9  1  0
  9 10  2  0
  9 11  2  0
  9 12  1  0
 12 13  2  0
 13 14  1  0
 14 15  2  0
 15 16  1  0
 16 17  2  0
 16 18  1  0
 18 19  2  0
 18 20  1  0
 20 21  1  0
 21 22  2  0
 21 23  1  0
 23 24  2  0
 24 25  1  0
 25 26  2  0
 26 27  1  0
 27 28  1  0
 28 29  2  0
 28 30  1  0
 30 31  1  0
 31 32  2  0
 32 33  1  0
 33 34  2  0
 34 35  1  0
 35 36  2  0
 36 37  1  0
 27 38  2  0
 20 39  1  0
 39 40  2  0
  8  4  1  0
 17 12  1  0
 38 23  1  0
 39 15  1  0
 36 31  1  0
  1 41  1  0
  1 42  1  0
  1 43  1  0
  3 44  1  0
  3 45  1  0
  4 46  1  1
  5 47  1  0
  5 48  1  0
  6 49  1  0
  6 50  1  0
  7 51  1  0
  7 52  1  0
 13 53  1  0
 14 54  1  0
 17 55  1  0
 24 56  1  0
 25 57  1  0
 26 58  1  0
 32 59  1  0
 33 60  1  0
 34 61  1  0
 35 62  1  0
 38 63  1  0
M  CHG  2  30  -1  37  -1
M  END
>  <UniqueID>  (74) 
71

>  <SMILES>  (74) 
COC[C@@H]1CCCN1S(=O)(=O)c1ccc2c(c1)C(=O)N(C(=O)c1cccc(C(=O)[N-]c3ccccc3[O-])c1)C2=O

>  <Energy>  (74) 
122.80287017263905

>  <Genealogy>  (74) 
COCC1CCCN1S(=O)(=O)c1ccc2c(c1)C(=O)N(C(=O)c1cccc(C(=O)[N-]c3ccccc3[O-])c1)C2=O (protonated)
COC[C@@H]1CCCN1S(=O)(=O)c1ccc2c(c1)C(=O)N(C(=O)c1cccc(C(=O)[N-]c3ccccc3[O-])c1)C2=O (chirality)
COC[C@@H]1CCCN1S(=O)(=O)c1ccc2c(c1)C(=O)N(C(=O)c1cccc(C(=O)[N-]c3ccccc3[O-])c1)C2=O (3D coordinates assigned)
COC[C@@H]1CCCN1S(=O)(=O)c1ccc2c(c1)C(=O)N(C(=O)c1cccc(C(=O)[N-]c3ccccc3[O-])c1)C2=O (nonaromatic ring conformer: 122.80287017263905 kcal/mol)

>  <smiles>  (74) 
COCC1CCCN1S(=O)(=O)c1ccc2c(c1)C(=O)N(C(=O)c1cccc(C(=O)Nc3ccccc3O)c1)C2=O

>  <score_type>  (74) 
oracle

>  <origin>  (74) 
adg

>  <m_score__min__energy>  (74) 
-16.579999999999998

>  <m_primary>  (74) 
energy

$$$$
74:0
     RDKit          3D

 50 53  0  0  0  0  0  0  0  0999 V2000
   59.5100   21.8370   44.3450 C   0  0  0  0  0  0  0  0  0  0  0  0
   58.6360   22.9870   44.7540 C   0  0  0  0  0  0  0  0  0  0  0  0
   57.3740   23.1590   44.1700 C   0  0  0  0  0  0  0  0  0  0  0  0
   56.5820   24.2600   44.5100 C   0  0  0  0  0  0  0  0  0  0  0  0
   57.0500   25.2190   45.4250 C   0  0  0  0  0  0  0  0  0  0  0  0
   56.2300   26.4090   45.7560 C   0  0  0  0  0  0  0  0  0  0  0  0
   55.0050   26.2740   46.0200 O   0  0  0  0  0  0  0  0  0  0  0  0
   56.8570   27.6810   45.9560 N   0  0  0  0  0  0  0  0  0  0  0  0
   56.8890   28.7420   45.1970 C   0  0  0  0  0  0  0  0  0  0  0  0
   55.6920   29.3400   44.9460 N   0  0  0  0  0  0  0  0  0  0  0  0
   55.5510   30.4080   44.1220 C   0  0  0  0  0  0  0  0  0  0  0  0
   56.6630   30.9400   43.4840 C   0  0  0  0  0  0  0  0  0  0  0  0
   57.9180   30.4030   43.7460 C   0  0  0  0  0  0  0  0  0  0  0  0
   58.0750   29.3180   44.6320 C   0  0  0  0  0  0  0  0  0  0  0  0
   59.4950   29.0110   45.0860 C   0  0  0  0  0  0  0  0  0  0  0  0
   59.5980   28.8630   46.5860 C   0  0  0  0  0  0  0  0  0  0  0  0
   59.8650   27.6100   47.1630 C   0  0  0  0  0  0  0  0  0  0  0  0
   59.9140   27.4680   48.5500 C   0  0  0  0  0  0  0  0  0  0  0  0
   59.6780   28.5660   49.3770 C   0  0  0  0  0  0  0  0  0  0  0  0
   59.3810   29.8230   48.8230 C   0  0  0  0  0  0  0  0  0  0  0  0
   59.1490   30.9620   49.6830 N   0  0  0  0  0  0  0  0  0  0  0  0
   59.7870   32.1390   49.4090 C   0  0  0  0  0  0  0  0  0  0  0  0
   59.5870   33.2590   50.2120 C   0  0  0  0  0  0  0  0  0  0  0  0
   58.7150   33.1570   51.2910 C   0  0  0  0  0  0  0  0  0  0  0  0
   58.5050   34.1590   52.0270 O   0  0  0  0  0  0  0  0  0  0  0  0
   58.0960   31.9760   51.5510 N   0  0  0  0  0  0  0  0  0  0  0  0
   58.3100   30.8820   50.7680 C   0  0  0  0  0  0  0  0  0  0  0  0
   57.7430   29.7940   51.0640 O   0  0  0  0  0  0  0  0  0  0  0  0
   59.3370   29.9610   47.4240 C   0  0  0  0  0  0  0  0  0  0  0  0
   58.3150   25.0390   46.0120 C   0  0  0  0  0  0  0  0  0  0  0  0
   59.1020   23.9340   45.6760 C   0  0  0  0  0  0  0  0  0  0  0  0
   59.8944   21.3312   45.2430 H   0  0  0  0  0  0  0  0  0  0  0  0
   58.9229   21.1251   43.7462 H   0  0  0  0  0  0  0  0  0  0  0  0
   60.3531   22.2120   43.7462 H   0  0  0  0  0  0  0  0  0  0  0  0
   57.0043   22.4238   43.4400 H   0  0  0  0  0  0  0  0  0  0  0  0
   55.5858   24.3765   44.0583 H   0  0  0  0  0  0  0  0  0  0  0  0
   54.5576   30.8516   43.9597 H   0  0  0  0  0  0  0  0  0  0  0  0
   56.5523   31.7771   42.7790 H   0  0  0  0  0  0  0  0  0  0  0  0
   58.8033   30.8318   43.2538 H   0  0  0  0  0  0  0  0  0  0  0  0
   59.8220   28.0724   44.6147 H   0  0  0  0  0  0  0  0  0  0  0  0
   60.1339   29.8548   44.7864 H   0  0  0  0  0  0  0  0  0  0  0  0
   60.0364   26.7360   46.5174 H   0  0  0  0  0  0  0  0  0  0  0  0
   60.1395   26.4867   48.9929 H   0  0  0  0  0  0  0  0  0  0  0  0
   59.7246   28.4474   50.4696 H   0  0  0  0  0  0  0  0  0  0  0  0
   60.4654   32.2024   48.5454 H   0  0  0  0  0  0  0  0  0  0  0  0
   60.1074   34.2041   49.9977 H   0  0  0  0  0  0  0  0  0  0  0  0
   57.4510   31.9050   52.3710 H   0  0  0  0  0  0  0  0  0  0  0  0
   59.0958   30.9385   46.9809 H   0  0  0  0  0  0  0  0  0  0  0  0
   58.6880   25.7734   46.7411 H   0  0  0  0  0  0  0  0  0  0  0  0
   60.0923   23.8069   46.1376 H   0  0  0  0  0  0  0  0  0  0  0  0
  1  2  1  0
  2  3  2  0
  3  4  1  0
  4  5  2  0
  5  6  1  0
  6  7  2  0
  6  8  1  0
  8  9  2  3
  9 10  1  0
 10 11  1  0
 11 12  2  0
 12 13  1  0
 13 14  2  0
 14 15  1  0
 15 16  1  0
 16 17  2  0
 17 18  1  0
 18 19  2  0
 19 20  1  0
 20 21  1  0
 21 22  1  0
 22 23  2  0
 23 24  1  0
 24 25  2  0
 24 26  1  0
 26 27  1  0
 27 28  2  0
 20 29  2  0
  5 30  1  0
 30 31  2  0
 31  2  1  0
 14  9  1  0
 29 16  1  0
 27 21  1  0
  1 32  1  0
  1 33  1  0
  1 34  1  0
  3 35  1  0
  4 36  1  0
 11 37  1  0
 12 38  1  0
 13 39  1  0
 15 40  1  0
 15 41  1  0
 17 42  1  0
 18 43  1  0
 19 44  1  0
 22 45  1  0
 23 46  1  0
 26 47  1  0
 29 48  1  0
 30 49  1  0
 31 50  1  0
M  CHG  1  10  -1
M  END
>  <UniqueID>  (75) 
72

>  <SMILES>  (75) 
Cc1ccc(C(=O)N=c2[n-]cccc2Cc2cccc(-n3ccc(=O)[nH]c3=O)c2)cc1

>  <Energy>  (75) 
77.96418830786544

>  <Genealogy>  (75) 
Cc1ccc(C(=O)N=c2[n-]cccc2Cc2cccc(-n3ccc(=O)[nH]c3=O)c2)cc1 (protonated)
Cc1ccc(C(=O)N=c2[n-]cccc2Cc2cccc(-n3ccc(=O)[nH]c3=O)c2)cc1 (3D coordinates assigned)
Cc1ccc(C(=O)N=c2[n-]cccc2Cc2cccc(-n3ccc(=O)[nH]c3=O)c2)cc1 (optimized conformer: 77.96418830786544 kcal/mol)

>  <smiles>  (75) 
Cc1ccc(C(=O)N=c2[nH]cccc2Cc2cccc(-n3ccc(=O)[nH]c3=O)c2)cc1

>  <score_type>  (75) 
oracle

>  <origin>  (75) 
adg

>  <m_score__min__energy>  (75) 
-11.75

>  <m_primary>  (75) 
energy

$$$$
75:0
     RDKit          3D

 22 23  0  0  0  0  0  0  0  0999 V2000
   57.0209   29.6286   42.9285 H   0  0  0  0  0  0  0  0  0  0  0  0
   56.9880   30.5900   43.4620 C   0  0  0  0  0  0  0  0  0  0  0  0
   56.5431   31.4723   42.9787 H   0  0  0  0  0  0  0  0  0  0  0  0
   57.4880   30.6860   44.6960 C   0  0  0  0  0  0  0  0  0  0  0  0
   57.4630   31.8220   45.3590 O   0  0  0  0  0  0  0  0  0  0  0  0
   58.0770   31.6710   46.5090 C   0  0  0  0  0  0  0  0  0  0  0  0
   58.2081   32.4558   47.2685 H   0  0  0  0  0  0  0  0  0  0  0  0
   58.5310   30.3760   46.6150 C   0  0  0  0  0  0  0  0  0  0  0  0
   59.2360   29.8340   47.7500 C   0  0  0  0  0  0  0  0  0  0  0  0
   59.8030   29.3990   48.6600 N   0  0  0  0  0  0  0  0  0  0  0  0
   58.1390   29.7070   45.4640 C   0  0  0  0  0  0  0  0  0  0  0  0
   58.3690   28.3990   45.2240 C   0  0  0  0  0  0  0  0  0  0  0  0
   59.2655   28.1428   44.6404 H   0  0  0  0  0  0  0  0  0  0  0  0
   57.5170   27.2850   45.6800 C   0  0  0  0  0  0  0  0  0  0  0  0
   56.1210   27.3890   45.6140 C   0  0  0  0  0  0  0  0  0  0  0  0
   55.5180   28.5600   45.1680 O   0  0  0  0  0  0  0  0  0  0  0  0
   55.3450   26.3410   45.9960 N   0  0  0  0  0  0  0  0  0  0  0  0
   55.8980   25.1790   46.4290 C   0  0  0  0  0  0  0  0  0  0  0  0
   55.1590   24.2240   46.7810 O   0  0  0  0  0  0  0  0  0  0  0  0
   57.2480   25.0450   46.4760 N   0  0  0  0  0  0  0  0  0  0  0  0
   58.0680   26.0630   46.1060 C   0  0  0  0  0  0  0  0  0  0  0  0
   59.3170   25.8990   46.1460 O   0  0  0  0  0  0  0  0  0  0  0  0
  1  2  1  0
  2  3  1  0
  2  4  2  0
  4  5  1  0
  5  6  1  0
  6  7  1  0
  6  8  2  0
  8  9  1  0
  9 10  3  0
  8 11  1  0
 11 12  2  0
 12 13  1  0
 12 14  1  0
 14 15  2  0
 15 16  1  0
 15 17  1  0
 17 18  1  0
 18 19  2  0
 18 20  1  0
 20 21  1  0
 21 22  2  0
 11  4  1  0
 21 14  1  0
M  CHG  3  16  -1  17  -1  20  -1
M  END
>  <UniqueID>  (76) 
73

>  <SMILES>  (76) 
C=c1occ(C#N)/c1=C/c1c([O-])[n-]c(=O)[n-]c1=O

>  <Energy>  (76) 
65.4403958959962

>  <Genealogy>  (76) 
C=c1occ(C#N)c1=Cc1c([O-])[n-]c(=O)[n-]c1=O (protonated)
C=c1occ(C#N)/c1=C/c1c([O-])[n-]c(=O)[n-]c1=O (cis-trans isomerization)
C=c1occ(C#N)/c1=C/c1c([O-])[n-]c(=O)[n-]c1=O (3D coordinates assigned)
C=c1occ(C#N)/c1=C/c1c([O-])[n-]c(=O)[n-]c1=O (optimized conformer: 65.4403958959962 kcal/mol)

>  <smiles>  (76) 
C=c1occ(C#N)c1=Cc1c(O)[nH]c(=O)[nH]c1=O

>  <score_type>  (76) 
oracle

>  <origin>  (76) 
adg

>  <m_score__min__energy>  (76) 
-13.35

>  <m_primary>  (76) 
energy

$$$$
76:0
     RDKit          3D

 46 48  0  0  1  0  0  0  0  0999 V2000
   58.9180   29.3450   49.3930 C   0  0  0  0  0  0  0  0  0  0  0  0
   59.3240   30.1400   48.4360 C   0  0  0  0  0  0  0  0  0  0  0  0
   59.7390   29.8760   47.1540 C   0  0  0  0  0  0  0  0  0  0  0  0
   59.8210   28.6980   46.5940 C   0  0  0  0  0  0  0  0  0  0  0  0
   58.7040   27.8790   46.1640 C   0  0  0  0  0  0  0  0  0  0  0  0
   57.7030   27.3350   46.9230 N   0  0  0  0  0  0  0  0  0  0  0  0
   56.8820   26.6960   46.0550 C   0  0  0  0  0  0  0  0  0  0  0  0
   55.8270   26.0610   46.3790 O   0  0  0  0  0  0  0  0  0  0  0  0
   57.3490   26.8340   44.8020 N   0  0  0  0  0  0  0  0  0  0  0  0
   58.4820   27.5650   44.8280 C   0  0  0  0  0  0  0  0  0  0  0  0
   59.2680   27.9300   43.7520 O   0  0  0  0  0  0  0  0  0  0  0  0
   60.0780   31.0530   46.4960 C   0  0  0  0  0  0  0  0  0  0  0  0
   59.8550   32.0450   47.4240 C   0  0  0  0  0  0  0  0  0  0  0  0
   60.0920   33.4590   47.1310 C   0  0  0  0  0  0  0  0  0  0  0  0
   61.1390   33.9540   47.6710 O   0  0  0  0  0  0  0  0  0  0  0  0
   59.2300   34.2310   46.3070 N   0  0  0  0  0  0  0  0  0  0  0  0
   59.6450   35.4660   45.6630 C   0  0  0  0  0  0  0  0  0  0  0  0
   57.8790   33.7470   46.1120 C   0  0  0  0  0  0  0  0  0  0  0  0
   57.6790   33.5490   44.6050 C   0  0  0  0  0  0  0  0  0  0  0  0
   57.3850   32.1240   44.3150 C   0  0  0  0  0  0  0  0  0  0  0  0
   58.0860   31.3320   43.4050 C   0  0  0  0  0  0  0  0  0  0  0  0
   57.5460   30.0980   43.4020 N   0  0  0  0  0  0  0  0  0  0  0  0
   56.5180   30.1080   44.2960 C   0  0  0  0  0  0  0  0  0  0  0  0
   56.4200   31.3300   44.8470 N   0  0  0  0  0  0  0  0  0  0  0  0
   59.4110   31.4870   48.5580 N   0  0  0  0  0  0  0  0  0  0  0  0
   59.0820   32.2800   49.7380 C   0  0  0  0  0  0  0  0  0  0  0  0
   58.6237   29.7626   50.3672 H   0  0  0  0  0  0  0  0  0  0  0  0
   58.8711   28.2592   49.2232 H   0  0  0  0  0  0  0  0  0  0  0  0
   60.8300   28.2902   46.4341 H   0  0  0  0  0  0  0  0  0  0  0  0
   57.6260   27.4190   47.9640 H   0  0  0  0  0  0  0  0  0  0  0  0
   56.9580   26.4670   43.8960 H   0  0  0  0  0  0  0  0  0  0  0  0
   59.2800   28.8670   43.3740 H   0  0  0  0  0  0  0  0  0  0  0  0
   60.4428   31.1662   45.4645 H   0  0  0  0  0  0  0  0  0  0  0  0
   59.8961   36.2132   46.4302 H   0  0  0  0  0  0  0  0  0  0  0  0
   60.5279   35.2737   45.0357 H   0  0  0  0  0  0  0  0  0  0  0  0
   58.8251   35.8459   45.0357 H   0  0  0  0  0  0  0  0  0  0  0  0
   57.7418   32.7911   46.6388 H   0  0  0  0  0  0  0  0  0  0  0  0
   57.1468   34.4643   46.5112 H   0  0  0  0  0  0  0  0  0  0  0  0
   56.8382   34.1711   44.2643 H   0  0  0  0  0  0  0  0  0  0  0  0
   58.5983   33.8427   44.0771 H   0  0  0  0  0  0  0  0  0  0  0  0
   58.9381   31.6607   42.7919 H   0  0  0  0  0  0  0  0  0  0  0  0
   57.8660   29.2920   42.8150 H   0  0  0  0  0  0  0  0  0  0  0  0
   55.8699   29.2506   44.5301 H   0  0  0  0  0  0  0  0  0  0  0  0
   59.3207   31.7047   50.6446 H   0  0  0  0  0  0  0  0  0  0  0  0
   59.6682   33.2107   49.7294 H   0  0  0  0  0  0  0  0  0  0  0  0
   58.0091   32.5224   49.7294 H   0  0  0  0  0  0  0  0  0  0  0  0
  1  2  2  0
  2  3  1  0
  3  4  2  0
  4  5  1  0
  5  6  1  0
  6  7  1  0
  7  8  2  0
  7  9  1  0
  9 10  1  0
 10 11  1  0
  3 12  1  0
 12 13  2  0
 13 14  1  0
 14 15  2  0
 14 16  1  0
 16 17  1  0
 16 18  1  0
 18 19  1  0
 19 20  1  0
 20 21  2  0
 21 22  1  0
 22 23  1  0
 23 24  2  0
 13 25  1  0
 25 26  1  0
 25  2  1  0
 10  5  2  0
 24 20  1  0
  1 27  1  0
  1 28  1  0
  4 29  1  0
  6 30  1  0
  9 31  1  0
 11 32  1  0
 12 33  1  0
 17 34  1  0
 17 35  1  0
 17 36  1  0
 18 37  1  0
 18 38  1  0
 19 39  1  0
 19 40  1  0
 21 41  1  0
 22 42  1  0
 23 43  1  0
 26 44  1  0
 26 45  1  0
 26 46  1  0
M  END
>  <smiles>  (77) 
C=c1c(=Cc2[nH]c(=O)[nH]c2O)cc(C(=O)N(C)CCc2c[nH]cn2)n1C

>  <score_type>  (77) 
oracle

>  <origin>  (77) 
adg

>  <m_score__min__energy>  (77) 
-8.5899999999999999

>  <m_primary>  (77) 
energy

$$$$
77:0
     RDKit          3D

 37 39  0  0  0  0  0  0  0  0999 V2000
   57.0340   30.5890   42.8560 O   0  0  0  0  0  0  0  0  0  0  0  0
   56.8150   30.4450   44.0870 C   0  0  0  0  0  0  0  0  0  0  0  0
   56.6260   31.6100   44.8990 N   0  0  0  0  0  0  0  0  0  0  0  0
   57.6760   32.4190   45.4440 C   0  0  0  0  0  0  0  0  0  0  0  0
   57.5890   33.8220   45.4450 C   0  0  0  0  0  0  0  0  0  0  0  0
   58.6270   34.5900   45.9800 C   0  0  0  0  0  0  0  0  0  0  0  0
   59.7560   33.9660   46.5140 C   0  0  0  0  0  0  0  0  0  0  0  0
   59.8580   32.5650   46.5140 C   0  0  0  0  0  0  0  0  0  0  0  0
   61.0600   31.8860   47.1150 C   0  0  0  0  0  0  0  0  0  0  0  0
   62.2040   32.8000   47.1570 N   0  0  0  0  0  0  0  0  0  0  0  0
   62.8850   33.1940   48.3640 C   0  0  0  0  0  0  0  0  0  0  0  0
   62.2940   34.0590   49.3020 C   0  0  0  0  0  0  0  0  0  0  0  0
   62.9900   34.3970   50.4650 C   0  0  0  0  0  0  0  0  0  0  0  0
   64.2350   33.9000   50.6840 N   0  0  0  0  0  0  0  0  0  0  0  0
   64.8380   33.0700   49.7920 C   0  0  0  0  0  0  0  0  0  0  0  0
   65.9940   32.6310   50.0280 O   0  0  0  0  0  0  0  0  0  0  0  0
   64.1750   32.7050   48.6160 C   0  0  0  0  0  0  0  0  0  0  0  0
   58.8240   31.8000   45.9500 C   0  0  0  0  0  0  0  0  0  0  0  0
   56.8270   29.0900   44.6730 C   0  0  0  0  0  0  0  0  0  0  0  0
   57.9490   28.2920   44.8120 C   0  0  0  0  0  0  0  0  0  0  0  0
   57.5240   27.1330   45.4230 C   0  0  0  0  0  0  0  0  0  0  0  0
   56.1720   27.2960   45.6290 C   0  0  0  0  0  0  0  0  0  0  0  0
   55.3470   26.3520   46.2300 O   0  0  0  0  0  0  0  0  0  0  0  0
   55.7340   28.4860   45.1810 N   0  0  0  0  0  0  0  0  0  0  0  0
   56.7016   34.3168   45.0236 H   0  0  0  0  0  0  0  0  0  0  0  0
   58.5543   35.6876   45.9803 H   0  0  0  0  0  0  0  0  0  0  0  0
   60.5693   34.5742   46.9366 H   0  0  0  0  0  0  0  0  0  0  0  0
   60.8182   31.5630   48.1383 H   0  0  0  0  0  0  0  0  0  0  0  0
   61.3236   31.0179   46.4930 H   0  0  0  0  0  0  0  0  0  0  0  0
   62.5870   33.1260   46.2400 H   0  0  0  0  0  0  0  0  0  0  0  0
   61.2888   34.4674   49.1209 H   0  0  0  0  0  0  0  0  0  0  0  0
   62.5287   35.0673   51.2053 H   0  0  0  0  0  0  0  0  0  0  0  0
   64.6635   32.0369   47.8914 H   0  0  0  0  0  0  0  0  0  0  0  0
   58.9176   30.7049   45.9058 H   0  0  0  0  0  0  0  0  0  0  0  0
   58.9748   28.5347   44.4975 H   0  0  0  0  0  0  0  0  0  0  0  0
   58.1366   26.2594   45.6906 H   0  0  0  0  0  0  0  0  0  0  0  0
   55.1580   26.3910   47.2250 H   0  0  0  0  0  0  0  0  0  0  0  0
  1  2  2  0
  2  3  1  0
  3  4  1  0
  4  5  2  0
  5  6  1  0
  6  7  2  0
  7  8  1  0
  8  9  1  0
  9 10  1  0
 10 11  1  0
 11 12  1  0
 12 13  2  0
 13 14  1  0
 14 15  1  0
 15 16  2  0
 15 17  1  0
  8 18  2  0
  2 19  1  0
 19 20  2  0
 20 21  1  0
 21 22  2  0
 22 23  1  0
 22 24  1  0
 18  4  1  0
 24 19  1  0
 17 11  2  0
  5 25  1  0
  6 26  1  0
  7 27  1  0
  9 28  1  0
  9 29  1  0
 10 30  1  0
 12 31  1  0
 13 32  1  0
 17 33  1  0
 18 34  1  0
 20 35  1  0
 21 36  1  0
 23 37  1  0
M  CHG  3   3  -1  14  -1  24  -1
M  END
>  <UniqueID>  (78) 
74

>  <SMILES>  (78) 
O=C([N-]c1cccc(CNc2cc[n-]c(=O)c2)c1)c1ccc(O)[n-]1

>  <Energy>  (78) 
68.44800404094624

>  <Genealogy>  (78) 
O=C([N-]c1cccc(CNc2cc[n-]c(=O)c2)c1)c1ccc(O)[n-]1 (protonated)
O=C([N-]c1cccc(CNc2cc[n-]c(=O)c2)c1)c1ccc(O)[n-]1 (3D coordinates assigned)
O=C([N-]c1cccc(CNc2cc[n-]c(=O)c2)c1)c1ccc(O)[n-]1 (optimized conformer: 68.44800404094624 kcal/mol)

>  <smiles>  (78) 
O=C(Nc1cccc(CNc2cc[nH]c(=O)c2)c1)c1ccc(O)[nH]1

>  <score_type>  (78) 
oracle

>  <origin>  (78) 
adg

>  <m_score__min__energy>  (78) 
-12.77

>  <m_primary>  (78) 
energy

$$$$
78:0
     RDKit          3D

 43 45  0  0  0  0  0  0  0  0999 V2000
   60.0010   27.4890   47.9460 O   0  0  0  0  0  0  0  0  0  0  0  0
   59.9030   27.7570   46.7150 C   0  0  0  0  0  0  0  0  0  0  0  0
   59.2730   26.8230   45.8260 N   0  0  0  0  0  0  0  0  0  0  0  0
   58.6650   25.5820   46.2980 C   0  0  0  0  0  0  0  0  0  0  0  0
   57.1860   25.6160   46.0740 C   0  0  0  0  0  0  0  0  0  0  0  0
   56.3670   26.7050   46.2450 C   0  0  0  0  0  0  0  0  0  0  0  0
   55.0980   26.3380   45.9970 N   0  0  0  0  0  0  0  0  0  0  0  0
   55.1890   25.0270   45.6880 C   0  0  0  0  0  0  0  0  0  0  0  0
   56.4500   24.5450   45.7300 N   0  0  0  0  0  0  0  0  0  0  0  0
   60.4190   29.0760   46.1950 C   0  0  2  0  0  0  0  0  0  0  0  0
   59.9760   30.2140   47.1490 C   0  0  0  0  0  0  0  0  0  0  0  0
   60.9140   31.3970   47.1450 C   0  0  0  0  0  0  0  0  0  0  0  0
   60.4500   32.6730   46.7790 C   0  0  0  0  0  0  0  0  0  0  0  0
   61.3240   33.7630   46.7590 C   0  0  0  0  0  0  0  0  0  0  0  0
   62.6630   33.5930   47.1180 C   0  0  0  0  0  0  0  0  0  0  0  0
   63.1290   32.3360   47.5070 C   0  0  0  0  0  0  0  0  0  0  0  0
   62.2580   31.2420   47.5310 C   0  0  0  0  0  0  0  0  0  0  0  0
   59.9250   29.2650   44.7390 C   0  0  0  0  0  0  0  0  0  0  0  0
   58.5310   29.8380   44.6480 C   0  0  0  0  0  0  0  0  0  0  0  0
   58.3230   31.2240   44.7370 C   0  0  0  0  0  0  0  0  0  0  0  0
   57.0230   31.7320   44.6630 C   0  0  0  0  0  0  0  0  0  0  0  0
   55.9700   30.8890   44.4890 N   0  0  0  0  0  0  0  0  0  0  0  0
   56.1460   29.5460   44.3760 C   0  0  0  0  0  0  0  0  0  0  0  0
   57.4270   28.9970   44.4450 C   0  0  0  0  0  0  0  0  0  0  0  0
   59.2330   27.0350   44.8030 H   0  0  0  0  0  0  0  0  0  0  0  0
   59.0968   24.7331   45.7477 H   0  0  0  0  0  0  0  0  0  0  0  0
   58.8635   25.4705   47.3742 H   0  0  0  0  0  0  0  0  0  0  0  0
   56.6959   27.7132   46.5373 H   0  0  0  0  0  0  0  0  0  0  0  0
   54.3174   24.4090   45.4264 H   0  0  0  0  0  0  0  0  0  0  0  0
   61.5185   29.0967   46.1713 H   0  0  0  0  0  0  0  0  0  0  0  0
   58.9780   30.5590   46.8409 H   0  0  0  0  0  0  0  0  0  0  0  0
   59.9762   29.8021   48.1690 H   0  0  0  0  0  0  0  0  0  0  0  0
   59.3935   32.8138   46.5070 H   0  0  0  0  0  0  0  0  0  0  0  0
   60.9571   34.7560   46.4602 H   0  0  0  0  0  0  0  0  0  0  0  0
   63.3512   34.4508   47.0942 H   0  0  0  0  0  0  0  0  0  0  0  0
   64.1826   32.2057   47.7950 H   0  0  0  0  0  0  0  0  0  0  0  0
   62.6253   30.2564   47.8530 H   0  0  0  0  0  0  0  0  0  0  0  0
   60.6165   29.9465   44.2219 H   0  0  0  0  0  0  0  0  0  0  0  0
   59.8974   28.2686   44.2737 H   0  0  0  0  0  0  0  0  0  0  0  0
   59.1773   31.9052   44.8641 H   0  0  0  0  0  0  0  0  0  0  0  0
   56.8513   32.8154   44.7456 H   0  0  0  0  0  0  0  0  0  0  0  0
   55.2756   28.8896   44.2296 H   0  0  0  0  0  0  0  0  0  0  0  0
   57.5701   27.9113   44.3408 H   0  0  0  0  0  0  0  0  0  0  0  0
  1  2  2  0
  2  3  1  0
  3  4  1  0
  4  5  1  0
  5  6  2  0
  6  7  1  0
  7  8  1  0
  8  9  2  0
  2 10  1  0
 10 11  1  0
 11 12  1  0
 12 13  2  0
 13 14  1  0
 14 15  2  0
 15 16  1  0
 16 17  2  0
 10 18  1  0
 18 19  1  0
 19 20  2  0
 20 21  1  0
 21 22  2  0
 22 23  1  0
 23 24  2  0
  9  5  1  0
 17 12  1  0
 24 19  1  0
  3 25  1  0
  4 26  1  0
  4 27  1  0
  6 28  1  0
  8 29  1  0
 10 30  1  6
 11 31  1  0
 11 32  1  0
 13 33  1  0
 14 34  1  0
 15 35  1  0
 16 36  1  0
 17 37  1  0
 18 38  1  0
 18 39  1  0
 20 40  1  0
 21 41  1  0
 23 42  1  0
 24 43  1  0
M  CHG  1   7  -1
M  END
>  <UniqueID>  (79) 
75

>  <SMILES>  (79) 
O=C(NCc1c[n-]cn1)[C@H](Cc1ccccc1)Cc1ccncc1

>  <Energy>  (79) 
65.8357897861052

>  <Genealogy>  (79) 
O=C(NCc1c[n-]cn1)C(Cc1ccccc1)Cc1ccncc1 (protonated)
O=C(NCc1c[n-]cn1)[C@H](Cc1ccccc1)Cc1ccncc1 (chirality)
O=C(NCc1c[n-]cn1)[C@H](Cc1ccccc1)Cc1ccncc1 (3D coordinates assigned)
O=C(NCc1c[n-]cn1)[C@H](Cc1ccccc1)Cc1ccncc1 (optimized conformer: 65.8357897861052 kcal/mol)

>  <smiles>  (79) 
O=C(NCc1c[nH]cn1)C(Cc1ccccc1)Cc1ccncc1

>  <score_type>  (79) 
oracle

>  <origin>  (79) 
adg

>  <m_score__min__energy>  (79) 
-9.3100000000000005

>  <m_primary>  (79) 
energy

$$$$
79:0
     RDKit          3D

 28 29  0  0  0  0  0  0  0  0999 V2000
   58.9100   27.6610   46.2930 C   0  0  0  0  0  0  0  0  0  0  0  0
   57.5540   27.0390   46.2060 C   0  0  0  0  0  0  0  0  0  0  0  0
   57.2620   25.8280   46.7160 N   0  0  0  0  0  0  0  0  0  0  0  0
   55.9570   25.6720   46.4180 C   0  0  0  0  0  0  0  0  0  0  0  0
   55.3060   24.6430   46.7360 O   0  0  0  0  0  0  0  0  0  0  0  0
   55.4030   26.7040   45.7520 N   0  0  0  0  0  0  0  0  0  0  0  0
   56.4210   27.5760   45.6160 C   0  0  0  0  0  0  0  0  0  0  0  0
   56.2880   28.8810   44.9410 C   0  0  0  0  0  0  0  0  0  0  0  0
   55.1770   29.4750   44.9300 O   0  0  0  0  0  0  0  0  0  0  0  0
   57.4240   29.4800   44.2970 N   0  0  0  0  0  0  0  0  0  0  0  0
   57.3330   30.7390   43.5620 C   0  0  0  0  0  0  0  0  0  0  0  0
   57.9240   31.8590   44.3730 C   0  0  0  0  0  0  0  0  0  0  0  0
   58.1900   33.1000   43.7710 C   0  0  0  0  0  0  0  0  0  0  0  0
   58.7180   34.1520   44.5250 C   0  0  0  0  0  0  0  0  0  0  0  0
   58.9810   33.9750   45.8880 C   0  0  0  0  0  0  0  0  0  0  0  0
   59.6420   35.2960   46.8330 Cl  0  0  0  0  0  0  0  0  0  0  0  0
   58.7140   32.7440   46.4960 C   0  0  0  0  0  0  0  0  0  0  0  0
   58.1860   31.6900   45.7440 C   0  0  0  0  0  0  0  0  0  0  0  0
   59.1878   27.7884   47.3497 H   0  0  0  0  0  0  0  0  0  0  0  0
   59.6446   27.0098   45.7967 H   0  0  0  0  0  0  0  0  0  0  0  0
   58.8957   28.6426   45.7967 H   0  0  0  0  0  0  0  0  0  0  0  0
   58.3540   29.0070   44.3500 H   0  0  0  0  0  0  0  0  0  0  0  0
   57.8839   30.6469   42.6144 H   0  0  0  0  0  0  0  0  0  0  0  0
   56.2745   30.9614   43.3616 H   0  0  0  0  0  0  0  0  0  0  0  0
   57.9817   33.2447   42.7006 H   0  0  0  0  0  0  0  0  0  0  0  0
   58.9270   35.1201   44.0464 H   0  0  0  0  0  0  0  0  0  0  0  0
   58.9197   32.6048   47.5676 H   0  0  0  0  0  0  0  0  0  0  0  0
   57.9747   30.7246   46.2271 H   0  0  0  0  0  0  0  0  0  0  0  0
  1  2  1  0
  2  3  1  0
  3  4  1  0
  4  5  2  0
  4  6  1  0
  6  7  1  0
  7  8  1  0
  8  9  2  0
  8 10  1  0
 10 11  1  0
 11 12  1  0
 12 13  2  0
 13 14  1  0
 14 15  2  0
 15 16  1  0
 15 17  1  0
 17 18  2  0
  7  2  2  0
 18 12  1  0
  1 19  1  0
  1 20  1  0
  1 21  1  0
 10 22  1  0
 11 23  1  0
 11 24  1  0
 13 25  1  0
 14 26  1  0
 17 27  1  0
 18 28  1  0
M  CHG  2   3  -1   6  -1
M  END
>  <UniqueID>  (80) 
76

>  <SMILES>  (80) 
Cc1[n-]c(=O)[n-]c1C(=O)NCc1ccc(Cl)cc1

>  <Energy>  (80) 
52.93478981870461

>  <Genealogy>  (80) 
Cc1[n-]c(=O)[n-]c1C(=O)NCc1ccc(Cl)cc1 (protonated)
Cc1[n-]c(=O)[n-]c1C(=O)NCc1ccc(Cl)cc1 (3D coordinates assigned)
Cc1[n-]c(=O)[n-]c1C(=O)NCc1ccc(Cl)cc1 (optimized conformer: 52.93478981870461 kcal/mol)

>  <smiles>  (80) 
Cc1[nH]c(=O)[nH]c1C(=O)NCc1ccc(Cl)cc1

>  <score_type>  (80) 
oracle

>  <origin>  (80) 
adg

>  <m_score__min__energy>  (80) 
-11.039999999999999

>  <m_primary>  (80) 
energy

$$$$
80:0
     RDKit          3D

 61 65  0  0  0  0  0  0  0  0999 V2000
   63.1760   34.5250   50.6650 C   0  0  0  0  0  0  0  0  0  0  0  0
   62.8880   33.9090   49.3210 C   0  0  0  0  0  0  0  0  0  0  0  0
   63.9290   33.8090   48.3830 C   0  0  0  0  0  0  0  0  0  0  0  0
   63.7070   33.2300   47.1370 C   0  0  0  0  0  0  0  0  0  0  0  0
   62.4420   32.7500   46.8070 C   0  0  0  0  0  0  0  0  0  0  0  0
   61.3850   32.8420   47.7190 C   0  0  0  0  0  0  0  0  0  0  0  0
   60.0990   32.3380   47.3340 N   0  0  0  0  0  0  0  0  0  0  0  0
   59.7680   30.9440   47.4550 C   0  0  0  0  0  0  0  0  0  0  0  0
   60.2800   30.2120   48.5410 C   0  0  0  0  0  0  0  0  0  0  0  0
   59.9310   28.8720   48.7420 C   0  0  0  0  0  0  0  0  0  0  0  0
   60.4640   28.1280   49.9050 C   0  0  0  0  0  0  0  0  0  0  0  0
   60.7600   26.9080   49.7720 O   0  0  0  0  0  0  0  0  0  0  0  0
   60.6650   28.7700   51.1780 N   0  0  0  0  0  0  0  0  0  0  0  0
   61.8060   29.6690   51.3680 C   0  0  0  0  0  0  0  0  0  0  0  0
   59.6600   28.6020   52.2360 C   0  0  0  0  0  0  0  0  0  0  0  0
   58.5650   29.6200   52.0650 C   0  0  0  0  0  0  0  0  0  0  0  0
   58.8190   30.8160   51.3710 C   0  0  0  0  0  0  0  0  0  0  0  0
   57.8150   31.7810   51.2380 C   0  0  0  0  0  0  0  0  0  0  0  0
   56.5570   31.5620   51.8040 C   0  0  0  0  0  0  0  0  0  0  0  0
   56.3020   30.3820   52.5090 C   0  0  0  0  0  0  0  0  0  0  0  0
   57.3030   29.4170   52.6470 C   0  0  0  0  0  0  0  0  0  0  0  0
   59.0140   28.2720   47.8750 C   0  0  0  0  0  0  0  0  0  0  0  0
   58.5020   28.9780   46.7870 C   0  0  0  0  0  0  0  0  0  0  0  0
   58.8960   30.3090   46.5250 C   0  0  0  0  0  0  0  0  0  0  0  0
   58.3940   31.0130   45.2890 C   0  0  0  0  0  0  0  0  0  0  0  0
   57.9690   30.2760   44.1590 C   0  0  0  0  0  0  0  0  0  0  0  0
   57.4800   30.9210   43.0200 C   0  0  0  0  0  0  0  0  0  0  0  0
   57.4150   32.3120   42.9770 C   0  0  0  0  0  0  0  0  0  0  0  0
   57.8540   33.0630   44.0670 C   0  0  0  0  0  0  0  0  0  0  0  0
   58.3550   32.4230   45.2080 C   0  0  0  0  0  0  0  0  0  0  0  0
   58.9990   33.3800   46.5120 S   0  0  0  0  0  0  0  0  0  0  0  0
   57.9010   33.8200   47.4380 O   0  0  0  0  0  0  0  0  0  0  0  0
   59.7300   34.5760   45.9680 O   0  0  0  0  0  0  0  0  0  0  0  0
   61.5990   33.4160   48.9950 C   0  0  0  0  0  0  0  0  0  0  0  0
   60.4850   33.4830   50.0110 C   0  0  0  0  0  0  0  0  0  0  0  0
   62.8542   33.8367   51.4604 H   0  0  0  0  0  0  0  0  0  0  0  0
   64.2557   34.7137   50.7581 H   0  0  0  0  0  0  0  0  0  0  0  0
   62.6285   35.4745   50.7581 H   0  0  0  0  0  0  0  0  0  0  0  0
   64.9288   34.1918   48.6356 H   0  0  0  0  0  0  0  0  0  0  0  0
   64.5310   33.1515   46.4126 H   0  0  0  0  0  0  0  0  0  0  0  0
   62.2723   32.2944   45.8203 H   0  0  0  0  0  0  0  0  0  0  0  0
   60.9678   30.7021   49.2458 H   0  0  0  0  0  0  0  0  0  0  0  0
   61.9859   29.8108   52.4439 H   0  0  0  0  0  0  0  0  0  0  0  0
   62.7003   29.2302   50.9014 H   0  0  0  0  0  0  0  0  0  0  0  0
   61.5886   30.6411   50.9014 H   0  0  0  0  0  0  0  0  0  0  0  0
   59.2313   27.5908   52.1752 H   0  0  0  0  0  0  0  0  0  0  0  0
   60.1378   28.7436   53.2167 H   0  0  0  0  0  0  0  0  0  0  0  0
   59.8113   30.9937   50.9308 H   0  0  0  0  0  0  0  0  0  0  0  0
   58.0162   32.7120   50.6878 H   0  0  0  0  0  0  0  0  0  0  0  0
   55.7661   32.3187   51.6949 H   0  0  0  0  0  0  0  0  0  0  0  0
   55.3112   30.2129   52.9560 H   0  0  0  0  0  0  0  0  0  0  0  0
   57.1021   28.4955   53.2132 H   0  0  0  0  0  0  0  0  0  0  0  0
   58.6936   27.2347   48.0522 H   0  0  0  0  0  0  0  0  0  0  0  0
   57.7771   28.4889   46.1197 H   0  0  0  0  0  0  0  0  0  0  0  0
   58.0243   29.1775   44.1772 H   0  0  0  0  0  0  0  0  0  0  0  0
   57.1456   30.3291   42.1553 H   0  0  0  0  0  0  0  0  0  0  0  0
   57.0179   32.8173   42.0843 H   0  0  0  0  0  0  0  0  0  0  0  0
   57.8067   34.1614   44.0307 H   0  0  0  0  0  0  0  0  0  0  0  0
   60.9113   33.4574   51.0247 H   0  0  0  0  0  0  0  0  0  0  0  0
   59.9198   34.4168   49.8744 H   0  0  0  0  0  0  0  0  0  0  0  0
   59.8120   32.6237   49.8744 H   0  0  0  0  0  0  0  0  0  0  0  0
  1  2  1  0
  2  3  2  0
  3  4  1  0
  4  5  2  0
  5  6  1  0
  6  7  1  0
  7  8  1  0
  8  9  2  0
  9 10  1  0
 10 11  1  0
 11 12  2  0
 11 13  1  0
 13 14  1  0
 13 15  1  0
 15 16  1  0
 16 17  2  0
 17 18  1  0
 18 19  2  0
 19 20  1  0
 20 21  2  0
 10 22  2  0
 22 23  1  0
 23 24  2  0
 24 25  1  0
 25 26  2  0
 26 27  1  0
 27 28  2  0
 28 29  1  0
 29 30  2  0
 30 31  1  0
 31 32  2  0
 31 33  2  0
  6 34  2  0
 34 35  1  0
 34  2  1  0
 31  7  1  0
 24  8  1  0
 30 25  1  0
 21 16  1  0
  1 36  1  0
  1 37  1  0
  1 38  1  0
  3 39  1  0
  4 40  1  0
  5 41  1  0
  9 42  1  0
 14 43  1  0
 14 44  1  0
 14 45  1  0
 15 46  1  0
 15 47  1  0
 17 48  1  0
 18 49  1  0
 19 50  1  0
 20 51  1  0
 21 52  1  0
 22 53  1  0
 23 54  1  0
 26 55  1  0
 27 56  1  0
 28 57  1  0
 29 58  1  0
 35 59  1  0
 35 60  1  0
 35 61  1  0
M  END
>  <UniqueID>  (81) 
77

>  <SMILES>  (81) 
Cc1cccc(N2c3cc(C(=O)N(C)Cc4ccccc4)ccc3-c3ccccc3S2(=O)=O)c1C

>  <Energy>  (81) 
91.42274595565368

>  <Genealogy>  (81) 
Cc1cccc(N2c3cc(C(=O)N(C)Cc4ccccc4)ccc3-c3ccccc3S2(=O)=O)c1C (3D coordinates assigned)
Cc1cccc(N2c3cc(C(=O)N(C)Cc4ccccc4)ccc3-c3ccccc3S2(=O)=O)c1C (nonaromatic ring conformer: 91.42274595565368 kcal/mol)

>  <smiles>  (81) 
Cc1cccc(N2c3cc(C(=O)N(C)Cc4ccccc4)ccc3-c3ccccc3S2(=O)=O)c1C

>  <score_type>  (81) 
oracle

>  <origin>  (81) 
adg

>  <m_score__min__energy>  (81) 
-9.3900000000000006

>  <m_primary>  (81) 
energy

$$$$
81:0
     RDKit          3D

 45 47  0  0  0  0  0  0  0  0999 V2000
   58.2450   32.0730   48.5230 H   0  0  0  0  0  0  0  0  0  0  0  0
   57.8270   32.1840   47.6090 O   0  0  0  0  0  0  0  0  0  0  0  0
   58.2540   33.1380   46.6830 C   0  0  0  0  0  0  0  0  0  0  0  0
   58.0080   32.9970   45.3150 C   0  0  0  0  0  0  0  0  0  0  0  0
   57.3590   31.8580   44.6440 C   0  0  0  0  0  0  0  0  0  0  0  0
   56.4518   32.0545   44.0538 H   0  0  0  0  0  0  0  0  0  0  0  0
   57.8070   30.5960   44.7090 C   0  0  0  0  0  0  0  0  0  0  0  0
   57.5510   29.6290   43.7500 C   0  0  0  0  0  0  0  0  0  0  0  0
   56.9788   29.7568   42.8193 H   0  0  0  0  0  0  0  0  0  0  0  0
   58.1590   28.4720   44.1980 C   0  0  0  0  0  0  0  0  0  0  0  0
   58.1440   27.1460   43.5030 C   0  0  0  0  0  0  0  0  0  0  0  0
   58.1349   26.3399   44.2514 H   0  0  0  0  0  0  0  0  0  0  0  0
   57.2450   27.0721   42.8735 H   0  0  0  0  0  0  0  0  0  0  0  0
   59.0411   27.0518   42.8735 H   0  0  0  0  0  0  0  0  0  0  0  0
   58.7450   28.7780   45.4200 C   0  0  0  0  0  0  0  0  0  0  0  0
   59.4190   27.9380   46.2060 C   0  0  0  0  0  0  0  0  0  0  0  0
   59.5626   26.8919   45.8978 H   0  0  0  0  0  0  0  0  0  0  0  0
   59.8315   28.2911   47.1626 H   0  0  0  0  0  0  0  0  0  0  0  0
   58.5270   30.0730   45.7270 N   0  0  0  0  0  0  0  0  0  0  0  0
   58.8230   30.5510   46.6100 H   0  0  0  0  0  0  0  0  0  0  0  0
   58.7710   34.2560   44.5000 S   0  0  0  0  0  0  0  0  0  0  0  0
   59.3330   34.9600   45.9170 C   0  0  0  0  0  0  0  0  0  0  0  0
   60.0300   36.0100   45.9500 O   0  0  0  0  0  0  0  0  0  0  0  0
   58.9750   34.2550   47.0210 N   0  0  0  0  0  0  0  0  0  0  0  0
   59.4480   34.5910   48.3710 C   0  0  0  0  0  0  0  0  0  0  0  0
   60.1504   35.4355   48.3128 H   0  0  0  0  0  0  0  0  0  0  0  0
   58.5890   34.8680   48.9998 H   0  0  0  0  0  0  0  0  0  0  0  0
   60.1420   33.4060   48.9720 C   0  0  0  0  0  0  0  0  0  0  0  0
   59.5540   32.7150   49.8480 O   0  0  0  0  0  0  0  0  0  0  0  0
   61.5020   33.1140   48.6340 N   0  0  0  0  0  0  0  0  0  0  0  0
   61.8050   32.4950   47.3370 C   0  0  0  0  0  0  0  0  0  0  0  0
   61.8260   31.4024   47.4624 H   0  0  0  0  0  0  0  0  0  0  0  0
   61.0238   32.8019   46.6261 H   0  0  0  0  0  0  0  0  0  0  0  0
   63.1640   32.9560   46.7740 C   0  0  0  0  0  0  0  0  0  0  0  0
   63.6354   32.1025   46.2648 H   0  0  0  0  0  0  0  0  0  0  0  0
   62.9591   33.7943   46.0918 H   0  0  0  0  0  0  0  0  0  0  0  0
   64.1370   33.4790   47.8440 C   0  0  0  0  0  0  0  0  0  0  0  0
   65.1685   33.2819   47.5167 H   0  0  0  0  0  0  0  0  0  0  0  0
   63.9666   34.5585   47.9688 H   0  0  0  0  0  0  0  0  0  0  0  0
   63.9040   32.7970   49.1900 C   0  0  0  0  0  0  0  0  0  0  0  0
   63.9966   31.7078   49.0674 H   0  0  0  0  0  0  0  0  0  0  0  0
   64.6529   33.1559   49.9114 H   0  0  0  0  0  0  0  0  0  0  0  0
   62.5020   33.1320   49.7110 C   0  0  0  0  0  0  0  0  0  0  0  0
   62.2185   32.3909   50.4728 H   0  0  0  0  0  0  0  0  0  0  0  0
   62.5282   34.1458   50.1370 H   0  0  0  0  0  0  0  0  0  0  0  0
  1  2  1  0
  2  3  1  0
  3  4  2  0
  4  5  1  0
  5  6  1  0
  5  7  2  0
  7  8  1  0
  8  9  1  0
  8 10  2  0
 10 11  1  0
 11 12  1  0
 11 13  1  0
 11 14  1  0
 10 15  1  0
 15 16  2  0
 16 17  1  0
 16 18  1  0
 15 19  1  0
 19 20  1  0
  4 21  1  0
 21 22  1  0
 22 23  2  0
 22 24  1  0
 24 25  1  0
 25 26  1  0
 25 27  1  0
 25 28  1  0
 28 29  2  0
 28 30  1  0
 30 31  1  0
 31 32  1  0
 31 33  1  0
 31 34  1  0
 34 35  1  0
 34 36  1  0
 34 37  1  0
 37 38  1  0
 37 39  1  0
 37 40  1  0
 40 41  1  0
 40 42  1  0
 40 43  1  0
 43 44  1  0
 43 45  1  0
 24  3  1  0
 43 30  1  0
 19  7  1  0
M  END
>  <UniqueID>  (82) 
78

>  <SMILES>  (82) 
C=c1[nH]/c(=C\c2sc(=O)n(CC(=O)N3CCCCC3)c2O)cc1C

>  <Energy>  (82) 
111.30520886101938

>  <Genealogy>  (82) 
C=c1[nH]/c(=C\c2sc(=O)n(CC(=O)N3CCCCC3)c2O)cc1C (cis-trans isomerization)
C=c1[nH]/c(=C\c2sc(=O)n(CC(=O)N3CCCCC3)c2O)cc1C (3D coordinates assigned)
C=c1[nH]/c(=C\c2sc(=O)n(CC(=O)N3CCCCC3)c2O)cc1C (nonaromatic ring conformer: 111.30520886101938 kcal/mol)

>  <smiles>  (82) 
C=c1[nH]c(=Cc2sc(=O)n(CC(=O)N3CCCCC3)c2O)cc1C

>  <score_type>  (82) 
oracle

>  <origin>  (82) 
adg

>  <m_score__min__energy>  (82) 
-8.7699999999999996

>  <m_primary>  (82) 
energy

$$$$
82:0
     RDKit          3D

 57 60  0  0  0  0  0  0  0  0999 V2000
   59.4510   27.6340   45.8930 C   0  0  0  0  0  0  0  0  0  0  0  0
   58.3250   28.4430   45.3230 C   0  0  0  0  0  0  0  0  0  0  0  0
   58.5570   29.6670   44.7720 N   0  0  0  0  0  0  0  0  0  0  0  0
   57.4230   30.2460   44.3150 C   0  0  0  0  0  0  0  0  0  0  0  0
   57.4070   31.5210   43.6480 N   0  0  0  0  0  0  0  0  0  0  0  0
   57.2270   31.5500   42.1920 C   0  0  0  0  0  0  0  0  0  0  0  0
   57.7770   32.7300   44.3430 C   0  0  0  0  0  0  0  0  0  0  0  0
   58.5190   33.5750   43.7750 O   0  0  0  0  0  0  0  0  0  0  0  0
   57.3690   32.9350   45.7060 N   0  0  0  0  0  0  0  0  0  0  0  0
   58.2120   33.0780   46.8590 C   0  0  0  0  0  0  0  0  0  0  0  0
   58.9200   34.2730   47.0210 C   0  0  0  0  0  0  0  0  0  0  0  0
   59.7570   34.4580   48.1230 C   0  0  0  0  0  0  0  0  0  0  0  0
   59.9000   33.4480   49.0790 C   0  0  0  0  0  0  0  0  0  0  0  0
   60.9560   33.7310   50.4610 Cl  0  0  0  0  0  0  0  0  0  0  0  0
   59.2090   32.2320   48.9190 C   0  0  0  0  0  0  0  0  0  0  0  0
   59.3780   31.1320   49.8870 C   0  0  0  0  0  0  0  0  0  0  0  0
   60.3650   30.3660   49.7450 O   0  0  0  0  0  0  0  0  0  0  0  0
   58.4530   30.9240   50.9780 N   0  0  0  0  0  0  0  0  0  0  0  0
   57.3740   31.8930   51.2470 C   0  0  0  0  0  0  0  0  0  0  0  0
   56.2300   31.2070   51.9960 C   0  0  0  0  0  0  0  0  0  0  0  0
   56.7190   30.5600   53.1550 O   0  0  0  0  0  0  0  0  0  0  0  0
   57.5450   29.4760   52.7740 C   0  0  0  0  0  0  0  0  0  0  0  0
   58.8010   29.9670   52.0440 C   0  0  0  0  0  0  0  0  0  0  0  0
   58.3860   32.0430   47.7960 C   0  0  0  0  0  0  0  0  0  0  0  0
   56.0870   29.2450   44.5390 S   0  0  0  0  0  0  0  0  0  0  0  0
   56.9830   28.0310   45.2940 C   0  0  0  0  0  0  0  0  0  0  0  0
   56.3990   26.7770   45.8070 C   0  0  0  0  0  0  0  0  0  0  0  0
   55.1520   26.7180   45.9990 O   0  0  0  0  0  0  0  0  0  0  0  0
   57.2410   25.6620   46.1470 N   0  0  0  0  0  0  0  0  0  0  0  0
   57.4010   24.4630   45.3760 C   0  0  0  0  0  0  0  0  0  0  0  0
   58.5570   23.6870   45.5650 C   0  0  0  0  0  0  0  0  0  0  0  0
   58.7460   22.5110   44.8320 C   0  0  0  0  0  0  0  0  0  0  0  0
   57.7920   22.1120   43.8890 C   0  0  0  0  0  0  0  0  0  0  0  0
   56.6470   22.8920   43.6770 C   0  0  0  0  0  0  0  0  0  0  0  0
   56.4480   24.0640   44.4150 C   0  0  0  0  0  0  0  0  0  0  0  0
   59.4062   27.6662   46.9916 H   0  0  0  0  0  0  0  0  0  0  0  0
   59.3625   26.5917   45.5528 H   0  0  0  0  0  0  0  0  0  0  0  0
   60.4106   28.0505   45.5528 H   0  0  0  0  0  0  0  0  0  0  0  0
   56.1661   31.7209   41.9570 H   0  0  0  0  0  0  0  0  0  0  0  0
   57.8329   32.3621   41.7637 H   0  0  0  0  0  0  0  0  0  0  0  0
   57.5471   30.5887   41.7637 H   0  0  0  0  0  0  0  0  0  0  0  0
   58.8166   35.0738   46.2740 H   0  0  0  0  0  0  0  0  0  0  0  0
   60.3069   35.4035   48.2397 H   0  0  0  0  0  0  0  0  0  0  0  0
   57.7686   32.7168   51.8600 H   0  0  0  0  0  0  0  0  0  0  0  0
   56.9958   32.2868   50.2921 H   0  0  0  0  0  0  0  0  0  0  0  0
   55.4845   31.9610   52.2888 H   0  0  0  0  0  0  0  0  0  0  0  0
   55.7693   30.4574   51.3358 H   0  0  0  0  0  0  0  0  0  0  0  0
   57.8470   28.9210   53.6744 H   0  0  0  0  0  0  0  0  0  0  0  0
   56.9763   28.8272   52.0916 H   0  0  0  0  0  0  0  0  0  0  0  0
   59.4673   30.4605   52.7669 H   0  0  0  0  0  0  0  0  0  0  0  0
   59.3017   29.1007   51.5871 H   0  0  0  0  0  0  0  0  0  0  0  0
   57.8748   31.0802   47.6485 H   0  0  0  0  0  0  0  0  0  0  0  0
   59.3172   24.0061   46.2932 H   0  0  0  0  0  0  0  0  0  0  0  0
   59.6452   21.8992   44.9968 H   0  0  0  0  0  0  0  0  0  0  0  0
   57.9408   21.1861   43.3141 H   0  0  0  0  0  0  0  0  0  0  0  0
   55.9029   22.5820   42.9285 H   0  0  0  0  0  0  0  0  0  0  0  0
   55.5486   24.6743   44.2460 H   0  0  0  0  0  0  0  0  0  0  0  0
  1  2  1  0
  2  3  1  0
  3  4  2  0
  4  5  1  0
  5  6  1  0
  5  7  1  0
  7  8  2  0
  7  9  1  0
  9 10  1  0
 10 11  2  0
 11 12  1  0
 12 13  2  0
 13 14  1  0
 13 15  1  0
 15 16  1  0
 16 17  2  0
 16 18  1  0
 18 19  1  0
 19 20  1  0
 20 21  1  0
 21 22  1  0
 22 23  1  0
 15 24  2  0
  4 25  1  0
 25 26  1  0
 26 27  1  0
 27 28  2  0
 27 29  1  0
 29 30  1  0
 30 31  2  0
 31 32  1  0
 32 33  2  0
 33 34  1  0
 34 35  2  0
 26  2  2  0
 35 30  1  0
 24 10  1  0
 23 18  1  0
  1 36  1  0
  1 37  1  0
  1 38  1  0
  6 39  1  0
  6 40  1  0
  6 41  1  0
 11 42  1  0
 12 43  1  0
 19 44  1  0
 19 45  1  0
 20 46  1  0
 20 47  1  0
 22 48  1  0
 22 49  1  0
 23 50  1  0
 23 51  1  0
 24 52  1  0
 31 53  1  0
 32 54  1  0
 33 55  1  0
 34 56  1  0
 35 57  1  0
M  CHG  2   9  -1  29  -1
M  END
>  <UniqueID>  (83) 
79

>  <SMILES>  (83) 
Cc1nc(N(C)C(=O)[N-]c2ccc(Cl)c(C(=O)N3CCOCC3)c2)sc1C(=O)[N-]c1ccccc1

>  <Energy>  (83) 
109.53595320161536

>  <Genealogy>  (83) 
Cc1nc(N(C)C(=O)[N-]c2ccc(Cl)c(C(=O)N3CCOCC3)c2)sc1C(=O)[N-]c1ccccc1 (protonated)
Cc1nc(N(C)C(=O)[N-]c2ccc(Cl)c(C(=O)N3CCOCC3)c2)sc1C(=O)[N-]c1ccccc1 (3D coordinates assigned)
Cc1nc(N(C)C(=O)[N-]c2ccc(Cl)c(C(=O)N3CCOCC3)c2)sc1C(=O)[N-]c1ccccc1 (nonaromatic ring conformer: 109.53595320161536 kcal/mol)

>  <smiles>  (83) 
Cc1nc(N(C)C(=O)Nc2ccc(Cl)c(C(=O)N3CCOCC3)c2)sc1C(=O)Nc1ccccc1

>  <score_type>  (83) 
oracle

>  <origin>  (83) 
adg

>  <m_score__min__energy>  (83) 
-12.960000000000001

>  <m_primary>  (83) 
energy

$$$$
83:0
     RDKit          3D

 49 52  0  0  0  0  0  0  0  0999 V2000
   59.1030   34.1530   47.4510 C   0  0  0  0  0  0  0  0  0  0  0  0
   59.7010   32.9880   47.1950 C   0  0  0  0  0  0  0  0  0  0  0  0
   60.5450   32.4450   48.0440 O   0  0  0  0  0  0  0  0  0  0  0  0
   60.8850   31.2530   47.6150 C   0  0  0  0  0  0  0  0  0  0  0  0
   60.2300   30.9830   46.4290 C   0  0  0  0  0  0  0  0  0  0  0  0
   60.4520   29.7580   45.5860 C   0  0  0  0  0  0  0  0  0  0  0  0
   59.3140   28.7880   45.7620 C   0  0  0  0  0  0  0  0  0  0  0  0
   58.7870   28.0930   44.6600 C   0  0  0  0  0  0  0  0  0  0  0  0
   57.7510   27.1720   44.8380 C   0  0  0  0  0  0  0  0  0  0  0  0
   57.2320   26.9270   46.1170 C   0  0  0  0  0  0  0  0  0  0  0  0
   56.1170   25.9840   46.3120 C   0  0  0  0  0  0  0  0  0  0  0  0
   54.9530   26.3410   45.9870 O   0  0  0  0  0  0  0  0  0  0  0  0
   56.3050   24.6790   46.8790 N   0  0  0  0  0  0  0  0  0  0  0  0
   56.8640   23.5160   46.1900 C   0  0  1  0  0  0  0  0  0  0  0  0
   55.9590   22.2800   46.3590 C   0  0  0  0  0  0  0  0  0  0  0  0
   56.3140   21.2680   45.2730 C   0  0  0  0  0  0  0  0  0  0  0  0
   56.8560   22.2350   43.8990 S   0  0  0  0  0  0  0  0  0  0  0  0
   55.8330   22.2650   42.8000 O   0  0  0  0  0  0  0  0  0  0  0  0
   58.1840   21.7640   43.3780 O   0  0  0  0  0  0  0  0  0  0  0  0
   56.9940   23.8090   44.6960 C   0  0  0  0  0  0  0  0  0  0  0  0
   57.7460   27.6340   47.2140 C   0  0  0  0  0  0  0  0  0  0  0  0
   58.7840   28.5510   47.0380 C   0  0  0  0  0  0  0  0  0  0  0  0
   59.5000   32.1240   46.1100 C   0  0  0  0  0  0  0  0  0  0  0  0
   58.8000   32.3000   44.9710 C   0  0  0  0  0  0  0  0  0  0  0  0
   57.7610   31.3880   44.4680 C   0  0  0  0  0  0  0  0  0  0  0  0
   56.9320   30.6700   45.2490 N   0  0  0  0  0  0  0  0  0  0  0  0
   56.0750   30.1150   44.3660 C   0  0  0  0  0  0  0  0  0  0  0  0
   55.1460   29.3450   44.7180 O   0  0  0  0  0  0  0  0  0  0  0  0
   56.2890   30.4560   43.0790 N   0  0  0  0  0  0  0  0  0  0  0  0
   57.3520   31.2750   43.1630 C   0  0  0  0  0  0  0  0  0  0  0  0
   57.9360   31.9110   42.0730 O   0  0  0  0  0  0  0  0  0  0  0  0
   58.4011   34.5830   46.7213 H   0  0  0  0  0  0  0  0  0  0  0  0
   59.3119   34.6834   48.3918 H   0  0  0  0  0  0  0  0  0  0  0  0
   61.5847   30.5724   48.1221 H   0  0  0  0  0  0  0  0  0  0  0  0
   60.5171   30.0526   44.5282 H   0  0  0  0  0  0  0  0  0  0  0  0
   61.3874   29.2723   45.9007 H   0  0  0  0  0  0  0  0  0  0  0  0
   59.1915   28.2747   43.6533 H   0  0  0  0  0  0  0  0  0  0  0  0
   57.3404   26.6362   43.9694 H   0  0  0  0  0  0  0  0  0  0  0  0
   57.8497   23.3100   46.6326 H   0  0  0  0  0  0  0  0  0  0  0  0
   56.1227   21.8330   47.3506 H   0  0  0  0  0  0  0  0  0  0  0  0
   54.9020   22.5718   46.2714 H   0  0  0  0  0  0  0  0  0  0  0  0
   57.1181   20.6002   45.6159 H   0  0  0  0  0  0  0  0  0  0  0  0
   55.4588   20.6269   45.0129 H   0  0  0  0  0  0  0  0  0  0  0  0
   57.9693   24.2680   44.4766 H   0  0  0  0  0  0  0  0  0  0  0  0
   56.2252   24.5144   44.3476 H   0  0  0  0  0  0  0  0  0  0  0  0
   57.3292   27.4651   48.2179 H   0  0  0  0  0  0  0  0  0  0  0  0
   59.1887   29.0912   47.9065 H   0  0  0  0  0  0  0  0  0  0  0  0
   59.0231   33.1949   44.3715 H   0  0  0  0  0  0  0  0  0  0  0  0
   58.7550   31.5170   41.6210 H   0  0  0  0  0  0  0  0  0  0  0  0
  1  2  2  0
  2  3  1  0
  3  4  1  0
  4  5  2  0
  5  6  1  0
  6  7  1  0
  7  8  2  0
  8  9  1  0
  9 10  2  0
 10 11  1  0
 11 12  2  0
 11 13  1  0
 13 14  1  0
 14 15  1  0
 15 16  1  0
 16 17  1  0
 17 18  2  0
 17 19  2  0
 17 20  1  0
 10 21  1  0
 21 22  2  0
  5 23  1  0
 23 24  2  3
 24 25  1  0
 25 26  1  0
 26 27  1  0
 27 28  2  0
 27 29  1  0
 29 30  1  0
 30 31  1  0
 23  2  1  0
 30 25  2  0
 22  7  1  0
 20 14  1  0
  1 32  1  0
  1 33  1  0
  4 34  1  0
  6 35  1  0
  6 36  1  0
  8 37  1  0
  9 38  1  0
 14 39  1  1
 15 40  1  0
 15 41  1  0
 16 42  1  0
 16 43  1  0
 20 44  1  0
 20 45  1  0
 21 46  1  0
 22 47  1  0
 24 48  1  0
 31 49  1  0
M  CHG  3  13  -1  26  -1  29  -1
M  END
>  <UniqueID>  (84) 
80

>  <SMILES>  (84) 
C=c1occ(Cc2ccc(C(=O)[N-][C@H]3CCS(=O)(=O)C3)cc2)c1=Cc1[n-]c(=O)[n-]c1O

>  <Energy>  (84) 
118.28065106509163

>  <Genealogy>  (84) 
C=c1occ(Cc2ccc(C(=O)[N-]C3CCS(=O)(=O)C3)cc2)c1=Cc1[n-]c(=O)[n-]c1O (protonated)
C=c1occ(Cc2ccc(C(=O)[N-][C@H]3CCS(=O)(=O)C3)cc2)c1=Cc1[n-]c(=O)[n-]c1O (chirality)
C=c1occ(Cc2ccc(C(=O)[N-][C@H]3CCS(=O)(=O)C3)cc2)c1=Cc1[n-]c(=O)[n-]c1O (3D coordinates assigned)
C=c1occ(Cc2ccc(C(=O)[N-][C@H]3CCS(=O)(=O)C3)cc2)c1=Cc1[n-]c(=O)[n-]c1O (nonaromatic ring conformer: 118.28065106509163 kcal/mol)

>  <smiles>  (84) 
C=c1occ(Cc2ccc(C(=O)NC3CCS(=O)(=O)C3)cc2)c1=Cc1[nH]c(=O)[nH]c1O

>  <score_type>  (84) 
oracle

>  <origin>  (84) 
adg

>  <m_score__min__energy>  (84) 
-14.869999999999999

>  <m_primary>  (84) 
energy

$$$$
84:0
     RDKit          3D

 45 47  0  0  0  0  0  0  0  0999 V2000
   67.6220   33.4190   50.5170 C   0  0  0  0  0  0  0  0  0  0  0  0
   66.6190   34.0140   51.4910 C   0  0  0  0  0  0  0  0  0  0  0  0
   65.4190   33.2450   51.4690 O   0  0  0  0  0  0  0  0  0  0  0  0
   64.4800   33.2710   50.4270 C   0  0  0  0  0  0  0  0  0  0  0  0
   63.3940   34.1650   50.4110 C   0  0  0  0  0  0  0  0  0  0  0  0
   62.4850   34.1510   49.3490 C   0  0  0  0  0  0  0  0  0  0  0  0
   62.6460   33.2520   48.2800 C   0  0  0  0  0  0  0  0  0  0  0  0
   61.6730   33.2410   47.1610 C   0  0  0  0  0  0  0  0  0  0  0  0
   61.9550   33.8400   46.0870 O   0  0  0  0  0  0  0  0  0  0  0  0
   60.4380   32.5120   47.2670 N   0  0  0  0  0  0  0  0  0  0  0  0
   59.2900   32.7630   46.4360 C   0  0  0  0  0  0  0  0  0  0  0  0
   58.8110   34.0660   46.2240 C   0  0  0  0  0  0  0  0  0  0  0  0
   57.6810   34.2820   45.4330 C   0  0  0  0  0  0  0  0  0  0  0  0
   57.0100   33.2020   44.8560 C   0  0  0  0  0  0  0  0  0  0  0  0
   57.4590   31.8870   45.0720 C   0  0  0  0  0  0  0  0  0  0  0  0
   56.7400   30.7400   44.4680 C   0  0  0  0  0  0  0  0  0  0  0  0
   56.4110   30.7750   43.2510 O   0  0  0  0  0  0  0  0  0  0  0  0
   56.4640   29.5710   45.2550 N   0  0  0  0  0  0  0  0  0  0  0  0
   57.3570   28.4740   45.5010 C   0  0  0  0  0  0  0  0  0  0  0  0
   58.7340   28.5500   45.2310 C   0  0  0  0  0  0  0  0  0  0  0  0
   59.5510   27.4420   45.4660 C   0  0  0  0  0  0  0  0  0  0  0  0
   58.9830   26.2640   45.9540 C   0  0  0  0  0  0  0  0  0  0  0  0
   57.6460   26.1990   46.1870 N   0  0  0  0  0  0  0  0  0  0  0  0
   56.8300   27.2640   45.9660 C   0  0  0  0  0  0  0  0  0  0  0  0
   58.5990   31.6780   45.8710 C   0  0  0  0  0  0  0  0  0  0  0  0
   63.7280   32.3550   48.3060 C   0  0  0  0  0  0  0  0  0  0  0  0
   64.6360   32.3690   49.3690 C   0  0  0  0  0  0  0  0  0  0  0  0
   68.4358   32.9362   51.0779 H   0  0  0  0  0  0  0  0  0  0  0  0
   67.1199   32.6726   49.8840 H   0  0  0  0  0  0  0  0  0  0  0  0
   68.0364   34.2175   49.8840 H   0  0  0  0  0  0  0  0  0  0  0  0
   67.0429   34.0025   52.5060 H   0  0  0  0  0  0  0  0  0  0  0  0
   66.3949   35.0503   51.1979 H   0  0  0  0  0  0  0  0  0  0  0  0
   63.2595   34.8781   51.2377 H   0  0  0  0  0  0  0  0  0  0  0  0
   61.6357   34.8500   49.3497 H   0  0  0  0  0  0  0  0  0  0  0  0
   60.4100   31.6820   47.9000 H   0  0  0  0  0  0  0  0  0  0  0  0
   59.3288   34.9208   46.6835 H   0  0  0  0  0  0  0  0  0  0  0  0
   57.3181   35.3065   45.2638 H   0  0  0  0  0  0  0  0  0  0  0  0
   56.1245   33.3809   44.2284 H   0  0  0  0  0  0  0  0  0  0  0  0
   59.1675   29.4803   44.8353 H   0  0  0  0  0  0  0  0  0  0  0  0
   60.6317   27.4971   45.2684 H   0  0  0  0  0  0  0  0  0  0  0  0
   59.6183   25.3877   46.1501 H   0  0  0  0  0  0  0  0  0  0  0  0
   55.7499   27.1739   46.1537 H   0  0  0  0  0  0  0  0  0  0  0  0
   58.9530   30.6529   46.0552 H   0  0  0  0  0  0  0  0  0  0  0  0
   63.8613   31.6366   47.4837 H   0  0  0  0  0  0  0  0  0  0  0  0
   65.4807   31.6644   49.3735 H   0  0  0  0  0  0  0  0  0  0  0  0
  1  2  1  0
  2  3  1  0
  3  4  1  0
  4  5  2  0
  5  6  1  0
  6  7  2  0
  7  8  1  0
  8  9  2  0
  8 10  1  0
 10 11  1  0
 11 12  2  0
 12 13  1  0
 13 14  2  0
 14 15  1  0
 15 16  1  0
 16 17  2  0
 16 18  1  0
 18 19  1  0
 19 20  2  0
 20 21  1  0
 21 22  2  0
 22 23  1  0
 23 24  2  0
 15 25  2  0
  7 26  1  0
 26 27  2  0
 27  4  1  0
 25 11  1  0
 24 19  1  0
  1 28  1  0
  1 29  1  0
  1 30  1  0
  2 31  1  0
  2 32  1  0
  5 33  1  0
  6 34  1  0
 10 35  1  0
 12 36  1  0
 13 37  1  0
 14 38  1  0
 20 39  1  0
 21 40  1  0
 22 41  1  0
 24 42  1  0
 25 43  1  0
 26 44  1  0
 27 45  1  0
M  CHG  1  18  -1
M  END
>  <UniqueID>  (85) 
81

>  <SMILES>  (85) 
CCOc1ccc(C(=O)Nc2cccc(C(=O)[N-]c3cccnc3)c2)cc1

>  <Energy>  (85) 
54.972762874923006

>  <Genealogy>  (85) 
CCOc1ccc(C(=O)Nc2cccc(C(=O)[N-]c3cccnc3)c2)cc1 (protonated)
CCOc1ccc(C(=O)Nc2cccc(C(=O)[N-]c3cccnc3)c2)cc1 (3D coordinates assigned)
CCOc1ccc(C(=O)Nc2cccc(C(=O)[N-]c3cccnc3)c2)cc1 (optimized conformer: 54.972762874923006 kcal/mol)

>  <smiles>  (85) 
CCOc1ccc(C(=O)Nc2cccc(C(=O)Nc3cccnc3)c2)cc1

>  <score_type>  (85) 
oracle

>  <origin>  (85) 
adg

>  <m_score__min__energy>  (85) 
-9.4199999999999999

>  <m_primary>  (85) 
energy

$$$$
85:0
     RDKit          3D

 52 55  0  0  0  0  0  0  0  0999 V2000
   51.4630   23.5440   45.1630 H   0  0  0  0  0  0  0  0  0  0  0  0
   52.3260   22.9560   45.1310 N   0  0  0  0  0  0  0  0  0  0  0  0
   53.5020   23.4740   45.2680 C   0  0  0  0  0  0  0  0  0  0  0  0
   53.6260   24.8010   45.5630 N   0  0  0  0  0  0  0  0  0  0  0  0
   54.8680   25.3270   45.7000 C   0  0  0  0  0  0  0  0  0  0  0  0
   55.9890   24.5770   45.5510 C   0  0  0  0  0  0  0  0  0  0  0  0
   55.8730   23.2190   45.2530 C   0  0  0  0  0  0  0  0  0  0  0  0
   57.0780   22.3520   45.0780 C   0  0  0  0  0  0  0  0  0  0  0  0
   57.4721   22.0684   46.0650 H   0  0  0  0  0  0  0  0  0  0  0  0
   56.7998   21.4457   44.5201 H   0  0  0  0  0  0  0  0  0  0  0  0
   57.8489   22.9038   44.5201 H   0  0  0  0  0  0  0  0  0  0  0  0
   54.6190   22.6970   45.1150 N   0  0  0  0  0  0  0  0  0  0  0  0
   57.1930   25.4260   45.7550 C   0  0  0  0  0  0  0  0  0  0  0  0
   57.7966   25.0631   46.6000 H   0  0  0  0  0  0  0  0  0  0  0  0
   57.8768   25.4309   44.8933 H   0  0  0  0  0  0  0  0  0  0  0  0
   56.5740   26.8220   46.0640 C   0  0  1  0  0  0  0  0  0  0  0  0
   56.9078   27.1793   47.0494 H   0  0  0  0  0  0  0  0  0  0  0  0
   57.0030   27.8660   45.0650 C   0  0  0  0  0  0  0  0  0  0  0  0
   57.8850   27.5750   44.2130 O   0  0  0  0  0  0  0  0  0  0  0  0
   56.3890   29.1610   45.0060 N   0  0  0  0  0  0  0  0  0  0  0  0
   56.8660   30.2980   44.2750 C   0  0  0  0  0  0  0  0  0  0  0  0
   56.6450   30.4280   42.8960 C   0  0  0  0  0  0  0  0  0  0  0  0
   56.1063   29.6392   42.3505 H   0  0  0  0  0  0  0  0  0  0  0  0
   57.1060   31.5540   42.2140 C   0  0  0  0  0  0  0  0  0  0  0  0
   56.9478   31.6402   41.1288 H   0  0  0  0  0  0  0  0  0  0  0  0
   57.7680   32.5730   42.9040 C   0  0  0  0  0  0  0  0  0  0  0  0
   58.1432   33.4506   42.3572 H   0  0  0  0  0  0  0  0  0  0  0  0
   57.9570   32.4810   44.2980 C   0  0  0  0  0  0  0  0  0  0  0  0
   58.6460   33.5380   45.0810 C   0  0  0  0  0  0  0  0  0  0  0  0
   58.8122   34.5143   44.6023 H   0  0  0  0  0  0  0  0  0  0  0  0
   59.0770   33.3680   46.3400 C   0  0  0  0  0  0  0  0  0  0  0  0
   60.1403   33.5365   46.5659 H   0  0  0  0  0  0  0  0  0  0  0  0
   58.1680   32.9610   47.4350 C   0  0  0  0  0  0  0  0  0  0  0  0
   57.0020   33.4360   47.4940 O   0  0  0  0  0  0  0  0  0  0  0  0
   58.5750   32.0240   48.4410 N   0  0  0  0  0  0  0  0  0  0  0  0
   59.8920   31.4030   48.5470 C   0  0  0  0  0  0  0  0  0  0  0  0
   60.6535   32.1072   48.1806 H   0  0  0  0  0  0  0  0  0  0  0  0
   60.0796   31.1511   49.6012 H   0  0  0  0  0  0  0  0  0  0  0  0
   59.9540   30.1380   47.7290 C   0  0  0  0  0  0  0  0  0  0  0  0
   59.5740   28.9120   48.2980 C   0  0  0  0  0  0  0  0  0  0  0  0
   59.2342   28.8750   49.3435 H   0  0  0  0  0  0  0  0  0  0  0  0
   59.6260   27.7370   47.5400 C   0  0  0  0  0  0  0  0  0  0  0  0
   59.3326   26.7783   47.9926 H   0  0  0  0  0  0  0  0  0  0  0  0
   60.0500   27.7790   46.2090 C   0  0  0  0  0  0  0  0  0  0  0  0
   60.0940   26.8536   45.6160 H   0  0  0  0  0  0  0  0  0  0  0  0
   60.4180   28.9970   45.6320 C   0  0  0  0  0  0  0  0  0  0  0  0
   60.7493   29.0299   44.5836 H   0  0  0  0  0  0  0  0  0  0  0  0
   60.3660   30.1750   46.3850 C   0  0  0  0  0  0  0  0  0  0  0  0
   60.6483   31.1331   45.9243 H   0  0  0  0  0  0  0  0  0  0  0  0
   57.5020   31.3340   44.9700 C   0  0  0  0  0  0  0  0  0  0  0  0
   57.6474   31.2487   46.0570 H   0  0  0  0  0  0  0  0  0  0  0  0
   55.1560   26.6400   45.9920 O   0  0  0  0  0  0  0  0  0  0  0  0
  1  2  1  0
  2  3  2  0
  3  4  1  0
  4  5  2  0
  5  6  1  0
  6  7  2  0
  7  8  1  0
  8  9  1  0
  8 10  1  0
  8 11  1  0
  7 12  1  0
  6 13  1  0
 13 14  1  0
 13 15  1  0
 13 16  1  0
 16 17  1  1
 16 18  1  0
 18 19  2  0
 18 20  1  0
 20 21  1  0
 21 22  2  0
 22 23  1  0
 22 24  1  0
 24 25  1  0
 24 26  2  0
 26 27  1  0
 26 28  1  0
 28 29  1  0
 29 30  1  0
 29 31  2  0
 31 32  1  0
 31 33  1  0
 33 34  2  0
 33 35  1  0
 35 36  1  0
 36 37  1  0
 36 38  1  0
 36 39  1  0
 39 40  2  0
 40 41  1  0
 40 42  1  0
 42 43  1  0
 42 44  2  0
 44 45  1  0
 44 46  1  0
 46 47  1  0
 46 48  2  0
 48 49  1  0
 28 50  2  0
 50 51  1  0
 16 52  1  0
 12  3  1  0
 50 21  1  0
 52  5  1  0
 48 39  1  0
M  CHG  3  12  -1  20  -1  35  -1
M  END
>  <UniqueID>  (86) 
82

>  <SMILES>  (86) 
[H]/N=c1/nc2c(c(C)[n-]1)C[C@@H](C(=O)[N-]c1cccc(/C=C/C(=O)[N-]Cc3ccccc3)c1)O2

>  <Energy>  (86) 
77.51560076875262

>  <Genealogy>  (86) 
Cc1[n-]c(=N)nc2c1CC(C(=O)[N-]c1cccc(C=CC(=O)[N-]Cc3ccccc3)c1)O2 (protonated)
Cc1[n-]c(=N)nc2c1C[C@@H](C(=O)[N-]c1cccc(C=CC(=O)[N-]Cc3ccccc3)c1)O2 (chirality)
[H]/N=c1/nc2c(c(C)[n-]1)C[C@@H](C(=O)[N-]c1cccc(/C=C/C(=O)[N-]Cc3ccccc3)c1)O2 (cis-trans isomerization)
[H]/N=c1/nc2c(c(C)[n-]1)C[C@@H](C(=O)[N-]c1cccc(/C=C/C(=O)[N-]Cc3ccccc3)c1)O2 (3D coordinates assigned)
[H]/N=c1/nc2c(c(C)[n-]1)C[C@@H](C(=O)[N-]c1cccc(/C=C/C(=O)[N-]Cc3ccccc3)c1)O2 (nonaromatic ring conformer: 77.51560076875262 kcal/mol)

>  <smiles>  (86) 
Cc1[nH]c(=N)nc2c1CC(C(=O)Nc1cccc(C=CC(=O)NCc3ccccc3)c1)O2

>  <score_type>  (86) 
oracle

>  <origin>  (86) 
adg

>  <m_score__min__energy>  (86) 
-13.65

>  <m_primary>  (86) 
energy

$$$$
86:0
     RDKit          3D

 36 37  0  0  0  0  0  0  0  0999 V2000
   56.3744   31.4554   43.0926 H   0  0  0  0  0  0  0  0  0  0  0  0
   56.5270   30.3920   42.8560 C   0  0  0  0  0  0  0  0  0  0  0  0
   56.1949   29.9910   41.8870 H   0  0  0  0  0  0  0  0  0  0  0  0
   57.1160   29.5870   43.7460 C   0  0  0  0  0  0  0  0  0  0  0  0
   57.6040   29.8860   45.0200 C   0  0  0  0  0  0  0  0  0  0  0  0
   57.5970   31.1060   45.7200 O   0  0  0  0  0  0  0  0  0  0  0  0
   57.9640   32.3840   45.2200 C   0  0  0  0  0  0  0  0  0  0  0  0
   58.1595   33.0647   46.0617 H   0  0  0  0  0  0  0  0  0  0  0  0
   58.8716   32.2905   44.6056 H   0  0  0  0  0  0  0  0  0  0  0  0
   57.1451   32.7863   44.6056 H   0  0  0  0  0  0  0  0  0  0  0  0
   58.1560   28.7110   45.5500 C   0  0  0  0  0  0  0  0  0  0  0  0
   59.2120   28.7250   46.6880 C   0  0  0  0  0  0  0  0  0  0  0  0
   58.5770   29.2760   47.9820 C   0  0  0  0  0  0  0  0  0  0  0  0
   59.0830   28.8370   48.8545 H   0  0  0  0  0  0  0  0  0  0  0  0
   58.6863   30.3703   48.0070 H   0  0  0  0  0  0  0  0  0  0  0  0
   57.5091   29.0135   48.0070 H   0  0  0  0  0  0  0  0  0  0  0  0
   59.8370   27.3450   47.0020 C   0  0  0  0  0  0  0  0  0  0  0  0
   59.8983   27.2097   48.0919 H   0  0  0  0  0  0  0  0  0  0  0  0
   59.2104   26.5515   46.5687 H   0  0  0  0  0  0  0  0  0  0  0  0
   60.8467   27.2926   46.5687 H   0  0  0  0  0  0  0  0  0  0  0  0
   60.3900   29.6460   46.2760 C   0  0  0  0  0  0  0  0  0  0  0  0
   60.8855   30.0334   47.1784 H   0  0  0  0  0  0  0  0  0  0  0  0
   61.1132   29.0713   45.6787 H   0  0  0  0  0  0  0  0  0  0  0  0
   60.0068   30.4864   45.6787 H   0  0  0  0  0  0  0  0  0  0  0  0
   57.8660   27.7200   44.5840 C   0  0  0  0  0  0  0  0  0  0  0  0
   57.9320   26.3800   44.6820 C   0  0  0  0  0  0  0  0  0  0  0  0
   58.4744   25.8355   43.8951 H   0  0  0  0  0  0  0  0  0  0  0  0
   57.3300   25.5930   45.7670 C   0  0  0  0  0  0  0  0  0  0  0  0
   57.8970   24.4910   46.2870 N   0  0  0  0  0  0  0  0  0  0  0  0
   56.9690   24.0420   47.1590 C   0  0  0  0  0  0  0  0  0  0  0  0
   57.1430   23.0170   47.8670 O   0  0  0  0  0  0  0  0  0  0  0  0
   55.8330   24.7720   47.2040 N   0  0  0  0  0  0  0  0  0  0  0  0
   56.0720   25.7420   46.3070 C   0  0  0  0  0  0  0  0  0  0  0  0
   55.1420   26.7130   45.9570 O   0  0  0  0  0  0  0  0  0  0  0  0
   57.3180   28.2840   43.4900 N   0  0  0  0  0  0  0  0  0  0  0  0
   57.0020   27.7760   42.6300 H   0  0  0  0  0  0  0  0  0  0  0  0
  1  2  1  0
  2  3  1  0
  2  4  2  0
  4  5  1  0
  5  6  1  0
  6  7  1  0
  7  8  1  0
  7  9  1  0
  7 10  1  0
  5 11  2  0
 11 12  1  0
 12 13  1  0
 13 14  1  0
 13 15  1  0
 13 16  1  0
 12 17  1  0
 17 18  1  0
 17 19  1  0
 17 20  1  0
 12 21  1  0
 21 22  1  0
 21 23  1  0
 21 24  1  0
 11 25  1  0
 25 26  2  0
 26 27  1  0
 26 28  1  0
 28 29  1  0
 29 30  1  0
 30 31  2  0
 30 32  1  0
 32 33  1  0
 33 34  1  0
 25 35  1  0
 35 36  1  0
 35  4  1  0
 33 28  2  0
M  CHG  3  29  -1  32  -1  34  -1
M  END
>  <UniqueID>  (87) 
83

>  <SMILES>  (87) 
C=c1[nH]/c(=C/c2[n-]c(=O)[n-]c2[O-])c(C(C)(C)C)c1OC

>  <Energy>  (87) 
120.83491660548746

>  <Genealogy>  (87) 
C=c1[nH]c(=Cc2[n-]c(=O)[n-]c2[O-])c(C(C)(C)C)c1OC (protonated)
C=c1[nH]/c(=C/c2[n-]c(=O)[n-]c2[O-])c(C(C)(C)C)c1OC (cis-trans isomerization)
C=c1[nH]/c(=C/c2[n-]c(=O)[n-]c2[O-])c(C(C)(C)C)c1OC (3D coordinates assigned)
C=c1[nH]/c(=C/c2[n-]c(=O)[n-]c2[O-])c(C(C)(C)C)c1OC (optimized conformer: 120.83491660548746 kcal/mol)

>  <smiles>  (87) 
C=c1[nH]c(=Cc2[nH]c(=O)[nH]c2O)c(C(C)(C)C)c1OC

>  <score_type>  (87) 
oracle

>  <origin>  (87) 
adg

>  <m_score__min__energy>  (87) 
-15.4

>  <m_primary>  (87) 
energy

$$$$
87:0
     RDKit          3D

 50 53  0  0  0  0  0  0  0  0999 V2000
   65.2813   31.4853   51.5785 H   0  0  0  0  0  0  0  0  0  0  0  0
   64.4260   31.3730   50.8960 C   0  0  0  0  0  0  0  0  0  0  0  0
   64.3800   32.0890   49.7420 N   0  0  0  0  0  0  0  0  0  0  0  0
   63.3510   31.9810   48.8580 C   0  0  0  0  0  0  0  0  0  0  0  0
   63.3890   32.7090   47.7760 N   0  0  0  0  0  0  0  0  0  0  0  0
   62.2820   33.2080   47.0110 C   0  0  0  0  0  0  0  0  0  0  0  0
   62.4480   34.2420   46.3090 O   0  0  0  0  0  0  0  0  0  0  0  0
   61.0540   32.4670   46.9250 N   0  0  0  0  0  0  0  0  0  0  0  0
   61.0870   31.4460   47.1470 H   0  0  0  0  0  0  0  0  0  0  0  0
   59.8090   33.0220   46.4660 C   0  0  0  0  0  0  0  0  0  0  0  0
   59.8120   33.9370   45.4020 C   0  0  0  0  0  0  0  0  0  0  0  0
   60.7660   34.2428   44.9476 H   0  0  0  0  0  0  0  0  0  0  0  0
   58.6110   34.4630   44.9150 C   0  0  0  0  0  0  0  0  0  0  0  0
   58.6237   35.1862   44.0863 H   0  0  0  0  0  0  0  0  0  0  0  0
   57.3940   34.0700   45.4810 C   0  0  0  0  0  0  0  0  0  0  0  0
   56.4503   34.4895   45.1023 H   0  0  0  0  0  0  0  0  0  0  0  0
   57.3770   33.1450   46.5270 C   0  0  0  0  0  0  0  0  0  0  0  0
   56.4187   32.8315   46.9667 H   0  0  0  0  0  0  0  0  0  0  0  0
   58.5760   32.6160   47.0170 C   0  0  0  0  0  0  0  0  0  0  0  0
   58.5568   31.8808   47.8350 H   0  0  0  0  0  0  0  0  0  0  0  0
   62.2730   31.1230   49.1660 C   0  0  0  0  0  0  0  0  0  0  0  0
   61.4221   31.0369   48.4742 H   0  0  0  0  0  0  0  0  0  0  0  0
   62.2890   30.3830   50.3520 C   0  0  0  0  0  0  0  0  0  0  0  0
   61.2170   29.5160   50.6200 O   0  0  0  0  0  0  0  0  0  0  0  0
   60.4000   28.9130   49.6530 C   0  0  0  0  0  0  0  0  0  0  0  0
   59.3180   29.5920   49.0670 C   0  0  0  0  0  0  0  0  0  0  0  0
   59.0921   30.6254   49.3687 H   0  0  0  0  0  0  0  0  0  0  0  0
   58.5270   28.9600   48.1020 C   0  0  0  0  0  0  0  0  0  0  0  0
   57.6813   29.4979   47.6487 H   0  0  0  0  0  0  0  0  0  0  0  0
   58.8090   27.6390   47.7090 C   0  0  0  0  0  0  0  0  0  0  0  0
   58.0420   26.9590   46.7030 N   0  0  0  0  0  0  0  0  0  0  0  0
   56.9300   27.4810   45.9630 C   0  0  0  0  0  0  0  0  0  0  0  0
   55.8230   26.8710   45.9690 O   0  0  0  0  0  0  0  0  0  0  0  0
   57.0940   28.7060   45.1440 C   0  0  0  0  0  0  0  0  0  0  0  0
   58.3750   29.2470   44.9190 C   0  0  0  0  0  0  0  0  0  0  0  0
   59.2601   28.7552   45.3489 H   0  0  0  0  0  0  0  0  0  0  0  0
   58.5270   30.4060   44.1520 C   0  0  0  0  0  0  0  0  0  0  0  0
   59.5306   30.8236   43.9832 H   0  0  0  0  0  0  0  0  0  0  0  0
   57.4090   31.0360   43.5990 C   0  0  0  0  0  0  0  0  0  0  0  0
   57.5329   31.9488   42.9978 H   0  0  0  0  0  0  0  0  0  0  0  0
   56.1340   30.5060   43.8100 C   0  0  0  0  0  0  0  0  0  0  0  0
   55.2548   30.9990   43.3695 H   0  0  0  0  0  0  0  0  0  0  0  0
   55.9730   29.3500   44.5800 C   0  0  0  0  0  0  0  0  0  0  0  0
   54.9659   28.9403   44.7469 H   0  0  0  0  0  0  0  0  0  0  0  0
   59.9150   26.9830   48.2620 C   0  0  0  0  0  0  0  0  0  0  0  0
   60.1651   25.9633   47.9339 H   0  0  0  0  0  0  0  0  0  0  0  0
   60.7040   27.6140   49.2280 C   0  0  0  0  0  0  0  0  0  0  0  0
   61.5690   27.0869   49.6569 H   0  0  0  0  0  0  0  0  0  0  0  0
   63.3900   30.4960   51.2160 C   0  0  0  0  0  0  0  0  0  0  0  0
   63.4350   29.8976   52.1379 H   0  0  0  0  0  0  0  0  0  0  0  0
  1  2  1  0
  2  3  1  0
  3  4  1  0
  4  5  2  0
  5  6  1  0
  6  7  2  0
  6  8  1  0
  8  9  1  0
  8 10  1  0
 10 11  2  0
 11 12  1  0
 11 13  1  0
 13 14  1  0
 13 15  2  0
 15 16  1  0
 15 17  1  0
 17 18  1  0
 17 19  2  0
 19 20  1  0
  4 21  1  0
 21 22  1  0
 21 23  2  0
 23 24  1  0
 24 25  1  0
 25 26  2  0
 26 27  1  0
 26 28  1  0
 28 29  1  0
 28 30  2  0
 30 31  1  0
 31 32  1  0
 32 33  2  0
 32 34  1  0
 34 35  2  0
 35 36  1  0
 35 37  1  0
 37 38  1  0
 37 39  2  0
 39 40  1  0
 39 41  1  0
 41 42  1  0
 41 43  2  0
 43 44  1  0
 30 45  1  0
 45 46  1  0
 45 47  2  0
 47 48  1  0
 23 49  1  0
 49 50  1  0
 49  2  2  0
 19 10  1  0
 47 25  1  0
 43 34  1  0
M  CHG  2   3  -1  31  -1
M  END
>  <UniqueID>  (88) 
84

>  <SMILES>  (88) 
O=C(/N=c1\cc(Oc2ccc([N-]C(=O)c3ccccc3)cc2)cc[n-]1)Nc1ccccc1

>  <Energy>  (88) 
77.64960108046756

>  <Genealogy>  (88) 
O=C(N=c1cc(Oc2ccc([N-]C(=O)c3ccccc3)cc2)cc[n-]1)Nc1ccccc1 (protonated)
O=C(/N=c1\cc(Oc2ccc([N-]C(=O)c3ccccc3)cc2)cc[n-]1)Nc1ccccc1 (cis-trans isomerization)
O=C(/N=c1\cc(Oc2ccc([N-]C(=O)c3ccccc3)cc2)cc[n-]1)Nc1ccccc1 (3D coordinates assigned)
O=C(/N=c1\cc(Oc2ccc([N-]C(=O)c3ccccc3)cc2)cc[n-]1)Nc1ccccc1 (optimized conformer: 77.64960108046756 kcal/mol)

>  <smiles>  (88) 
O=C(N=c1cc(Oc2ccc(NC(=O)c3ccccc3)cc2)cc[nH]1)Nc1ccccc1

>  <score_type>  (88) 
oracle

>  <origin>  (88) 
adg

>  <m_score__min__energy>  (88) 
-11.09

>  <m_primary>  (88) 
energy

$$$$
88:0
     RDKit          3D

 43 46  0  0  0  0  0  0  0  0999 V2000
   66.3910   32.4980   50.1270 C   0  0  0  0  0  0  0  0  0  0  0  0
   65.3230   33.4840   50.2630 N   0  0  0  0  0  0  0  0  0  0  0  0
   64.1000   33.4430   49.5060 C   0  0  0  0  0  0  0  0  0  0  0  0
   64.0610   32.7240   48.3030 C   0  0  0  0  0  0  0  0  0  0  0  0
   62.8890   32.6660   47.5450 C   0  0  0  0  0  0  0  0  0  0  0  0
   61.7270   33.3290   47.9750 C   0  0  0  0  0  0  0  0  0  0  0  0
   60.4790   33.2680   47.1720 C   0  0  0  0  0  0  0  0  0  0  0  0
   59.8090   34.4620   46.7930 C   0  0  0  0  0  0  0  0  0  0  0  0
   58.6350   34.4170   46.0200 C   0  0  0  0  0  0  0  0  0  0  0  0
   58.1480   33.1680   45.6500 C   0  0  0  0  0  0  0  0  0  0  0  0
   57.0650   32.9070   44.8940 N   0  0  0  0  0  0  0  0  0  0  0  0
   57.0710   31.5520   44.8320 C   0  0  0  0  0  0  0  0  0  0  0  0
   56.1880   30.8980   44.2140 O   0  0  0  0  0  0  0  0  0  0  0  0
   58.0930   30.9690   45.5090 N   0  0  0  0  0  0  0  0  0  0  0  0
   58.3690   29.5630   45.6450 C   0  0  0  0  0  0  0  0  0  0  0  0
   59.6790   29.0810   45.5020 C   0  0  0  0  0  0  0  0  0  0  0  0
   59.9470   27.7190   45.6430 C   0  0  0  0  0  0  0  0  0  0  0  0
   58.9120   26.8260   45.9320 C   0  0  0  0  0  0  0  0  0  0  0  0
   57.5930   27.2890   46.0870 C   0  0  0  0  0  0  0  0  0  0  0  0
   56.4960   26.3410   46.3960 C   0  0  0  0  0  0  0  0  0  0  0  0
   55.1500   26.6480   46.0370 N   0  0  0  0  0  0  0  0  0  0  0  0
   56.7420   25.2520   46.9820 O   0  0  0  0  0  0  0  0  0  0  0  0
   57.3330   28.6650   45.9440 C   0  0  0  0  0  0  0  0  0  0  0  0
   58.7710   32.0110   46.0220 C   0  0  0  0  0  0  0  0  0  0  0  0
   59.9500   32.0170   46.7710 C   0  0  0  0  0  0  0  0  0  0  0  0
   61.7650   34.0510   49.1810 C   0  0  0  0  0  0  0  0  0  0  0  0
   62.9380   34.1090   49.9390 C   0  0  0  0  0  0  0  0  0  0  0  0
   66.7302   32.1848   51.1254 H   0  0  0  0  0  0  0  0  0  0  0  0
   66.0145   31.6232   49.5766 H   0  0  0  0  0  0  0  0  0  0  0  0
   67.2330   32.9430   49.5766 H   0  0  0  0  0  0  0  0  0  0  0  0
   65.4660   34.2580   50.9510 H   0  0  0  0  0  0  0  0  0  0  0  0
   64.9625   32.2002   47.9524 H   0  0  0  0  0  0  0  0  0  0  0  0
   62.8756   32.0967   46.6039 H   0  0  0  0  0  0  0  0  0  0  0  0
   60.2140   35.4349   47.1084 H   0  0  0  0  0  0  0  0  0  0  0  0
   58.1186   35.3400   45.7178 H   0  0  0  0  0  0  0  0  0  0  0  0
   60.4982   29.7800   45.2778 H   0  0  0  0  0  0  0  0  0  0  0  0
   60.9757   27.3473   45.5263 H   0  0  0  0  0  0  0  0  0  0  0  0
   59.1303   25.7532   46.0391 H   0  0  0  0  0  0  0  0  0  0  0  0
   54.4950   27.0770   46.7290 H   0  0  0  0  0  0  0  0  0  0  0  0
   56.3065   29.0404   46.0680 H   0  0  0  0  0  0  0  0  0  0  0  0
   60.4532   31.0770   47.0416 H   0  0  0  0  0  0  0  0  0  0  0  0
   60.8634   34.5750   49.5311 H   0  0  0  0  0  0  0  0  0  0  0  0
   62.9531   34.6787   50.8798 H   0  0  0  0  0  0  0  0  0  0  0  0
  1  2  1  0
  2  3  1  0
  3  4  2  0
  4  5  1  0
  5  6  2  0
  6  7  1  0
  7  8  2  0
  8  9  1  0
  9 10  2  0
 10 11  1  0
 11 12  1  0
 12 13  2  0
 12 14  1  0
 14 15  1  0
 15 16  2  0
 16 17  1  0
 17 18  2  0
 18 19  1  0
 19 20  1  0
 20 21  1  0
 20 22  2  0
 19 23  2  0
 14 24  1  0
 24 25  2  0
  6 26  1  0
 26 27  2  0
 27  3  1  0
 25  7  1  0
 24 10  1  0
 23 15  1  0
  1 28  1  0
  1 29  1  0
  1 30  1  0
  2 31  1  0
  4 32  1  0
  5 33  1  0
  8 34  1  0
  9 35  1  0
 16 36  1  0
 17 37  1  0
 18 38  1  0
 21 39  1  0
 23 40  1  0
 25 41  1  0
 26 42  1  0
 27 43  1  0
M  CHG  2  11  -1  21  -1
M  END
>  <UniqueID>  (89) 
85

>  <SMILES>  (89) 
CNc1ccc(-c2ccc3[n-]c(=O)n(-c4cccc(C([NH-])=O)c4)c3c2)cc1

>  <Energy>  (89) 
95.95726227401694

>  <Genealogy>  (89) 
CNc1ccc(-c2ccc3[n-]c(=O)n(-c4cccc(C([NH-])=O)c4)c3c2)cc1 (protonated)
CNc1ccc(-c2ccc3[n-]c(=O)n(-c4cccc(C([NH-])=O)c4)c3c2)cc1 (3D coordinates assigned)
CNc1ccc(-c2ccc3[n-]c(=O)n(-c4cccc(C([NH-])=O)c4)c3c2)cc1 (optimized conformer: 95.95726227401694 kcal/mol)

>  <smiles>  (89) 
CNc1ccc(-c2ccc3[nH]c(=O)n(-c4cccc(C(N)=O)c4)c3c2)cc1

>  <score_type>  (89) 
oracle

>  <origin>  (89) 
adg

>  <m_score__min__energy>  (89) 
-14.460000000000001

>  <m_primary>  (89) 
energy

$$$$
89:0
     RDKit          3D

 34 36  0  0  0  0  0  0  0  0999 V2000
   52.6340   27.2330   52.3310 H   0  0  0  0  0  0  0  0  0  0  0  0
   52.2210   28.0400   52.7800 O   0  0  0  0  0  0  0  0  0  0  0  0
   52.4920   29.3440   52.3700 C   0  0  0  0  0  0  0  0  0  0  0  0
   51.4330   30.1920   51.9970 C   0  0  0  0  0  0  0  0  0  0  0  0
   50.3987   29.8191   52.0309 H   0  0  0  0  0  0  0  0  0  0  0  0
   51.6850   31.5160   51.5800 C   0  0  0  0  0  0  0  0  0  0  0  0
   50.6280   32.3390   51.2140 O   0  0  0  0  0  0  0  0  0  0  0  0
   53.0010   32.0070   51.5300 C   0  0  0  0  0  0  0  0  0  0  0  0
   53.2060   33.0375   51.2042 H   0  0  0  0  0  0  0  0  0  0  0  0
   54.0390   31.1570   51.9030 C   0  0  0  0  0  0  0  0  0  0  0  0
   53.7950   29.8590   52.3120 C   0  0  0  0  0  0  0  0  0  0  0  0
   55.0930   29.2750   52.6200 C   0  0  0  0  0  0  0  0  0  0  0  0
   55.3290   28.1080   53.0300 O   0  0  0  0  0  0  0  0  0  0  0  0
   56.0740   30.3250   52.3530 C   0  0  0  0  0  0  0  0  0  0  0  0
   57.3980   30.2260   52.5240 C   0  0  0  0  0  0  0  0  0  0  0  0
   57.7675   29.5727   53.3282 H   0  0  0  0  0  0  0  0  0  0  0  0
   58.3950   30.9420   51.6970 C   0  0  0  0  0  0  0  0  0  0  0  0
   59.4990   30.2320   51.2030 C   0  0  0  0  0  0  0  0  0  0  0  0
   59.6157   29.1658   51.4473 H   0  0  0  0  0  0  0  0  0  0  0  0
   60.4520   30.8680   50.4030 C   0  0  0  0  0  0  0  0  0  0  0  0
   61.3277   30.3069   50.0447 H   0  0  0  0  0  0  0  0  0  0  0  0
   60.2980   32.2190   50.0540 C   0  0  0  0  0  0  0  0  0  0  0  0
   61.2710   32.9100   49.2580 N   0  0  0  0  0  0  0  0  0  0  0  0
   62.5380   32.4010   48.8220 C   0  0  0  0  0  0  0  0  0  0  0  0
   63.1930   31.6540   49.5940 O   0  0  0  0  0  0  0  0  0  0  0  0
   63.1290   32.7670   47.4940 C   0  0  0  0  0  0  0  0  0  0  0  0
   64.0547   33.3403   47.6501 H   0  0  0  0  0  0  0  0  0  0  0  0
   63.3559   31.8511   46.9287 H   0  0  0  0  0  0  0  0  0  0  0  0
   62.4101   33.3782   46.9287 H   0  0  0  0  0  0  0  0  0  0  0  0
   59.2000   32.9310   50.5490 C   0  0  0  0  0  0  0  0  0  0  0  0
   59.0872   33.9978   50.3058 H   0  0  0  0  0  0  0  0  0  0  0  0
   58.2450   32.2980   51.3500 C   0  0  0  0  0  0  0  0  0  0  0  0
   57.3723   32.8621   51.7108 H   0  0  0  0  0  0  0  0  0  0  0  0
   55.3970   31.4660   51.9200 O   0  0  0  0  0  0  0  0  0  0  0  0
  1  2  1  0
  2  3  1  0
  3  4  2  0
  4  5  1  0
  4  6  1  0
  6  7  1  0
  6  8  2  0
  8  9  1  0
  8 10  1  0
 10 11  2  0
 11 12  1  0
 12 13  2  0
 12 14  1  0
 14 15  2  0
 15 16  1  0
 15 17  1  0
 17 18  2  0
 18 19  1  0
 18 20  1  0
 20 21  1  0
 20 22  2  0
 22 23  1  0
 23 24  1  0
 24 25  2  0
 24 26  1  0
 26 27  1  0
 26 28  1  0
 26 29  1  0
 22 30  1  0
 30 31  1  0
 30 32  2  0
 32 33  1  0
 14 34  1  0
 11  3  1  0
 32 17  1  0
 34 10  1  0
M  CHG  2   7  -1  23  -1
M  END
>  <UniqueID>  (90) 
86

>  <SMILES>  (90) 
CC(=O)[N-]c1ccc(/C=C2\Oc3cc([O-])cc(O)c3C2=O)cc1

>  <Energy>  (90) 
75.60231667565083

>  <Genealogy>  (90) 
CC(=O)[N-]c1ccc(C=C2Oc3cc([O-])cc(O)c3C2=O)cc1 (protonated)
CC(=O)[N-]c1ccc(/C=C2\Oc3cc([O-])cc(O)c3C2=O)cc1 (cis-trans isomerization)
CC(=O)[N-]c1ccc(/C=C2\Oc3cc([O-])cc(O)c3C2=O)cc1 (3D coordinates assigned)
CC(=O)[N-]c1ccc(/C=C2\Oc3cc([O-])cc(O)c3C2=O)cc1 (nonaromatic ring conformer: 75.60231667565083 kcal/mol)

>  <smiles>  (90) 
CC(=O)Nc1ccc(C=C2Oc3cc(O)cc(O)c3C2=O)cc1

>  <score_type>  (90) 
oracle

>  <origin>  (90) 
adg

>  <m_score__min__energy>  (90) 
-10.48

>  <m_primary>  (90) 
energy

$$$$
90:0
     RDKit          3D

 60 62  0  0  0  0  0  0  0  0999 V2000
   61.3890   31.3380   47.1860 C   0  0  0  0  0  0  0  0  0  0  0  0
   62.0460   32.5590   47.6700 N   0  0  0  0  0  0  0  0  0  0  0  0
   63.3970   32.8920   47.2090 C   0  0  0  0  0  0  0  0  0  0  0  0
   61.3800   33.4550   48.5870 C   0  0  0  0  0  0  0  0  0  0  0  0
   61.8910   34.5850   48.8190 O   0  0  0  0  0  0  0  0  0  0  0  0
   60.0910   33.0880   49.2270 C   0  0  0  0  0  0  0  0  0  0  0  0
   58.8930   33.0700   48.6190 C   0  0  0  0  0  0  0  0  0  0  0  0
   58.6550   33.3370   47.1860 C   0  0  0  0  0  0  0  0  0  0  0  0
   59.0960   34.5480   46.6380 C   0  0  0  0  0  0  0  0  0  0  0  0
   58.8990   34.8210   45.2840 C   0  0  0  0  0  0  0  0  0  0  0  0
   58.2840   33.8770   44.4590 C   0  0  0  0  0  0  0  0  0  0  0  0
   57.8810   32.6360   44.9790 C   0  0  0  0  0  0  0  0  0  0  0  0
   57.2410   31.6390   44.0900 C   0  0  0  0  0  0  0  0  0  0  0  0
   57.4080   31.7330   42.8450 O   0  0  0  0  0  0  0  0  0  0  0  0
   56.3950   30.5880   44.5870 N   0  0  0  0  0  0  0  0  0  0  0  0
   56.7890   29.4630   45.1120 C   0  0  0  0  0  0  0  0  0  0  0  0
   58.1030   29.3460   45.5800 C   0  0  0  0  0  0  0  0  0  0  0  0
   58.5330   28.1370   46.1250 C   0  0  0  0  0  0  0  0  0  0  0  0
   57.6620   27.0420   46.1720 C   0  0  0  0  0  0  0  0  0  0  0  0
   58.1080   25.7450   46.6960 C   0  0  0  0  0  0  0  0  0  0  0  0
   59.2530   25.6710   47.2140 O   0  0  0  0  0  0  0  0  0  0  0  0
   57.2790   24.5690   46.6860 N   0  0  0  0  0  0  0  0  0  0  0  0
   57.5620   23.2200   46.1760 C   0  0  1  0  0  0  0  0  0  0  0  0
   56.2860   22.4290   45.8530 C   0  0  0  0  0  0  0  0  0  0  0  0
   56.6410   21.0370   45.3100 C   0  0  0  0  0  0  0  0  0  0  0  0
   57.5500   21.0940   44.1420 N   0  0  1  0  0  0  0  0  0  0  0  0
   56.8810   21.6050   42.9300 C   0  0  0  0  0  0  0  0  0  0  0  0
   58.7940   21.8390   44.4510 C   0  0  0  0  0  0  0  0  0  0  0  0
   58.5250   23.2580   44.9840 C   0  0  0  0  0  0  0  0  0  0  0  0
   56.3330   27.2200   45.7690 C   0  0  0  0  0  0  0  0  0  0  0  0
   55.9350   28.4090   45.2450 N   0  0  0  0  0  0  0  0  0  0  0  0
   58.0670   32.3720   46.3490 C   0  0  0  0  0  0  0  0  0  0  0  0
   61.0630   30.7322   48.0443 H   0  0  0  0  0  0  0  0  0  0  0  0
   60.5150   31.6092   46.5756 H   0  0  0  0  0  0  0  0  0  0  0  0
   62.0969   30.7581   46.5756 H   0  0  0  0  0  0  0  0  0  0  0  0
   64.0516   33.0534   48.0782 H   0  0  0  0  0  0  0  0  0  0  0  0
   63.7915   32.0642   46.6014 H   0  0  0  0  0  0  0  0  0  0  0  0
   63.3617   33.8083   46.6014 H   0  0  0  0  0  0  0  0  0  0  0  0
   60.1196   32.8068   50.2901 H   0  0  0  0  0  0  0  0  0  0  0  0
   58.0159   32.8369   49.2406 H   0  0  0  0  0  0  0  0  0  0  0  0
   59.6000   35.2873   47.2779 H   0  0  0  0  0  0  0  0  0  0  0  0
   59.2292   35.7830   44.8650 H   0  0  0  0  0  0  0  0  0  0  0  0
   58.1143   34.1064   43.3967 H   0  0  0  0  0  0  0  0  0  0  0  0
   58.7913   30.2018   45.5182 H   0  0  0  0  0  0  0  0  0  0  0  0
   59.5562   28.0435   46.5179 H   0  0  0  0  0  0  0  0  0  0  0  0
   58.0641   22.6769   46.9902 H   0  0  0  0  0  0  0  0  0  0  0  0
   55.7030   22.9750   45.0967 H   0  0  0  0  0  0  0  0  0  0  0  0
   55.6961   22.3125   46.7741 H   0  0  0  0  0  0  0  0  0  0  0  0
   55.7127   20.5294   45.0091 H   0  0  0  0  0  0  0  0  0  0  0  0
   57.1620   20.4911   46.1103 H   0  0  0  0  0  0  0  0  0  0  0  0
   57.8330   20.1080   43.9300 H   0  0  0  0  0  0  0  0  0  0  0  0
   56.0379   22.2490   43.2205 H   0  0  0  0  0  0  0  0  0  0  0  0
   57.5984   22.1872   42.3330 H   0  0  0  0  0  0  0  0  0  0  0  0
   56.5080   20.7597   42.3330 H   0  0  0  0  0  0  0  0  0  0  0  0
   59.3940   21.9169   43.5323 H   0  0  0  0  0  0  0  0  0  0  0  0
   59.3238   21.2847   45.2398 H   0  0  0  0  0  0  0  0  0  0  0  0
   58.0816   23.8662   44.1818 H   0  0  0  0  0  0  0  0  0  0  0  0
   59.4781   23.6960   45.3154 H   0  0  0  0  0  0  0  0  0  0  0  0
   55.6109   26.3972   45.8766 H   0  0  0  0  0  0  0  0  0  0  0  0
   57.7506   31.4051   46.7674 H   0  0  0  0  0  0  0  0  0  0  0  0
  1  2  1  0
  2  3  1  0
  2  4  1  0
  4  5  2  0
  4  6  1  0
  6  7  2  3
  7  8  1  0
  8  9  2  0
  9 10  1  0
 10 11  2  0
 11 12  1  0
 12 13  1  0
 13 14  2  0
 13 15  1  0
 15 16  2  3
 16 17  1  0
 17 18  2  0
 18 19  1  0
 19 20  1  0
 20 21  2  0
 20 22  1  0
 22 23  1  0
 23 24  1  0
 24 25  1  0
 25 26  1  0
 26 27  1  0
 26 28  1  0
 28 29  1  0
 19 30  2  0
 30 31  1  0
 12 32  2  0
 32  8  1  0
 31 16  1  0
 29 23  1  0
  1 33  1  0
  1 34  1  0
  1 35  1  0
  3 36  1  0
  3 37  1  0
  3 38  1  0
  6 39  1  0
  7 40  1  0
  9 41  1  0
 10 42  1  0
 11 43  1  0
 17 44  1  0
 18 45  1  0
 23 46  1  1
 24 47  1  0
 24 48  1  0
 25 49  1  0
 25 50  1  0
 26 51  1  6
 27 52  1  0
 27 53  1  0
 27 54  1  0
 28 55  1  0
 28 56  1  0
 29 57  1  0
 29 58  1  0
 30 59  1  0
 32 60  1  0
M  CHG  3  22  -1  26   1  31  -1
M  END
>  <UniqueID>  (91) 
87

>  <SMILES>  (91) 
CN(C)C(=O)C=Cc1cccc(C(=O)N=c2ccc(C(=O)[N-]C3CC[NH+](C)CC3)c[n-]2)c1

>  <Energy>  (91) 
79.95802777363257

>  <Genealogy>  (91) 
CN(C)C(=O)C=Cc1cccc(C(=O)N=c2ccc(C(=O)[N-]C3CC[NH+](C)CC3)c[n-]2)c1 (protonated)
CN(C)C(=O)C=Cc1cccc(C(=O)N=c2ccc(C(=O)[N-]C3CC[NH+](C)CC3)c[n-]2)c1 (3D coordinates assigned)
CN(C)C(=O)C=Cc1cccc(C(=O)N=c2ccc(C(=O)[N-]C3CC[NH+](C)CC3)c[n-]2)c1 (nonaromatic ring conformer: 79.95802777363257 kcal/mol)

>  <smiles>  (91) 
CN1CCC(NC(=O)c2ccc(=NC(=O)c3cccc(C=CC(=O)N(C)C)c3)[nH]c2)CC1

>  <score_type>  (91) 
oracle

>  <origin>  (91) 
adg

>  <m_score__min__energy>  (91) 
-11.48

>  <m_primary>  (91) 
energy

$$$$
