0:0
     RDKit          3D

 53 56  0  0  1  0  0  0  0  0999 V2000
   63.5970   31.8590   51.3210 O   0  0  0  0  0  0  0  0  0  0  0  0
   63.7180   32.0090   50.0680 C   0  0  0  0  0  0  0  0  0  0  0  0
   65.0420   32.2490   49.6020 N   0  0  0  0  0  0  0  0  0  0  0  0
   66.1680   32.3180   50.4790 C   0  0  0  0  0  0  0  0  0  0  0  0
   66.5380   31.2140   51.2580 C   0  0  0  0  0  0  0  0  0  0  0  0
   67.6350   31.2800   52.1160 C   0  0  0  0  0  0  0  0  0  0  0  0
   68.3330   32.4730   52.1610 C   0  0  0  0  0  0  0  0  0  0  0  0
   67.9780   33.5650   51.4000 C   0  0  0  0  0  0  0  0  0  0  0  0
   66.8840   33.5080   50.5400 C   0  0  0  0  0  0  0  0  0  0  0  0
   62.5920   31.9370   49.2060 N   0  0  0  0  0  0  0  0  0  0  0  0
   62.6180   32.0810   47.7870 C   0  0  0  0  0  0  0  0  0  0  0  0
   61.7530   31.0860   47.0500 C   0  0  0  0  0  0  0  0  0  0  0  0
   60.7880   30.4190   47.8660 N   0  0  0  0  0  0  0  0  0  0  0  0
   59.7000   29.7390   47.2160 C   0  0  0  0  0  0  0  0  0  0  0  0
   58.8110   30.3950   46.4410 N   0  0  0  0  0  0  0  0  0  0  0  0
   57.7760   29.8060   45.8150 C   0  0  0  0  0  0  0  0  0  0  0  0
   56.9930   30.4490   45.1150 N   0  0  0  0  0  0  0  0  0  0  0  0
   56.7960   31.7850   44.8420 C   0  0  0  0  0  0  0  0  0  0  0  0
   57.7300   32.8670   45.1500 C   0  0  0  0  0  0  0  0  0  0  0  0
   57.8040   33.3580   46.4630 C   0  0  0  0  0  0  0  0  0  0  0  0
   57.0350   32.7530   47.4090 F   0  0  0  0  0  0  0  0  0  0  0  0
   58.6380   34.4280   46.7750 C   0  0  0  0  0  0  0  0  0  0  0  0
   59.4210   35.0440   45.8060 C   0  0  0  0  0  0  0  0  0  0  0  0
   60.2120   36.0750   46.1550 F   0  0  0  0  0  0  0  0  0  0  0  0
   59.3500   34.5630   44.5170 C   0  0  0  0  0  0  0  0  0  0  0  0
   58.5270   33.4970   44.1750 C   0  0  0  0  0  0  0  0  0  0  0  0
   58.4740   33.0390   42.8890 F   0  0  0  0  0  0  0  0  0  0  0  0
   57.6210   28.4610   45.9770 C   0  0  0  0  0  0  0  0  0  0  0  0
   58.4950   27.7530   46.7510 C   0  0  0  0  0  0  0  0  0  0  0  0
   59.5120   28.4150   47.3490 N   0  0  0  0  0  0  0  0  0  0  0  0
   60.8060   30.3610   49.3080 C   0  0  0  0  0  0  0  0  0  0  0  0
   61.2860   31.6960   49.8310 C   0  0  0  0  0  0  0  0  0  0  0  0
   65.2400   32.3850   48.5880 H   0  0  0  0  0  0  0  0  0  0  0  0
   65.9556   30.2832   51.1919 H   0  0  0  0  0  0  0  0  0  0  0  0
   67.9330   30.4186   52.7318 H   0  0  0  0  0  0  0  0  0  0  0  0
   69.2034   32.5529   52.8288 H   0  0  0  0  0  0  0  0  0  0  0  0
   68.5651   34.4924   51.4724 H   0  0  0  0  0  0  0  0  0  0  0  0
   66.5959   34.3762   49.9290 H   0  0  0  0  0  0  0  0  0  0  0  0
   62.2698   33.0938   47.5362 H   0  0  0  0  0  0  0  0  0  0  0  0
   63.6547   31.8970   47.4685 H   0  0  0  0  0  0  0  0  0  0  0  0
   61.2169   31.6215   46.2526 H   0  0  0  0  0  0  0  0  0  0  0  0
   62.4294   30.3077   46.6670 H   0  0  0  0  0  0  0  0  0  0  0  0
   56.6398   31.8383   43.7545 H   0  0  0  0  0  0  0  0  0  0  0  0
   55.9984   32.0110   45.5650 H   0  0  0  0  0  0  0  0  0  0  0  0
   58.6782   34.7941   47.8115 H   0  0  0  0  0  0  0  0  0  0  0  0
   59.9627   35.0366   43.7358 H   0  0  0  0  0  0  0  0  0  0  0  0
   56.7867   27.9432   45.4811 H   0  0  0  0  0  0  0  0  0  0  0  0
   58.3748   26.6679   46.8854 H   0  0  0  0  0  0  0  0  0  0  0  0
   60.1530   27.8410   47.9270 H   0  0  0  0  0  0  0  0  0  0  0  0
   59.7930   30.1564   49.6847 H   0  0  0  0  0  0  0  0  0  0  0  0
   61.4771   29.5579   49.6466 H   0  0  0  0  0  0  0  0  0  0  0  0
   60.5782   32.4909   49.5532 H   0  0  0  0  0  0  0  0  0  0  0  0
   61.3622   31.6919   50.9283 H   0  0  0  0  0  0  0  0  0  0  0  0
  1  2  2  0
  2  3  1  0
  3  4  1  0
  4  5  2  0
  5  6  1  0
  6  7  2  0
  7  8  1  0
  8  9  2  0
  2 10  1  0
 10 11  1  0
 11 12  1  0
 12 13  1  0
 13 14  1  0
 14 15  2  0
 15 16  1  0
 16 17  2  0
 17 18  1  0
 18 19  1  0
 19 20  2  0
 20 21  1  0
 20 22  1  0
 22 23  2  0
 23 24  1  0
 23 25  1  0
 25 26  2  0
 26 27  1  0
 16 28  1  0
 28 29  2  0
 29 30  1  0
 13 31  1  0
 31 32  1  0
  9  4  1  0
 32 10  1  0
 30 14  1  0
 26 19  1  0
  3 33  1  0
  5 34  1  0
  6 35  1  0
  7 36  1  0
  8 37  1  0
  9 38  1  0
 11 39  1  0
 11 40  1  0
 12 41  1  0
 12 42  1  0
 18 43  1  0
 18 44  1  0
 22 45  1  0
 25 46  1  0
 28 47  1  0
 29 48  1  0
 30 49  1  0
 31 50  1  0
 31 51  1  0
 32 52  1  0
 32 53  1  0
M  END
>  <smiles>  (1) 
O=C(Nc1ccccc1)N1CCN(c2nc(=NCc3c(F)cc(F)cc3F)cc[nH]2)CC1

>  <score_type>  (1) 
oracle

>  <origin>  (1) 
adg

>  <m_score__min__energy>  (1) 
-8.5099999999999998

>  <m_primary>  (1) 
energy

$$$$
1:0
     RDKit          3D

 23 24  0  0  0  0  0  0  0  0999 V2000
   55.1400   28.1310   44.8690 H   0  0  0  0  0  0  0  0  0  0  0  0
   55.3270   29.1100   44.6930 O   0  0  0  0  0  0  0  0  0  0  0  0
   56.6220   29.6190   44.7700 C   0  0  0  0  0  0  0  0  0  0  0  0
   56.8960   30.9840   44.8070 C   0  0  0  0  0  0  0  0  0  0  0  0
   56.1540   31.7960   44.8002 H   0  0  0  0  0  0  0  0  0  0  0  0
   58.5690   31.1660   44.8640 S   0  0  0  0  0  0  0  0  0  0  0  0
   58.8740   29.5150   44.8630 C   0  0  0  0  0  0  0  0  0  0  0  0
   60.3790   28.8800   44.7280 S   0  0  0  0  0  0  0  0  0  0  0  0
   57.7130   28.8090   44.8180 N   0  0  0  0  0  0  0  0  0  0  0  0
   57.6020   27.4070   44.7370 N   0  0  0  0  0  0  0  0  0  0  0  0
   57.6860   26.6270   45.7710 C   0  0  0  0  0  0  0  0  0  0  0  0
   58.3682   26.8892   46.5931 H   0  0  0  0  0  0  0  0  0  0  0  0
   56.8780   25.3900   45.8610 C   0  0  0  0  0  0  0  0  0  0  0  0
   57.4940   24.1230   45.8480 C   0  0  0  0  0  0  0  0  0  0  0  0
   58.5886   24.0480   45.7690 H   0  0  0  0  0  0  0  0  0  0  0  0
   56.7220   22.9600   45.9350 C   0  0  0  0  0  0  0  0  0  0  0  0
   57.2109   21.9747   45.9246 H   0  0  0  0  0  0  0  0  0  0  0  0
   55.3320   23.0470   46.0350 C   0  0  0  0  0  0  0  0  0  0  0  0
   54.7270   22.1308   46.1027 H   0  0  0  0  0  0  0  0  0  0  0  0
   54.7100   24.2970   46.0490 C   0  0  0  0  0  0  0  0  0  0  0  0
   53.6148   24.3624   46.1280 H   0  0  0  0  0  0  0  0  0  0  0  0
   55.4730   25.4670   45.9630 C   0  0  0  0  0  0  0  0  0  0  0  0
   54.8260   26.6980   45.9810 O   0  0  0  0  0  0  0  0  0  0  0  0
  1  2  1  0
  2  3  1  0
  3  4  2  0
  4  5  1  0
  4  6  1  0
  6  7  1  0
  7  8  2  0
  7  9  1  0
  9 10  1  0
 10 11  2  0
 11 12  1  0
 11 13  1  0
 13 14  2  0
 14 15  1  0
 14 16  1  0
 16 17  1  0
 16 18  2  0
 18 19  1  0
 18 20  1  0
 20 21  1  0
 20 22  2  0
 22 23  1  0
  9  3  1  0
 22 13  1  0
M  CHG  1  23  -1
M  END
>  <UniqueID>  (2) 
1

>  <SMILES>  (2) 
[O-]c1ccccc1/C=N/n1c(O)csc1=S

>  <Energy>  (2) 
61.1115173560015

>  <Genealogy>  (2) 
[O-]c1ccccc1C=Nn1c(O)csc1=S (protonated)
[O-]c1ccccc1/C=N/n1c(O)csc1=S (cis-trans isomerization)
[O-]c1ccccc1/C=N/n1c(O)csc1=S (3D coordinates assigned)
[O-]c1ccccc1/C=N/n1c(O)csc1=S (optimized conformer: 61.1115173560015 kcal/mol)

>  <smiles>  (2) 
Oc1ccccc1C=Nn1c(O)csc1=S

>  <score_type>  (2) 
oracle

>  <origin>  (2) 
adg

>  <m_score__min__energy>  (2) 
-10.66

>  <m_primary>  (2) 
energy

$$$$
2:0
     RDKit          3D

 37 39  0  0  0  0  0  0  0  0999 V2000
   60.2680   26.5300   48.9600 O   0  0  0  0  0  0  0  0  0  0  0  0
   60.4070   27.7810   48.8860 C   0  0  0  0  0  0  0  0  0  0  0  0
   60.6090   28.5160   50.0620 C   0  0  0  0  0  0  0  0  0  0  0  0
   60.6750   27.8750   51.2940 O   0  0  0  0  0  0  0  0  0  0  0  0
   60.7400   29.9020   49.9940 C   0  0  0  0  0  0  0  0  0  0  0  0
   60.6540   30.5520   48.7610 C   0  0  0  0  0  0  0  0  0  0  0  0
   60.7690   31.9840   48.6980 N   0  0  0  0  0  0  0  0  0  0  0  0
   60.0690   32.8090   47.7490 C   0  0  0  0  0  0  0  0  0  0  0  0
   60.7070   33.9400   47.2160 C   0  0  0  0  0  0  0  0  0  0  0  0
   60.0400   34.7630   46.3050 C   0  0  0  0  0  0  0  0  0  0  0  0
   58.7250   34.4730   45.9300 C   0  0  0  0  0  0  0  0  0  0  0  0
   58.0720   33.3630   46.4720 C   0  0  0  0  0  0  0  0  0  0  0  0
   56.7930   33.0890   46.1190 F   0  0  0  0  0  0  0  0  0  0  0  0
   58.7360   32.5390   47.3860 C   0  0  0  0  0  0  0  0  0  0  0  0
   60.4950   29.7800   47.6000 C   0  0  0  0  0  0  0  0  0  0  0  0
   60.3630   28.4200   47.6710 N   0  0  0  0  0  0  0  0  0  0  0  0
   60.1020   27.6740   46.4290 C   0  0  0  0  0  0  0  0  0  0  0  0
   58.6380   27.3420   46.3250 C   0  0  0  0  0  0  0  0  0  0  0  0
   58.1640   26.0890   46.7480 C   0  0  0  0  0  0  0  0  0  0  0  0
   56.8140   25.7590   46.6030 C   0  0  0  0  0  0  0  0  0  0  0  0
   55.9260   26.6730   46.0290 C   0  0  0  0  0  0  0  0  0  0  0  0
   54.5840   26.3380   45.8880 O   0  0  0  0  0  0  0  0  0  0  0  0
   56.3910   27.9200   45.5940 C   0  0  0  0  0  0  0  0  0  0  0  0
   55.5150   28.8310   45.0170 O   0  0  0  0  0  0  0  0  0  0  0  0
   57.7430   28.2520   45.7370 C   0  0  0  0  0  0  0  0  0  0  0  0
   60.9112   30.4839   50.9117 H   0  0  0  0  0  0  0  0  0  0  0  0
   61.3910   32.4560   49.3940 H   0  0  0  0  0  0  0  0  0  0  0  0
   61.7375   34.1796   47.5171 H   0  0  0  0  0  0  0  0  0  0  0  0
   60.5506   35.6407   45.8821 H   0  0  0  0  0  0  0  0  0  0  0  0
   58.2041   35.1189   45.2079 H   0  0  0  0  0  0  0  0  0  0  0  0
   58.2140   31.6753   47.8236 H   0  0  0  0  0  0  0  0  0  0  0  0
   60.4762   30.2756   46.6182 H   0  0  0  0  0  0  0  0  0  0  0  0
   60.3982   28.2885   45.5661 H   0  0  0  0  0  0  0  0  0  0  0  0
   60.6837   26.7404   46.4400 H   0  0  0  0  0  0  0  0  0  0  0  0
   58.8594   25.3638   47.1958 H   0  0  0  0  0  0  0  0  0  0  0  0
   56.4494   24.7779   46.9413 H   0  0  0  0  0  0  0  0  0  0  0  0
   58.1067   29.2296   45.3876 H   0  0  0  0  0  0  0  0  0  0  0  0
  1  2  2  0
  2  3  1  0
  3  4  1  0
  3  5  2  0
  5  6  1  0
  6  7  1  0
  7  8  1  0
  8  9  2  0
  9 10  1  0
 10 11  2  0
 11 12  1  0
 12 13  1  0
 12 14  2  0
  6 15  2  0
 15 16  1  0
 16 17  1  0
 17 18  1  0
 18 19  2  0
 19 20  1  0
 20 21  2  0
 21 22  1  0
 21 23  1  0
 23 24  1  0
 23 25  2  0
 16  2  1  0
 25 18  1  0
 14  8  1  0
  5 26  1  0
  7 27  1  0
  9 28  1  0
 10 29  1  0
 11 30  1  0
 14 31  1  0
 15 32  1  0
 17 33  1  0
 17 34  1  0
 19 35  1  0
 20 36  1  0
 25 37  1  0
M  CHG  3   4  -1  22  -1  24  -1
M  END
>  <UniqueID>  (3) 
2

>  <SMILES>  (3) 
O=c1c([O-])cc(Nc2cccc(F)c2)cn1Cc1ccc([O-])c([O-])c1

>  <Energy>  (3) 
46.579590715920325

>  <Genealogy>  (3) 
O=c1c([O-])cc(Nc2cccc(F)c2)cn1Cc1ccc([O-])c([O-])c1 (protonated)
O=c1c([O-])cc(Nc2cccc(F)c2)cn1Cc1ccc([O-])c([O-])c1 (3D coordinates assigned)
O=c1c([O-])cc(Nc2cccc(F)c2)cn1Cc1ccc([O-])c([O-])c1 (optimized conformer: 46.579590715920325 kcal/mol)

>  <smiles>  (3) 
O=c1c(O)cc(Nc2cccc(F)c2)cn1Cc1ccc(O)c(O)c1

>  <score_type>  (3) 
oracle

>  <origin>  (3) 
adg

>  <m_score__min__energy>  (3) 
-16.91

>  <m_primary>  (3) 
energy

$$$$
3:0
     RDKit          3D

 38 39  0  0  0  0  0  0  0  0999 V2000
   59.6530   34.8650   45.9240 C   0  0  0  0  0  0  0  0  0  0  0  0
   58.8820   33.6420   45.5270 C   0  0  0  0  0  0  0  0  0  0  0  0
   58.4680   33.4630   44.1990 C   0  0  0  0  0  0  0  0  0  0  0  0
   57.7640   32.3130   43.8300 C   0  0  0  0  0  0  0  0  0  0  0  0
   57.4830   31.3220   44.7800 C   0  0  0  0  0  0  0  0  0  0  0  0
   56.5240   29.9190   44.3210 S   0  0  0  0  0  0  0  0  0  0  0  0
   55.0980   30.3480   44.1210 O   0  0  0  0  0  0  0  0  0  0  0  0
   57.0250   29.3130   43.0410 O   0  0  0  0  0  0  0  0  0  0  0  0
   56.5940   28.7600   45.6060 N   0  0  0  0  0  0  0  0  0  0  0  0
   57.7230   27.9100   45.8470 C   0  0  0  0  0  0  0  0  0  0  0  0
   59.0350   28.4020   45.7420 C   0  0  0  0  0  0  0  0  0  0  0  0
   60.1250   27.5650   45.9990 C   0  0  0  0  0  0  0  0  0  0  0  0
   59.9150   26.2350   46.3670 C   0  0  0  0  0  0  0  0  0  0  0  0
   58.6140   25.7380   46.4820 C   0  0  0  0  0  0  0  0  0  0  0  0
   57.5150   26.5690   46.2220 C   0  0  0  0  0  0  0  0  0  0  0  0
   56.1500   26.0560   46.4270 C   0  0  0  0  0  0  0  0  0  0  0  0
   55.1730   26.7100   45.9800 O   0  0  0  0  0  0  0  0  0  0  0  0
   55.9050   24.8450   47.1530 N   0  0  0  0  0  0  0  0  0  0  0  0
   56.1460   23.2480   46.5160 S   0  0  0  0  0  0  0  0  0  0  0  0
   56.9300   23.3740   44.9260 C   0  0  0  0  0  0  0  0  0  0  0  0
   57.0160   22.4570   47.4500 O   0  0  0  0  0  0  0  0  0  0  0  0
   54.8280   22.5480   46.3390 O   0  0  0  0  0  0  0  0  0  0  0  0
   57.9120   31.4900   46.1040 C   0  0  0  0  0  0  0  0  0  0  0  0
   58.6160   32.6400   46.4730 C   0  0  0  0  0  0  0  0  0  0  0  0
   59.6951   34.9318   47.0212 H   0  0  0  0  0  0  0  0  0  0  0  0
   60.6746   34.8013   45.5211 H   0  0  0  0  0  0  0  0  0  0  0  0
   59.1550   35.7592   45.5211 H   0  0  0  0  0  0  0  0  0  0  0  0
   58.6981   34.2303   43.4451 H   0  0  0  0  0  0  0  0  0  0  0  0
   57.4294   32.1856   42.7899 H   0  0  0  0  0  0  0  0  0  0  0  0
   59.2053   29.4505   45.4563 H   0  0  0  0  0  0  0  0  0  0  0  0
   61.1497   27.9552   45.9111 H   0  0  0  0  0  0  0  0  0  0  0  0
   60.7741   25.5777   46.5666 H   0  0  0  0  0  0  0  0  0  0  0  0
   58.4515   24.6910   46.7776 H   0  0  0  0  0  0  0  0  0  0  0  0
   58.0078   23.5472   45.0613 H   0  0  0  0  0  0  0  0  0  0  0  0
   56.7762   22.4396   44.3663 H   0  0  0  0  0  0  0  0  0  0  0  0
   56.4912   24.2131   44.3663 H   0  0  0  0  0  0  0  0  0  0  0  0
   57.6942   30.7154   46.8540 H   0  0  0  0  0  0  0  0  0  0  0  0
   58.9632   32.7601   47.5098 H   0  0  0  0  0  0  0  0  0  0  0  0
  1  2  1  0
  2  3  2  0
  3  4  1  0
  4  5  2  0
  5  6  1  0
  6  7  2  0
  6  8  2  0
  6  9  1  0
  9 10  1  0
 10 11  2  0
 11 12  1  0
 12 13  2  0
 13 14  1  0
 14 15  2  0
 15 16  1  0
 16 17  2  0
 16 18  1  0
 18 19  1  0
 19 20  1  0
 19 21  2  0
 19 22  2  0
  5 23  1  0
 23 24  2  0
 24  2  1  0
 15 10  1  0
  1 25  1  0
  1 26  1  0
  1 27  1  0
  3 28  1  0
  4 29  1  0
 11 30  1  0
 12 31  1  0
 13 32  1  0
 14 33  1  0
 20 34  1  0
 20 35  1  0
 20 36  1  0
 23 37  1  0
 24 38  1  0
M  CHG  2   9  -1  18  -1
M  END
>  <UniqueID>  (4) 
3

>  <SMILES>  (4) 
Cc1ccc(S(=O)(=O)[N-]c2ccccc2C(=O)[N-]S(C)(=O)=O)cc1

>  <Energy>  (4) 
45.6034831910356

>  <Genealogy>  (4) 
Cc1ccc(S(=O)(=O)[N-]c2ccccc2C(=O)[N-]S(C)(=O)=O)cc1 (protonated)
Cc1ccc(S(=O)(=O)[N-]c2ccccc2C(=O)[N-]S(C)(=O)=O)cc1 (3D coordinates assigned)
Cc1ccc(S(=O)(=O)[N-]c2ccccc2C(=O)[N-]S(C)(=O)=O)cc1 (optimized conformer: 45.6034831910356 kcal/mol)

>  <smiles>  (4) 
Cc1ccc(S(=O)(=O)Nc2ccccc2C(=O)NS(C)(=O)=O)cc1

>  <score_type>  (4) 
oracle

>  <origin>  (4) 
adg

>  <m_score__min__energy>  (4) 
-12.539999999999999

>  <m_primary>  (4) 
energy

$$$$
4:0
     RDKit          3D

 36 37  0  0  0  0  0  0  0  0999 V2000
   64.1250   33.8310   50.1050 C   0  0  0  0  0  0  0  0  0  0  0  0
   63.0330   33.5200   49.1240 C   0  0  0  0  0  0  0  0  0  0  0  0
   63.2580   33.6540   47.7480 C   0  0  0  0  0  0  0  0  0  0  0  0
   62.2290   33.4000   46.8370 C   0  0  0  0  0  0  0  0  0  0  0  0
   60.9490   33.0300   47.2890 C   0  0  0  0  0  0  0  0  0  0  0  0
   59.8990   32.7390   46.3510 N   0  0  0  0  0  0  0  0  0  0  0  0
   58.7930   33.6230   46.1040 C   0  0  0  0  0  0  0  0  0  0  0  0
   58.5410   34.5580   46.9110 O   0  0  0  0  0  0  0  0  0  0  0  0
   57.9140   33.4120   44.9360 C   0  0  0  0  0  0  0  0  0  0  0  0
   57.0970   34.3120   44.6040 O   0  0  0  0  0  0  0  0  0  0  0  0
   58.0070   32.2340   44.1250 N   0  0  0  0  0  0  0  0  0  0  0  0
   57.7000   30.8950   44.5410 C   0  0  0  0  0  0  0  0  0  0  0  0
   56.3950   30.3780   44.4570 C   0  0  0  0  0  0  0  0  0  0  0  0
   56.1330   29.0620   44.8480 C   0  0  0  0  0  0  0  0  0  0  0  0
   57.1720   28.2420   45.3060 C   0  0  0  0  0  0  0  0  0  0  0  0
   56.8320   26.5910   45.8110 S   0  0  0  0  0  0  0  0  0  0  0  0
   55.1250   26.3760   45.9740 N   0  0  0  0  0  0  0  0  0  0  0  0
   57.4950   26.3100   47.1310 O   0  0  0  0  0  0  0  0  0  0  0  0
   57.3660   25.6270   44.7900 O   0  0  0  0  0  0  0  0  0  0  0  0
   58.4770   28.7500   45.3710 C   0  0  0  0  0  0  0  0  0  0  0  0
   58.7390   30.0660   44.9800 C   0  0  0  0  0  0  0  0  0  0  0  0
   60.7240   32.8980   48.6740 C   0  0  0  0  0  0  0  0  0  0  0  0
   59.1430   32.4530   49.3050 Cl  0  0  0  0  0  0  0  0  0  0  0  0
   61.7580   33.1550   49.5820 C   0  0  0  0  0  0  0  0  0  0  0  0
   63.7397   33.7213   51.1295 H   0  0  0  0  0  0  0  0  0  0  0  0
   64.9639   33.1361   49.9523 H   0  0  0  0  0  0  0  0  0  0  0  0
   64.4719   34.8637   49.9523 H   0  0  0  0  0  0  0  0  0  0  0  0
   64.2492   33.9606   47.3827 H   0  0  0  0  0  0  0  0  0  0  0  0
   62.4214   33.4901   45.7577 H   0  0  0  0  0  0  0  0  0  0  0  0
   59.9300   31.8270   45.8410 H   0  0  0  0  0  0  0  0  0  0  0  0
   55.5775   31.0115   44.0823 H   0  0  0  0  0  0  0  0  0  0  0  0
   55.1070   28.6688   44.7958 H   0  0  0  0  0  0  0  0  0  0  0  0
   54.7940   27.0890   46.6630 H   0  0  0  0  0  0  0  0  0  0  0  0
   59.2970   28.1111   45.7307 H   0  0  0  0  0  0  0  0  0  0  0  0
   59.7681   30.4527   45.0175 H   0  0  0  0  0  0  0  0  0  0  0  0
   61.5695   33.0702   50.6624 H   0  0  0  0  0  0  0  0  0  0  0  0
  1  2  1  0
  2  3  2  0
  3  4  1  0
  4  5  2  0
  5  6  1  0
  6  7  1  0
  7  8  2  0
  7  9  1  0
  9 10  2  0
  9 11  1  0
 11 12  1  0
 12 13  2  0
 13 14  1  0
 14 15  2  0
 15 16  1  0
 16 17  1  0
 16 18  2  0
 16 19  2  0
 15 20  1  0
 20 21  2  0
  5 22  1  0
 22 23  1  0
 22 24  2  0
 24  2  1  0
 21 12  1  0
  1 25  1  0
  1 26  1  0
  1 27  1  0
  3 28  1  0
  4 29  1  0
  6 30  1  0
 13 31  1  0
 14 32  1  0
 17 33  1  0
 20 34  1  0
 21 35  1  0
 24 36  1  0
M  CHG  2  11  -1  17  -1
M  END
>  <UniqueID>  (5) 
4

>  <SMILES>  (5) 
Cc1ccc(NC(=O)C(=O)[N-]c2ccc(S([NH-])(=O)=O)cc2)c(Cl)c1

>  <Energy>  (5) 
44.78816701229442

>  <Genealogy>  (5) 
Cc1ccc(NC(=O)C(=O)[N-]c2ccc(S([NH-])(=O)=O)cc2)c(Cl)c1 (protonated)
Cc1ccc(NC(=O)C(=O)[N-]c2ccc(S([NH-])(=O)=O)cc2)c(Cl)c1 (3D coordinates assigned)
Cc1ccc(NC(=O)C(=O)[N-]c2ccc(S([NH-])(=O)=O)cc2)c(Cl)c1 (optimized conformer: 44.78816701229442 kcal/mol)

>  <smiles>  (5) 
Cc1ccc(NC(=O)C(=O)Nc2ccc(S(N)(=O)=O)cc2)c(Cl)c1

>  <score_type>  (5) 
oracle

>  <origin>  (5) 
adg

>  <m_score__min__energy>  (5) 
-11.82

>  <m_primary>  (5) 
energy

$$$$
5:0
     RDKit          3D

 36 37  0  0  0  0  0  0  0  0999 V2000
   60.1180   34.2350   49.3830 C   0  0  0  0  0  0  0  0  0  0  0  0
   59.4910   34.9640   48.3330 O   0  0  0  0  0  0  0  0  0  0  0  0
   59.1110   34.4110   47.1020 C   0  0  0  0  0  0  0  0  0  0  0  0
   59.6590   34.8420   45.8780 C   0  0  0  0  0  0  0  0  0  0  0  0
   59.2470   34.2590   44.6760 C   0  0  0  0  0  0  0  0  0  0  0  0
   58.2810   33.2410   44.6760 C   0  0  0  0  0  0  0  0  0  0  0  0
   57.8610   32.6020   43.3800 C   0  0  0  0  0  0  0  0  0  0  0  0
   58.0170   31.1510   43.4600 N   0  0  0  0  0  0  0  0  0  0  0  0
   57.0770   30.3160   44.1560 C   0  0  0  0  0  0  0  0  0  0  0  0
   56.0250   30.8210   44.6320 O   0  0  0  0  0  0  0  0  0  0  0  0
   57.3160   28.8690   44.3230 C   0  0  0  0  0  0  0  0  0  0  0  0
   56.8160   28.0620   45.3330 C   0  0  0  0  0  0  0  0  0  0  0  0
   57.2910   26.7890   45.0730 C   0  0  0  0  0  0  0  0  0  0  0  0
   57.0340   25.5710   45.8620 C   0  0  0  0  0  0  0  0  0  0  0  0
   58.0890   24.5210   46.0260 C   0  0  0  0  0  0  0  0  0  0  0  0
   55.9100   25.4070   46.4090 O   0  0  0  0  0  0  0  0  0  0  0  0
   58.0540   26.8690   43.9240 C   0  0  0  0  0  0  0  0  0  0  0  0
   58.0640   28.1360   43.4730 N   0  0  0  0  0  0  0  0  0  0  0  0
   57.7380   32.8080   45.8960 C   0  0  0  0  0  0  0  0  0  0  0  0
   58.1500   33.3930   47.0970 C   0  0  0  0  0  0  0  0  0  0  0  0
   59.7807   34.6271   50.3538 H   0  0  0  0  0  0  0  0  0  0  0  0
   59.8479   33.1717   49.3032 H   0  0  0  0  0  0  0  0  0  0  0  0
   61.2098   34.3430   49.3032 H   0  0  0  0  0  0  0  0  0  0  0  0
   60.4148   35.6412   45.8679 H   0  0  0  0  0  0  0  0  0  0  0  0
   59.6823   34.6000   43.7251 H   0  0  0  0  0  0  0  0  0  0  0  0
   56.8066   32.8438   43.1804 H   0  0  0  0  0  0  0  0  0  0  0  0
   58.4945   32.9873   42.5675 H   0  0  0  0  0  0  0  0  0  0  0  0
   58.8370   30.7240   42.9760 H   0  0  0  0  0  0  0  0  0  0  0  0
   56.1729   28.3708   46.1703 H   0  0  0  0  0  0  0  0  0  0  0  0
   58.2668   24.3440   47.0970 H   0  0  0  0  0  0  0  0  0  0  0  0
   57.7540   23.5872   45.5507 H   0  0  0  0  0  0  0  0  0  0  0  0
   59.0212   24.8604   45.5507 H   0  0  0  0  0  0  0  0  0  0  0  0
   58.5747   26.0240   43.4497 H   0  0  0  0  0  0  0  0  0  0  0  0
   58.5600   28.4790   42.6210 H   0  0  0  0  0  0  0  0  0  0  0  0
   56.9857   32.0056   45.9070 H   0  0  0  0  0  0  0  0  0  0  0  0
   57.7149   33.0501   48.0473 H   0  0  0  0  0  0  0  0  0  0  0  0
  1  2  1  0
  2  3  1  0
  3  4  2  0
  4  5  1  0
  5  6  2  0
  6  7  1  0
  7  8  1  0
  8  9  1  0
  9 10  2  0
  9 11  1  0
 11 12  2  0
 12 13  1  0
 13 14  1  0
 14 15  1  0
 14 16  2  0
 13 17  2  0
 17 18  1  0
  6 19  1  0
 19 20  2  0
 20  3  1  0
 18 11  1  0
  1 21  1  0
  1 22  1  0
  1 23  1  0
  4 24  1  0
  5 25  1  0
  7 26  1  0
  7 27  1  0
  8 28  1  0
 12 29  1  0
 15 30  1  0
 15 31  1  0
 15 32  1  0
 17 33  1  0
 18 34  1  0
 19 35  1  0
 20 36  1  0
M  END
>  <UniqueID>  (6) 
5

>  <SMILES>  (6) 
COc1ccc(CNC(=O)c2cc(C(C)=O)c[nH]2)cc1

>  <Energy>  (6) 
56.28906086091222

>  <Genealogy>  (6) 
COc1ccc(CNC(=O)c2cc(C(C)=O)c[nH]2)cc1 (3D coordinates assigned)
COc1ccc(CNC(=O)c2cc(C(C)=O)c[nH]2)cc1 (optimized conformer: 56.28906086091222 kcal/mol)

>  <smiles>  (6) 
COc1ccc(CNC(=O)c2cc(C(C)=O)c[nH]2)cc1

>  <score_type>  (6) 
oracle

>  <origin>  (6) 
adg

>  <m_score__min__energy>  (6) 
-7.4900000000000002

>  <m_primary>  (6) 
energy

$$$$
6:0
     RDKit          3D

 41 43  0  0  0  0  0  0  0  0999 V2000
   55.9220   29.3450   44.9900 O   0  0  0  0  0  0  0  0  0  0  0  0
   57.0140   28.7760   45.2660 C   0  0  0  0  0  0  0  0  0  0  0  0
   58.2430   29.5250   45.2270 N   0  0  0  0  0  0  0  0  0  0  0  0
   58.3070   30.9460   45.0190 C   0  0  0  0  0  0  0  0  0  0  0  0
   57.7890   31.4910   43.8340 C   0  0  0  0  0  0  0  0  0  0  0  0
   57.8620   32.8650   43.5970 C   0  0  0  0  0  0  0  0  0  0  0  0
   58.4690   33.7070   44.5320 C   0  0  0  0  0  0  0  0  0  0  0  0
   59.0170   33.1750   45.7070 C   0  0  0  0  0  0  0  0  0  0  0  0
   59.8140   34.2320   46.8750 S   0  0  0  0  0  0  0  0  0  0  0  0
   58.9210   34.4010   48.0740 O   0  0  0  0  0  0  0  0  0  0  0  0
   60.0200   35.5880   46.2560 O   0  0  0  0  0  0  0  0  0  0  0  0
   61.3540   33.5910   47.3890 N   0  0  0  0  0  0  0  0  0  0  0  0
   62.3830   33.8400   46.3690 C   0  0  0  0  0  0  0  0  0  0  0  0
   63.7310   33.2410   46.8280 C   0  0  0  0  0  0  0  0  0  0  0  0
   63.6870   32.7810   48.1680 O   0  0  0  0  0  0  0  0  0  0  0  0
   63.2150   33.8110   49.0150 C   0  0  0  0  0  0  0  0  0  0  0  0
   61.7580   34.1850   48.6750 C   0  0  0  0  0  0  0  0  0  0  0  0
   58.9390   31.7960   45.9450 C   0  0  0  0  0  0  0  0  0  0  0  0
   56.9990   27.3350   45.6180 C   0  0  0  0  0  0  0  0  0  0  0  0
   58.1970   26.5980   45.6050 C   0  0  0  0  0  0  0  0  0  0  0  0
   58.1930   25.2430   45.9370 C   0  0  0  0  0  0  0  0  0  0  0  0
   56.9910   24.6290   46.2930 C   0  0  0  0  0  0  0  0  0  0  0  0
   56.9690   23.4070   46.5940 O   0  0  0  0  0  0  0  0  0  0  0  0
   55.8410   25.3520   46.3170 N   0  0  0  0  0  0  0  0  0  0  0  0
   55.8160   26.6740   45.9940 C   0  0  0  0  0  0  0  0  0  0  0  0
   59.1520   29.0200   45.3060 H   0  0  0  0  0  0  0  0  0  0  0  0
   57.3226   30.8316   43.0873 H   0  0  0  0  0  0  0  0  0  0  0  0
   57.4406   33.2855   42.6720 H   0  0  0  0  0  0  0  0  0  0  0  0
   58.5169   34.7900   44.3455 H   0  0  0  0  0  0  0  0  0  0  0  0
   62.0789   33.3712   45.4215 H   0  0  0  0  0  0  0  0  0  0  0  0
   62.4976   34.9246   46.2261 H   0  0  0  0  0  0  0  0  0  0  0  0
   63.9839   32.3952   46.1718 H   0  0  0  0  0  0  0  0  0  0  0  0
   64.4895   34.0356   46.7698 H   0  0  0  0  0  0  0  0  0  0  0  0
   63.2637   33.4682   50.0591 H   0  0  0  0  0  0  0  0  0  0  0  0
   63.8469   34.6997   48.8701 H   0  0  0  0  0  0  0  0  0  0  0  0
   61.0948   33.8118   49.4692 H   0  0  0  0  0  0  0  0  0  0  0  0
   61.6829   35.2797   48.5978 H   0  0  0  0  0  0  0  0  0  0  0  0
   59.3753   31.3750   46.8629 H   0  0  0  0  0  0  0  0  0  0  0  0
   59.1410   27.0922   45.3319 H   0  0  0  0  0  0  0  0  0  0  0  0
   59.1281   24.6640   45.9184 H   0  0  0  0  0  0  0  0  0  0  0  0
   54.8662   27.2279   46.0272 H   0  0  0  0  0  0  0  0  0  0  0  0
  1  2  2  0
  2  3  1  0
  3  4  1  0
  4  5  2  0
  5  6  1  0
  6  7  2  0
  7  8  1  0
  8  9  1  0
  9 10  2  0
  9 11  2  0
  9 12  1  0
 12 13  1  0
 13 14  1  0
 14 15  1  0
 15 16  1  0
 16 17  1  0
  8 18  2  0
  2 19  1  0
 19 20  1  0
 20 21  2  0
 21 22  1  0
 22 23  2  0
 22 24  1  0
 24 25  1  0
 18  4  1  0
 25 19  2  0
 17 12  1  0
  3 26  1  0
  5 27  1  0
  6 28  1  0
  7 29  1  0
 13 30  1  0
 13 31  1  0
 14 32  1  0
 14 33  1  0
 16 34  1  0
 16 35  1  0
 17 36  1  0
 17 37  1  0
 18 38  1  0
 20 39  1  0
 21 40  1  0
 25 41  1  0
M  CHG  1  24  -1
M  END
>  <UniqueID>  (7) 
6

>  <SMILES>  (7) 
O=C(Nc1cccc(S(=O)(=O)N2CCOCC2)c1)c1ccc(=O)[n-]c1

>  <Energy>  (7) 
57.33219766685876

>  <Genealogy>  (7) 
O=C(Nc1cccc(S(=O)(=O)N2CCOCC2)c1)c1ccc(=O)[n-]c1 (protonated)
O=C(Nc1cccc(S(=O)(=O)N2CCOCC2)c1)c1ccc(=O)[n-]c1 (3D coordinates assigned)
O=C(Nc1cccc(S(=O)(=O)N2CCOCC2)c1)c1ccc(=O)[n-]c1 (nonaromatic ring conformer: 57.33219766685876 kcal/mol)

>  <smiles>  (7) 
O=C(Nc1cccc(S(=O)(=O)N2CCOCC2)c1)c1ccc(=O)[nH]c1

>  <score_type>  (7) 
oracle

>  <origin>  (7) 
adg

>  <m_score__min__energy>  (7) 
-10.51

>  <m_primary>  (7) 
energy

$$$$
7:0
     RDKit          3D

 35 37  0  0  0  0  0  0  0  0999 V2000
   57.5474   30.0416   43.3426 H   0  0  0  0  0  0  0  0  0  0  0  0
   57.3610   30.1520   44.4210 C   0  0  0  0  0  0  0  0  0  0  0  0
   56.8960   31.2710   44.8890 N   0  0  0  0  0  0  0  0  0  0  0  0
   57.6460   32.4690   45.1550 C   0  0  0  0  0  0  0  0  0  0  0  0
   58.5190   33.0550   44.2130 C   0  0  0  0  0  0  0  0  0  0  0  0
   58.6429   32.5967   43.2207 H   0  0  0  0  0  0  0  0  0  0  0  0
   59.2270   34.2170   44.5380 C   0  0  0  0  0  0  0  0  0  0  0  0
   59.9020   34.6723   43.7983 H   0  0  0  0  0  0  0  0  0  0  0  0
   59.0800   34.8010   45.7980 C   0  0  0  0  0  0  0  0  0  0  0  0
   59.6354   35.7169   46.0485 H   0  0  0  0  0  0  0  0  0  0  0  0
   58.2270   34.2210   46.7400 C   0  0  0  0  0  0  0  0  0  0  0  0
   58.1136   34.6787   47.7338 H   0  0  0  0  0  0  0  0  0  0  0  0
   57.5170   33.0590   46.4210 C   0  0  0  0  0  0  0  0  0  0  0  0
   56.8516   32.6038   47.1694 H   0  0  0  0  0  0  0  0  0  0  0  0
   57.6380   29.0330   45.3340 C   0  0  0  0  0  0  0  0  0  0  0  0
   58.3980   29.0350   46.5000 C   0  0  0  0  0  0  0  0  0  0  0  0
   59.2130   30.1390   47.0480 C   0  0  0  0  0  0  0  0  0  0  0  0
   60.3400   30.6180   46.3600 C   0  0  0  0  0  0  0  0  0  0  0  0
   60.6161   30.1792   45.3898 H   0  0  0  0  0  0  0  0  0  0  0  0
   61.1130   31.6500   46.9020 C   0  0  0  0  0  0  0  0  0  0  0  0
   61.9877   32.0280   46.3525 H   0  0  0  0  0  0  0  0  0  0  0  0
   60.7750   32.2020   48.1420 C   0  0  0  0  0  0  0  0  0  0  0  0
   61.7460   33.4960   48.8210 Cl  0  0  0  0  0  0  0  0  0  0  0  0
   59.6680   31.7150   48.8430 C   0  0  0  0  0  0  0  0  0  0  0  0
   59.4050   32.1451   49.8207 H   0  0  0  0  0  0  0  0  0  0  0  0
   58.8940   30.6820   48.3040 C   0  0  0  0  0  0  0  0  0  0  0  0
   58.0320   30.2931   48.8658 H   0  0  0  0  0  0  0  0  0  0  0  0
   58.2760   27.8380   47.1100 N   0  0  0  0  0  0  0  0  0  0  0  0
   57.4940   27.0810   46.3560 N   0  0  0  0  0  0  0  0  0  0  0  0
   57.0660   25.7390   46.7250 C   0  0  0  0  0  0  0  0  0  0  0  0
   57.0381   25.6515   47.8212 H   0  0  0  0  0  0  0  0  0  0  0  0
   56.0626   25.5488   46.3163 H   0  0  0  0  0  0  0  0  0  0  0  0
   57.7740   25.0030   46.3163 H   0  0  0  0  0  0  0  0  0  0  0  0
   57.0760   27.7720   45.2800 C   0  0  0  0  0  0  0  0  0  0  0  0
   56.4036   27.3980   44.4938 H   0  0  0  0  0  0  0  0  0  0  0  0
  1  2  1  0
  2  3  2  0
  3  4  1  0
  4  5  2  0
  5  6  1  0
  5  7  1  0
  7  8  1  0
  7  9  2  0
  9 10  1  0
  9 11  1  0
 11 12  1  0
 11 13  2  0
 13 14  1  0
  2 15  1  0
 15 16  1  0
 16 17  1  0
 17 18  2  0
 18 19  1  0
 18 20  1  0
 20 21  1  0
 20 22  2  0
 22 23  1  0
 22 24  1  0
 24 25  1  0
 24 26  2  0
 26 27  1  0
 16 28  2  0
 28 29  1  0
 29 30  1  0
 30 31  1  0
 30 32  1  0
 30 33  1  0
 29 34  1  0
 34 35  1  0
 13  4  1  0
 34 15  2  0
 26 17  1  0
M  END
>  <UniqueID>  (8) 
7

>  <SMILES>  (8) 
Cn1cc(/C=N/c2ccccc2)c(-c2ccc(Cl)cc2)n1

>  <Energy>  (8) 
72.90371885343016

>  <Genealogy>  (8) 
Cn1cc(/C=N/c2ccccc2)c(-c2ccc(Cl)cc2)n1 (cis-trans isomerization)
Cn1cc(/C=N/c2ccccc2)c(-c2ccc(Cl)cc2)n1 (3D coordinates assigned)
Cn1cc(/C=N/c2ccccc2)c(-c2ccc(Cl)cc2)n1 (optimized conformer: 72.90371885343016 kcal/mol)

>  <smiles>  (8) 
Cn1cc(C=Nc2ccccc2)c(-c2ccc(Cl)cc2)n1

>  <score_type>  (8) 
oracle

>  <origin>  (8) 
adg

>  <m_score__min__energy>  (8) 
-6.8399999999999999

>  <m_primary>  (8) 
energy

$$$$
8:0
     RDKit          3D

 54 58  0  0  1  0  0  0  0  0999 V2000
   57.0490   30.6310   43.8270 C   0  0  0  0  0  0  0  0  0  0  0  0
   57.7720   29.7040   44.7810 C   0  0  0  0  0  0  0  0  0  0  0  0
   59.1720   29.3860   44.3130 C   0  0  0  0  0  0  0  0  0  0  0  0
   59.9340   28.5540   45.3010 C   0  0  0  0  0  0  0  0  0  0  0  0
   59.5800   28.9030   46.6830 N   0  0  0  0  0  0  0  0  0  0  0  0
   58.8310   28.0340   47.3860 C   0  0  0  0  0  0  0  0  0  0  0  0
   58.4300   26.8570   46.7770 O   0  0  0  0  0  0  0  0  0  0  0  0
   57.1010   26.6730   46.3480 C   0  0  0  0  0  0  0  0  0  0  0  0
   58.5170   28.3680   48.6470 N   0  0  0  0  0  0  0  0  0  0  0  0
   58.9180   29.5190   49.2170 C   0  0  0  0  0  0  0  0  0  0  0  0
   59.6910   30.4380   48.5230 C   0  0  0  0  0  0  0  0  0  0  0  0
   60.0110   30.0830   47.2200 C   0  0  0  0  0  0  0  0  0  0  0  0
   60.7000   30.7970   46.4580 O   0  0  0  0  0  0  0  0  0  0  0  0
   60.2640   31.7440   48.8740 C   0  0  1  0  0  0  0  0  0  0  0  0
   60.3410   32.6830   47.7250 C   0  0  0  0  0  0  0  0  0  0  0  0
   61.5450   33.2400   47.2970 C   0  0  0  0  0  0  0  0  0  0  0  0
   61.2490   34.0270   46.2490 N   0  0  0  0  0  0  0  0  0  0  0  0
   59.9190   33.9880   46.0020 C   0  0  0  0  0  0  0  0  0  0  0  0
   59.1100   34.5990   45.0580 C   0  0  0  0  0  0  0  0  0  0  0  0
   57.7520   34.3640   45.0520 C   0  0  0  0  0  0  0  0  0  0  0  0
   57.1470   33.5210   45.9690 C   0  0  0  0  0  0  0  0  0  0  0  0
   57.9500   32.9020   46.9210 C   0  0  0  0  0  0  0  0  0  0  0  0
   59.3070   33.1490   46.9140 C   0  0  0  0  0  0  0  0  0  0  0  0
   59.5650   32.3920   49.9850 C   0  0  0  0  0  0  0  0  0  0  0  0
   58.7750   31.9740   51.0270 C   0  0  0  0  0  0  0  0  0  0  0  0
   58.3820   33.0170   51.7790 N   0  0  0  0  0  0  0  0  0  0  0  0
   58.9030   34.1080   51.2420 N   0  0  0  0  0  0  0  0  0  0  0  0
   59.6350   33.7830   50.1430 C   0  0  0  0  0  0  0  0  0  0  0  0
   60.2720   34.6170   49.3930 N   0  0  0  0  0  0  0  0  0  0  0  0
   58.3680   30.6250   51.3560 C   0  0  0  0  0  0  0  0  0  0  0  0
   58.4450   29.6070   50.5550 N   0  0  0  0  0  0  0  0  0  0  0  0
   56.4720   31.3708   44.4013 H   0  0  0  0  0  0  0  0  0  0  0  0
   57.7831   31.1502   43.1933 H   0  0  0  0  0  0  0  0  0  0  0  0
   56.3666   30.0455   43.1933 H   0  0  0  0  0  0  0  0  0  0  0  0
   57.8289   30.1854   45.7684 H   0  0  0  0  0  0  0  0  0  0  0  0
   57.2084   28.7605   44.8287 H   0  0  0  0  0  0  0  0  0  0  0  0
   59.1095   28.8357   43.3626 H   0  0  0  0  0  0  0  0  0  0  0  0
   59.7088   30.3388   44.1948 H   0  0  0  0  0  0  0  0  0  0  0  0
   59.7016   27.4926   45.1294 H   0  0  0  0  0  0  0  0  0  0  0  0
   61.0077   28.7468   45.1600 H   0  0  0  0  0  0  0  0  0  0  0  0
   56.4422   26.5818   47.2242 H   0  0  0  0  0  0  0  0  0  0  0  0
   56.7883   27.5364   45.7424 H   0  0  0  0  0  0  0  0  0  0  0  0
   57.0347   25.7571   45.7424 H   0  0  0  0  0  0  0  0  0  0  0  0
   61.2906   31.5107   49.1927 H   0  0  0  0  0  0  0  0  0  0  0  0
   62.5410   33.0690   47.7315 H   0  0  0  0  0  0  0  0  0  0  0  0
   61.9260   34.5940   45.6890 H   0  0  0  0  0  0  0  0  0  0  0  0
   59.5529   35.2739   44.3108 H   0  0  0  0  0  0  0  0  0  0  0  0
   57.1288   34.8620   44.2946 H   0  0  0  0  0  0  0  0  0  0  0  0
   56.0613   33.3458   45.9451 H   0  0  0  0  0  0  0  0  0  0  0  0
   57.5095   32.2256   47.6683 H   0  0  0  0  0  0  0  0  0  0  0  0
   57.7730   32.9790   52.6360 H   0  0  0  0  0  0  0  0  0  0  0  0
   58.7560   35.0680   51.6270 H   0  0  0  0  0  0  0  0  0  0  0  0
   59.7630   35.4210   48.9640 H   0  0  0  0  0  0  0  0  0  0  0  0
   57.9619   30.4488   52.3630 H   0  0  0  0  0  0  0  0  0  0  0  0
  1  2  1  0
  2  3  1  0
  3  4  1  0
  4  5  1  0
  5  6  1  0
  6  7  1  0
  7  8  1  0
  6  9  2  0
  9 10  1  0
 10 11  2  0
 11 12  1  0
 12 13  2  0
 11 14  1  0
 14 15  1  0
 15 16  2  0
 16 17  1  0
 17 18  1  0
 18 19  2  0
 19 20  1  0
 20 21  2  0
 21 22  1  0
 22 23  2  0
 14 24  1  0
 24 25  2  0
 25 26  1  0
 26 27  1  0
 27 28  1  0
 28 29  2  3
 25 30  1  0
 30 31  2  0
 12  5  1  0
 23 15  1  0
 28 24  1  0
 31 10  1  0
 23 18  1  0
  1 32  1  0
  1 33  1  0
  1 34  1  0
  2 35  1  0
  2 36  1  0
  3 37  1  0
  3 38  1  0
  4 39  1  0
  4 40  1  0
  8 41  1  0
  8 42  1  0
  8 43  1  0
 14 44  1  1
 16 45  1  0
 17 46  1  0
 19 47  1  0
 20 48  1  0
 21 49  1  0
 22 50  1  0
 26 51  1  0
 27 52  1  0
 29 53  1  0
 30 54  1  0
M  END
>  <smiles>  (9) 
CCCCn1c(OC)nc2c(c1=O)C(c1c[nH]c3ccccc13)c1c([nH][nH]c1=N)C=N2

>  <score_type>  (9) 
oracle

>  <origin>  (9) 
adg

>  <m_score__min__energy>  (9) 
-7.4699999999999998

>  <m_primary>  (9) 
energy

$$$$
9:0
     RDKit          3D

 39 41  0  0  0  0  0  0  0  0999 V2000
   55.1360   29.7160   43.6290 C   0  0  0  0  0  0  0  0  0  0  0  0
   55.5350   29.1830   44.8870 O   0  0  0  0  0  0  0  0  0  0  0  0
   56.8680   29.0040   45.2920 C   0  0  0  0  0  0  0  0  0  0  0  0
   57.3570   27.7440   45.6920 C   0  0  0  0  0  0  0  0  0  0  0  0
   58.6680   27.6060   46.1540 C   0  0  0  0  0  0  0  0  0  0  0  0
   59.5030   28.7200   46.2300 C   0  0  0  0  0  0  0  0  0  0  0  0
   59.0350   29.9720   45.8280 C   0  0  0  0  0  0  0  0  0  0  0  0
   57.7350   30.1200   45.3290 C   0  0  0  0  0  0  0  0  0  0  0  0
   57.3020   31.4280   44.9330 N   0  0  0  0  0  0  0  0  0  0  0  0
   57.4850   32.6280   45.6920 C   0  0  0  0  0  0  0  0  0  0  0  0
   56.4930   33.3510   45.9820 O   0  0  0  0  0  0  0  0  0  0  0  0
   58.8370   33.0680   46.0780 C   0  0  0  0  0  0  0  0  0  0  0  0
   59.6330   33.8320   45.3050 N   0  0  0  0  0  0  0  0  0  0  0  0
   60.7760   34.0220   45.9450 N   0  0  0  0  0  0  0  0  0  0  0  0
   60.7460   33.4020   47.1150 N   0  0  0  0  0  0  0  0  0  0  0  0
   61.8530   33.4010   48.0330 C   0  0  0  0  0  0  0  0  0  0  0  0
   63.0480   32.7300   47.7200 C   0  0  0  0  0  0  0  0  0  0  0  0
   64.1270   32.7590   48.6090 C   0  0  0  0  0  0  0  0  0  0  0  0
   64.0260   33.4690   49.8090 C   0  0  0  0  0  0  0  0  0  0  0  0
   62.8500   34.1560   50.1180 C   0  0  0  0  0  0  0  0  0  0  0  0
   61.7690   34.1290   49.2300 C   0  0  0  0  0  0  0  0  0  0  0  0
   59.5380   32.8050   47.2470 C   0  0  0  0  0  0  0  0  0  0  0  0
   59.0400   32.0750   48.4610 C   0  0  0  0  0  0  0  0  0  0  0  0
   54.4839   30.5871   43.7901 H   0  0  0  0  0  0  0  0  0  0  0  0
   56.0269   30.0246   43.0624 H   0  0  0  0  0  0  0  0  0  0  0  0
   54.5889   28.9482   43.0624 H   0  0  0  0  0  0  0  0  0  0  0  0
   56.7011   26.8625   45.6399 H   0  0  0  0  0  0  0  0  0  0  0  0
   59.0421   26.6173   46.4582 H   0  0  0  0  0  0  0  0  0  0  0  0
   60.5308   28.6122   46.6068 H   0  0  0  0  0  0  0  0  0  0  0  0
   59.6931   30.8501   45.9038 H   0  0  0  0  0  0  0  0  0  0  0  0
   59.4160   34.2150   44.3580 H   0  0  0  0  0  0  0  0  0  0  0  0
   63.1347   32.1797   46.7715 H   0  0  0  0  0  0  0  0  0  0  0  0
   65.0557   32.2229   48.3640 H   0  0  0  0  0  0  0  0  0  0  0  0
   64.8733   33.4866   50.5103 H   0  0  0  0  0  0  0  0  0  0  0  0
   62.7735   34.7187   51.0601 H   0  0  0  0  0  0  0  0  0  0  0  0
   60.8487   34.6811   49.4713 H   0  0  0  0  0  0  0  0  0  0  0  0
   59.3909   32.5894   49.3678 H   0  0  0  0  0  0  0  0  0  0  0  0
   57.9402   32.0566   48.4523 H   0  0  0  0  0  0  0  0  0  0  0  0
   59.4241   31.0443   48.4523 H   0  0  0  0  0  0  0  0  0  0  0  0
  1  2  1  0
  2  3  1  0
  3  4  2  0
  4  5  1  0
  5  6  2  0
  6  7  1  0
  7  8  2  0
  8  9  1  0
  9 10  1  0
 10 11  2  0
 10 12  1  0
 12 13  1  0
 13 14  2  0
 14 15  1  0
 15 16  1  0
 16 17  2  0
 17 18  1  0
 18 19  2  0
 19 20  1  0
 20 21  2  0
 15 22  1  0
 22 23  1  0
  8  3  1  0
 22 12  2  0
 21 16  1  0
  1 24  1  0
  1 25  1  0
  1 26  1  0
  4 27  1  0
  5 28  1  0
  6 29  1  0
  7 30  1  0
 13 31  1  0
 17 32  1  0
 18 33  1  0
 19 34  1  0
 20 35  1  0
 21 36  1  0
 23 37  1  0
 23 38  1  0
 23 39  1  0
M  CHG  2   9  -1  13   1
M  END
>  <UniqueID>  (10) 
8

>  <SMILES>  (10) 
COc1ccccc1[N-]C(=O)c1[nH+]nn(-c2ccccc2)c1C

>  <Energy>  (10) 
87.28262705683798

>  <Genealogy>  (10) 
COc1ccccc1[N-]C(=O)c1[nH+]nn(-c2ccccc2)c1C (protonated)
COc1ccccc1[N-]C(=O)c1[nH+]nn(-c2ccccc2)c1C (3D coordinates assigned)
COc1ccccc1[N-]C(=O)c1[nH+]nn(-c2ccccc2)c1C (optimized conformer: 87.28262705683798 kcal/mol)

>  <smiles>  (10) 
COc1ccccc1NC(=O)c1nnn(-c2ccccc2)c1C

>  <score_type>  (10) 
oracle

>  <origin>  (10) 
adg

>  <m_score__min__energy>  (10) 
-7.71

>  <m_primary>  (10) 
energy

$$$$
10:0
     RDKit          3D

 51 54  0  0  0  0  0  0  0  0999 V2000
   57.1320   24.7780   44.2300 C   0  0  0  0  0  0  0  0  0  0  0  0
   55.8960   24.5240   45.0760 C   0  0  0  0  0  0  0  0  0  0  0  0
   55.6870   25.6250   45.9560 O   0  0  0  0  0  0  0  0  0  0  0  0
   56.6980   26.4940   46.3960 C   0  0  0  0  0  0  0  0  0  0  0  0
   57.7430   26.0670   47.2380 C   0  0  0  0  0  0  0  0  0  0  0  0
   58.7270   26.9660   47.6720 C   0  0  0  0  0  0  0  0  0  0  0  0
   58.6800   28.2980   47.2340 C   0  0  0  0  0  0  0  0  0  0  0  0
   57.6540   28.7250   46.3820 C   0  0  0  0  0  0  0  0  0  0  0  0
   56.6640   27.8290   45.9700 C   0  0  0  0  0  0  0  0  0  0  0  0
   55.6440   28.2680   45.1350 O   0  0  0  0  0  0  0  0  0  0  0  0
   59.6680   29.2490   47.7240 C   0  0  0  0  0  0  0  0  0  0  0  0
   60.3890   29.8880   46.9050 O   0  0  0  0  0  0  0  0  0  0  0  0
   59.7830   29.4330   49.1480 N   0  0  2  0  0  0  0  0  0  0  0  0
   60.4990   30.6340   49.4630 C   0  0  0  0  0  0  0  0  0  0  0  0
   61.6540   30.4380   50.0770 C   0  0  0  0  0  0  0  0  0  0  0  0
   62.6090   31.5030   50.4910 C   0  0  0  0  0  0  0  0  0  0  0  0
   62.9880   32.5330   49.6120 C   0  0  0  0  0  0  0  0  0  0  0  0
   63.8820   33.5270   50.0190 C   0  0  0  0  0  0  0  0  0  0  0  0
   64.4230   33.5260   51.3200 C   0  0  0  0  0  0  0  0  0  0  0  0
   65.3530   34.5580   51.7430 N   0  0  0  0  0  0  0  0  0  0  0  0
   66.7970   34.3930   51.5310 C   0  0  0  0  0  0  0  0  0  0  0  0
   64.8660   35.7830   52.3880 C   0  0  0  0  0  0  0  0  0  0  0  0
   64.0330   32.4980   52.2000 C   0  0  0  0  0  0  0  0  0  0  0  0
   63.1380   31.5050   51.7930 C   0  0  0  0  0  0  0  0  0  0  0  0
   61.8890   28.9830   50.2430 C   0  0  0  0  0  0  0  0  0  0  0  0
   60.5370   28.3660   49.8510 C   0  0  2  0  0  0  0  0  0  0  0  0
   60.7380   27.0360   49.1300 C   0  0  0  0  0  0  0  0  0  0  0  0
   59.8710   26.4400   48.3610 N   0  0  0  0  0  0  0  0  0  0  0  0
   57.9960   24.9556   44.8872 H   0  0  0  0  0  0  0  0  0  0  0  0
   57.3283   23.9014   43.5951 H   0  0  0  0  0  0  0  0  0  0  0  0
   56.9667   25.6609   43.5951 H   0  0  0  0  0  0  0  0  0  0  0  0
   55.0206   24.4077   44.4202 H   0  0  0  0  0  0  0  0  0  0  0  0
   56.0379   23.6060   45.6653 H   0  0  0  0  0  0  0  0  0  0  0  0
   57.7876   25.0158   47.5588 H   0  0  0  0  0  0  0  0  0  0  0  0
   57.6273   29.7688   46.0360 H   0  0  0  0  0  0  0  0  0  0  0  0
   58.8220   29.5190   49.5580 H   0  0  0  0  0  0  0  0  0  0  0  0
   60.1193   31.6361   49.2146 H   0  0  0  0  0  0  0  0  0  0  0  0
   62.5761   32.5566   48.5923 H   0  0  0  0  0  0  0  0  0  0  0  0
   64.1674   34.3214   49.3137 H   0  0  0  0  0  0  0  0  0  0  0  0
   67.3062   34.3348   52.5043 H   0  0  0  0  0  0  0  0  0  0  0  0
   66.9812   33.4680   50.9650 H   0  0  0  0  0  0  0  0  0  0  0  0
   67.1851   35.2526   50.9650 H   0  0  0  0  0  0  0  0  0  0  0  0
   64.9127   35.6655   53.4807 H   0  0  0  0  0  0  0  0  0  0  0  0
   65.4947   36.6326   52.0834 H   0  0  0  0  0  0  0  0  0  0  0  0
   63.8255   35.9690   52.0834 H   0  0  0  0  0  0  0  0  0  0  0  0
   64.4386   32.4764   53.2222 H   0  0  0  0  0  0  0  0  0  0  0  0
   62.8440   30.7154   52.5002 H   0  0  0  0  0  0  0  0  0  0  0  0
   62.6910   28.6337   49.5760 H   0  0  0  0  0  0  0  0  0  0  0  0
   62.2115   28.7096   51.2585 H   0  0  0  0  0  0  0  0  0  0  0  0
   59.9155   28.0582   50.7048 H   0  0  0  0  0  0  0  0  0  0  0  0
   61.7058   26.5331   49.2729 H   0  0  0  0  0  0  0  0  0  0  0  0
  1  2  1  0
  2  3  1  0
  3  4  1  0
  4  5  2  0
  5  6  1  0
  6  7  2  0
  7  8  1  0
  8  9  2  0
  9 10  1  0
  7 11  1  0
 11 12  2  0
 11 13  1  0
 13 14  1  0
 14 15  2  0
 15 16  1  0
 16 17  2  0
 17 18  1  0
 18 19  2  0
 19 20  1  0
 20 21  1  0
 20 22  1  0
 19 23  1  0
 23 24  2  0
 15 25  1  0
 25 26  1  0
 26 27  1  0
 27 28  2  0
  9  4  1  0
 26 13  1  0
 28  6  1  0
 24 16  1  0
  1 29  1  0
  1 30  1  0
  1 31  1  0
  2 32  1  0
  2 33  1  0
  5 34  1  0
  8 35  1  0
 13 36  1  1
 14 37  1  0
 17 38  1  0
 18 39  1  0
 21 40  1  0
 21 41  1  0
 21 42  1  0
 22 43  1  0
 22 44  1  0
 22 45  1  0
 23 46  1  0
 24 47  1  0
 25 48  1  0
 25 49  1  0
 26 50  1  1
 27 51  1  0
M  CHG  2  10  -1  13   1
M  END
>  <UniqueID>  (11) 
9

>  <SMILES>  (11) 
CCOc1cc2c(cc1[O-])C(=O)[N@@H+]1C=C(c3ccc(N(C)C)cc3)C[C@@H]1C=N2

>  <Energy>  (11) 
88.90609676118709

>  <Genealogy>  (11) 
CCOc1cc2c(cc1[O-])C(=O)[NH+]1C=C(c3ccc(N(C)C)cc3)CC1C=N2 (protonated)
CCOc1cc2c(cc1[O-])C(=O)[N@@H+]1C=C(c3ccc(N(C)C)cc3)C[C@@H]1C=N2 (chirality)
CCOc1cc2c(cc1[O-])C(=O)[N@@H+]1C=C(c3ccc(N(C)C)cc3)C[C@@H]1C=N2 (3D coordinates assigned)
CCOc1cc2c(cc1[O-])C(=O)[N@@H+]1C=C(c3ccc(N(C)C)cc3)C[C@@H]1C=N2 (nonaromatic ring conformer: 88.90609676118709 kcal/mol)

>  <smiles>  (11) 
CCOc1cc2c(cc1O)C(=O)N1C=C(c3ccc(N(C)C)cc3)CC1C=N2

>  <score_type>  (11) 
oracle

>  <origin>  (11) 
adg

>  <m_score__min__energy>  (11) 
-5.9299999999999997

>  <m_primary>  (11) 
energy

$$$$
11:0
     RDKit          3D

 40 42  0  0  0  0  0  0  0  0999 V2000
   60.8010   34.5890   48.7330 C   0  0  0  0  0  0  0  0  0  0  0  0
   60.0230   34.1690   47.5220 C   0  0  0  0  0  0  0  0  0  0  0  0
   59.7780   35.0960   46.4770 C   0  0  0  0  0  0  0  0  0  0  0  0
   59.0170   34.7250   45.3530 C   0  0  0  0  0  0  0  0  0  0  0  0
   58.5170   33.4270   45.3020 C   0  0  0  0  0  0  0  0  0  0  0  0
   57.7620   32.8840   44.3280 N   0  0  0  0  0  0  0  0  0  0  0  0
   57.5140   31.6120   44.7190 C   0  0  0  0  0  0  0  0  0  0  0  0
   56.6040   30.4530   43.7660 S   0  0  0  0  0  0  0  0  0  0  0  0
   57.3080   28.8820   43.9310 N   0  0  0  0  0  0  0  0  0  0  0  0
   56.6330   30.8590   42.3190 O   0  0  0  0  0  0  0  0  0  0  0  0
   55.1840   30.4140   44.2530 O   0  0  0  0  0  0  0  0  0  0  0  0
   58.1350   31.3480   45.9320 C   0  0  0  0  0  0  0  0  0  0  0  0
   58.1130   30.0950   46.6330 N   0  0  0  0  0  0  0  0  0  0  0  0
   59.0660   29.2420   46.6520 N   0  0  0  0  0  0  0  0  0  0  0  0
   58.9230   27.8210   46.4920 C   0  0  0  0  0  0  0  0  0  0  0  0
   60.0730   27.0220   46.4480 C   0  0  0  0  0  0  0  0  0  0  0  0
   59.9640   25.6390   46.2730 C   0  0  0  0  0  0  0  0  0  0  0  0
   58.7060   25.0430   46.1550 C   0  0  0  0  0  0  0  0  0  0  0  0
   57.5470   25.8280   46.2310 C   0  0  0  0  0  0  0  0  0  0  0  0
   55.9550   25.0960   46.0780 S   0  0  0  0  0  0  0  0  0  0  0  0
   54.7600   26.3410   45.9820 N   0  0  0  0  0  0  0  0  0  0  0  0
   55.6860   24.2270   47.2740 O   0  0  0  0  0  0  0  0  0  0  0  0
   55.8870   24.2620   44.8290 O   0  0  0  0  0  0  0  0  0  0  0  0
   57.6570   27.2090   46.4310 C   0  0  0  0  0  0  0  0  0  0  0  0
   58.7560   32.5230   46.3090 C   0  0  0  0  0  0  0  0  0  0  0  0
   59.4810   32.8680   47.4490 C   0  0  0  0  0  0  0  0  0  0  0  0
   60.2542   34.2938   49.6407 H   0  0  0  0  0  0  0  0  0  0  0  0
   61.7864   34.1003   48.7234 H   0  0  0  0  0  0  0  0  0  0  0  0
   60.9331   35.6810   48.7234 H   0  0  0  0  0  0  0  0  0  0  0  0
   60.1868   36.1149   46.5458 H   0  0  0  0  0  0  0  0  0  0  0  0
   58.8231   35.4392   44.5392 H   0  0  0  0  0  0  0  0  0  0  0  0
   57.4400   33.3480   43.4500 H   0  0  0  0  0  0  0  0  0  0  0  0
   56.5260   28.2140   44.1100 H   0  0  0  0  0  0  0  0  0  0  0  0
   57.8940   28.8990   44.7960 H   0  0  0  0  0  0  0  0  0  0  0  0
   61.0657   27.4845   46.5515 H   0  0  0  0  0  0  0  0  0  0  0  0
   60.8713   25.0186   46.2281 H   0  0  0  0  0  0  0  0  0  0  0  0
   58.6248   23.9567   46.0023 H   0  0  0  0  0  0  0  0  0  0  0  0
   55.1460   27.0880   45.3620 H   0  0  0  0  0  0  0  0  0  0  0  0
   56.7487   27.8196   46.5411 H   0  0  0  0  0  0  0  0  0  0  0  0
   59.6262   32.1474   48.2673 H   0  0  0  0  0  0  0  0  0  0  0  0
  1  2  1  0
  2  3  2  0
  3  4  1  0
  4  5  2  0
  5  6  1  0
  6  7  1  0
  7  8  1  0
  8  9  1  0
  8 10  2  0
  8 11  2  0
  7 12  2  0
 12 13  1  0
 13 14  2  3
 14 15  1  0
 15 16  2  0
 16 17  1  0
 17 18  2  0
 18 19  1  0
 19 20  1  0
 20 21  1  0
 20 22  2  0
 20 23  2  0
 19 24  2  0
 12 25  1  0
 25 26  2  0
 26  2  1  0
 25  5  1  0
 24 15  1  0
  1 27  1  0
  1 28  1  0
  1 29  1  0
  3 30  1  0
  4 31  1  0
  6 32  1  0
  9 33  1  0
  9 34  1  0
 16 35  1  0
 17 36  1  0
 18 37  1  0
 21 38  1  0
 24 39  1  0
 26 40  1  0
M  CHG  1  21  -1
M  END
>  <UniqueID>  (12) 
10

>  <SMILES>  (12) 
Cc1ccc2[nH]c(S(N)(=O)=O)c(N=Nc3cccc(S([NH-])(=O)=O)c3)c2c1

>  <Energy>  (12) 
84.9469285850475

>  <Genealogy>  (12) 
Cc1ccc2[nH]c(S(N)(=O)=O)c(N=Nc3cccc(S([NH-])(=O)=O)c3)c2c1 (protonated)
Cc1ccc2[nH]c(S(N)(=O)=O)c(N=Nc3cccc(S([NH-])(=O)=O)c3)c2c1 (3D coordinates assigned)
Cc1ccc2[nH]c(S(N)(=O)=O)c(N=Nc3cccc(S([NH-])(=O)=O)c3)c2c1 (optimized conformer: 84.9469285850475 kcal/mol)

>  <smiles>  (12) 
Cc1ccc2[nH]c(S(N)(=O)=O)c(N=Nc3cccc(S(N)(=O)=O)c3)c2c1

>  <score_type>  (12) 
oracle

>  <origin>  (12) 
adg

>  <m_score__min__energy>  (12) 
-12.779999999999999

>  <m_primary>  (12) 
energy

$$$$
12:0
     RDKit          3D

 62 65  0  0  0  0  0  0  0  0999 V2000
   58.0860   32.2170   49.6250 O   0  0  0  0  0  0  0  0  0  0  0  0
   59.2080   31.8130   49.2190 C   0  0  0  0  0  0  0  0  0  0  0  0
   60.3670   32.5930   49.5480 N   0  0  0  0  0  0  0  0  0  0  0  0
   61.4720   32.9190   48.6930 C   0  0  0  0  0  0  0  0  0  0  0  0
   62.7480   32.5520   49.1430 C   0  0  0  0  0  0  0  0  0  0  0  0
   63.8760   32.7850   48.3620 C   0  0  0  0  0  0  0  0  0  0  0  0
   63.7450   33.4040   47.1230 C   0  0  0  0  0  0  0  0  0  0  0  0
   62.4900   33.8170   46.6740 C   0  0  0  0  0  0  0  0  0  0  0  0
   61.3280   33.6070   47.4490 C   0  0  0  0  0  0  0  0  0  0  0  0
   60.0090   34.1220   46.9550 C   0  0  0  0  0  0  0  0  0  0  0  0
   59.1880   34.6410   47.7570 O   0  0  0  0  0  0  0  0  0  0  0  0
   59.6540   34.0600   45.5650 N   0  0  0  0  0  0  0  0  0  0  0  0
   58.2550   33.9330   45.1500 C   0  0  0  0  0  0  0  0  0  0  0  0
   58.1280   33.2730   43.7700 C   0  0  0  0  0  0  0  0  0  0  0  0
   57.5650   31.8770   43.8570 C   0  0  0  0  0  0  0  0  0  0  0  0
   57.5690   31.1890   45.0830 C   0  0  0  0  0  0  0  0  0  0  0  0
   57.0150   29.9070   45.1720 C   0  0  0  0  0  0  0  0  0  0  0  0
   56.4780   29.2940   44.0390 C   0  0  0  0  0  0  0  0  0  0  0  0
   56.4880   29.9630   42.8120 C   0  0  0  0  0  0  0  0  0  0  0  0
   57.0250   31.2510   42.7190 C   0  0  0  0  0  0  0  0  0  0  0  0
   59.2650   30.5840   48.3910 C   0  0  0  0  0  0  0  0  0  0  0  0
   58.6260   29.4190   48.8490 C   0  0  0  0  0  0  0  0  0  0  0  0
   58.6560   28.2470   48.0900 C   0  0  0  0  0  0  0  0  0  0  0  0
   59.3230   28.2170   46.8570 C   0  0  0  0  0  0  0  0  0  0  0  0
   59.3200   26.9590   46.0340 C   0  0  0  0  0  0  0  0  0  0  0  0
   58.0690   26.8800   45.2720 N   0  0  0  0  0  0  0  0  0  0  0  0
   56.9290   25.8080   46.0280 S   0  0  0  0  0  0  0  0  0  0  0  0
   57.3680   25.5400   47.4420 O   0  0  0  0  0  0  0  0  0  0  0  0
   55.5770   26.4640   46.0460 O   0  0  0  0  0  0  0  0  0  0  0  0
   56.8270   24.2930   45.1350 C   0  0  0  0  0  0  0  0  0  0  0  0
   56.6380   24.3020   43.7450 C   0  0  0  0  0  0  0  0  0  0  0  0
   56.5650   23.0980   43.0410 C   0  0  0  0  0  0  0  0  0  0  0  0
   56.6600   21.8800   43.7190 C   0  0  0  0  0  0  0  0  0  0  0  0
   56.8270   21.8650   45.1070 C   0  0  0  0  0  0  0  0  0  0  0  0
   56.9360   20.2000   46.0370 Br  0  0  0  0  0  0  0  0  0  0  0  0
   56.9120   23.0690   45.8150 C   0  0  0  0  0  0  0  0  0  0  0  0
   59.9840   29.3710   46.4080 C   0  0  0  0  0  0  0  0  0  0  0  0
   59.9650   30.5420   47.1730 C   0  0  0  0  0  0  0  0  0  0  0  0
   62.8591   32.0732   50.1271 H   0  0  0  0  0  0  0  0  0  0  0  0
   64.8692   32.4804   48.7236 H   0  0  0  0  0  0  0  0  0  0  0  0
   64.6333   33.5683   46.4954 H   0  0  0  0  0  0  0  0  0  0  0  0
   62.4040   34.3159   45.6974 H   0  0  0  0  0  0  0  0  0  0  0  0
   60.3900   34.2040   44.8410 H   0  0  0  0  0  0  0  0  0  0  0  0
   57.7186   33.3196   45.8889 H   0  0  0  0  0  0  0  0  0  0  0  0
   57.8237   34.9430   45.0872 H   0  0  0  0  0  0  0  0  0  0  0  0
   57.4621   33.8853   43.1442 H   0  0  0  0  0  0  0  0  0  0  0  0
   59.1355   33.2047   43.3339 H   0  0  0  0  0  0  0  0  0  0  0  0
   58.0088   31.6596   45.9747 H   0  0  0  0  0  0  0  0  0  0  0  0
   57.0027   29.3808   46.1379 H   0  0  0  0  0  0  0  0  0  0  0  0
   56.0470   28.2846   44.1117 H   0  0  0  0  0  0  0  0  0  0  0  0
   56.0727   29.4755   41.9176 H   0  0  0  0  0  0  0  0  0  0  0  0
   57.0251   31.7763   41.7525 H   0  0  0  0  0  0  0  0  0  0  0  0
   58.0976   29.4304   49.8137 H   0  0  0  0  0  0  0  0  0  0  0  0
   58.1533   27.3420   48.4617 H   0  0  0  0  0  0  0  0  0  0  0  0
   60.1729   26.9725   45.3394 H   0  0  0  0  0  0  0  0  0  0  0  0
   59.4029   26.0852   46.6970 H   0  0  0  0  0  0  0  0  0  0  0  0
   56.5472   25.2583   43.2090 H   0  0  0  0  0  0  0  0  0  0  0  0
   56.4323   23.1086   41.9491 H   0  0  0  0  0  0  0  0  0  0  0  0
   56.6034   20.9336   43.1611 H   0  0  0  0  0  0  0  0  0  0  0  0
   57.0457   23.0556   46.9068 H   0  0  0  0  0  0  0  0  0  0  0  0
   60.5207   29.3544   45.4479 H   0  0  0  0  0  0  0  0  0  0  0  0
   60.5010   31.4351   46.8192 H   0  0  0  0  0  0  0  0  0  0  0  0
  1  2  2  0
  2  3  1  0
  3  4  1  0
  4  5  2  0
  5  6  1  0
  6  7  2  0
  7  8  1  0
  8  9  2  0
  9 10  1  0
 10 11  2  0
 10 12  1  0
 12 13  1  0
 13 14  1  0
 14 15  1  0
 15 16  2  0
 16 17  1  0
 17 18  2  0
 18 19  1  0
 19 20  2  0
  2 21  1  0
 21 22  2  0
 22 23  1  0
 23 24  2  0
 24 25  1  0
 25 26  1  0
 26 27  1  0
 27 28  2  0
 27 29  2  0
 27 30  1  0
 30 31  2  0
 31 32  1  0
 32 33  2  0
 33 34  1  0
 34 35  1  0
 34 36  2  0
 24 37  1  0
 37 38  2  0
  9  4  1  0
 20 15  1  0
 38 21  1  0
 36 30  1  0
  5 39  1  0
  6 40  1  0
  7 41  1  0
  8 42  1  0
 12 43  1  0
 13 44  1  0
 13 45  1  0
 14 46  1  0
 14 47  1  0
 16 48  1  0
 17 49  1  0
 18 50  1  0
 19 51  1  0
 20 52  1  0
 22 53  1  0
 23 54  1  0
 25 55  1  0
 25 56  1  0
 31 57  1  0
 32 58  1  0
 33 59  1  0
 36 60  1  0
 37 61  1  0
 38 62  1  0
M  CHG  2   3  -1  26  -1
M  END
>  <UniqueID>  (13) 
11

>  <SMILES>  (13) 
O=C([N-]c1ccccc1C(=O)NCCc1ccccc1)c1ccc(C[N-]S(=O)(=O)c2cccc(Br)c2)cc1

>  <Energy>  (13) 
71.65687099806107

>  <Genealogy>  (13) 
O=C([N-]c1ccccc1C(=O)NCCc1ccccc1)c1ccc(C[N-]S(=O)(=O)c2cccc(Br)c2)cc1 (protonated)
O=C([N-]c1ccccc1C(=O)NCCc1ccccc1)c1ccc(C[N-]S(=O)(=O)c2cccc(Br)c2)cc1 (3D coordinates assigned)
O=C([N-]c1ccccc1C(=O)NCCc1ccccc1)c1ccc(C[N-]S(=O)(=O)c2cccc(Br)c2)cc1 (optimized conformer: 71.65687099806107 kcal/mol)

>  <smiles>  (13) 
O=C(Nc1ccccc1C(=O)NCCc1ccccc1)c1ccc(CNS(=O)(=O)c2cccc(Br)c2)cc1

>  <score_type>  (13) 
oracle

>  <origin>  (13) 
adg

>  <m_score__min__energy>  (13) 
-12.74

>  <m_primary>  (13) 
energy

$$$$
13:0
     RDKit          3D

 37 40  0  0  0  0  0  0  0  0999 V2000
   58.1120   26.0780   47.4690 O   0  0  0  0  0  0  0  0  0  0  0  0
   57.9250   27.1880   46.9040 C   0  0  0  0  0  0  0  0  0  0  0  0
   58.8340   28.1470   47.0460 O   0  0  0  0  0  0  0  0  0  0  0  0
   58.7010   29.3620   46.5170 C   0  0  0  0  0  0  0  0  0  0  0  0
   57.5420   29.6830   45.7780 C   0  0  0  0  0  0  0  0  0  0  0  0
   57.3980   30.9600   45.2230 C   0  0  0  0  0  0  0  0  0  0  0  0
   58.3970   31.9310   45.3790 C   0  0  0  0  0  0  0  0  0  0  0  0
   58.2240   33.2030   44.7340 N   0  0  0  0  0  0  0  0  0  0  0  0
   58.5160   33.3370   43.5280 O   0  0  0  0  0  0  0  0  0  0  0  0
   57.4870   34.1880   45.3520 O   0  0  0  0  0  0  0  0  0  0  0  0
   59.5520   31.6310   46.1450 C   0  0  0  0  0  0  0  0  0  0  0  0
   60.5440   32.6020   46.4010 C   0  0  0  0  0  0  0  0  0  0  0  0
   61.6770   32.2830   47.1510 C   0  0  0  0  0  0  0  0  0  0  0  0
   61.8380   31.0010   47.6690 C   0  0  0  0  0  0  0  0  0  0  0  0
   60.8590   30.0310   47.4550 C   0  0  0  0  0  0  0  0  0  0  0  0
   59.7060   30.3320   46.7040 C   0  0  0  0  0  0  0  0  0  0  0  0
   56.5600   28.6920   45.6090 C   0  0  0  0  0  0  0  0  0  0  0  0
   55.3950   28.9590   44.8960 O   0  0  0  0  0  0  0  0  0  0  0  0
   56.7620   27.4200   46.1510 C   0  0  0  0  0  0  0  0  0  0  0  0
   55.7520   26.4100   45.9890 N   0  0  0  0  0  0  0  0  0  0  0  0
   55.8770   25.1790   46.3130 N   0  0  0  0  0  0  0  0  0  0  0  0
   56.4260   24.1430   45.4800 C   0  0  0  0  0  0  0  0  0  0  0  0
   55.7420   23.7750   44.3140 C   0  0  0  0  0  0  0  0  0  0  0  0
   56.2660   22.7930   43.4680 C   0  0  0  0  0  0  0  0  0  0  0  0
   57.4890   22.1870   43.7720 C   0  0  0  0  0  0  0  0  0  0  0  0
   58.1940   22.5730   44.9150 C   0  0  0  0  0  0  0  0  0  0  0  0
   57.6730   23.5550   45.7620 C   0  0  0  0  0  0  0  0  0  0  0  0
   56.4877   31.2051   44.6562 H   0  0  0  0  0  0  0  0  0  0  0  0
   60.4228   33.6211   46.0051 H   0  0  0  0  0  0  0  0  0  0  0  0
   62.4461   33.0480   47.3336 H   0  0  0  0  0  0  0  0  0  0  0  0
   62.7394   30.7524   48.2484 H   0  0  0  0  0  0  0  0  0  0  0  0
   60.9883   29.0230   47.8760 H   0  0  0  0  0  0  0  0  0  0  0  0
   54.7878   24.2612   44.0629 H   0  0  0  0  0  0  0  0  0  0  0  0
   55.7159   22.4969   42.5626 H   0  0  0  0  0  0  0  0  0  0  0  0
   57.8958   21.4069   43.1117 H   0  0  0  0  0  0  0  0  0  0  0  0
   59.1608   22.1031   45.1486 H   0  0  0  0  0  0  0  0  0  0  0  0
   58.2391   23.8691   46.6513 H   0  0  0  0  0  0  0  0  0  0  0  0
  1  2  2  0
  2  3  1  0
  3  4  1  0
  4  5  2  0
  5  6  1  0
  6  7  2  0
  7  8  1  0
  8  9  2  0
  8 10  1  0
  7 11  1  0
 11 12  2  0
 12 13  1  0
 13 14  2  0
 14 15  1  0
 15 16  2  0
  5 17  1  0
 17 18  1  0
 17 19  2  0
 19 20  1  0
 20 21  2  3
 21 22  1  0
 22 23  2  0
 23 24  1  0
 24 25  2  0
 25 26  1  0
 26 27  2  0
 19  2  1  0
 27 22  1  0
 16  4  1  0
 16 11  1  0
  6 28  1  0
 12 29  1  0
 13 30  1  0
 14 31  1  0
 15 32  1  0
 23 33  1  0
 24 34  1  0
 25 35  1  0
 26 36  1  0
 27 37  1  0
M  CHG  3   8   1  10  -1  18  -1
M  END
>  <UniqueID>  (14) 
12

>  <SMILES>  (14) 
O=c1oc2c(cc([N+](=O)[O-])c3ccccc32)c([O-])c1N=Nc1ccccc1

>  <Energy>  (14) 
72.81029164570833

>  <Genealogy>  (14) 
O=c1oc2c(cc([N+](=O)[O-])c3ccccc32)c([O-])c1N=Nc1ccccc1 (protonated)
O=c1oc2c(cc([N+](=O)[O-])c3ccccc32)c([O-])c1N=Nc1ccccc1 (3D coordinates assigned)
O=c1oc2c(cc([N+](=O)[O-])c3ccccc32)c([O-])c1N=Nc1ccccc1 (optimized conformer: 72.81029164570833 kcal/mol)

>  <smiles>  (14) 
O=c1oc2c(cc([N+](=O)[O-])c3ccccc32)c(O)c1N=Nc1ccccc1

>  <score_type>  (14) 
oracle

>  <origin>  (14) 
adg

>  <m_score__min__energy>  (14) 
-10.869999999999999

>  <m_primary>  (14) 
energy

$$$$
14:0
     RDKit          3D

 40 42  0  0  0  0  0  0  0  0999 V2000
   55.6010   29.0000   44.7900 O   0  0  0  0  0  0  0  0  0  0  0  0
   56.5150   29.8500   44.9620 C   0  0  0  0  0  0  0  0  0  0  0  0
   56.2340   31.2270   44.6700 N   0  0  0  0  0  0  0  0  0  0  0  0
   57.1070   32.3400   44.9120 C   0  0  0  0  0  0  0  0  0  0  0  0
   57.0280   33.0990   46.0950 C   0  0  0  0  0  0  0  0  0  0  0  0
   57.8920   34.1790   46.2960 C   0  0  0  0  0  0  0  0  0  0  0  0
   58.8260   34.5200   45.3140 C   0  0  0  0  0  0  0  0  0  0  0  0
   58.8920   33.7870   44.1270 C   0  0  0  0  0  0  0  0  0  0  0  0
   58.0310   32.7040   43.9230 C   0  0  0  0  0  0  0  0  0  0  0  0
   57.8560   29.3960   45.4020 C   0  0  0  0  0  0  0  0  0  0  0  0
   58.4190   28.2280   44.8580 C   0  0  0  0  0  0  0  0  0  0  0  0
   59.6810   27.7950   45.2670 C   0  0  0  0  0  0  0  0  0  0  0  0
   60.3980   28.5230   46.2210 C   0  0  0  0  0  0  0  0  0  0  0  0
   59.8560   29.6920   46.7670 C   0  0  0  0  0  0  0  0  0  0  0  0
   60.7750   30.6080   47.9580 S   0  0  0  0  0  0  0  0  0  0  0  0
   61.4430   29.6380   48.8910 O   0  0  0  0  0  0  0  0  0  0  0  0
   59.8480   31.4820   48.7590 O   0  0  0  0  0  0  0  0  0  0  0  0
   61.9850   31.5830   47.1520 N   0  0  0  0  0  0  0  0  0  0  0  0
   61.4480   32.9070   46.8220 C   0  0  0  0  0  0  0  0  0  0  0  0
   61.7880   33.8540   47.9630 C   0  0  0  0  0  0  0  0  0  0  0  0
   62.8770   33.1580   48.7570 C   0  0  0  0  0  0  0  0  0  0  0  0
   63.1190   31.8350   48.0480 C   0  0  0  0  0  0  0  0  0  0  0  0
   58.5930   30.1340   46.3450 C   0  0  0  0  0  0  0  0  0  0  0  0
   56.2842   32.8413   46.8633 H   0  0  0  0  0  0  0  0  0  0  0  0
   57.8368   34.7610   47.2278 H   0  0  0  0  0  0  0  0  0  0  0  0
   59.5097   35.3663   45.4760 H   0  0  0  0  0  0  0  0  0  0  0  0
   59.6222   34.0619   43.3516 H   0  0  0  0  0  0  0  0  0  0  0  0
   58.0792   32.1355   42.9825 H   0  0  0  0  0  0  0  0  0  0  0  0
   57.8611   27.6519   44.1052 H   0  0  0  0  0  0  0  0  0  0  0  0
   60.1126   26.8788   44.8377 H   0  0  0  0  0  0  0  0  0  0  0  0
   61.3908   28.1761   46.5434 H   0  0  0  0  0  0  0  0  0  0  0  0
   61.9013   33.2708   45.8881 H   0  0  0  0  0  0  0  0  0  0  0  0
   60.3580   32.8522   46.6848 H   0  0  0  0  0  0  0  0  0  0  0  0
   62.1531   34.8142   47.5697 H   0  0  0  0  0  0  0  0  0  0  0  0
   60.9082   34.0759   48.5849 H   0  0  0  0  0  0  0  0  0  0  0  0
   63.7950   33.7641   48.7625 H   0  0  0  0  0  0  0  0  0  0  0  0
   62.5831   33.0092   49.8065 H   0  0  0  0  0  0  0  0  0  0  0  0
   64.0500   31.8896   47.4646 H   0  0  0  0  0  0  0  0  0  0  0  0
   63.2124   31.0211   48.7821 H   0  0  0  0  0  0  0  0  0  0  0  0
   58.1760   31.0655   46.7553 H   0  0  0  0  0  0  0  0  0  0  0  0
  1  2  2  0
  2  3  1  0
  3  4  1  0
  4  5  2  0
  5  6  1  0
  6  7  2  0
  7  8  1  0
  8  9  2  0
  2 10  1  0
 10 11  2  0
 11 12  1  0
 12 13  2  0
 13 14  1  0
 14 15  1  0
 15 16  2  0
 15 17  2  0
 15 18  1  0
 18 19  1  0
 19 20  1  0
 20 21  1  0
 21 22  1  0
 14 23  2  0
  9  4  1  0
 23 10  1  0
 22 18  1  0
  5 24  1  0
  6 25  1  0
  7 26  1  0
  8 27  1  0
  9 28  1  0
 11 29  1  0
 12 30  1  0
 13 31  1  0
 19 32  1  0
 19 33  1  0
 20 34  1  0
 20 35  1  0
 21 36  1  0
 21 37  1  0
 22 38  1  0
 22 39  1  0
 23 40  1  0
M  CHG  1   3  -1
M  END
>  <UniqueID>  (15) 
13

>  <SMILES>  (15) 
O=C([N-]c1ccccc1)c1cccc(S(=O)(=O)N2CCCC2)c1

>  <Energy>  (15) 
48.68697071667965

>  <Genealogy>  (15) 
O=C([N-]c1ccccc1)c1cccc(S(=O)(=O)N2CCCC2)c1 (protonated)
O=C([N-]c1ccccc1)c1cccc(S(=O)(=O)N2CCCC2)c1 (3D coordinates assigned)
O=C([N-]c1ccccc1)c1cccc(S(=O)(=O)N2CCCC2)c1 (nonaromatic ring conformer: 48.68697071667965 kcal/mol)

>  <smiles>  (15) 
O=C(Nc1ccccc1)c1cccc(S(=O)(=O)N2CCCC2)c1

>  <score_type>  (15) 
oracle

>  <origin>  (15) 
adg

>  <m_score__min__energy>  (15) 
-10.56

>  <m_primary>  (15) 
energy

$$$$
15:0
     RDKit          3D

 34 35  0  0  0  0  0  0  0  0999 V2000
   59.2400   34.1280   44.5260 C   0  0  0  0  0  0  0  0  0  0  0  0
   58.5050   34.6030   45.7110 N   0  0  0  0  0  0  0  0  0  0  0  0
   57.2380   33.8660   45.8340 C   0  0  0  0  0  0  0  0  0  0  0  0
   59.3180   34.4500   46.9390 C   0  0  0  0  0  0  0  0  0  0  0  0
   58.8840   33.2110   47.7310 C   0  0  0  0  0  0  0  0  0  0  0  0
   59.6250   31.9880   47.2720 C   0  0  0  0  0  0  0  0  0  0  0  0
   60.9510   31.6750   47.5530 C   0  0  0  0  0  0  0  0  0  0  0  0
   61.3180   30.5480   46.9020 N   0  0  0  0  0  0  0  0  0  0  0  0
   60.2390   30.1560   46.2020 C   0  0  0  0  0  0  0  0  0  0  0  0
   60.1420   29.0610   45.3490 C   0  0  0  0  0  0  0  0  0  0  0  0
   58.9210   28.8490   44.6850 C   0  0  0  0  0  0  0  0  0  0  0  0
   57.8190   29.7230   44.8850 C   0  0  0  0  0  0  0  0  0  0  0  0
   56.5460   29.4820   44.1610 C   0  0  0  0  0  0  0  0  0  0  0  0
   56.5080   29.3480   42.7370 N   0  0  0  0  0  0  0  0  0  0  0  0
   55.4670   29.4040   44.8080 O   0  0  0  0  0  0  0  0  0  0  0  0
   57.9620   30.8300   45.7550 C   0  0  0  0  0  0  0  0  0  0  0  0
   59.1870   31.0100   46.4000 C   0  0  0  0  0  0  0  0  0  0  0  0
   60.1236   33.5570   44.8472 H   0  0  0  0  0  0  0  0  0  0  0  0
   58.5851   33.4818   43.9230 H   0  0  0  0  0  0  0  0  0  0  0  0
   59.5601   34.9905   43.9230 H   0  0  0  0  0  0  0  0  0  0  0  0
   56.9971   33.7259   46.8981 H   0  0  0  0  0  0  0  0  0  0  0  0
   56.4331   34.4368   45.3479 H   0  0  0  0  0  0  0  0  0  0  0  0
   57.3363   32.8841   45.3479 H   0  0  0  0  0  0  0  0  0  0  0  0
   60.3768   34.3462   46.6594 H   0  0  0  0  0  0  0  0  0  0  0  0
   59.1729   35.3393   47.5699 H   0  0  0  0  0  0  0  0  0  0  0  0
   59.0908   33.3766   48.7986 H   0  0  0  0  0  0  0  0  0  0  0  0
   57.8085   33.0501   47.5656 H   0  0  0  0  0  0  0  0  0  0  0  0
   61.6082   32.2615   48.2118 H   0  0  0  0  0  0  0  0  0  0  0  0
   62.2570   30.0910   46.9230 H   0  0  0  0  0  0  0  0  0  0  0  0
   60.9944   28.3821   45.1988 H   0  0  0  0  0  0  0  0  0  0  0  0
   58.8175   27.9940   44.0007 H   0  0  0  0  0  0  0  0  0  0  0  0
   57.3360   29.5590   42.1420 H   0  0  0  0  0  0  0  0  0  0  0  0
   55.6070   29.1180   42.2620 H   0  0  0  0  0  0  0  0  0  0  0  0
   57.1297   31.5303   45.9187 H   0  0  0  0  0  0  0  0  0  0  0  0
  1  2  1  0
  2  3  1  0
  2  4  1  0
  4  5  1  0
  5  6  1  0
  6  7  2  0
  7  8  1  0
  8  9  1  0
  9 10  2  0
 10 11  1  0
 11 12  2  0
 12 13  1  0
 13 14  1  0
 13 15  2  0
 12 16  1  0
 16 17  2  0
 17  6  1  0
 17  9  1  0
  1 18  1  0
  1 19  1  0
  1 20  1  0
  3 21  1  0
  3 22  1  0
  3 23  1  0
  4 24  1  0
  4 25  1  0
  5 26  1  0
  5 27  1  0
  7 28  1  0
  8 29  1  0
 10 30  1  0
 11 31  1  0
 14 32  1  0
 14 33  1  0
 16 34  1  0
M  END
>  <UniqueID>  (16) 
14

>  <SMILES>  (16) 
CN(C)CCc1c[nH]c2ccc(C(N)=O)cc12

>  <Energy>  (16) 
64.70689213778091

>  <Genealogy>  (16) 
CN(C)CCc1c[nH]c2ccc(C(N)=O)cc12 (3D coordinates assigned)
CN(C)CCc1c[nH]c2ccc(C(N)=O)cc12 (optimized conformer: 64.70689213778091 kcal/mol)

>  <smiles>  (16) 
CN(C)CCc1c[nH]c2ccc(C(N)=O)cc12

>  <score_type>  (16) 
oracle

>  <origin>  (16) 
adg

>  <m_score__min__energy>  (16) 
-6.79

>  <m_primary>  (16) 
energy

$$$$
16:0
     RDKit          3D

 48 52  0  0  0  0  0  0  0  0999 V2000
   59.6870   32.2910   46.0390 O   0  0  0  0  0  0  0  0  0  0  0  0
   59.8780   31.1530   46.5510 C   0  0  0  0  0  0  0  0  0  0  0  0
   60.8360   30.9910   47.5760 C   0  0  0  0  0  0  0  0  0  0  0  0
   61.6880   32.1090   48.0540 C   0  0  0  0  0  0  0  0  0  0  0  0
   61.2210   32.9550   49.0750 C   0  0  0  0  0  0  0  0  0  0  0  0
   62.0180   34.0010   49.5480 C   0  0  0  0  0  0  0  0  0  0  0  0
   63.2930   34.2050   49.0160 C   0  0  0  0  0  0  0  0  0  0  0  0
   63.7750   33.3610   48.0140 C   0  0  0  0  0  0  0  0  0  0  0  0
   62.9810   32.3130   47.5370 C   0  0  0  0  0  0  0  0  0  0  0  0
   60.9700   29.7740   48.1670 N   0  0  0  0  0  0  0  0  0  0  0  0
   60.2260   28.7120   47.7750 C   0  0  0  0  0  0  0  0  0  0  0  0
   60.3750   27.4640   48.3770 C   0  0  0  0  0  0  0  0  0  0  0  0
   59.6230   26.4180   47.9490 N   0  0  0  0  0  0  0  0  0  0  0  0
   58.7200   26.5580   46.9380 C   0  0  0  0  0  0  0  0  0  0  0  0
   57.9290   25.4320   46.5020 N   0  0  0  0  0  0  0  0  0  0  0  0
   57.0230   24.7660   47.4460 C   0  0  0  0  0  0  0  0  0  0  0  0
   56.7220   23.3360   46.9850 C   0  0  0  0  0  0  0  0  0  0  0  0
   56.3030   23.3210   45.6350 O   0  0  0  0  0  0  0  0  0  0  0  0
   57.3730   23.7290   44.8060 C   0  0  0  0  0  0  0  0  0  0  0  0
   57.7340   25.1940   45.0640 C   0  0  0  0  0  0  0  0  0  0  0  0
   58.5660   27.7740   46.3460 N   0  0  0  0  0  0  0  0  0  0  0  0
   59.2910   28.8580   46.7400 C   0  0  0  0  0  0  0  0  0  0  0  0
   59.1270   30.0780   46.1390 N   0  0  0  0  0  0  0  0  0  0  0  0
   58.1590   30.2370   45.0800 C   0  0  0  0  0  0  0  0  0  0  0  0
   58.4490   31.0450   43.9680 C   0  0  0  0  0  0  0  0  0  0  0  0
   57.5050   31.2080   42.9510 C   0  0  0  0  0  0  0  0  0  0  0  0
   56.2670   30.5650   43.0350 C   0  0  0  0  0  0  0  0  0  0  0  0
   55.9710   29.7560   44.1370 C   0  0  0  0  0  0  0  0  0  0  0  0
   54.7700   29.1340   44.2170 F   0  0  0  0  0  0  0  0  0  0  0  0
   56.9140   29.5920   45.1570 C   0  0  0  0  0  0  0  0  0  0  0  0
   60.2214   32.7926   49.5045 H   0  0  0  0  0  0  0  0  0  0  0  0
   61.6406   34.6643   50.3402 H   0  0  0  0  0  0  0  0  0  0  0  0
   63.9177   35.0311   49.3867 H   0  0  0  0  0  0  0  0  0  0  0  0
   64.7811   33.5204   47.5988 H   0  0  0  0  0  0  0  0  0  0  0  0
   63.3690   31.6450   46.7540 H   0  0  0  0  0  0  0  0  0  0  0  0
   61.0981   27.3272   49.1946 H   0  0  0  0  0  0  0  0  0  0  0  0
   57.4950   24.7341   48.4391 H   0  0  0  0  0  0  0  0  0  0  0  0
   56.0799   25.3304   47.4915 H   0  0  0  0  0  0  0  0  0  0  0  0
   57.6312   22.7254   47.0871 H   0  0  0  0  0  0  0  0  0  0  0  0
   55.9138   22.9273   47.6093 H   0  0  0  0  0  0  0  0  0  0  0  0
   58.2507   23.0995   45.0143 H   0  0  0  0  0  0  0  0  0  0  0  0
   57.0650   23.6220   43.7554 H   0  0  0  0  0  0  0  0  0  0  0  0
   58.6630   25.4375   44.5277 H   0  0  0  0  0  0  0  0  0  0  0  0
   56.9113   25.8308   44.7069 H   0  0  0  0  0  0  0  0  0  0  0  0
   59.4230   31.5513   43.8977 H   0  0  0  0  0  0  0  0  0  0  0  0
   57.7364   31.8431   42.0832 H   0  0  0  0  0  0  0  0  0  0  0  0
   55.5247   30.6952   42.2338 H   0  0  0  0  0  0  0  0  0  0  0  0
   56.6794   28.9553   46.0228 H   0  0  0  0  0  0  0  0  0  0  0  0
  1  2  2  0
  2  3  1  0
  3  4  1  0
  4  5  2  0
  5  6  1  0
  6  7  2  0
  7  8  1  0
  8  9  2  0
  3 10  2  0
 10 11  1  0
 11 12  2  0
 12 13  1  0
 13 14  2  0
 14 15  1  0
 15 16  1  0
 16 17  1  0
 17 18  1  0
 18 19  1  0
 19 20  1  0
 14 21  1  0
 21 22  2  0
 22 23  1  0
 23 24  1  0
 24 25  2  0
 25 26  1  0
 26 27  2  0
 27 28  1  0
 28 29  1  0
 28 30  2  0
 23  2  1  0
 30 24  1  0
  9  4  1  0
 22 11  1  0
 20 15  1  0
  5 31  1  0
  6 32  1  0
  7 33  1  0
  8 34  1  0
  9 35  1  0
 12 36  1  0
 16 37  1  0
 16 38  1  0
 17 39  1  0
 17 40  1  0
 19 41  1  0
 19 42  1  0
 20 43  1  0
 20 44  1  0
 25 45  1  0
 26 46  1  0
 27 47  1  0
 30 48  1  0
M  END
>  <UniqueID>  (17) 
15

>  <SMILES>  (17) 
O=c1c(-c2ccccc2)nc2cnc(N3CCOCC3)nc2n1-c1cccc(F)c1

>  <Energy>  (17) 
75.3819302133795

>  <Genealogy>  (17) 
O=c1c(-c2ccccc2)nc2cnc(N3CCOCC3)nc2n1-c1cccc(F)c1 (3D coordinates assigned)
O=c1c(-c2ccccc2)nc2cnc(N3CCOCC3)nc2n1-c1cccc(F)c1 (nonaromatic ring conformer: 75.3819302133795 kcal/mol)

>  <smiles>  (17) 
O=c1c(-c2ccccc2)nc2cnc(N3CCOCC3)nc2n1-c1cccc(F)c1

>  <score_type>  (17) 
oracle

>  <origin>  (17) 
adg

>  <m_score__min__energy>  (17) 
-7.6399999999999997

>  <m_primary>  (17) 
energy

$$$$
17:0
     RDKit          3D

 20 22  0  0  0  0  0  0  0  0999 V2000
   55.7180   25.6000   46.3740 O   0  0  0  0  0  0  0  0  0  0  0  0
   56.7880   26.2400   46.5500 C   0  0  0  0  0  0  0  0  0  0  0  0
   57.8040   25.7010   47.2880 N   0  0  0  0  0  0  0  0  0  0  0  0
   58.9820   26.3670   47.5010 C   0  0  0  0  0  0  0  0  0  0  0  0
   59.1880   27.6480   46.9570 C   0  0  0  0  0  0  0  0  0  0  0  0
   58.1490   28.1890   46.2080 C   0  0  0  0  0  0  0  0  0  0  0  0
   56.9690   27.5080   46.0020 C   0  0  0  0  0  0  0  0  0  0  0  0
   56.1030   28.2220   45.2460 N   0  0  0  0  0  0  0  0  0  0  0  0
   56.7610   29.3710   44.9780 C   0  0  0  0  0  0  0  0  0  0  0  0
   56.3110   30.4540   44.2300 C   0  0  0  0  0  0  0  0  0  0  0  0
   57.1440   31.5260   44.0800 N   0  0  0  0  0  0  0  0  0  0  0  0
   58.3960   31.5620   44.6400 C   0  0  0  0  0  0  0  0  0  0  0  0
   58.8700   30.4760   45.4000 C   0  0  0  0  0  0  0  0  0  0  0  0
   58.0130   29.3890   45.5470 C   0  0  0  0  0  0  0  0  0  0  0  0
   59.7736   25.8962   48.1025 H   0  0  0  0  0  0  0  0  0  0  0  0
   60.1280   28.1965   47.1169 H   0  0  0  0  0  0  0  0  0  0  0  0
   55.1430   27.9480   44.9390 H   0  0  0  0  0  0  0  0  0  0  0  0
   55.3111   30.4473   43.7716 H   0  0  0  0  0  0  0  0  0  0  0  0
   59.0341   32.4460   44.4940 H   0  0  0  0  0  0  0  0  0  0  0  0
   59.8708   30.4859   45.8564 H   0  0  0  0  0  0  0  0  0  0  0  0
  1  2  2  0
  2  3  1  0
  3  4  1  0
  4  5  2  0
  5  6  1  0
  6  7  2  0
  7  8  1  0
  8  9  1  0
  9 10  2  0
 10 11  1  0
 11 12  2  0
 12 13  1  0
 13 14  2  0
  7  2  1  0
 14  9  1  0
 14  6  1  0
  4 15  1  0
  5 16  1  0
  8 17  1  0
 10 18  1  0
 12 19  1  0
 13 20  1  0
M  CHG  1   3  -1
M  END
>  <UniqueID>  (18) 
16

>  <SMILES>  (18) 
O=c1[n-]ccc2c1[nH]c1cnccc12

>  <Energy>  (18) 
67.00902703869201

>  <Genealogy>  (18) 
O=c1[n-]ccc2c1[nH]c1cnccc12 (protonated)
O=c1[n-]ccc2c1[nH]c1cnccc12 (3D coordinates assigned)
O=c1[n-]ccc2c1[nH]c1cnccc12 (optimized conformer: 67.00902703869201 kcal/mol)

>  <smiles>  (18) 
O=c1[nH]ccc2c1[nH]c1cnccc12

>  <score_type>  (18) 
oracle

>  <origin>  (18) 
adg

>  <m_score__min__energy>  (18) 
-8.6799999999999997

>  <m_primary>  (18) 
energy

$$$$
18:0
     RDKit          3D

 54 57  0  0  0  0  0  0  0  0999 V2000
   59.5650   27.8830   44.7050 O   0  0  0  0  0  0  0  0  0  0  0  0
   58.4340   27.3670   44.9270 C   0  0  0  0  0  0  0  0  0  0  0  0
   57.2390   28.0450   44.5230 N   0  0  0  0  0  0  0  0  0  0  0  0
   57.2580   29.2570   43.7040 C   0  0  0  0  0  0  0  0  0  0  0  0
   57.4670   30.4710   44.5700 C   0  0  0  0  0  0  0  0  0  0  0  0
   57.8400   30.3370   45.9160 C   0  0  0  0  0  0  0  0  0  0  0  0
   58.1300   31.4690   46.6850 C   0  0  0  0  0  0  0  0  0  0  0  0
   58.0720   32.7430   46.1100 C   0  0  0  0  0  0  0  0  0  0  0  0
   58.4920   33.8800   46.8770 N   0  0  0  0  0  0  0  0  0  0  0  0
   59.7530   34.5480   46.7190 C   0  0  0  0  0  0  0  0  0  0  0  0
   59.8540   35.4570   45.8530 O   0  0  0  0  0  0  0  0  0  0  0  0
   60.9220   34.2140   47.5680 C   0  0  0  0  0  0  0  0  0  0  0  0
   62.1380   33.8110   46.9970 C   0  0  0  0  0  0  0  0  0  0  0  0
   63.2450   33.5580   47.8060 C   0  0  0  0  0  0  0  0  0  0  0  0
   63.1320   33.6930   49.2000 C   0  0  0  0  0  0  0  0  0  0  0  0
   64.2620   33.4660   50.0700 N   0  0  0  0  0  0  0  0  0  0  0  0
   65.1590   32.3230   49.8560 C   0  0  0  0  0  0  0  0  0  0  0  0
   66.5510   32.6270   50.4170 C   0  0  0  0  0  0  0  0  0  0  0  0
   66.4680   33.0850   51.7520 O   0  0  0  0  0  0  0  0  0  0  0  0
   65.8020   34.3320   51.7830 C   0  0  0  0  0  0  0  0  0  0  0  0
   64.3400   34.1790   51.3510 C   0  0  0  0  0  0  0  0  0  0  0  0
   61.9290   34.0460   49.7330 N   0  0  0  0  0  0  0  0  0  0  0  0
   60.8370   34.2990   48.9650 C   0  0  0  0  0  0  0  0  0  0  0  0
   57.6370   32.8840   44.7820 C   0  0  0  0  0  0  0  0  0  0  0  0
   57.3350   31.7550   44.0180 C   0  0  0  0  0  0  0  0  0  0  0  0
   58.3340   26.1200   45.5540 O   0  0  0  0  0  0  0  0  0  0  0  0
   57.5360   25.8880   46.7130 C   0  0  0  0  0  0  0  0  0  0  0  0
   56.1890   25.3680   46.3240 C   0  0  0  0  0  0  0  0  0  0  0  0
   55.8070   24.0490   46.3030 C   0  0  0  0  0  0  0  0  0  0  0  0
   54.5390   23.9710   45.8640 N   0  0  0  0  0  0  0  0  0  0  0  0
   54.1920   25.2550   45.6280 C   0  0  0  0  0  0  0  0  0  0  0  0
   55.1760   26.1400   45.8920 N   0  0  0  0  0  0  0  0  0  0  0  0
   56.3170   27.6250   44.7770 H   0  0  0  0  0  0  0  0  0  0  0  0
   58.0769   29.1878   42.9728 H   0  0  0  0  0  0  0  0  0  0  0  0
   56.2938   29.3514   43.1830 H   0  0  0  0  0  0  0  0  0  0  0  0
   57.9047   29.3366   46.3689 H   0  0  0  0  0  0  0  0  0  0  0  0
   58.4043   31.3571   47.7444 H   0  0  0  0  0  0  0  0  0  0  0  0
   62.2187   33.6940   45.9062 H   0  0  0  0  0  0  0  0  0  0  0  0
   64.2015   33.2544   47.3555 H   0  0  0  0  0  0  0  0  0  0  0  0
   64.7478   31.4388   50.3651 H   0  0  0  0  0  0  0  0  0  0  0  0
   65.2427   32.1313   48.7761 H   0  0  0  0  0  0  0  0  0  0  0  0
   67.1591   31.7108   50.3877 H   0  0  0  0  0  0  0  0  0  0  0  0
   67.0129   33.4145   49.8034 H   0  0  0  0  0  0  0  0  0  0  0  0
   65.8354   34.7333   52.8066 H   0  0  0  0  0  0  0  0  0  0  0  0
   66.3056   35.0180   51.0860 H   0  0  0  0  0  0  0  0  0  0  0  0
   63.7923   33.6107   52.1172 H   0  0  0  0  0  0  0  0  0  0  0  0
   63.8939   35.1776   51.2338 H   0  0  0  0  0  0  0  0  0  0  0  0
   59.8833   34.5713   49.4407 H   0  0  0  0  0  0  0  0  0  0  0  0
   57.5339   33.8871   44.3424 H   0  0  0  0  0  0  0  0  0  0  0  0
   56.9922   31.8721   42.9793 H   0  0  0  0  0  0  0  0  0  0  0  0
   58.0374   25.1499   47.3562 H   0  0  0  0  0  0  0  0  0  0  0  0
   57.4090   26.8372   47.2541 H   0  0  0  0  0  0  0  0  0  0  0  0
   56.4359   23.1959   46.5973 H   0  0  0  0  0  0  0  0  0  0  0  0
   53.2003   25.5514   45.2555 H   0  0  0  0  0  0  0  0  0  0  0  0
  1  2  2  0
  2  3  1  0
  3  4  1  0
  4  5  1  0
  5  6  2  0
  6  7  1  0
  7  8  2  0
  8  9  1  0
  9 10  1  0
 10 11  2  0
 10 12  1  0
 12 13  2  0
 13 14  1  0
 14 15  2  0
 15 16  1  0
 16 17  1  0
 17 18  1  0
 18 19  1  0
 19 20  1  0
 20 21  1  0
 15 22  1  0
 22 23  2  0
  8 24  1  0
 24 25  2  0
  2 26  1  0
 26 27  1  0
 27 28  1  0
 28 29  2  0
 29 30  1  0
 30 31  1  0
 31 32  2  0
 25  5  1  0
 32 28  1  0
 23 12  1  0
 21 16  1  0
  3 33  1  0
  4 34  1  0
  4 35  1  0
  6 36  1  0
  7 37  1  0
 13 38  1  0
 14 39  1  0
 17 40  1  0
 17 41  1  0
 18 42  1  0
 18 43  1  0
 20 44  1  0
 20 45  1  0
 21 46  1  0
 21 47  1  0
 23 48  1  0
 24 49  1  0
 25 50  1  0
 27 51  1  0
 27 52  1  0
 29 53  1  0
 31 54  1  0
M  CHG  2   9  -1  30  -1
M  END
>  <UniqueID>  (19) 
17

>  <SMILES>  (19) 
O=C(NCc1ccc([N-]C(=O)c2ccc(N3CCOCC3)nc2)cc1)OCc1c[n-]cn1

>  <Energy>  (19) 
90.19600410814216

>  <Genealogy>  (19) 
O=C(NCc1ccc([N-]C(=O)c2ccc(N3CCOCC3)nc2)cc1)OCc1c[n-]cn1 (protonated)
O=C(NCc1ccc([N-]C(=O)c2ccc(N3CCOCC3)nc2)cc1)OCc1c[n-]cn1 (3D coordinates assigned)
O=C(NCc1ccc([N-]C(=O)c2ccc(N3CCOCC3)nc2)cc1)OCc1c[n-]cn1 (nonaromatic ring conformer: 90.19600410814216 kcal/mol)

>  <smiles>  (19) 
O=C(NCc1ccc(NC(=O)c2ccc(N3CCOCC3)nc2)cc1)OCc1c[nH]cn1

>  <score_type>  (19) 
oracle

>  <origin>  (19) 
adg

>  <m_score__min__energy>  (19) 
-11.380000000000001

>  <m_primary>  (19) 
energy

$$$$
19:0
     RDKit          3D

 47 50  0  0  0  0  0  0  0  0999 V2000
   55.0580   29.9620   52.3970 C   0  0  0  0  0  0  0  0  0  0  0  0
   56.3550   29.7250   51.8830 O   0  0  0  0  0  0  0  0  0  0  0  0
   57.2800   30.7630   51.8930 C   0  0  0  0  0  0  0  0  0  0  0  0
   56.8990   32.0170   52.2960 C   0  0  0  0  0  0  0  0  0  0  0  0
   57.7660   33.1020   52.3330 C   0  0  0  0  0  0  0  0  0  0  0  0
   59.0720   32.8770   51.9360 C   0  0  0  0  0  0  0  0  0  0  0  0
   60.1180   33.7260   51.8680 N   0  0  0  0  0  0  0  0  0  0  0  0
   61.1820   33.0260   51.4200 C   0  0  0  0  0  0  0  0  0  0  0  0
   62.7870   33.7740   51.1800 S   0  0  0  0  0  0  0  0  0  0  0  0
   62.8350   34.5740   49.5530 C   0  0  0  0  0  0  0  0  0  0  0  0
   61.9270   33.7770   48.6740 C   0  0  0  0  0  0  0  0  0  0  0  0
   62.3280   32.6190   48.0420 C   0  0  0  0  0  0  0  0  0  0  0  0
   61.3900   31.9820   47.2580 C   0  0  0  0  0  0  0  0  0  0  0  0
   60.1190   32.4360   47.0870 C   0  0  0  0  0  0  0  0  0  0  0  0
   59.1050   31.7910   46.2680 C   0  0  0  0  0  0  0  0  0  0  0  0
   58.9900   30.3970   46.2820 C   0  0  0  0  0  0  0  0  0  0  0  0
   58.0480   29.7320   45.5300 C   0  0  0  0  0  0  0  0  0  0  0  0
   57.1950   30.4480   44.7440 C   0  0  0  0  0  0  0  0  0  0  0  0
   56.2080   29.7180   43.9580 C   0  0  0  0  0  0  0  0  0  0  0  0
   56.3900   29.4220   42.5720 N   0  0  0  0  0  0  0  0  0  0  0  0
   55.1540   29.3340   44.5230 O   0  0  0  0  0  0  0  0  0  0  0  0
   57.2790   31.8210   44.7060 C   0  0  0  0  0  0  0  0  0  0  0  0
   58.2310   32.4850   45.4650 C   0  0  0  0  0  0  0  0  0  0  0  0
   59.7380   33.6040   47.7350 C   0  0  0  0  0  0  0  0  0  0  0  0
   60.6380   34.2810   48.5300 C   0  0  0  0  0  0  0  0  0  0  0  0
   60.8030   31.7530   51.2110 N   0  0  0  0  0  0  0  0  0  0  0  0
   59.4930   31.6100   51.5190 C   0  0  0  0  0  0  0  0  0  0  0  0
   58.5990   30.5460   51.4950 C   0  0  0  0  0  0  0  0  0  0  0  0
   55.0925   29.9557   53.4964 H   0  0  0  0  0  0  0  0  0  0  0  0
   54.6981   30.9408   52.0470 H   0  0  0  0  0  0  0  0  0  0  0  0
   54.3752   29.1737   52.0470 H   0  0  0  0  0  0  0  0  0  0  0  0
   55.8548   32.1717   52.6054 H   0  0  0  0  0  0  0  0  0  0  0  0
   57.4290   34.0957   52.6632 H   0  0  0  0  0  0  0  0  0  0  0  0
   60.0740   34.7380   52.1250 H   0  0  0  0  0  0  0  0  0  0  0  0
   62.4801   35.6125   49.6273 H   0  0  0  0  0  0  0  0  0  0  0  0
   63.8582   34.6065   49.1506 H   0  0  0  0  0  0  0  0  0  0  0  0
   63.3475   32.2225   48.1579 H   0  0  0  0  0  0  0  0  0  0  0  0
   61.6853   31.0562   46.7426 H   0  0  0  0  0  0  0  0  0  0  0  0
   59.6747   29.8130   46.9146 H   0  0  0  0  0  0  0  0  0  0  0  0
   57.9843   28.6343   45.5630 H   0  0  0  0  0  0  0  0  0  0  0  0
   57.3710   29.3040   42.2430 H   0  0  0  0  0  0  0  0  0  0  0  0
   55.5480   29.3400   41.9730 H   0  0  0  0  0  0  0  0  0  0  0  0
   56.5879   32.3944   44.0707 H   0  0  0  0  0  0  0  0  0  0  0  0
   58.2877   33.5828   45.4240 H   0  0  0  0  0  0  0  0  0  0  0  0
   58.7151   33.9899   47.6135 H   0  0  0  0  0  0  0  0  0  0  0  0
   60.3411   35.2073   49.0437 H   0  0  0  0  0  0  0  0  0  0  0  0
   58.9266   29.5484   51.1672 H   0  0  0  0  0  0  0  0  0  0  0  0
  1  2  1  0
  2  3  1  0
  3  4  2  0
  4  5  1  0
  5  6  2  0
  6  7  1  0
  7  8  1  0
  8  9  1  0
  9 10  1  0
 10 11  1  0
 11 12  2  0
 12 13  1  0
 13 14  2  0
 14 15  1  0
 15 16  2  0
 16 17  1  0
 17 18  2  0
 18 19  1  0
 19 20  1  0
 19 21  2  0
 18 22  1  0
 22 23  2  0
 14 24  1  0
 24 25  2  0
  8 26  2  0
 26 27  1  0
 27 28  2  0
 28  3  1  0
 27  6  1  0
 25 11  1  0
 23 15  1  0
  1 29  1  0
  1 30  1  0
  1 31  1  0
  4 32  1  0
  5 33  1  0
  7 34  1  0
 10 35  1  0
 10 36  1  0
 12 37  1  0
 13 38  1  0
 16 39  1  0
 17 40  1  0
 20 41  1  0
 20 42  1  0
 22 43  1  0
 23 44  1  0
 24 45  1  0
 25 46  1  0
 28 47  1  0
M  END
>  <smiles>  (20) 
COc1ccc2[nH]c(SCc3ccc(-c4ccc(C(N)=O)cc4)cc3)nc2c1

>  <score_type>  (20) 
oracle

>  <origin>  (20) 
adg

>  <m_score__min__energy>  (20) 
-8.9800000000000004

>  <m_primary>  (20) 
energy

$$$$
20:0
     RDKit          3D

 48 51  0  0  0  0  0  0  0  0999 V2000
   56.8120   21.4100   42.7820 C   0  0  0  0  0  0  0  0  0  0  0  0
   55.8560   22.4140   43.1040 O   0  0  0  0  0  0  0  0  0  0  0  0
   55.8500   23.0900   44.3280 C   0  0  0  0  0  0  0  0  0  0  0  0
   56.9150   23.2650   45.1930 C   0  0  0  0  0  0  0  0  0  0  0  0
   56.4160   24.0170   46.2460 C   0  0  0  0  0  0  0  0  0  0  0  0
   57.1950   24.4400   47.4270 C   0  0  0  0  0  0  0  0  0  0  0  0
   57.3930   23.6180   48.3600 O   0  0  0  0  0  0  0  0  0  0  0  0
   57.6870   25.7780   47.5690 N   0  0  0  0  0  0  0  0  0  0  0  0
   57.9990   26.6820   46.4990 C   0  0  0  0  0  0  0  0  0  0  0  0
   59.2400   26.6420   45.8410 C   0  0  0  0  0  0  0  0  0  0  0  0
   59.5200   27.5480   44.8180 C   0  0  0  0  0  0  0  0  0  0  0  0
   58.5760   28.5100   44.4520 C   0  0  0  0  0  0  0  0  0  0  0  0
   57.3380   28.5820   45.1150 C   0  0  0  0  0  0  0  0  0  0  0  0
   56.3370   29.6070   44.7360 C   0  0  0  0  0  0  0  0  0  0  0  0
   55.1060   29.3480   44.8310 O   0  0  0  0  0  0  0  0  0  0  0  0
   56.7680   30.9070   44.3080 N   0  0  0  0  0  0  0  0  0  0  0  0
   57.4750   31.8770   45.0960 C   0  0  0  0  0  0  0  0  0  0  0  0
   57.4840   33.2100   44.6660 C   0  0  0  0  0  0  0  0  0  0  0  0
   58.1510   34.1920   45.4040 C   0  0  0  0  0  0  0  0  0  0  0  0
   58.8020   33.8530   46.5930 C   0  0  0  0  0  0  0  0  0  0  0  0
   59.4550   34.8060   47.3110 N   0  0  0  0  0  0  0  0  0  0  0  0
   60.0920   34.5110   48.4760 C   0  0  0  0  0  0  0  0  0  0  0  0
   60.0840   33.2050   48.9690 C   0  0  0  0  0  0  0  0  0  0  0  0
   59.4220   32.2030   48.2560 C   0  0  0  0  0  0  0  0  0  0  0  0
   58.7760   32.5180   47.0530 C   0  0  0  0  0  0  0  0  0  0  0  0
   58.1050   31.5360   46.3070 C   0  0  0  0  0  0  0  0  0  0  0  0
   57.0640   27.6620   46.1450 C   0  0  0  0  0  0  0  0  0  0  0  0
   55.1060   24.2840   46.0580 N   0  0  0  0  0  0  0  0  0  0  0  0
   54.7560   23.7130   44.8900 C   0  0  0  0  0  0  0  0  0  0  0  0
   53.3980   23.8270   44.2760 C   0  0  0  0  0  0  0  0  0  0  0  0
   57.2201   20.9814   43.7092 H   0  0  0  0  0  0  0  0  0  0  0  0
   56.3270   20.6170   42.1939 H   0  0  0  0  0  0  0  0  0  0  0  0
   57.6278   21.8556   42.1939 H   0  0  0  0  0  0  0  0  0  0  0  0
   57.9410   22.8875   45.0714 H   0  0  0  0  0  0  0  0  0  0  0  0
   59.9923   25.8946   46.1333 H   0  0  0  0  0  0  0  0  0  0  0  0
   60.4881   27.5046   44.2975 H   0  0  0  0  0  0  0  0  0  0  0  0
   58.8025   29.2162   43.6396 H   0  0  0  0  0  0  0  0  0  0  0  0
   56.9611   33.4867   43.7386 H   0  0  0  0  0  0  0  0  0  0  0  0
   58.1634   35.2328   45.0483 H   0  0  0  0  0  0  0  0  0  0  0  0
   60.6149   35.3037   49.0312 H   0  0  0  0  0  0  0  0  0  0  0  0
   60.5958   32.9666   49.9130 H   0  0  0  0  0  0  0  0  0  0  0  0
   59.4078   31.1712   48.6370 H   0  0  0  0  0  0  0  0  0  0  0  0
   58.0717   30.4981   46.6699 H   0  0  0  0  0  0  0  0  0  0  0  0
   56.1033   27.7139   46.6782 H   0  0  0  0  0  0  0  0  0  0  0  0
   54.4730   24.8150   46.6970 H   0  0  0  0  0  0  0  0  0  0  0  0
   52.6403   23.8906   45.0709 H   0  0  0  0  0  0  0  0  0  0  0  0
   53.3523   24.7321   43.6526 H   0  0  0  0  0  0  0  0  0  0  0  0
   53.2020   22.9421   43.6526 H   0  0  0  0  0  0  0  0  0  0  0  0
  1  2  1  0
  2  3  1  0
  3  4  1  0
  4  5  2  0
  5  6  1  0
  6  7  2  0
  6  8  1  0
  8  9  1  0
  9 10  2  0
 10 11  1  0
 11 12  2  0
 12 13  1  0
 13 14  1  0
 14 15  2  0
 14 16  1  0
 16 17  1  0
 17 18  2  0
 18 19  1  0
 19 20  2  0
 20 21  1  0
 21 22  2  0
 22 23  1  0
 23 24  2  0
 24 25  1  0
 25 26  2  0
 13 27  2  0
  5 28  1  0
 28 29  1  0
 29 30  1  0
 29  3  2  0
 27  9  1  0
 26 17  1  0
 25 20  1  0
  1 31  1  0
  1 32  1  0
  1 33  1  0
  4 34  1  0
 10 35  1  0
 11 36  1  0
 12 37  1  0
 18 38  1  0
 19 39  1  0
 22 40  1  0
 23 41  1  0
 24 42  1  0
 26 43  1  0
 27 44  1  0
 28 45  1  0
 30 46  1  0
 30 47  1  0
 30 48  1  0
M  CHG  2   8  -1  16  -1
M  END
>  <UniqueID>  (21) 
18

>  <SMILES>  (21) 
COc1cc(C(=O)[N-]c2cccc(C(=O)[N-]c3ccc4ncccc4c3)c2)[nH]c1C

>  <Energy>  (21) 
88.43414516093017

>  <Genealogy>  (21) 
COc1cc(C(=O)[N-]c2cccc(C(=O)[N-]c3ccc4ncccc4c3)c2)[nH]c1C (protonated)
COc1cc(C(=O)[N-]c2cccc(C(=O)[N-]c3ccc4ncccc4c3)c2)[nH]c1C (3D coordinates assigned)
COc1cc(C(=O)[N-]c2cccc(C(=O)[N-]c3ccc4ncccc4c3)c2)[nH]c1C (optimized conformer: 88.43414516093017 kcal/mol)

>  <smiles>  (21) 
COc1cc(C(=O)Nc2cccc(C(=O)Nc3ccc4ncccc4c3)c2)[nH]c1C

>  <score_type>  (21) 
oracle

>  <origin>  (21) 
adg

>  <m_score__min__energy>  (21) 
-12.369999999999999

>  <m_primary>  (21) 
energy

$$$$
21:0
     RDKit          3D

 37 39  0  0  0  0  0  0  0  0999 V2000
   54.2011   29.6603   44.3132 H   0  0  0  0  0  0  0  0  0  0  0  0
   55.2850   29.7060   44.4950 C   0  0  0  0  0  0  0  0  0  0  0  0
   55.8930   28.7180   45.1970 N   0  0  0  0  0  0  0  0  0  0  0  0
   57.2310   28.7230   45.4300 C   0  0  0  0  0  0  0  0  0  0  0  0
   57.8110   27.6790   46.1580 C   0  0  0  0  0  0  0  0  0  0  0  0
   57.1811   26.8649   46.5459 H   0  0  0  0  0  0  0  0  0  0  0  0
   59.1880   27.6670   46.3940 C   0  0  0  0  0  0  0  0  0  0  0  0
   59.9080   26.3580   47.3130 Cl  0  0  0  0  0  0  0  0  0  0  0  0
   59.9920   28.6940   45.8960 C   0  0  0  0  0  0  0  0  0  0  0  0
   61.0772   28.6758   46.0751 H   0  0  0  0  0  0  0  0  0  0  0  0
   59.4240   29.7450   45.1710 C   0  0  0  0  0  0  0  0  0  0  0  0
   60.0655   30.5475   44.7781 H   0  0  0  0  0  0  0  0  0  0  0  0
   58.0330   29.7830   44.9400 C   0  0  0  0  0  0  0  0  0  0  0  0
   57.4140   30.8470   44.2420 C   0  0  0  0  0  0  0  0  0  0  0  0
   58.1360   31.8660   43.8520 N   0  0  0  0  0  0  0  0  0  0  0  0
   58.7910   32.8760   44.6860 C   0  0  0  0  0  0  0  0  0  0  0  0
   59.2399   33.6386   44.0327 H   0  0  0  0  0  0  0  0  0  0  0  0
   59.5562   32.3698   45.2929 H   0  0  0  0  0  0  0  0  0  0  0  0
   57.8070   33.5610   45.6420 C   0  0  0  0  0  0  0  0  0  0  0  0
   56.7821   33.2999   45.3396 H   0  0  0  0  0  0  0  0  0  0  0  0
   57.9833   34.6451   45.5819 H   0  0  0  0  0  0  0  0  0  0  0  0
   58.0520   33.0540   47.3850 S   0  0  0  0  0  0  0  0  0  0  0  0
   59.8400   32.8960   47.2880 C   0  0  0  0  0  0  0  0  0  0  0  0
   60.4480   31.6690   47.5710 C   0  0  0  0  0  0  0  0  0  0  0  0
   59.8310   30.8024   47.8509 H   0  0  0  0  0  0  0  0  0  0  0  0
   61.8390   31.5410   47.4990 C   0  0  0  0  0  0  0  0  0  0  0  0
   62.3123   30.5719   47.7153 H   0  0  0  0  0  0  0  0  0  0  0  0
   62.6320   32.6440   47.1520 C   0  0  0  0  0  0  0  0  0  0  0  0
   64.0560   32.5220   47.1150 N   0  0  0  0  0  0  0  0  0  0  0  0
   64.6530   33.0110   47.8190 H   0  0  0  0  0  0  0  0  0  0  0  0
   64.5250   31.9490   46.3780 H   0  0  0  0  0  0  0  0  0  0  0  0
   62.0180   33.8660   46.8440 C   0  0  0  0  0  0  0  0  0  0  0  0
   62.6332   34.7319   46.5581 H   0  0  0  0  0  0  0  0  0  0  0  0
   60.6260   33.9880   46.8990 C   0  0  0  0  0  0  0  0  0  0  0  0
   60.1476   34.9431   46.6363 H   0  0  0  0  0  0  0  0  0  0  0  0
   56.0260   30.7800   44.0020 C   0  0  0  0  0  0  0  0  0  0  0  0
   55.5280   31.5742   43.4264 H   0  0  0  0  0  0  0  0  0  0  0  0
  1  2  1  0
  2  3  1  0
  3  4  1  0
  4  5  2  0
  5  6  1  0
  5  7  1  0
  7  8  1  0
  7  9  2  0
  9 10  1  0
  9 11  1  0
 11 12  1  0
 11 13  2  0
 13 14  1  0
 14 15  2  0
 15 16  1  0
 16 17  1  0
 16 18  1  0
 16 19  1  0
 19 20  1  0
 19 21  1  0
 19 22  1  0
 22 23  1  0
 23 24  2  0
 24 25  1  0
 24 26  1  0
 26 27  1  0
 26 28  2  0
 28 29  1  0
 29 30  1  0
 29 31  1  0
 28 32  1  0
 32 33  1  0
 32 34  2  0
 34 35  1  0
 14 36  1  0
 36 37  1  0
 36  2  2  0
 13  4  1  0
 34 23  1  0
M  CHG  1   3  -1
M  END
>  <UniqueID>  (22) 
19

>  <SMILES>  (22) 
Nc1ccc(SCC/N=c2\cc[n-]c3cc(Cl)ccc23)cc1

>  <Energy>  (22) 
37.701072345187995

>  <Genealogy>  (22) 
Nc1ccc(SCCN=c2cc[n-]c3cc(Cl)ccc23)cc1 (protonated)
Nc1ccc(SCC/N=c2\cc[n-]c3cc(Cl)ccc23)cc1 (cis-trans isomerization)
Nc1ccc(SCC/N=c2\cc[n-]c3cc(Cl)ccc23)cc1 (3D coordinates assigned)
Nc1ccc(SCC/N=c2\cc[n-]c3cc(Cl)ccc23)cc1 (optimized conformer: 37.701072345187995 kcal/mol)

>  <smiles>  (22) 
Nc1ccc(SCCN=c2cc[nH]c3cc(Cl)ccc23)cc1

>  <score_type>  (22) 
oracle

>  <origin>  (22) 
adg

>  <m_score__min__energy>  (22) 
-9.5500000000000007

>  <m_primary>  (22) 
energy

$$$$
22:0
     RDKit          3D

 38 41  0  0  0  0  0  0  0  0999 V2000
   60.0857   36.7362   46.1548 H   0  0  0  0  0  0  0  0  0  0  0  0
   59.6880   35.7140   46.0720 C   0  0  0  0  0  0  0  0  0  0  0  0
   59.2420   35.2360   44.8380 C   0  0  0  0  0  0  0  0  0  0  0  0
   59.2886   35.8826   43.9494 H   0  0  0  0  0  0  0  0  0  0  0  0
   58.7360   33.9360   44.7300 C   0  0  0  0  0  0  0  0  0  0  0  0
   58.3854   33.5649   43.7556 H   0  0  0  0  0  0  0  0  0  0  0  0
   58.6730   33.1010   45.8600 C   0  0  0  0  0  0  0  0  0  0  0  0
   58.1340   31.7220   45.7430 C   0  0  0  0  0  0  0  0  0  0  0  0
   57.1500   31.4200   44.7670 C   0  0  0  0  0  0  0  0  0  0  0  0
   56.7834   32.2004   44.0839 H   0  0  0  0  0  0  0  0  0  0  0  0
   56.6520   30.1130   44.6860 C   0  0  0  0  0  0  0  0  0  0  0  0
   55.7720   29.8080   43.8370 O   0  0  0  0  0  0  0  0  0  0  0  0
   57.1410   29.1880   45.5470 N   0  0  0  0  0  0  0  0  0  0  0  0
   56.7960   27.9140   45.6350 N   0  0  0  0  0  0  0  0  0  0  0  0
   57.5470   27.3920   46.6330 C   0  0  0  0  0  0  0  0  0  0  0  0
   57.4300   26.1520   47.0110 N   0  0  0  0  0  0  0  0  0  0  0  0
   57.1830   25.0200   46.1620 C   0  0  0  0  0  0  0  0  0  0  0  0
   57.8700   24.8460   44.9490 C   0  0  0  0  0  0  0  0  0  0  0  0
   58.6423   25.5697   44.6493 H   0  0  0  0  0  0  0  0  0  0  0  0
   57.5780   23.7590   44.1210 C   0  0  0  0  0  0  0  0  0  0  0  0
   58.1338   23.6228   43.1816 H   0  0  0  0  0  0  0  0  0  0  0  0
   56.5780   22.8380   44.4810 C   0  0  0  0  0  0  0  0  0  0  0  0
   56.2640   21.6840   43.6100 C   0  0  0  0  0  0  0  0  0  0  0  0
   56.0280   20.5510   44.1070 O   0  0  0  0  0  0  0  0  0  0  0  0
   56.2270   21.8340   42.2270 O   0  0  0  0  0  0  0  0  0  0  0  0
   55.8700   23.0360   45.6790 C   0  0  0  0  0  0  0  0  0  0  0  0
   55.0790   22.3288   45.9692 H   0  0  0  0  0  0  0  0  0  0  0  0
   56.1640   24.1250   46.5040 C   0  0  0  0  0  0  0  0  0  0  0  0
   55.5897   24.2795   47.4294 H   0  0  0  0  0  0  0  0  0  0  0  0
   58.3760   28.3640   47.2010 C   0  0  0  0  0  0  0  0  0  0  0  0
   59.0918   28.2604   48.0298 H   0  0  0  0  0  0  0  0  0  0  0  0
   58.0700   29.4830   46.4610 C   0  0  0  0  0  0  0  0  0  0  0  0
   58.5790   30.7340   46.5840 N   0  0  0  0  0  0  0  0  0  0  0  0
   59.3160   30.9230   47.3000 H   0  0  0  0  0  0  0  0  0  0  0  0
   59.1260   33.5930   47.0980 C   0  0  0  0  0  0  0  0  0  0  0  0
   59.0843   32.9507   47.9900 H   0  0  0  0  0  0  0  0  0  0  0  0
   59.6290   34.8940   47.2010 C   0  0  0  0  0  0  0  0  0  0  0  0
   59.9788   35.2720   48.1730 H   0  0  0  0  0  0  0  0  0  0  0  0
  1  2  1  0
  2  3  2  0
  3  4  1  0
  3  5  1  0
  5  6  1  0
  5  7  2  0
  7  8  1  0
  8  9  2  0
  9 10  1  0
  9 11  1  0
 11 12  2  0
 11 13  1  0
 13 14  1  0
 14 15  1  0
 15 16  2  0
 16 17  1  0
 17 18  2  0
 18 19  1  0
 18 20  1  0
 20 21  1  0
 20 22  2  0
 22 23  1  0
 23 24  2  0
 23 25  1  0
 22 26  1  0
 26 27  1  0
 26 28  2  0
 28 29  1  0
 15 30  1  0
 30 31  1  0
 30 32  2  0
 32 33  1  0
 33 34  1  0
  7 35  1  0
 35 36  1  0
 35 37  2  0
 37 38  1  0
 37  2  1  0
 33  8  1  0
 32 13  1  0
 28 17  1  0
M  CHG  2  14  -1  25  -1
M  END
>  <UniqueID>  (23) 
20

>  <SMILES>  (23) 
O=C([O-])c1ccc(/N=c2\cc3[nH]c(-c4ccccc4)cc(=O)n3[n-]2)cc1

>  <Energy>  (23) 
93.31766108733483

>  <Genealogy>  (23) 
O=C([O-])c1ccc(N=c2cc3[nH]c(-c4ccccc4)cc(=O)n3[n-]2)cc1 (protonated)
O=C([O-])c1ccc(/N=c2\cc3[nH]c(-c4ccccc4)cc(=O)n3[n-]2)cc1 (cis-trans isomerization)
O=C([O-])c1ccc(/N=c2\cc3[nH]c(-c4ccccc4)cc(=O)n3[n-]2)cc1 (3D coordinates assigned)
O=C([O-])c1ccc(/N=c2\cc3[nH]c(-c4ccccc4)cc(=O)n3[n-]2)cc1 (optimized conformer: 93.31766108733483 kcal/mol)

>  <smiles>  (23) 
O=C(O)c1ccc(N=c2cc3[nH]c(-c4ccccc4)cc(=O)n3[nH]2)cc1

>  <score_type>  (23) 
oracle

>  <origin>  (23) 
adg

>  <m_score__min__energy>  (23) 
-11.16

>  <m_primary>  (23) 
energy

$$$$
23:0
     RDKit          3D

 56 60  0  0  0  0  0  0  0  0999 V2000
   55.4680   24.1370   44.9330 C   0  0  0  0  0  0  0  0  0  0  0  0
   56.0780   25.4110   46.0180 S   0  0  0  0  0  0  0  0  0  0  0  0
   56.1370   24.8710   47.4190 O   0  0  0  0  0  0  0  0  0  0  0  0
   55.1530   26.5960   45.9970 O   0  0  0  0  0  0  0  0  0  0  0  0
   57.6760   25.8910   45.5390 N   0  0  0  0  0  0  0  0  0  0  0  0
   58.5240   26.8150   46.2370 C   0  0  0  0  0  0  0  0  0  0  0  0
   59.1880   26.3700   47.3850 C   0  0  0  0  0  0  0  0  0  0  0  0
   60.0090   27.2350   48.1090 C   0  0  0  0  0  0  0  0  0  0  0  0
   60.1700   28.5650   47.6960 C   0  0  0  0  0  0  0  0  0  0  0  0
   61.0070   29.4520   48.4490 N   0  0  0  0  0  0  0  0  0  0  0  0
   60.7710   30.6550   48.9120 C   0  0  0  0  0  0  0  0  0  0  0  0
   61.6280   31.6960   48.4740 C   0  0  0  0  0  0  0  0  0  0  0  0
   62.5930   31.4930   47.4600 C   0  0  0  0  0  0  0  0  0  0  0  0
   63.4520   32.5270   47.0810 C   0  0  0  0  0  0  0  0  0  0  0  0
   63.3760   33.7700   47.7100 C   0  0  0  0  0  0  0  0  0  0  0  0
   62.4320   33.9890   48.7160 C   0  0  0  0  0  0  0  0  0  0  0  0
   61.5590   32.9630   49.0970 C   0  0  0  0  0  0  0  0  0  0  0  0
   60.6500   33.1930   50.0750 N   0  0  0  0  0  0  0  0  0  0  0  0
   59.7510   32.2580   50.4630 C   0  0  0  0  0  0  0  0  0  0  0  0
   58.7970   32.6040   51.4280 C   0  0  0  0  0  0  0  0  0  0  0  0
   57.7830   31.7100   51.7650 C   0  0  0  0  0  0  0  0  0  0  0  0
   57.6980   30.4800   51.1170 C   0  0  0  0  0  0  0  0  0  0  0  0
   58.6510   30.1180   50.1640 C   0  0  0  0  0  0  0  0  0  0  0  0
   59.7420   30.9700   49.8610 C   0  0  0  0  0  0  0  0  0  0  0  0
   59.5300   29.0200   46.5290 C   0  0  0  0  0  0  0  0  0  0  0  0
   59.6720   30.3930   46.1230 N   0  0  0  0  0  0  0  0  0  0  0  0
   58.5430   31.1870   45.6390 C   0  0  0  0  0  0  0  0  0  0  0  0
   58.7560   32.6420   45.9650 C   0  0  0  0  0  0  0  0  0  0  0  0
   58.7410   33.0850   47.3000 C   0  0  0  0  0  0  0  0  0  0  0  0
   59.0020   34.4270   47.6010 C   0  0  0  0  0  0  0  0  0  0  0  0
   59.2830   35.3330   46.5740 C   0  0  0  0  0  0  0  0  0  0  0  0
   59.3060   34.8980   45.2440 C   0  0  0  0  0  0  0  0  0  0  0  0
   59.0470   33.5570   44.9390 C   0  0  0  0  0  0  0  0  0  0  0  0
   58.7050   28.1410   45.8070 C   0  0  0  0  0  0  0  0  0  0  0  0
   55.0696   23.3049   45.5321 H   0  0  0  0  0  0  0  0  0  0  0  0
   54.6688   24.5475   44.2984 H   0  0  0  0  0  0  0  0  0  0  0  0
   56.2889   23.7718   44.2984 H   0  0  0  0  0  0  0  0  0  0  0  0
   59.0618   25.3297   47.7196 H   0  0  0  0  0  0  0  0  0  0  0  0
   60.5315   26.8724   49.0065 H   0  0  0  0  0  0  0  0  0  0  0  0
   62.6675   30.5130   46.9660 H   0  0  0  0  0  0  0  0  0  0  0  0
   64.1912   32.3607   46.2836 H   0  0  0  0  0  0  0  0  0  0  0  0
   64.0603   34.5785   47.4133 H   0  0  0  0  0  0  0  0  0  0  0  0
   62.3744   34.9701   49.2101 H   0  0  0  0  0  0  0  0  0  0  0  0
   58.8484   33.5855   51.9219 H   0  0  0  0  0  0  0  0  0  0  0  0
   57.0506   31.9751   52.5417 H   0  0  0  0  0  0  0  0  0  0  0  0
   56.8755   29.7904   51.3577 H   0  0  0  0  0  0  0  0  0  0  0  0
   58.5537   29.1559   49.6397 H   0  0  0  0  0  0  0  0  0  0  0  0
   60.5460   30.9070   46.3800 H   0  0  0  0  0  0  0  0  0  0  0  0
   58.4548   31.0675   44.5491 H   0  0  0  0  0  0  0  0  0  0  0  0
   57.6218   30.8393   46.1294 H   0  0  0  0  0  0  0  0  0  0  0  0
   58.5233   32.3741   48.1107 H   0  0  0  0  0  0  0  0  0  0  0  0
   58.9860   34.7689   48.6464 H   0  0  0  0  0  0  0  0  0  0  0  0
   59.4860   36.3877   46.8113 H   0  0  0  0  0  0  0  0  0  0  0  0
   59.5281   35.6115   44.4368 H   0  0  0  0  0  0  0  0  0  0  0  0
   59.0713   33.2181   43.8928 H   0  0  0  0  0  0  0  0  0  0  0  0
   58.1965   28.4936   44.8975 H   0  0  0  0  0  0  0  0  0  0  0  0
  1  2  1  0
  2  3  2  0
  2  4  2  0
  2  5  1  0
  5  6  1  0
  6  7  2  0
  7  8  1  0
  8  9  2  0
  9 10  1  0
 10 11  2  3
 11 12  1  0
 12 13  2  0
 13 14  1  0
 14 15  2  0
 15 16  1  0
 16 17  2  0
 17 18  1  0
 18 19  1  0
 19 20  2  0
 20 21  1  0
 21 22  2  0
 22 23  1  0
 23 24  2  0
  9 25  1  0
 25 26  1  0
 26 27  1  0
 27 28  1  0
 28 29  2  0
 29 30  1  0
 30 31  2  0
 31 32  1  0
 32 33  2  0
 25 34  2  0
 34  6  1  0
 24 11  1  0
 33 28  1  0
 17 12  1  0
 24 19  1  0
  1 35  1  0
  1 36  1  0
  1 37  1  0
  7 38  1  0
  8 39  1  0
 13 40  1  0
 14 41  1  0
 15 42  1  0
 16 43  1  0
 20 44  1  0
 21 45  1  0
 22 46  1  0
 23 47  1  0
 26 48  1  0
 27 49  1  0
 27 50  1  0
 29 51  1  0
 30 52  1  0
 31 53  1  0
 32 54  1  0
 33 55  1  0
 34 56  1  0
M  CHG  2   5  -1  18  -1
M  END
>  <UniqueID>  (24) 
21

>  <SMILES>  (24) 
CS(=O)(=O)[N-]c1ccc(N=c2c3ccccc3[n-]c3ccccc23)c(NCc2ccccc2)c1

>  <Energy>  (24) 
86.79346144014353

>  <Genealogy>  (24) 
CS(=O)(=O)[N-]c1ccc(N=c2c3ccccc3[n-]c3ccccc23)c(NCc2ccccc2)c1 (protonated)
CS(=O)(=O)[N-]c1ccc(N=c2c3ccccc3[n-]c3ccccc23)c(NCc2ccccc2)c1 (3D coordinates assigned)
CS(=O)(=O)[N-]c1ccc(N=c2c3ccccc3[n-]c3ccccc23)c(NCc2ccccc2)c1 (optimized conformer: 86.79346144014353 kcal/mol)

>  <smiles>  (24) 
CS(=O)(=O)Nc1ccc(N=c2c3ccccc3[nH]c3ccccc23)c(NCc2ccccc2)c1

>  <score_type>  (24) 
oracle

>  <origin>  (24) 
adg

>  <m_score__min__energy>  (24) 
-12.390000000000001

>  <m_primary>  (24) 
energy

$$$$
24:0
     RDKit          3D

 28 30  0  0  0  0  0  0  0  0999 V2000
   60.2156   36.0552   46.3723 H   0  0  0  0  0  0  0  0  0  0  0  0
   59.6500   35.1250   46.2150 C   0  0  0  0  0  0  0  0  0  0  0  0
   59.4170   34.6780   44.9510 N   0  0  0  0  0  0  0  0  0  0  0  0
   58.7240   33.5310   44.7150 C   0  0  0  0  0  0  0  0  0  0  0  0
   58.5040   33.0990   43.4040 C   0  0  0  0  0  0  0  0  0  0  0  0
   58.8938   33.6869   42.5599 H   0  0  0  0  0  0  0  0  0  0  0  0
   57.7900   31.9220   43.1630 C   0  0  0  0  0  0  0  0  0  0  0  0
   57.6219   31.5849   42.1295 H   0  0  0  0  0  0  0  0  0  0  0  0
   57.2870   31.1690   44.2340 C   0  0  0  0  0  0  0  0  0  0  0  0
   56.3750   29.6930   43.9300 S   0  0  0  0  0  0  0  0  0  0  0  0
   55.8800   29.7100   42.5120 O   0  0  0  0  0  0  0  0  0  0  0  0
   55.1980   29.5970   44.8590 O   0  0  0  0  0  0  0  0  0  0  0  0
   57.3930   28.3050   44.1590 N   0  0  0  0  0  0  0  0  0  0  0  0
   57.2630   27.4580   45.1350 C   0  0  0  0  0  0  0  0  0  0  0  0
   58.5150   26.6510   45.9260 S   0  0  0  0  0  0  0  0  0  0  0  0
   57.4680   25.8250   46.9570 C   0  0  0  0  0  0  0  0  0  0  0  0
   57.7631   25.1088   47.7380 H   0  0  0  0  0  0  0  0  0  0  0  0
   56.1660   26.2060   46.6490 C   0  0  0  0  0  0  0  0  0  0  0  0
   55.2901   25.8068   47.1814 H   0  0  0  0  0  0  0  0  0  0  0  0
   56.0600   27.1100   45.6390 N   0  0  0  0  0  0  0  0  0  0  0  0
   55.1490   27.4880   45.2960 H   0  0  0  0  0  0  0  0  0  0  0  0
   57.5110   31.5930   45.5510 C   0  0  0  0  0  0  0  0  0  0  0  0
   57.1259   30.9981   46.3923 H   0  0  0  0  0  0  0  0  0  0  0  0
   58.2250   32.7740   45.7980 C   0  0  0  0  0  0  0  0  0  0  0  0
   58.4570   33.2240   47.1040 C   0  0  0  0  0  0  0  0  0  0  0  0
   58.0772   32.6494   47.9617 H   0  0  0  0  0  0  0  0  0  0  0  0
   59.1730   34.4060   47.3130 C   0  0  0  0  0  0  0  0  0  0  0  0
   59.3594   34.7673   48.3351 H   0  0  0  0  0  0  0  0  0  0  0  0
  1  2  1  0
  2  3  2  0
  3  4  1  0
  4  5  2  0
  5  6  1  0
  5  7  1  0
  7  8  1  0
  7  9  2  0
  9 10  1  0
 10 11  2  0
 10 12  2  0
 10 13  1  0
 13 14  2  0
 14 15  1  0
 15 16  1  0
 16 17  1  0
 16 18  2  0
 18 19  1  0
 18 20  1  0
 20 21  1  0
  9 22  1  0
 22 23  1  0
 22 24  2  0
 24 25  1  0
 25 26  1  0
 25 27  2  0
 27 28  1  0
 27  2  1  0
 24  4  1  0
 20 14  1  0
M  END
>  <UniqueID>  (25) 
22

>  <SMILES>  (25) 
O=S(=O)(/N=c1/[nH]ccs1)c1ccc2ncccc2c1

>  <Energy>  (25) 
66.91522113771441

>  <Genealogy>  (25) 
O=S(=O)(/N=c1/[nH]ccs1)c1ccc2ncccc2c1 (cis-trans isomerization)
O=S(=O)(/N=c1/[nH]ccs1)c1ccc2ncccc2c1 (3D coordinates assigned)
O=S(=O)(/N=c1/[nH]ccs1)c1ccc2ncccc2c1 (optimized conformer: 66.91522113771441 kcal/mol)

>  <smiles>  (25) 
O=S(=O)(N=c1[nH]ccs1)c1ccc2ncccc2c1

>  <score_type>  (25) 
oracle

>  <origin>  (25) 
adg

>  <m_score__min__energy>  (25) 
-8.1300000000000008

>  <m_primary>  (25) 
energy

$$$$
25:0
     RDKit          3D

 47 50  0  0  0  0  0  0  0  0999 V2000
   57.9100   29.8060   50.9640 O   0  0  0  0  0  0  0  0  0  0  0  0
   59.3840   29.8210   50.6690 S   0  0  0  0  0  0  0  0  0  0  0  0
   60.1650   29.4880   51.9100 O   0  0  0  0  0  0  0  0  0  0  0  0
   59.7380   28.6480   49.4420 N   0  0  0  0  0  0  0  0  0  0  0  0
   59.0460   28.5190   48.1930 C   0  0  0  0  0  0  0  0  0  0  0  0
   58.8370   29.6660   47.4230 C   0  0  0  0  0  0  0  0  0  0  0  0
   58.1740   29.5980   46.1890 C   0  0  0  0  0  0  0  0  0  0  0  0
   58.0370   30.8330   45.3890 C   0  0  0  0  0  0  0  0  0  0  0  0
   57.9270   30.7640   43.9900 C   0  0  0  0  0  0  0  0  0  0  0  0
   57.8210   31.9350   43.2330 C   0  0  0  0  0  0  0  0  0  0  0  0
   57.8340   33.1800   43.8650 C   0  0  0  0  0  0  0  0  0  0  0  0
   57.9560   33.2580   45.2550 C   0  0  0  0  0  0  0  0  0  0  0  0
   58.0620   32.0900   46.0160 C   0  0  0  0  0  0  0  0  0  0  0  0
   57.6810   28.3530   45.7310 C   0  0  0  0  0  0  0  0  0  0  0  0
   56.9800   28.2450   44.5270 O   0  0  0  0  0  0  0  0  0  0  0  0
   57.8890   27.1940   46.5050 C   0  0  0  0  0  0  0  0  0  0  0  0
   57.3820   25.8780   46.0550 C   0  0  0  0  0  0  0  0  0  0  0  0
   58.2770   24.8060   45.9020 C   0  0  0  0  0  0  0  0  0  0  0  0
   57.8140   23.5570   45.4810 C   0  0  0  0  0  0  0  0  0  0  0  0
   56.4560   23.3640   45.2150 C   0  0  0  0  0  0  0  0  0  0  0  0
   55.5540   24.4200   45.3790 C   0  0  0  0  0  0  0  0  0  0  0  0
   54.2030   24.2180   45.1250 O   0  0  0  0  0  0  0  0  0  0  0  0
   56.0100   25.6760   45.8020 C   0  0  0  0  0  0  0  0  0  0  0  0
   55.0980   26.7100   45.9880 O   0  0  0  0  0  0  0  0  0  0  0  0
   58.5810   27.2810   47.7220 C   0  0  0  0  0  0  0  0  0  0  0  0
   59.8400   31.4330   50.1120 C   0  0  0  0  0  0  0  0  0  0  0  0
   60.7900   31.5870   49.0910 C   0  0  0  0  0  0  0  0  0  0  0  0
   61.1510   32.8640   48.6500 C   0  0  0  0  0  0  0  0  0  0  0  0
   60.5630   33.9940   49.2220 C   0  0  0  0  0  0  0  0  0  0  0  0
   59.6140   33.8510   50.2370 C   0  0  0  0  0  0  0  0  0  0  0  0
   59.2490   32.5750   50.6830 C   0  0  0  0  0  0  0  0  0  0  0  0
   58.2980   32.4530   51.6910 O   0  0  0  0  0  0  0  0  0  0  0  0
   59.1982   30.6378   47.7905 H   0  0  0  0  0  0  0  0  0  0  0  0
   57.9242   29.7851   43.4883 H   0  0  0  0  0  0  0  0  0  0  0  0
   57.7273   31.8753   42.1386 H   0  0  0  0  0  0  0  0  0  0  0  0
   57.7481   34.1001   43.2684 H   0  0  0  0  0  0  0  0  0  0  0  0
   57.9686   34.2397   45.7510 H   0  0  0  0  0  0  0  0  0  0  0  0
   58.1653   32.1554   47.1092 H   0  0  0  0  0  0  0  0  0  0  0  0
   56.2750   27.5400   44.3560 H   0  0  0  0  0  0  0  0  0  0  0  0
   59.3465   24.9507   46.1145 H   0  0  0  0  0  0  0  0  0  0  0  0
   58.5207   22.7230   45.3586 H   0  0  0  0  0  0  0  0  0  0  0  0
   56.0963   22.3811   44.8765 H   0  0  0  0  0  0  0  0  0  0  0  0
   58.7610   26.3707   48.3128 H   0  0  0  0  0  0  0  0  0  0  0  0
   61.2529   30.6992   48.6354 H   0  0  0  0  0  0  0  0  0  0  0  0
   61.8990   32.9785   47.8516 H   0  0  0  0  0  0  0  0  0  0  0  0
   60.8474   34.9977   48.8730 H   0  0  0  0  0  0  0  0  0  0  0  0
   59.1526   34.7425   50.6867 H   0  0  0  0  0  0  0  0  0  0  0  0
  1  2  2  0
  2  3  2  0
  2  4  1  0
  4  5  1  0
  5  6  2  0
  6  7  1  0
  7  8  1  0
  8  9  2  0
  9 10  1  0
 10 11  2  0
 11 12  1  0
 12 13  2  0
  7 14  2  0
 14 15  1  0
 14 16  1  0
 16 17  1  0
 17 18  2  0
 18 19  1  0
 19 20  2  0
 20 21  1  0
 21 22  1  0
 21 23  2  0
 23 24  1  0
 16 25  2  0
  2 26  1  0
 26 27  2  0
 27 28  1  0
 28 29  2  0
 29 30  1  0
 30 31  2  0
 31 32  1  0
 25  5  1  0
 31 26  1  0
 13  8  1  0
 23 17  1  0
  6 33  1  0
  9 34  1  0
 10 35  1  0
 11 36  1  0
 12 37  1  0
 13 38  1  0
 15 39  1  0
 18 40  1  0
 19 41  1  0
 20 42  1  0
 25 43  1  0
 27 44  1  0
 28 45  1  0
 29 46  1  0
 30 47  1  0
M  CHG  4   4  -1  22  -1  24  -1  32  -1
M  END
>  <UniqueID>  (26) 
23

>  <SMILES>  (26) 
O=S(=O)([N-]c1cc(-c2ccccc2)c(O)c(-c2cccc([O-])c2[O-])c1)c1ccccc1[O-]

>  <Energy>  (26) 
72.94925850348655

>  <Genealogy>  (26) 
O=S(=O)([N-]c1cc(-c2ccccc2)c(O)c(-c2cccc([O-])c2[O-])c1)c1ccccc1[O-] (protonated)
O=S(=O)([N-]c1cc(-c2ccccc2)c(O)c(-c2cccc([O-])c2[O-])c1)c1ccccc1[O-] (3D coordinates assigned)
O=S(=O)([N-]c1cc(-c2ccccc2)c(O)c(-c2cccc([O-])c2[O-])c1)c1ccccc1[O-] (optimized conformer: 72.94925850348655 kcal/mol)

>  <smiles>  (26) 
O=S(=O)(Nc1cc(-c2ccccc2)c(O)c(-c2cccc(O)c2O)c1)c1ccccc1O

>  <score_type>  (26) 
oracle

>  <origin>  (26) 
adg

>  <m_score__min__energy>  (26) 
-15.84

>  <m_primary>  (26) 
energy

$$$$
26:0
     RDKit          3D

 42 44  0  0  0  0  0  0  0  0999 V2000
   55.9137   25.3566   46.2559 H   0  0  0  0  0  0  0  0  0  0  0  0
   56.4690   26.0590   45.6170 C   0  0  0  0  0  0  0  0  0  0  0  0
   56.3210   27.3990   45.7970 N   0  0  0  0  0  0  0  0  0  0  0  0
   56.9880   28.3170   45.0490 C   0  0  0  0  0  0  0  0  0  0  0  0
   56.7740   29.5810   45.2920 N   0  0  0  0  0  0  0  0  0  0  0  0
   57.7240   30.6090   45.6120 C   0  0  0  0  0  0  0  0  0  0  0  0
   58.9000   30.3150   45.9620 O   0  0  0  0  0  0  0  0  0  0  0  0
   57.2920   31.9740   45.6310 N   0  0  0  0  0  0  0  0  0  0  0  0
   56.2650   32.1650   45.6110 H   0  0  0  0  0  0  0  0  0  0  0  0
   58.1820   33.0620   45.9260 C   0  0  0  0  0  0  0  0  0  0  0  0
   58.4560   33.9890   44.9120 C   0  0  0  0  0  0  0  0  0  0  0  0
   58.0134   33.8529   43.9142 H   0  0  0  0  0  0  0  0  0  0  0  0
   59.2840   35.0810   45.1570 C   0  0  0  0  0  0  0  0  0  0  0  0
   59.4932   35.8020   44.3530 H   0  0  0  0  0  0  0  0  0  0  0  0
   59.8480   35.2630   46.4170 C   0  0  0  0  0  0  0  0  0  0  0  0
   60.4908   36.1356   46.6052 H   0  0  0  0  0  0  0  0  0  0  0  0
   59.6040   34.3430   47.4500 C   0  0  0  0  0  0  0  0  0  0  0  0
   60.2470   34.5740   48.7940 C   0  0  0  0  0  0  0  0  0  0  0  0
   59.5333   34.3176   49.5908 H   0  0  0  0  0  0  0  0  0  0  0  0
   61.1421   33.9412   48.8859 H   0  0  0  0  0  0  0  0  0  0  0  0
   60.5347   35.6317   48.8859 H   0  0  0  0  0  0  0  0  0  0  0  0
   58.8010   33.2000   47.1950 C   0  0  0  0  0  0  0  0  0  0  0  0
   58.6050   32.1490   48.2650 C   0  0  0  0  0  0  0  0  0  0  0  0
   58.6920   32.6154   49.2574 H   0  0  0  0  0  0  0  0  0  0  0  0
   57.6073   31.6983   48.1579 H   0  0  0  0  0  0  0  0  0  0  0  0
   59.3732   31.3690   48.1579 H   0  0  0  0  0  0  0  0  0  0  0  0
   57.8450   27.8660   44.0240 C   0  0  0  0  0  0  0  0  0  0  0  0
   58.3780   28.5891   43.3891 H   0  0  0  0  0  0  0  0  0  0  0  0
   58.0120   26.4940   43.8210 C   0  0  0  0  0  0  0  0  0  0  0  0
   58.6861   26.1372   43.0283 H   0  0  0  0  0  0  0  0  0  0  0  0
   57.3260   25.5680   44.6210 C   0  0  0  0  0  0  0  0  0  0  0  0
   57.4960   24.1070   44.4140 C   0  0  0  0  0  0  0  0  0  0  0  0
   56.6790   23.4150   43.4990 C   0  0  0  0  0  0  0  0  0  0  0  0
   55.9091   23.9601   42.9332 H   0  0  0  0  0  0  0  0  0  0  0  0
   56.8400   22.0400   43.3050 C   0  0  0  0  0  0  0  0  0  0  0  0
   56.1957   21.5075   42.5899 H   0  0  0  0  0  0  0  0  0  0  0  0
   57.8170   21.3410   44.0170 C   0  0  0  0  0  0  0  0  0  0  0  0
   57.9424   20.2592   43.8620 H   0  0  0  0  0  0  0  0  0  0  0  0
   58.6350   22.0160   44.9260 C   0  0  0  0  0  0  0  0  0  0  0  0
   59.4048   21.4650   45.4861 H   0  0  0  0  0  0  0  0  0  0  0  0
   58.4770   23.3900   45.1250 C   0  0  0  0  0  0  0  0  0  0  0  0
   59.1241   23.9155   45.8427 H   0  0  0  0  0  0  0  0  0  0  0  0
  1  2  1  0
  2  3  1  0
  3  4  1  0
  4  5  2  0
  5  6  1  0
  6  7  2  0
  6  8  1  0
  8  9  1  0
  8 10  1  0
 10 11  2  0
 11 12  1  0
 11 13  1  0
 13 14  1  0
 13 15  2  0
 15 16  1  0
 15 17  1  0
 17 18  1  0
 18 19  1  0
 18 20  1  0
 18 21  1  0
 17 22  2  0
 22 23  1  0
 23 24  1  0
 23 25  1  0
 23 26  1  0
  4 27  1  0
 27 28  1  0
 27 29  2  0
 29 30  1  0
 29 31  1  0
 31 32  1  0
 32 33  2  0
 33 34  1  0
 33 35  1  0
 35 36  1  0
 35 37  2  0
 37 38  1  0
 37 39  1  0
 39 40  1  0
 39 41  2  0
 41 42  1  0
 31  2  2  0
 41 32  1  0
 22 10  1  0
M  CHG  1   3  -1
M  END
>  <UniqueID>  (27) 
24

>  <SMILES>  (27) 
Cc1cccc(NC(=O)/N=c2\ccc(-c3ccccc3)c[n-]2)c1C

>  <Energy>  (27) 
64.92210274056632

>  <Genealogy>  (27) 
Cc1cccc(NC(=O)N=c2ccc(-c3ccccc3)c[n-]2)c1C (protonated)
Cc1cccc(NC(=O)/N=c2\ccc(-c3ccccc3)c[n-]2)c1C (cis-trans isomerization)
Cc1cccc(NC(=O)/N=c2\ccc(-c3ccccc3)c[n-]2)c1C (3D coordinates assigned)
Cc1cccc(NC(=O)/N=c2\ccc(-c3ccccc3)c[n-]2)c1C (optimized conformer: 64.92210274056632 kcal/mol)

>  <smiles>  (27) 
Cc1cccc(NC(=O)N=c2ccc(-c3ccccc3)c[nH]2)c1C

>  <score_type>  (27) 
oracle

>  <origin>  (27) 
adg

>  <m_score__min__energy>  (27) 
-9.6300000000000008

>  <m_primary>  (27) 
energy

$$$$
27:0
     RDKit          3D

 59 61  0  0  0  0  0  0  0  0999 V2000
   54.0640   22.6210   45.1620 N   0  0  0  0  0  0  0  0  0  0  0  0
   55.7350   22.6390   44.7190 S   0  0  0  0  0  0  0  0  0  0  0  0
   56.4900   21.7180   45.6370 O   0  0  0  0  0  0  0  0  0  0  0  0
   55.8860   22.1610   43.3010 O   0  0  0  0  0  0  0  0  0  0  0  0
   56.3660   24.2770   44.8540 C   0  0  0  0  0  0  0  0  0  0  0  0
   55.9330   25.1090   45.8940 C   0  0  0  0  0  0  0  0  0  0  0  0
   56.4260   26.4140   46.0030 C   0  0  0  0  0  0  0  0  0  0  0  0
   57.3390   26.9070   45.0630 C   0  0  0  0  0  0  0  0  0  0  0  0
   57.8510   28.2370   45.2260 N   0  0  0  0  0  0  0  0  0  0  0  0
   57.2540   29.4380   44.7220 C   0  0  0  0  0  0  0  0  0  0  0  0
   56.0680   29.7090   45.0440 O   0  0  0  0  0  0  0  0  0  0  0  0
   57.9660   30.2920   43.8140 N   0  0  0  0  0  0  0  0  0  0  0  0
   57.4440   31.5840   43.3750 C   0  0  0  0  0  0  0  0  0  0  0  0
   57.6330   32.6110   44.4440 C   0  0  0  0  0  0  0  0  0  0  0  0
   56.7960   32.7030   45.3830 O   0  0  0  0  0  0  0  0  0  0  0  0
   58.7800   33.4680   44.4080 N   0  0  0  0  0  0  0  0  0  0  0  0
   58.7680   34.8540   44.8620 C   0  0  0  0  0  0  0  0  0  0  0  0
   59.6810   35.0260   46.0800 C   0  0  0  0  0  0  0  0  0  0  0  0
   59.6560   33.7900   46.9390 C   0  0  0  0  0  0  0  0  0  0  0  0
   60.7830   32.9540   47.0090 C   0  0  0  0  0  0  0  0  0  0  0  0
   60.7680   31.8210   47.8280 C   0  0  0  0  0  0  0  0  0  0  0  0
   59.6360   31.5170   48.5940 C   0  0  0  0  0  0  0  0  0  0  0  0
   59.6290   30.0750   49.6040 S   0  0  0  0  0  0  0  0  0  0  0  0
   58.4000   29.2710   49.2770 O   0  0  0  0  0  0  0  0  0  0  0  0
   60.8420   29.2370   49.3060 O   0  0  0  0  0  0  0  0  0  0  0  0
   59.6080   30.5560   51.2880 N   0  0  0  0  0  0  0  0  0  0  0  0
   59.3680   29.4060   52.1880 C   0  0  0  0  0  0  0  0  0  0  0  0
   57.9030   29.3090   52.6530 C   0  0  0  0  0  0  0  0  0  0  0  0
   57.0370   29.7860   51.6490 O   0  0  0  0  0  0  0  0  0  0  0  0
   57.1880   31.1860   51.4940 C   0  0  0  0  0  0  0  0  0  0  0  0
   58.6620   31.6590   51.5280 C   0  0  0  0  0  0  0  0  0  0  0  0
   58.5130   32.3560   48.5330 C   0  0  0  0  0  0  0  0  0  0  0  0
   58.5250   33.4890   47.7140 C   0  0  0  0  0  0  0  0  0  0  0  0
   57.7890   26.0630   44.0310 C   0  0  0  0  0  0  0  0  0  0  0  0
   57.2940   24.7600   43.9220 C   0  0  0  0  0  0  0  0  0  0  0  0
   53.7880   21.6210   45.2780 H   0  0  0  0  0  0  0  0  0  0  0  0
   55.2032   24.7355   46.6274 H   0  0  0  0  0  0  0  0  0  0  0  0
   56.0943   27.0563   46.8321 H   0  0  0  0  0  0  0  0  0  0  0  0
   58.8420   29.9400   43.3640 H   0  0  0  0  0  0  0  0  0  0  0  0
   57.9788   31.9020   42.4679 H   0  0  0  0  0  0  0  0  0  0  0  0
   56.3694   31.4821   43.1632 H   0  0  0  0  0  0  0  0  0  0  0  0
   59.1224   35.5046   44.0489 H   0  0  0  0  0  0  0  0  0  0  0  0
   57.7408   35.1274   45.1452 H   0  0  0  0  0  0  0  0  0  0  0  0
   60.7104   35.2076   45.7375 H   0  0  0  0  0  0  0  0  0  0  0  0
   59.3222   35.8789   46.6749 H   0  0  0  0  0  0  0  0  0  0  0  0
   61.6797   33.1916   46.4178 H   0  0  0  0  0  0  0  0  0  0  0  0
   61.6500   31.1651   47.8708 H   0  0  0  0  0  0  0  0  0  0  0  0
   59.6293   28.4807   51.6536 H   0  0  0  0  0  0  0  0  0  0  0  0
   59.9912   29.5496   53.0830 H   0  0  0  0  0  0  0  0  0  0  0  0
   57.6608   28.2585   52.8717 H   0  0  0  0  0  0  0  0  0  0  0  0
   57.7739   29.9224   53.5569 H   0  0  0  0  0  0  0  0  0  0  0  0
   56.7516   31.4778   50.5274 H   0  0  0  0  0  0  0  0  0  0  0  0
   56.6775   31.6612   52.3446 H   0  0  0  0  0  0  0  0  0  0  0  0
   58.8061   32.4242   50.7510 H   0  0  0  0  0  0  0  0  0  0  0  0
   58.8631   32.0629   52.5312 H   0  0  0  0  0  0  0  0  0  0  0  0
   57.6203   32.1216   49.1315 H   0  0  0  0  0  0  0  0  0  0  0  0
   57.6445   34.1473   47.6768 H   0  0  0  0  0  0  0  0  0  0  0  0
   58.5325   26.4294   43.3078 H   0  0  0  0  0  0  0  0  0  0  0  0
   57.6344   24.1115   43.1013 H   0  0  0  0  0  0  0  0  0  0  0  0
  1  2  1  0
  2  3  2  0
  2  4  2  0
  2  5  1  0
  5  6  2  0
  6  7  1  0
  7  8  2  0
  8  9  1  0
  9 10  1  0
 10 11  2  0
 10 12  1  0
 12 13  1  0
 13 14  1  0
 14 15  2  0
 14 16  1  0
 16 17  1  0
 17 18  1  0
 18 19  1  0
 19 20  2  0
 20 21  1  0
 21 22  2  0
 22 23  1  0
 23 24  2  0
 23 25  2  0
 23 26  1  0
 26 27  1  0
 27 28  1  0
 28 29  1  0
 29 30  1  0
 30 31  1  0
 22 32  1  0
 32 33  2  0
  8 34  1  0
 34 35  2  0
 35  5  1  0
 33 19  1  0
 31 26  1  0
  1 36  1  0
  6 37  1  0
  7 38  1  0
 12 39  1  0
 13 40  1  0
 13 41  1  0
 17 42  1  0
 17 43  1  0
 18 44  1  0
 18 45  1  0
 20 46  1  0
 21 47  1  0
 27 48  1  0
 27 49  1  0
 28 50  1  0
 28 51  1  0
 30 52  1  0
 30 53  1  0
 31 54  1  0
 31 55  1  0
 32 56  1  0
 33 57  1  0
 34 58  1  0
 35 59  1  0
M  CHG  3   1  -1   9  -1  16  -1
M  END
>  <UniqueID>  (28) 
25

>  <SMILES>  (28) 
[NH-]S(=O)(=O)c1ccc([N-]C(=O)NCC(=O)[N-]CCc2ccc(S(=O)(=O)N3CCOCC3)cc2)cc1

>  <Energy>  (28) 
67.95415470508445

>  <Genealogy>  (28) 
[NH-]S(=O)(=O)c1ccc([N-]C(=O)NCC(=O)[N-]CCc2ccc(S(=O)(=O)N3CCOCC3)cc2)cc1 (protonated)
[NH-]S(=O)(=O)c1ccc([N-]C(=O)NCC(=O)[N-]CCc2ccc(S(=O)(=O)N3CCOCC3)cc2)cc1 (3D coordinates assigned)
[NH-]S(=O)(=O)c1ccc([N-]C(=O)NCC(=O)[N-]CCc2ccc(S(=O)(=O)N3CCOCC3)cc2)cc1 (nonaromatic ring conformer: 67.95415470508445 kcal/mol)

>  <smiles>  (28) 
NS(=O)(=O)c1ccc(NC(=O)NCC(=O)NCCc2ccc(S(=O)(=O)N3CCOCC3)cc2)cc1

>  <score_type>  (28) 
oracle

>  <origin>  (28) 
adg

>  <m_score__min__energy>  (28) 
-14.26

>  <m_primary>  (28) 
energy

$$$$
28:0
     RDKit          3D

 47 49  0  0  0  0  0  0  0  0999 V2000
   59.0680   30.2510   49.1290 C   0  0  0  0  0  0  0  0  0  0  0  0
   58.9150   31.6660   49.1320 O   0  0  0  0  0  0  0  0  0  0  0  0
   58.8170   32.4580   47.9770 C   0  0  0  0  0  0  0  0  0  0  0  0
   58.3690   31.9350   46.7480 C   0  0  0  0  0  0  0  0  0  0  0  0
   58.2840   32.7540   45.6120 C   0  0  0  0  0  0  0  0  0  0  0  0
   57.7670   32.2000   44.3130 C   0  0  0  0  0  0  0  0  0  0  0  0
   57.3320   30.7780   44.4940 C   0  0  0  0  0  0  0  0  0  0  0  0
   56.1020   30.5100   44.5330 O   0  0  0  0  0  0  0  0  0  0  0  0
   58.3120   29.7520   44.7140 N   0  0  0  0  0  0  0  0  0  0  0  0
   58.0210   28.3430   44.7180 C   0  0  0  0  0  0  0  0  0  0  0  0
   58.0940   27.6230   43.5150 C   0  0  0  0  0  0  0  0  0  0  0  0
   57.7910   26.2590   43.4870 C   0  0  0  0  0  0  0  0  0  0  0  0
   57.3990   25.6040   44.6580 C   0  0  0  0  0  0  0  0  0  0  0  0
   57.3010   26.3170   45.8560 C   0  0  0  0  0  0  0  0  0  0  0  0
   57.6030   27.6810   45.8880 C   0  0  0  0  0  0  0  0  0  0  0  0
   58.6350   34.1060   45.7120 C   0  0  0  0  0  0  0  0  0  0  0  0
   59.0830   34.6310   46.9240 C   0  0  0  0  0  0  0  0  0  0  0  0
   59.1750   33.8130   48.0660 C   0  0  0  0  0  0  0  0  0  0  0  0
   59.6160   34.3030   49.3070 O   0  0  0  0  0  0  0  0  0  0  0  0
   60.9520   34.2190   49.8040 C   0  0  0  0  0  0  0  0  0  0  0  0
   61.8240   33.4300   48.8640 C   0  0  0  0  0  0  0  0  0  0  0  0
   61.9440   32.0360   49.0000 C   0  0  0  0  0  0  0  0  0  0  0  0
   62.7640   31.3110   48.1300 C   0  0  0  0  0  0  0  0  0  0  0  0
   63.4770   31.9710   47.1260 C   0  0  0  0  0  0  0  0  0  0  0  0
   63.3740   33.3580   46.9910 C   0  0  0  0  0  0  0  0  0  0  0  0
   62.5540   34.0870   47.8600 C   0  0  0  0  0  0  0  0  0  0  0  0
   59.1077   29.8843   50.1653 H   0  0  0  0  0  0  0  0  0  0  0  0
   58.2144   29.7910   48.6097 H   0  0  0  0  0  0  0  0  0  0  0  0
   60.0002   29.9841   48.6097 H   0  0  0  0  0  0  0  0  0  0  0  0
   58.0833   30.8750   46.6784 H   0  0  0  0  0  0  0  0  0  0  0  0
   56.9101   32.8021   43.9765 H   0  0  0  0  0  0  0  0  0  0  0  0
   58.5699   32.2370   43.5620 H   0  0  0  0  0  0  0  0  0  0  0  0
   59.2820   30.0510   44.9620 H   0  0  0  0  0  0  0  0  0  0  0  0
   58.3916   28.1358   42.5885 H   0  0  0  0  0  0  0  0  0  0  0  0
   57.8611   25.7001   42.5422 H   0  0  0  0  0  0  0  0  0  0  0  0
   57.1680   24.5288   44.6366 H   0  0  0  0  0  0  0  0  0  0  0  0
   56.9854   25.8032   46.7760 H   0  0  0  0  0  0  0  0  0  0  0  0
   57.5137   28.2398   46.8313 H   0  0  0  0  0  0  0  0  0  0  0  0
   58.5569   34.7578   44.8294 H   0  0  0  0  0  0  0  0  0  0  0  0
   59.3665   35.6919   46.9880 H   0  0  0  0  0  0  0  0  0  0  0  0
   61.3619   35.2343   49.9095 H   0  0  0  0  0  0  0  0  0  0  0  0
   60.9339   33.7099   50.7789 H   0  0  0  0  0  0  0  0  0  0  0  0
   61.3905   31.5134   49.7941 H   0  0  0  0  0  0  0  0  0  0  0  0
   62.8479   30.2194   48.2362 H   0  0  0  0  0  0  0  0  0  0  0  0
   64.1199   31.3984   46.4413 H   0  0  0  0  0  0  0  0  0  0  0  0
   63.9375   33.8770   46.2016 H   0  0  0  0  0  0  0  0  0  0  0  0
   62.4809   35.1796   47.7561 H   0  0  0  0  0  0  0  0  0  0  0  0
  1  2  1  0
  2  3  1  0
  3  4  2  0
  4  5  1  0
  5  6  1  0
  6  7  1  0
  7  8  2  0
  7  9  1  0
  9 10  1  0
 10 11  2  0
 11 12  1  0
 12 13  2  0
 13 14  1  0
 14 15  2  0
  5 16  2  0
 16 17  1  0
 17 18  2  0
 18 19  1  0
 19 20  1  0
 20 21  1  0
 21 22  2  0
 22 23  1  0
 23 24  2  0
 24 25  1  0
 25 26  2  0
 18  3  1  0
 26 21  1  0
 15 10  1  0
  1 27  1  0
  1 28  1  0
  1 29  1  0
  4 30  1  0
  6 31  1  0
  6 32  1  0
  9 33  1  0
 11 34  1  0
 12 35  1  0
 13 36  1  0
 14 37  1  0
 15 38  1  0
 16 39  1  0
 17 40  1  0
 20 41  1  0
 20 42  1  0
 22 43  1  0
 23 44  1  0
 24 45  1  0
 25 46  1  0
 26 47  1  0
M  END
>  <UniqueID>  (29) 
26

>  <SMILES>  (29) 
COc1cc(CC(=O)Nc2ccccc2)ccc1OCc1ccccc1

>  <Energy>  (29) 
49.67966976036064

>  <Genealogy>  (29) 
COc1cc(CC(=O)Nc2ccccc2)ccc1OCc1ccccc1 (3D coordinates assigned)
COc1cc(CC(=O)Nc2ccccc2)ccc1OCc1ccccc1 (optimized conformer: 49.67966976036064 kcal/mol)

>  <smiles>  (29) 
COc1cc(CC(=O)Nc2ccccc2)ccc1OCc1ccccc1

>  <score_type>  (29) 
oracle

>  <origin>  (29) 
adg

>  <m_score__min__energy>  (29) 
-8.3900000000000006

>  <m_primary>  (29) 
energy

$$$$
29:0
     RDKit          3D

 64 68  0  0  0  0  0  0  0  0999 V2000
   58.4560   34.1380   44.9920 C   0  0  0  0  0  0  0  0  0  0  0  0
   58.8480   33.9540   46.4280 C   0  0  0  0  0  0  0  0  0  0  0  0
   58.1710   33.0180   47.2250 C   0  0  0  0  0  0  0  0  0  0  0  0
   58.5210   32.8520   48.5720 C   0  0  0  0  0  0  0  0  0  0  0  0
   59.5390   33.6360   49.1390 C   0  0  0  0  0  0  0  0  0  0  0  0
   59.8910   33.4810   50.5980 C   0  0  0  0  0  0  0  0  0  0  0  0
   59.4110   32.1960   51.1050 N   0  0  0  0  0  0  0  0  0  0  0  0
   58.1270   32.0420   51.7300 C   0  0  0  0  0  0  0  0  0  0  0  0
   57.4190   33.0560   51.9790 O   0  0  0  0  0  0  0  0  0  0  0  0
   57.6340   30.6950   52.1660 C   0  0  0  0  0  0  0  0  0  0  0  0
   57.9070   29.7150   51.1690 O   0  0  0  0  0  0  0  0  0  0  0  0
   59.2010   29.4270   50.7240 C   0  0  0  0  0  0  0  0  0  0  0  0
   60.1300   29.2400   51.5560 O   0  0  0  0  0  0  0  0  0  0  0  0
   59.4770   29.3600   49.2720 C   0  0  0  0  0  0  0  0  0  0  0  0
   60.2820   30.3330   48.6650 C   0  0  0  0  0  0  0  0  0  0  0  0
   60.5930   30.2410   47.3120 C   0  0  0  0  0  0  0  0  0  0  0  0
   60.1080   29.1790   46.5430 C   0  0  0  0  0  0  0  0  0  0  0  0
   59.2670   28.2040   47.1240 C   0  0  0  0  0  0  0  0  0  0  0  0
   58.9630   28.3080   48.4920 C   0  0  0  0  0  0  0  0  0  0  0  0
   58.7140   27.1200   46.3360 N   0  0  0  0  0  0  0  0  0  0  0  0
   59.0040   25.7250   46.7330 C   0  0  0  0  0  0  0  0  0  0  0  0
   57.8890   24.7780   46.3360 C   0  0  0  0  0  0  0  0  0  0  0  0
   56.5690   24.9940   46.7800 C   0  0  0  0  0  0  0  0  0  0  0  0
   55.5380   24.1210   46.4050 C   0  0  0  0  0  0  0  0  0  0  0  0
   55.8070   23.0240   45.5800 C   0  0  0  0  0  0  0  0  0  0  0  0
   57.1100   22.8090   45.1150 C   0  0  0  0  0  0  0  0  0  0  0  0
   58.1460   23.6830   45.4890 C   0  0  0  0  0  0  0  0  0  0  0  0
   58.0300   27.3810   45.0760 C   0  0  0  0  0  0  0  0  0  0  0  0
   57.7470   26.4300   44.2960 O   0  0  0  0  0  0  0  0  0  0  0  0
   57.7440   28.7570   44.6180 C   0  0  0  0  0  0  0  0  0  0  0  0
   56.4260   29.1600   44.3590 C   0  0  0  0  0  0  0  0  0  0  0  0
   56.1550   30.4820   43.9950 C   0  0  0  0  0  0  0  0  0  0  0  0
   57.1990   31.4050   43.8760 C   0  0  0  0  0  0  0  0  0  0  0  0
   58.5210   31.0050   44.1060 C   0  0  0  0  0  0  0  0  0  0  0  0
   58.7950   29.6770   44.4560 C   0  0  0  0  0  0  0  0  0  0  0  0
   60.4780   29.1620   44.7930 S   0  0  0  0  0  0  0  0  0  0  0  0
   60.1990   34.5930   48.3460 C   0  0  0  0  0  0  0  0  0  0  0  0
   59.8550   34.7480   46.9970 C   0  0  0  0  0  0  0  0  0  0  0  0
   57.4613   34.6049   44.9404 H   0  0  0  0  0  0  0  0  0  0  0  0
   59.1912   34.7851   44.4912 H   0  0  0  0  0  0  0  0  0  0  0  0
   58.4280   33.1590   44.4912 H   0  0  0  0  0  0  0  0  0  0  0  0
   57.3622   32.4120   46.7907 H   0  0  0  0  0  0  0  0  0  0  0  0
   57.9968   32.1055   49.1868 H   0  0  0  0  0  0  0  0  0  0  0  0
   60.9837   33.5312   50.7144 H   0  0  0  0  0  0  0  0  0  0  0  0
   59.4123   34.2907   51.1683 H   0  0  0  0  0  0  0  0  0  0  0  0
   60.0320   31.3610   50.9930 H   0  0  0  0  0  0  0  0  0  0  0  0
   58.1390   30.4103   53.1008 H   0  0  0  0  0  0  0  0  0  0  0  0
   56.5465   30.7487   52.3225 H   0  0  0  0  0  0  0  0  0  0  0  0
   60.6696   31.1728   49.2604 H   0  0  0  0  0  0  0  0  0  0  0  0
   61.2253   31.0097   46.8438 H   0  0  0  0  0  0  0  0  0  0  0  0
   58.3126   27.5547   48.9606 H   0  0  0  0  0  0  0  0  0  0  0  0
   59.9348   25.4027   46.2434 H   0  0  0  0  0  0  0  0  0  0  0  0
   59.1000   25.6965   47.8284 H   0  0  0  0  0  0  0  0  0  0  0  0
   56.3456   25.8554   47.4266 H   0  0  0  0  0  0  0  0  0  0  0  0
   54.5127   24.2996   46.7613 H   0  0  0  0  0  0  0  0  0  0  0  0
   54.9986   22.3334   45.2978 H   0  0  0  0  0  0  0  0  0  0  0  0
   57.3236   21.9547   44.4558 H   0  0  0  0  0  0  0  0  0  0  0  0
   59.1664   23.5097   45.1165 H   0  0  0  0  0  0  0  0  0  0  0  0
   55.6037   28.4342   44.4425 H   0  0  0  0  0  0  0  0  0  0  0  0
   55.1189   30.7970   43.8018 H   0  0  0  0  0  0  0  0  0  0  0  0
   56.9811   32.4476   43.6011 H   0  0  0  0  0  0  0  0  0  0  0  0
   59.3416   31.7315   44.0121 H   0  0  0  0  0  0  0  0  0  0  0  0
   60.9872   35.2211   48.7867 H   0  0  0  0  0  0  0  0  0  0  0  0
   60.3766   35.4954   46.3812 H   0  0  0  0  0  0  0  0  0  0  0  0
  1  2  1  0
  2  3  2  0
  3  4  1  0
  4  5  2  0
  5  6  1  0
  6  7  1  0
  7  8  1  0
  8  9  2  0
  8 10  1  0
 10 11  1  0
 11 12  1  0
 12 13  2  0
 12 14  1  0
 14 15  2  0
 15 16  1  0
 16 17  2  0
 17 18  1  0
 18 19  2  0
 18 20  1  0
 20 21  1  0
 21 22  1  0
 22 23  2  0
 23 24  1  0
 24 25  2  0
 25 26  1  0
 26 27  2  0
 20 28  1  0
 28 29  2  0
 28 30  1  0
 30 31  2  0
 31 32  1  0
 32 33  2  0
 33 34  1  0
 34 35  2  0
 35 36  1  0
  5 37  1  0
 37 38  2  0
 38  2  1  0
 19 14  1  0
 27 22  1  0
 35 30  1  0
 36 17  1  0
  1 39  1  0
  1 40  1  0
  1 41  1  0
  3 42  1  0
  4 43  1  0
  6 44  1  0
  6 45  1  0
  7 46  1  0
 10 47  1  0
 10 48  1  0
 15 49  1  0
 16 50  1  0
 19 51  1  0
 21 52  1  0
 21 53  1  0
 23 54  1  0
 24 55  1  0
 25 56  1  0
 26 57  1  0
 27 58  1  0
 31 59  1  0
 32 60  1  0
 33 61  1  0
 34 62  1  0
 37 63  1  0
 38 64  1  0
M  END
>  <UniqueID>  (30) 
27

>  <SMILES>  (30) 
Cc1ccc(CNC(=O)COC(=O)c2ccc3c(c2)N(Cc2ccccc2)C(=O)c2ccccc2S3)cc1

>  <Energy>  (30) 
82.42980347952093

>  <Genealogy>  (30) 
Cc1ccc(CNC(=O)COC(=O)c2ccc3c(c2)N(Cc2ccccc2)C(=O)c2ccccc2S3)cc1 (3D coordinates assigned)
Cc1ccc(CNC(=O)COC(=O)c2ccc3c(c2)N(Cc2ccccc2)C(=O)c2ccccc2S3)cc1 (nonaromatic ring conformer: 82.42980347952093 kcal/mol)

>  <smiles>  (30) 
Cc1ccc(CNC(=O)COC(=O)c2ccc3c(c2)N(Cc2ccccc2)C(=O)c2ccccc2S3)cc1

>  <score_type>  (30) 
oracle

>  <origin>  (30) 
adg

>  <m_score__min__energy>  (30) 
-10.51

>  <m_primary>  (30) 
energy

$$$$
30:0
     RDKit          3D

 49 51  0  0  0  0  0  0  0  0999 V2000
   57.0170   34.1980   45.2480 C   0  0  0  0  0  0  0  0  0  0  0  0
   58.4320   34.2410   45.0960 O   0  0  0  0  0  0  0  0  0  0  0  0
   59.3460   34.2210   46.1610 C   0  0  0  0  0  0  0  0  0  0  0  0
   58.8930   34.5930   47.4280 C   0  0  0  0  0  0  0  0  0  0  0  0
   59.7600   34.5890   48.5210 C   0  0  0  0  0  0  0  0  0  0  0  0
   61.1020   34.1970   48.3690 C   0  0  0  0  0  0  0  0  0  0  0  0
   61.9790   34.2080   49.4650 O   0  0  0  0  0  0  0  0  0  0  0  0
   62.7260   33.1120   49.9250 C   0  0  0  0  0  0  0  0  0  0  0  0
   64.1260   33.1780   50.0490 C   0  0  0  0  0  0  0  0  0  0  0  0
   64.8450   32.0770   50.5200 C   0  0  0  0  0  0  0  0  0  0  0  0
   64.1750   30.9040   50.8710 C   0  0  0  0  0  0  0  0  0  0  0  0
   62.7830   30.8340   50.7710 C   0  0  0  0  0  0  0  0  0  0  0  0
   62.0470   31.9480   50.3220 C   0  0  0  0  0  0  0  0  0  0  0  0
   60.6180   31.9020   50.1910 N   0  0  0  0  0  0  0  0  0  0  0  0
   59.8800   31.3160   49.1120 C   0  0  0  0  0  0  0  0  0  0  0  0
   58.6340   31.1480   49.2080 O   0  0  0  0  0  0  0  0  0  0  0  0
   60.5600   31.0130   47.8860 N   0  0  0  0  0  0  0  0  0  0  0  0
   59.9810   30.2680   46.8010 C   0  0  0  0  0  0  0  0  0  0  0  0
   60.4790   29.0070   46.4310 C   0  0  0  0  0  0  0  0  0  0  0  0
   59.9140   28.3140   45.3600 C   0  0  0  0  0  0  0  0  0  0  0  0
   58.8570   28.8730   44.6380 C   0  0  0  0  0  0  0  0  0  0  0  0
   58.3570   30.1450   44.9740 C   0  0  0  0  0  0  0  0  0  0  0  0
   57.2390   30.7630   44.2100 C   0  0  0  0  0  0  0  0  0  0  0  0
   57.4790   31.5920   42.9840 C   0  0  0  0  0  0  0  0  0  0  0  0
   56.0490   30.5920   44.5930 O   0  0  0  0  0  0  0  0  0  0  0  0
   58.9350   30.8360   46.0570 C   0  0  0  0  0  0  0  0  0  0  0  0
   61.5770   33.8360   47.0870 C   0  0  0  0  0  0  0  0  0  0  0  0
   62.9810   33.4350   46.8500 C   0  0  0  0  0  0  0  0  0  0  0  0
   63.3800   32.2580   47.0550 O   0  0  0  0  0  0  0  0  0  0  0  0
   60.6920   33.8460   45.9950 C   0  0  0  0  0  0  0  0  0  0  0  0
   56.7633   34.1903   46.3183 H   0  0  0  0  0  0  0  0  0  0  0  0
   56.5700   35.0830   44.7716 H   0  0  0  0  0  0  0  0  0  0  0  0
   56.6245   33.2875   44.7716 H   0  0  0  0  0  0  0  0  0  0  0  0
   57.8434   34.8919   47.5657 H   0  0  0  0  0  0  0  0  0  0  0  0
   59.3905   34.8953   49.5108 H   0  0  0  0  0  0  0  0  0  0  0  0
   64.6569   34.1012   49.7737 H   0  0  0  0  0  0  0  0  0  0  0  0
   65.9394   32.1344   50.6143 H   0  0  0  0  0  0  0  0  0  0  0  0
   64.7441   30.0326   51.2272 H   0  0  0  0  0  0  0  0  0  0  0  0
   62.2600   29.9056   51.0439 H   0  0  0  0  0  0  0  0  0  0  0  0
   61.5090   31.4290   47.7480 H   0  0  0  0  0  0  0  0  0  0  0  0
   61.3179   28.5645   46.9882 H   0  0  0  0  0  0  0  0  0  0  0  0
   60.3027   27.3230   45.0829 H   0  0  0  0  0  0  0  0  0  0  0  0
   58.4122   28.3151   43.8008 H   0  0  0  0  0  0  0  0  0  0  0  0
   57.7735   32.6093   43.2812 H   0  0  0  0  0  0  0  0  0  0  0  0
   58.2825   31.1377   42.3857 H   0  0  0  0  0  0  0  0  0  0  0  0
   56.5571   31.6372   42.3857 H   0  0  0  0  0  0  0  0  0  0  0  0
   58.5611   31.8356   46.3236 H   0  0  0  0  0  0  0  0  0  0  0  0
   63.6968   34.1859   46.4844 H   0  0  0  0  0  0  0  0  0  0  0  0
   61.0563   33.5570   44.9981 H   0  0  0  0  0  0  0  0  0  0  0  0
  1  2  1  0
  2  3  1  0
  3  4  2  0
  4  5  1  0
  5  6  2  0
  6  7  1  0
  7  8  1  0
  8  9  2  0
  9 10  1  0
 10 11  2  0
 11 12  1  0
 12 13  2  0
 13 14  1  0
 14 15  1  0
 15 16  2  0
 15 17  1  0
 17 18  1  0
 18 19  2  0
 19 20  1  0
 20 21  2  0
 21 22  1  0
 22 23  1  0
 23 24  1  0
 23 25  2  0
 22 26  2  0
  6 27  1  0
 27 28  1  0
 28 29  2  0
 27 30  2  0
 30  3  1  0
 13  8  1  0
 26 18  1  0
  1 31  1  0
  1 32  1  0
  1 33  1  0
  4 34  1  0
  5 35  1  0
  9 36  1  0
 10 37  1  0
 11 38  1  0
 12 39  1  0
 17 40  1  0
 19 41  1  0
 20 42  1  0
 21 43  1  0
 24 44  1  0
 24 45  1  0
 24 46  1  0
 26 47  1  0
 28 48  1  0
 30 49  1  0
M  CHG  1  14  -1
M  END
>  <UniqueID>  (31) 
28

>  <SMILES>  (31) 
COc1ccc(Oc2ccccc2[N-]C(=O)Nc2cccc(C(C)=O)c2)c(C=O)c1

>  <Energy>  (31) 
65.88927163344532

>  <Genealogy>  (31) 
COc1ccc(Oc2ccccc2[N-]C(=O)Nc2cccc(C(C)=O)c2)c(C=O)c1 (protonated)
COc1ccc(Oc2ccccc2[N-]C(=O)Nc2cccc(C(C)=O)c2)c(C=O)c1 (3D coordinates assigned)
COc1ccc(Oc2ccccc2[N-]C(=O)Nc2cccc(C(C)=O)c2)c(C=O)c1 (optimized conformer: 65.88927163344532 kcal/mol)

>  <smiles>  (31) 
COc1ccc(Oc2ccccc2NC(=O)Nc2cccc(C(C)=O)c2)c(C=O)c1

>  <score_type>  (31) 
oracle

>  <origin>  (31) 
adg

>  <m_score__min__energy>  (31) 
-10.960000000000001

>  <m_primary>  (31) 
energy

$$$$
31:0
     RDKit          3D

 40 44  0  0  0  0  0  0  0  0999 V2000
   59.4360   24.7610   45.9790 C   0  0  0  0  0  0  0  0  0  0  0  0
   60.0660   26.0380   45.9940 O   0  0  0  0  0  0  0  0  0  0  0  0
   59.3960   27.2530   45.7910 C   0  0  0  0  0  0  0  0  0  0  0  0
   60.1580   28.3920   45.5040 C   0  0  0  0  0  0  0  0  0  0  0  0
   59.5380   29.6260   45.2920 C   0  0  0  0  0  0  0  0  0  0  0  0
   58.1390   29.7420   45.3610 C   0  0  0  0  0  0  0  0  0  0  0  0
   57.4610   31.0790   45.1440 C   0  0  1  0  0  0  0  0  0  0  0  0
   58.2140   32.1780   45.8950 C   0  0  0  0  0  0  0  0  0  0  0  0
   58.2420   32.1400   47.3080 C   0  0  0  0  0  0  0  0  0  0  0  0
   58.9620   33.1210   47.9800 C   0  0  0  0  0  0  0  0  0  0  0  0
   59.6280   34.1030   47.3240 C   0  0  0  0  0  0  0  0  0  0  0  0
   59.6320   34.1950   45.9370 C   0  0  0  0  0  0  0  0  0  0  0  0
   58.9150   33.2270   45.2050 C   0  0  0  0  0  0  0  0  0  0  0  0
   58.8690   33.3160   43.7710 N   0  0  0  0  0  0  0  0  0  0  0  0
   58.0570   32.3870   43.0610 C   0  0  0  0  0  0  0  0  0  0  0  0
   57.7810   32.3360   41.7140 C   0  0  0  0  0  0  0  0  0  0  0  0
   56.9610   31.3250   41.4980 O   0  0  0  0  0  0  0  0  0  0  0  0
   56.7050   30.7370   42.6500 C   0  0  0  0  0  0  0  0  0  0  0  0
   55.8720   29.6290   42.7820 O   0  0  0  0  0  0  0  0  0  0  0  0
   57.3750   31.3800   43.6720 C   0  0  0  0  0  0  0  0  0  0  0  0
   60.2510   34.9290   48.2410 O   0  0  0  0  0  0  0  0  0  0  0  0
   59.9570   34.4330   49.5540 C   0  0  0  0  0  0  0  0  0  0  0  0
   59.1320   33.2790   49.3420 O   0  0  0  0  0  0  0  0  0  0  0  0
   57.3740   28.6010   45.6540 C   0  0  0  0  0  0  0  0  0  0  0  0
   57.9950   27.3660   45.8650 C   0  0  0  0  0  0  0  0  0  0  0  0
   59.2690   24.4224   47.0122 H   0  0  0  0  0  0  0  0  0  0  0  0
   58.4707   24.8345   45.4566 H   0  0  0  0  0  0  0  0  0  0  0  0
   60.0817   24.0397   45.4566 H   0  0  0  0  0  0  0  0  0  0  0  0
   61.2537   28.3147   45.4450 H   0  0  0  0  0  0  0  0  0  0  0  0
   60.1492   30.5131   45.0695 H   0  0  0  0  0  0  0  0  0  0  0  0
   56.4367   31.0373   45.5429 H   0  0  0  0  0  0  0  0  0  0  0  0
   57.7075   31.3540   47.8616 H   0  0  0  0  0  0  0  0  0  0  0  0
   60.1792   35.0004   45.4252 H   0  0  0  0  0  0  0  0  0  0  0  0
   59.3760   34.0710   43.2570 H   0  0  0  0  0  0  0  0  0  0  0  0
   58.1760   33.0204   40.9488 H   0  0  0  0  0  0  0  0  0  0  0  0
   55.5750   29.0980   41.9730 H   0  0  0  0  0  0  0  0  0  0  0  0
   60.8833   34.1544   50.0778 H   0  0  0  0  0  0  0  0  0  0  0  0
   59.4562   35.1885   50.1772 H   0  0  0  0  0  0  0  0  0  0  0  0
   56.2787   28.6795   45.7179 H   0  0  0  0  0  0  0  0  0  0  0  0
   57.3855   26.4783   46.0899 H   0  0  0  0  0  0  0  0  0  0  0  0
  1  2  1  0
  2  3  1  0
  3  4  2  0
  4  5  1  0
  5  6  2  0
  6  7  1  0
  7  8  1  0
  8  9  2  0
  9 10  1  0
 10 11  2  0
 11 12  1  0
 12 13  2  0
 13 14  1  0
 14 15  1  0
 15 16  2  0
 16 17  1  0
 17 18  1  0
 18 19  1  0
 18 20  2  0
 11 21  1  0
 21 22  1  0
 22 23  1  0
  6 24  1  0
 24 25  2  0
 25  3  1  0
 20  7  1  0
 13  8  1  0
 20 15  1  0
 23 10  1  0
  1 26  1  0
  1 27  1  0
  1 28  1  0
  4 29  1  0
  5 30  1  0
  7 31  1  1
  9 32  1  0
 12 33  1  0
 14 34  1  0
 16 35  1  0
 19 36  1  0
 22 37  1  0
 22 38  1  0
 24 39  1  0
 25 40  1  0
M  END
>  <UniqueID>  (32) 
29

>  <SMILES>  (32) 
COc1ccc([C@H]2c3cc4c(cc3Nc3coc(O)c32)OCO4)cc1

>  <Energy>  (32) 
105.66729021483013

>  <Genealogy>  (32) 
COc1ccc([C@H]2c3cc4c(cc3Nc3coc(O)c32)OCO4)cc1 (chirality)
COc1ccc([C@H]2c3cc4c(cc3Nc3coc(O)c32)OCO4)cc1 (3D coordinates assigned)
COc1ccc([C@H]2c3cc4c(cc3Nc3coc(O)c32)OCO4)cc1 (nonaromatic ring conformer: 105.66729021483013 kcal/mol)

>  <smiles>  (32) 
COc1ccc(C2c3cc4c(cc3Nc3coc(O)c32)OCO4)cc1

>  <score_type>  (32) 
oracle

>  <origin>  (32) 
adg

>  <m_score__min__energy>  (32) 
-6.6600000000000001

>  <m_primary>  (32) 
energy

$$$$
32:0
     RDKit          3D

 46 48  0  0  1  0  0  0  0  0999 V2000
   59.6190   33.8720   50.1210 C   0  0  0  0  0  0  0  0  0  0  0  0
   59.9680   33.7900   48.6760 C   0  0  0  0  0  0  0  0  0  0  0  0
   58.9410   33.6400   47.7760 C   0  0  0  0  0  0  0  0  0  0  0  0
   59.2780   33.5670   46.4430 C   0  0  0  0  0  0  0  0  0  0  0  0
   58.3330   33.4270   45.5840 N   0  0  0  0  0  0  0  0  0  0  0  0
   57.9680   32.0090   44.7230 S   0  0  0  0  0  0  0  0  0  0  0  0
   56.4510   31.8310   44.8370 O   0  0  0  0  0  0  0  0  0  0  0  0
   58.2120   32.0970   43.2430 O   0  0  0  0  0  0  0  0  0  0  0  0
   58.6340   30.5560   45.4350 C   0  0  0  0  0  0  0  0  0  0  0  0
   59.8630   30.5110   46.0540 C   0  0  0  0  0  0  0  0  0  0  0  0
   60.3840   29.3570   46.6200 C   0  0  0  0  0  0  0  0  0  0  0  0
   59.6770   28.1900   46.5810 C   0  0  0  0  0  0  0  0  0  0  0  0
   58.4400   28.1940   45.9680 C   0  0  0  0  0  0  0  0  0  0  0  0
   57.6850   26.9470   45.9270 C   0  0  0  0  0  0  0  0  0  0  0  0
   57.3270   26.4310   47.0340 O   0  0  0  0  0  0  0  0  0  0  0  0
   57.3210   26.2670   44.7580 N   0  0  0  0  0  0  0  0  0  0  0  0
   56.5790   25.0460   44.7850 C   0  0  0  0  0  0  0  0  0  0  0  0
   57.1110   23.9130   44.1930 C   0  0  0  0  0  0  0  0  0  0  0  0
   56.3890   22.7370   44.2230 C   0  0  0  0  0  0  0  0  0  0  0  0
   57.0730   21.3180   43.4740 Cl  0  0  0  0  0  0  0  0  0  0  0  0
   55.1370   22.6690   44.8350 C   0  0  0  0  0  0  0  0  0  0  0  0
   54.6000   23.8140   45.4310 C   0  0  0  0  0  0  0  0  0  0  0  0
   55.3260   24.9880   45.4000 C   0  0  0  0  0  0  0  0  0  0  0  0
   54.8720   26.1720   45.9660 O   0  0  0  0  0  0  0  0  0  0  0  0
   57.9290   29.3470   45.4080 C   0  0  0  0  0  0  0  0  0  0  0  0
   60.5390   33.6340   46.0020 N   0  0  0  0  0  0  0  0  0  0  0  0
   61.5230   33.7810   46.9010 C   0  0  0  0  0  0  0  0  0  0  0  0
   62.9450   33.8630   46.4800 C   0  0  0  0  0  0  0  0  0  0  0  0
   61.2350   33.8580   48.2280 N   0  0  0  0  0  0  0  0  0  0  0  0
   60.5129   33.6620   50.7266 H   0  0  0  0  0  0  0  0  0  0  0  0
   59.2485   34.8816   50.3520 H   0  0  0  0  0  0  0  0  0  0  0  0
   58.8377   33.1330   50.3520 H   0  0  0  0  0  0  0  0  0  0  0  0
   57.8935   33.5807   48.1064 H   0  0  0  0  0  0  0  0  0  0  0  0
   60.4598   31.4338   46.1019 H   0  0  0  0  0  0  0  0  0  0  0  0
   61.3720   29.3823   47.1028 H   0  0  0  0  0  0  0  0  0  0  0  0
   60.0826   27.2697   47.0267 H   0  0  0  0  0  0  0  0  0  0  0  0
   57.5960   26.6580   43.8350 H   0  0  0  0  0  0  0  0  0  0  0  0
   58.0962   23.9496   43.7051 H   0  0  0  0  0  0  0  0  0  0  0  0
   54.5770   21.7223   44.8485 H   0  0  0  0  0  0  0  0  0  0  0  0
   53.6139   23.7801   45.9173 H   0  0  0  0  0  0  0  0  0  0  0  0
   55.1500   26.3310   46.9350 H   0  0  0  0  0  0  0  0  0  0  0  0
   56.9402   29.3152   44.9270 H   0  0  0  0  0  0  0  0  0  0  0  0
   60.7310   33.5740   45.0010 H   0  0  0  0  0  0  0  0  0  0  0  0
   63.5895   33.9002   47.3706 H   0  0  0  0  0  0  0  0  0  0  0  0
   63.2010   32.9781   45.8788 H   0  0  0  0  0  0  0  0  0  0  0  0
   63.0976   34.7714   45.8788 H   0  0  0  0  0  0  0  0  0  0  0  0
  1  2  1  0
  2  3  2  0
  3  4  1  0
  4  5  2  0
  5  6  1  0
  6  7  2  0
  6  8  2  0
  6  9  1  0
  9 10  2  0
 10 11  1  0
 11 12  2  0
 12 13  1  0
 13 14  1  0
 14 15  2  0
 14 16  1  0
 16 17  1  0
 17 18  2  0
 18 19  1  0
 19 20  1  0
 19 21  2  0
 21 22  1  0
 22 23  2  0
 23 24  1  0
 13 25  2  0
  4 26  1  0
 26 27  1  0
 27 28  1  0
 27 29  2  0
 29  2  1  0
 25  9  1  0
 23 17  1  0
  1 30  1  0
  1 31  1  0
  1 32  1  0
  3 33  1  0
 10 34  1  0
 11 35  1  0
 12 36  1  0
 16 37  1  0
 18 38  1  0
 21 39  1  0
 22 40  1  0
 24 41  1  0
 25 42  1  0
 26 43  1  0
 28 44  1  0
 28 45  1  0
 28 46  1  0
M  END
>  <smiles>  (33) 
Cc1cc(=NS(=O)(=O)c2cccc(C(=O)Nc3cc(Cl)ccc3O)c2)[nH]c(C)n1

>  <score_type>  (33) 
oracle

>  <origin>  (33) 
adg

>  <m_score__min__energy>  (33) 
-10.41

>  <m_primary>  (33) 
energy

$$$$
33:0
     RDKit          3D

 40 42  0  0  0  0  0  0  0  0999 V2000
   56.4070   22.3070   43.7460 C   0  0  0  0  0  0  0  0  0  0  0  0
   55.6640   23.5640   43.9250 N   0  0  0  0  0  0  0  0  0  0  0  0
   54.3580   23.3370   44.5580 C   0  0  0  0  0  0  0  0  0  0  0  0
   54.0680   24.5640   45.3960 C   0  0  0  0  0  0  0  0  0  0  0  0
   55.4390   25.0090   45.8660 C   0  0  2  0  0  0  0  0  0  0  0  0
   55.5130   26.4640   46.0030 N   0  0  0  0  0  0  0  0  0  0  0  0
   56.6540   27.3070   45.7840 C   0  0  0  0  0  0  0  0  0  0  0  0
   57.7870   26.8680   46.1180 O   0  0  0  0  0  0  0  0  0  0  0  0
   56.5640   28.6750   45.2290 C   0  0  0  0  0  0  0  0  0  0  0  0
   57.6350   29.4230   44.7780 C   0  0  0  0  0  0  0  0  0  0  0  0
   57.0610   30.5960   44.3380 C   0  0  0  0  0  0  0  0  0  0  0  0
   57.7880   31.7390   43.6970 C   0  0  0  0  0  0  0  0  0  0  0  0
   57.5690   32.9540   44.4140 O   0  0  0  0  0  0  0  0  0  0  0  0
   58.1930   33.3090   45.6260 C   0  0  0  0  0  0  0  0  0  0  0  0
   58.0830   32.5270   46.7950 C   0  0  0  0  0  0  0  0  0  0  0  0
   58.7130   32.9340   47.9800 C   0  0  0  0  0  0  0  0  0  0  0  0
   59.4590   34.1170   48.0090 C   0  0  0  0  0  0  0  0  0  0  0  0
   59.5780   34.8940   46.8520 C   0  0  0  0  0  0  0  0  0  0  0  0
   58.9480   34.4920   45.6650 C   0  0  0  0  0  0  0  0  0  0  0  0
   59.0660   35.2560   44.5490 F   0  0  0  0  0  0  0  0  0  0  0  0
   55.7230   30.5350   44.4880 N   0  0  0  0  0  0  0  0  0  0  0  0
   55.4240   29.3650   45.0350 N   0  0  0  0  0  0  0  0  0  0  0  0
   56.3910   24.5250   44.7700 C   0  0  0  0  0  0  0  0  0  0  0  0
   56.6564   21.8851   44.7308 H   0  0  0  0  0  0  0  0  0  0  0  0
   55.7869   21.5910   43.1867 H   0  0  0  0  0  0  0  0  0  0  0  0
   57.3333   22.5050   43.1867 H   0  0  0  0  0  0  0  0  0  0  0  0
   53.5807   23.2086   43.7903 H   0  0  0  0  0  0  0  0  0  0  0  0
   54.3678   22.4266   45.1754 H   0  0  0  0  0  0  0  0  0  0  0  0
   53.5869   25.3472   44.7917 H   0  0  0  0  0  0  0  0  0  0  0  0
   53.3774   24.3595   46.2274 H   0  0  0  0  0  0  0  0  0  0  0  0
   55.6852   24.6003   46.8572 H   0  0  0  0  0  0  0  0  0  0  0  0
   58.6995   29.1461   44.7717 H   0  0  0  0  0  0  0  0  0  0  0  0
   58.8655   31.5181   43.6851 H   0  0  0  0  0  0  0  0  0  0  0  0
   57.4078   31.8644   42.6724 H   0  0  0  0  0  0  0  0  0  0  0  0
   57.5006   31.5940   46.7770 H   0  0  0  0  0  0  0  0  0  0  0  0
   58.6203   32.3214   48.8889 H   0  0  0  0  0  0  0  0  0  0  0  0
   59.9510   34.4356   48.9398 H   0  0  0  0  0  0  0  0  0  0  0  0
   60.1672   35.8227   46.8731 H   0  0  0  0  0  0  0  0  0  0  0  0
   56.7243   25.3788   44.1618 H   0  0  0  0  0  0  0  0  0  0  0  0
   57.2752   24.0470   45.2168 H   0  0  0  0  0  0  0  0  0  0  0  0
  1  2  1  0
  2  3  1  0
  3  4  1  0
  4  5  1  0
  5  6  1  0
  6  7  1  0
  7  8  2  0
  7  9  1  0
  9 10  1  0
 10 11  2  0
 11 12  1  0
 12 13  1  0
 13 14  1  0
 14 15  2  0
 15 16  1  0
 16 17  2  0
 17 18  1  0
 18 19  2  0
 19 20  1  0
 11 21  1  0
 21 22  1  0
  5 23  1  0
 23  2  1  0
 22  9  2  0
 19 14  1  0
  1 24  1  0
  1 25  1  0
  1 26  1  0
  3 27  1  0
  3 28  1  0
  4 29  1  0
  4 30  1  0
  5 31  1  1
 10 32  1  0
 12 33  1  0
 12 34  1  0
 15 35  1  0
 16 36  1  0
 17 37  1  0
 18 38  1  0
 23 39  1  0
 23 40  1  0
M  CHG  2   6  -1  21  -1
M  END
>  <UniqueID>  (34) 
30

>  <SMILES>  (34) 
CN1CC[C@H]([N-]C(=O)c2cc(COc3ccccc3F)[n-]n2)C1

>  <Energy>  (34) 
73.77051871937026

>  <Genealogy>  (34) 
CN1CCC([N-]C(=O)c2cc(COc3ccccc3F)[n-]n2)C1 (protonated)
CN1CC[C@H]([N-]C(=O)c2cc(COc3ccccc3F)[n-]n2)C1 (chirality)
CN1CC[C@H]([N-]C(=O)c2cc(COc3ccccc3F)[n-]n2)C1 (3D coordinates assigned)
CN1CC[C@H]([N-]C(=O)c2cc(COc3ccccc3F)[n-]n2)C1 (nonaromatic ring conformer: 73.77051871937026 kcal/mol)

>  <smiles>  (34) 
CN1CCC(NC(=O)c2cc(COc3ccccc3F)[nH]n2)C1

>  <score_type>  (34) 
oracle

>  <origin>  (34) 
adg

>  <m_score__min__energy>  (34) 
-11.44

>  <m_primary>  (34) 
energy

$$$$
34:0
     RDKit          3D

 38 39  0  0  0  0  0  0  0  0999 V2000
   57.0940   27.2800   45.9910 C   0  0  0  0  0  0  0  0  0  0  0  0
   57.9730   27.6350   44.8690 N   0  0  0  0  0  0  0  0  0  0  0  0
   57.3960   28.6270   43.9380 C   0  0  0  0  0  0  0  0  0  0  0  0
   56.3620   29.5430   44.5600 C   0  0  0  0  0  0  0  0  0  0  0  0
   55.1890   29.1210   44.7350 O   0  0  0  0  0  0  0  0  0  0  0  0
   56.6510   30.9050   44.8960 N   0  0  0  0  0  0  0  0  0  0  0  0
   57.4600   31.8200   44.1040 C   0  0  0  0  0  0  0  0  0  0  0  0
   58.0420   32.8650   45.0030 C   0  0  0  0  0  0  0  0  0  0  0  0
   58.9160   33.8390   44.4990 C   0  0  0  0  0  0  0  0  0  0  0  0
   59.4060   34.8280   45.3540 C   0  0  0  0  0  0  0  0  0  0  0  0
   59.0160   34.8430   46.6940 C   0  0  0  0  0  0  0  0  0  0  0  0
   58.1320   33.8660   47.1600 C   0  0  0  0  0  0  0  0  0  0  0  0
   57.6650   32.9110   46.3120 N   0  0  0  0  0  0  0  0  0  0  0  0
   59.5950   28.0230   45.4030 S   0  0  0  0  0  0  0  0  0  0  0  0
   60.2310   26.7870   45.9720 O   0  0  0  0  0  0  0  0  0  0  0  0
   60.4120   28.4550   44.2160 O   0  0  0  0  0  0  0  0  0  0  0  0
   59.6390   29.2870   46.6380 C   0  0  0  0  0  0  0  0  0  0  0  0
   58.8800   29.1640   47.8130 C   0  0  0  0  0  0  0  0  0  0  0  0
   58.9200   30.1650   48.7870 C   0  0  0  0  0  0  0  0  0  0  0  0
   59.6990   31.3090   48.5860 C   0  0  0  0  0  0  0  0  0  0  0  0
   59.7460   32.5650   49.8090 Cl  0  0  0  0  0  0  0  0  0  0  0  0
   60.4320   31.4520   47.4030 C   0  0  0  0  0  0  0  0  0  0  0  0
   60.3960   30.4500   46.4290 C   0  0  0  0  0  0  0  0  0  0  0  0
   57.6091   27.4880   46.9404 H   0  0  0  0  0  0  0  0  0  0  0  0
   56.1710   27.8758   45.9364 H   0  0  0  0  0  0  0  0  0  0  0  0
   56.8436   26.2103   45.9364 H   0  0  0  0  0  0  0  0  0  0  0  0
   58.2150   29.2485   43.5468 H   0  0  0  0  0  0  0  0  0  0  0  0
   56.8777   28.0562   43.1534 H   0  0  0  0  0  0  0  0  0  0  0  0
   58.2718   31.2630   43.6133 H   0  0  0  0  0  0  0  0  0  0  0  0
   56.8333   32.2990   43.3373 H   0  0  0  0  0  0  0  0  0  0  0  0
   59.2127   33.8239   43.4399 H   0  0  0  0  0  0  0  0  0  0  0  0
   60.0977   35.5935   44.9725 H   0  0  0  0  0  0  0  0  0  0  0  0
   59.4004   35.6156   47.3761 H   0  0  0  0  0  0  0  0  0  0  0  0
   57.8139   33.8695   48.2130 H   0  0  0  0  0  0  0  0  0  0  0  0
   58.2507   28.2751   47.9674 H   0  0  0  0  0  0  0  0  0  0  0  0
   58.3378   30.0531   49.7135 H   0  0  0  0  0  0  0  0  0  0  0  0
   61.0381   32.3551   47.2389 H   0  0  0  0  0  0  0  0  0  0  0  0
   60.9634   30.5736   45.4948 H   0  0  0  0  0  0  0  0  0  0  0  0
  1  2  1  0
  2  3  1  0
  3  4  1  0
  4  5  2  0
  4  6  1  0
  6  7  1  0
  7  8  1  0
  8  9  2  0
  9 10  1  0
 10 11  2  0
 11 12  1  0
 12 13  2  0
  2 14  1  0
 14 15  2  0
 14 16  2  0
 14 17  1  0
 17 18  2  0
 18 19  1  0
 19 20  2  0
 20 21  1  0
 20 22  1  0
 22 23  2  0
 13  8  1  0
 23 17  1  0
  1 24  1  0
  1 25  1  0
  1 26  1  0
  3 27  1  0
  3 28  1  0
  7 29  1  0
  7 30  1  0
  9 31  1  0
 10 32  1  0
 11 33  1  0
 12 34  1  0
 18 35  1  0
 19 36  1  0
 22 37  1  0
 23 38  1  0
M  CHG  1   6  -1
M  END
>  <UniqueID>  (35) 
31

>  <SMILES>  (35) 
CN(CC(=O)[N-]Cc1ccccn1)S(=O)(=O)c1ccc(Cl)cc1

>  <Energy>  (35) 
38.474546648245216

>  <Genealogy>  (35) 
CN(CC(=O)[N-]Cc1ccccn1)S(=O)(=O)c1ccc(Cl)cc1 (protonated)
CN(CC(=O)[N-]Cc1ccccn1)S(=O)(=O)c1ccc(Cl)cc1 (3D coordinates assigned)
CN(CC(=O)[N-]Cc1ccccn1)S(=O)(=O)c1ccc(Cl)cc1 (optimized conformer: 38.474546648245216 kcal/mol)

>  <smiles>  (35) 
CN(CC(=O)NCc1ccccn1)S(=O)(=O)c1ccc(Cl)cc1

>  <score_type>  (35) 
oracle

>  <origin>  (35) 
adg

>  <m_score__min__energy>  (35) 
-10.32

>  <m_primary>  (35) 
energy

$$$$
35:0
     RDKit          3D

 31 32  0  0  0  0  0  0  0  0999 V2000
   54.9200   26.3340   45.9740 N   0  0  0  0  0  0  0  0  0  0  0  0
   56.3930   25.4610   46.2080 S   0  0  0  0  0  0  0  0  0  0  0  0
   56.4880   24.3570   45.1920 O   0  0  0  0  0  0  0  0  0  0  0  0
   56.4030   24.8550   47.5820 O   0  0  0  0  0  0  0  0  0  0  0  0
   57.7600   26.5570   46.0290 C   0  0  0  0  0  0  0  0  0  0  0  0
   58.9390   26.3370   46.7520 C   0  0  0  0  0  0  0  0  0  0  0  0
   60.0250   27.1990   46.6000 C   0  0  0  0  0  0  0  0  0  0  0  0
   59.9460   28.2820   45.7210 C   0  0  0  0  0  0  0  0  0  0  0  0
   58.7740   28.5080   44.9750 C   0  0  0  0  0  0  0  0  0  0  0  0
   58.6620   29.6040   44.0490 N   0  0  0  0  0  0  0  0  0  0  0  0
   57.4020   30.7970   44.1090 S   0  0  0  0  0  0  0  0  0  0  0  0
   56.2010   30.2070   44.7930 O   0  0  0  0  0  0  0  0  0  0  0  0
   57.0250   31.1900   42.7080 O   0  0  0  0  0  0  0  0  0  0  0  0
   57.9670   32.2290   44.9650 C   0  0  0  0  0  0  0  0  0  0  0  0
   58.0340   33.4670   44.3080 C   0  0  0  0  0  0  0  0  0  0  0  0
   58.4700   34.6030   44.9970 C   0  0  0  0  0  0  0  0  0  0  0  0
   58.8430   34.5070   46.3410 C   0  0  0  0  0  0  0  0  0  0  0  0
   58.7830   33.2740   46.9980 C   0  0  0  0  0  0  0  0  0  0  0  0
   59.2500   33.1540   48.6850 Cl  0  0  0  0  0  0  0  0  0  0  0  0
   58.3490   32.1360   46.3100 C   0  0  0  0  0  0  0  0  0  0  0  0
   57.6840   27.6400   45.1410 C   0  0  0  0  0  0  0  0  0  0  0  0
   55.1540   27.3500   46.0330 H   0  0  0  0  0  0  0  0  0  0  0  0
   59.0088   25.4826   47.4413 H   0  0  0  0  0  0  0  0  0  0  0  0
   60.9470   27.0254   47.1743 H   0  0  0  0  0  0  0  0  0  0  0  0
   60.8040   28.9615   45.6114 H   0  0  0  0  0  0  0  0  0  0  0  0
   59.4220   29.7560   43.3490 H   0  0  0  0  0  0  0  0  0  0  0  0
   57.7433   33.5440   43.2499 H   0  0  0  0  0  0  0  0  0  0  0  0
   58.5196   35.5732   44.4810 H   0  0  0  0  0  0  0  0  0  0  0  0
   59.1839   35.4020   46.8820 H   0  0  0  0  0  0  0  0  0  0  0  0
   58.3075   31.1655   46.8262 H   0  0  0  0  0  0  0  0  0  0  0  0
   56.7603   27.8107   44.5687 H   0  0  0  0  0  0  0  0  0  0  0  0
  1  2  1  0
  2  3  2  0
  2  4  2  0
  2  5  1  0
  5  6  2  0
  6  7  1  0
  7  8  2  0
  8  9  1  0
  9 10  1  0
 10 11  1  0
 11 12  2  0
 11 13  2  0
 11 14  1  0
 14 15  2  0
 15 16  1  0
 16 17  2  0
 17 18  1  0
 18 19  1  0
 18 20  2  0
  9 21  2  0
 21  5  1  0
 20 14  1  0
  1 22  1  0
  6 23  1  0
  7 24  1  0
  8 25  1  0
 10 26  1  0
 15 27  1  0
 16 28  1  0
 17 29  1  0
 20 30  1  0
 21 31  1  0
M  CHG  1   1  -1
M  END
>  <UniqueID>  (36) 
32

>  <SMILES>  (36) 
[NH-]S(=O)(=O)c1cccc(NS(=O)(=O)c2cccc(Cl)c2)c1

>  <Energy>  (36) 
33.73268458239468

>  <Genealogy>  (36) 
[NH-]S(=O)(=O)c1cccc(NS(=O)(=O)c2cccc(Cl)c2)c1 (protonated)
[NH-]S(=O)(=O)c1cccc(NS(=O)(=O)c2cccc(Cl)c2)c1 (3D coordinates assigned)
[NH-]S(=O)(=O)c1cccc(NS(=O)(=O)c2cccc(Cl)c2)c1 (optimized conformer: 33.73268458239468 kcal/mol)

>  <smiles>  (36) 
NS(=O)(=O)c1cccc(NS(=O)(=O)c2cccc(Cl)c2)c1

>  <score_type>  (36) 
oracle

>  <origin>  (36) 
adg

>  <m_score__min__energy>  (36) 
-12.42

>  <m_primary>  (36) 
energy

$$$$
36:0
     RDKit          3D

 44 47  0  0  0  0  0  0  0  0999 V2000
   51.8459   24.1423   45.3916 H   0  0  0  0  0  0  0  0  0  0  0  0
   52.9330   24.1140   45.2260 C   0  0  0  0  0  0  0  0  0  0  0  0
   53.5560   23.0980   44.5930 N   0  0  0  0  0  0  0  0  0  0  0  0
   54.8510   23.4570   44.6210 C   0  0  0  0  0  0  0  0  0  0  0  0
   55.9560   22.6680   43.9820 C   0  0  0  0  0  0  0  0  0  0  0  0
   55.7010   22.4831   42.9281 H   0  0  0  0  0  0  0  0  0  0  0  0
   56.0659   21.7196   44.5283 H   0  0  0  0  0  0  0  0  0  0  0  0
   57.2850   23.4190   44.0480 C   0  0  0  0  0  0  0  0  0  0  0  0
   57.0915   24.5017   44.0289 H   0  0  0  0  0  0  0  0  0  0  0  0
   57.9021   23.1316   43.1840 H   0  0  0  0  0  0  0  0  0  0  0  0
   57.9970   23.0790   45.2740 N   0  0  0  0  0  0  0  0  0  0  0  0
   59.2020   23.7320   45.6850 C   0  0  0  0  0  0  0  0  0  0  0  0
   60.3190   23.2620   45.3390 O   0  0  0  0  0  0  0  0  0  0  0  0
   59.1690   24.9090   46.5070 N   0  0  0  0  0  0  0  0  0  0  0  0
   58.8130   26.1090   46.1480 C   0  0  0  0  0  0  0  0  0  0  0  0
   59.7300   27.1290   46.0580 N   0  0  0  0  0  0  0  0  0  0  0  0
   59.3830   28.3990   45.6950 C   0  0  0  0  0  0  0  0  0  0  0  0
   60.1355   29.1995   45.6406 H   0  0  0  0  0  0  0  0  0  0  0  0
   58.0460   28.6480   45.3960 C   0  0  0  0  0  0  0  0  0  0  0  0
   57.3330   29.7770   45.0470 C   0  0  0  0  0  0  0  0  0  0  0  0
   57.8420   31.1440   44.8090 C   0  0  0  0  0  0  0  0  0  0  0  0
   57.7430   31.7450   43.5440 C   0  0  0  0  0  0  0  0  0  0  0  0
   57.2831   31.1939   42.7105 H   0  0  0  0  0  0  0  0  0  0  0  0
   58.2260   33.0400   43.3390 C   0  0  0  0  0  0  0  0  0  0  0  0
   58.1556   33.5002   42.3424 H   0  0  0  0  0  0  0  0  0  0  0  0
   58.7980   33.7520   44.3960 C   0  0  0  0  0  0  0  0  0  0  0  0
   59.1876   34.7668   44.2275 H   0  0  0  0  0  0  0  0  0  0  0  0
   58.8760   33.1760   45.6690 C   0  0  0  0  0  0  0  0  0  0  0  0
   59.6040   34.0720   47.0000 S   0  0  0  0  0  0  0  0  0  0  0  0
   59.0320   33.5960   48.3050 O   0  0  0  0  0  0  0  0  0  0  0  0
   61.0900   33.8490   47.0140 O   0  0  0  0  0  0  0  0  0  0  0  0
   59.2770   35.7600   46.8090 N   0  0  0  0  0  0  0  0  0  0  0  0
   58.5530   36.0120   47.5190 H   0  0  0  0  0  0  0  0  0  0  0  0
   60.1480   36.2700   47.0730 H   0  0  0  0  0  0  0  0  0  0  0  0
   58.3980   31.8740   45.8730 C   0  0  0  0  0  0  0  0  0  0  0  0
   58.4587   31.4206   46.8734 H   0  0  0  0  0  0  0  0  0  0  0  0
   56.0220   29.4390   44.9700 N   0  0  0  0  0  0  0  0  0  0  0  0
   55.8860   28.1450   45.2440 N   0  0  0  0  0  0  0  0  0  0  0  0
   57.1130   27.6610   45.5020 C   0  0  0  0  0  0  0  0  0  0  0  0
   57.4550   26.3650   45.8720 C   0  0  0  0  0  0  0  0  0  0  0  0
   56.6964   25.5719   45.9462 H   0  0  0  0  0  0  0  0  0  0  0  0
   54.9830   24.6720   45.2480 C   0  0  0  0  0  0  0  0  0  0  0  0
   55.9281   25.2122   45.4057 H   0  0  0  0  0  0  0  0  0  0  0  0
   53.7670   25.0920   45.6370 N   0  0  0  0  0  0  0  0  0  0  0  0
  1  2  1  0
  2  3  2  0
  3  4  1  0
  4  5  1  0
  5  6  1  0
  5  7  1  0
  5  8  1  0
  8  9  1  0
  8 10  1  0
  8 11  1  0
 11 12  1  0
 12 13  2  0
 12 14  1  0
 14 15  2  0
 15 16  1  0
 16 17  1  0
 17 18  1  0
 17 19  2  0
 19 20  1  0
 20 21  1  0
 21 22  2  0
 22 23  1  0
 22 24  1  0
 24 25  1  0
 24 26  2  0
 26 27  1  0
 26 28  1  0
 28 29  1  0
 29 30  2  0
 29 31  2  0
 29 32  1  0
 32 33  1  0
 32 34  1  0
 28 35  2  0
 35 36  1  0
 20 37  2  0
 37 38  1  0
 38 39  1  0
 39 40  2  0
 40 41  1  0
  4 42  2  0
 42 43  1  0
 42 44  1  0
 44  2  1  0
 40 15  1  0
 39 19  1  0
 35 21  1  0
M  CHG  4  11  -1  16  -1  38  -1  44  -1
M  END
>  <UniqueID>  (37) 
33

>  <SMILES>  (37) 
NS(=O)(=O)c1cccc(-c2n[n-]c3c/c(=N/C(=O)[N-]CCc4c[n-]cn4)[n-]cc23)c1

>  <Energy>  (37) 
114.11812999272613

>  <Genealogy>  (37) 
NS(=O)(=O)c1cccc(-c2n[n-]c3cc(=NC(=O)[N-]CCc4c[n-]cn4)[n-]cc23)c1 (protonated)
NS(=O)(=O)c1cccc(-c2n[n-]c3c/c(=N/C(=O)[N-]CCc4c[n-]cn4)[n-]cc23)c1 (cis-trans isomerization)
NS(=O)(=O)c1cccc(-c2n[n-]c3c/c(=N/C(=O)[N-]CCc4c[n-]cn4)[n-]cc23)c1 (3D coordinates assigned)
NS(=O)(=O)c1cccc(-c2n[n-]c3c/c(=N/C(=O)[N-]CCc4c[n-]cn4)[n-]cc23)c1 (optimized conformer: 114.11812999272613 kcal/mol)

>  <smiles>  (37) 
NS(=O)(=O)c1cccc(-c2n[nH]c3cc(=NC(=O)NCCc4c[nH]cn4)[nH]cc23)c1

>  <score_type>  (37) 
oracle

>  <origin>  (37) 
adg

>  <m_score__min__energy>  (37) 
-14.630000000000001

>  <m_primary>  (37) 
energy

$$$$
37:0
     RDKit          3D

 50 51  0  0  0  0  0  0  0  0999 V2000
   56.2750   26.0900   45.8840 C   0  0  0  0  0  0  0  0  0  0  0  0
   55.9350   27.4520   45.6520 O   0  0  0  0  0  0  0  0  0  0  0  0
   56.8510   28.4690   45.3460 C   0  0  0  0  0  0  0  0  0  0  0  0
   56.4670   29.5730   44.5600 C   0  0  0  0  0  0  0  0  0  0  0  0
   57.3660   30.6020   44.2890 C   0  0  0  0  0  0  0  0  0  0  0  0
   58.6580   30.5520   44.7990 C   0  0  0  0  0  0  0  0  0  0  0  0
   59.0780   29.4620   45.5760 C   0  0  0  0  0  0  0  0  0  0  0  0
   60.4800   29.4720   46.1390 C   0  0  0  0  0  0  0  0  0  0  0  0
   60.4300   29.5920   47.6360 C   0  0  0  0  0  0  0  0  0  0  0  0
   59.9880   28.6250   48.3110 O   0  0  0  0  0  0  0  0  0  0  0  0
   60.9780   30.7740   48.3300 C   0  0  0  0  0  0  0  0  0  0  0  0
   60.4330   31.1840   49.3900 O   0  0  0  0  0  0  0  0  0  0  0  0
   62.1090   31.4720   47.7870 N   0  0  0  0  0  0  0  0  0  0  0  0
   62.5690   32.7670   48.3000 C   0  0  1  0  0  0  0  0  0  0  0  0
   63.7770   33.2100   47.5210 C   0  0  0  0  0  0  0  0  0  0  0  0
   64.1110   32.6160   46.5060 O   0  0  0  0  0  0  0  0  0  0  0  0
   61.4360   33.8090   48.1860 C   0  0  0  0  0  0  0  0  0  0  0  0
   61.1180   34.2060   46.7350 C   0  0  0  0  0  0  0  0  0  0  0  0
   59.6740   33.9570   46.3790 C   0  0  0  0  0  0  0  0  0  0  0  0
   58.8190   33.3000   47.2790 C   0  0  0  0  0  0  0  0  0  0  0  0
   57.4740   33.1040   46.9560 C   0  0  0  0  0  0  0  0  0  0  0  0
   56.9740   33.5590   45.7340 C   0  0  0  0  0  0  0  0  0  0  0  0
   57.8160   34.2130   44.8340 C   0  0  0  0  0  0  0  0  0  0  0  0
   59.1620   34.4150   45.1520 C   0  0  0  0  0  0  0  0  0  0  0  0
   58.1800   28.4010   45.8460 C   0  0  0  0  0  0  0  0  0  0  0  0
   58.6610   27.3170   46.6080 O   0  0  0  0  0  0  0  0  0  0  0  0
   59.5980   26.3340   46.1870 C   0  0  0  0  0  0  0  0  0  0  0  0
   56.3217   25.9031   46.9670 H   0  0  0  0  0  0  0  0  0  0  0  0
   55.5117   25.4394   45.4322 H   0  0  0  0  0  0  0  0  0  0  0  0
   57.2545   25.8745   45.4322 H   0  0  0  0  0  0  0  0  0  0  0  0
   55.4453   29.6232   44.1555 H   0  0  0  0  0  0  0  0  0  0  0  0
   57.0528   31.4558   43.6702 H   0  0  0  0  0  0  0  0  0  0  0  0
   59.3578   31.3749   44.5914 H   0  0  0  0  0  0  0  0  0  0  0  0
   60.9896   28.5364   45.8651 H   0  0  0  0  0  0  0  0  0  0  0  0
   61.0299   30.3303   45.7254 H   0  0  0  0  0  0  0  0  0  0  0  0
   62.6660   31.0170   47.0270 H   0  0  0  0  0  0  0  0  0  0  0  0
   62.8444   32.6692   49.3605 H   0  0  0  0  0  0  0  0  0  0  0  0
   64.3636   34.0739   47.8667 H   0  0  0  0  0  0  0  0  0  0  0  0
   60.5270   33.3873   48.6397 H   0  0  0  0  0  0  0  0  0  0  0  0
   61.7756   34.7174   48.7052 H   0  0  0  0  0  0  0  0  0  0  0  0
   61.3352   35.2765   46.6050 H   0  0  0  0  0  0  0  0  0  0  0  0
   61.7405   33.5874   46.0718 H   0  0  0  0  0  0  0  0  0  0  0  0
   59.2098   32.9385   48.2416 H   0  0  0  0  0  0  0  0  0  0  0  0
   56.8080   32.5906   47.6651 H   0  0  0  0  0  0  0  0  0  0  0  0
   55.9152   33.4016   45.4808 H   0  0  0  0  0  0  0  0  0  0  0  0
   57.4197   34.5704   43.8721 H   0  0  0  0  0  0  0  0  0  0  0  0
   59.8221   34.9333   44.4410 H   0  0  0  0  0  0  0  0  0  0  0  0
   60.0515   25.8582   47.0690 H   0  0  0  0  0  0  0  0  0  0  0  0
   59.0836   25.5719   45.5831 H   0  0  0  0  0  0  0  0  0  0  0  0
   60.3838   26.8113   45.5831 H   0  0  0  0  0  0  0  0  0  0  0  0
  1  2  1  0
  2  3  1  0
  3  4  2  0
  4  5  1  0
  5  6  2  0
  6  7  1  0
  7  8  1  0
  8  9  1  0
  9 10  2  0
  9 11  1  0
 11 12  2  0
 11 13  1  0
 13 14  1  0
 14 15  1  0
 15 16  2  0
 14 17  1  0
 17 18  1  0
 18 19  1  0
 19 20  2  0
 20 21  1  0
 21 22  2  0
 22 23  1  0
 23 24  2  0
  7 25  2  0
 25 26  1  0
 26 27  1  0
 25  3  1  0
 24 19  1  0
  1 28  1  0
  1 29  1  0
  1 30  1  0
  4 31  1  0
  5 32  1  0
  6 33  1  0
  8 34  1  0
  8 35  1  0
 13 36  1  0
 14 37  1  1
 15 38  1  0
 17 39  1  0
 17 40  1  0
 18 41  1  0
 18 42  1  0
 20 43  1  0
 21 44  1  0
 22 45  1  0
 23 46  1  0
 24 47  1  0
 27 48  1  0
 27 49  1  0
 27 50  1  0
M  END
>  <UniqueID>  (38) 
34

>  <SMILES>  (38) 
COc1cccc(CC(=O)C(=O)N[C@@H](C=O)CCc2ccccc2)c1OC

>  <Energy>  (38) 
41.60355575923255

>  <Genealogy>  (38) 
COc1cccc(CC(=O)C(=O)N[C@@H](C=O)CCc2ccccc2)c1OC (chirality)
COc1cccc(CC(=O)C(=O)N[C@@H](C=O)CCc2ccccc2)c1OC (3D coordinates assigned)
COc1cccc(CC(=O)C(=O)N[C@@H](C=O)CCc2ccccc2)c1OC (optimized conformer: 41.60355575923255 kcal/mol)

>  <smiles>  (38) 
COc1cccc(CC(=O)C(=O)NC(C=O)CCc2ccccc2)c1OC

>  <score_type>  (38) 
oracle

>  <origin>  (38) 
adg

>  <m_score__min__energy>  (38) 
-8.3200000000000003

>  <m_primary>  (38) 
energy

$$$$
38:0
     RDKit          3D

 57 60  0  0  0  0  0  0  0  0999 V2000
   64.7900   32.3220   49.7970 C   0  0  0  0  0  0  0  0  0  0  0  0
   64.2410   33.5180   49.1330 N   0  0  0  0  0  0  0  0  0  0  0  0
   63.2240   34.1760   49.9710 C   0  0  0  0  0  0  0  0  0  0  0  0
   63.7670   33.2470   47.7520 C   0  0  0  0  0  0  0  0  0  0  0  0
   63.0760   31.8770   47.5740 C   0  0  0  0  0  0  0  0  0  0  0  0
   61.6230   32.0550   47.1160 C   0  0  0  0  0  0  0  0  0  0  0  0
   60.7850   30.9920   47.6720 N   0  0  0  0  0  0  0  0  0  0  0  0
   60.3090   30.8640   48.9440 C   0  0  0  0  0  0  0  0  0  0  0  0
   60.6710   32.0180   50.2710 S   0  0  0  0  0  0  0  0  0  0  0  0
   59.2740   33.1350   49.9100 C   0  0  0  0  0  0  0  0  0  0  0  0
   59.6460   34.0580   48.7850 C   0  0  0  0  0  0  0  0  0  0  0  0
   60.5690   34.8940   48.9930 O   0  0  0  0  0  0  0  0  0  0  0  0
   59.0490   33.9610   47.4230 C   0  0  0  0  0  0  0  0  0  0  0  0
   57.9360   33.1410   47.1480 C   0  0  0  0  0  0  0  0  0  0  0  0
   57.4010   33.0810   45.8550 C   0  0  0  0  0  0  0  0  0  0  0  0
   57.9610   33.8390   44.8250 C   0  0  0  0  0  0  0  0  0  0  0  0
   59.0710   34.6540   45.0810 C   0  0  0  0  0  0  0  0  0  0  0  0
   59.6130   34.7090   46.3680 C   0  0  0  0  0  0  0  0  0  0  0  0
   59.4690   29.8060   49.0930 N   0  0  0  0  0  0  0  0  0  0  0  0
   59.4190   29.2710   47.8640 C   0  0  0  0  0  0  0  0  0  0  0  0
   58.6690   28.2270   47.4420 N   0  0  0  0  0  0  0  0  0  0  0  0
   58.7110   27.8780   46.1130 C   0  0  0  0  0  0  0  0  0  0  0  0
   57.8920   26.7290   45.6370 C   0  0  0  0  0  0  0  0  0  0  0  0
   58.1430   26.1710   44.3690 C   0  0  0  0  0  0  0  0  0  0  0  0
   57.3850   25.0930   43.9000 C   0  0  0  0  0  0  0  0  0  0  0  0
   56.3680   24.5550   44.6910 C   0  0  0  0  0  0  0  0  0  0  0  0
   56.1060   25.0960   45.9520 C   0  0  0  0  0  0  0  0  0  0  0  0
   56.8530   26.1810   46.4210 C   0  0  0  0  0  0  0  0  0  0  0  0
   59.5170   28.6520   45.2190 C   0  0  0  0  0  0  0  0  0  0  0  0
   60.2520   29.7060   45.6890 N   0  0  0  0  0  0  0  0  0  0  0  0
   60.1960   29.9820   47.0130 C   0  0  0  0  0  0  0  0  0  0  0  0
   64.7317   32.4491   50.8881 H   0  0  0  0  0  0  0  0  0  0  0  0
   64.2078   31.4375   49.4992 H   0  0  0  0  0  0  0  0  0  0  0  0
   65.8403   32.1869   49.4992 H   0  0  0  0  0  0  0  0  0  0  0  0
   63.4662   34.0193   51.0325 H   0  0  0  0  0  0  0  0  0  0  0  0
   63.2110   35.2541   49.7532 H   0  0  0  0  0  0  0  0  0  0  0  0
   62.2352   33.7460   49.7532 H   0  0  0  0  0  0  0  0  0  0  0  0
   63.0499   34.0332   47.4735 H   0  0  0  0  0  0  0  0  0  0  0  0
   64.6597   33.2352   47.1094 H   0  0  0  0  0  0  0  0  0  0  0  0
   63.6229   31.2926   46.8194 H   0  0  0  0  0  0  0  0  0  0  0  0
   63.0791   31.3524   48.5408 H   0  0  0  0  0  0  0  0  0  0  0  0
   61.2498   33.0304   47.4616 H   0  0  0  0  0  0  0  0  0  0  0  0
   61.5839   32.0061   46.0178 H   0  0  0  0  0  0  0  0  0  0  0  0
   58.3950   32.5404   49.6205 H   0  0  0  0  0  0  0  0  0  0  0  0
   59.0383   33.7274   50.8064 H   0  0  0  0  0  0  0  0  0  0  0  0
   57.4846   32.5442   47.9543 H   0  0  0  0  0  0  0  0  0  0  0  0
   56.5356   32.4336   45.6501 H   0  0  0  0  0  0  0  0  0  0  0  0
   57.5309   33.7962   43.8135 H   0  0  0  0  0  0  0  0  0  0  0  0
   59.5155   35.2499   44.2702 H   0  0  0  0  0  0  0  0  0  0  0  0
   60.4905   35.3436   46.5609 H   0  0  0  0  0  0  0  0  0  0  0  0
   58.9480   29.5070   49.9520 H   0  0  0  0  0  0  0  0  0  0  0  0
   58.9439   26.5873   43.7403 H   0  0  0  0  0  0  0  0  0  0  0  0
   57.5905   24.6684   42.9063 H   0  0  0  0  0  0  0  0  0  0  0  0
   55.7738   23.7062   44.3217 H   0  0  0  0  0  0  0  0  0  0  0  0
   55.3096   24.6671   46.5779 H   0  0  0  0  0  0  0  0  0  0  0  0
   56.6296   26.6111   47.4085 H   0  0  0  0  0  0  0  0  0  0  0  0
   59.5458   28.3984   44.1490 H   0  0  0  0  0  0  0  0  0  0  0  0
  1  2  1  0
  2  3  1  0
  2  4  1  0
  4  5  1  0
  5  6  1  0
  6  7  1  0
  7  8  1  0
  8  9  1  0
  9 10  1  0
 10 11  1  0
 11 12  2  0
 11 13  1  0
 13 14  2  0
 14 15  1  0
 15 16  2  0
 16 17  1  0
 17 18  2  0
  8 19  2  0
 19 20  1  0
 20 21  2  0
 21 22  1  0
 22 23  1  0
 23 24  2  0
 24 25  1  0
 25 26  2  0
 26 27  1  0
 27 28  2  0
 22 29  2  0
 29 30  1  0
 30 31  2  0
 31  7  1  0
 18 13  1  0
 31 20  1  0
 28 23  1  0
  1 32  1  0
  1 33  1  0
  1 34  1  0
  3 35  1  0
  3 36  1  0
  3 37  1  0
  4 38  1  0
  4 39  1  0
  5 40  1  0
  5 41  1  0
  6 42  1  0
  6 43  1  0
 10 44  1  0
 10 45  1  0
 14 46  1  0
 15 47  1  0
 16 48  1  0
 17 49  1  0
 18 50  1  0
 19 51  1  0
 24 52  1  0
 25 53  1  0
 26 54  1  0
 27 55  1  0
 28 56  1  0
 29 57  1  0
M  CHG  1  19   1
M  END
>  <UniqueID>  (39) 
35

>  <SMILES>  (39) 
CN(C)CCCn1c(SCC(=O)c2ccccc2)[nH+]c2nc(-c3ccccc3)cnc21

>  <Energy>  (39) 
105.01404798505975

>  <Genealogy>  (39) 
CN(C)CCCn1c(SCC(=O)c2ccccc2)[nH+]c2nc(-c3ccccc3)cnc21 (protonated)
CN(C)CCCn1c(SCC(=O)c2ccccc2)[nH+]c2nc(-c3ccccc3)cnc21 (3D coordinates assigned)
CN(C)CCCn1c(SCC(=O)c2ccccc2)[nH+]c2nc(-c3ccccc3)cnc21 (optimized conformer: 105.01404798505975 kcal/mol)

>  <smiles>  (39) 
CN(C)CCCn1c(SCC(=O)c2ccccc2)nc2nc(-c3ccccc3)cnc21

>  <score_type>  (39) 
oracle

>  <origin>  (39) 
adg

>  <m_score__min__energy>  (39) 
-7.9699999999999998

>  <m_primary>  (39) 
energy

$$$$
39:0
     RDKit          3D

 50 53  0  0  0  0  0  0  0  0999 V2000
   60.1060   34.5800   49.1070 O   0  0  0  0  0  0  0  0  0  0  0  0
   59.7060   33.4780   48.6250 C   0  0  0  0  0  0  0  0  0  0  0  0
   59.5680   33.4220   47.1120 C   0  0  0  0  0  0  0  0  0  0  0  0
   59.9400   32.1090   46.3940 C   0  0  2  0  0  0  0  0  0  0  0  0
   58.7950   31.4750   45.6040 C   0  0  0  0  0  0  0  0  0  0  0  0
   57.6520   32.1930   45.1840 C   0  0  0  0  0  0  0  0  0  0  0  0
   56.6120   31.5400   44.5150 C   0  0  0  0  0  0  0  0  0  0  0  0
   56.6880   30.1680   44.2630 C   0  0  0  0  0  0  0  0  0  0  0  0
   57.8130   29.4460   44.6720 C   0  0  0  0  0  0  0  0  0  0  0  0
   58.8580   30.0930   45.3350 C   0  0  0  0  0  0  0  0  0  0  0  0
   60.5440   31.1500   47.3450 N   0  0  0  0  0  0  0  0  0  0  0  0
   61.9710   30.7690   47.2710 C   0  0  0  0  0  0  0  0  0  0  0  0
   62.8110   31.6600   48.1420 C   0  0  0  0  0  0  0  0  0  0  0  0
   63.3450   32.8540   47.6320 C   0  0  0  0  0  0  0  0  0  0  0  0
   64.1420   33.6720   48.4380 C   0  0  0  0  0  0  0  0  0  0  0  0
   64.4100   33.3030   49.7600 C   0  0  0  0  0  0  0  0  0  0  0  0
   63.8870   32.1150   50.2720 C   0  0  0  0  0  0  0  0  0  0  0  0
   63.0880   31.2970   49.4700 C   0  0  0  0  0  0  0  0  0  0  0  0
   59.6710   30.4240   48.2320 C   0  0  0  0  0  0  0  0  0  0  0  0
   59.6740   29.1630   48.2400 O   0  0  0  0  0  0  0  0  0  0  0  0
   58.7130   31.1550   49.1220 C   0  0  0  0  0  0  0  0  0  0  0  0
   59.2960   32.4350   49.5450 N   0  0  0  0  0  0  0  0  0  0  0  0
   59.4740   32.6660   50.9550 C   0  0  0  0  0  0  0  0  0  0  0  0
   58.9110   33.8090   51.5530 C   0  0  0  0  0  0  0  0  0  0  0  0
   59.0740   34.0420   52.9180 C   0  0  0  0  0  0  0  0  0  0  0  0
   59.8030   33.1380   53.7000 C   0  0  0  0  0  0  0  0  0  0  0  0
   60.3770   32.0040   53.1100 C   0  0  0  0  0  0  0  0  0  0  0  0
   60.2140   31.7640   51.7430 C   0  0  0  0  0  0  0  0  0  0  0  0
   60.7990   30.6740   51.1810 F   0  0  0  0  0  0  0  0  0  0  0  0
   58.5164   33.6381   46.8723 H   0  0  0  0  0  0  0  0  0  0  0  0
   60.3044   34.1516   46.7442 H   0  0  0  0  0  0  0  0  0  0  0  0
   60.6875   32.3806   45.6341 H   0  0  0  0  0  0  0  0  0  0  0  0
   57.5802   33.2722   45.3847 H   0  0  0  0  0  0  0  0  0  0  0  0
   55.7302   32.1092   44.1857 H   0  0  0  0  0  0  0  0  0  0  0  0
   55.8641   29.6567   43.7437 H   0  0  0  0  0  0  0  0  0  0  0  0
   57.8752   28.3663   44.4712 H   0  0  0  0  0  0  0  0  0  0  0  0
   59.7405   29.5173   45.6509 H   0  0  0  0  0  0  0  0  0  0  0  0
   62.0834   29.7276   47.6070 H   0  0  0  0  0  0  0  0  0  0  0  0
   62.3093   30.8761   46.2298 H   0  0  0  0  0  0  0  0  0  0  0  0
   63.1352   33.1473   46.5928 H   0  0  0  0  0  0  0  0  0  0  0  0
   64.5583   34.6059   48.0324 H   0  0  0  0  0  0  0  0  0  0  0  0
   65.0329   33.9491   50.3960 H   0  0  0  0  0  0  0  0  0  0  0  0
   64.1045   31.8220   51.3097 H   0  0  0  0  0  0  0  0  0  0  0  0
   62.6738   30.3642   49.8804 H   0  0  0  0  0  0  0  0  0  0  0  0
   57.7784   31.3441   48.5736 H   0  0  0  0  0  0  0  0  0  0  0  0
   58.5066   30.5412   50.0112 H   0  0  0  0  0  0  0  0  0  0  0  0
   58.3396   34.5220   50.9405 H   0  0  0  0  0  0  0  0  0  0  0  0
   58.6299   34.9359   53.3804 H   0  0  0  0  0  0  0  0  0  0  0  0
   59.9252   33.3181   54.7783 H   0  0  0  0  0  0  0  0  0  0  0  0
   60.9577   31.3005   53.7248 H   0  0  0  0  0  0  0  0  0  0  0  0
  1  2  2  0
  2  3  1  0
  3  4  1  0
  4  5  1  0
  5  6  2  0
  6  7  1  0
  7  8  2  0
  8  9  1  0
  9 10  2  0
  4 11  1  0
 11 12  1  0
 12 13  1  0
 13 14  2  0
 14 15  1  0
 15 16  2  0
 16 17  1  0
 17 18  2  0
 11 19  1  0
 19 20  2  0
 19 21  1  0
 21 22  1  0
 22 23  1  0
 23 24  2  0
 24 25  1  0
 25 26  2  0
 26 27  1  0
 27 28  2  0
 28 29  1  0
 22  2  1  0
 28 23  1  0
 10  5  1  0
 18 13  1  0
  3 30  1  0
  3 31  1  0
  4 32  1  6
  6 33  1  0
  7 34  1  0
  8 35  1  0
  9 36  1  0
 10 37  1  0
 12 38  1  0
 12 39  1  0
 14 40  1  0
 15 41  1  0
 16 42  1  0
 17 43  1  0
 18 44  1  0
 21 45  1  0
 21 46  1  0
 24 47  1  0
 25 48  1  0
 26 49  1  0
 27 50  1  0
M  END
>  <UniqueID>  (40) 
36

>  <SMILES>  (40) 
O=C1C[C@H](c2ccccc2)N(Cc2ccccc2)C(=O)CN1c1ccccc1F

>  <Energy>  (40) 
70.50512314322478

>  <Genealogy>  (40) 
O=C1C[C@H](c2ccccc2)N(Cc2ccccc2)C(=O)CN1c1ccccc1F (chirality)
O=C1C[C@H](c2ccccc2)N(Cc2ccccc2)C(=O)CN1c1ccccc1F (3D coordinates assigned)
O=C1C[C@H](c2ccccc2)N(Cc2ccccc2)C(=O)CN1c1ccccc1F (nonaromatic ring conformer: 70.50512314322478 kcal/mol)

>  <smiles>  (40) 
O=C1CC(c2ccccc2)N(Cc2ccccc2)C(=O)CN1c1ccccc1F

>  <score_type>  (40) 
oracle

>  <origin>  (40) 
adg

>  <m_score__min__energy>  (40) 
-5.8300000000000001

>  <m_primary>  (40) 
energy

$$$$
40:0
     RDKit          3D

 35 37  0  0  0  0  0  0  0  0999 V2000
   58.1520   31.8980   47.6090 C   0  0  0  0  0  0  0  0  0  0  0  0
   58.5180   33.0130   46.6640 C   0  0  0  0  0  0  0  0  0  0  0  0
   59.1470   34.1570   47.1910 C   0  0  0  0  0  0  0  0  0  0  0  0
   59.5530   35.1960   46.3540 C   0  0  0  0  0  0  0  0  0  0  0  0
   59.3360   35.1110   44.9800 C   0  0  0  0  0  0  0  0  0  0  0  0
   58.6960   33.9940   44.4400 C   0  0  0  0  0  0  0  0  0  0  0  0
   58.2590   32.9440   45.2680 C   0  0  0  0  0  0  0  0  0  0  0  0
   57.5550   31.8060   44.6320 C   0  0  0  0  0  0  0  0  0  0  0  0
   57.0330   30.7770   45.3360 N   0  0  0  0  0  0  0  0  0  0  0  0
   56.5110   29.8140   44.5280 C   0  0  0  0  0  0  0  0  0  0  0  0
   55.8900   28.6290   45.0360 N   0  0  0  0  0  0  0  0  0  0  0  0
   56.5750   27.5330   45.6560 C   0  0  0  0  0  0  0  0  0  0  0  0
   55.9370   26.6710   46.3170 O   0  0  0  0  0  0  0  0  0  0  0  0
   58.0010   27.4330   45.5870 N   0  0  0  0  0  0  0  0  0  0  0  0
   58.9430   28.3100   46.2230 C   0  0  0  0  0  0  0  0  0  0  0  0
   59.7450   29.1330   45.4220 C   0  0  0  0  0  0  0  0  0  0  0  0
   60.6600   30.0160   46.0050 C   0  0  0  0  0  0  0  0  0  0  0  0
   60.7660   30.0950   47.3970 C   0  0  0  0  0  0  0  0  0  0  0  0
   61.9100   31.2060   48.1290 Cl  0  0  0  0  0  0  0  0  0  0  0  0
   59.9500   29.2970   48.2050 C   0  0  0  0  0  0  0  0  0  0  0  0
   59.0360   28.4140   47.6240 C   0  0  0  0  0  0  0  0  0  0  0  0
   56.6270   30.0510   43.1640 C   0  0  0  0  0  0  0  0  0  0  0  0
   57.4180   31.5210   42.9750 S   0  0  0  0  0  0  0  0  0  0  0  0
   58.2658   32.2447   48.6467 H   0  0  0  0  0  0  0  0  0  0  0  0
   57.1082   31.5978   47.4351 H   0  0  0  0  0  0  0  0  0  0  0  0
   58.8148   31.0375   47.4351 H   0  0  0  0  0  0  0  0  0  0  0  0
   59.3201   34.2321   48.2747 H   0  0  0  0  0  0  0  0  0  0  0  0
   60.0450   36.0834   46.7787 H   0  0  0  0  0  0  0  0  0  0  0  0
   59.6695   35.9253   44.3200 H   0  0  0  0  0  0  0  0  0  0  0  0
   58.5314   33.9342   43.3540 H   0  0  0  0  0  0  0  0  0  0  0  0
   59.6546   29.0846   44.3268 H   0  0  0  0  0  0  0  0  0  0  0  0
   61.2962   30.6483   45.3683 H   0  0  0  0  0  0  0  0  0  0  0  0
   60.0278   29.3645   49.3002 H   0  0  0  0  0  0  0  0  0  0  0  0
   58.3868   27.7979   48.2635 H   0  0  0  0  0  0  0  0  0  0  0  0
   56.2671   29.3966   42.3564 H   0  0  0  0  0  0  0  0  0  0  0  0
  1  2  1  0
  2  3  2  0
  3  4  1  0
  4  5  2  0
  5  6  1  0
  6  7  2  0
  7  8  1  0
  8  9  2  0
  9 10  1  0
 10 11  1  0
 11 12  1  0
 12 13  2  0
 12 14  1  0
 14 15  1  0
 15 16  2  0
 16 17  1  0
 17 18  2  0
 18 19  1  0
 18 20  1  0
 20 21  2  0
 10 22  2  0
 22 23  1  0
  7  2  1  0
 23  8  1  0
 21 15  1  0
  1 24  1  0
  1 25  1  0
  1 26  1  0
  3 27  1  0
  4 28  1  0
  5 29  1  0
  6 30  1  0
 16 31  1  0
 17 32  1  0
 20 33  1  0
 21 34  1  0
 22 35  1  0
M  CHG  2  11  -1  14  -1
M  END
>  <UniqueID>  (41) 
37

>  <SMILES>  (41) 
Cc1ccccc1-c1nc([N-]C(=O)[N-]c2ccc(Cl)cc2)cs1

>  <Energy>  (41) 
76.15561786647496

>  <Genealogy>  (41) 
Cc1ccccc1-c1nc([N-]C(=O)[N-]c2ccc(Cl)cc2)cs1 (protonated)
Cc1ccccc1-c1nc([N-]C(=O)[N-]c2ccc(Cl)cc2)cs1 (3D coordinates assigned)
Cc1ccccc1-c1nc([N-]C(=O)[N-]c2ccc(Cl)cc2)cs1 (optimized conformer: 76.15561786647496 kcal/mol)

>  <smiles>  (41) 
Cc1ccccc1-c1nc(NC(=O)Nc2ccc(Cl)cc2)cs1

>  <score_type>  (41) 
oracle

>  <origin>  (41) 
adg

>  <m_score__min__energy>  (41) 
-11.81

>  <m_primary>  (41) 
energy

$$$$
41:0
     RDKit          3D

 39 42  0  0  0  0  0  0  0  0999 V2000
   56.1630   30.3380   43.8060 C   0  0  0  0  0  0  0  0  0  0  0  0
   57.0170   30.8750   44.8760 N   0  0  0  0  0  0  0  0  0  0  0  0
   58.3840   30.3450   44.7570 C   0  0  0  0  0  0  0  0  0  0  0  0
   59.1460   30.6550   46.0450 C   0  0  0  0  0  0  0  0  0  0  0  0
   58.8040   31.9880   46.5480 N   0  0  0  0  0  0  0  0  0  0  0  0
   59.3560   32.4130   47.8010 C   0  0  0  0  0  0  0  0  0  0  0  0
   58.5630   32.3430   48.9570 C   0  0  0  0  0  0  0  0  0  0  0  0
   59.1210   32.7510   50.1650 C   0  0  0  0  0  0  0  0  0  0  0  0
   58.5210   32.7600   51.4070 C   0  0  0  0  0  0  0  0  0  0  0  0
   59.4800   33.2470   52.2790 C   0  0  0  0  0  0  0  0  0  0  0  0
   60.6170   33.5130   51.5330 C   0  0  0  0  0  0  0  0  0  0  0  0
   60.3850   33.2060   50.2380 N   0  0  0  0  0  0  0  0  0  0  0  0
   61.2030   33.2970   49.1460 C   0  0  0  0  0  0  0  0  0  0  0  0
   62.5250   33.7760   49.2360 C   0  0  0  0  0  0  0  0  0  0  0  0
   63.3230   33.8510   48.0930 C   0  0  0  0  0  0  0  0  0  0  0  0
   62.8190   33.4550   46.8530 C   0  0  0  0  0  0  0  0  0  0  0  0
   61.5110   32.9780   46.7440 C   0  0  0  0  0  0  0  0  0  0  0  0
   60.6880   32.8930   47.8830 C   0  0  0  0  0  0  0  0  0  0  0  0
   58.1480   32.9790   45.6890 C   0  0  0  0  0  0  0  0  0  0  0  0
   57.0240   32.3540   44.8310 C   0  0  0  0  0  0  0  0  0  0  0  0
   55.3113   29.8024   44.2507 H   0  0  0  0  0  0  0  0  0  0  0  0
   55.7914   31.1653   43.1835 H   0  0  0  0  0  0  0  0  0  0  0  0
   56.7476   29.6446   43.1835 H   0  0  0  0  0  0  0  0  0  0  0  0
   58.3464   29.2566   44.6025 H   0  0  0  0  0  0  0  0  0  0  0  0
   58.8925   30.8114   43.9003 H   0  0  0  0  0  0  0  0  0  0  0  0
   58.8857   29.9052   46.8066 H   0  0  0  0  0  0  0  0  0  0  0  0
   60.2245   30.6269   45.8303 H   0  0  0  0  0  0  0  0  0  0  0  0
   57.5274   31.9752   48.9095 H   0  0  0  0  0  0  0  0  0  0  0  0
   57.4958   32.4462   51.6531 H   0  0  0  0  0  0  0  0  0  0  0  0
   59.3613   33.3952   53.3625 H   0  0  0  0  0  0  0  0  0  0  0  0
   61.5610   33.9118   51.9328 H   0  0  0  0  0  0  0  0  0  0  0  0
   62.9292   34.0916   50.2091 H   0  0  0  0  0  0  0  0  0  0  0  0
   64.3549   34.2243   48.1700 H   0  0  0  0  0  0  0  0  0  0  0  0
   63.4549   33.5189   45.9577 H   0  0  0  0  0  0  0  0  0  0  0  0
   61.1218   32.6671   45.7632 H   0  0  0  0  0  0  0  0  0  0  0  0
   57.7138   33.7658   46.3233 H   0  0  0  0  0  0  0  0  0  0  0  0
   58.9064   33.3892   45.0059 H   0  0  0  0  0  0  0  0  0  0  0  0
   56.0553   32.7206   45.2014 H   0  0  0  0  0  0  0  0  0  0  0  0
   57.2033   32.6506   43.7870 H   0  0  0  0  0  0  0  0  0  0  0  0
  1  2  1  0
  2  3  1  0
  3  4  1  0
  4  5  1  0
  5  6  1  0
  6  7  2  0
  7  8  1  0
  8  9  2  0
  9 10  1  0
 10 11  2  0
 11 12  1  0
 12 13  1  0
 13 14  2  0
 14 15  1  0
 15 16  2  0
 16 17  1  0
 17 18  2  0
  5 19  1  0
 19 20  1  0
 20  2  1  0
 18  6  1  0
 12  8  1  0
 18 13  1  0
  1 21  1  0
  1 22  1  0
  1 23  1  0
  3 24  1  0
  3 25  1  0
  4 26  1  0
  4 27  1  0
  7 28  1  0
  9 29  1  0
 10 30  1  0
 11 31  1  0
 14 32  1  0
 15 33  1  0
 16 34  1  0
 17 35  1  0
 19 36  1  0
 19 37  1  0
 20 38  1  0
 20 39  1  0
M  END
>  <UniqueID>  (42) 
38

>  <SMILES>  (42) 
CN1CCN(c2cc3cccn3c3ccccc23)CC1

>  <Energy>  (42) 
87.5827185533532

>  <Genealogy>  (42) 
CN1CCN(c2cc3cccn3c3ccccc23)CC1 (3D coordinates assigned)
CN1CCN(c2cc3cccn3c3ccccc23)CC1 (nonaromatic ring conformer: 87.5827185533532 kcal/mol)

>  <smiles>  (42) 
CN1CCN(c2cc3cccn3c3ccccc23)CC1

>  <score_type>  (42) 
oracle

>  <origin>  (42) 
adg

>  <m_score__min__energy>  (42) 
-6.9299999999999997

>  <m_primary>  (42) 
energy

$$$$
42:0
     RDKit          3D

 49 52  0  0  0  0  0  0  0  0999 V2000
   55.8560   30.3310   44.7580 O   0  0  0  0  0  0  0  0  0  0  0  0
   57.0360   29.8880   44.8130 C   0  0  0  0  0  0  0  0  0  0  0  0
   57.2600   28.4280   44.7490 C   0  0  0  0  0  0  0  0  0  0  0  0
   57.7700   27.8330   43.5860 C   0  0  0  0  0  0  0  0  0  0  0  0
   57.9620   26.4500   43.5220 C   0  0  0  0  0  0  0  0  0  0  0  0
   57.6390   25.6320   44.6200 C   0  0  0  0  0  0  0  0  0  0  0  0
   57.8350   24.2040   44.5560 N   0  0  0  0  0  0  0  0  0  0  0  0
   57.1390   23.3290   43.7980 C   0  0  0  0  0  0  0  0  0  0  0  0
   57.6130   22.0500   44.0030 C   0  0  0  0  0  0  0  0  0  0  0  0
   58.6400   22.1500   44.9190 C   0  0  0  0  0  0  0  0  0  0  0  0
   58.7530   23.4880   45.2390 C   0  0  0  0  0  0  0  0  0  0  0  0
   57.1140   26.2300   45.7800 C   0  0  0  0  0  0  0  0  0  0  0  0
   56.9190   27.6140   45.8400 C   0  0  0  0  0  0  0  0  0  0  0  0
   58.1320   30.8120   44.9460 N   0  0  0  0  0  0  0  0  0  0  0  0
   58.1310   32.0710   44.1910 C   0  0  0  0  0  0  0  0  0  0  0  0
   58.4190   33.2800   45.1080 C   0  0  0  0  0  0  0  0  0  0  0  0
   59.0350   32.8930   46.3960 N   0  0  0  0  0  0  0  0  0  0  0  0
   59.8050   34.2730   47.1410 S   0  0  0  0  0  0  0  0  0  0  0  0
   58.9030   34.8350   48.2030 O   0  0  0  0  0  0  0  0  0  0  0  0
   60.0250   35.3430   46.1050 O   0  0  0  0  0  0  0  0  0  0  0  0
   61.3530   33.8350   47.8690 C   0  0  0  0  0  0  0  0  0  0  0  0
   61.4600   33.6620   49.2560 C   0  0  0  0  0  0  0  0  0  0  0  0
   62.6900   33.3270   49.8300 C   0  0  0  0  0  0  0  0  0  0  0  0
   63.8210   33.1630   49.0220 C   0  0  0  0  0  0  0  0  0  0  0  0
   65.3630   32.7450   49.7430 Cl  0  0  0  0  0  0  0  0  0  0  0  0
   63.7170   33.3320   47.6370 C   0  0  0  0  0  0  0  0  0  0  0  0
   62.4880   33.6650   47.0610 C   0  0  0  0  0  0  0  0  0  0  0  0
   60.0000   31.7980   46.2260 C   0  0  0  0  0  0  0  0  0  0  0  0
   59.2360   30.5200   45.8720 C   0  0  0  0  0  0  0  0  0  0  0  0
   58.0209   28.4596   42.7174 H   0  0  0  0  0  0  0  0  0  0  0  0
   58.3690   25.9975   42.6057 H   0  0  0  0  0  0  0  0  0  0  0  0
   56.3165   23.5966   43.1183 H   0  0  0  0  0  0  0  0  0  0  0  0
   57.2438   21.1289   43.5283 H   0  0  0  0  0  0  0  0  0  0  0  0
   59.2494   21.3250   45.3165 H   0  0  0  0  0  0  0  0  0  0  0  0
   59.4832   23.9085   45.9461 H   0  0  0  0  0  0  0  0  0  0  0  0
   56.8547   25.6044   46.6468 H   0  0  0  0  0  0  0  0  0  0  0  0
   56.4955   28.0672   46.7485 H   0  0  0  0  0  0  0  0  0  0  0  0
   58.9053   32.0210   43.4113 H   0  0  0  0  0  0  0  0  0  0  0  0
   57.1347   32.2055   43.7446 H   0  0  0  0  0  0  0  0  0  0  0  0
   59.1030   33.9632   44.5833 H   0  0  0  0  0  0  0  0  0  0  0  0
   57.4550   33.7590   45.3344 H   0  0  0  0  0  0  0  0  0  0  0  0
   60.5736   33.7902   49.8946 H   0  0  0  0  0  0  0  0  0  0  0  0
   62.7690   33.1920   50.9188 H   0  0  0  0  0  0  0  0  0  0  0  0
   64.6045   33.2025   47.0001 H   0  0  0  0  0  0  0  0  0  0  0  0
   62.4100   33.7942   45.9714 H   0  0  0  0  0  0  0  0  0  0  0  0
   60.7019   32.0458   45.4161 H   0  0  0  0  0  0  0  0  0  0  0  0
   60.5662   31.6499   47.1574 H   0  0  0  0  0  0  0  0  0  0  0  0
   59.9261   29.8070   45.3972 H   0  0  0  0  0  0  0  0  0  0  0  0
   58.8184   30.0914   46.7950 H   0  0  0  0  0  0  0  0  0  0  0  0
  1  2  2  0
  2  3  1  0
  3  4  2  0
  4  5  1  0
  5  6  2  0
  6  7  1  0
  7  8  1  0
  8  9  2  0
  9 10  1  0
 10 11  2  0
  6 12  1  0
 12 13  2  0
  2 14  1  0
 14 15  1  0
 15 16  1  0
 16 17  1  0
 17 18  1  0
 18 19  2  0
 18 20  2  0
 18 21  1  0
 21 22  2  0
 22 23  1  0
 23 24  2  0
 24 25  1  0
 24 26  1  0
 26 27  2  0
 17 28  1  0
 28 29  1  0
 13  3  1  0
 29 14  1  0
 11  7  1  0
 27 21  1  0
  4 30  1  0
  5 31  1  0
  8 32  1  0
  9 33  1  0
 10 34  1  0
 11 35  1  0
 12 36  1  0
 13 37  1  0
 15 38  1  0
 15 39  1  0
 16 40  1  0
 16 41  1  0
 22 42  1  0
 23 43  1  0
 26 44  1  0
 27 45  1  0
 28 46  1  0
 28 47  1  0
 29 48  1  0
 29 49  1  0
M  END
>  <UniqueID>  (43) 
39

>  <SMILES>  (43) 
O=C(c1ccc(-n2cccc2)cc1)N1CCN(S(=O)(=O)c2ccc(Cl)cc2)CC1

>  <Energy>  (43) 
90.912858246322

>  <Genealogy>  (43) 
O=C(c1ccc(-n2cccc2)cc1)N1CCN(S(=O)(=O)c2ccc(Cl)cc2)CC1 (3D coordinates assigned)
O=C(c1ccc(-n2cccc2)cc1)N1CCN(S(=O)(=O)c2ccc(Cl)cc2)CC1 (nonaromatic ring conformer: 90.912858246322 kcal/mol)

>  <smiles>  (43) 
O=C(c1ccc(-n2cccc2)cc1)N1CCN(S(=O)(=O)c2ccc(Cl)cc2)CC1

>  <score_type>  (43) 
oracle

>  <origin>  (43) 
adg

>  <m_score__min__energy>  (43) 
-9.8499999999999996

>  <m_primary>  (43) 
energy

$$$$
43:0
     RDKit          3D

 21 22  0  0  0  0  0  0  0  0999 V2000
   57.3770   30.0490   44.5670 Br  0  0  0  0  0  0  0  0  0  0  0  0
   57.4120   28.1420   44.4640 C   0  0  0  0  0  0  0  0  0  0  0  0
   57.0810   27.3670   45.5750 C   0  0  0  0  0  0  0  0  0  0  0  0
   57.1100   25.9740   45.4900 C   0  0  0  0  0  0  0  0  0  0  0  0
   57.4760   25.3530   44.2760 C   0  0  0  0  0  0  0  0  0  0  0  0
   57.5310   23.8670   44.1060 C   0  0  0  0  0  0  0  0  0  0  0  0
   58.4670   23.1170   44.8480 C   0  0  0  0  0  0  0  0  0  0  0  0
   58.5320   21.7300   44.7020 C   0  0  0  0  0  0  0  0  0  0  0  0
   57.6950   21.0920   43.8430 N   0  0  0  0  0  0  0  0  0  0  0  0
   56.7790   21.7780   43.1090 C   0  0  0  0  0  0  0  0  0  0  0  0
   56.6790   23.1670   43.2240 C   0  0  0  0  0  0  0  0  0  0  0  0
   57.7930   26.1490   43.2130 N   0  0  0  0  0  0  0  0  0  0  0  0
   57.7710   27.5060   43.2760 C   0  0  0  0  0  0  0  0  0  0  0  0
   56.7967   27.8539   46.5195 H   0  0  0  0  0  0  0  0  0  0  0  0
   56.8486   25.3621   46.3659 H   0  0  0  0  0  0  0  0  0  0  0  0
   59.1486   23.6269   45.5446 H   0  0  0  0  0  0  0  0  0  0  0  0
   59.2639   21.1515   45.2849 H   0  0  0  0  0  0  0  0  0  0  0  0
   57.7560   20.0540   43.7450 H   0  0  0  0  0  0  0  0  0  0  0  0
   56.1130   21.2367   42.4209 H   0  0  0  0  0  0  0  0  0  0  0  0
   55.9358   23.7157   42.6268 H   0  0  0  0  0  0  0  0  0  0  0  0
   58.0362   28.1025   42.3906 H   0  0  0  0  0  0  0  0  0  0  0  0
  1  2  1  0
  2  3  2  0
  3  4  1  0
  4  5  2  0
  5  6  1  0
  6  7  2  0
  7  8  1  0
  8  9  2  0
  9 10  1  0
 10 11  2  0
  5 12  1  0
 12 13  2  0
 13  2  1  0
 11  6  1  0
  3 14  1  0
  4 15  1  0
  7 16  1  0
  8 17  1  0
  9 18  1  0
 10 19  1  0
 11 20  1  0
 13 21  1  0
M  CHG  1   9   1
M  END
>  <UniqueID>  (44) 
40

>  <SMILES>  (44) 
Brc1ccc(-c2cc[nH+]cc2)nc1

>  <Energy>  (44) 
27.07665839537998

>  <Genealogy>  (44) 
Brc1ccc(-c2cc[nH+]cc2)nc1 (protonated)
Brc1ccc(-c2cc[nH+]cc2)nc1 (3D coordinates assigned)
Brc1ccc(-c2cc[nH+]cc2)nc1 (optimized conformer: 27.07665839537998 kcal/mol)

>  <smiles>  (44) 
Brc1ccc(-c2ccncc2)nc1

>  <score_type>  (44) 
oracle

>  <origin>  (44) 
adg

>  <m_score__min__energy>  (44) 
-4.2800000000000002

>  <m_primary>  (44) 
energy

$$$$
44:0
     RDKit          3D

 62 64  0  0  0  0  0  0  0  0999 V2000
   57.8330   29.9950   45.3290 C   0  0  0  0  0  0  0  0  0  0  0  0
   56.8850   29.1460   44.4540 C   0  0  0  0  0  0  0  0  0  0  0  0
   57.7460   28.2990   43.5020 C   0  0  0  0  0  0  0  0  0  0  0  0
   55.9840   30.0590   43.5980 C   0  0  0  0  0  0  0  0  0  0  0  0
   56.0740   28.1960   45.2460 N   0  0  0  0  0  0  0  0  0  0  0  0
   56.8590   26.7340   45.8050 S   0  0  0  0  0  0  0  0  0  0  0  0
   55.9220   26.0240   46.7380 O   0  0  0  0  0  0  0  0  0  0  0  0
   57.1320   25.8170   44.6460 O   0  0  0  0  0  0  0  0  0  0  0  0
   58.3450   27.0680   46.6900 C   0  0  0  0  0  0  0  0  0  0  0  0
   59.5300   26.4200   46.3240 C   0  0  0  0  0  0  0  0  0  0  0  0
   60.7080   26.6620   47.0320 C   0  0  0  0  0  0  0  0  0  0  0  0
   60.7040   27.5360   48.1220 C   0  0  0  0  0  0  0  0  0  0  0  0
   59.5130   28.1640   48.5280 C   0  0  0  0  0  0  0  0  0  0  0  0
   59.5100   29.1080   49.7160 C   0  0  0  0  0  0  0  0  0  0  0  0
   60.2680   30.3750   49.5210 N   0  0  1  0  0  0  0  0  0  0  0  0
   60.8830   30.5100   48.1790 C   0  0  0  0  0  0  0  0  0  0  0  0
   62.0340   31.4950   48.1580 C   0  0  0  0  0  0  0  0  0  0  0  0
   62.9300   31.5630   49.2400 C   0  0  0  0  0  0  0  0  0  0  0  0
   63.9880   32.4780   49.2270 C   0  0  0  0  0  0  0  0  0  0  0  0
   64.1540   33.3410   48.1410 C   0  0  0  0  0  0  0  0  0  0  0  0
   63.2540   33.3030   47.0740 C   0  0  0  0  0  0  0  0  0  0  0  0
   63.4100   34.1540   46.0270 F   0  0  0  0  0  0  0  0  0  0  0  0
   62.1900   32.3940   47.0870 C   0  0  0  0  0  0  0  0  0  0  0  0
   59.3220   31.8080   49.8820 S   0  0  0  0  0  0  0  0  0  0  0  0
   57.9260   31.3970   50.2660 O   0  0  0  0  0  0  0  0  0  0  0  0
   59.9380   32.5400   51.0420 O   0  0  0  0  0  0  0  0  0  0  0  0
   59.2000   32.8870   48.4910 C   0  0  0  0  0  0  0  0  0  0  0  0
   59.8290   34.1390   48.5170 C   0  0  0  0  0  0  0  0  0  0  0  0
   59.7460   34.9900   47.4150 C   0  0  0  0  0  0  0  0  0  0  0  0
   59.0310   34.6010   46.2800 C   0  0  0  0  0  0  0  0  0  0  0  0
   58.3740   33.3580   46.2430 C   0  0  0  0  0  0  0  0  0  0  0  0
   57.6330   32.9530   45.0770 N   0  0  0  0  0  0  0  0  0  0  0  0
   58.1870   32.9010   43.9590 O   0  0  0  0  0  0  0  0  0  0  0  0
   56.3170   32.5680   45.1840 O   0  0  0  0  0  0  0  0  0  0  0  0
   58.4550   32.5120   47.3640 C   0  0  0  0  0  0  0  0  0  0  0  0
   58.3460   27.9560   47.7750 C   0  0  0  0  0  0  0  0  0  0  0  0
   57.6204   29.8046   46.3913 H   0  0  0  0  0  0  0  0  0  0  0  0
   58.8761   29.7235   45.1095 H   0  0  0  0  0  0  0  0  0  0  0  0
   57.6777   31.0616   45.1095 H   0  0  0  0  0  0  0  0  0  0  0  0
   58.4089   27.6468   44.0895 H   0  0  0  0  0  0  0  0  0  0  0  0
   57.0926   27.6819   42.8678 H   0  0  0  0  0  0  0  0  0  0  0  0
   58.3523   28.9624   42.8678 H   0  0  0  0  0  0  0  0  0  0  0  0
   55.3654   30.6858   44.2571 H   0  0  0  0  0  0  0  0  0  0  0  0
   56.6112   30.7021   42.9631 H   0  0  0  0  0  0  0  0  0  0  0  0
   55.3327   29.4403   42.9631 H   0  0  0  0  0  0  0  0  0  0  0  0
   59.5330   25.7186   45.4767 H   0  0  0  0  0  0  0  0  0  0  0  0
   61.6414   26.1637   46.7313 H   0  0  0  0  0  0  0  0  0  0  0  0
   61.6390   27.7343   48.6664 H   0  0  0  0  0  0  0  0  0  0  0  0
   58.4652   29.3678   49.9416 H   0  0  0  0  0  0  0  0  0  0  0  0
   60.0158   28.5723   50.5328 H   0  0  0  0  0  0  0  0  0  0  0  0
   61.0380   30.3750   50.2280 H   0  0  0  0  0  0  0  0  0  0  0  0
   61.2573   29.5251   47.8630 H   0  0  0  0  0  0  0  0  0  0  0  0
   60.1088   30.8901   47.4962 H   0  0  0  0  0  0  0  0  0  0  0  0
   62.7980   30.8924   50.1019 H   0  0  0  0  0  0  0  0  0  0  0  0
   64.6901   32.5181   50.0729 H   0  0  0  0  0  0  0  0  0  0  0  0
   64.9942   34.0509   48.1264 H   0  0  0  0  0  0  0  0  0  0  0  0
   61.4710   32.3823   46.2546 H   0  0  0  0  0  0  0  0  0  0  0  0
   60.3903   34.4518   49.4098 H   0  0  0  0  0  0  0  0  0  0  0  0
   60.2449   35.9700   47.4399 H   0  0  0  0  0  0  0  0  0  0  0  0
   58.9814   35.2713   45.4092 H   0  0  0  0  0  0  0  0  0  0  0  0
   57.9284   31.5463   47.3563 H   0  0  0  0  0  0  0  0  0  0  0  0
   57.4240   28.4948   48.0389 H   0  0  0  0  0  0  0  0  0  0  0  0
  1  2  1  0
  2  3  1  0
  2  4  1  0
  2  5  1  0
  5  6  1  0
  6  7  2  0
  6  8  2  0
  6  9  1  0
  9 10  2  0
 10 11  1  0
 11 12  2  0
 12 13  1  0
 13 14  1  0
 14 15  1  0
 15 16  1  0
 16 17  1  0
 17 18  2  0
 18 19  1  0
 19 20  2  0
 20 21  1  0
 21 22  1  0
 21 23  2  0
 15 24  1  0
 24 25  2  0
 24 26  2  0
 24 27  1  0
 27 28  2  0
 28 29  1  0
 29 30  2  0
 30 31  1  0
 31 32  1  0
 32 33  2  0
 32 34  1  0
 31 35  2  0
 13 36  2  0
 36  9  1  0
 23 17  1  0
 35 27  1  0
  1 37  1  0
  1 38  1  0
  1 39  1  0
  3 40  1  0
  3 41  1  0
  3 42  1  0
  4 43  1  0
  4 44  1  0
  4 45  1  0
 10 46  1  0
 11 47  1  0
 12 48  1  0
 14 49  1  0
 14 50  1  0
 15 51  1  1
 16 52  1  0
 16 53  1  0
 18 54  1  0
 19 55  1  0
 20 56  1  0
 23 57  1  0
 28 58  1  0
 29 59  1  0
 30 60  1  0
 35 61  1  0
 36 62  1  0
M  CHG  4   5  -1  15   1  32   1  34  -1
M  END
>  <UniqueID>  (45) 
41

>  <SMILES>  (45) 
CC(C)(C)[N-]S(=O)(=O)c1cccc(C[N@@H+](Cc2cccc(F)c2)S(=O)(=O)c2cccc([N+](=O)[O-])c2)c1

>  <Energy>  (45) 
67.92046170556192

>  <Genealogy>  (45) 
CC(C)(C)[N-]S(=O)(=O)c1cccc(C[NH+](Cc2cccc(F)c2)S(=O)(=O)c2cccc([N+](=O)[O-])c2)c1 (protonated)
CC(C)(C)[N-]S(=O)(=O)c1cccc(C[N@@H+](Cc2cccc(F)c2)S(=O)(=O)c2cccc([N+](=O)[O-])c2)c1 (chirality)
CC(C)(C)[N-]S(=O)(=O)c1cccc(C[N@@H+](Cc2cccc(F)c2)S(=O)(=O)c2cccc([N+](=O)[O-])c2)c1 (3D coordinates assigned)
CC(C)(C)[N-]S(=O)(=O)c1cccc(C[N@@H+](Cc2cccc(F)c2)S(=O)(=O)c2cccc([N+](=O)[O-])c2)c1 (optimized conformer: 67.92046170556192 kcal/mol)

>  <smiles>  (45) 
CC(C)(C)NS(=O)(=O)c1cccc(CN(Cc2cccc(F)c2)S(=O)(=O)c2cccc([N+](=O)[O-])c2)c1

>  <score_type>  (45) 
oracle

>  <origin>  (45) 
adg

>  <m_score__min__energy>  (45) 
-11.16

>  <m_primary>  (45) 
energy

$$$$
45:0
     RDKit          3D

 49 51  0  0  0  0  0  0  0  0999 V2000
   62.1420   33.8500   46.3490 C   0  0  0  0  0  0  0  0  0  0  0  0
   60.7970   34.3060   46.4430 O   0  0  0  0  0  0  0  0  0  0  0  0
   59.6760   33.5740   46.0190 C   0  0  0  0  0  0  0  0  0  0  0  0
   59.0450   33.8260   44.7870 C   0  0  0  0  0  0  0  0  0  0  0  0
   57.9270   33.0850   44.3980 C   0  0  0  0  0  0  0  0  0  0  0  0
   57.4330   32.0640   45.2220 C   0  0  0  0  0  0  0  0  0  0  0  0
   56.2680   31.3100   44.8650 N   0  0  0  0  0  0  0  0  0  0  0  0
   56.2300   29.9600   44.3830 C   0  0  0  0  0  0  0  0  0  0  0  0
   55.6160   29.0950   45.0620 O   0  0  0  0  0  0  0  0  0  0  0  0
   56.9930   29.5230   43.1640 C   0  0  0  0  0  0  0  0  0  0  0  0
   57.7980   27.9020   43.4250 S   0  0  0  0  0  0  0  0  0  0  0  0
   58.6920   28.3870   44.9060 C   0  0  0  0  0  0  0  0  0  0  0  0
   60.0250   28.8050   44.8110 C   0  0  0  0  0  0  0  0  0  0  0  0
   60.7120   29.1720   45.9690 C   0  0  0  0  0  0  0  0  0  0  0  0
   60.0680   29.1080   47.2060 C   0  0  0  0  0  0  0  0  0  0  0  0
   58.7420   28.6740   47.2650 C   0  0  0  0  0  0  0  0  0  0  0  0
   58.0860   28.3210   46.1250 N   0  0  0  0  0  0  0  0  0  0  0  0
   58.0390   31.8300   46.4610 C   0  0  0  0  0  0  0  0  0  0  0  0
   59.1660   32.5650   46.8570 C   0  0  0  0  0  0  0  0  0  0  0  0
   59.9180   32.2510   48.4250 S   0  0  0  0  0  0  0  0  0  0  0  0
   59.1040   31.2490   49.1970 O   0  0  0  0  0  0  0  0  0  0  0  0
   61.2820   31.6670   48.1840 O   0  0  0  0  0  0  0  0  0  0  0  0
   60.0760   33.7400   49.3350 N   0  0  0  0  0  0  0  0  0  0  0  0
   59.4580   33.6380   50.6690 C   0  0  0  0  0  0  0  0  0  0  0  0
   60.3000   32.7800   51.6430 C   0  0  0  0  0  0  0  0  0  0  0  0
   61.6460   32.6150   51.2350 O   0  0  0  0  0  0  0  0  0  0  0  0
   62.1610   33.8300   50.7400 C   0  0  0  0  0  0  0  0  0  0  0  0
   61.4840   34.1930   49.4050 C   0  0  0  0  0  0  0  0  0  0  0  0
   62.5534   33.7105   47.3596 H   0  0  0  0  0  0  0  0  0  0  0  0
   62.1677   32.8929   45.8074 H   0  0  0  0  0  0  0  0  0  0  0  0
   62.7444   34.5941   45.8074 H   0  0  0  0  0  0  0  0  0  0  0  0
   59.4354   34.6129   44.1249 H   0  0  0  0  0  0  0  0  0  0  0  0
   57.4316   33.3035   43.4405 H   0  0  0  0  0  0  0  0  0  0  0  0
   56.2973   29.4444   42.3156 H   0  0  0  0  0  0  0  0  0  0  0  0
   57.7754   30.2688   42.9600 H   0  0  0  0  0  0  0  0  0  0  0  0
   60.5261   28.8438   43.8325 H   0  0  0  0  0  0  0  0  0  0  0  0
   61.7568   29.5104   45.9073 H   0  0  0  0  0  0  0  0  0  0  0  0
   60.5996   29.3965   48.1248 H   0  0  0  0  0  0  0  0  0  0  0  0
   58.2260   28.6171   48.2348 H   0  0  0  0  0  0  0  0  0  0  0  0
   57.0970   27.9910   46.1920 H   0  0  0  0  0  0  0  0  0  0  0  0
   57.6273   31.0615   47.1317 H   0  0  0  0  0  0  0  0  0  0  0  0
   59.3536   34.6495   51.0886 H   0  0  0  0  0  0  0  0  0  0  0  0
   58.4799   33.1491   50.5499 H   0  0  0  0  0  0  0  0  0  0  0  0
   60.2929   33.2661   52.6297 H   0  0  0  0  0  0  0  0  0  0  0  0
   59.8451   31.7787   51.6665 H   0  0  0  0  0  0  0  0  0  0  0  0
   61.9720   34.6292   51.4718 H   0  0  0  0  0  0  0  0  0  0  0  0
   63.2427   33.7191   50.5742 H   0  0  0  0  0  0  0  0  0  0  0  0
   61.5081   35.2861   49.2843 H   0  0  0  0  0  0  0  0  0  0  0  0
   62.0370   33.6821   48.6030 H   0  0  0  0  0  0  0  0  0  0  0  0
  1  2  1  0
  2  3  1  0
  3  4  2  0
  4  5  1  0
  5  6  2  0
  6  7  1  0
  7  8  1  0
  8  9  2  0
  8 10  1  0
 10 11  1  0
 11 12  1  0
 12 13  2  0
 13 14  1  0
 14 15  2  0
 15 16  1  0
 16 17  2  0
  6 18  1  0
 18 19  2  0
 19 20  1  0
 20 21  2  0
 20 22  2  0
 20 23  1  0
 23 24  1  0
 24 25  1  0
 25 26  1  0
 26 27  1  0
 27 28  1  0
 19  3  1  0
 28 23  1  0
 17 12  1  0
  1 29  1  0
  1 30  1  0
  1 31  1  0
  4 32  1  0
  5 33  1  0
 10 34  1  0
 10 35  1  0
 13 36  1  0
 14 37  1  0
 15 38  1  0
 16 39  1  0
 17 40  1  0
 18 41  1  0
 24 42  1  0
 24 43  1  0
 25 44  1  0
 25 45  1  0
 27 46  1  0
 27 47  1  0
 28 48  1  0
 28 49  1  0
M  CHG  2   7  -1  17   1
M  END
>  <UniqueID>  (46) 
42

>  <SMILES>  (46) 
COc1ccc([N-]C(=O)CSc2cccc[nH+]2)cc1S(=O)(=O)N1CCOCC1

>  <Energy>  (46) 
62.02101649525475

>  <Genealogy>  (46) 
COc1ccc([N-]C(=O)CSc2cccc[nH+]2)cc1S(=O)(=O)N1CCOCC1 (protonated)
COc1ccc([N-]C(=O)CSc2cccc[nH+]2)cc1S(=O)(=O)N1CCOCC1 (3D coordinates assigned)
COc1ccc([N-]C(=O)CSc2cccc[nH+]2)cc1S(=O)(=O)N1CCOCC1 (nonaromatic ring conformer: 62.02101649525475 kcal/mol)

>  <smiles>  (46) 
COc1ccc(NC(=O)CSc2ccccn2)cc1S(=O)(=O)N1CCOCC1

>  <score_type>  (46) 
oracle

>  <origin>  (46) 
adg

>  <m_score__min__energy>  (46) 
-8.3499999999999996

>  <m_primary>  (46) 
energy

$$$$
46:0
     RDKit          3D

 48 51  0  0  1  0  0  0  0  0999 V2000
   57.0330   21.1150   42.9550 C   0  0  0  0  0  0  0  0  0  0  0  0
   56.6600   22.2780   43.8220 C   0  0  0  0  0  0  0  0  0  0  0  0
   56.0070   22.0840   45.0270 C   0  0  0  0  0  0  0  0  0  0  0  0
   55.6690   23.1700   45.8160 C   0  0  0  0  0  0  0  0  0  0  0  0
   55.9980   24.4420   45.3760 C   0  0  0  0  0  0  0  0  0  0  0  0
   55.6900   25.6110   46.1250 N   0  0  0  0  0  0  0  0  0  0  0  0
   56.5050   26.6030   46.1120 C   0  0  0  0  0  0  0  0  0  0  0  0
   57.7470   26.5480   46.6260 N   0  0  0  0  0  0  0  0  0  0  0  0
   58.5880   27.6240   46.5980 C   0  0  0  0  0  0  0  0  0  0  0  0
   59.8790   27.4710   47.1660 N   0  0  0  0  0  0  0  0  0  0  0  0
   58.1650   28.8330   46.0200 C   0  0  0  0  0  0  0  0  0  0  0  0
   59.1050   29.9090   45.9810 C   0  0  0  0  0  0  0  0  0  0  0  0
   60.3270   29.5690   45.7090 O   0  0  0  0  0  0  0  0  0  0  0  0
   58.9060   31.3070   46.1950 C   0  0  0  0  0  0  0  0  0  0  0  0
   59.1030   31.7890   47.4970 C   0  0  0  0  0  0  0  0  0  0  0  0
   58.8960   33.1100   47.8280 C   0  0  0  0  0  0  0  0  0  0  0  0
   58.4800   34.0350   46.8900 C   0  0  0  0  0  0  0  0  0  0  0  0
   58.2820   33.5770   45.6080 C   0  0  0  0  0  0  0  0  0  0  0  0
   58.4930   32.2340   45.2740 C   0  0  0  0  0  0  0  0  0  0  0  0
   56.8980   28.8260   45.5150 C   0  0  0  0  0  0  0  0  0  0  0  0
   56.4560   29.8640   44.9360 N   0  0  0  0  0  0  0  0  0  0  0  0
   56.2340   30.1440   43.5850 C   0  0  0  0  0  0  0  0  0  0  0  0
   56.3080   29.4110   42.3630 C   0  0  0  0  0  0  0  0  0  0  0  0
   56.9470   30.8290   42.5500 C   0  0  0  0  0  0  0  0  0  0  0  0
   56.0950   27.7500   45.5590 N   0  0  0  0  0  0  0  0  0  0  0  0
   56.6550   24.6070   44.1590 C   0  0  0  0  0  0  0  0  0  0  0  0
   57.0000   23.5380   43.3580 C   0  0  0  0  0  0  0  0  0  0  0  0
   57.3077   20.2587   43.5884 H   0  0  0  0  0  0  0  0  0  0  0  0
   56.1774   20.8418   42.3199 H   0  0  0  0  0  0  0  0  0  0  0  0
   57.8879   21.3904   42.3199 H   0  0  0  0  0  0  0  0  0  0  0  0
   55.7563   21.0654   45.3581 H   0  0  0  0  0  0  0  0  0  0  0  0
   55.1489   23.0258   46.7745 H   0  0  0  0  0  0  0  0  0  0  0  0
   58.0510   25.6480   47.0530 H   0  0  0  0  0  0  0  0  0  0  0  0
   60.7400   27.9210   46.7480 H   0  0  0  0  0  0  0  0  0  0  0  0
   60.0100   26.8980   48.0270 H   0  0  0  0  0  0  0  0  0  0  0  0
   59.4335   31.0897   48.2792 H   0  0  0  0  0  0  0  0  0  0  0  0
   59.0661   33.4364   48.8646 H   0  0  0  0  0  0  0  0  0  0  0  0
   58.3147   35.0895   47.1560 H   0  0  0  0  0  0  0  0  0  0  0  0
   57.9512   34.2803   44.8296 H   0  0  0  0  0  0  0  0  0  0  0  0
   58.3214   31.9116   44.2364 H   0  0  0  0  0  0  0  0  0  0  0  0
   55.4269   30.4121   44.2826 H   0  0  0  0  0  0  0  0  0  0  0  0
   56.9448   28.5174   42.2856 H   0  0  0  0  0  0  0  0  0  0  0  0
   55.5918   28.9463   41.6694 H   0  0  0  0  0  0  0  0  0  0  0  0
   58.0392   30.9470   42.6072 H   0  0  0  0  0  0  0  0  0  0  0  0
   56.8806   31.8057   42.0483 H   0  0  0  0  0  0  0  0  0  0  0  0
   55.1470   27.8430   45.1490 H   0  0  0  0  0  0  0  0  0  0  0  0
   56.9074   25.6243   43.8251 H   0  0  0  0  0  0  0  0  0  0  0  0
   57.5192   23.6793   42.3986 H   0  0  0  0  0  0  0  0  0  0  0  0
  1  2  1  0
  2  3  2  0
  3  4  1  0
  4  5  2  0
  5  6  1  0
  6  7  2  0
  7  8  1  0
  8  9  1  0
  9 10  1  0
  9 11  2  0
 11 12  1  0
 12 13  2  0
 12 14  1  0
 14 15  2  0
 15 16  1  0
 16 17  2  0
 17 18  1  0
 18 19  2  0
 11 20  1  0
 20 21  2  0
 21 22  1  0
 22 23  1  0
 23 24  1  0
 20 25  1  0
  5 26  1  0
 26 27  2  0
 27  2  1  0
 25  7  1  0
 19 14  1  0
 24 22  1  0
  1 28  1  0
  1 29  1  0
  1 30  1  0
  3 31  1  0
  4 32  1  0
  8 33  1  0
 10 34  1  0
 10 35  1  0
 15 36  1  0
 16 37  1  0
 17 38  1  0
 18 39  1  0
 19 40  1  0
 22 41  1  0
 23 42  1  0
 23 43  1  0
 24 44  1  0
 24 45  1  0
 25 46  1  0
 26 47  1  0
 27 48  1  0
M  END
>  <smiles>  (47) 
Cc1ccc(N=c2[nH]c(N)c(C(=O)c3ccccc3)c(=NC3CC3)[nH]2)cc1

>  <score_type>  (47) 
oracle

>  <origin>  (47) 
adg

>  <m_score__min__energy>  (47) 
-8.8300000000000001

>  <m_primary>  (47) 
energy

$$$$
47:0
     RDKit          3D

 49 50  0  0  0  0  0  0  0  0999 V2000
   58.6040   33.2030   43.6280 C   0  0  0  0  0  0  0  0  0  0  0  0
   57.9160   31.8640   43.7150 C   0  0  0  0  0  0  0  0  0  0  0  0
   57.1970   31.3690   42.6040 C   0  0  0  0  0  0  0  0  0  0  0  0
   57.0280   32.3040   41.1180 Cl  0  0  0  0  0  0  0  0  0  0  0  0
   56.5950   30.1080   42.6600 C   0  0  0  0  0  0  0  0  0  0  0  0
   56.6930   29.3300   43.8140 C   0  0  0  0  0  0  0  0  0  0  0  0
   57.3780   29.8150   44.9280 C   0  0  0  0  0  0  0  0  0  0  0  0
   57.9660   31.0850   44.9020 C   0  0  0  0  0  0  0  0  0  0  0  0
   58.6310   31.5580   46.0830 N   0  0  0  0  0  0  0  0  0  0  0  0
   59.6910   30.8420   46.7370 C   0  0  0  0  0  0  0  0  0  0  0  0
   60.4450   29.5910   45.9750 S   0  0  0  0  0  0  0  0  0  0  0  0
   60.1030   31.2650   48.0500 N   0  0  0  0  0  0  0  0  0  0  0  0
   61.2040   30.6660   48.8070 C   0  0  0  0  0  0  0  0  0  0  0  0
   62.5590   31.2220   48.3170 C   0  0  0  0  0  0  0  0  0  0  0  0
   62.6750   32.7910   48.1770 C   0  0  0  0  0  0  0  0  0  0  0  0
   63.2210   33.4530   49.4740 C   0  0  0  0  0  0  0  0  0  0  0  0
   63.7250   33.0520   47.0620 C   0  0  0  0  0  0  0  0  0  0  0  0
   61.3470   33.3650   47.7550 N   0  0  0  0  0  0  0  0  0  0  0  0
   60.7350   34.3120   48.7130 C   0  0  0  0  0  0  0  0  0  0  0  0
   59.2740   34.6140   48.3090 C   0  0  0  0  0  0  0  0  0  0  0  0
   58.9780   34.2380   46.9750 O   0  0  0  0  0  0  0  0  0  0  0  0
   59.9990   34.6950   46.1140 C   0  0  0  0  0  0  0  0  0  0  0  0
   61.3020   33.9180   46.3750 C   0  0  0  0  0  0  0  0  0  0  0  0
   58.7986   33.5818   44.6422 H   0  0  0  0  0  0  0  0  0  0  0  0
   59.5565   33.0915   43.0892 H   0  0  0  0  0  0  0  0  0  0  0  0
   57.9588   33.9124   43.0892 H   0  0  0  0  0  0  0  0  0  0  0  0
   56.0410   29.7273   41.7892 H   0  0  0  0  0  0  0  0  0  0  0  0
   56.2295   28.3329   43.8453 H   0  0  0  0  0  0  0  0  0  0  0  0
   57.4567   29.1951   45.8333 H   0  0  0  0  0  0  0  0  0  0  0  0
   58.4080   32.5230   46.4130 H   0  0  0  0  0  0  0  0  0  0  0  0
   59.5480   32.0170   48.5190 H   0  0  0  0  0  0  0  0  0  0  0  0
   61.0802   30.9013   49.8744 H   0  0  0  0  0  0  0  0  0  0  0  0
   61.1897   29.5765   48.6562 H   0  0  0  0  0  0  0  0  0  0  0  0
   63.3308   30.8932   49.0285 H   0  0  0  0  0  0  0  0  0  0  0  0
   62.6784   30.8318   47.2955 H   0  0  0  0  0  0  0  0  0  0  0  0
   62.7994   32.9418   50.3520 H   0  0  0  0  0  0  0  0  0  0  0  0
   64.3178   33.3712   49.4937 H   0  0  0  0  0  0  0  0  0  0  0  0
   62.9320   34.5142   49.4937 H   0  0  0  0  0  0  0  0  0  0  0  0
   64.6951   33.2931   47.5211 H   0  0  0  0  0  0  0  0  0  0  0  0
   63.8283   32.1522   46.4377 H   0  0  0  0  0  0  0  0  0  0  0  0
   63.3950   33.8954   46.4377 H   0  0  0  0  0  0  0  0  0  0  0  0
   60.7490   33.8695   49.7200 H   0  0  0  0  0  0  0  0  0  0  0  0
   61.3096   35.2500   48.7058 H   0  0  0  0  0  0  0  0  0  0  0  0
   58.6028   34.0640   48.9851 H   0  0  0  0  0  0  0  0  0  0  0  0
   59.1310   35.7022   48.3829 H   0  0  0  0  0  0  0  0  0  0  0  0
   59.6885   34.5434   45.0697 H   0  0  0  0  0  0  0  0  0  0  0  0
   60.1751   35.7644   46.3020 H   0  0  0  0  0  0  0  0  0  0  0  0
   61.3721   33.0883   45.6562 H   0  0  0  0  0  0  0  0  0  0  0  0
   62.1453   34.6144   46.2575 H   0  0  0  0  0  0  0  0  0  0  0  0
  1  2  1  0
  2  3  2  0
  3  4  1  0
  3  5  1  0
  5  6  2  0
  6  7  1  0
  7  8  2  0
  8  9  1  0
  9 10  1  0
 10 11  2  0
 10 12  1  0
 12 13  1  0
 13 14  1  0
 14 15  1  0
 15 16  1  0
 15 17  1  0
 15 18  1  0
 18 19  1  0
 19 20  1  0
 20 21  1  0
 21 22  1  0
 22 23  1  0
  8  2  1  0
 23 18  1  0
  1 24  1  0
  1 25  1  0
  1 26  1  0
  5 27  1  0
  6 28  1  0
  7 29  1  0
  9 30  1  0
 12 31  1  0
 13 32  1  0
 13 33  1  0
 14 34  1  0
 14 35  1  0
 16 36  1  0
 16 37  1  0
 16 38  1  0
 17 39  1  0
 17 40  1  0
 17 41  1  0
 19 42  1  0
 19 43  1  0
 20 44  1  0
 20 45  1  0
 22 46  1  0
 22 47  1  0
 23 48  1  0
 23 49  1  0
M  END
>  <UniqueID>  (48) 
43

>  <SMILES>  (48) 
Cc1c(Cl)cccc1NC(=S)NCCC(C)(C)N1CCOCC1

>  <Energy>  (48) 
76.89181880849361

>  <Genealogy>  (48) 
Cc1c(Cl)cccc1NC(=S)NCCC(C)(C)N1CCOCC1 (3D coordinates assigned)
Cc1c(Cl)cccc1NC(=S)NCCC(C)(C)N1CCOCC1 (nonaromatic ring conformer: 76.89181880849361 kcal/mol)

>  <smiles>  (48) 
Cc1c(Cl)cccc1NC(=S)NCCC(C)(C)N1CCOCC1

>  <score_type>  (48) 
oracle

>  <origin>  (48) 
adg

>  <m_score__min__energy>  (48) 
-7.8600000000000003

>  <m_primary>  (48) 
energy

$$$$
48:0
     RDKit          3D

 32 34  0  0  0  0  0  0  0  0999 V2000
   60.8560   34.1540   48.1770 C   0  0  0  0  0  0  0  0  0  0  0  0
   59.9820   33.4150   47.2580 N   0  0  0  0  0  0  0  0  0  0  0  0
   60.0910   32.0830   47.1680 N   0  0  0  0  0  0  0  0  0  0  0  0
   59.2920   31.3410   46.3470 C   0  0  0  0  0  0  0  0  0  0  0  0
   59.4350   29.8660   46.3610 C   0  0  0  0  0  0  0  0  0  0  0  0
   58.9070   29.1050   47.4160 C   0  0  0  0  0  0  0  0  0  0  0  0
   59.0610   27.7150   47.4300 C   0  0  0  0  0  0  0  0  0  0  0  0
   59.7550   27.0790   46.3970 C   0  0  0  0  0  0  0  0  0  0  0  0
   59.9050   25.7310   46.4120 F   0  0  0  0  0  0  0  0  0  0  0  0
   60.2990   27.8300   45.3510 C   0  0  0  0  0  0  0  0  0  0  0  0
   60.1450   29.2210   45.3350 C   0  0  0  0  0  0  0  0  0  0  0  0
   58.3280   31.9940   45.5470 C   0  0  0  0  0  0  0  0  0  0  0  0
   57.4940   31.2670   44.5550 C   0  0  0  0  0  0  0  0  0  0  0  0
   57.6090   31.3380   43.1790 C   0  0  0  0  0  0  0  0  0  0  0  0
   56.6410   30.4960   42.6770 C   0  0  0  0  0  0  0  0  0  0  0  0
   55.9960   29.9590   43.7710 C   0  0  0  0  0  0  0  0  0  0  0  0
   56.5270   30.4360   44.8730 O   0  0  0  0  0  0  0  0  0  0  0  0
   58.2050   33.3810   45.6640 C   0  0  0  0  0  0  0  0  0  0  0  0
   59.0380   34.0840   46.5290 C   0  0  0  0  0  0  0  0  0  0  0  0
   58.9160   35.3360   46.6240 O   0  0  0  0  0  0  0  0  0  0  0  0
   60.5785   33.9194   49.2152 H   0  0  0  0  0  0  0  0  0  0  0  0
   61.9021   33.8624   48.0022 H   0  0  0  0  0  0  0  0  0  0  0  0
   60.7423   35.2341   48.0022 H   0  0  0  0  0  0  0  0  0  0  0  0
   60.7940   31.5830   47.7600 H   0  0  0  0  0  0  0  0  0  0  0  0
   58.3696   29.6044   48.2356 H   0  0  0  0  0  0  0  0  0  0  0  0
   58.6361   27.1226   48.2537 H   0  0  0  0  0  0  0  0  0  0  0  0
   60.8479   27.3279   44.5407 H   0  0  0  0  0  0  0  0  0  0  0  0
   60.5816   29.8113   44.5159 H   0  0  0  0  0  0  0  0  0  0  0  0
   58.3258   31.9423   42.6036 H   0  0  0  0  0  0  0  0  0  0  0  0
   56.4261   30.2931   41.6175 H   0  0  0  0  0  0  0  0  0  0  0  0
   55.1639   29.2409   43.7272 H   0  0  0  0  0  0  0  0  0  0  0  0
   57.4491   33.9176   45.0718 H   0  0  0  0  0  0  0  0  0  0  0  0
  1  2  1  0
  2  3  1  0
  3  4  2  0
  4  5  1  0
  5  6  2  0
  6  7  1  0
  7  8  2  0
  8  9  1  0
  8 10  1  0
 10 11  2  0
  4 12  1  0
 12 13  1  0
 13 14  2  0
 14 15  1  0
 15 16  2  0
 16 17  1  0
 12 18  2  0
 18 19  1  0
 19 20  2  0
 19  2  1  0
 11  5  1  0
 17 13  1  0
  1 21  1  0
  1 22  1  0
  1 23  1  0
  3 24  1  0
  6 25  1  0
  7 26  1  0
 10 27  1  0
 11 28  1  0
 14 29  1  0
 15 30  1  0
 16 31  1  0
 18 32  1  0
M  CHG  1   3   1
M  END
>  <UniqueID>  (49) 
44

>  <SMILES>  (49) 
Cn1[nH+]c(-c2ccc(F)cc2)c(-c2ccco2)cc1=O

>  <Energy>  (49) 
72.03648023798155

>  <Genealogy>  (49) 
Cn1[nH+]c(-c2ccc(F)cc2)c(-c2ccco2)cc1=O (protonated)
Cn1[nH+]c(-c2ccc(F)cc2)c(-c2ccco2)cc1=O (3D coordinates assigned)
Cn1[nH+]c(-c2ccc(F)cc2)c(-c2ccco2)cc1=O (optimized conformer: 72.03648023798155 kcal/mol)

>  <smiles>  (49) 
Cn1nc(-c2ccc(F)cc2)c(-c2ccco2)cc1=O

>  <score_type>  (49) 
oracle

>  <origin>  (49) 
adg

>  <m_score__min__energy>  (49) 
-5.6299999999999999

>  <m_primary>  (49) 
energy

$$$$
49:0
     RDKit          3D

 56 59  0  0  0  0  0  0  0  0999 V2000
   55.5310   29.0320   44.8700 O   0  0  0  0  0  0  0  0  0  0  0  0
   56.6620   29.8640   44.3330 S   0  0  0  0  0  0  0  0  0  0  0  0
   56.8350   29.5420   42.8760 O   0  0  0  0  0  0  0  0  0  0  0  0
   56.2710   31.5490   44.4970 N   0  0  0  0  0  0  0  0  0  0  0  0
   57.4900   32.3320   44.7070 C   0  0  0  0  0  0  0  0  0  0  0  0
   57.3010   33.2820   45.8920 C   0  0  0  0  0  0  0  0  0  0  0  0
   58.5570   34.1550   46.1130 C   0  0  0  0  0  0  0  0  0  0  0  0
   59.5530   33.5770   47.0440 N   0  0  0  0  0  0  0  0  0  0  0  0
   60.8280   33.2510   46.4030 C   0  0  0  0  0  0  0  0  0  0  0  0
   61.6800   32.3770   47.3320 C   0  0  0  0  0  0  0  0  0  0  0  0
   61.5430   32.6710   48.7800 N   0  0  0  0  0  0  0  0  0  0  0  0
   62.4040   31.9180   49.6980 C   0  0  0  0  0  0  0  0  0  0  0  0
   61.8870   30.8850   50.4340 N   0  0  0  0  0  0  0  0  0  0  0  0
   63.1010   30.1940   51.3260 S   0  0  0  0  0  0  0  0  0  0  0  0
   64.3360   31.1790   50.8390 C   0  0  0  0  0  0  0  0  0  0  0  0
   65.6650   31.1440   51.2500 C   0  0  0  0  0  0  0  0  0  0  0  0
   66.5350   32.1140   50.7480 C   0  0  0  0  0  0  0  0  0  0  0  0
   66.0610   33.0870   49.8560 C   0  0  0  0  0  0  0  0  0  0  0  0
   64.7140   33.1020   49.4510 C   0  0  0  0  0  0  0  0  0  0  0  0
   63.8200   32.1200   49.9400 C   0  0  0  0  0  0  0  0  0  0  0  0
   60.5150   33.6020   49.2870 C   0  0  0  0  0  0  0  0  0  0  0  0
   59.8180   34.4270   48.2070 C   0  0  0  0  0  0  0  0  0  0  0  0
   58.1510   29.4750   45.1940 C   0  0  0  0  0  0  0  0  0  0  0  0
   59.2570   28.9730   44.4950 C   0  0  0  0  0  0  0  0  0  0  0  0
   60.4430   28.6810   45.1760 C   0  0  0  0  0  0  0  0  0  0  0  0
   60.5330   28.8960   46.5540 C   0  0  0  0  0  0  0  0  0  0  0  0
   59.4310   29.3980   47.2640 C   0  0  0  0  0  0  0  0  0  0  0  0
   59.5410   29.6780   48.7370 C   0  0  0  0  0  0  0  0  0  0  0  0
   59.3560   31.0450   48.9800 O   0  0  0  0  0  0  0  0  0  0  0  0
   58.2440   29.6950   46.5760 C   0  0  0  0  0  0  0  0  0  0  0  0
   58.3291   31.6518   44.9150 H   0  0  0  0  0  0  0  0  0  0  0  0
   57.7034   32.9197   43.8020 H   0  0  0  0  0  0  0  0  0  0  0  0
   56.4394   33.9364   45.6936 H   0  0  0  0  0  0  0  0  0  0  0  0
   57.1305   32.6808   46.7972 H   0  0  0  0  0  0  0  0  0  0  0  0
   59.0452   34.3067   45.1390 H   0  0  0  0  0  0  0  0  0  0  0  0
   58.2087   35.0923   46.5714 H   0  0  0  0  0  0  0  0  0  0  0  0
   60.6353   32.7060   45.4671 H   0  0  0  0  0  0  0  0  0  0  0  0
   61.3711   34.1835   46.1897 H   0  0  0  0  0  0  0  0  0  0  0  0
   61.3929   31.3276   47.1695 H   0  0  0  0  0  0  0  0  0  0  0  0
   62.7280   32.5915   47.0755 H   0  0  0  0  0  0  0  0  0  0  0  0
   60.9010   30.5520   50.4710 H   0  0  0  0  0  0  0  0  0  0  0  0
   66.0202   30.3739   51.9506 H   0  0  0  0  0  0  0  0  0  0  0  0
   67.5921   32.1150   51.0521 H   0  0  0  0  0  0  0  0  0  0  0  0
   66.7524   33.8493   49.4676 H   0  0  0  0  0  0  0  0  0  0  0  0
   64.3562   33.8755   48.7555 H   0  0  0  0  0  0  0  0  0  0  0  0
   59.7508   33.0143   49.8168 H   0  0  0  0  0  0  0  0  0  0  0  0
   61.0365   34.3181   49.9391 H   0  0  0  0  0  0  0  0  0  0  0  0
   58.8682   34.8189   48.5997 H   0  0  0  0  0  0  0  0  0  0  0  0
   60.4640   35.2665   47.9103 H   0  0  0  0  0  0  0  0  0  0  0  0
   59.1922   28.8084   43.4093 H   0  0  0  0  0  0  0  0  0  0  0  0
   61.3074   28.2810   44.6256 H   0  0  0  0  0  0  0  0  0  0  0  0
   61.4704   28.6711   47.0839 H   0  0  0  0  0  0  0  0  0  0  0  0
   58.7716   29.1050   49.2752 H   0  0  0  0  0  0  0  0  0  0  0  0
   60.5406   29.3811   49.0873 H   0  0  0  0  0  0  0  0  0  0  0  0
   59.4180   31.5020   48.1010 H   0  0  0  0  0  0  0  0  0  0  0  0
   57.3817   30.1027   47.1240 H   0  0  0  0  0  0  0  0  0  0  0  0
  1  2  2  0
  2  3  2  0
  2  4  1  0
  4  5  1  0
  5  6  1  0
  6  7  1  0
  7  8  1  0
  8  9  1  0
  9 10  1  0
 10 11  1  0
 11 12  1  0
 12 13  2  0
 13 14  1  0
 14 15  1  0
 15 16  2  0
 16 17  1  0
 17 18  2  0
 18 19  1  0
 19 20  2  0
 11 21  1  0
 21 22  1  0
  2 23  1  0
 23 24  2  0
 24 25  1  0
 25 26  2  0
 26 27  1  0
 27 28  1  0
 28 29  1  0
 27 30  2  0
 22  8  1  0
 30 23  1  0
 20 12  1  0
 20 15  1  0
  5 31  1  0
  5 32  1  0
  6 33  1  0
  6 34  1  0
  7 35  1  0
  7 36  1  0
  9 37  1  0
  9 38  1  0
 10 39  1  0
 10 40  1  0
 13 41  1  0
 16 42  1  0
 17 43  1  0
 18 44  1  0
 19 45  1  0
 21 46  1  0
 21 47  1  0
 22 48  1  0
 22 49  1  0
 24 50  1  0
 25 51  1  0
 26 52  1  0
 28 53  1  0
 28 54  1  0
 29 55  1  0
 30 56  1  0
M  CHG  2   4  -1  13   1
M  END
>  <UniqueID>  (50) 
45

>  <SMILES>  (50) 
O=S(=O)([N-]CCCN1CCN(c2[nH+]sc3ccccc23)CC1)c1cccc(CO)c1

>  <Energy>  (50) 
109.9050700435711

>  <Genealogy>  (50) 
O=S(=O)([N-]CCCN1CCN(c2[nH+]sc3ccccc23)CC1)c1cccc(CO)c1 (protonated)
O=S(=O)([N-]CCCN1CCN(c2[nH+]sc3ccccc23)CC1)c1cccc(CO)c1 (3D coordinates assigned)
O=S(=O)([N-]CCCN1CCN(c2[nH+]sc3ccccc23)CC1)c1cccc(CO)c1 (nonaromatic ring conformer: 109.9050700435711 kcal/mol)

>  <smiles>  (50) 
O=S(=O)(NCCCN1CCN(c2nsc3ccccc23)CC1)c1cccc(CO)c1

>  <score_type>  (50) 
oracle

>  <origin>  (50) 
adg

>  <m_score__min__energy>  (50) 
-10.5

>  <m_primary>  (50) 
energy

$$$$
50:0
     RDKit          3D

 32 32  0  0  0  0  0  0  0  0999 V2000
   57.9660   26.7920   46.6710 C   0  0  0  0  0  0  0  0  0  0  0  0
   57.0240   27.3900   45.6320 C   0  0  0  0  0  0  0  0  0  0  0  0
   57.7750   28.1270   44.6080 N   0  0  0  0  0  0  0  0  0  0  0  0
   58.7960   27.4600   43.7900 C   0  0  0  0  0  0  0  0  0  0  0  0
   58.1490   26.7330   42.6150 C   0  0  0  0  0  0  0  0  0  0  0  0
   57.4220   29.4890   44.3310 C   0  0  0  0  0  0  0  0  0  0  0  0
   56.6340   29.8380   42.9320 S   0  0  0  0  0  0  0  0  0  0  0  0
   57.9660   30.5350   45.1530 N   0  0  0  0  0  0  0  0  0  0  0  0
   57.4400   31.8700   45.2190 C   0  0  0  0  0  0  0  0  0  0  0  0
   56.2480   32.0920   44.8710 O   0  0  0  0  0  0  0  0  0  0  0  0
   58.2670   32.9870   45.7370 C   0  0  0  0  0  0  0  0  0  0  0  0
   58.7330   34.0000   44.8790 C   0  0  0  0  0  0  0  0  0  0  0  0
   59.5070   35.0520   45.3810 C   0  0  0  0  0  0  0  0  0  0  0  0
   59.8190   35.1080   46.7400 C   0  0  0  0  0  0  0  0  0  0  0  0
   59.3530   34.1140   47.6040 C   0  0  0  0  0  0  0  0  0  0  0  0
   58.5780   33.0600   47.1080 C   0  0  0  0  0  0  0  0  0  0  0  0
   57.5959   27.0270   47.6799 H   0  0  0  0  0  0  0  0  0  0  0  0
   58.0095   25.7005   46.5414 H   0  0  0  0  0  0  0  0  0  0  0  0
   58.9722   27.2171   46.5414 H   0  0  0  0  0  0  0  0  0  0  0  0
   56.4578   26.5794   45.1500 H   0  0  0  0  0  0  0  0  0  0  0  0
   56.3401   28.0879   46.1373 H   0  0  0  0  0  0  0  0  0  0  0  0
   59.5007   28.2125   43.4063 H   0  0  0  0  0  0  0  0  0  0  0  0
   59.3272   26.7257   44.4135 H   0  0  0  0  0  0  0  0  0  0  0  0
   57.4625   25.9616   42.9942 H   0  0  0  0  0  0  0  0  0  0  0  0
   57.5881   27.4537   42.0018 H   0  0  0  0  0  0  0  0  0  0  0  0
   58.9299   26.2595   42.0018 H   0  0  0  0  0  0  0  0  0  0  0  0
   58.7430   30.2750   45.8010 H   0  0  0  0  0  0  0  0  0  0  0  0
   58.4874   33.9648   43.8073 H   0  0  0  0  0  0  0  0  0  0  0  0
   59.8707   35.8374   44.7022 H   0  0  0  0  0  0  0  0  0  0  0  0
   60.4313   35.9341   47.1306 H   0  0  0  0  0  0  0  0  0  0  0  0
   59.5958   34.1601   48.6759 H   0  0  0  0  0  0  0  0  0  0  0  0
   58.2092   32.2832   47.7940 H   0  0  0  0  0  0  0  0  0  0  0  0
  1  2  1  0
  2  3  1  0
  3  4  1  0
  4  5  1  0
  3  6  1  0
  6  7  2  0
  6  8  1  0
  8  9  1  0
  9 10  2  0
  9 11  1  0
 11 12  2  0
 12 13  1  0
 13 14  2  0
 14 15  1  0
 15 16  2  0
 16 11  1  0
  1 17  1  0
  1 18  1  0
  1 19  1  0
  2 20  1  0
  2 21  1  0
  4 22  1  0
  4 23  1  0
  5 24  1  0
  5 25  1  0
  5 26  1  0
  8 27  1  0
 12 28  1  0
 13 29  1  0
 14 30  1  0
 15 31  1  0
 16 32  1  0
M  END
>  <UniqueID>  (51) 
46

>  <SMILES>  (51) 
CCN(CC)C(=S)NC(=O)c1ccccc1

>  <Energy>  (51) 
32.43032668511907

>  <Genealogy>  (51) 
CCN(CC)C(=S)NC(=O)c1ccccc1 (3D coordinates assigned)
CCN(CC)C(=S)NC(=O)c1ccccc1 (optimized conformer: 32.43032668511907 kcal/mol)

>  <smiles>  (51) 
CCN(CC)C(=S)NC(=O)c1ccccc1

>  <score_type>  (51) 
oracle

>  <origin>  (51) 
adg

>  <m_score__min__energy>  (51) 
-6.1299999999999999

>  <m_primary>  (51) 
energy

$$$$
51:0
     RDKit          3D

 40 42  0  0  1  0  0  0  0  0999 V2000
   56.9970   29.3290   42.8620 N   0  0  0  0  0  0  0  0  0  0  0  0
   56.4390   30.0180   44.3290 S   0  0  0  0  0  0  0  0  0  0  0  0
   55.0290   30.4930   44.1300 O   0  0  0  0  0  0  0  0  0  0  0  0
   56.4560   28.9420   45.3990 O   0  0  0  0  0  0  0  0  0  0  0  0
   57.4630   31.3420   44.8400 C   0  0  0  0  0  0  0  0  0  0  0  0
   57.7350   32.3340   43.9300 C   0  0  0  0  0  0  0  0  0  0  0  0
   58.5280   33.4070   44.2470 C   0  0  0  0  0  0  0  0  0  0  0  0
   58.6410   26.9210   46.6500 C   0  0  0  0  0  0  0  0  0  0  0  0
   59.6660   27.8670   46.7600 C   0  0  0  0  0  0  0  0  0  0  0  0
   59.3810   32.6310   47.7500 N   0  0  0  0  0  0  0  0  0  0  0  0
   59.6090   31.5670   48.4560 C   0  0  0  0  0  0  0  0  0  0  0  0
   59.7760   30.3510   47.8670 N   0  0  0  0  0  0  0  0  0  0  0  0
   60.0130   29.2710   48.6580 C   0  0  0  0  0  0  0  0  0  0  0  0
   60.1640   28.1510   48.0630 N   0  0  0  0  0  0  0  0  0  0  0  0
   58.7890   32.4760   46.4580 C   0  0  0  0  0  0  0  0  0  0  0  0
   60.1620   28.4930   45.6200 C   0  0  0  0  0  0  0  0  0  0  0  0
   58.1190   26.6050   45.4100 C   0  0  0  0  0  0  0  0  0  0  0  0
   58.6060   27.2240   44.2590 C   0  0  0  0  0  0  0  0  0  0  0  0
   58.0700   26.8970   43.0020 O   0  0  0  0  0  0  0  0  0  0  0  0
   59.6310   28.1690   44.3750 C   0  0  0  0  0  0  0  0  0  0  0  0
   59.0470   33.4590   45.5240 C   0  0  0  0  0  0  0  0  0  0  0  0
   60.0920   29.3300   49.9810 N   0  0  0  0  0  0  0  0  0  0  0  0
   59.9320   30.5180   50.6090 C   0  0  0  0  0  0  0  0  0  0  0  0
   59.6870   31.6540   49.8280 C   0  0  0  0  0  0  0  0  0  0  0  0
   59.4710   33.2230   50.5970 Cl  0  0  0  0  0  0  0  0  0  0  0  0
   57.9960   31.4170   46.1150 C   0  0  0  0  0  0  0  0  0  0  0  0
   58.0100   29.0980   42.9650 H   0  0  0  0  0  0  0  0  0  0  0  0
   56.5120   28.3970   42.7000 H   0  0  0  0  0  0  0  0  0  0  0  0
   57.3052   32.2660   42.9197 H   0  0  0  0  0  0  0  0  0  0  0  0
   58.7420   34.1961   43.5111 H   0  0  0  0  0  0  0  0  0  0  0  0
   58.2499   26.4279   47.5522 H   0  0  0  0  0  0  0  0  0  0  0  0
   59.7190   30.2830   46.8420 H   0  0  0  0  0  0  0  0  0  0  0  0
   60.9672   29.2378   45.7025 H   0  0  0  0  0  0  0  0  0  0  0  0
   57.3137   25.8600   45.3303 H   0  0  0  0  0  0  0  0  0  0  0  0
   57.0820   27.1580   42.8610 H   0  0  0  0  0  0  0  0  0  0  0  0
   60.0216   28.6614   43.4722 H   0  0  0  0  0  0  0  0  0  0  0  0
   59.6854   34.3091   45.8064 H   0  0  0  0  0  0  0  0  0  0  0  0
   60.2760   28.4640   50.5230 H   0  0  0  0  0  0  0  0  0  0  0  0
   59.9929   30.5894   51.7050 H   0  0  0  0  0  0  0  0  0  0  0  0
   57.7821   30.6269   46.8499 H   0  0  0  0  0  0  0  0  0  0  0  0
  1  2  1  0
  2  3  2  0
  2  4  2  0
  2  5  1  0
  5  6  2  0
  6  7  1  0
  7  8  2  0
  8  9  1  0
  9 10  1  0
 10 11  2  0
 11 12  1  0
 12 13  1  0
 13 14  2  0
 14 15  1  0
 15 16  2  0
 16 17  1  0
 17 18  2  0
 18 19  1  0
 18 20  1  0
 20 21  2  0
 13 22  1  0
 22 23  1  0
 23 24  2  0
 24 25  1  0
  9 26  2  0
 26  5  1  0
 24 11  1  0
 21 15  1  0
  1 27  1  0
  1 28  1  0
  6 29  1  0
  7 30  1  0
  8 31  1  0
 12 32  1  0
 16 33  1  0
 17 34  1  0
 19 35  1  0
 20 36  1  0
 21 37  1  0
 22 38  1  0
 23 39  1  0
 26 40  1  0
M  END
>  <smiles>  (52) 
NS(=O)(=O)c1cccc(N=c2[nH]c(=Nc3ccc(O)cc3)[nH]cc2Cl)c1

>  <score_type>  (52) 
oracle

>  <origin>  (52) 
adg

>  <m_score__min__energy>  (52) 
-9.3300000000000001

>  <m_primary>  (52) 
energy

$$$$
52:0
     RDKit          3D

 41 44  0  0  0  0  0  0  0  0999 V2000
   57.8770   28.1700   46.0150 O   0  0  0  0  0  0  0  0  0  0  0  0
   56.6800   28.2120   45.6250 C   0  0  0  0  0  0  0  0  0  0  0  0
   56.1420   29.4670   45.1940 N   0  0  0  0  0  0  0  0  0  0  0  0
   56.7530   30.3690   44.2590 C   0  0  0  0  0  0  0  0  0  0  0  0
   56.3560   30.3890   42.9100 C   0  0  0  0  0  0  0  0  0  0  0  0
   56.9750   31.2520   42.0030 C   0  0  0  0  0  0  0  0  0  0  0  0
   58.0090   32.0860   42.4270 C   0  0  0  0  0  0  0  0  0  0  0  0
   58.4320   32.0560   43.7580 C   0  0  0  0  0  0  0  0  0  0  0  0
   57.8050   31.2040   44.6870 C   0  0  0  0  0  0  0  0  0  0  0  0
   58.2610   31.1470   46.0490 N   0  0  0  0  0  0  0  0  0  0  0  0
   59.0380   32.1780   46.6860 C   0  0  0  0  0  0  0  0  0  0  0  0
   58.4780   33.4350   46.9880 C   0  0  0  0  0  0  0  0  0  0  0  0
   59.2460   34.4110   47.6290 C   0  0  0  0  0  0  0  0  0  0  0  0
   60.5680   34.1410   47.9880 C   0  0  0  0  0  0  0  0  0  0  0  0
   61.1250   32.8890   47.7110 C   0  0  0  0  0  0  0  0  0  0  0  0
   62.4070   32.6230   48.0670 F   0  0  0  0  0  0  0  0  0  0  0  0
   60.3620   31.9090   47.0680 C   0  0  0  0  0  0  0  0  0  0  0  0
   55.8640   27.0270   45.6430 N   0  0  0  0  0  0  0  0  0  0  0  0
   56.3340   25.7300   46.0430 C   0  0  0  0  0  0  0  0  0  0  0  0
   57.0440   25.5430   47.2620 C   0  0  0  0  0  0  0  0  0  0  0  0
   57.4750   24.2610   47.6510 C   0  0  0  0  0  0  0  0  0  0  0  0
   57.1700   23.1940   46.8130 C   0  0  0  0  0  0  0  0  0  0  0  0
   57.4720   21.9000   46.9890 N   0  0  0  0  0  0  0  0  0  0  0  0
   56.9270   21.3170   45.8880 C   0  0  0  0  0  0  0  0  0  0  0  0
   56.3030   22.1800   45.0460 N   0  0  0  0  0  0  0  0  0  0  0  0
   56.4740   23.3610   45.6580 C   0  0  0  0  0  0  0  0  0  0  0  0
   56.0290   24.6110   45.2390 C   0  0  0  0  0  0  0  0  0  0  0  0
   55.5526   29.7205   42.5669 H   0  0  0  0  0  0  0  0  0  0  0  0
   56.6466   31.2738   40.9534 H   0  0  0  0  0  0  0  0  0  0  0  0
   58.4923   32.7685   41.7124 H   0  0  0  0  0  0  0  0  0  0  0  0
   59.2607   32.7025   44.0825 H   0  0  0  0  0  0  0  0  0  0  0  0
   58.0260   30.2980   46.6110 H   0  0  0  0  0  0  0  0  0  0  0  0
   57.4332   33.6489   46.7185 H   0  0  0  0  0  0  0  0  0  0  0  0
   58.8075   35.3950   47.8514 H   0  0  0  0  0  0  0  0  0  0  0  0
   61.1709   34.9130   48.4885 H   0  0  0  0  0  0  0  0  0  0  0  0
   60.8015   30.9222   46.8605 H   0  0  0  0  0  0  0  0  0  0  0  0
   54.8860   27.0890   45.2800 H   0  0  0  0  0  0  0  0  0  0  0  0
   57.2579   26.4086   47.9062 H   0  0  0  0  0  0  0  0  0  0  0  0
   58.0340   24.1082   48.5860 H   0  0  0  0  0  0  0  0  0  0  0  0
   56.9868   20.2356   45.6955 H   0  0  0  0  0  0  0  0  0  0  0  0
   55.4555   24.7238   44.3071 H   0  0  0  0  0  0  0  0  0  0  0  0
  1  2  2  0
  2  3  1  0
  3  4  1  0
  4  5  2  0
  5  6  1  0
  6  7  2  0
  7  8  1  0
  8  9  2  0
  9 10  1  0
 10 11  1  0
 11 12  2  0
 12 13  1  0
 13 14  2  0
 14 15  1  0
 15 16  1  0
 15 17  2  0
  2 18  1  0
 18 19  1  0
 19 20  2  0
 20 21  1  0
 21 22  2  0
 22 23  1  0
 23 24  1  0
 24 25  2  0
 25 26  1  0
 26 27  2  0
  9  4  1  0
 17 11  1  0
 27 19  1  0
 26 22  1  0
  5 28  1  0
  6 29  1  0
  7 30  1  0
  8 31  1  0
 10 32  1  0
 12 33  1  0
 13 34  1  0
 14 35  1  0
 17 36  1  0
 18 37  1  0
 20 38  1  0
 21 39  1  0
 24 40  1  0
 27 41  1  0
M  CHG  2   3  -1  23  -1
M  END
>  <UniqueID>  (53) 
47

>  <SMILES>  (53) 
O=C([N-]c1ccccc1Nc1cccc(F)c1)Nc1ccc2[n-]cnc2c1

>  <Energy>  (53) 
95.07884653119157

>  <Genealogy>  (53) 
O=C([N-]c1ccccc1Nc1cccc(F)c1)Nc1ccc2[n-]cnc2c1 (protonated)
O=C([N-]c1ccccc1Nc1cccc(F)c1)Nc1ccc2[n-]cnc2c1 (3D coordinates assigned)
O=C([N-]c1ccccc1Nc1cccc(F)c1)Nc1ccc2[n-]cnc2c1 (optimized conformer: 95.07884653119157 kcal/mol)

>  <smiles>  (53) 
O=C(Nc1ccc2[nH]cnc2c1)Nc1ccccc1Nc1cccc(F)c1

>  <score_type>  (53) 
oracle

>  <origin>  (53) 
adg

>  <m_score__min__energy>  (53) 
-11.08

>  <m_primary>  (53) 
energy

$$$$
53:0
     RDKit          3D

 27 28  0  0  0  0  0  0  0  0999 V2000
   56.5650   21.4090   46.6470 C   0  0  0  0  0  0  0  0  0  0  0  0
   57.4920   20.5000   45.8370 C   0  0  0  0  0  0  0  0  0  0  0  0
   57.9420   21.1430   44.5840 N   0  0  1  0  0  0  0  0  0  0  0  0
   56.8570   21.3230   43.6540 C   0  0  0  0  0  0  0  0  0  0  0  0
   56.2800   20.3750   43.0560 O   0  0  0  0  0  0  0  0  0  0  0  0
   56.5780   22.7210   43.4240 C   0  0  0  0  0  0  0  0  0  0  0  0
   55.7120   23.1860   42.6350 O   0  0  0  0  0  0  0  0  0  0  0  0
   57.4950   23.4970   44.1690 N   0  0  0  0  0  0  0  0  0  0  0  0
   57.6130   24.9300   44.2050 C   0  0  0  0  0  0  0  0  0  0  0  0
   57.5690   25.6140   45.4320 C   0  0  0  0  0  0  0  0  0  0  0  0
   57.6830   27.0070   45.4700 C   0  0  0  0  0  0  0  0  0  0  0  0
   57.8380   27.7300   44.2830 C   0  0  0  0  0  0  0  0  0  0  0  0
   57.9790   29.4780   44.3320 Cl  0  0  0  0  0  0  0  0  0  0  0  0
   57.8800   27.0590   43.0580 C   0  0  0  0  0  0  0  0  0  0  0  0
   57.7680   25.6660   43.0170 C   0  0  0  0  0  0  0  0  0  0  0  0
   58.3090   22.5210   44.8320 C   0  0  0  0  0  0  0  0  0  0  0  0
   59.2730   22.8360   45.5810 O   0  0  0  0  0  0  0  0  0  0  0  0
   56.7348   21.2425   47.7210 H   0  0  0  0  0  0  0  0  0  0  0  0
   56.7757   22.4603   46.4011 H   0  0  0  0  0  0  0  0  0  0  0  0
   55.5181   21.1777   46.4011 H   0  0  0  0  0  0  0  0  0  0  0  0
   58.3738   20.2570   46.4480 H   0  0  0  0  0  0  0  0  0  0  0  0
   56.9302   19.5926   45.5705 H   0  0  0  0  0  0  0  0  0  0  0  0
   58.7410   20.6370   44.1340 H   0  0  0  0  0  0  0  0  0  0  0  0
   57.4441   25.0500   46.3681 H   0  0  0  0  0  0  0  0  0  0  0  0
   57.6507   27.5348   46.4346 H   0  0  0  0  0  0  0  0  0  0  0  0
   58.0014   27.6278   42.1243 H   0  0  0  0  0  0  0  0  0  0  0  0
   57.8013   25.1429   42.0499 H   0  0  0  0  0  0  0  0  0  0  0  0
  1  2  1  0
  2  3  1  0
  3  4  1  0
  4  5  2  0
  4  6  1  0
  6  7  2  0
  6  8  1  0
  8  9  1  0
  9 10  2  0
 10 11  1  0
 11 12  2  0
 12 13  1  0
 12 14  1  0
 14 15  2  0
  8 16  1  0
 16 17  2  0
 16  3  1  0
 15  9  1  0
  1 18  1  0
  1 19  1  0
  1 20  1  0
  2 21  1  0
  2 22  1  0
  3 23  1  6
 10 24  1  0
 11 25  1  0
 14 26  1  0
 15 27  1  0
M  CHG  1   3   1
M  END
>  <UniqueID>  (54) 
48

>  <SMILES>  (54) 
CC[N@H+]1C(=O)C(=O)N(c2ccc(Cl)cc2)C1=O

>  <Energy>  (54) 
53.8870989785206

>  <Genealogy>  (54) 
CC[NH+]1C(=O)C(=O)N(c2ccc(Cl)cc2)C1=O (protonated)
CC[N@H+]1C(=O)C(=O)N(c2ccc(Cl)cc2)C1=O (chirality)
CC[N@H+]1C(=O)C(=O)N(c2ccc(Cl)cc2)C1=O (3D coordinates assigned)
CC[N@H+]1C(=O)C(=O)N(c2ccc(Cl)cc2)C1=O (nonaromatic ring conformer: 53.8870989785206 kcal/mol)

>  <smiles>  (54) 
CCN1C(=O)C(=O)N(c2ccc(Cl)cc2)C1=O

>  <score_type>  (54) 
oracle

>  <origin>  (54) 
adg

>  <m_score__min__energy>  (54) 
-4.96

>  <m_primary>  (54) 
energy

$$$$
54:0
     RDKit          3D

 48 51  0  0  0  0  0  0  0  0999 V2000
   64.1180   33.6660   47.4880 N   0  0  0  0  0  0  0  0  0  0  0  0
   63.1950   32.7740   47.3010 C   0  0  0  0  0  0  0  0  0  0  0  0
   63.5610   31.4670   46.8370 N   0  0  0  0  0  0  0  0  0  0  0  0
   61.7770   33.1120   47.5900 C   0  0  0  0  0  0  0  0  0  0  0  0
   61.3180   33.1730   48.9200 C   0  0  0  0  0  0  0  0  0  0  0  0
   59.9860   33.4880   49.1960 C   0  0  0  0  0  0  0  0  0  0  0  0
   59.0940   33.7480   48.1520 C   0  0  0  0  0  0  0  0  0  0  0  0
   59.5360   33.7030   46.8240 C   0  0  0  0  0  0  0  0  0  0  0  0
   58.4390   34.0630   45.4930 S   0  0  0  0  0  0  0  0  0  0  0  0
   57.0490   34.2210   46.0430 O   0  0  0  0  0  0  0  0  0  0  0  0
   58.8280   35.3370   44.7950 O   0  0  0  0  0  0  0  0  0  0  0  0
   58.4550   32.7520   44.3580 N   0  0  0  0  0  0  0  0  0  0  0  0
   58.1210   31.3920   44.6640 C   0  0  0  0  0  0  0  0  0  0  0  0
   58.9830   30.6580   45.4860 C   0  0  0  0  0  0  0  0  0  0  0  0
   58.6980   29.3290   45.8110 C   0  0  0  0  0  0  0  0  0  0  0  0
   57.5350   28.7060   45.3200 C   0  0  0  0  0  0  0  0  0  0  0  0
   57.1980   27.3000   45.6670 C   0  0  0  0  0  0  0  0  0  0  0  0
   58.1330   26.3330   46.0520 C   0  0  0  0  0  0  0  0  0  0  0  0
   57.3120   24.8910   46.3440 S   0  0  0  0  0  0  0  0  0  0  0  0
   55.8150   25.5520   45.9810 C   0  0  0  0  0  0  0  0  0  0  0  0
   54.7070   24.8730   45.9930 N   0  0  0  0  0  0  0  0  0  0  0  0
   54.4980   23.5790   46.5880 C   0  0  0  0  0  0  0  0  0  0  0  0
   55.1500   23.1900   47.7750 C   0  0  0  0  0  0  0  0  0  0  0  0
   54.9430   21.9120   48.3080 C   0  0  0  0  0  0  0  0  0  0  0  0
   55.7480   21.4410   49.7930 Cl  0  0  0  0  0  0  0  0  0  0  0  0
   54.1080   21.0060   47.6490 C   0  0  0  0  0  0  0  0  0  0  0  0
   53.4850   21.3730   46.4550 C   0  0  0  0  0  0  0  0  0  0  0  0
   53.6820   22.6510   45.9210 C   0  0  0  0  0  0  0  0  0  0  0  0
   53.0570   23.0000   44.7280 O   0  0  0  0  0  0  0  0  0  0  0  0
   55.9120   26.8500   45.6200 N   0  0  0  0  0  0  0  0  0  0  0  0
   56.6670   29.4500   44.5010 C   0  0  0  0  0  0  0  0  0  0  0  0
   56.9570   30.7780   44.1730 C   0  0  0  0  0  0  0  0  0  0  0  0
   60.8740   33.3910   46.5470 C   0  0  0  0  0  0  0  0  0  0  0  0
   65.1330   33.4330   47.4090 H   0  0  0  0  0  0  0  0  0  0  0  0
   64.5510   31.2510   46.5870 H   0  0  0  0  0  0  0  0  0  0  0  0
   62.8730   30.6840   46.8060 H   0  0  0  0  0  0  0  0  0  0  0  0
   62.0140   32.9710   49.7475 H   0  0  0  0  0  0  0  0  0  0  0  0
   59.6376   33.5317   50.2385 H   0  0  0  0  0  0  0  0  0  0  0  0
   58.0437   33.9882   48.3737 H   0  0  0  0  0  0  0  0  0  0  0  0
   59.8941   31.1317   45.8804 H   0  0  0  0  0  0  0  0  0  0  0  0
   59.3881   28.7651   46.4558 H   0  0  0  0  0  0  0  0  0  0  0  0
   59.2179   26.4876   46.1476 H   0  0  0  0  0  0  0  0  0  0  0  0
   55.8245   23.8934   48.2851 H   0  0  0  0  0  0  0  0  0  0  0  0
   53.9417   20.0039   48.0710 H   0  0  0  0  0  0  0  0  0  0  0  0
   52.8367   20.6546   45.9319 H   0  0  0  0  0  0  0  0  0  0  0  0
   55.7497   28.9821   44.1141 H   0  0  0  0  0  0  0  0  0  0  0  0
   56.2701   31.3447   43.5272 H   0  0  0  0  0  0  0  0  0  0  0  0
   61.2220   33.3639   45.5038 H   0  0  0  0  0  0  0  0  0  0  0  0
  1  2  2  3
  2  3  1  0
  2  4  1  0
  4  5  2  0
  5  6  1  0
  6  7  2  0
  7  8  1  0
  8  9  1  0
  9 10  2  0
  9 11  2  0
  9 12  1  0
 12 13  1  0
 13 14  2  0
 14 15  1  0
 15 16  2  0
 16 17  1  0
 17 18  2  0
 18 19  1  0
 19 20  1  0
 20 21  2  3
 21 22  1  0
 22 23  2  0
 23 24  1  0
 24 25  1  0
 24 26  2  0
 26 27  1  0
 27 28  2  0
 28 29  1  0
 20 30  1  0
 16 31  1  0
 31 32  2  0
  8 33  2  0
 33  4  1  0
 32 13  1  0
 30 17  1  0
 28 22  1  0
  1 34  1  0
  3 35  1  0
  3 36  1  0
  5 37  1  0
  6 38  1  0
  7 39  1  0
 14 40  1  0
 15 41  1  0
 18 42  1  0
 23 43  1  0
 26 44  1  0
 27 45  1  0
 31 46  1  0
 32 47  1  0
 33 48  1  0
M  CHG  3  12  -1  29  -1  30  -1
M  END
>  <UniqueID>  (55) 
49

>  <SMILES>  (55) 
N=C(N)c1cccc(S(=O)(=O)[N-]c2ccc(-c3csc(=Nc4cc(Cl)ccc4[O-])[n-]3)cc2)c1

>  <Energy>  (55) 
95.37168036683853

>  <Genealogy>  (55) 
N=C(N)c1cccc(S(=O)(=O)[N-]c2ccc(-c3csc(=Nc4cc(Cl)ccc4[O-])[n-]3)cc2)c1 (protonated)
N=C(N)c1cccc(S(=O)(=O)[N-]c2ccc(-c3csc(=Nc4cc(Cl)ccc4[O-])[n-]3)cc2)c1 (3D coordinates assigned)
N=C(N)c1cccc(S(=O)(=O)[N-]c2ccc(-c3csc(=Nc4cc(Cl)ccc4[O-])[n-]3)cc2)c1 (optimized conformer: 95.37168036683853 kcal/mol)

>  <smiles>  (55) 
N=C(N)c1cccc(S(=O)(=O)Nc2ccc(-c3csc(=Nc4cc(Cl)ccc4O)[nH]3)cc2)c1

>  <score_type>  (55) 
oracle

>  <origin>  (55) 
adg

>  <m_score__min__energy>  (55) 
-15.859999999999999

>  <m_primary>  (55) 
energy

$$$$
55:0
     RDKit          3D

 33 35  0  0  0  0  0  0  0  0999 V2000
   56.9840   25.2530   47.6250 O   0  0  0  0  0  0  0  0  0  0  0  0
   56.7360   26.1010   46.7260 C   0  0  0  0  0  0  0  0  0  0  0  0
   57.7740   27.1090   46.3540 C   0  0  0  0  0  0  0  0  0  0  0  0
   57.7800   27.3790   44.5480 S   0  0  0  0  0  0  0  0  0  0  0  0
   57.1790   29.0730   44.6440 C   0  0  0  0  0  0  0  0  0  0  0  0
   55.9160   29.3970   44.3110 N   0  0  0  0  0  0  0  0  0  0  0  0
   55.8300   30.7050   44.4940 N   0  0  0  0  0  0  0  0  0  0  0  0
   56.9930   31.1760   44.9140 N   0  0  0  0  0  0  0  0  0  0  0  0
   57.8630   30.1860   45.0210 N   0  0  0  0  0  0  0  0  0  0  0  0
   59.2620   30.4510   45.4020 C   0  0  0  0  0  0  0  0  0  0  0  0
   59.8080   29.7560   46.6370 C   0  0  0  0  0  0  0  0  0  0  0  0
   60.2200   29.2830   45.2440 C   0  0  0  0  0  0  0  0  0  0  0  0
   55.4950   26.0650   46.0090 N   0  0  0  0  0  0  0  0  0  0  0  0
   54.8810   24.8880   45.4700 C   0  0  0  0  0  0  0  0  0  0  0  0
   53.6370   24.7450   45.6000 O   0  0  0  0  0  0  0  0  0  0  0  0
   55.6660   23.8220   44.8030 C   0  0  0  0  0  0  0  0  0  0  0  0
   55.6180   23.6820   43.4050 C   0  0  0  0  0  0  0  0  0  0  0  0
   56.3410   22.6660   42.7710 C   0  0  0  0  0  0  0  0  0  0  0  0
   57.1050   21.7740   43.5280 C   0  0  0  0  0  0  0  0  0  0  0  0
   57.1450   21.8930   44.9190 C   0  0  0  0  0  0  0  0  0  0  0  0
   56.4240   22.9080   45.5570 C   0  0  0  0  0  0  0  0  0  0  0  0
   57.5546   28.0597   46.8620 H   0  0  0  0  0  0  0  0  0  0  0  0
   58.7615   26.7350   46.6623 H   0  0  0  0  0  0  0  0  0  0  0  0
   59.2314   31.4981   45.0664 H   0  0  0  0  0  0  0  0  0  0  0  0
   60.5361   30.2703   47.2815 H   0  0  0  0  0  0  0  0  0  0  0  0
   59.3634   29.2777   47.5222 H   0  0  0  0  0  0  0  0  0  0  0  0
   61.2450   29.4564   44.8845 H   0  0  0  0  0  0  0  0  0  0  0  0
   60.1956   28.3224   44.7086 H   0  0  0  0  0  0  0  0  0  0  0  0
   55.0086   24.3751   42.8064 H   0  0  0  0  0  0  0  0  0  0  0  0
   56.3080   22.5692   41.6758 H   0  0  0  0  0  0  0  0  0  0  0  0
   57.6754   20.9774   43.0280 H   0  0  0  0  0  0  0  0  0  0  0  0
   57.7442   21.1877   45.5136 H   0  0  0  0  0  0  0  0  0  0  0  0
   56.4500   22.9917   46.6535 H   0  0  0  0  0  0  0  0  0  0  0  0
  1  2  2  0
  2  3  1  0
  3  4  1  0
  4  5  1  0
  5  6  2  0
  6  7  1  0
  7  8  2  0
  8  9  1  0
  9 10  1  0
 10 11  1  0
 11 12  1  0
  2 13  1  0
 13 14  1  0
 14 15  2  0
 14 16  1  0
 16 17  2  0
 17 18  1  0
 18 19  2  0
 19 20  1  0
 20 21  2  0
  9  5  1  0
 12 10  1  0
 21 16  1  0
  3 22  1  0
  3 23  1  0
 10 24  1  0
 11 25  1  0
 11 26  1  0
 12 27  1  0
 12 28  1  0
 17 29  1  0
 18 30  1  0
 19 31  1  0
 20 32  1  0
 21 33  1  0
M  CHG  1  13  -1
M  END
>  <UniqueID>  (56) 
50

>  <SMILES>  (56) 
O=C(CSc1nnnn1C1CC1)[N-]C(=O)c1ccccc1

>  <Energy>  (56) 
347.98345212191765

>  <Genealogy>  (56) 
O=C(CSc1nnnn1C1CC1)[N-]C(=O)c1ccccc1 (protonated)
O=C(CSc1nnnn1C1CC1)[N-]C(=O)c1ccccc1 (3D coordinates assigned)
O=C(CSc1nnnn1C1CC1)[N-]C(=O)c1ccccc1 (nonaromatic ring conformer: 347.98345212191765 kcal/mol)

>  <smiles>  (56) 
O=C(CSc1nnnn1C1CC1)NC(=O)c1ccccc1

>  <score_type>  (56) 
oracle

>  <origin>  (56) 
adg

>  <m_score__min__energy>  (56) 
-10.27

>  <m_primary>  (56) 
energy

$$$$
56:0
     RDKit          3D

 40 41  0  0  0  0  0  0  0  0999 V2000
   59.3552   32.6004   43.8902 H   0  0  0  0  0  0  0  0  0  0  0  0
   58.5270   32.6120   44.6140 C   0  0  0  0  0  0  0  0  0  0  0  0
   58.2860   33.7670   45.2650 C   0  0  0  0  0  0  0  0  0  0  0  0
   57.1730   34.5800   44.8360 C   0  0  0  0  0  0  0  0  0  0  0  0
   56.2810   35.2330   44.4940 N   0  0  0  0  0  0  0  0  0  0  0  0
   59.1260   34.2770   46.3710 C   0  0  0  0  0  0  0  0  0  0  0  0
   59.4960   35.4840   46.3560 O   0  0  0  0  0  0  0  0  0  0  0  0
   59.5630   33.4070   47.4270 N   0  0  0  0  0  0  0  0  0  0  0  0
   59.3810   32.3840   47.3340 H   0  0  0  0  0  0  0  0  0  0  0  0
   60.2250   33.9200   48.6330 C   0  0  2  0  0  0  0  0  0  0  0  0
   60.1041   35.0133   48.6397 H   0  0  0  0  0  0  0  0  0  0  0  0
   61.7160   33.6390   48.6110 C   0  0  0  0  0  0  0  0  0  0  0  0
   62.4440   33.6510   49.8130 C   0  0  0  0  0  0  0  0  0  0  0  0
   61.9345   33.8909   50.7579 H   0  0  0  0  0  0  0  0  0  0  0  0
   63.8120   33.3600   49.8160 C   0  0  0  0  0  0  0  0  0  0  0  0
   64.3755   33.3791   50.7605 H   0  0  0  0  0  0  0  0  0  0  0  0
   64.4640   33.0450   48.6210 C   0  0  0  0  0  0  0  0  0  0  0  0
   65.5405   32.8191   48.6248 H   0  0  0  0  0  0  0  0  0  0  0  0
   63.7490   33.0170   47.4220 C   0  0  0  0  0  0  0  0  0  0  0  0
   64.2628   32.7645   46.4827 H   0  0  0  0  0  0  0  0  0  0  0  0
   62.3820   33.3090   47.4120 C   0  0  0  0  0  0  0  0  0  0  0  0
   61.8231   33.2813   46.4650 H   0  0  0  0  0  0  0  0  0  0  0  0
   59.5540   33.3800   49.9170 C   0  0  0  0  0  0  0  0  0  0  0  0
   59.0357   34.2151   50.4109 H   0  0  0  0  0  0  0  0  0  0  0  0
   60.3575   32.9482   50.5317 H   0  0  0  0  0  0  0  0  0  0  0  0
   58.5380   32.2600   49.6800 C   0  0  0  0  0  0  0  0  0  0  0  0
   58.1867   31.8728   50.6478 H   0  0  0  0  0  0  0  0  0  0  0  0
   57.6833   32.6546   49.1109 H   0  0  0  0  0  0  0  0  0  0  0  0
   59.0138   31.4477   49.1109 H   0  0  0  0  0  0  0  0  0  0  0  0
   57.7630   31.3580   44.7980 C   0  0  0  0  0  0  0  0  0  0  0  0
   56.6140   31.1360   44.0240 C   0  0  0  0  0  0  0  0  0  0  0  0
   56.2950   31.8903   43.2896 H   0  0  0  0  0  0  0  0  0  0  0  0
   55.8720   29.9610   44.1810 C   0  0  0  0  0  0  0  0  0  0  0  0
   54.9816   29.7857   43.5593 H   0  0  0  0  0  0  0  0  0  0  0  0
   56.2620   29.0080   45.1290 C   0  0  0  0  0  0  0  0  0  0  0  0
   55.5260   27.8390   45.2830 O   0  0  0  0  0  0  0  0  0  0  0  0
   57.3890   29.2340   45.9240 C   0  0  0  0  0  0  0  0  0  0  0  0
   57.6914   28.4872   46.6729 H   0  0  0  0  0  0  0  0  0  0  0  0
   58.1330   30.4080   45.7690 C   0  0  0  0  0  0  0  0  0  0  0  0
   59.0100   30.5897   46.4077 H   0  0  0  0  0  0  0  0  0  0  0  0
  1  2  1  0
  2  3  2  0
  3  4  1  0
  4  5  3  0
  3  6  1  0
  6  7  2  0
  6  8  1  0
  8  9  1  0
  8 10  1  0
 10 11  1  1
 10 12  1  0
 12 13  2  0
 13 14  1  0
 13 15  1  0
 15 16  1  0
 15 17  2  0
 17 18  1  0
 17 19  1  0
 19 20  1  0
 19 21  2  0
 21 22  1  0
 10 23  1  0
 23 24  1  0
 23 25  1  0
 23 26  1  0
 26 27  1  0
 26 28  1  0
 26 29  1  0
  2 30  1  0
 30 31  2  0
 31 32  1  0
 31 33  1  0
 33 34  1  0
 33 35  2  0
 35 36  1  0
 35 37  1  0
 37 38  1  0
 37 39  2  0
 39 40  1  0
 21 12  1  0
 39 30  1  0
M  CHG  1  36  -1
M  END
>  <UniqueID>  (57) 
51

>  <SMILES>  (57) 
CC[C@H](NC(=O)/C(C#N)=C\c1ccc([O-])cc1)c1ccccc1

>  <Energy>  (57) 
44.03179535540498

>  <Genealogy>  (57) 
CCC(NC(=O)C(C#N)=Cc1ccc([O-])cc1)c1ccccc1 (protonated)
CC[C@H](NC(=O)C(C#N)=Cc1ccc([O-])cc1)c1ccccc1 (chirality)
CC[C@H](NC(=O)/C(C#N)=C\c1ccc([O-])cc1)c1ccccc1 (cis-trans isomerization)
CC[C@H](NC(=O)/C(C#N)=C\c1ccc([O-])cc1)c1ccccc1 (3D coordinates assigned)
CC[C@H](NC(=O)/C(C#N)=C\c1ccc([O-])cc1)c1ccccc1 (optimized conformer: 44.03179535540498 kcal/mol)

>  <smiles>  (57) 
CCC(NC(=O)C(C#N)=Cc1ccc(O)cc1)c1ccccc1

>  <score_type>  (57) 
oracle

>  <origin>  (57) 
adg

>  <m_score__min__energy>  (57) 
-10.48

>  <m_primary>  (57) 
energy

$$$$
57:0
     RDKit          3D

 40 42  0  0  1  0  0  0  0  0999 V2000
   57.4020   31.9890   42.6610 C   0  0  0  0  0  0  0  0  0  0  0  0
   57.6320   31.0800   44.1470 S   0  0  0  0  0  0  0  0  0  0  0  0
   56.2810   30.4790   44.5020 O   0  0  0  0  0  0  0  0  0  0  0  0
   58.5700   29.9590   43.9020 O   0  0  0  0  0  0  0  0  0  0  0  0
   58.2500   32.0440   45.4690 C   0  0  0  0  0  0  0  0  0  0  0  0
   57.6800   33.2820   45.7850 C   0  0  0  0  0  0  0  0  0  0  0  0
   58.1690   34.0500   46.8350 C   0  0  0  0  0  0  0  0  0  0  0  0
   59.2260   33.6040   47.5860 C   0  0  0  0  0  0  0  0  0  0  0  0
   57.5210   25.9230   44.6380 C   0  0  0  0  0  0  0  0  0  0  0  0
   56.6770   25.9680   45.7180 C   0  0  0  0  0  0  0  0  0  0  0  0
   59.8810   30.3450   45.8960 N   0  0  0  0  0  0  0  0  0  0  0  0
   59.4340   29.3040   46.4820 C   0  0  0  0  0  0  0  0  0  0  0  0
   60.1950   28.7450   47.4350 N   0  0  0  0  0  0  0  0  0  0  0  0
   59.8320   27.6450   48.1220 C   0  0  0  0  0  0  0  0  0  0  0  0
   58.6450   27.0750   47.8410 N   0  0  0  0  0  0  0  0  0  0  0  0
   57.8540   27.6070   46.8910 C   0  0  0  0  0  0  0  0  0  0  0  0
   56.7400   27.0340   46.6590 N   0  0  0  0  0  0  0  0  0  0  0  0
   59.3280   31.6090   46.2480 C   0  0  0  0  0  0  0  0  0  0  0  0
   59.8110   32.3760   47.2910 C   0  0  0  0  0  0  0  0  0  0  0  0
   55.5960   23.9110   45.0820 C   0  0  0  0  0  0  0  0  0  0  0  0
   56.4470   23.8560   43.9840 C   0  0  0  0  0  0  0  0  0  0  0  0
   56.3220   22.7400   43.0730 C   0  0  0  0  0  0  0  0  0  0  0  0
   56.2020   21.8410   42.3330 N   0  0  0  0  0  0  0  0  0  0  0  0
   57.4000   24.8590   43.7690 C   0  0  0  0  0  0  0  0  0  0  0  0
   55.7250   24.9640   45.9300 C   0  0  0  0  0  0  0  0  0  0  0  0
   58.2500   28.7230   46.2120 N   0  0  0  0  0  0  0  0  0  0  0  0
   57.1389   33.0290   42.9043 H   0  0  0  0  0  0  0  0  0  0  0  0
   58.3323   31.9739   42.0742 H   0  0  0  0  0  0  0  0  0  0  0  0
   56.5909   31.5332   42.0742 H   0  0  0  0  0  0  0  0  0  0  0  0
   56.8309   33.6536   45.1926 H   0  0  0  0  0  0  0  0  0  0  0  0
   57.7056   35.0208   47.0648 H   0  0  0  0  0  0  0  0  0  0  0  0
   59.6097   34.2136   48.4174 H   0  0  0  0  0  0  0  0  0  0  0  0
   58.2705   26.7104   44.4702 H   0  0  0  0  0  0  0  0  0  0  0  0
   60.4903   27.2219   48.8951 H   0  0  0  0  0  0  0  0  0  0  0  0
   58.3350   26.2210   48.3570 H   0  0  0  0  0  0  0  0  0  0  0  0
   60.6602   32.0151   47.8898 H   0  0  0  0  0  0  0  0  0  0  0  0
   54.8436   23.1281   45.2580 H   0  0  0  0  0  0  0  0  0  0  0  0
   58.0626   24.7973   42.8932 H   0  0  0  0  0  0  0  0  0  0  0  0
   55.0638   25.0296   46.8067 H   0  0  0  0  0  0  0  0  0  0  0  0
   57.6460   29.1350   45.4810 H   0  0  0  0  0  0  0  0  0  0  0  0
  1  2  1  0
  2  3  2  0
  2  4  2  0
  2  5  1  0
  5  6  2  0
  6  7  1  0
  7  8  2  0
  8  9  1  0
  9 10  2  0
 10 11  1  0
 11 12  2  0
 12 13  1  0
 13 14  2  0
 14 15  1  0
 15 16  1  0
 16 17  2  0
 17 18  1  0
 18 19  2  0
 19 20  1  0
 20 21  2  0
 21 22  1  0
 22 23  3  0
 21 24  1  0
 24 25  2  0
 16 26  1  0
 10  5  1  0
 26 12  1  0
 25 18  1  0
  1 27  1  0
  1 28  1  0
  1 29  1  0
  6 30  1  0
  7 31  1  0
  8 32  1  0
  9 33  1  0
 14 34  1  0
 15 35  1  0
 19 36  1  0
 20 37  1  0
 24 38  1  0
 25 39  1  0
 26 40  1  0
M  END
>  <smiles>  (58) 
CS(=O)(=O)c1ccccc1N=c1nc[nH]c(=Nc2ccc(C#N)cc2)[nH]1

>  <score_type>  (58) 
oracle

>  <origin>  (58) 
adg

>  <m_score__min__energy>  (58) 
-8.7799999999999994

>  <m_primary>  (58) 
energy

$$$$
58:0
     RDKit          3D

 57 59  0  0  0  0  0  0  0  0999 V2000
   56.5710   31.0760   52.1400 C   0  0  0  0  0  0  0  0  0  0  0  0
   57.3010   30.2390   51.2460 O   0  0  0  0  0  0  0  0  0  0  0  0
   58.4100   30.6610   50.4950 C   0  0  0  0  0  0  0  0  0  0  0  0
   59.0910   29.7080   49.7280 C   0  0  0  0  0  0  0  0  0  0  0  0
   60.1980   30.0790   48.9610 C   0  0  0  0  0  0  0  0  0  0  0  0
   60.6310   31.4130   48.9470 C   0  0  0  0  0  0  0  0  0  0  0  0
   59.9630   32.3800   49.7130 C   0  0  0  0  0  0  0  0  0  0  0  0
   60.3960   33.8230   49.6590 C   0  0  0  0  0  0  0  0  0  0  0  0
   59.6360   34.5930   48.5720 C   0  0  0  0  0  0  0  0  0  0  0  0
   60.2580   34.3990   47.2610 N   0  0  0  0  0  0  0  0  0  0  0  0
   59.5630   34.4180   46.0080 C   0  0  0  0  0  0  0  0  0  0  0  0
   59.5910   35.4690   45.3160 O   0  0  0  0  0  0  0  0  0  0  0  0
   58.7970   33.2550   45.5180 C   0  0  0  0  0  0  0  0  0  0  0  0
   58.1480   33.2960   44.2760 C   0  0  0  0  0  0  0  0  0  0  0  0
   57.4370   32.1820   43.8120 C   0  0  0  0  0  0  0  0  0  0  0  0
   57.3590   31.0220   44.5890 C   0  0  0  0  0  0  0  0  0  0  0  0
   56.4960   29.6100   43.9950 S   0  0  0  0  0  0  0  0  0  0  0  0
   56.0390   29.8340   42.5830 O   0  0  0  0  0  0  0  0  0  0  0  0
   55.3000   29.3700   44.8720 O   0  0  0  0  0  0  0  0  0  0  0  0
   57.5490   28.2310   44.0300 N   0  0  0  0  0  0  0  0  0  0  0  0
   57.7800   27.4670   42.8090 C   0  0  0  0  0  0  0  0  0  0  0  0
   58.1860   27.8340   45.2520 C   0  0  0  0  0  0  0  0  0  0  0  0
   59.5460   28.1200   45.4530 C   0  0  0  0  0  0  0  0  0  0  0  0
   60.1820   27.7340   46.6330 C   0  0  0  0  0  0  0  0  0  0  0  0
   59.4670   27.0590   47.6230 C   0  0  0  0  0  0  0  0  0  0  0  0
   58.1140   26.7630   47.4330 C   0  0  0  0  0  0  0  0  0  0  0  0
   57.4620   27.1420   46.2420 C   0  0  0  0  0  0  0  0  0  0  0  0
   56.1140   26.8320   46.0030 O   0  0  0  0  0  0  0  0  0  0  0  0
   55.6240   25.5250   45.7280 C   0  0  0  0  0  0  0  0  0  0  0  0
   57.9710   30.9940   45.8470 C   0  0  0  0  0  0  0  0  0  0  0  0
   58.6820   32.1050   46.3120 C   0  0  0  0  0  0  0  0  0  0  0  0
   58.8540   32.0000   50.4870 C   0  0  0  0  0  0  0  0  0  0  0  0
   56.8107   30.8012   53.1778 H   0  0  0  0  0  0  0  0  0  0  0  0
   56.8464   32.1267   51.9660 H   0  0  0  0  0  0  0  0  0  0  0  0
   55.4927   30.9460   51.9660 H   0  0  0  0  0  0  0  0  0  0  0  0
   58.7525   28.6614   49.7294 H   0  0  0  0  0  0  0  0  0  0  0  0
   60.7316   29.3229   48.3664 H   0  0  0  0  0  0  0  0  0  0  0  0
   61.4971   31.7019   48.3335 H   0  0  0  0  0  0  0  0  0  0  0  0
   60.1999   34.2926   50.6342 H   0  0  0  0  0  0  0  0  0  0  0  0
   61.4694   33.8545   49.4204 H   0  0  0  0  0  0  0  0  0  0  0  0
   58.5975   34.2322   48.5346 H   0  0  0  0  0  0  0  0  0  0  0  0
   59.6623   35.6649   48.8178 H   0  0  0  0  0  0  0  0  0  0  0  0
   58.1974   34.2078   43.6627 H   0  0  0  0  0  0  0  0  0  0  0  0
   56.9380   32.2198   42.8324 H   0  0  0  0  0  0  0  0  0  0  0  0
   58.0893   26.4440   43.0695 H   0  0  0  0  0  0  0  0  0  0  0  0
   56.8527   27.4305   42.2184 H   0  0  0  0  0  0  0  0  0  0  0  0
   58.5722   27.9504   42.2184 H   0  0  0  0  0  0  0  0  0  0  0  0
   60.1134   28.6518   44.6750 H   0  0  0  0  0  0  0  0  0  0  0  0
   61.2476   27.9618   46.7831 H   0  0  0  0  0  0  0  0  0  0  0  0
   59.9689   26.7592   48.5548 H   0  0  0  0  0  0  0  0  0  0  0  0
   57.5550   26.2314   48.2172 H   0  0  0  0  0  0  0  0  0  0  0  0
   55.4273   25.0004   46.6747 H   0  0  0  0  0  0  0  0  0  0  0  0
   54.6919   25.5973   45.1484 H   0  0  0  0  0  0  0  0  0  0  0  0
   56.3739   24.9667   45.1484 H   0  0  0  0  0  0  0  0  0  0  0  0
   57.8925   30.0933   46.4736 H   0  0  0  0  0  0  0  0  0  0  0  0
   59.1533   32.0765   47.3055 H   0  0  0  0  0  0  0  0  0  0  0  0
   58.3274   32.7528   51.0919 H   0  0  0  0  0  0  0  0  0  0  0  0
  1  2  1  0
  2  3  1  0
  3  4  2  0
  4  5  1  0
  5  6  2  0
  6  7  1  0
  7  8  1  0
  8  9  1  0
  9 10  1  0
 10 11  1  0
 11 12  2  0
 11 13  1  0
 13 14  2  0
 14 15  1  0
 15 16  2  0
 16 17  1  0
 17 18  2  0
 17 19  2  0
 17 20  1  0
 20 21  1  0
 20 22  1  0
 22 23  2  0
 23 24  1  0
 24 25  2  0
 25 26  1  0
 26 27  2  0
 27 28  1  0
 28 29  1  0
 16 30  1  0
 30 31  2  0
  7 32  2  0
 32  3  1  0
 31 13  1  0
 27 22  1  0
  1 33  1  0
  1 34  1  0
  1 35  1  0
  4 36  1  0
  5 37  1  0
  6 38  1  0
  8 39  1  0
  8 40  1  0
  9 41  1  0
  9 42  1  0
 14 43  1  0
 15 44  1  0
 21 45  1  0
 21 46  1  0
 21 47  1  0
 23 48  1  0
 24 49  1  0
 25 50  1  0
 26 51  1  0
 29 52  1  0
 29 53  1  0
 29 54  1  0
 30 55  1  0
 31 56  1  0
 32 57  1  0
M  CHG  1  10  -1
M  END
>  <UniqueID>  (59) 
52

>  <SMILES>  (59) 
COc1cccc(CC[N-]C(=O)c2ccc(S(=O)(=O)N(C)c3ccccc3OC)cc2)c1

>  <Energy>  (59) 
64.37210626082468

>  <Genealogy>  (59) 
COc1cccc(CC[N-]C(=O)c2ccc(S(=O)(=O)N(C)c3ccccc3OC)cc2)c1 (protonated)
COc1cccc(CC[N-]C(=O)c2ccc(S(=O)(=O)N(C)c3ccccc3OC)cc2)c1 (3D coordinates assigned)
COc1cccc(CC[N-]C(=O)c2ccc(S(=O)(=O)N(C)c3ccccc3OC)cc2)c1 (optimized conformer: 64.37210626082468 kcal/mol)

>  <smiles>  (59) 
COc1cccc(CCNC(=O)c2ccc(S(=O)(=O)N(C)c3ccccc3OC)cc2)c1

>  <score_type>  (59) 
oracle

>  <origin>  (59) 
adg

>  <m_score__min__energy>  (59) 
-10.24

>  <m_primary>  (59) 
energy

$$$$
59:0
     RDKit          3D

 45 47  0  0  0  0  0  0  0  0999 V2000
   63.2710   33.9560   50.7010 C   0  0  0  0  0  0  0  0  0  0  0  0
   62.7470   32.5700   51.0410 C   0  0  0  0  0  0  0  0  0  0  0  0
   61.3880   32.4620   50.6250 O   0  0  0  0  0  0  0  0  0  0  0  0
   60.8300   31.3240   50.0190 C   0  0  0  0  0  0  0  0  0  0  0  0
   61.6140   30.2210   49.6360 C   0  0  0  0  0  0  0  0  0  0  0  0
   61.0240   29.1110   49.0280 C   0  0  0  0  0  0  0  0  0  0  0  0
   59.6460   29.0890   48.7770 C   0  0  0  0  0  0  0  0  0  0  0  0
   59.0340   27.9310   48.0830 C   0  0  0  0  0  0  0  0  0  0  0  0
   59.5620   26.7920   48.1940 O   0  0  0  0  0  0  0  0  0  0  0  0
   57.8160   28.0590   47.3320 N   0  0  0  0  0  0  0  0  0  0  0  0
   57.7450   28.3460   46.0880 N   0  0  0  0  0  0  0  0  0  0  0  0
   57.3180   29.6110   45.5620 C   0  0  0  0  0  0  0  0  0  0  0  0
   56.1560   29.8930   44.8580 C   0  0  0  0  0  0  0  0  0  0  0  0
   55.1690   28.9680   44.5420 O   0  0  0  0  0  0  0  0  0  0  0  0
   56.0780   31.2020   44.5210 N   0  0  0  0  0  0  0  0  0  0  0  0
   57.2040   31.7400   45.0350 C   0  0  0  0  0  0  0  0  0  0  0  0
   57.6080   33.0700   44.9380 C   0  0  0  0  0  0  0  0  0  0  0  0
   58.8360   33.4310   45.5210 C   0  0  0  0  0  0  0  0  0  0  0  0
   59.6340   32.4680   46.1850 C   0  0  0  0  0  0  0  0  0  0  0  0
   61.1790   32.9470   46.8790 S   0  0  0  0  0  0  0  0  0  0  0  0
   60.9150   33.7760   48.3750 N   0  0  0  0  0  0  0  0  0  0  0  0
   61.9080   33.8650   45.9390 O   0  0  0  0  0  0  0  0  0  0  0  0
   62.0180   31.7250   47.1200 O   0  0  0  0  0  0  0  0  0  0  0  0
   59.1930   31.1300   46.2750 C   0  0  0  0  0  0  0  0  0  0  0  0
   57.9730   30.8070   45.6860 C   0  0  0  0  0  0  0  0  0  0  0  0
   58.8580   30.1800   49.1790 C   0  0  0  0  0  0  0  0  0  0  0  0
   59.4450   31.3000   49.7980 C   0  0  0  0  0  0  0  0  0  0  0  0
   58.6860   32.4090   50.2090 O   0  0  0  0  0  0  0  0  0  0  0  0
   58.2910   32.6660   51.5520 C   0  0  0  0  0  0  0  0  0  0  0  0
   63.4794   34.5072   51.6298 H   0  0  0  0  0  0  0  0  0  0  0  0
   64.1965   33.8642   50.1136 H   0  0  0  0  0  0  0  0  0  0  0  0
   62.5163   34.4994   50.1136 H   0  0  0  0  0  0  0  0  0  0  0  0
   63.3511   31.8117   50.5214 H   0  0  0  0  0  0  0  0  0  0  0  0
   62.8125   32.4089   52.1272 H   0  0  0  0  0  0  0  0  0  0  0  0
   62.6990   30.2328   49.8166 H   0  0  0  0  0  0  0  0  0  0  0  0
   61.6451   28.2486   48.7444 H   0  0  0  0  0  0  0  0  0  0  0  0
   56.9854   33.8151   44.4211 H   0  0  0  0  0  0  0  0  0  0  0  0
   59.1806   34.4739   45.4604 H   0  0  0  0  0  0  0  0  0  0  0  0
   60.2180   33.2170   48.9160 H   0  0  0  0  0  0  0  0  0  0  0  0
   61.8110   33.7400   48.9110 H   0  0  0  0  0  0  0  0  0  0  0  0
   59.7932   30.3676   46.7933 H   0  0  0  0  0  0  0  0  0  0  0  0
   57.7715   30.1591   49.0085 H   0  0  0  0  0  0  0  0  0  0  0  0
   59.0095   32.1985   52.2414 H   0  0  0  0  0  0  0  0  0  0  0  0
   58.2689   33.7519   51.7263 H   0  0  0  0  0  0  0  0  0  0  0  0
   57.2893   32.2462   51.7263 H   0  0  0  0  0  0  0  0  0  0  0  0
  1  2  1  0
  2  3  1  0
  3  4  1  0
  4  5  2  0
  5  6  1  0
  6  7  2  0
  7  8  1  0
  8  9  2  0
  8 10  1  0
 10 11  2  3
 11 12  1  0
 12 13  2  0
 13 14  1  0
 13 15  1  0
 15 16  1  0
 16 17  2  0
 17 18  1  0
 18 19  2  0
 19 20  1  0
 20 21  1  0
 20 22  2  0
 20 23  2  0
 19 24  1  0
 24 25  2  0
  7 26  1  0
 26 27  2  0
 27 28  1  0
 28 29  1  0
 27  4  1  0
 25 12  1  0
 25 16  1  0
  1 30  1  0
  1 31  1  0
  1 32  1  0
  2 33  1  0
  2 34  1  0
  5 35  1  0
  6 36  1  0
 17 37  1  0
 18 38  1  0
 21 39  1  0
 21 40  1  0
 24 41  1  0
 26 42  1  0
 29 43  1  0
 29 44  1  0
 29 45  1  0
M  CHG  2  14  -1  15  -1
M  END
>  <UniqueID>  (60) 
53

>  <SMILES>  (60) 
CCOc1ccc(C(=O)N=Nc2c([O-])[n-]c3ccc(S(N)(=O)=O)cc23)cc1OC

>  <Energy>  (60) 
87.32703220346522

>  <Genealogy>  (60) 
CCOc1ccc(C(=O)N=Nc2c([O-])[n-]c3ccc(S(N)(=O)=O)cc23)cc1OC (protonated)
CCOc1ccc(C(=O)N=Nc2c([O-])[n-]c3ccc(S(N)(=O)=O)cc23)cc1OC (3D coordinates assigned)
CCOc1ccc(C(=O)N=Nc2c([O-])[n-]c3ccc(S(N)(=O)=O)cc23)cc1OC (optimized conformer: 87.32703220346522 kcal/mol)

>  <smiles>  (60) 
CCOc1ccc(C(=O)N=Nc2c(O)[nH]c3ccc(S(N)(=O)=O)cc23)cc1OC

>  <score_type>  (60) 
oracle

>  <origin>  (60) 
adg

>  <m_score__min__energy>  (60) 
-12.609999999999999

>  <m_primary>  (60) 
energy

$$$$
60:0
     RDKit          3D

 33 34  0  0  0  0  0  0  0  0999 V2000
   55.8620   29.3890   43.9180 C   0  0  0  0  0  0  0  0  0  0  0  0
   55.7950   28.6710   45.1460 O   0  0  0  0  0  0  0  0  0  0  0  0
   56.8050   27.8230   45.6300 C   0  0  0  0  0  0  0  0  0  0  0  0
   56.6520   26.4210   45.6410 C   0  0  0  0  0  0  0  0  0  0  0  0
   57.6700   25.6030   46.1330 C   0  0  0  0  0  0  0  0  0  0  0  0
   58.8510   26.1690   46.6120 C   0  0  0  0  0  0  0  0  0  0  0  0
   59.0180   27.5550   46.6040 C   0  0  0  0  0  0  0  0  0  0  0  0
   57.9960   28.3950   46.1230 C   0  0  0  0  0  0  0  0  0  0  0  0
   58.1630   29.8240   46.0980 N   0  0  0  0  0  0  0  0  0  0  0  0
   59.4980   30.6440   46.8470 S   0  0  0  0  0  0  0  0  0  0  0  0
   59.3680   30.5710   48.3430 O   0  0  0  0  0  0  0  0  0  0  0  0
   60.7680   29.9700   46.4090 O   0  0  0  0  0  0  0  0  0  0  0  0
   59.5110   32.3510   46.3720 C   0  0  0  0  0  0  0  0  0  0  0  0
   60.3880   33.2260   47.0360 C   0  0  0  0  0  0  0  0  0  0  0  0
   60.3770   34.5930   46.7520 C   0  0  0  0  0  0  0  0  0  0  0  0
   59.4970   35.1020   45.8000 C   0  0  0  0  0  0  0  0  0  0  0  0
   58.6400   34.2440   45.1100 C   0  0  0  0  0  0  0  0  0  0  0  0
   58.6510   32.8620   45.3670 C   0  0  0  0  0  0  0  0  0  0  0  0
   57.8120   31.9990   44.5820 N   0  0  0  0  0  0  0  0  0  0  0  0
   58.3240   31.1750   43.7970 O   0  0  0  0  0  0  0  0  0  0  0  0
   56.4700   31.9010   44.8640 O   0  0  0  0  0  0  0  0  0  0  0  0
   55.9623   30.4643   44.1270 H   0  0  0  0  0  0  0  0  0  0  0  0
   56.7320   29.0452   43.3392 H   0  0  0  0  0  0  0  0  0  0  0  0
   54.9434   29.2121   43.3392 H   0  0  0  0  0  0  0  0  0  0  0  0
   55.7244   25.9694   45.2594 H   0  0  0  0  0  0  0  0  0  0  0  0
   57.5407   24.5107   46.1430 H   0  0  0  0  0  0  0  0  0  0  0  0
   59.6529   25.5219   46.9970 H   0  0  0  0  0  0  0  0  0  0  0  0
   59.9553   27.9940   46.9764 H   0  0  0  0  0  0  0  0  0  0  0  0
   57.4390   30.4130   45.6310 H   0  0  0  0  0  0  0  0  0  0  0  0
   61.0890   32.8304   47.7858 H   0  0  0  0  0  0  0  0  0  0  0  0
   61.0646   35.2692   47.2811 H   0  0  0  0  0  0  0  0  0  0  0  0
   59.4776   36.1819   45.5918 H   0  0  0  0  0  0  0  0  0  0  0  0
   57.9493   34.6528   44.3578 H   0  0  0  0  0  0  0  0  0  0  0  0
  1  2  1  0
  2  3  1  0
  3  4  2  0
  4  5  1  0
  5  6  2  0
  6  7  1  0
  7  8  2  0
  8  9  1  0
  9 10  1  0
 10 11  2  0
 10 12  2  0
 10 13  1  0
 13 14  2  0
 14 15  1  0
 15 16  2  0
 16 17  1  0
 17 18  2  0
 18 19  1  0
 19 20  2  0
 19 21  1  0
  8  3  1  0
 18 13  1  0
  1 22  1  0
  1 23  1  0
  1 24  1  0
  4 25  1  0
  5 26  1  0
  6 27  1  0
  7 28  1  0
  9 29  1  0
 14 30  1  0
 15 31  1  0
 16 32  1  0
 17 33  1  0
M  CHG  2  19   1  21  -1
M  END
>  <UniqueID>  (61) 
54

>  <SMILES>  (61) 
COc1ccccc1NS(=O)(=O)c1ccccc1[N+](=O)[O-]

>  <Energy>  (61) 
44.85731368621673

>  <Genealogy>  (61) 
COc1ccccc1NS(=O)(=O)c1ccccc1[N+](=O)[O-] (3D coordinates assigned)
COc1ccccc1NS(=O)(=O)c1ccccc1[N+](=O)[O-] (optimized conformer: 44.85731368621673 kcal/mol)

>  <smiles>  (61) 
COc1ccccc1NS(=O)(=O)c1ccccc1[N+](=O)[O-]

>  <score_type>  (61) 
oracle

>  <origin>  (61) 
adg

>  <m_score__min__energy>  (61) 
-7.4900000000000002

>  <m_primary>  (61) 
energy

$$$$
61:0
     RDKit          3D

 17 17  0  0  0  0  0  0  0  0999 V2000
   56.1790   22.9300   42.6540 C   0  0  0  0  0  0  0  0  0  0  0  0
   55.7110   22.1910   43.7750 O   0  0  0  0  0  0  0  0  0  0  0  0
   55.1600   22.8010   44.9050 C   0  0  0  0  0  0  0  0  0  0  0  0
   54.2370   22.2250   45.5450 O   0  0  0  0  0  0  0  0  0  0  0  0
   55.6350   24.1380   45.3380 C   0  0  0  0  0  0  0  0  0  0  0  0
   57.0140   24.4240   45.4760 C   0  0  0  0  0  0  0  0  0  0  0  0
   58.3870   23.1050   45.2270 Br  0  0  0  0  0  0  0  0  0  0  0  0
   57.4210   25.7010   45.8720 C   0  0  0  0  0  0  0  0  0  0  0  0
   56.4680   26.6820   46.1320 C   0  0  0  0  0  0  0  0  0  0  0  0
   55.1470   26.3970   46.0040 N   0  0  0  0  0  0  0  0  0  0  0  0
   54.7090   25.1690   45.6200 C   0  0  0  0  0  0  0  0  0  0  0  0
   53.4700   24.9740   45.5050 O   0  0  0  0  0  0  0  0  0  0  0  0
   56.7371   23.8113   43.0029 H   0  0  0  0  0  0  0  0  0  0  0  0
   56.8397   22.2947   42.0459 H   0  0  0  0  0  0  0  0  0  0  0  0
   55.3222   23.2557   42.0459 H   0  0  0  0  0  0  0  0  0  0  0  0
   58.4916   25.9304   45.9780 H   0  0  0  0  0  0  0  0  0  0  0  0
   56.7857   27.6887   46.4413 H   0  0  0  0  0  0  0  0  0  0  0  0
  1  2  1  0
  2  3  1  0
  3  4  2  0
  3  5  1  0
  5  6  2  0
  6  7  1  0
  6  8  1  0
  8  9  2  0
  9 10  1  0
 10 11  1  0
 11 12  2  0
 11  5  1  0
  1 13  1  0
  1 14  1  0
  1 15  1  0
  8 16  1  0
  9 17  1  0
M  CHG  1  10  -1
M  END
>  <UniqueID>  (62) 
55

>  <SMILES>  (62) 
COC(=O)c1c(Br)cc[n-]c1=O

>  <Energy>  (62) 
20.641789206360343

>  <Genealogy>  (62) 
COC(=O)c1c(Br)cc[n-]c1=O (protonated)
COC(=O)c1c(Br)cc[n-]c1=O (3D coordinates assigned)
COC(=O)c1c(Br)cc[n-]c1=O (optimized conformer: 20.641789206360343 kcal/mol)

>  <smiles>  (62) 
COC(=O)c1c(Br)cc[nH]c1=O

>  <score_type>  (62) 
oracle

>  <origin>  (62) 
adg

>  <m_score__min__energy>  (62) 
-7.8600000000000003

>  <m_primary>  (62) 
energy

$$$$
62:0
     RDKit          3D

 35 36  0  0  0  0  0  0  0  0999 V2000
   58.1530   22.6610   44.5290 C   0  0  0  0  0  0  0  0  0  0  0  0
   57.7020   23.7210   45.3650 O   0  0  0  0  0  0  0  0  0  0  0  0
   57.7870   25.0820   45.0350 C   0  0  0  0  0  0  0  0  0  0  0  0
   57.9170   26.0890   46.0090 C   0  0  0  0  0  0  0  0  0  0  0  0
   57.9980   27.4320   45.6280 C   0  0  0  0  0  0  0  0  0  0  0  0
   57.9340   27.7940   44.2750 C   0  0  0  0  0  0  0  0  0  0  0  0
   58.0420   29.1800   43.9110 N   0  0  0  0  0  0  0  0  0  0  0  0
   57.2690   30.2320   44.5130 C   0  0  0  0  0  0  0  0  0  0  0  0
   56.6650   30.0330   45.6020 O   0  0  0  0  0  0  0  0  0  0  0  0
   57.2480   31.6060   43.8850 C   0  0  2  0  0  0  0  0  0  0  0  0
   57.8780   31.5910   42.5610 N   0  0  0  0  0  0  0  0  0  0  0  0
   57.9070   32.6290   44.7890 C   0  0  0  0  0  0  0  0  0  0  0  0
   57.7670   32.5680   46.1910 C   0  0  0  0  0  0  0  0  0  0  0  0
   58.3630   33.5360   47.0050 C   0  0  0  0  0  0  0  0  0  0  0  0
   59.0950   34.5790   46.4340 C   0  0  0  0  0  0  0  0  0  0  0  0
   59.2280   34.6600   45.0470 C   0  0  0  0  0  0  0  0  0  0  0  0
   58.6350   33.6950   44.2260 C   0  0  0  0  0  0  0  0  0  0  0  0
   57.8240   26.7860   43.3020 C   0  0  0  0  0  0  0  0  0  0  0  0
   57.7450   25.4430   43.6840 C   0  0  0  0  0  0  0  0  0  0  0  0
   58.5077   21.8274   45.1530 H   0  0  0  0  0  0  0  0  0  0  0  0
   57.3235   22.3166   43.8940 H   0  0  0  0  0  0  0  0  0  0  0  0
   58.9764   23.0198   43.8940 H   0  0  0  0  0  0  0  0  0  0  0  0
   57.9551   25.8187   47.0746 H   0  0  0  0  0  0  0  0  0  0  0  0
   58.1129   28.2109   46.3962 H   0  0  0  0  0  0  0  0  0  0  0  0
   58.7820   29.4510   43.2230 H   0  0  0  0  0  0  0  0  0  0  0  0
   56.1959   31.8993   43.7544 H   0  0  0  0  0  0  0  0  0  0  0  0
   57.7870   30.6270   42.1650 H   0  0  0  0  0  0  0  0  0  0  0  0
   58.9030   31.7820   42.6490 H   0  0  0  0  0  0  0  0  0  0  0  0
   57.1851   31.7535   46.6471 H   0  0  0  0  0  0  0  0  0  0  0  0
   58.2550   33.4758   48.0980 H   0  0  0  0  0  0  0  0  0  0  0  0
   59.5667   35.3366   47.0771 H   0  0  0  0  0  0  0  0  0  0  0  0
   59.8007   35.4850   44.5982 H   0  0  0  0  0  0  0  0  0  0  0  0
   58.7380   33.7693   43.1334 H   0  0  0  0  0  0  0  0  0  0  0  0
   57.7999   27.0544   42.2355 H   0  0  0  0  0  0  0  0  0  0  0  0
   57.6489   24.6628   42.9146 H   0  0  0  0  0  0  0  0  0  0  0  0
  1  2  1  0
  2  3  1  0
  3  4  2  0
  4  5  1  0
  5  6  2  0
  6  7  1  0
  7  8  1  0
  8  9  2  0
  8 10  1  0
 10 11  1  0
 10 12  1  0
 12 13  2  0
 13 14  1  0
 14 15  2  0
 15 16  1  0
 16 17  2  0
  6 18  1  0
 18 19  2  0
 19  3  1  0
 17 12  1  0
  1 20  1  0
  1 21  1  0
  1 22  1  0
  4 23  1  0
  5 24  1  0
  7 25  1  0
 10 26  1  6
 11 27  1  0
 11 28  1  0
 13 29  1  0
 14 30  1  0
 15 31  1  0
 16 32  1  0
 17 33  1  0
 18 34  1  0
 19 35  1  0
M  END
>  <UniqueID>  (63) 
56

>  <SMILES>  (63) 
COc1ccc(NC(=O)[C@H](N)c2ccccc2)cc1

>  <Energy>  (63) 
38.74559503185562

>  <Genealogy>  (63) 
COc1ccc(NC(=O)[C@H](N)c2ccccc2)cc1 (chirality)
COc1ccc(NC(=O)[C@H](N)c2ccccc2)cc1 (3D coordinates assigned)
COc1ccc(NC(=O)[C@H](N)c2ccccc2)cc1 (optimized conformer: 38.74559503185562 kcal/mol)

>  <smiles>  (63) 
COc1ccc(NC(=O)C(N)c2ccccc2)cc1

>  <score_type>  (63) 
oracle

>  <origin>  (63) 
adg

>  <m_score__min__energy>  (63) 
-6.7000000000000002

>  <m_primary>  (63) 
energy

$$$$
63:0
     RDKit          3D

 49 52  0  0  0  0  0  0  0  0999 V2000
   58.4580   34.6440   45.0030 C   0  0  0  0  0  0  0  0  0  0  0  0
   58.1870   33.7290   46.1590 C   0  0  0  0  0  0  0  0  0  0  0  0
   57.0030   33.3400   46.3480 O   0  0  0  0  0  0  0  0  0  0  0  0
   59.2670   33.2820   47.0790 C   0  0  0  0  0  0  0  0  0  0  0  0
   59.9650   34.2010   47.8860 C   0  0  0  0  0  0  0  0  0  0  0  0
   60.9730   33.7630   48.7500 C   0  0  0  0  0  0  0  0  0  0  0  0
   61.3010   32.4090   48.8130 C   0  0  0  0  0  0  0  0  0  0  0  0
   60.6420   31.4830   47.9960 C   0  0  0  0  0  0  0  0  0  0  0  0
   60.9570   30.0880   48.0650 N   0  0  0  0  0  0  0  0  0  0  0  0
   60.1030   29.0710   48.6050 C   0  0  0  0  0  0  0  0  0  0  0  0
   60.5060   27.8770   48.6010 O   0  0  0  0  0  0  0  0  0  0  0  0
   58.8350   29.4210   49.3380 C   0  0  0  0  0  0  0  0  0  0  0  0
   58.9380   29.0340   51.1220 S   0  0  0  0  0  0  0  0  0  0  0  0
   57.8750   30.3900   51.6360 C   0  0  0  0  0  0  0  0  0  0  0  0
   56.5320   30.1830   51.6330 N   0  0  0  0  0  0  0  0  0  0  0  0
   55.6540   31.1580   51.9920 C   0  0  0  0  0  0  0  0  0  0  0  0
   54.1950   30.8960   51.9640 C   0  0  0  0  0  0  0  0  0  0  0  0
   53.2910   31.9210   51.6230 C   0  0  0  0  0  0  0  0  0  0  0  0
   51.9140   31.6720   51.5910 C   0  0  0  0  0  0  0  0  0  0  0  0
   51.0330   32.6920   51.2530 O   0  0  0  0  0  0  0  0  0  0  0  0
   51.4240   30.4010   51.8990 C   0  0  0  0  0  0  0  0  0  0  0  0
   52.3080   29.3720   52.2390 C   0  0  0  0  0  0  0  0  0  0  0  0
   51.8040   28.1090   52.5400 O   0  0  0  0  0  0  0  0  0  0  0  0
   53.6890   29.6180   52.2730 C   0  0  0  0  0  0  0  0  0  0  0  0
   56.1250   32.3790   52.3610 N   0  0  0  0  0  0  0  0  0  0  0  0
   57.4550   32.6470   52.3800 C   0  0  0  0  0  0  0  0  0  0  0  0
   57.9020   33.9230   52.7400 C   0  0  0  0  0  0  0  0  0  0  0  0
   59.2690   34.2110   52.7420 C   0  0  0  0  0  0  0  0  0  0  0  0
   60.1950   33.2230   52.3940 C   0  0  0  0  0  0  0  0  0  0  0  0
   61.9100   33.5990   52.3860 Cl  0  0  0  0  0  0  0  0  0  0  0  0
   59.7580   31.9420   52.0380 C   0  0  0  0  0  0  0  0  0  0  0  0
   58.3820   31.6450   52.0210 C   0  0  0  0  0  0  0  0  0  0  0  0
   59.6070   31.9170   47.1570 C   0  0  0  0  0  0  0  0  0  0  0  0
   58.7514   35.6347   45.3805 H   0  0  0  0  0  0  0  0  0  0  0  0
   59.2719   34.2293   44.3901 H   0  0  0  0  0  0  0  0  0  0  0  0
   57.5496   34.7394   44.3901 H   0  0  0  0  0  0  0  0  0  0  0  0
   59.7153   35.2711   47.8362 H   0  0  0  0  0  0  0  0  0  0  0  0
   61.5083   34.4876   49.3812 H   0  0  0  0  0  0  0  0  0  0  0  0
   62.0817   32.0669   49.5084 H   0  0  0  0  0  0  0  0  0  0  0  0
   58.6433   30.4977   49.2197 H   0  0  0  0  0  0  0  0  0  0  0  0
   58.0202   28.8194   48.9088 H   0  0  0  0  0  0  0  0  0  0  0  0
   53.6700   32.9246   51.3800 H   0  0  0  0  0  0  0  0  0  0  0  0
   50.3412   30.2090   51.8741 H   0  0  0  0  0  0  0  0  0  0  0  0
   51.9950   27.3050   51.9520 H   0  0  0  0  0  0  0  0  0  0  0  0
   54.3816   28.8071   52.5429 H   0  0  0  0  0  0  0  0  0  0  0  0
   57.1763   34.7002   53.0217 H   0  0  0  0  0  0  0  0  0  0  0  0
   59.6175   35.2172   53.0179 H   0  0  0  0  0  0  0  0  0  0  0  0
   60.4907   31.1662   51.7711 H   0  0  0  0  0  0  0  0  0  0  0  0
   59.0536   31.1835   46.5523 H   0  0  0  0  0  0  0  0  0  0  0  0
  1  2  1  0
  2  3  2  0
  2  4  1  0
  4  5  2  0
  5  6  1  0
  6  7  2  0
  7  8  1  0
  8  9  1  0
  9 10  1  0
 10 11  2  0
 10 12  1  0
 12 13  1  0
 13 14  1  0
 14 15  2  0
 15 16  1  0
 16 17  1  0
 17 18  2  0
 18 19  1  0
 19 20  1  0
 19 21  2  0
 21 22  1  0
 22 23  1  0
 22 24  2  0
 16 25  2  0
 25 26  1  0
 26 27  2  0
 27 28  1  0
 28 29  2  0
 29 30  1  0
 29 31  1  0
 31 32  2  0
  8 33  2  0
 33  4  1  0
 32 14  1  0
 24 17  1  0
 32 26  1  0
  1 34  1  0
  1 35  1  0
  1 36  1  0
  5 37  1  0
  6 38  1  0
  7 39  1  0
 12 40  1  0
 12 41  1  0
 18 42  1  0
 21 43  1  0
 23 44  1  0
 24 45  1  0
 27 46  1  0
 28 47  1  0
 31 48  1  0
 33 49  1  0
M  CHG  2   9  -1  20  -1
M  END
>  <UniqueID>  (64) 
57

>  <SMILES>  (64) 
CC(=O)c1cccc([N-]C(=O)CSc2nc(-c3cc([O-])cc(O)c3)nc3ccc(Cl)cc23)c1

>  <Energy>  (64) 
59.195310353971834

>  <Genealogy>  (64) 
CC(=O)c1cccc([N-]C(=O)CSc2nc(-c3cc([O-])cc(O)c3)nc3ccc(Cl)cc23)c1 (protonated)
CC(=O)c1cccc([N-]C(=O)CSc2nc(-c3cc([O-])cc(O)c3)nc3ccc(Cl)cc23)c1 (3D coordinates assigned)
CC(=O)c1cccc([N-]C(=O)CSc2nc(-c3cc([O-])cc(O)c3)nc3ccc(Cl)cc23)c1 (optimized conformer: 59.195310353971834 kcal/mol)

>  <smiles>  (64) 
CC(=O)c1cccc(NC(=O)CSc2nc(-c3cc(O)cc(O)c3)nc3ccc(Cl)cc23)c1

>  <score_type>  (64) 
oracle

>  <origin>  (64) 
adg

>  <m_score__min__energy>  (64) 
-14.529999999999999

>  <m_primary>  (64) 
energy

$$$$
64:0
     RDKit          3D

 47 50  0  0  1  0  0  0  0  0999 V2000
   53.1350   23.4610   45.7770 C   0  0  0  0  0  0  0  0  0  0  0  0
   54.0530   23.9820   46.7480 O   0  0  0  0  0  0  0  0  0  0  0  0
   55.3810   24.0340   46.3450 C   0  0  0  0  0  0  0  0  0  0  0  0
   56.1980   22.9160   46.3190 C   0  0  0  0  0  0  0  0  0  0  0  0
   57.5120   23.0060   45.9130 C   0  0  0  0  0  0  0  0  0  0  0  0
   58.0070   24.2350   45.5270 C   0  0  0  0  0  0  0  0  0  0  0  0
   57.2090   25.3800   45.5420 C   0  0  0  0  0  0  0  0  0  0  0  0
   57.7850   26.6820   45.1180 C   0  0  0  0  0  0  0  0  0  0  0  0
   57.3770   27.7160   46.0450 N   0  0  0  0  0  0  0  0  0  0  0  0
   57.0210   28.8490   45.4990 C   0  0  0  0  0  0  0  0  0  0  0  0
   55.8080   28.9840   44.9030 N   0  0  0  0  0  0  0  0  0  0  0  0
   55.4340   30.1640   44.3340 C   0  0  0  0  0  0  0  0  0  0  0  0
   56.2630   31.2320   44.3480 N   0  0  0  0  0  0  0  0  0  0  0  0
   57.4870   31.1370   44.9350 C   0  0  0  0  0  0  0  0  0  0  0  0
   57.8630   29.9410   45.5110 C   0  0  0  0  0  0  0  0  0  0  0  0
   59.1300   30.1630   46.0090 C   0  0  0  0  0  0  0  0  0  0  0  0
   59.4730   31.4300   45.7360 N   0  0  0  0  0  0  0  0  0  0  0  0
   58.4850   32.0400   45.0810 N   0  0  0  0  0  0  0  0  0  0  0  0
   58.4340   33.3990   44.5970 C   0  0  0  0  0  0  0  0  0  0  0  0
   58.5230   34.3970   45.7240 C   0  0  2  0  0  0  0  0  0  0  0  0
   59.9350   34.8250   46.0360 C   0  0  0  0  0  0  0  0  0  0  0  0
   60.1520   34.2720   47.4180 C   0  0  0  0  0  0  0  0  0  0  0  0
   58.8970   34.3550   47.9920 O   0  0  0  0  0  0  0  0  0  0  0  0
   58.1190   33.6960   47.0180 C   0  0  0  0  0  0  0  0  0  0  0  0
   55.8850   25.2560   45.9590 C   0  0  0  0  0  0  0  0  0  0  0  0
   55.0940   26.3870   45.9730 O   0  0  0  0  0  0  0  0  0  0  0  0
   52.2897   22.9812   46.2920 H   0  0  0  0  0  0  0  0  0  0  0  0
   52.7623   24.2822   45.1471 H   0  0  0  0  0  0  0  0  0  0  0  0
   53.6489   22.7200   45.1471 H   0  0  0  0  0  0  0  0  0  0  0  0
   55.7919   21.9412   46.6271 H   0  0  0  0  0  0  0  0  0  0  0  0
   58.1550   22.1137   45.8969 H   0  0  0  0  0  0  0  0  0  0  0  0
   59.0543   24.3140   45.2001 H   0  0  0  0  0  0  0  0  0  0  0  0
   58.8827   26.6112   45.1079 H   0  0  0  0  0  0  0  0  0  0  0  0
   57.4238   26.9311   44.1093 H   0  0  0  0  0  0  0  0  0  0  0  0
   55.1430   28.1860   44.8720 H   0  0  0  0  0  0  0  0  0  0  0  0
   54.4461   30.2488   43.8577 H   0  0  0  0  0  0  0  0  0  0  0  0
   59.7522   29.4269   46.5391 H   0  0  0  0  0  0  0  0  0  0  0  0
   59.2755   33.5637   43.9079 H   0  0  0  0  0  0  0  0  0  0  0  0
   57.4710   33.5446   44.0857 H   0  0  0  0  0  0  0  0  0  0  0  0
   57.9003   35.2482   45.4115 H   0  0  0  0  0  0  0  0  0  0  0  0
   60.6481   34.3918   45.3192 H   0  0  0  0  0  0  0  0  0  0  0  0
   60.0847   35.9130   45.9733 H   0  0  0  0  0  0  0  0  0  0  0  0
   60.4981   33.2287   47.3756 H   0  0  0  0  0  0  0  0  0  0  0  0
   60.9223   34.8160   47.9843 H   0  0  0  0  0  0  0  0  0  0  0  0
   58.3603   32.6235   46.9786 H   0  0  0  0  0  0  0  0  0  0  0  0
   57.0387   33.7464   47.2193 H   0  0  0  0  0  0  0  0  0  0  0  0
   54.1560   26.2840   46.3720 H   0  0  0  0  0  0  0  0  0  0  0  0
  1  2  1  0
  2  3  1  0
  3  4  2  0
  4  5  1  0
  5  6  2  0
  6  7  1  0
  7  8  1  0
  8  9  1  0
  9 10  2  0
 10 11  1  0
 11 12  1  0
 12 13  2  0
 13 14  1  0
 14 15  2  0
 15 16  1  0
 16 17  2  0
 17 18  1  0
 18 19  1  0
 19 20  1  0
 20 21  1  0
 21 22  1  0
 22 23  1  0
 23 24  1  0
  7 25  2  0
 25 26  1  0
 25  3  1  0
 15 10  1  0
 24 20  1  0
 18 14  1  0
  1 27  1  0
  1 28  1  0
  1 29  1  0
  4 30  1  0
  5 31  1  0
  6 32  1  0
  8 33  1  0
  8 34  1  0
 11 35  1  0
 12 36  1  0
 16 37  1  0
 19 38  1  0
 19 39  1  0
 20 40  1  6
 21 41  1  0
 21 42  1  0
 22 43  1  0
 22 44  1  0
 24 45  1  0
 24 46  1  0
 26 47  1  0
M  END
>  <smiles>  (65) 
COc1cccc(CN=c2[nH]cnc3c2cnn3CC2CCOC2)c1O

>  <score_type>  (65) 
oracle

>  <origin>  (65) 
adg

>  <m_score__min__energy>  (65) 
-9.5

>  <m_primary>  (65) 
energy

$$$$
65:0
     RDKit          3D

 61 65  0  0  0  0  0  0  0  0999 V2000
   54.9929   29.1233   43.6409 H   0  0  0  0  0  0  0  0  0  0  0  0
   55.8950   29.4780   44.1610 C   0  0  0  0  0  0  0  0  0  0  0  0
   56.6670   28.6040   44.8660 N   0  0  0  0  0  0  0  0  0  0  0  0
   57.7930   29.0210   45.5120 C   0  0  0  0  0  0  0  0  0  0  0  0
   58.5620   28.1780   46.1340 N   0  0  0  0  0  0  0  0  0  0  0  0
   59.0910   28.3730   47.4510 C   0  0  0  0  0  0  0  0  0  0  0  0
   60.1970   27.6240   47.8680 C   0  0  0  0  0  0  0  0  0  0  0  0
   60.6312   26.8675   47.1978 H   0  0  0  0  0  0  0  0  0  0  0  0
   60.7510   27.8340   49.1320 C   0  0  0  0  0  0  0  0  0  0  0  0
   61.5946   27.2152   49.4717 H   0  0  0  0  0  0  0  0  0  0  0  0
   60.2350   28.8300   49.9670 C   0  0  0  0  0  0  0  0  0  0  0  0
   60.6711   28.9882   50.9644 H   0  0  0  0  0  0  0  0  0  0  0  0
   59.1590   29.6320   49.5370 C   0  0  0  0  0  0  0  0  0  0  0  0
   58.6460   30.6990   50.3540 N   0  0  0  0  0  0  0  0  0  0  0  0
   59.1450   31.6130   50.3160 H   0  0  0  0  0  0  0  0  0  0  0  0
   57.6030   30.5130   51.3320 C   0  0  0  0  0  0  0  0  0  0  0  0
   57.2330   29.3470   51.6390 O   0  0  0  0  0  0  0  0  0  0  0  0
   56.9030   31.6860   51.9830 C   0  0  2  0  0  0  0  0  0  0  0  0
   56.5038   32.3026   51.1642 H   0  0  0  0  0  0  0  0  0  0  0  0
   57.8810   32.5190   52.7860 C   0  0  0  0  0  0  0  0  0  0  0  0
   58.1790   33.8340   52.3850 C   0  0  0  0  0  0  0  0  0  0  0  0
   57.6912   34.2564   51.4942 H   0  0  0  0  0  0  0  0  0  0  0  0
   59.0920   34.6100   53.1110 C   0  0  0  0  0  0  0  0  0  0  0  0
   59.3225   35.6354   52.7864 H   0  0  0  0  0  0  0  0  0  0  0  0
   59.7090   34.0820   54.2460 C   0  0  0  0  0  0  0  0  0  0  0  0
   60.4330   34.6878   54.8106 H   0  0  0  0  0  0  0  0  0  0  0  0
   59.4070   32.7840   54.6650 C   0  0  0  0  0  0  0  0  0  0  0  0
   59.8870   32.3729   55.5653 H   0  0  0  0  0  0  0  0  0  0  0  0
   58.4970   32.0060   53.9440 C   0  0  0  0  0  0  0  0  0  0  0  0
   58.2604   30.9867   54.2831 H   0  0  0  0  0  0  0  0  0  0  0  0
   55.6920   31.2790   52.8290 C   0  0  0  0  0  0  0  0  0  0  0  0
   55.9450   31.3640   53.8961 H   0  0  0  0  0  0  0  0  0  0  0  0
   54.8447   31.9417   52.5991 H   0  0  0  0  0  0  0  0  0  0  0  0
   55.4170   30.2390   52.5991 H   0  0  0  0  0  0  0  0  0  0  0  0
   58.5690   29.3740   48.2900 C   0  0  0  0  0  0  0  0  0  0  0  0
   57.6941   29.9574   47.9672 H   0  0  0  0  0  0  0  0  0  0  0  0
   58.1430   30.3330   45.4760 N   0  0  0  0  0  0  0  0  0  0  0  0
   57.3960   31.2420   44.7920 C   0  0  0  0  0  0  0  0  0  0  0  0
   57.7700   32.6180   44.8090 N   0  0  0  0  0  0  0  0  0  0  0  0
   58.7440   33.4790   44.1160 C   0  0  0  0  0  0  0  0  0  0  0  0
   59.7812   33.1367   44.2464 H   0  0  0  0  0  0  0  0  0  0  0  0
   58.6642   33.5441   43.0208 H   0  0  0  0  0  0  0  0  0  0  0  0
   58.4440   34.7180   44.8940 C   0  0  0  0  0  0  0  0  0  0  0  0
   58.1986   35.6934   44.4485 H   0  0  0  0  0  0  0  0  0  0  0  0
   59.5280   35.0770   45.7490 O   0  0  0  0  0  0  0  0  0  0  0  0
   59.9300   34.3320   46.8690 C   0  0  0  0  0  0  0  0  0  0  0  0
   60.8720   33.3130   46.6890 C   0  0  0  0  0  0  0  0  0  0  0  0
   61.2809   33.1208   45.6861 H   0  0  0  0  0  0  0  0  0  0  0  0
   61.2970   32.5400   47.7660 C   0  0  0  0  0  0  0  0  0  0  0  0
   62.0262   31.7313   47.6099 H   0  0  0  0  0  0  0  0  0  0  0  0
   60.7980   32.7920   49.0400 C   0  0  0  0  0  0  0  0  0  0  0  0
   61.2030   32.0320   50.0940 F   0  0  0  0  0  0  0  0  0  0  0  0
   59.8540   33.8040   49.2390 C   0  0  0  0  0  0  0  0  0  0  0  0
   59.4575   33.9966   50.2468 H   0  0  0  0  0  0  0  0  0  0  0  0
   59.4150   34.5700   48.1570 C   0  0  0  0  0  0  0  0  0  0  0  0
   58.6657   35.3604   48.3116 H   0  0  0  0  0  0  0  0  0  0  0  0
   57.4460   33.8350   45.5750 C   0  0  0  0  0  0  0  0  0  0  0  0
   57.6415   33.7241   46.6518 H   0  0  0  0  0  0  0  0  0  0  0  0
   56.3971   34.1664   45.5709 H   0  0  0  0  0  0  0  0  0  0  0  0
   56.2540   30.8240   44.1020 C   0  0  0  0  0  0  0  0  0  0  0  0
   55.6519   31.5414   43.5252 H   0  0  0  0  0  0  0  0  0  0  0  0
  1  2  1  0
  2  3  1  0
  3  4  1  0
  4  5  2  0
  5  6  1  0
  6  7  2  0
  7  8  1  0
  7  9  1  0
  9 10  1  0
  9 11  2  0
 11 12  1  0
 11 13  1  0
 13 14  1  0
 14 15  1  0
 14 16  1  0
 16 17  2  0
 16 18  1  0
 18 19  1  6
 18 20  1  0
 20 21  2  0
 21 22  1  0
 21 23  1  0
 23 24  1  0
 23 25  2  0
 25 26  1  0
 25 27  1  0
 27 28  1  0
 27 29  2  0
 29 30  1  0
 18 31  1  0
 31 32  1  0
 31 33  1  0
 31 34  1  0
 13 35  2  0
 35 36  1  0
  4 37  1  0
 37 38  2  0
 38 39  1  0
 39 40  1  0
 40 41  1  0
 40 42  1  0
 40 43  1  0
 43 44  1  0
 43 45  1  0
 45 46  1  0
 46 47  2  0
 47 48  1  0
 47 49  1  0
 49 50  1  0
 49 51  2  0
 51 52  1  0
 51 53  1  0
 53 54  1  0
 53 55  2  0
 55 56  1  0
 43 57  1  0
 57 58  1  0
 57 59  1  0
 38 60  1  0
 60 61  1  0
 60  2  2  0
 35  6  1  0
 57 39  1  0
 29 20  1  0
 55 46  1  0
M  CHG  1   3  -1
M  END
>  <UniqueID>  (66) 
58

>  <SMILES>  (66) 
C[C@H](C(=O)Nc1cccc(/N=c2/nc(N3CC(Oc4ccc(F)cc4)C3)cc[n-]2)c1)c1ccccc1

>  <Energy>  (66) 
122.74229857441972

>  <Genealogy>  (66) 
CC(C(=O)Nc1cccc(N=c2nc(N3CC(Oc4ccc(F)cc4)C3)cc[n-]2)c1)c1ccccc1 (protonated)
C[C@H](C(=O)Nc1cccc(N=c2nc(N3CC(Oc4ccc(F)cc4)C3)cc[n-]2)c1)c1ccccc1 (chirality)
C[C@H](C(=O)Nc1cccc(/N=c2/nc(N3CC(Oc4ccc(F)cc4)C3)cc[n-]2)c1)c1ccccc1 (cis-trans isomerization)
C[C@H](C(=O)Nc1cccc(/N=c2/nc(N3CC(Oc4ccc(F)cc4)C3)cc[n-]2)c1)c1ccccc1 (3D coordinates assigned)
C[C@H](C(=O)Nc1cccc(/N=c2/nc(N3CC(Oc4ccc(F)cc4)C3)cc[n-]2)c1)c1ccccc1 (nonaromatic ring conformer: 122.74229857441972 kcal/mol)

>  <smiles>  (66) 
CC(C(=O)Nc1cccc(N=c2nc(N3CC(Oc4ccc(F)cc4)C3)cc[nH]2)c1)c1ccccc1

>  <score_type>  (66) 
oracle

>  <origin>  (66) 
adg

>  <m_score__min__energy>  (66) 
-10.82

>  <m_primary>  (66) 
energy

$$$$
66:0
     RDKit          3D

 43 46  0  0  0  0  0  0  0  0999 V2000
   55.5260   28.5940   44.8510 O   0  0  0  0  0  0  0  0  0  0  0  0
   56.6580   28.8890   45.3180 C   0  0  0  0  0  0  0  0  0  0  0  0
   57.0370   30.2670   45.4180 N   0  0  0  0  0  0  0  0  0  0  0  0
   57.9300   30.9580   44.4900 C   0  0  0  0  0  0  0  0  0  0  0  0
   58.4170   32.2580   45.0790 C   0  0  0  0  0  0  0  0  0  0  0  0
   58.8040   32.3210   46.4270 C   0  0  0  0  0  0  0  0  0  0  0  0
   59.1990   33.5380   46.9910 C   0  0  0  0  0  0  0  0  0  0  0  0
   59.2160   34.6970   46.2110 C   0  0  0  0  0  0  0  0  0  0  0  0
   58.8480   34.6410   44.8650 C   0  0  0  0  0  0  0  0  0  0  0  0
   58.4550   33.4250   44.2970 C   0  0  0  0  0  0  0  0  0  0  0  0
   57.5750   27.8080   45.7260 C   0  0  0  0  0  0  0  0  0  0  0  0
   57.4340   26.5480   45.1290 C   0  0  0  0  0  0  0  0  0  0  0  0
   58.2530   25.4800   45.5340 C   0  0  0  0  0  0  0  0  0  0  0  0
   58.1210   24.1290   44.9340 C   0  0  0  0  0  0  0  0  0  0  0  0
   59.0390   23.1030   45.2250 C   0  0  0  0  0  0  0  0  0  0  0  0
   58.8880   21.8490   44.6300 C   0  0  0  0  0  0  0  0  0  0  0  0
   57.8620   21.6180   43.7680 N   0  0  0  0  0  0  0  0  0  0  0  0
   56.9650   22.5930   43.4570 C   0  0  0  0  0  0  0  0  0  0  0  0
   57.0810   23.8620   44.0290 C   0  0  0  0  0  0  0  0  0  0  0  0
   59.1910   25.6910   46.4970 N   0  0  0  0  0  0  0  0  0  0  0  0
   59.3600   26.8960   47.1000 C   0  0  0  0  0  0  0  0  0  0  0  0
   60.3210   27.0370   48.1080 C   0  0  0  0  0  0  0  0  0  0  0  0
   60.4790   28.2610   48.7600 C   0  0  0  0  0  0  0  0  0  0  0  0
   59.6810   29.3510   48.4080 C   0  0  0  0  0  0  0  0  0  0  0  0
   58.7220   29.2260   47.3990 C   0  0  0  0  0  0  0  0  0  0  0  0
   58.5510   27.9960   46.7290 C   0  0  0  0  0  0  0  0  0  0  0  0
   58.7951   30.3134   44.2753 H   0  0  0  0  0  0  0  0  0  0  0  0
   57.3752   31.1770   43.5657 H   0  0  0  0  0  0  0  0  0  0  0  0
   58.7965   31.4091   47.0421 H   0  0  0  0  0  0  0  0  0  0  0  0
   59.4964   33.5829   48.0491 H   0  0  0  0  0  0  0  0  0  0  0  0
   59.5197   35.6552   46.6578 H   0  0  0  0  0  0  0  0  0  0  0  0
   58.8673   35.5537   44.2513 H   0  0  0  0  0  0  0  0  0  0  0  0
   58.1746   33.3818   43.2342 H   0  0  0  0  0  0  0  0  0  0  0  0
   56.6810   26.3946   44.3420 H   0  0  0  0  0  0  0  0  0  0  0  0
   59.8724   23.2882   45.9186 H   0  0  0  0  0  0  0  0  0  0  0  0
   59.6021   21.0444   44.8595 H   0  0  0  0  0  0  0  0  0  0  0  0
   57.7620   20.6740   43.3310 H   0  0  0  0  0  0  0  0  0  0  0  0
   56.1465   22.3812   42.7533 H   0  0  0  0  0  0  0  0  0  0  0  0
   56.3590   24.6508   43.7710 H   0  0  0  0  0  0  0  0  0  0  0  0
   60.9532   26.1811   48.3870 H   0  0  0  0  0  0  0  0  0  0  0  0
   61.2340   28.3670   49.5529 H   0  0  0  0  0  0  0  0  0  0  0  0
   59.8075   30.3125   48.9271 H   0  0  0  0  0  0  0  0  0  0  0  0
   58.0981   30.0899   47.1261 H   0  0  0  0  0  0  0  0  0  0  0  0
  1  2  2  0
  2  3  1  0
  3  4  1  0
  4  5  1  0
  5  6  2  0
  6  7  1  0
  7  8  2  0
  8  9  1  0
  9 10  2  0
  2 11  1  0
 11 12  2  0
 12 13  1  0
 13 14  1  0
 14 15  2  0
 15 16  1  0
 16 17  2  0
 17 18  1  0
 18 19  2  0
 13 20  2  0
 20 21  1  0
 21 22  2  0
 22 23  1  0
 23 24  2  0
 24 25  1  0
 25 26  2  0
 10  5  1  0
 26 11  1  0
 19 14  1  0
 26 21  1  0
  4 27  1  0
  4 28  1  0
  6 29  1  0
  7 30  1  0
  8 31  1  0
  9 32  1  0
 10 33  1  0
 12 34  1  0
 15 35  1  0
 16 36  1  0
 17 37  1  0
 18 38  1  0
 19 39  1  0
 22 40  1  0
 23 41  1  0
 24 42  1  0
 25 43  1  0
M  CHG  2   3  -1  17   1
M  END
>  <UniqueID>  (67) 
59

>  <SMILES>  (67) 
O=C([N-]Cc1ccccc1)c1cc(-c2cc[nH+]cc2)nc2ccccc12

>  <Energy>  (67) 
57.05341810659337

>  <Genealogy>  (67) 
O=C([N-]Cc1ccccc1)c1cc(-c2cc[nH+]cc2)nc2ccccc12 (protonated)
O=C([N-]Cc1ccccc1)c1cc(-c2cc[nH+]cc2)nc2ccccc12 (3D coordinates assigned)
O=C([N-]Cc1ccccc1)c1cc(-c2cc[nH+]cc2)nc2ccccc12 (optimized conformer: 57.05341810659337 kcal/mol)

>  <smiles>  (67) 
O=C(NCc1ccccc1)c1cc(-c2ccncc2)nc2ccccc12

>  <score_type>  (67) 
oracle

>  <origin>  (67) 
adg

>  <m_score__min__energy>  (67) 
-9.1799999999999997

>  <m_primary>  (67) 
energy

$$$$
67:0
     RDKit          3D

 71 75  0  0  1  0  0  0  0  0999 V2000
   66.0910   32.8290   49.7200 N   0  0  0  0  0  0  0  0  0  0  0  0
   64.4910   32.4630   50.2850 S   0  0  0  0  0  0  0  0  0  0  0  0
   64.4130   30.9690   50.4800 O   0  0  0  0  0  0  0  0  0  0  0  0
   64.2950   33.2120   51.5720 O   0  0  0  0  0  0  0  0  0  0  0  0
   63.3130   33.0080   49.1300 C   0  0  0  0  0  0  0  0  0  0  0  0
   62.1470   33.5590   49.6080 C   0  0  0  0  0  0  0  0  0  0  0  0
   61.1770   34.0070   48.7410 C   0  0  0  0  0  0  0  0  0  0  0  0
   61.3210   33.9270   47.3510 C   0  0  0  0  0  0  0  0  0  0  0  0
   60.2490   34.3940   46.5660 N   0  0  0  0  0  0  0  0  0  0  0  0
   59.1490   33.6560   46.0950 C   0  0  0  0  0  0  0  0  0  0  0  0
   59.1990   32.3900   45.5640 C   0  0  0  0  0  0  0  0  0  0  0  0
   58.0690   31.7350   45.1470 C   0  0  0  0  0  0  0  0  0  0  0  0
   58.0460   30.5510   44.6400 N   0  0  0  0  0  0  0  0  0  0  0  0
   58.1460   29.3860   45.4910 C   0  0  0  0  0  0  0  0  0  0  0  0
   57.2130   28.4010   45.2510 C   0  0  0  0  0  0  0  0  0  0  0  0
   57.2410   27.2660   46.0280 C   0  0  0  0  0  0  0  0  0  0  0  0
   58.2000   27.1570   47.0140 C   0  0  0  0  0  0  0  0  0  0  0  0
   59.1410   28.1650   47.2450 C   0  0  0  0  0  0  0  0  0  0  0  0
   60.0860   27.9170   48.3190 C   0  0  0  0  0  0  0  0  0  0  0  0
   61.0280   27.0910   48.1430 O   0  0  0  0  0  0  0  0  0  0  0  0
   60.0330   28.5460   49.5900 N   0  0  0  0  0  0  0  0  0  0  0  0
   61.0540   28.1690   50.5230 C   0  0  0  0  0  0  0  0  0  0  0  0
   61.9380   29.1410   50.9870 C   0  0  0  0  0  0  0  0  0  0  0  0
   62.9170   28.8340   51.8810 C   0  0  0  0  0  0  0  0  0  0  0  0
   63.0890   27.5420   52.3780 C   0  0  0  0  0  0  0  0  0  0  0  0
   64.1460   27.2290   53.3560 C   0  0  0  0  0  0  0  0  0  0  0  0
   65.4710   27.1510   52.8100 N   0  0  0  0  0  0  0  0  0  0  0  0
   66.0150   28.4740   52.4770 C   0  0  0  0  0  0  0  0  0  0  0  0
   66.8770   28.2740   51.2460 C   0  0  0  0  0  0  0  0  0  0  0  0
   66.9190   26.7760   51.0180 C   0  0  0  0  0  0  0  0  0  0  0  0
   65.5940   26.3460   51.6370 C   0  0  0  0  0  0  0  0  0  0  0  0
   62.2090   26.5600   51.9200 C   0  0  0  0  0  0  0  0  0  0  0  0
   62.3380   25.1460   52.4100 C   0  0  0  0  0  0  0  0  0  0  0  0
   62.3070   25.1820   53.7820 F   0  0  0  0  0  0  0  0  0  0  0  0
   61.2280   24.4450   51.9550 F   0  0  0  0  0  0  0  0  0  0  0  0
   63.4320   24.5250   51.8810 F   0  0  0  0  0  0  0  0  0  0  0  0
   61.2130   26.9090   51.0000 C   0  0  0  0  0  0  0  0  0  0  0  0
   59.1090   29.2870   46.4740 C   0  0  0  0  0  0  0  0  0  0  0  0
   56.8920   32.3660   45.2710 N   0  0  0  0  0  0  0  0  0  0  0  0
   56.7970   33.5860   45.7780 C   0  0  0  0  0  0  0  0  0  0  0  0
   57.9080   34.2130   46.1800 N   0  0  0  0  0  0  0  0  0  0  0  0
   62.4800   33.3770   46.8910 C   0  0  0  0  0  0  0  0  0  0  0  0
   63.4710   32.9210   47.7650 C   0  0  0  0  0  0  0  0  0  0  0  0
   66.0250   33.0910   48.6910 H   0  0  0  0  0  0  0  0  0  0  0  0
   66.6920   31.9680   49.8510 H   0  0  0  0  0  0  0  0  0  0  0  0
   61.9885   33.6423   50.6933 H   0  0  0  0  0  0  0  0  0  0  0  0
   60.2560   34.4434   49.1548 H   0  0  0  0  0  0  0  0  0  0  0  0
   60.2810   35.4150   46.3050 H   0  0  0  0  0  0  0  0  0  0  0  0
   60.1731   31.8876   45.4707 H   0  0  0  0  0  0  0  0  0  0  0  0
   56.4623   28.5195   44.4557 H   0  0  0  0  0  0  0  0  0  0  0  0
   56.5112   26.4591   45.8659 H   0  0  0  0  0  0  0  0  0  0  0  0
   58.2250   26.2505   47.6366 H   0  0  0  0  0  0  0  0  0  0  0  0
   59.2860   29.2380   49.8040 H   0  0  0  0  0  0  0  0  0  0  0  0
   61.8428   30.1751   50.6242 H   0  0  0  0  0  0  0  0  0  0  0  0
   63.5945   29.6303   52.2227 H   0  0  0  0  0  0  0  0  0  0  0  0
   64.1402   28.0127   54.1279 H   0  0  0  0  0  0  0  0  0  0  0  0
   63.9153   26.2281   53.7497 H   0  0  0  0  0  0  0  0  0  0  0  0
   65.1990   29.1795   52.2616 H   0  0  0  0  0  0  0  0  0  0  0  0
   66.5962   28.8923   53.3120 H   0  0  0  0  0  0  0  0  0  0  0  0
   66.4313   28.7823   50.3782 H   0  0  0  0  0  0  0  0  0  0  0  0
   67.8846   28.6939   51.3816 H   0  0  0  0  0  0  0  0  0  0  0  0
   66.9613   26.5322   49.9462 H   0  0  0  0  0  0  0  0  0  0  0  0
   67.8009   26.2782   51.4473 H   0  0  0  0  0  0  0  0  0  0  0  0
   64.7609   26.5374   50.9447 H   0  0  0  0  0  0  0  0  0  0  0  0
   65.5669   25.2698   51.8628 H   0  0  0  0  0  0  0  0  0  0  0  0
   60.5271   26.1246   50.6474 H   0  0  0  0  0  0  0  0  0  0  0  0
   59.8358   30.0975   46.6317 H   0  0  0  0  0  0  0  0  0  0  0  0
   55.8169   34.0773   45.8673 H   0  0  0  0  0  0  0  0  0  0  0  0
   57.7840   35.1750   46.5730 H   0  0  0  0  0  0  0  0  0  0  0  0
   62.6394   33.2898   45.8061 H   0  0  0  0  0  0  0  0  0  0  0  0
   64.3938   32.4848   47.3549 H   0  0  0  0  0  0  0  0  0  0  0  0
  1  2  1  0
  2  3  2  0
  2  4  2  0
  2  5  1  0
  5  6  2  0
  6  7  1  0
  7  8  2  0
  8  9  1  0
  9 10  1  0
 10 11  2  0
 11 12  1  0
 12 13  2  0
 13 14  1  0
 14 15  2  0
 15 16  1  0
 16 17  2  0
 17 18  1  0
 18 19  1  0
 19 20  2  0
 19 21  1  0
 21 22  1  0
 22 23  2  0
 23 24  1  0
 24 25  2  0
 25 26  1  0
 26 27  1  0
 27 28  1  0
 28 29  1  0
 29 30  1  0
 30 31  1  0
 25 32  1  0
 32 33  1  0
 33 34  1  0
 33 35  1  0
 33 36  1  0
 32 37  2  0
 18 38  2  0
 12 39  1  0
 39 40  2  0
 40 41  1  0
  8 42  1  0
 42 43  2  0
 43  5  1  0
 41 10  1  0
 38 14  1  0
 37 22  1  0
 31 27  1  0
  1 44  1  0
  1 45  1  0
  6 46  1  0
  7 47  1  0
  9 48  1  0
 11 49  1  0
 15 50  1  0
 16 51  1  0
 17 52  1  0
 21 53  1  0
 23 54  1  0
 24 55  1  0
 26 56  1  0
 26 57  1  0
 28 58  1  0
 28 59  1  0
 29 60  1  0
 29 61  1  0
 30 62  1  0
 30 63  1  0
 31 64  1  0
 31 65  1  0
 37 66  1  0
 38 67  1  0
 40 68  1  0
 41 69  1  0
 42 70  1  0
 43 71  1  0
M  END
>  <smiles>  (68) 
NS(=O)(=O)c1ccc(Nc2cc(=Nc3cccc(C(=O)Nc4ccc(CN5CCCC5)c(C(F)(F)F)c4)c3)nc[nH]2)cc1

>  <score_type>  (68) 
oracle

>  <origin>  (68) 
adg

>  <m_score__min__energy>  (68) 
-11.23

>  <m_primary>  (68) 
energy

$$$$
68:0
     RDKit          3D

 53 56  0  0  0  0  0  0  0  0999 V2000
   59.9720   33.8130   51.0660 C   0  0  0  0  0  0  0  0  0  0  0  0
   60.8580   33.8420   49.8560 C   0  0  0  0  0  0  0  0  0  0  0  0
   62.2480   33.7370   49.9940 C   0  0  0  0  0  0  0  0  0  0  0  0
   63.0710   33.7290   48.8650 C   0  0  0  0  0  0  0  0  0  0  0  0
   62.5150   33.8110   47.5790 C   0  0  0  0  0  0  0  0  0  0  0  0
   63.4120   33.7620   46.3730 C   0  0  0  0  0  0  0  0  0  0  0  0
   61.1140   33.8560   47.4330 C   0  0  0  0  0  0  0  0  0  0  0  0
   60.5310   33.8800   46.1230 N   0  0  0  0  0  0  0  0  0  0  0  0
   59.2990   34.5260   45.7710 C   0  0  0  0  0  0  0  0  0  0  0  0
   59.3460   35.6640   45.2360 O   0  0  0  0  0  0  0  0  0  0  0  0
   57.9520   33.8720   45.9770 C   0  0  0  0  0  0  0  0  0  0  0  0
   58.0580   32.4040   46.0810 N   0  0  0  0  0  0  0  0  0  0  0  0
   58.6180   31.8540   47.2090 C   0  0  0  0  0  0  0  0  0  0  0  0
   58.7990   30.5100   47.3140 N   0  0  0  0  0  0  0  0  0  0  0  0
   58.3930   29.7120   46.3050 C   0  0  0  0  0  0  0  0  0  0  0  0
   58.5680   28.0520   46.2210 S   0  0  0  0  0  0  0  0  0  0  0  0
   57.8550   27.9120   44.6920 C   0  0  0  0  0  0  0  0  0  0  0  0
   57.7520   26.6300   43.9740 C   0  0  0  0  0  0  0  0  0  0  0  0
   58.2000   26.5490   42.7990 O   0  0  0  0  0  0  0  0  0  0  0  0
   57.0560   25.5160   44.5570 N   0  0  0  0  0  0  0  0  0  0  0  0
   57.2010   24.1570   44.1120 C   0  0  0  0  0  0  0  0  0  0  0  0
   56.3350   23.6580   43.1260 C   0  0  0  0  0  0  0  0  0  0  0  0
   56.4420   22.3320   42.6960 C   0  0  0  0  0  0  0  0  0  0  0  0
   57.4050   21.4890   43.2550 C   0  0  0  0  0  0  0  0  0  0  0  0
   58.2580   21.9690   44.2530 C   0  0  0  0  0  0  0  0  0  0  0  0
   58.1550   23.2940   44.6860 C   0  0  0  0  0  0  0  0  0  0  0  0
   57.4340   29.1830   44.2510 C   0  0  0  0  0  0  0  0  0  0  0  0
   56.6840   29.4260   42.9700 C   0  0  0  0  0  0  0  0  0  0  0  0
   57.7780   30.2010   45.1720 C   0  0  0  0  0  0  0  0  0  0  0  0
   57.6010   31.5900   45.0680 C   0  0  0  0  0  0  0  0  0  0  0  0
   57.0490   32.0890   44.0500 O   0  0  0  0  0  0  0  0  0  0  0  0
   60.2950   33.8940   48.5720 C   0  0  0  0  0  0  0  0  0  0  0  0
   60.5916   33.8333   51.9747 H   0  0  0  0  0  0  0  0  0  0  0  0
   59.3080   34.6899   51.0553 H   0  0  0  0  0  0  0  0  0  0  0  0
   59.3667   32.8946   51.0553 H   0  0  0  0  0  0  0  0  0  0  0  0
   62.6940   33.6604   50.9966 H   0  0  0  0  0  0  0  0  0  0  0  0
   64.1621   33.6579   48.9849 H   0  0  0  0  0  0  0  0  0  0  0  0
   64.4612   33.7047   46.6985 H   0  0  0  0  0  0  0  0  0  0  0  0
   63.1665   32.8759   45.7692 H   0  0  0  0  0  0  0  0  0  0  0  0
   63.2645   34.6695   45.7692 H   0  0  0  0  0  0  0  0  0  0  0  0
   57.5064   34.2620   46.9040 H   0  0  0  0  0  0  0  0  0  0  0  0
   57.3250   34.1054   45.1039 H   0  0  0  0  0  0  0  0  0  0  0  0
   58.9239   32.5093   48.0379 H   0  0  0  0  0  0  0  0  0  0  0  0
   56.3360   25.7220   45.2860 H   0  0  0  0  0  0  0  0  0  0  0  0
   55.5678   24.3142   42.6892 H   0  0  0  0  0  0  0  0  0  0  0  0
   55.7662   21.9519   41.9157 H   0  0  0  0  0  0  0  0  0  0  0  0
   57.4922   20.4481   42.9102 H   0  0  0  0  0  0  0  0  0  0  0  0
   59.0116   21.3028   44.6983 H   0  0  0  0  0  0  0  0  0  0  0  0
   58.8218   23.6645   45.4785 H   0  0  0  0  0  0  0  0  0  0  0  0
   55.6610   29.7575   43.2013 H   0  0  0  0  0  0  0  0  0  0  0  0
   57.1981   30.2035   42.3859 H   0  0  0  0  0  0  0  0  0  0  0  0
   56.6445   28.4947   42.3859 H   0  0  0  0  0  0  0  0  0  0  0  0
   59.2033   33.9651   48.4572 H   0  0  0  0  0  0  0  0  0  0  0  0
  1  2  1  0
  2  3  2  0
  3  4  1  0
  4  5  2  0
  5  6  1  0
  5  7  1  0
  7  8  1  0
  8  9  1  0
  9 10  2  0
  9 11  1  0
 11 12  1  0
 12 13  1  0
 13 14  2  0
 14 15  1  0
 15 16  1  0
 16 17  1  0
 17 18  1  0
 18 19  2  0
 18 20  1  0
 20 21  1  0
 21 22  2  0
 22 23  1  0
 23 24  2  0
 24 25  1  0
 25 26  2  0
 17 27  2  0
 27 28  1  0
 27 29  1  0
 29 30  1  0
 30 31  2  0
  7 32  2  0
 32  2  1  0
 30 12  1  0
 29 15  2  0
 26 21  1  0
  1 33  1  0
  1 34  1  0
  1 35  1  0
  3 36  1  0
  4 37  1  0
  6 38  1  0
  6 39  1  0
  6 40  1  0
 11 41  1  0
 11 42  1  0
 13 43  1  0
 20 44  1  0
 22 45  1  0
 23 46  1  0
 24 47  1  0
 25 48  1  0
 26 49  1  0
 28 50  1  0
 28 51  1  0
 28 52  1  0
 32 53  1  0
M  CHG  1   8  -1
M  END
>  <UniqueID>  (69) 
60

>  <SMILES>  (69) 
Cc1ccc(C)c([N-]C(=O)Cn2cnc3sc(C(=O)Nc4ccccc4)c(C)c3c2=O)c1

>  <Energy>  (69) 
101.25940971922617

>  <Genealogy>  (69) 
Cc1ccc(C)c([N-]C(=O)Cn2cnc3sc(C(=O)Nc4ccccc4)c(C)c3c2=O)c1 (protonated)
Cc1ccc(C)c([N-]C(=O)Cn2cnc3sc(C(=O)Nc4ccccc4)c(C)c3c2=O)c1 (3D coordinates assigned)
Cc1ccc(C)c([N-]C(=O)Cn2cnc3sc(C(=O)Nc4ccccc4)c(C)c3c2=O)c1 (optimized conformer: 101.25940971922617 kcal/mol)

>  <smiles>  (69) 
Cc1ccc(C)c(NC(=O)Cn2cnc3sc(C(=O)Nc4ccccc4)c(C)c3c2=O)c1

>  <score_type>  (69) 
oracle

>  <origin>  (69) 
adg

>  <m_score__min__energy>  (69) 
-10.609999999999999

>  <m_primary>  (69) 
energy

$$$$
69:0
     RDKit          3D

 51 54  0  0  0  0  0  0  0  0999 V2000
   60.7772   30.9007   47.1777 H   0  0  0  0  0  0  0  0  0  0  0  0
   59.8550   30.4350   46.8000 C   0  0  0  0  0  0  0  0  0  0  0  0
   59.1920   30.9820   45.7530 N   0  0  0  0  0  0  0  0  0  0  0  0
   58.0670   30.4150   45.2400 C   0  0  0  0  0  0  0  0  0  0  0  0
   57.3740   31.0360   44.1850 C   0  0  0  0  0  0  0  0  0  0  0  0
   57.8490   32.2870   43.5500 C   0  0  0  0  0  0  0  0  0  0  0  0
   57.6580   32.4710   42.3180 O   0  0  0  0  0  0  0  0  0  0  0  0
   58.5580   33.2770   44.2990 N   0  0  0  0  0  0  0  0  0  0  0  0
   58.8810   33.0880   45.2740 H   0  0  0  0  0  0  0  0  0  0  0  0
   58.8460   34.1710   43.8440 H   0  0  0  0  0  0  0  0  0  0  0  0
   56.1770   30.4630   43.7520 C   0  0  0  0  0  0  0  0  0  0  0  0
   55.5841   30.9612   42.9708 H   0  0  0  0  0  0  0  0  0  0  0  0
   55.7400   29.2960   44.2880 N   0  0  0  0  0  0  0  0  0  0  0  0
   56.3950   28.6280   45.2750 C   0  0  0  0  0  0  0  0  0  0  0  0
   55.8900   27.4720   45.6200 N   0  0  0  0  0  0  0  0  0  0  0  0
   56.3900   26.0980   45.7680 C   0  0  0  0  0  0  0  0  0  0  0  0
   55.4660   25.5168   45.6324 H   0  0  0  0  0  0  0  0  0  0  0  0
   56.9750   25.7800   47.1360 C   0  0  0  0  0  0  0  0  0  0  0  0
   57.5178   26.6470   47.5406 H   0  0  0  0  0  0  0  0  0  0  0  0
   56.2035   25.5312   47.8796 H   0  0  0  0  0  0  0  0  0  0  0  0
   57.9260   24.6230   46.8680 C   0  0  0  0  0  0  0  0  0  0  0  0
   58.7703   24.6536   47.5724 H   0  0  0  0  0  0  0  0  0  0  0  0
   57.4217   23.6541   46.9981 H   0  0  0  0  0  0  0  0  0  0  0  0
   58.4270   24.7990   45.4340 C   0  0  0  0  0  0  0  0  0  0  0  0
   59.4088   25.2950   45.4350 H   0  0  0  0  0  0  0  0  0  0  0  0
   58.5416   23.8250   44.9357 H   0  0  0  0  0  0  0  0  0  0  0  0
   57.4010   25.6670   44.7060 C   0  0  0  0  0  0  0  0  0  0  0  0
   57.8897   26.5473   44.2631 H   0  0  0  0  0  0  0  0  0  0  0  0
   56.9162   25.1178   43.8854 H   0  0  0  0  0  0  0  0  0  0  0  0
   57.5760   29.2140   45.8130 C   0  0  0  0  0  0  0  0  0  0  0  0
   58.2330   28.6960   46.8870 N   0  0  0  0  0  0  0  0  0  0  0  0
   59.3560   29.2730   47.3960 C   0  0  0  0  0  0  0  0  0  0  0  0
   60.0120   28.7000   48.5850 C   0  0  0  0  0  0  0  0  0  0  0  0
   60.5060   29.5330   49.5990 C   0  0  0  0  0  0  0  0  0  0  0  0
   60.3925   30.6239   49.5144 H   0  0  0  0  0  0  0  0  0  0  0  0
   61.1420   28.9850   50.7170 C   0  0  0  0  0  0  0  0  0  0  0  0
   61.5290   29.6504   51.5028 H   0  0  0  0  0  0  0  0  0  0  0  0
   61.2930   27.5900   50.8490 C   0  0  0  0  0  0  0  0  0  0  0  0
   61.9590   27.0180   52.0060 N   0  0  0  0  0  0  0  0  0  0  0  0
   62.5180   25.6630   51.9510 C   0  0  0  0  0  0  0  0  0  0  0  0
   62.6726   25.2883   52.9736 H   0  0  0  0  0  0  0  0  0  0  0  0
   61.8201   24.9997   51.4191 H   0  0  0  0  0  0  0  0  0  0  0  0
   63.4806   25.6848   51.4191 H   0  0  0  0  0  0  0  0  0  0  0  0
   62.0810   27.7880   53.2500 C   0  0  0  0  0  0  0  0  0  0  0  0
   61.9739   27.1124   54.1114 H   0  0  0  0  0  0  0  0  0  0  0  0
   63.0673   28.2737   53.2853 H   0  0  0  0  0  0  0  0  0  0  0  0
   61.2932   28.5548   53.2853 H   0  0  0  0  0  0  0  0  0  0  0  0
   60.7790   26.7630   49.8290 C   0  0  0  0  0  0  0  0  0  0  0  0
   60.8801   25.6708   49.9124 H   0  0  0  0  0  0  0  0  0  0  0  0
   60.1430   27.3140   48.7140 C   0  0  0  0  0  0  0  0  0  0  0  0
   59.7423   26.6526   47.9317 H   0  0  0  0  0  0  0  0  0  0  0  0
  1  2  1  0
  2  3  2  0
  3  4  1  0
  4  5  1  0
  5  6  1  0
  6  7  2  0
  6  8  1  0
  8  9  1  0
  8 10  1  0
  5 11  2  0
 11 12  1  0
 11 13  1  0
 13 14  1  0
 14 15  2  0
 15 16  1  0
 16 17  1  0
 16 18  1  0
 18 19  1  0
 18 20  1  0
 18 21  1  0
 21 22  1  0
 21 23  1  0
 21 24  1  0
 24 25  1  0
 24 26  1  0
 24 27  1  0
 27 28  1  0
 27 29  1  0
 14 30  1  0
 30 31  1  0
 31 32  2  0
 32 33  1  0
 33 34  2  0
 34 35  1  0
 34 36  1  0
 36 37  1  0
 36 38  2  0
 38 39  1  0
 39 40  1  0
 40 41  1  0
 40 42  1  0
 40 43  1  0
 39 44  1  0
 44 45  1  0
 44 46  1  0
 44 47  1  0
 38 48  1  0
 48 49  1  0
 48 50  2  0
 50 51  1  0
 32  2  1  0
 50 33  1  0
 30  4  2  0
 27 16  1  0
M  CHG  1  13  -1
M  END
>  <UniqueID>  (70) 
61

>  <SMILES>  (70) 
CN(C)c1ccc(-c2cnc3c(C(N)=O)c[n-]/c(=N/C4CCCC4)c3n2)cc1

>  <Energy>  (70) 
81.42690410053731

>  <Genealogy>  (70) 
CN(C)c1ccc(-c2cnc3c(C(N)=O)c[n-]c(=NC4CCCC4)c3n2)cc1 (protonated)
CN(C)c1ccc(-c2cnc3c(C(N)=O)c[n-]/c(=N/C4CCCC4)c3n2)cc1 (cis-trans isomerization)
CN(C)c1ccc(-c2cnc3c(C(N)=O)c[n-]/c(=N/C4CCCC4)c3n2)cc1 (3D coordinates assigned)
CN(C)c1ccc(-c2cnc3c(C(N)=O)c[n-]/c(=N/C4CCCC4)c3n2)cc1 (nonaromatic ring conformer: 81.42690410053731 kcal/mol)

>  <smiles>  (70) 
CN(C)c1ccc(-c2cnc3c(C(N)=O)c[nH]c(=NC4CCCC4)c3n2)cc1

>  <score_type>  (70) 
oracle

>  <origin>  (70) 
adg

>  <m_score__min__energy>  (70) 
-9.8399999999999999

>  <m_primary>  (70) 
energy

$$$$
70:0
     RDKit          3D

 47 50  0  0  0  0  0  0  0  0999 V2000
   54.7890   28.3330   44.2210 H   0  0  0  0  0  0  0  0  0  0  0  0
   55.0730   29.3350   44.2940 N   0  0  0  0  0  0  0  0  0  0  0  0
   56.1660   29.6850   44.8910 C   0  0  0  0  0  0  0  0  0  0  0  0
   56.6180   30.9750   44.7960 N   0  0  0  0  0  0  0  0  0  0  0  0
   57.7630   31.3770   45.4190 C   0  0  0  0  0  0  0  0  0  0  0  0
   58.1770   32.5560   45.2760 O   0  0  0  0  0  0  0  0  0  0  0  0
   58.4570   30.4410   46.1850 C   0  0  0  0  0  0  0  0  0  0  0  0
   59.6320   30.4780   46.9270 C   0  0  0  0  0  0  0  0  0  0  0  0
   60.5140   31.6290   47.2160 C   0  0  0  0  0  0  0  0  0  0  0  0
   59.9780   32.8680   47.6030 C   0  0  0  0  0  0  0  0  0  0  0  0
   58.8875   32.9954   47.6704 H   0  0  0  0  0  0  0  0  0  0  0  0
   60.8230   33.9400   47.9030 C   0  0  0  0  0  0  0  0  0  0  0  0
   60.3961   34.9097   48.1986 H   0  0  0  0  0  0  0  0  0  0  0  0
   62.2090   33.7820   47.8280 C   0  0  0  0  0  0  0  0  0  0  0  0
   62.8726   34.6287   48.0578 H   0  0  0  0  0  0  0  0  0  0  0  0
   62.7520   32.5480   47.4610 C   0  0  0  0  0  0  0  0  0  0  0  0
   63.8434   32.4220   47.4072 H   0  0  0  0  0  0  0  0  0  0  0  0
   61.9090   31.4730   47.1620 C   0  0  0  0  0  0  0  0  0  0  0  0
   62.3405   30.5003   46.8831 H   0  0  0  0  0  0  0  0  0  0  0  0
   59.8310   29.1730   47.3780 C   0  0  0  0  0  0  0  0  0  0  0  0
   60.6836   28.8441   47.9903 H   0  0  0  0  0  0  0  0  0  0  0  0
   58.8270   28.3680   46.9560 N   0  0  0  0  0  0  0  0  0  0  0  0
   58.6750   26.9400   47.2370 C   0  0  0  0  0  0  0  0  0  0  0  0
   59.2643   26.6844   48.1300 H   0  0  0  0  0  0  0  0  0  0  0  0
   57.6089   26.7275   47.4049 H   0  0  0  0  0  0  0  0  0  0  0  0
   59.1620   26.0920   46.0550 C   0  0  0  0  0  0  0  0  0  0  0  0
   60.2536   25.9784   46.1286 H   0  0  0  0  0  0  0  0  0  0  0  0
   58.6494   25.1202   46.1077 H   0  0  0  0  0  0  0  0  0  0  0  0
   58.8210   26.7290   44.6880 C   0  0  0  0  0  0  0  0  0  0  0  0
   59.0530   27.8034   44.7301 H   0  0  0  0  0  0  0  0  0  0  0  0
   59.4206   26.2197   43.9192 H   0  0  0  0  0  0  0  0  0  0  0  0
   57.4000   26.5640   44.3360 N   0  0  0  0  0  0  0  0  0  0  0  0
   57.2870   26.7340   43.3090 H   0  0  0  0  0  0  0  0  0  0  0  0
   56.8210   27.2820   44.8310 H   0  0  0  0  0  0  0  0  0  0  0  0
   56.9360   25.2280   44.6340 C   0  0  0  0  0  0  0  0  0  0  0  0
   56.1280   24.9810   45.7600 C   0  0  0  0  0  0  0  0  0  0  0  0
   55.8309   25.8147   46.4132 H   0  0  0  0  0  0  0  0  0  0  0  0
   55.7010   23.6830   46.0530 C   0  0  0  0  0  0  0  0  0  0  0  0
   55.0766   23.4979   46.9395 H   0  0  0  0  0  0  0  0  0  0  0  0
   56.0650   22.6200   45.2230 C   0  0  0  0  0  0  0  0  0  0  0  0
   55.5260   20.9920   45.5930 Cl  0  0  0  0  0  0  0  0  0  0  0  0
   56.8610   22.8550   44.0970 C   0  0  0  0  0  0  0  0  0  0  0  0
   57.1441   22.0191   43.4404 H   0  0  0  0  0  0  0  0  0  0  0  0
   57.2970   24.1500   43.8050 C   0  0  0  0  0  0  0  0  0  0  0  0
   57.9268   24.3279   42.9209 H   0  0  0  0  0  0  0  0  0  0  0  0
   58.0030   29.1530   46.2380 C   0  0  0  0  0  0  0  0  0  0  0  0
   56.8700   28.7600   45.6060 N   0  0  0  0  0  0  0  0  0  0  0  0
  1  2  1  0
  2  3  2  0
  3  4  1  0
  4  5  1  0
  5  6  2  0
  5  7  1  0
  7  8  1  0
  8  9  1  0
  9 10  2  0
 10 11  1  0
 10 12  1  0
 12 13  1  0
 12 14  2  0
 14 15  1  0
 14 16  1  0
 16 17  1  0
 16 18  2  0
 18 19  1  0
  8 20  2  0
 20 21  1  0
 20 22  1  0
 22 23  1  0
 23 24  1  0
 23 25  1  0
 23 26  1  0
 26 27  1  0
 26 28  1  0
 26 29  1  0
 29 30  1  0
 29 31  1  0
 29 32  1  0
 32 33  1  0
 32 34  1  0
 32 35  1  0
 35 36  2  0
 36 37  1  0
 36 38  1  0
 38 39  1  0
 38 40  2  0
 40 41  1  0
 40 42  1  0
 42 43  1  0
 42 44  2  0
 44 45  1  0
 22 46  1  0
 46 47  1  0
 47  3  1  0
 46  7  2  0
 18  9  1  0
 44 35  1  0
M  CHG  3   4  -1  32   1  47  -1
M  END
>  <UniqueID>  (71) 
62

>  <SMILES>  (71) 
[H]/N=c1\[n-]c(=O)c2c(-c3ccccc3)cn(CCC[NH2+]c3ccc(Cl)cc3)c2[n-]1

>  <Energy>  (71) 
86.61790781478255

>  <Genealogy>  (71) 
N=c1[n-]c(=O)c2c(-c3ccccc3)cn(CCC[NH2+]c3ccc(Cl)cc3)c2[n-]1 (protonated)
[H]/N=c1\[n-]c(=O)c2c(-c3ccccc3)cn(CCC[NH2+]c3ccc(Cl)cc3)c2[n-]1 (cis-trans isomerization)
[H]/N=c1\[n-]c(=O)c2c(-c3ccccc3)cn(CCC[NH2+]c3ccc(Cl)cc3)c2[n-]1 (3D coordinates assigned)
[H]/N=c1\[n-]c(=O)c2c(-c3ccccc3)cn(CCC[NH2+]c3ccc(Cl)cc3)c2[n-]1 (optimized conformer: 86.61790781478255 kcal/mol)

>  <smiles>  (71) 
N=c1[nH]c(=O)c2c(-c3ccccc3)cn(CCCNc3ccc(Cl)cc3)c2[nH]1

>  <score_type>  (71) 
oracle

>  <origin>  (71) 
adg

>  <m_score__min__energy>  (71) 
-10.42

>  <m_primary>  (71) 
energy

$$$$
71:0
     RDKit          3D

 51 54  0  0  1  0  0  0  0  0999 V2000
   54.0630   23.2410   45.9250 C   0  0  0  0  0  0  0  0  0  0  0  0
   55.3660   23.8730   45.8260 N   0  0  0  0  0  0  0  0  0  0  0  0
   55.5090   25.2840   45.8320 C   0  0  0  0  0  0  0  0  0  0  0  0
   54.4230   25.9490   45.9300 O   0  0  0  0  0  0  0  0  0  0  0  0
   56.7980   25.9560   45.7350 C   0  0  0  0  0  0  0  0  0  0  0  0
   58.0040   25.2940   45.7490 C   0  0  0  0  0  0  0  0  0  0  0  0
   59.2190   25.9630   45.6550 C   0  0  0  0  0  0  0  0  0  0  0  0
   59.2220   27.3400   45.5410 C   0  0  0  0  0  0  0  0  0  0  0  0
   60.4960   28.1010   45.4370 C   0  0  0  0  0  0  0  0  0  0  0  0
   58.0200   28.0210   45.5240 C   0  0  0  0  0  0  0  0  0  0  0  0
   58.0120   29.4530   45.4060 N   0  0  0  0  0  0  0  0  0  0  0  0
   58.3510   30.2110   46.3690 C   0  0  0  0  0  0  0  0  0  0  0  0
   58.5800   29.7200   47.6020 N   0  0  0  0  0  0  0  0  0  0  0  0
   58.9390   30.5470   48.6100 C   0  0  0  0  0  0  0  0  0  0  0  0
   59.0750   31.8820   48.4040 N   0  0  0  0  0  0  0  0  0  0  0  0
   58.8550   32.4160   47.1880 C   0  0  0  0  0  0  0  0  0  0  0  0
   58.4890   31.5850   46.1490 C   0  0  0  0  0  0  0  0  0  0  0  0
   58.3380   32.4030   45.0570 C   0  0  0  0  0  0  0  0  0  0  0  0
   58.5980   33.6470   45.4130 N   0  0  0  0  0  0  0  0  0  0  0  0
   58.9160   33.6760   46.7150 N   0  0  0  0  0  0  0  0  0  0  0  0
   59.2660   34.8940   47.4600 C   0  0  0  0  0  0  0  0  0  0  0  0
   60.1410   34.6040   48.6510 C   0  0  0  0  0  0  0  0  0  0  0  0
   61.4100   33.9950   48.1700 C   0  0  0  0  0  0  0  0  0  0  0  0
   62.1870   33.2410   49.0580 C   0  0  0  0  0  0  0  0  0  0  0  0
   63.3440   32.7010   48.5730 C   0  0  0  0  0  0  0  0  0  0  0  0
   63.7710   32.8630   47.2760 C   0  0  0  0  0  0  0  0  0  0  0  0
   63.0070   33.6110   46.3810 C   0  0  0  0  0  0  0  0  0  0  0  0
   61.8360   34.1600   46.8670 C   0  0  0  0  0  0  0  0  0  0  0  0
   56.8230   27.3200   45.6210 C   0  0  0  0  0  0  0  0  0  0  0  0
   53.7975   23.1122   46.9847 H   0  0  0  0  0  0  0  0  0  0  0  0
   53.3101   23.8740   45.4327 H   0  0  0  0  0  0  0  0  0  0  0  0
   54.0940   22.2578   45.4327 H   0  0  0  0  0  0  0  0  0  0  0  0
   56.2080   23.2620   45.7490 H   0  0  0  0  0  0  0  0  0  0  0  0
   58.0069   24.1976   45.8376 H   0  0  0  0  0  0  0  0  0  0  0  0
   60.1658   25.4033   45.6712 H   0  0  0  0  0  0  0  0  0  0  0  0
   60.8723   28.3257   46.4459 H   0  0  0  0  0  0  0  0  0  0  0  0
   61.2395   27.4989   44.8941 H   0  0  0  0  0  0  0  0  0  0  0  0
   60.3183   29.0410   44.8941 H   0  0  0  0  0  0  0  0  0  0  0  0
   58.4820   28.7160   47.7730 H   0  0  0  0  0  0  0  0  0  0  0  0
   59.1236   30.1318   49.6118 H   0  0  0  0  0  0  0  0  0  0  0  0
   58.0473   32.0747   44.0482 H   0  0  0  0  0  0  0  0  0  0  0  0
   59.8013   35.5792   46.7863 H   0  0  0  0  0  0  0  0  0  0  0  0
   58.3320   35.3423   47.8298 H   0  0  0  0  0  0  0  0  0  0  0  0
   60.3587   35.5393   49.1875 H   0  0  0  0  0  0  0  0  0  0  0  0
   59.6277   33.9123   49.3351 H   0  0  0  0  0  0  0  0  0  0  0  0
   61.8783   33.0899   50.1029 H   0  0  0  0  0  0  0  0  0  0  0  0
   63.9671   32.1050   49.2560 H   0  0  0  0  0  0  0  0  0  0  0  0
   64.7139   32.4032   46.9450 H   0  0  0  0  0  0  0  0  0  0  0  0
   63.3218   33.7571   45.3372 H   0  0  0  0  0  0  0  0  0  0  0  0
   61.2138   34.7566   46.1837 H   0  0  0  0  0  0  0  0  0  0  0  0
   55.8733   27.8748   45.6058 H   0  0  0  0  0  0  0  0  0  0  0  0
  1  2  1  0
  2  3  1  0
  3  4  2  0
  3  5  1  0
  5  6  2  0
  6  7  1  0
  7  8  2  0
  8  9  1  0
  8 10  1  0
 10 11  1  0
 11 12  2  0
 12 13  1  0
 13 14  1  0
 14 15  2  0
 15 16  1  0
 16 17  2  0
 17 18  1  0
 18 19  2  0
 19 20  1  0
 20 21  1  0
 21 22  1  0
 22 23  1  0
 23 24  2  0
 24 25  1  0
 25 26  2  0
 26 27  1  0
 27 28  2  0
 10 29  2  0
 29  5  1  0
 17 12  1  0
 28 23  1  0
 20 16  1  0
  1 30  1  0
  1 31  1  0
  1 32  1  0
  2 33  1  0
  6 34  1  0
  7 35  1  0
  9 36  1  0
  9 37  1  0
  9 38  1  0
 13 39  1  0
 14 40  1  0
 18 41  1  0
 21 42  1  0
 21 43  1  0
 22 44  1  0
 22 45  1  0
 24 46  1  0
 25 47  1  0
 26 48  1  0
 27 49  1  0
 28 50  1  0
 29 51  1  0
M  END
>  <smiles>  (72) 
CNC(=O)c1ccc(C)c(N=c2[nH]cnc3c2cnn3CCc2ccccc2)c1

>  <score_type>  (72) 
oracle

>  <origin>  (72) 
adg

>  <m_score__min__energy>  (72) 
-9.0399999999999991

>  <m_primary>  (72) 
energy

$$$$
72:0
     RDKit          3D

 59 62  0  0  1  0  0  0  0  0999 V2000
   51.2970   31.0380   54.0200 C   0  0  0  0  0  0  0  0  0  0  0  0
   51.0680   30.2850   52.7360 C   0  0  0  0  0  0  0  0  0  0  0  0
   52.2200   29.4940   52.3250 N   0  0  0  0  0  0  0  0  0  0  0  0
   53.0980   29.3800   53.4480 C   0  0  0  0  0  0  0  0  0  0  0  0
   54.5570   29.3990   53.1450 C   0  0  0  0  0  0  0  0  0  0  0  0
   54.8710   30.5380   52.2770 N   0  0  0  0  0  0  0  0  0  0  0  0
   56.2220   30.9280   52.0970 C   0  0  0  0  0  0  0  0  0  0  0  0
   56.6460   32.2390   52.0580 C   0  0  0  0  0  0  0  0  0  0  0  0
   57.9740   32.5870   51.8990 C   0  0  0  0  0  0  0  0  0  0  0  0
   58.9620   31.6220   51.7660 C   0  0  0  0  0  0  0  0  0  0  0  0
   60.3290   31.9590   51.5800 N   0  0  0  0  0  0  0  0  0  0  0  0
   60.8000   32.8300   50.5570 C   0  0  0  0  0  0  0  0  0  0  0  0
   59.9560   33.3190   49.5770 C   0  0  0  0  0  0  0  0  0  0  0  0
   60.4370   34.1890   48.6040 C   0  0  0  0  0  0  0  0  0  0  0  0
   59.6980   34.6670   47.6680 N   0  0  0  0  0  0  0  0  0  0  0  0
   59.0170   33.8040   46.7540 C   0  0  0  0  0  0  0  0  0  0  0  0
   57.8760   34.1790   46.0780 C   0  0  0  0  0  0  0  0  0  0  0  0
   57.2730   33.2970   45.2080 C   0  0  0  0  0  0  0  0  0  0  0  0
   57.8000   32.0600   45.0150 C   0  0  0  0  0  0  0  0  0  0  0  0
   57.1070   30.8730   43.9350 S   0  0  0  0  0  0  0  0  0  0  0  0
   58.1750   29.5270   43.7470 N   0  0  0  0  0  0  0  0  0  0  0  0
   56.8180   31.4510   42.5830 O   0  0  0  0  0  0  0  0  0  0  0  0
   55.7930   30.3970   44.5010 O   0  0  0  0  0  0  0  0  0  0  0  0
   58.9550   31.6710   45.6960 C   0  0  0  0  0  0  0  0  0  0  0  0
   59.5560   32.5490   46.5630 C   0  0  0  0  0  0  0  0  0  0  0  0
   61.7390   34.5790   48.5900 N   0  0  0  0  0  0  0  0  0  0  0  0
   62.5420   34.0930   49.5530 C   0  0  0  0  0  0  0  0  0  0  0  0
   62.0910   33.2420   50.5120 N   0  0  0  0  0  0  0  0  0  0  0  0
   58.5460   30.2830   51.8020 C   0  0  0  0  0  0  0  0  0  0  0  0
   57.1990   29.9620   51.9650 C   0  0  0  0  0  0  0  0  0  0  0  0
   53.7430   31.2050   51.6620 C   0  0  0  0  0  0  0  0  0  0  0  0
   52.8070   30.1030   51.1780 C   0  0  0  0  0  0  0  0  0  0  0  0
   51.0955   30.3754   54.8746 H   0  0  0  0  0  0  0  0  0  0  0  0
   52.3407   31.3830   54.0616 H   0  0  0  0  0  0  0  0  0  0  0  0
   50.6221   31.9056   54.0616 H   0  0  0  0  0  0  0  0  0  0  0  0
   50.2108   29.6097   52.8742 H   0  0  0  0  0  0  0  0  0  0  0  0
   50.8826   31.0293   51.9475 H   0  0  0  0  0  0  0  0  0  0  0  0
   52.8850   30.2185   54.1274 H   0  0  0  0  0  0  0  0  0  0  0  0
   52.8989   28.3876   53.8787 H   0  0  0  0  0  0  0  0  0  0  0  0
   55.1234   29.4886   54.0837 H   0  0  0  0  0  0  0  0  0  0  0  0
   54.8328   28.4657   52.6322 H   0  0  0  0  0  0  0  0  0  0  0  0
   55.8981   33.0395   52.1573 H   0  0  0  0  0  0  0  0  0  0  0  0
   58.2534   33.6507   51.8774 H   0  0  0  0  0  0  0  0  0  0  0  0
   61.0250   31.5510   52.2240 H   0  0  0  0  0  0  0  0  0  0  0  0
   58.8980   33.0183   49.5667 H   0  0  0  0  0  0  0  0  0  0  0  0
   57.4477   35.1803   46.2327 H   0  0  0  0  0  0  0  0  0  0  0  0
   56.3622   33.5954   44.6682 H   0  0  0  0  0  0  0  0  0  0  0  0
   59.1360   29.8380   43.4600 H   0  0  0  0  0  0  0  0  0  0  0  0
   57.8060   29.0070   42.8970 H   0  0  0  0  0  0  0  0  0  0  0  0
   59.3800   30.6687   45.5389 H   0  0  0  0  0  0  0  0  0  0  0  0
   60.4662   32.2521   47.1047 H   0  0  0  0  0  0  0  0  0  0  0  0
   63.5998   34.3944   49.5650 H   0  0  0  0  0  0  0  0  0  0  0  0
   62.8030   32.9440   51.2080 H   0  0  0  0  0  0  0  0  0  0  0  0
   59.2894   29.4786   51.7007 H   0  0  0  0  0  0  0  0  0  0  0  0
   56.9048   28.9024   51.9892 H   0  0  0  0  0  0  0  0  0  0  0  0
   53.2313   31.8440   52.3967 H   0  0  0  0  0  0  0  0  0  0  0  0
   54.0642   31.8506   50.8313 H   0  0  0  0  0  0  0  0  0  0  0  0
   52.0213   30.5332   50.5396 H   0  0  0  0  0  0  0  0  0  0  0  0
   53.3629   29.3579   50.5899 H   0  0  0  0  0  0  0  0  0  0  0  0
  1  2  1  0
  2  3  1  0
  3  4  1  0
  4  5  1  0
  5  6  1  0
  6  7  1  0
  7  8  2  0
  8  9  1  0
  9 10  2  0
 10 11  1  0
 11 12  1  0
 12 13  2  0
 13 14  1  0
 14 15  2  0
 15 16  1  0
 16 17  2  0
 17 18  1  0
 18 19  2  0
 19 20  1  0
 20 21  1  0
 20 22  2  0
 20 23  2  0
 19 24  1  0
 24 25  2  0
 14 26  1  0
 26 27  2  0
 27 28  1  0
 10 29  1  0
 29 30  2  0
  6 31  1  0
 31 32  1  0
 32  3  1  0
 30  7  1  0
 28 12  1  0
 25 16  1  0
  1 33  1  0
  1 34  1  0
  1 35  1  0
  2 36  1  0
  2 37  1  0
  4 38  1  0
  4 39  1  0
  5 40  1  0
  5 41  1  0
  8 42  1  0
  9 43  1  0
 11 44  1  0
 13 45  1  0
 17 46  1  0
 18 47  1  0
 21 48  1  0
 21 49  1  0
 24 50  1  0
 25 51  1  0
 27 52  1  0
 28 53  1  0
 29 54  1  0
 30 55  1  0
 31 56  1  0
 31 57  1  0
 32 58  1  0
 32 59  1  0
M  END
>  <smiles>  (73) 
CCN1CCN(c2ccc(Nc3cc(=Nc4ccc(S(N)(=O)=O)cc4)nc[nH]3)cc2)CC1

>  <score_type>  (73) 
oracle

>  <origin>  (73) 
adg

>  <m_score__min__energy>  (73) 
-9.4100000000000001

>  <m_primary>  (73) 
energy

$$$$
73:0
     RDKit          3D

 30 31  0  0  0  0  0  0  0  0999 V2000
   54.7550   27.0900   46.4200 H   0  0  0  0  0  0  0  0  0  0  0  0
   54.7860   26.1550   45.9560 N   0  0  0  0  0  0  0  0  0  0  0  0
   56.3950   25.5530   46.1440 S   0  0  0  0  0  0  0  0  0  0  0  0
   56.5250   24.8750   47.4790 O   0  0  0  0  0  0  0  0  0  0  0  0
   56.6810   24.5490   45.0630 O   0  0  0  0  0  0  0  0  0  0  0  0
   57.5370   26.8880   46.0380 C   0  0  0  0  0  0  0  0  0  0  0  0
   57.8670   27.4350   44.7910 C   0  0  0  0  0  0  0  0  0  0  0  0
   57.4033   27.0342   43.8775 H   0  0  0  0  0  0  0  0  0  0  0  0
   58.7830   28.4880   44.7020 C   0  0  0  0  0  0  0  0  0  0  0  0
   59.0335   28.9129   43.7188 H   0  0  0  0  0  0  0  0  0  0  0  0
   59.3870   29.0080   45.8640 C   0  0  0  0  0  0  0  0  0  0  0  0
   60.3350   30.0910   45.8070 N   0  0  0  0  0  0  0  0  0  0  0  0
   61.0960   30.0310   45.0930 H   0  0  0  0  0  0  0  0  0  0  0  0
   60.2460   31.2770   46.6640 C   0  0  0  0  0  0  0  0  0  0  0  0
   60.0317   30.9555   47.6939 H   0  0  0  0  0  0  0  0  0  0  0  0
   61.2058   31.8112   46.6051 H   0  0  0  0  0  0  0  0  0  0  0  0
   59.1580   32.2220   46.2120 C   0  0  0  0  0  0  0  0  0  0  0  0
   59.4300   33.4390   46.0300 O   0  0  0  0  0  0  0  0  0  0  0  0
   57.8050   31.7880   45.9990 N   0  0  0  0  0  0  0  0  0  0  0  0
   57.3070   31.2820   44.9100 C   0  0  0  0  0  0  0  0  0  0  0  0
   56.2880   30.3940   44.8730 N   0  0  0  0  0  0  0  0  0  0  0  0
   55.9550   30.0710   43.5950 C   0  0  0  0  0  0  0  0  0  0  0  0
   55.1516   29.3584   43.3567 H   0  0  0  0  0  0  0  0  0  0  0  0
   56.7040   30.7070   42.6110 C   0  0  0  0  0  0  0  0  0  0  0  0
   56.5876   30.5763   41.5250 H   0  0  0  0  0  0  0  0  0  0  0  0
   57.8200   31.7120   43.3720 S   0  0  0  0  0  0  0  0  0  0  0  0
   59.0570   28.4470   47.1080 C   0  0  0  0  0  0  0  0  0  0  0  0
   59.5237   28.8397   48.0234 H   0  0  0  0  0  0  0  0  0  0  0  0
   58.1410   27.3940   47.1950 C   0  0  0  0  0  0  0  0  0  0  0  0
   57.8942   26.9618   48.1760 H   0  0  0  0  0  0  0  0  0  0  0  0
  1  2  1  0
  2  3  1  0
  3  4  2  0
  3  5  2  0
  3  6  1  0
  6  7  2  0
  7  8  1  0
  7  9  1  0
  9 10  1  0
  9 11  2  0
 11 12  1  0
 12 13  1  0
 12 14  1  0
 14 15  1  0
 14 16  1  0
 14 17  1  0
 17 18  2  0
 17 19  1  0
 19 20  2  0
 20 21  1  0
 21 22  1  0
 22 23  1  0
 22 24  2  0
 24 25  1  0
 24 26  1  0
 11 27  1  0
 27 28  1  0
 27 29  2  0
 29 30  1  0
 29  6  1  0
 26 20  1  0
M  CHG  2   2  -1  21  -1
M  END
>  <UniqueID>  (74) 
63

>  <SMILES>  (74) 
[NH-]S(=O)(=O)c1ccc(NCC(=O)/N=c2\[n-]ccs2)cc1

>  <Energy>  (74) 
64.58398236611805

>  <Genealogy>  (74) 
[NH-]S(=O)(=O)c1ccc(NCC(=O)N=c2[n-]ccs2)cc1 (protonated)
[NH-]S(=O)(=O)c1ccc(NCC(=O)/N=c2\[n-]ccs2)cc1 (cis-trans isomerization)
[NH-]S(=O)(=O)c1ccc(NCC(=O)/N=c2\[n-]ccs2)cc1 (3D coordinates assigned)
[NH-]S(=O)(=O)c1ccc(NCC(=O)/N=c2\[n-]ccs2)cc1 (optimized conformer: 64.58398236611805 kcal/mol)

>  <smiles>  (74) 
NS(=O)(=O)c1ccc(NCC(=O)N=c2[nH]ccs2)cc1

>  <score_type>  (74) 
oracle

>  <origin>  (74) 
adg

>  <m_score__min__energy>  (74) 
-11.029999999999999

>  <m_primary>  (74) 
energy

$$$$
74:0
     RDKit          3D

 43 45  0  0  0  0  0  0  0  0999 V2000
   59.6440   35.7660   45.9950 C   0  0  0  0  0  0  0  0  0  0  0  0
   59.7260   34.6530   47.0140 C   0  0  0  0  0  0  0  0  0  0  0  0
   59.2960   34.9630   48.4280 C   0  0  0  0  0  0  0  0  0  0  0  0
   60.1880   33.4210   46.6680 C   0  0  0  0  0  0  0  0  0  0  0  0
   59.3180   32.4230   46.0040 C   0  0  0  0  0  0  0  0  0  0  0  0
   58.2470   32.8540   45.2060 C   0  0  0  0  0  0  0  0  0  0  0  0
   57.3960   31.9220   44.6060 C   0  0  0  0  0  0  0  0  0  0  0  0
   57.6030   30.5490   44.8020 C   0  0  0  0  0  0  0  0  0  0  0  0
   56.5490   29.3600   44.0430 S   0  0  0  0  0  0  0  0  0  0  0  0
   55.4050   30.0780   43.3850 O   0  0  0  0  0  0  0  0  0  0  0  0
   57.2870   28.5730   42.9970 O   0  0  0  0  0  0  0  0  0  0  0  0
   55.9260   28.2780   45.2450 N   0  0  0  0  0  0  0  0  0  0  0  0
   56.5990   27.1120   45.7380 C   0  0  0  0  0  0  0  0  0  0  0  0
   57.9840   27.1000   46.0000 C   0  0  0  0  0  0  0  0  0  0  0  0
   58.5990   25.9360   46.4740 C   0  0  0  0  0  0  0  0  0  0  0  0
   57.8430   24.7800   46.6900 C   0  0  0  0  0  0  0  0  0  0  0  0
   56.4690   24.7860   46.4330 C   0  0  0  0  0  0  0  0  0  0  0  0
   55.8510   25.9490   45.9590 C   0  0  0  0  0  0  0  0  0  0  0  0
   58.6650   30.1180   45.6070 C   0  0  0  0  0  0  0  0  0  0  0  0
   59.5130   31.0490   46.2130 C   0  0  0  0  0  0  0  0  0  0  0  0
   61.5830   32.9990   46.9280 C   0  0  0  0  0  0  0  0  0  0  0  0
   62.7370   33.6700   46.5360 C   0  0  0  0  0  0  0  0  0  0  0  0
   63.9120   33.0900   47.0340 C   0  0  0  0  0  0  0  0  0  0  0  0
   63.6900   31.9780   47.8350 C   0  0  0  0  0  0  0  0  0  0  0  0
   62.0300   31.7210   47.9270 S   0  0  0  0  0  0  0  0  0  0  0  0
   59.5727   36.7334   46.5136 H   0  0  0  0  0  0  0  0  0  0  0  0
   60.5455   35.7533   45.3648 H   0  0  0  0  0  0  0  0  0  0  0  0
   58.7541   35.6214   45.3648 H   0  0  0  0  0  0  0  0  0  0  0  0
   59.9793   34.4704   49.1354 H   0  0  0  0  0  0  0  0  0  0  0  0
   59.3230   36.0508   48.5893 H   0  0  0  0  0  0  0  0  0  0  0  0
   58.2725   34.5937   48.5893 H   0  0  0  0  0  0  0  0  0  0  0  0
   58.0767   33.9298   45.0522 H   0  0  0  0  0  0  0  0  0  0  0  0
   56.5612   32.2665   43.9780 H   0  0  0  0  0  0  0  0  0  0  0  0
   58.5824   28.0075   45.8315 H   0  0  0  0  0  0  0  0  0  0  0  0
   59.6801   25.9305   46.6772 H   0  0  0  0  0  0  0  0  0  0  0  0
   58.3292   23.8661   47.0620 H   0  0  0  0  0  0  0  0  0  0  0  0
   55.8735   23.8769   46.6032 H   0  0  0  0  0  0  0  0  0  0  0  0
   54.7694   25.9494   45.7586 H   0  0  0  0  0  0  0  0  0  0  0  0
   58.8323   29.0420   45.7629 H   0  0  0  0  0  0  0  0  0  0  0  0
   60.3360   30.7037   46.8559 H   0  0  0  0  0  0  0  0  0  0  0  0
   62.7282   34.5665   45.8987 H   0  0  0  0  0  0  0  0  0  0  0  0
   64.9162   33.4796   46.8109 H   0  0  0  0  0  0  0  0  0  0  0  0
   64.4652   31.3703   48.3246 H   0  0  0  0  0  0  0  0  0  0  0  0
  1  2  1  0
  2  3  1  0
  2  4  2  3
  4  5  1  0
  5  6  2  0
  6  7  1  0
  7  8  2  0
  8  9  1  0
  9 10  2  0
  9 11  2  0
  9 12  1  0
 12 13  1  0
 13 14  2  0
 14 15  1  0
 15 16  2  0
 16 17  1  0
 17 18  2  0
  8 19  1  0
 19 20  2  0
  4 21  1  0
 21 22  2  0
 22 23  1  0
 23 24  2  0
 24 25  1  0
 20  5  1  0
 25 21  1  0
 18 13  1  0
  1 26  1  0
  1 27  1  0
  1 28  1  0
  3 29  1  0
  3 30  1  0
  3 31  1  0
  6 32  1  0
  7 33  1  0
 14 34  1  0
 15 35  1  0
 16 36  1  0
 17 37  1  0
 18 38  1  0
 19 39  1  0
 20 40  1  0
 22 41  1  0
 23 42  1  0
 24 43  1  0
M  CHG  1  12  -1
M  END
>  <UniqueID>  (75) 
64

>  <SMILES>  (75) 
CC(C)=C(c1ccc(S(=O)(=O)[N-]c2ccccc2)cc1)c1cccs1

>  <Energy>  (75) 
85.50124053696011

>  <Genealogy>  (75) 
CC(C)=C(c1ccc(S(=O)(=O)[N-]c2ccccc2)cc1)c1cccs1 (protonated)
CC(C)=C(c1ccc(S(=O)(=O)[N-]c2ccccc2)cc1)c1cccs1 (3D coordinates assigned)
CC(C)=C(c1ccc(S(=O)(=O)[N-]c2ccccc2)cc1)c1cccs1 (optimized conformer: 85.50124053696011 kcal/mol)

>  <smiles>  (75) 
CC(C)=C(c1ccc(S(=O)(=O)Nc2ccccc2)cc1)c1cccs1

>  <score_type>  (75) 
oracle

>  <origin>  (75) 
adg

>  <m_score__min__energy>  (75) 
-10.33

>  <m_primary>  (75) 
energy

$$$$
75:0
     RDKit          3D

 49 52  0  0  0  0  0  0  0  0999 V2000
   56.9630   30.7920   42.7400 O   0  0  0  0  0  0  0  0  0  0  0  0
   57.0850   30.7040   44.2320 S   0  0  0  0  0  0  0  0  0  0  0  0
   55.7410   30.3890   44.8220 O   0  0  0  0  0  0  0  0  0  0  0  0
   58.2050   29.4440   44.6400 N   0  0  0  0  0  0  0  0  0  0  0  0
   58.9970   29.4460   45.8410 C   0  0  0  0  0  0  0  0  0  0  0  0
   59.7650   30.5660   46.2050 C   0  0  0  0  0  0  0  0  0  0  0  0
   60.6560   30.5010   47.2930 C   0  0  0  0  0  0  0  0  0  0  0  0
   61.5580   31.6380   47.5870 C   0  0  0  0  0  0  0  0  0  0  0  0
   62.9120   31.5870   47.2040 C   0  0  0  0  0  0  0  0  0  0  0  0
   63.7550   32.6760   47.4440 C   0  0  0  0  0  0  0  0  0  0  0  0
   63.2560   33.8240   48.0700 C   0  0  0  0  0  0  0  0  0  0  0  0
   61.9140   33.8830   48.4590 C   0  0  0  0  0  0  0  0  0  0  0  0
   61.0650   32.7990   48.2160 C   0  0  0  0  0  0  0  0  0  0  0  0
   60.7280   29.3200   48.0540 C   0  0  0  0  0  0  0  0  0  0  0  0
   59.9330   28.2220   47.7220 C   0  0  0  0  0  0  0  0  0  0  0  0
   59.0740   28.2750   46.6170 C   0  0  0  0  0  0  0  0  0  0  0  0
   58.3930   27.0840   46.2080 N   0  0  0  0  0  0  0  0  0  0  0  0
   58.6560   26.5000   44.8980 C   0  0  0  0  0  0  0  0  0  0  0  0
   57.4090   25.7490   44.4260 C   0  0  0  0  0  0  0  0  0  0  0  0
   56.9770   24.8270   45.4100 O   0  0  0  0  0  0  0  0  0  0  0  0
   56.5640   25.5180   46.5730 C   0  0  0  0  0  0  0  0  0  0  0  0
   57.7420   26.2510   47.2150 C   0  0  0  0  0  0  0  0  0  0  0  0
   57.6950   32.2370   44.8380 C   0  0  0  0  0  0  0  0  0  0  0  0
   57.4210   32.6560   46.1510 C   0  0  0  0  0  0  0  0  0  0  0  0
   57.9710   33.8490   46.6340 C   0  0  0  0  0  0  0  0  0  0  0  0
   58.7920   34.6260   45.8100 C   0  0  0  0  0  0  0  0  0  0  0  0
   59.0650   34.2130   44.5030 C   0  0  0  0  0  0  0  0  0  0  0  0
   58.5180   33.0210   44.0190 C   0  0  0  0  0  0  0  0  0  0  0  0
   59.6688   31.5015   45.6345 H   0  0  0  0  0  0  0  0  0  0  0  0
   63.3084   30.6857   46.7135 H   0  0  0  0  0  0  0  0  0  0  0  0
   64.8114   32.6306   47.1406 H   0  0  0  0  0  0  0  0  0  0  0  0
   63.9201   34.6809   48.2563 H   0  0  0  0  0  0  0  0  0  0  0  0
   61.5257   34.7837   48.9570 H   0  0  0  0  0  0  0  0  0  0  0  0
   60.0083   32.8525   48.5169 H   0  0  0  0  0  0  0  0  0  0  0  0
   61.4127   29.2618   48.9130 H   0  0  0  0  0  0  0  0  0  0  0  0
   59.9814   27.3083   48.3326 H   0  0  0  0  0  0  0  0  0  0  0  0
   58.8991   27.2979   44.1809 H   0  0  0  0  0  0  0  0  0  0  0  0
   59.5048   25.8037   44.9659 H   0  0  0  0  0  0  0  0  0  0  0  0
   56.6039   26.4727   44.2312 H   0  0  0  0  0  0  0  0  0  0  0  0
   57.6559   25.1960   43.5077 H   0  0  0  0  0  0  0  0  0  0  0  0
   55.7885   26.2494   46.3018 H   0  0  0  0  0  0  0  0  0  0  0  0
   56.1665   24.7888   47.2943 H   0  0  0  0  0  0  0  0  0  0  0  0
   57.3777   26.8843   48.0373 H   0  0  0  0  0  0  0  0  0  0  0  0
   58.4613   25.5197   47.6121 H   0  0  0  0  0  0  0  0  0  0  0  0
   56.7743   32.0464   46.7992 H   0  0  0  0  0  0  0  0  0  0  0  0
   57.7575   34.1758   47.6624 H   0  0  0  0  0  0  0  0  0  0  0  0
   59.2233   35.5633   46.1912 H   0  0  0  0  0  0  0  0  0  0  0  0
   59.7098   34.8255   43.8556 H   0  0  0  0  0  0  0  0  0  0  0  0
   58.7348   32.6971   42.9904 H   0  0  0  0  0  0  0  0  0  0  0  0
  1  2  2  0
  2  3  2  0
  2  4  1  0
  4  5  1  0
  5  6  2  0
  6  7  1  0
  7  8  1  0
  8  9  2  0
  9 10  1  0
 10 11  2  0
 11 12  1  0
 12 13  2  0
  7 14  2  0
 14 15  1  0
 15 16  2  0
 16 17  1  0
 17 18  1  0
 18 19  1  0
 19 20  1  0
 20 21  1  0
 21 22  1  0
  2 23  1  0
 23 24  2  0
 24 25  1  0
 25 26  2  0
 26 27  1  0
 27 28  2  0
 16  5  1  0
 22 17  1  0
 28 23  1  0
 13  8  1  0
  6 29  1  0
  9 30  1  0
 10 31  1  0
 11 32  1  0
 12 33  1  0
 13 34  1  0
 14 35  1  0
 15 36  1  0
 18 37  1  0
 18 38  1  0
 19 39  1  0
 19 40  1  0
 21 41  1  0
 21 42  1  0
 22 43  1  0
 22 44  1  0
 24 45  1  0
 25 46  1  0
 26 47  1  0
 27 48  1  0
 28 49  1  0
M  CHG  1   4  -1
M  END
>  <UniqueID>  (76) 
65

>  <SMILES>  (76) 
O=S(=O)([N-]c1cc(-c2ccccc2)ccc1N1CCOCC1)c1ccccc1

>  <Energy>  (76) 
68.22589984630693

>  <Genealogy>  (76) 
O=S(=O)([N-]c1cc(-c2ccccc2)ccc1N1CCOCC1)c1ccccc1 (protonated)
O=S(=O)([N-]c1cc(-c2ccccc2)ccc1N1CCOCC1)c1ccccc1 (3D coordinates assigned)
O=S(=O)([N-]c1cc(-c2ccccc2)ccc1N1CCOCC1)c1ccccc1 (nonaromatic ring conformer: 68.22589984630693 kcal/mol)

>  <smiles>  (76) 
O=S(=O)(Nc1cc(-c2ccccc2)ccc1N1CCOCC1)c1ccccc1

>  <score_type>  (76) 
oracle

>  <origin>  (76) 
adg

>  <m_score__min__energy>  (76) 
-10

>  <m_primary>  (76) 
energy

$$$$
76:0
     RDKit          3D

 55 58  0  0  0  0  0  0  0  0999 V2000
   67.9800   33.4720   50.5270 C   0  0  0  0  0  0  0  0  0  0  0  0
   66.8410   33.7160   51.3440 O   0  0  0  0  0  0  0  0  0  0  0  0
   65.5110   33.5700   50.9160 C   0  0  0  0  0  0  0  0  0  0  0  0
   65.1710   32.8190   49.7740 C   0  0  0  0  0  0  0  0  0  0  0  0
   63.8270   32.6870   49.3720 C   0  0  0  0  0  0  0  0  0  0  0  0
   62.8090   33.2800   50.1400 C   0  0  0  0  0  0  0  0  0  0  0  0
   63.1540   34.0430   51.2710 C   0  0  0  0  0  0  0  0  0  0  0  0
   64.4990   34.1930   51.6600 C   0  0  0  0  0  0  0  0  0  0  0  0
   64.8670   34.9370   52.7860 O   0  0  0  0  0  0  0  0  0  0  0  0
   65.5470   36.1880   52.7420 C   0  0  0  0  0  0  0  0  0  0  0  0
   61.3510   33.0130   49.8420 C   0  0  0  0  0  0  0  0  0  0  0  0
   61.1160   32.4480   48.5020 N   0  0  0  0  0  0  0  0  0  0  0  0
   59.7850   32.0130   48.1590 C   0  0  0  0  0  0  0  0  0  0  0  0
   59.2180   31.1250   48.8520 O   0  0  0  0  0  0  0  0  0  0  0  0
   59.0410   32.6320   47.0430 C   0  0  0  0  0  0  0  0  0  0  0  0
   58.1080   31.8750   46.3220 C   0  0  0  0  0  0  0  0  0  0  0  0
   57.4540   32.4150   45.2100 C   0  0  0  0  0  0  0  0  0  0  0  0
   56.5940   31.5700   44.4370 N   0  0  0  0  0  0  0  0  0  0  0  0
   56.6360   29.8330   44.4410 S   0  0  0  0  0  0  0  0  0  0  0  0
   55.4630   29.3250   45.2280 O   0  0  0  0  0  0  0  0  0  0  0  0
   56.5310   29.3350   43.0320 O   0  0  0  0  0  0  0  0  0  0  0  0
   58.1070   29.2330   45.2080 C   0  0  0  0  0  0  0  0  0  0  0  0
   58.0510   28.7230   46.5120 C   0  0  0  0  0  0  0  0  0  0  0  0
   59.2160   28.2920   47.1480 C   0  0  0  0  0  0  0  0  0  0  0  0
   60.4430   28.3630   46.4820 C   0  0  0  0  0  0  0  0  0  0  0  0
   60.5040   28.8600   45.1790 C   0  0  0  0  0  0  0  0  0  0  0  0
   61.6950   28.9300   44.5350 F   0  0  0  0  0  0  0  0  0  0  0  0
   59.3390   29.2940   44.5400 C   0  0  0  0  0  0  0  0  0  0  0  0
   57.6770   33.7560   44.8650 C   0  0  0  0  0  0  0  0  0  0  0  0
   58.6020   34.5190   45.5830 C   0  0  0  0  0  0  0  0  0  0  0  0
   59.3000   33.9550   46.6540 C   0  0  0  0  0  0  0  0  0  0  0  0
   60.2080   34.7020   47.3230 F   0  0  0  0  0  0  0  0  0  0  0  0
   62.2040   32.3780   47.5080 C   0  0  0  0  0  0  0  0  0  0  0  0
   63.4740   31.8470   48.1670 C   0  0  0  0  0  0  0  0  0  0  0  0
   68.8558   33.2844   51.1655 H   0  0  0  0  0  0  0  0  0  0  0  0
   67.7942   32.5933   49.8919 H   0  0  0  0  0  0  0  0  0  0  0  0
   68.1705   34.3497   49.8919 H   0  0  0  0  0  0  0  0  0  0  0  0
   65.9639   32.3298   49.1891 H   0  0  0  0  0  0  0  0  0  0  0  0
   62.3619   34.5291   51.8595 H   0  0  0  0  0  0  0  0  0  0  0  0
   65.7373   36.5381   53.7673 H   0  0  0  0  0  0  0  0  0  0  0  0
   66.5035   36.0670   52.2124 H   0  0  0  0  0  0  0  0  0  0  0  0
   64.9253   36.9249   52.2124 H   0  0  0  0  0  0  0  0  0  0  0  0
   60.9674   32.3039   50.5904 H   0  0  0  0  0  0  0  0  0  0  0  0
   60.8319   33.9821   49.8786 H   0  0  0  0  0  0  0  0  0  0  0  0
   57.8873   30.8436   46.6344 H   0  0  0  0  0  0  0  0  0  0  0  0
   57.0857   28.6622   47.0359 H   0  0  0  0  0  0  0  0  0  0  0  0
   59.1688   27.8964   48.1733 H   0  0  0  0  0  0  0  0  0  0  0  0
   61.3615   28.0268   46.9853 H   0  0  0  0  0  0  0  0  0  0  0  0
   59.3883   29.6837   43.5125 H   0  0  0  0  0  0  0  0  0  0  0  0
   57.1234   34.2076   44.0286 H   0  0  0  0  0  0  0  0  0  0  0  0
   58.7813   35.5678   45.3038 H   0  0  0  0  0  0  0  0  0  0  0  0
   61.9083   31.7047   46.6900 H   0  0  0  0  0  0  0  0  0  0  0  0
   62.3961   33.3848   47.1088 H   0  0  0  0  0  0  0  0  0  0  0  0
   63.3108   30.8066   48.4846 H   0  0  0  0  0  0  0  0  0  0  0  0
   64.3005   31.8934   47.4426 H   0  0  0  0  0  0  0  0  0  0  0  0
  1  2  1  0
  2  3  1  0
  3  4  2  0
  4  5  1  0
  5  6  2  0
  6  7  1  0
  7  8  2  0
  8  9  1  0
  9 10  1  0
  6 11  1  0
 11 12  1  0
 12 13  1  0
 13 14  2  0
 13 15  1  0
 15 16  2  0
 16 17  1  0
 17 18  1  0
 18 19  1  0
 19 20  2  0
 19 21  2  0
 19 22  1  0
 22 23  2  0
 23 24  1  0
 24 25  2  0
 25 26  1  0
 26 27  1  0
 26 28  2  0
 17 29  2  0
 29 30  1  0
 30 31  2  0
 31 32  1  0
 12 33  1  0
 33 34  1  0
  8  3  1  0
 31 15  1  0
 34  5  1  0
 28 22  1  0
  1 35  1  0
  1 36  1  0
  1 37  1  0
  4 38  1  0
  7 39  1  0
 10 40  1  0
 10 41  1  0
 10 42  1  0
 11 43  1  0
 11 44  1  0
 16 45  1  0
 23 46  1  0
 24 47  1  0
 25 48  1  0
 28 49  1  0
 29 50  1  0
 30 51  1  0
 33 52  1  0
 33 53  1  0
 34 54  1  0
 34 55  1  0
M  CHG  1  18  -1
M  END
>  <UniqueID>  (77) 
66

>  <SMILES>  (77) 
COc1cc2c(cc1OC)CN(C(=O)c1cc([N-]S(=O)(=O)c3cccc(F)c3)ccc1F)CC2

>  <Energy>  (77) 
72.01565854026356

>  <Genealogy>  (77) 
COc1cc2c(cc1OC)CN(C(=O)c1cc([N-]S(=O)(=O)c3cccc(F)c3)ccc1F)CC2 (protonated)
COc1cc2c(cc1OC)CN(C(=O)c1cc([N-]S(=O)(=O)c3cccc(F)c3)ccc1F)CC2 (3D coordinates assigned)
COc1cc2c(cc1OC)CN(C(=O)c1cc([N-]S(=O)(=O)c3cccc(F)c3)ccc1F)CC2 (nonaromatic ring conformer: 72.01565854026356 kcal/mol)

>  <smiles>  (77) 
COc1cc2c(cc1OC)CN(C(=O)c1cc(NS(=O)(=O)c3cccc(F)c3)ccc1F)CC2

>  <score_type>  (77) 
oracle

>  <origin>  (77) 
adg

>  <m_score__min__energy>  (77) 
-10.66

>  <m_primary>  (77) 
energy

$$$$
77:0
     RDKit          3D

 31 33  0  0  0  0  0  0  0  0999 V2000
   57.4130   28.2940   46.7550 O   0  0  0  0  0  0  0  0  0  0  0  0
   57.8760   27.6320   45.4870 S   0  0  0  0  0  0  0  0  0  0  0  0
   59.3780   27.6100   45.4650 O   0  0  0  0  0  0  0  0  0  0  0  0
   57.3040   28.5590   44.1340 N   0  0  0  0  0  0  0  0  0  0  0  0
   57.5290   29.9720   43.9690 C   0  0  0  0  0  0  0  0  0  0  0  0
   57.2550   30.5640   42.7280 C   0  0  0  0  0  0  0  0  0  0  0  0
   57.4470   31.9340   42.5360 C   0  0  0  0  0  0  0  0  0  0  0  0
   57.9130   32.7300   43.5840 C   0  0  0  0  0  0  0  0  0  0  0  0
   58.1980   32.1600   44.8350 C   0  0  0  0  0  0  0  0  0  0  0  0
   58.6870   33.0030   45.9470 C   0  0  0  0  0  0  0  0  0  0  0  0
   58.4740   34.3280   46.0510 N   0  0  0  0  0  0  0  0  0  0  0  0
   59.0770   34.6800   47.1740 N   0  0  0  0  0  0  0  0  0  0  0  0
   59.6350   33.6180   47.7340 N   0  0  0  0  0  0  0  0  0  0  0  0
   59.4090   32.5490   46.9880 N   0  0  0  0  0  0  0  0  0  0  0  0
   58.0100   30.7790   45.0190 C   0  0  0  0  0  0  0  0  0  0  0  0
   57.2830   25.9710   45.3930 C   0  0  0  0  0  0  0  0  0  0  0  0
   58.1760   24.9350   45.0770 C   0  0  0  0  0  0  0  0  0  0  0  0
   57.7210   23.6170   44.9780 C   0  0  0  0  0  0  0  0  0  0  0  0
   58.8420   22.3320   44.5660 Cl  0  0  0  0  0  0  0  0  0  0  0  0
   56.3740   23.3230   45.2050 C   0  0  0  0  0  0  0  0  0  0  0  0
   55.4790   24.3450   45.5370 C   0  0  0  0  0  0  0  0  0  0  0  0
   53.7920   23.9520   45.8270 Cl  0  0  0  0  0  0  0  0  0  0  0  0
   55.9310   25.6690   45.6360 C   0  0  0  0  0  0  0  0  0  0  0  0
   55.0350   26.6770   45.9780 O   0  0  0  0  0  0  0  0  0  0  0  0
   56.7280   28.0520   43.4260 H   0  0  0  0  0  0  0  0  0  0  0  0
   56.8855   29.9438   41.8980 H   0  0  0  0  0  0  0  0  0  0  0  0
   57.2306   32.3867   41.5571 H   0  0  0  0  0  0  0  0  0  0  0  0
   58.0576   33.8093   43.4288 H   0  0  0  0  0  0  0  0  0  0  0  0
   58.2409   30.3235   45.9933 H   0  0  0  0  0  0  0  0  0  0  0  0
   59.2388   25.1614   44.9065 H   0  0  0  0  0  0  0  0  0  0  0  0
   56.0169   22.2858   45.1224 H   0  0  0  0  0  0  0  0  0  0  0  0
  1  2  2  0
  2  3  2  0
  2  4  1  0
  4  5  1  0
  5  6  2  0
  6  7  1  0
  7  8  2  0
  8  9  1  0
  9 10  1  0
 10 11  1  0
 11 12  2  0
 12 13  1  0
 13 14  1  0
  9 15  2  0
  2 16  1  0
 16 17  2  0
 17 18  1  0
 18 19  1  0
 18 20  2  0
 20 21  1  0
 21 22  1  0
 21 23  2  0
 23 24  1  0
 15  5  1  0
 23 16  1  0
 14 10  2  0
  4 25  1  0
  6 26  1  0
  7 27  1  0
  8 28  1  0
 15 29  1  0
 17 30  1  0
 20 31  1  0
M  CHG  2  13  -1  24  -1
M  END
>  <UniqueID>  (78) 
67

>  <SMILES>  (78) 
O=S(=O)(Nc1cccc(-c2nn[n-]n2)c1)c1cc(Cl)cc(Cl)c1[O-]

>  <Energy>  (78) 
75.92023312663255

>  <Genealogy>  (78) 
O=S(=O)(Nc1cccc(-c2nn[n-]n2)c1)c1cc(Cl)cc(Cl)c1[O-] (protonated)
O=S(=O)(Nc1cccc(-c2nn[n-]n2)c1)c1cc(Cl)cc(Cl)c1[O-] (3D coordinates assigned)
O=S(=O)(Nc1cccc(-c2nn[n-]n2)c1)c1cc(Cl)cc(Cl)c1[O-] (optimized conformer: 75.92023312663255 kcal/mol)

>  <smiles>  (78) 
O=S(=O)(Nc1cccc(-c2nn[nH]n2)c1)c1cc(Cl)cc(Cl)c1O

>  <score_type>  (78) 
oracle

>  <origin>  (78) 
adg

>  <m_score__min__energy>  (78) 
-13.449999999999999

>  <m_primary>  (78) 
energy

$$$$
78:0
     RDKit          3D

 62 67  0  0  0  0  0  0  0  0999 V2000
   68.4068   33.9191   52.2147 H   0  0  0  0  0  0  0  0  0  0  0  0
   67.4080   33.8570   51.7580 C   0  0  0  0  0  0  0  0  0  0  0  0
   66.3730   34.6660   52.2300 C   0  0  0  0  0  0  0  0  0  0  0  0
   66.5570   35.3646   53.0595 H   0  0  0  0  0  0  0  0  0  0  0  0
   65.1020   34.5900   51.6500 C   0  0  0  0  0  0  0  0  0  0  0  0
   64.2887   35.2264   52.0288 H   0  0  0  0  0  0  0  0  0  0  0  0
   64.8590   33.7040   50.5850 C   0  0  0  0  0  0  0  0  0  0  0  0
   63.5060   33.6150   49.9790 C   0  0  0  0  0  0  0  0  0  0  0  0
   63.3790   33.6130   48.5890 C   0  0  0  0  0  0  0  0  0  0  0  0
   64.2778   33.6638   47.9568 H   0  0  0  0  0  0  0  0  0  0  0  0
   62.1190   33.5470   47.9990 C   0  0  0  0  0  0  0  0  0  0  0  0
   61.9910   33.5660   46.6060 C   0  0  0  0  0  0  0  0  0  0  0  0
   62.8888   33.6298   45.9736 H   0  0  0  0  0  0  0  0  0  0  0  0
   60.7630   33.5060   46.0330 N   0  0  0  0  0  0  0  0  0  0  0  0
   59.6220   33.4200   46.7630 C   0  0  0  0  0  0  0  0  0  0  0  0
   58.4850   33.3760   46.1250 N   0  0  0  0  0  0  0  0  0  0  0  0
   58.1290   32.5200   45.0290 C   0  0  0  0  0  0  0  0  0  0  0  0
   57.9730   33.0310   43.7300 C   0  0  0  0  0  0  0  0  0  0  0  0
   58.1826   34.0921   43.5295 H   0  0  0  0  0  0  0  0  0  0  0  0
   57.5530   32.1970   42.6930 C   0  0  0  0  0  0  0  0  0  0  0  0
   57.4421   32.5996   41.6754 H   0  0  0  0  0  0  0  0  0  0  0  0
   57.2730   30.8510   42.9450 C   0  0  0  0  0  0  0  0  0  0  0  0
   56.9370   30.1995   42.1248 H   0  0  0  0  0  0  0  0  0  0  0  0
   57.4180   30.3260   44.2380 C   0  0  0  0  0  0  0  0  0  0  0  0
   57.0910   28.9480   44.4790 N   0  0  0  0  0  0  0  0  0  0  0  0
   56.1780   28.6070   44.1070 H   0  0  0  0  0  0  0  0  0  0  0  0
   57.9810   28.0180   45.1260 C   0  0  0  0  0  0  0  0  0  0  0  0
   59.1560   28.3750   45.4210 O   0  0  0  0  0  0  0  0  0  0  0  0
   57.5490   26.6370   45.4520 C   0  0  0  0  0  0  0  0  0  0  0  0
   57.0270   26.3140   46.7170 C   0  0  0  0  0  0  0  0  0  0  0  0
   56.9367   27.0941   47.4873 H   0  0  0  0  0  0  0  0  0  0  0  0
   56.6230   25.0090   47.0000 C   0  0  0  0  0  0  0  0  0  0  0  0
   56.2211   24.7642   47.9943 H   0  0  0  0  0  0  0  0  0  0  0  0
   56.7260   24.0130   46.0290 C   0  0  0  0  0  0  0  0  0  0  0  0
   56.4093   22.9867   46.2666 H   0  0  0  0  0  0  0  0  0  0  0  0
   57.2290   24.3060   44.7530 C   0  0  0  0  0  0  0  0  0  0  0  0
   57.3000   23.1680   43.7460 C   0  0  0  0  0  0  0  0  0  0  0  0
   57.2312   23.8463   42.8827 H   0  0  0  0  0  0  0  0  0  0  0  0
   58.1650   21.9710   44.1150 C   0  0  0  0  0  0  0  0  0  0  0  0
   58.7538   21.4580   43.3403 H   0  0  0  0  0  0  0  0  0  0  0  0
   58.9657   21.7854   44.8461 H   0  0  0  0  0  0  0  0  0  0  0  0
   56.6460   21.8470   44.1250 C   0  0  0  0  0  0  0  0  0  0  0  0
   56.1382   21.2444   43.3575 H   0  0  0  0  0  0  0  0  0  0  0  0
   55.8957   21.5348   44.8664 H   0  0  0  0  0  0  0  0  0  0  0  0
   57.6360   25.6300   44.4720 C   0  0  0  0  0  0  0  0  0  0  0  0
   58.0262   25.8771   43.4737 H   0  0  0  0  0  0  0  0  0  0  0  0
   57.8170   31.1780   45.2840 C   0  0  0  0  0  0  0  0  0  0  0  0
   57.8846   30.7876   46.3102 H   0  0  0  0  0  0  0  0  0  0  0  0
   59.7050   33.4210   48.1720 C   0  0  0  0  0  0  0  0  0  0  0  0
   58.7858   33.3789   48.7747 H   0  0  0  0  0  0  0  0  0  0  0  0
   60.9660   33.4760   48.8130 C   0  0  0  0  0  0  0  0  0  0  0  0
   61.0950   33.4650   50.1910 N   0  0  0  0  0  0  0  0  0  0  0  0
   59.8960   33.3810   51.0510 C   0  0  0  0  0  0  0  0  0  0  0  0
   60.2005   33.4023   52.1078 H   0  0  0  0  0  0  0  0  0  0  0  0
   59.2348   34.2350   50.8426 H   0  0  0  0  0  0  0  0  0  0  0  0
   59.3603   32.4431   50.8426 H   0  0  0  0  0  0  0  0  0  0  0  0
   62.3440   33.5300   50.7710 C   0  0  0  0  0  0  0  0  0  0  0  0
   62.4650   33.4940   52.0270 O   0  0  0  0  0  0  0  0  0  0  0  0
   65.9070   32.8890   50.1220 C   0  0  0  0  0  0  0  0  0  0  0  0
   65.7280   32.1850   49.2960 H   0  0  0  0  0  0  0  0  0  0  0  0
   67.1750   32.9680   50.7050 C   0  0  0  0  0  0  0  0  0  0  0  0
   67.9906   32.3296   50.3345 H   0  0  0  0  0  0  0  0  0  0  0  0
  1  2  1  0
  2  3  2  0
  3  4  1  0
  3  5  1  0
  5  6  1  0
  5  7  2  0
  7  8  1  0
  8  9  2  0
  9 10  1  0
  9 11  1  0
 11 12  2  0
 12 13  1  0
 12 14  1  0
 14 15  1  0
 15 16  2  0
 16 17  1  0
 17 18  2  0
 18 19  1  0
 18 20  1  0
 20 21  1  0
 20 22  2  0
 22 23  1  0
 22 24  1  0
 24 25  1  0
 25 26  1  0
 25 27  1  0
 27 28  2  0
 27 29  1  0
 29 30  2  0
 30 31  1  0
 30 32  1  0
 32 33  1  0
 32 34  2  0
 34 35  1  0
 34 36  1  0
 36 37  1  0
 37 38  1  0
 37 39  1  0
 39 40  1  0
 39 41  1  0
 39 42  1  0
 42 43  1  0
 42 44  1  0
 36 45  2  0
 45 46  1  0
 24 47  2  0
 47 48  1  0
 15 49  1  0
 49 50  1  0
 49 51  2  0
 51 52  1  0
 52 53  1  0
 53 54  1  0
 53 55  1  0
 53 56  1  0
 52 57  1  0
 57 58  2  0
  7 59  1  0
 59 60  1  0
 59 61  2  0
 61 62  1  0
 61  2  1  0
 57  8  1  0
 51 11  1  0
 47 17  1  0
 45 29  1  0
 42 37  1  0
M  CHG  1  14  -1
M  END
>  <UniqueID>  (79) 
68

>  <SMILES>  (79) 
Cn1c(=O)c(-c2ccccc2)cc2c[n-]/c(=N/c3cccc(NC(=O)c4cccc(C5CC5)c4)c3)cc21

>  <Energy>  (79) 
371.6838974986307

>  <Genealogy>  (79) 
Cn1c(=O)c(-c2ccccc2)cc2c[n-]c(=Nc3cccc(NC(=O)c4cccc(C5CC5)c4)c3)cc21 (protonated)
Cn1c(=O)c(-c2ccccc2)cc2c[n-]/c(=N/c3cccc(NC(=O)c4cccc(C5CC5)c4)c3)cc21 (cis-trans isomerization)
Cn1c(=O)c(-c2ccccc2)cc2c[n-]/c(=N/c3cccc(NC(=O)c4cccc(C5CC5)c4)c3)cc21 (3D coordinates assigned)
Cn1c(=O)c(-c2ccccc2)cc2c[n-]/c(=N/c3cccc(NC(=O)c4cccc(C5CC5)c4)c3)cc21 (nonaromatic ring conformer: 371.6838974986307 kcal/mol)

>  <smiles>  (79) 
Cn1c(=O)c(-c2ccccc2)cc2c[nH]c(=Nc3cccc(NC(=O)c4cccc(C5CC5)c4)c3)cc21

>  <score_type>  (79) 
oracle

>  <origin>  (79) 
adg

>  <m_score__min__energy>  (79) 
-11.51

>  <m_primary>  (79) 
energy

$$$$
79:0
     RDKit          3D

 46 47  0  0  0  0  0  0  0  0999 V2000
   59.8970   35.9781   47.6989 H   0  0  0  0  0  0  0  0  0  0  0  0
   59.9620   34.8860   47.8130 C   0  0  0  0  0  0  0  0  0  0  0  0
   60.0720   34.3420   49.1790 C   0  0  0  0  0  0  0  0  0  0  0  0
   59.1787   34.2943   49.8192 H   0  0  0  0  0  0  0  0  0  0  0  0
   59.5880   32.7060   46.6400 C   0  0  0  0  0  0  0  0  0  0  0  0
   58.7340   32.0100   45.3590 S   0  0  0  0  0  0  0  0  0  0  0  0
   58.8870   30.4250   45.9010 C   0  0  0  0  0  0  0  0  0  0  0  0
   58.4380   29.2400   45.3000 C   0  0  0  0  0  0  0  0  0  0  0  0
   57.7080   29.2600   44.0640 N   0  0  0  0  0  0  0  0  0  0  0  0
   58.2340   29.0690   43.1810 H   0  0  0  0  0  0  0  0  0  0  0  0
   56.2880   29.4750   43.9750 C   0  0  0  0  0  0  0  0  0  0  0  0
   55.7130   29.8290   42.7150 N   0  0  0  0  0  0  0  0  0  0  0  0
   56.3210   29.9860   41.8800 H   0  0  0  0  0  0  0  0  0  0  0  0
   54.6800   29.9390   42.6120 H   0  0  0  0  0  0  0  0  0  0  0  0
   55.5170   29.3040   45.0090 N   0  0  0  0  0  0  0  0  0  0  0  0
   55.1500   28.3560   45.2510 H   0  0  0  0  0  0  0  0  0  0  0  0
   55.2580   30.0950   45.6390 H   0  0  0  0  0  0  0  0  0  0  0  0
   58.7900   28.0170   45.9110 C   0  0  0  0  0  0  0  0  0  0  0  0
   58.2730   26.4860   45.2190 Cl  0  0  0  0  0  0  0  0  0  0  0  0
   59.5410   28.0100   47.1040 C   0  0  0  0  0  0  0  0  0  0  0  0
   59.7924   27.0524   47.5834 H   0  0  0  0  0  0  0  0  0  0  0  0
   59.9710   29.2120   47.6860 C   0  0  0  0  0  0  0  0  0  0  0  0
   60.5605   29.2035   48.6147 H   0  0  0  0  0  0  0  0  0  0  0  0
   59.6390   30.4190   47.0680 C   0  0  0  0  0  0  0  0  0  0  0  0
   60.0460   31.6910   47.4870 C   0  0  0  0  0  0  0  0  0  0  0  0
   60.6580   31.8725   48.3828 H   0  0  0  0  0  0  0  0  0  0  0  0
   59.9360   34.1380   46.7010 C   0  0  0  0  0  0  0  0  0  0  0  0
   60.1961   34.6339   45.7542 H   0  0  0  0  0  0  0  0  0  0  0  0
   61.2430   33.9070   49.6470 C   0  0  0  0  0  0  0  0  0  0  0  0
   61.2524   33.1311   50.4267 H   0  0  0  0  0  0  0  0  0  0  0  0
   62.5480   34.4470   49.1390 C   0  0  0  0  0  0  0  0  0  0  0  0
   62.9413   35.1602   49.8784 H   0  0  0  0  0  0  0  0  0  0  0  0
   62.3456   34.9224   48.1679 H   0  0  0  0  0  0  0  0  0  0  0  0
   63.6160   33.3530   48.8970 C   0  0  0  0  0  0  0  0  0  0  0  0
   63.3162   32.4586   49.4628 H   0  0  0  0  0  0  0  0  0  0  0  0
   64.5704   33.7920   49.2232 H   0  0  0  0  0  0  0  0  0  0  0  0
   63.8230   32.9480   47.4810 N   0  0  0  0  0  0  0  0  0  0  0  0
   64.8610   32.8790   47.3470 H   0  0  0  0  0  0  0  0  0  0  0  0
   63.2730   31.6150   47.1740 C   0  0  0  0  0  0  0  0  0  0  0  0
   63.0538   31.0839   48.1120 H   0  0  0  0  0  0  0  0  0  0  0  0
   62.3471   31.7259   46.5905 H   0  0  0  0  0  0  0  0  0  0  0  0
   64.0076   31.0407   46.5905 H   0  0  0  0  0  0  0  0  0  0  0  0
   63.3430   33.9520   46.5140 C   0  0  0  0  0  0  0  0  0  0  0  0
   62.9302   34.8154   47.0563 H   0  0  0  0  0  0  0  0  0  0  0  0
   64.1806   34.2822   45.8821 H   0  0  0  0  0  0  0  0  0  0  0  0
   62.5600   33.5075   45.8821 H   0  0  0  0  0  0  0  0  0  0  0  0
  1  2  1  0
  2  3  2  0
  3  4  1  0
  3  5  1  0
  5  6  1  0
  6  7  1  0
  7  8  2  0
  8  9  1  0
  9 10  1  0
  9 11  1  0
 11 12  1  0
 12 13  1  0
 12 14  1  0
 11 15  2  0
 15 16  1  0
 15 17  1  0
  8 18  1  0
 18 19  1  0
 18 20  2  0
 20 21  1  0
 20 22  1  0
 22 23  1  0
 22 24  2  0
 24 25  1  0
 25 26  1  0
  2 27  1  0
 27 28  1  0
 27 29  2  0
 29 30  1  0
 29 31  1  0
 31 32  1  0
 31 33  1  0
 31 34  1  0
 34 35  1  0
 34 36  1  0
 34 37  1  0
 37 38  1  0
 37 39  1  0
 39 40  1  0
 39 41  1  0
 39 42  1  0
 37 43  1  0
 43 44  1  0
 43 45  1  0
 43 46  1  0
 25  5  2  0
 24  7  1  0
M  CHG  2  15   1  37   1
M  END
>  <UniqueID>  (80) 
69

>  <SMILES>  (80) 
C[NH+](C)CC/C=C/C=Cc1cc2ccc(Cl)c(NC(N)=[NH2+])c2s1

>  <Energy>  (80) 
84.72553358285934

>  <Genealogy>  (80) 
C[NH+](C)CCC=CC=Cc1cc2ccc(Cl)c(NC(N)=[NH2+])c2s1 (protonated)
C[NH+](C)CC/C=C/C=Cc1cc2ccc(Cl)c(NC(N)=[NH2+])c2s1 (cis-trans isomerization)
C[NH+](C)CC/C=C/C=Cc1cc2ccc(Cl)c(NC(N)=[NH2+])c2s1 (3D coordinates assigned)
C[NH+](C)CC/C=C/C=Cc1cc2ccc(Cl)c(NC(N)=[NH2+])c2s1 (optimized conformer: 84.72553358285934 kcal/mol)

>  <smiles>  (80) 
CN(C)CCC=CC=Cc1cc2ccc(Cl)c(NC(=N)N)c2s1

>  <score_type>  (80) 
oracle

>  <origin>  (80) 
adg

>  <m_score__min__energy>  (80) 
-5.4199999999999999

>  <m_primary>  (80) 
energy

$$$$
80:0
     RDKit          3D

 67 70  0  0  0  0  0  0  0  0999 V2000
   60.6604   33.7717   45.1696 H   0  0  0  0  0  0  0  0  0  0  0  0
   60.4780   33.7440   46.2540 C   0  0  0  0  0  0  0  0  0  0  0  0
   59.1740   33.6050   46.7460 C   0  0  0  0  0  0  0  0  0  0  0  0
   58.0700   33.5280   45.8860 O   0  0  0  0  0  0  0  0  0  0  0  0
   57.8480   32.5010   44.9570 C   0  0  0  0  0  0  0  0  0  0  0  0
   57.7470   32.8290   43.5990 C   0  0  0  0  0  0  0  0  0  0  0  0
   57.8497   33.8770   43.2809 H   0  0  0  0  0  0  0  0  0  0  0  0
   57.5170   31.8350   42.6470 C   0  0  0  0  0  0  0  0  0  0  0  0
   57.4558   32.0991   41.5809 H   0  0  0  0  0  0  0  0  0  0  0  0
   57.3640   30.5020   43.0470 C   0  0  0  0  0  0  0  0  0  0  0  0
   57.2054   29.7188   42.2911 H   0  0  0  0  0  0  0  0  0  0  0  0
   57.4120   30.1590   44.4100 C   0  0  0  0  0  0  0  0  0  0  0  0
   57.2130   28.8050   44.8500 N   0  0  0  0  0  0  0  0  0  0  0  0
   56.4300   28.2680   44.4160 H   0  0  0  0  0  0  0  0  0  0  0  0
   58.1670   28.0890   45.6530 C   0  0  0  0  0  0  0  0  0  0  0  0
   59.3740   28.4580   45.6610 O   0  0  0  0  0  0  0  0  0  0  0  0
   57.8170   26.8900   46.3640 N   0  0  0  0  0  0  0  0  0  0  0  0
   56.7200   26.1970   46.2710 C   0  0  0  0  0  0  0  0  0  0  0  0
   55.4990   26.7000   45.9990 N   0  0  0  0  0  0  0  0  0  0  0  0
   54.6830   25.6850   45.9670 O   0  0  0  0  0  0  0  0  0  0  0  0
   55.3170   24.5520   46.2030 C   0  0  0  0  0  0  0  0  0  0  0  0
   54.6480   23.1920   46.2510 C   0  0  0  0  0  0  0  0  0  0  0  0
   54.5650   22.6790   47.7040 C   0  0  0  0  0  0  0  0  0  0  0  0
   54.7012   23.5211   48.3985 H   0  0  0  0  0  0  0  0  0  0  0  0
   53.5807   22.2186   47.8746 H   0  0  0  0  0  0  0  0  0  0  0  0
   55.3539   21.9317   47.8746 H   0  0  0  0  0  0  0  0  0  0  0  0
   55.4670   22.1850   45.4200 C   0  0  0  0  0  0  0  0  0  0  0  0
   56.0147   21.5116   46.0957 H   0  0  0  0  0  0  0  0  0  0  0  0
   54.7886   21.5956   44.7856 H   0  0  0  0  0  0  0  0  0  0  0  0
   56.1822   22.7290   44.7856 H   0  0  0  0  0  0  0  0  0  0  0  0
   53.2290   23.3070   45.6650 C   0  0  0  0  0  0  0  0  0  0  0  0
   52.4976   23.3663   46.4845 H   0  0  0  0  0  0  0  0  0  0  0  0
   53.1603   24.2137   45.0459 H   0  0  0  0  0  0  0  0  0  0  0  0
   53.0152   22.4232   45.0459 H   0  0  0  0  0  0  0  0  0  0  0  0
   56.6530   24.8340   46.4330 C   0  0  0  0  0  0  0  0  0  0  0  0
   57.4647   24.1356   46.6846 H   0  0  0  0  0  0  0  0  0  0  0  0
   57.6770   31.1610   45.3570 C   0  0  0  0  0  0  0  0  0  0  0  0
   57.7519   30.8971   46.4222 H   0  0  0  0  0  0  0  0  0  0  0  0
   58.9630   33.5970   48.0880 N   0  0  0  0  0  0  0  0  0  0  0  0
   59.9790   33.6840   48.9880 C   0  0  0  0  0  0  0  0  0  0  0  0
   59.6320   33.7090   50.4530 C   0  0  0  0  0  0  0  0  0  0  0  0
   60.5539   33.6426   51.0494 H   0  0  0  0  0  0  0  0  0  0  0  0
   59.1088   34.6472   50.6899 H   0  0  0  0  0  0  0  0  0  0  0  0
   58.9797   32.8555   50.6899 H   0  0  0  0  0  0  0  0  0  0  0  0
   61.3110   33.7930   48.5280 C   0  0  0  0  0  0  0  0  0  0  0  0
   62.4540   33.9110   49.4540 C   0  0  0  0  0  0  0  0  0  0  0  0
   63.0070   35.0340   49.5940 O   0  0  0  0  0  0  0  0  0  0  0  0
   62.9280   32.7820   50.2120 N   0  0  0  0  0  0  0  0  0  0  0  0
   63.6100   33.0280   51.4880 C   0  0  0  0  0  0  0  0  0  0  0  0
   64.5587   33.5495   51.2929 H   0  0  0  0  0  0  0  0  0  0  0  0
   62.9525   33.6418   52.1212 H   0  0  0  0  0  0  0  0  0  0  0  0
   63.9030   31.7170   52.2220 C   0  0  0  0  0  0  0  0  0  0  0  0
   64.8418   31.2854   51.8447 H   0  0  0  0  0  0  0  0  0  0  0  0
   64.0010   31.9098   53.3005 H   0  0  0  0  0  0  0  0  0  0  0  0
   62.7980   30.7760   51.9850 N   0  0  0  0  0  0  0  0  0  0  0  0
   62.8960   29.6300   52.9000 C   0  0  0  0  0  0  0  0  0  0  0  0
   62.8654   29.9874   53.9399 H   0  0  0  0  0  0  0  0  0  0  0  0
   62.0531   28.9459   52.7225 H   0  0  0  0  0  0  0  0  0  0  0  0
   63.8428   29.0990   52.7225 H   0  0  0  0  0  0  0  0  0  0  0  0
   62.8020   30.3120   50.5810 C   0  0  0  0  0  0  0  0  0  0  0  0
   63.6058   29.5713   50.4575 H   0  0  0  0  0  0  0  0  0  0  0  0
   61.8131   29.8780   50.3718 H   0  0  0  0  0  0  0  0  0  0  0  0
   63.0300   31.4620   49.5730 C   0  0  0  0  0  0  0  0  0  0  0  0
   64.0332   31.3562   49.1344 H   0  0  0  0  0  0  0  0  0  0  0  0
   62.2495   31.3969   48.8007 H   0  0  0  0  0  0  0  0  0  0  0  0
   61.5430   33.8470   47.1470 C   0  0  0  0  0  0  0  0  0  0  0  0
   62.5678   33.9709   46.7671 H   0  0  0  0  0  0  0  0  0  0  0  0
  1  2  1  0
  2  3  2  0
  3  4  1  0
  4  5  1  0
  5  6  2  0
  6  7  1  0
  6  8  1  0
  8  9  1  0
  8 10  2  0
 10 11  1  0
 10 12  1  0
 12 13  1  0
 13 14  1  0
 13 15  1  0
 15 16  2  0
 15 17  1  0
 17 18  2  0
 18 19  1  0
 19 20  1  0
 20 21  1  0
 21 22  1  0
 22 23  1  0
 23 24  1  0
 23 25  1  0
 23 26  1  0
 22 27  1  0
 27 28  1  0
 27 29  1  0
 27 30  1  0
 22 31  1  0
 31 32  1  0
 31 33  1  0
 31 34  1  0
 21 35  2  0
 35 36  1  0
 12 37  2  0
 37 38  1  0
  3 39  1  0
 39 40  2  0
 40 41  1  0
 41 42  1  0
 41 43  1  0
 41 44  1  0
 40 45  1  0
 45 46  1  0
 46 47  2  0
 46 48  1  0
 48 49  1  0
 49 50  1  0
 49 51  1  0
 49 52  1  0
 52 53  1  0
 52 54  1  0
 52 55  1  0
 55 56  1  0
 56 57  1  0
 56 58  1  0
 56 59  1  0
 55 60  1  0
 60 61  1  0
 60 62  1  0
 60 63  1  0
 63 64  1  0
 63 65  1  0
 45 66  2  0
 66 67  1  0
 66  2  1  0
 37  5  1  0
 63 48  1  0
 35 18  1  0
M  CHG  1  19  -1
M  END
>  <UniqueID>  (81) 
70

>  <SMILES>  (81) 
Cc1nc(Oc2cccc(NC(=O)/N=c3/cc(C(C)(C)C)o[n-]3)c2)ccc1C(=O)N1CCN(C)CC1

>  <Energy>  (81) 
121.79256382116426

>  <Genealogy>  (81) 
Cc1nc(Oc2cccc(NC(=O)N=c3cc(C(C)(C)C)o[n-]3)c2)ccc1C(=O)N1CCN(C)CC1 (protonated)
Cc1nc(Oc2cccc(NC(=O)/N=c3/cc(C(C)(C)C)o[n-]3)c2)ccc1C(=O)N1CCN(C)CC1 (cis-trans isomerization)
Cc1nc(Oc2cccc(NC(=O)/N=c3/cc(C(C)(C)C)o[n-]3)c2)ccc1C(=O)N1CCN(C)CC1 (3D coordinates assigned)
Cc1nc(Oc2cccc(NC(=O)/N=c3/cc(C(C)(C)C)o[n-]3)c2)ccc1C(=O)N1CCN(C)CC1 (nonaromatic ring conformer: 121.79256382116426 kcal/mol)

>  <smiles>  (81) 
Cc1nc(Oc2cccc(NC(=O)N=c3cc(C(C)(C)C)o[nH]3)c2)ccc1C(=O)N1CCN(C)CC1

>  <score_type>  (81) 
oracle

>  <origin>  (81) 
adg

>  <m_score__min__energy>  (81) 
-12.02

>  <m_primary>  (81) 
energy

$$$$
81:0
     RDKit          3D

 43 45  0  0  0  0  0  0  0  0999 V2000
   64.2730   31.6490   50.4910 C   0  0  0  0  0  0  0  0  0  0  0  0
   65.0660   33.0730   49.6840 S   0  0  0  0  0  0  0  0  0  0  0  0
   63.7870   33.2200   48.4420 C   0  0  0  0  0  0  0  0  0  0  0  0
   63.8100   34.1130   47.4380 N   0  0  0  0  0  0  0  0  0  0  0  0
   62.7050   33.9100   46.7390 N   0  0  0  0  0  0  0  0  0  0  0  0
   62.0500   32.8990   47.3470 C   0  0  0  0  0  0  0  0  0  0  0  0
   60.7600   32.3450   46.8920 C   0  0  0  0  0  0  0  0  0  0  0  0
   60.4630   30.9900   47.1040 C   0  0  0  0  0  0  0  0  0  0  0  0
   59.2430   30.4580   46.6770 C   0  0  0  0  0  0  0  0  0  0  0  0
   58.3090   31.2710   46.0110 C   0  0  0  0  0  0  0  0  0  0  0  0
   57.0390   30.7610   45.5810 N   0  0  0  0  0  0  0  0  0  0  0  0
   56.7860   29.4210   45.1440 C   0  0  0  0  0  0  0  0  0  0  0  0
   55.8830   29.2230   44.2890 O   0  0  0  0  0  0  0  0  0  0  0  0
   57.5700   28.3260   45.6490 N   0  0  0  0  0  0  0  0  0  0  0  0
   57.1990   26.9460   45.5110 C   0  0  0  0  0  0  0  0  0  0  0  0
   58.1300   25.9690   45.1200 C   0  0  0  0  0  0  0  0  0  0  0  0
   57.7410   24.6320   45.0140 C   0  0  0  0  0  0  0  0  0  0  0  0
   56.4270   24.2570   45.3040 C   0  0  0  0  0  0  0  0  0  0  0  0
   55.4900   25.2130   45.7140 C   0  0  0  0  0  0  0  0  0  0  0  0
   54.1540   24.7820   46.0050 N   0  0  0  0  0  0  0  0  0  0  0  0
   53.1730   23.7700   44.9940 S   0  0  0  0  0  0  0  0  0  0  0  0
   51.5570   24.4900   44.7880 C   0  0  0  0  0  0  0  0  0  0  0  0
   53.8250   23.6570   43.6450 O   0  0  0  0  0  0  0  0  0  0  0  0
   53.0620   22.3960   45.5940 O   0  0  0  0  0  0  0  0  0  0  0  0
   55.8870   26.5570   45.8270 C   0  0  0  0  0  0  0  0  0  0  0  0
   58.5950   32.6290   45.8220 C   0  0  0  0  0  0  0  0  0  0  0  0
   59.8130   33.1620   46.2520 C   0  0  0  0  0  0  0  0  0  0  0  0
   62.7120   32.4720   48.3960 O   0  0  0  0  0  0  0  0  0  0  0  0
   64.3370   31.7640   51.5831 H   0  0  0  0  0  0  0  0  0  0  0  0
   63.2165   31.5979   50.1890 H   0  0  0  0  0  0  0  0  0  0  0  0
   64.7859   30.7239   50.1890 H   0  0  0  0  0  0  0  0  0  0  0  0
   61.1948   30.3426   47.6093 H   0  0  0  0  0  0  0  0  0  0  0  0
   59.0126   29.3986   46.8628 H   0  0  0  0  0  0  0  0  0  0  0  0
   58.3700   28.5450   46.2840 H   0  0  0  0  0  0  0  0  0  0  0  0
   59.1677   26.2579   44.8969 H   0  0  0  0  0  0  0  0  0  0  0  0
   58.4717   23.8716   44.7011 H   0  0  0  0  0  0  0  0  0  0  0  0
   56.1264   23.2031   45.2096 H   0  0  0  0  0  0  0  0  0  0  0  0
   51.1148   24.6870   45.7757 H   0  0  0  0  0  0  0  0  0  0  0  0
   51.6446   25.4342   44.2305 H   0  0  0  0  0  0  0  0  0  0  0  0
   50.9136   23.7934   44.2305 H   0  0  0  0  0  0  0  0  0  0  0  0
   55.1624   27.3118   46.1665 H   0  0  0  0  0  0  0  0  0  0  0  0
   57.8561   33.2801   45.3320 H   0  0  0  0  0  0  0  0  0  0  0  0
   60.0317   34.2276   46.0885 H   0  0  0  0  0  0  0  0  0  0  0  0
  1  2  1  0
  2  3  1  0
  3  4  2  0
  4  5  1  0
  5  6  2  0
  6  7  1  0
  7  8  2  0
  8  9  1  0
  9 10  2  0
 10 11  1  0
 11 12  1  0
 12 13  2  0
 12 14  1  0
 14 15  1  0
 15 16  2  0
 16 17  1  0
 17 18  2  0
 18 19  1  0
 19 20  1  0
 20 21  1  0
 21 22  1  0
 21 23  2  0
 21 24  2  0
 19 25  2  0
 10 26  1  0
 26 27  2  0
  6 28  1  0
 28  3  1  0
 27  7  1  0
 25 15  1  0
  1 29  1  0
  1 30  1  0
  1 31  1  0
  8 32  1  0
  9 33  1  0
 14 34  1  0
 16 35  1  0
 17 36  1  0
 18 37  1  0
 22 38  1  0
 22 39  1  0
 22 40  1  0
 25 41  1  0
 26 42  1  0
 27 43  1  0
M  CHG  2  11  -1  20  -1
M  END
>  <UniqueID>  (82) 
71

>  <SMILES>  (82) 
CSc1nnc(-c2ccc([N-]C(=O)Nc3cccc([N-]S(C)(=O)=O)c3)cc2)o1

>  <Energy>  (82) 
83.18767370334996

>  <Genealogy>  (82) 
CSc1nnc(-c2ccc([N-]C(=O)Nc3cccc([N-]S(C)(=O)=O)c3)cc2)o1 (protonated)
CSc1nnc(-c2ccc([N-]C(=O)Nc3cccc([N-]S(C)(=O)=O)c3)cc2)o1 (3D coordinates assigned)
CSc1nnc(-c2ccc([N-]C(=O)Nc3cccc([N-]S(C)(=O)=O)c3)cc2)o1 (optimized conformer: 83.18767370334996 kcal/mol)

>  <smiles>  (82) 
CSc1nnc(-c2ccc(NC(=O)Nc3cccc(NS(C)(=O)=O)c3)cc2)o1

>  <score_type>  (82) 
oracle

>  <origin>  (82) 
adg

>  <m_score__min__energy>  (82) 
-12.220000000000001

>  <m_primary>  (82) 
energy

$$$$
82:0
     RDKit          3D

 56 59  0  0  0  0  0  0  0  0999 V2000
   56.0910   28.7543   44.1347 H   0  0  0  0  0  0  0  0  0  0  0  0
   56.6870   29.4470   44.7470 C   0  0  0  0  0  0  0  0  0  0  0  0
   56.6470   30.7810   44.4940 N   0  0  0  0  0  0  0  0  0  0  0  0
   57.3630   31.6810   45.2190 C   0  0  0  0  0  0  0  0  0  0  0  0
   57.2630   32.9440   44.9100 N   0  0  0  0  0  0  0  0  0  0  0  0
   58.3380   33.8540   44.5100 C   0  0  0  0  0  0  0  0  0  0  0  0
   59.0506   33.3102   43.8725 H   0  0  0  0  0  0  0  0  0  0  0  0
   57.8952   34.6984   43.9614 H   0  0  0  0  0  0  0  0  0  0  0  0
   59.0830   34.4060   45.7400 C   0  0  2  0  0  0  0  0  0  0  0  0
   59.2164   35.4724   45.5054 H   0  0  0  0  0  0  0  0  0  0  0  0
   60.4300   33.7220   45.9810 C   0  0  0  0  0  0  0  0  0  0  0  0
   61.2467   34.3181   45.5478 H   0  0  0  0  0  0  0  0  0  0  0  0
   60.4731   32.7289   45.5100 H   0  0  0  0  0  0  0  0  0  0  0  0
   60.5720   33.6400   47.4270 N   0  0  0  0  0  0  0  0  0  0  0  0
   61.7870   33.2260   48.0930 C   0  0  0  0  0  0  0  0  0  0  0  0
   63.0460   33.5520   47.5550 C   0  0  0  0  0  0  0  0  0  0  0  0
   63.1134   34.1286   46.6207 H   0  0  0  0  0  0  0  0  0  0  0  0
   64.2070   33.1430   48.2080 C   0  0  0  0  0  0  0  0  0  0  0  0
   65.1915   33.4068   47.7943 H   0  0  0  0  0  0  0  0  0  0  0  0
   64.1230   32.3980   49.3880 C   0  0  0  0  0  0  0  0  0  0  0  0
   65.3640   31.9850   50.1210 C   0  0  0  0  0  0  0  0  0  0  0  0
   65.1864   32.0441   51.2050 H   0  0  0  0  0  0  0  0  0  0  0  0
   65.6244   30.9518   49.8479 H   0  0  0  0  0  0  0  0  0  0  0  0
   66.1916   32.6561   49.8479 H   0  0  0  0  0  0  0  0  0  0  0  0
   62.8570   32.1050   49.9080 C   0  0  0  0  0  0  0  0  0  0  0  0
   62.7707   31.5419   50.8490 H   0  0  0  0  0  0  0  0  0  0  0  0
   61.7320   32.5110   49.2590 N   0  0  0  0  0  0  0  0  0  0  0  0
   60.8130   32.2680   49.6890 H   0  0  0  0  0  0  0  0  0  0  0  0
   59.3510   34.0230   48.1200 C   0  0  0  0  0  0  0  0  0  0  0  0
   59.5014   34.9648   48.6681 H   0  0  0  0  0  0  0  0  0  0  0  0
   59.0489   33.2634   48.8561 H   0  0  0  0  0  0  0  0  0  0  0  0
   58.2960   34.2030   47.0370 C   0  0  0  0  0  0  0  0  0  0  0  0
   57.6704   35.0823   47.2502 H   0  0  0  0  0  0  0  0  0  0  0  0
   57.6181   33.3389   46.9757 H   0  0  0  0  0  0  0  0  0  0  0  0
   58.1830   31.2160   46.2690 C   0  0  0  0  0  0  0  0  0  0  0  0
   58.7742   31.9289   46.8625 H   0  0  0  0  0  0  0  0  0  0  0  0
   58.2440   29.8420   46.5560 C   0  0  0  0  0  0  0  0  0  0  0  0
   59.0980   29.3340   47.6600 C   0  0  0  0  0  0  0  0  0  0  0  0
   59.5890   28.0230   47.6390 C   0  0  0  0  0  0  0  0  0  0  0  0
   59.3471   27.3578   46.7970 H   0  0  0  0  0  0  0  0  0  0  0  0
   60.3860   27.5610   48.6880 C   0  0  0  0  0  0  0  0  0  0  0  0
   60.7606   26.5269   48.6707 H   0  0  0  0  0  0  0  0  0  0  0  0
   60.7070   28.3780   49.7370 N   0  0  0  0  0  0  0  0  0  0  0  0
   61.5290   27.8390   50.8320 C   0  0  0  0  0  0  0  0  0  0  0  0
   61.3477   28.4265   51.7441 H   0  0  0  0  0  0  0  0  0  0  0  0
   62.5893   27.9018   50.5458 H   0  0  0  0  0  0  0  0  0  0  0  0
   61.1740   26.3790   51.0960 C   0  0  0  0  0  0  0  0  0  0  0  0
   61.1311   26.2025   52.1809 H   0  0  0  0  0  0  0  0  0  0  0  0
   60.1948   26.1531   50.6487 H   0  0  0  0  0  0  0  0  0  0  0  0
   61.9402   25.7287   50.6487 H   0  0  0  0  0  0  0  0  0  0  0  0
   60.2270   29.6630   49.7830 C   0  0  0  0  0  0  0  0  0  0  0  0
   60.4990   30.4180   50.7570 O   0  0  0  0  0  0  0  0  0  0  0  0
   59.4250   30.1560   48.7490 C   0  0  0  0  0  0  0  0  0  0  0  0
   59.0501   31.1893   48.7894 H   0  0  0  0  0  0  0  0  0  0  0  0
   57.4810   28.9540   45.7800 C   0  0  0  0  0  0  0  0  0  0  0  0
   57.5103   27.8741   45.9871 H   0  0  0  0  0  0  0  0  0  0  0  0
  1  2  1  0
  2  3  1  0
  3  4  1  0
  4  5  2  0
  5  6  1  0
  6  7  1  0
  6  8  1  0
  6  9  1  0
  9 10  1  6
  9 11  1  0
 11 12  1  0
 11 13  1  0
 11 14  1  0
 14 15  1  0
 15 16  2  0
 16 17  1  0
 16 18  1  0
 18 19  1  0
 18 20  2  0
 20 21  1  0
 21 22  1  0
 21 23  1  0
 21 24  1  0
 20 25  1  0
 25 26  1  0
 25 27  2  0
 27 28  1  0
 14 29  1  0
 29 30  1  0
 29 31  1  0
 29 32  1  0
 32 33  1  0
 32 34  1  0
  4 35  1  0
 35 36  1  0
 35 37  2  0
 37 38  1  0
 38 39  1  0
 39 40  1  0
 39 41  2  0
 41 42  1  0
 41 43  1  0
 43 44  1  0
 44 45  1  0
 44 46  1  0
 44 47  1  0
 47 48  1  0
 47 49  1  0
 47 50  1  0
 43 51  1  0
 51 52  2  0
 51 53  1  0
 53 54  1  0
 37 55  1  0
 55 56  1  0
 55  2  2  0
 32  9  1  0
 53 38  2  0
 27 15  1  0
M  CHG  2   3  -1  27   1
M  END
>  <UniqueID>  (83) 
72

>  <SMILES>  (83) 
CCn1ccc(-c2cc[n-]/c(=N/C[C@H]3CCN(c4ccc(C)c[nH+]4)C3)c2)cc1=O

>  <Energy>  (83) 
66.39235983106155

>  <Genealogy>  (83) 
CCn1ccc(-c2cc[n-]c(=NCC3CCN(c4ccc(C)c[nH+]4)C3)c2)cc1=O (protonated)
CCn1ccc(-c2cc[n-]c(=NC[C@H]3CCN(c4ccc(C)c[nH+]4)C3)c2)cc1=O (chirality)
CCn1ccc(-c2cc[n-]/c(=N/C[C@H]3CCN(c4ccc(C)c[nH+]4)C3)c2)cc1=O (cis-trans isomerization)
CCn1ccc(-c2cc[n-]/c(=N/C[C@H]3CCN(c4ccc(C)c[nH+]4)C3)c2)cc1=O (3D coordinates assigned)
CCn1ccc(-c2cc[n-]/c(=N/C[C@H]3CCN(c4ccc(C)c[nH+]4)C3)c2)cc1=O (nonaromatic ring conformer: 66.39235983106155 kcal/mol)

>  <smiles>  (83) 
CCn1ccc(-c2cc[nH]c(=NCC3CCN(c4ccc(C)cn4)C3)c2)cc1=O

>  <score_type>  (83) 
oracle

>  <origin>  (83) 
adg

>  <m_score__min__energy>  (83) 
-8.7899999999999991

>  <m_primary>  (83) 
energy

$$$$
83:0
     RDKit          3D

 50 53  0  0  0  0  0  0  0  0999 V2000
   59.1500   29.2130   48.7410 C   0  0  0  0  0  0  0  0  0  0  0  0
   58.5580   29.6180   47.4250 C   0  0  0  0  0  0  0  0  0  0  0  0
   57.8180   28.8430   46.5240 C   0  0  0  0  0  0  0  0  0  0  0  0
   57.4070   27.4360   46.6700 C   0  0  0  0  0  0  0  0  0  0  0  0
   57.9470   26.7390   47.5710 O   0  0  0  0  0  0  0  0  0  0  0  0
   56.4500   26.8400   45.7810 N   0  0  0  0  0  0  0  0  0  0  0  0
   55.9370   25.4870   45.9790 C   0  0  0  0  0  0  0  0  0  0  0  0
   56.9420   24.4740   45.5010 C   0  0  0  0  0  0  0  0  0  0  0  0
   58.2640   24.5220   45.9710 C   0  0  0  0  0  0  0  0  0  0  0  0
   59.1980   23.5710   45.5470 C   0  0  0  0  0  0  0  0  0  0  0  0
   58.8150   22.5630   44.6580 C   0  0  0  0  0  0  0  0  0  0  0  0
   57.4990   22.5040   44.1890 C   0  0  0  0  0  0  0  0  0  0  0  0
   56.9770   21.1230   42.9780 Br  0  0  0  0  0  0  0  0  0  0  0  0
   56.5640   23.4560   44.6110 C   0  0  0  0  0  0  0  0  0  0  0  0
   57.5240   29.5570   45.4510 O   0  0  0  0  0  0  0  0  0  0  0  0
   58.0120   30.7600   45.6200 C   0  0  0  0  0  0  0  0  0  0  0  0
   57.9350   31.8370   44.7420 C   0  0  0  0  0  0  0  0  0  0  0  0
   58.5400   33.0470   45.1290 C   0  0  0  0  0  0  0  0  0  0  0  0
   59.2000   33.1550   46.3770 C   0  0  0  0  0  0  0  0  0  0  0  0
   59.9750   34.6690   46.8310 S   0  0  0  0  0  0  0  0  0  0  0  0
   59.1950   35.3230   47.9400 O   0  0  0  0  0  0  0  0  0  0  0  0
   59.9870   35.5930   45.6470 O   0  0  0  0  0  0  0  0  0  0  0  0
   61.6140   34.3490   47.3380 N   0  0  0  0  0  0  0  0  0  0  0  0
   62.3090   33.4920   46.3790 C   0  0  0  0  0  0  0  0  0  0  0  0
   63.3780   32.7440   47.1600 C   0  0  0  0  0  0  0  0  0  0  0  0
   62.9410   32.8240   48.6150 C   0  0  0  0  0  0  0  0  0  0  0  0
   61.6450   33.6200   48.6050 C   0  0  0  0  0  0  0  0  0  0  0  0
   59.2660   32.0410   47.2390 C   0  0  0  0  0  0  0  0  0  0  0  0
   58.6550   30.8570   46.8260 C   0  0  0  0  0  0  0  0  0  0  0  0
   58.5433   29.6281   49.5593 H   0  0  0  0  0  0  0  0  0  0  0  0
   59.1635   28.1156   48.8148 H   0  0  0  0  0  0  0  0  0  0  0  0
   60.1777   29.5981   48.8148 H   0  0  0  0  0  0  0  0  0  0  0  0
   56.1730   27.3430   44.9090 H   0  0  0  0  0  0  0  0  0  0  0  0
   55.7402   25.3262   47.0492 H   0  0  0  0  0  0  0  0  0  0  0  0
   55.0070   25.3684   45.4037 H   0  0  0  0  0  0  0  0  0  0  0  0
   58.5666   25.3107   46.6756 H   0  0  0  0  0  0  0  0  0  0  0  0
   60.2342   23.6165   45.9134 H   0  0  0  0  0  0  0  0  0  0  0  0
   59.5500   21.8147   44.3266 H   0  0  0  0  0  0  0  0  0  0  0  0
   55.5283   23.4065   44.2438 H   0  0  0  0  0  0  0  0  0  0  0  0
   57.4174   31.7452   43.7757 H   0  0  0  0  0  0  0  0  0  0  0  0
   58.4999   33.9164   44.4563 H   0  0  0  0  0  0  0  0  0  0  0  0
   61.6035   32.7808   45.9246 H   0  0  0  0  0  0  0  0  0  0  0  0
   62.7535   34.0852   45.5663 H   0  0  0  0  0  0  0  0  0  0  0  0
   63.4330   31.6957   46.8312 H   0  0  0  0  0  0  0  0  0  0  0  0
   64.3771   33.1780   47.0071 H   0  0  0  0  0  0  0  0  0  0  0  0
   62.7704   31.8162   49.0214 H   0  0  0  0  0  0  0  0  0  0  0  0
   63.7070   33.2979   49.2464 H   0  0  0  0  0  0  0  0  0  0  0  0
   60.7820   32.9414   48.6740 H   0  0  0  0  0  0  0  0  0  0  0  0
   61.5953   34.3089   49.4611 H   0  0  0  0  0  0  0  0  0  0  0  0
   59.7835   32.1038   48.2076 H   0  0  0  0  0  0  0  0  0  0  0  0
  1  2  1  0
  2  3  2  0
  3  4  1  0
  4  5  2  0
  4  6  1  0
  6  7  1  0
  7  8  1  0
  8  9  2  0
  9 10  1  0
 10 11  2  0
 11 12  1  0
 12 13  1  0
 12 14  2  0
  3 15  1  0
 15 16  1  0
 16 17  2  0
 17 18  1  0
 18 19  2  0
 19 20  1  0
 20 21  2  0
 20 22  2  0
 20 23  1  0
 23 24  1  0
 24 25  1  0
 25 26  1  0
 26 27  1  0
 19 28  1  0
 28 29  2  0
 29  2  1  0
 14  8  1  0
 29 16  1  0
 27 23  1  0
  1 30  1  0
  1 31  1  0
  1 32  1  0
  6 33  1  0
  7 34  1  0
  7 35  1  0
  9 36  1  0
 10 37  1  0
 11 38  1  0
 14 39  1  0
 17 40  1  0
 18 41  1  0
 24 42  1  0
 24 43  1  0
 25 44  1  0
 25 45  1  0
 26 46  1  0
 26 47  1  0
 27 48  1  0
 27 49  1  0
 28 50  1  0
M  END
>  <UniqueID>  (84) 
73

>  <SMILES>  (84) 
Cc1c(C(=O)NCc2cccc(Br)c2)oc2ccc(S(=O)(=O)N3CCCC3)cc12

>  <Energy>  (84) 
86.5142367666086

>  <Genealogy>  (84) 
Cc1c(C(=O)NCc2cccc(Br)c2)oc2ccc(S(=O)(=O)N3CCCC3)cc12 (3D coordinates assigned)
Cc1c(C(=O)NCc2cccc(Br)c2)oc2ccc(S(=O)(=O)N3CCCC3)cc12 (nonaromatic ring conformer: 86.5142367666086 kcal/mol)

>  <smiles>  (84) 
Cc1c(C(=O)NCc2cccc(Br)c2)oc2ccc(S(=O)(=O)N3CCCC3)cc12

>  <score_type>  (84) 
oracle

>  <origin>  (84) 
adg

>  <m_score__min__energy>  (84) 
-9.5299999999999994

>  <m_primary>  (84) 
energy

$$$$
84:0
     RDKit          3D

 35 36  0  0  1  0  0  0  0  0999 V2000
   56.5100   28.9980   42.6100 N   0  0  0  0  0  0  0  0  0  0  0  0
   56.5840   29.3120   44.3260 S   0  0  0  0  0  0  0  0  0  0  0  0
   57.3030   28.2390   45.0560 O   0  0  0  0  0  0  0  0  0  0  0  0
   55.1650   29.4990   44.7870 O   0  0  0  0  0  0  0  0  0  0  0  0
   57.4130   30.8630   44.5150 C   0  0  0  0  0  0  0  0  0  0  0  0
   57.4220   31.7910   43.5110 C   0  0  0  0  0  0  0  0  0  0  0  0
   58.0620   32.9860   43.6580 C   0  0  0  0  0  0  0  0  0  0  0  0
   58.7300   33.3170   44.8220 C   0  0  0  0  0  0  0  0  0  0  0  0
   59.4050   34.5580   45.0010 N   0  0  0  0  0  0  0  0  0  0  0  0
   59.4300   35.0720   46.1310 N   0  0  0  0  0  0  0  0  0  0  0  0
   60.1380   34.5890   47.2680 C   0  0  0  0  0  0  0  0  0  0  0  0
   59.6070   34.5760   48.5410 C   0  0  0  0  0  0  0  0  0  0  0  0
   60.3460   34.0920   49.6150 C   0  0  0  0  0  0  0  0  0  0  0  0
   61.6160   33.6290   49.3660 C   0  0  0  0  0  0  0  0  0  0  0  0
   62.4240   33.1250   50.4020 O   0  0  0  0  0  0  0  0  0  0  0  0
   62.1860   33.6240   48.1110 C   0  0  0  0  0  0  0  0  0  0  0  0
   63.5590   33.1160   47.8930 C   0  0  0  0  0  0  0  0  0  0  0  0
   63.7730   32.3240   46.7770 O   0  0  0  0  0  0  0  0  0  0  0  0
   64.5200   33.4040   48.7190 N   0  0  0  0  0  0  0  0  0  0  0  0
   64.8760   32.3710   49.5850 O   0  0  0  0  0  0  0  0  0  0  0  0
   61.4200   34.1120   47.0760 C   0  0  0  0  0  0  0  0  0  0  0  0
   58.7100   32.3620   45.8310 C   0  0  0  0  0  0  0  0  0  0  0  0
   58.0630   31.1510   45.6830 C   0  0  0  0  0  0  0  0  0  0  0  0
   56.6520   27.9620   42.5040 H   0  0  0  0  0  0  0  0  0  0  0  0
   55.5310   29.1790   42.2400 H   0  0  0  0  0  0  0  0  0  0  0  0
   56.9031   31.5694   42.5667 H   0  0  0  0  0  0  0  0  0  0  0  0
   58.0463   33.7067   42.8271 H   0  0  0  0  0  0  0  0  0  0  0  0
   58.5872   34.9528   48.7086 H   0  0  0  0  0  0  0  0  0  0  0  0
   59.9272   34.0801   50.6321 H   0  0  0  0  0  0  0  0  0  0  0  0
   63.3460   33.5300   50.5210 H   0  0  0  0  0  0  0  0  0  0  0  0
   64.7070   31.9140   46.6540 H   0  0  0  0  0  0  0  0  0  0  0  0
   64.1330   31.8650   50.0490 H   0  0  0  0  0  0  0  0  0  0  0  0
   61.8438   34.1223   46.0610 H   0  0  0  0  0  0  0  0  0  0  0  0
   59.2261   32.5775   46.7782 H   0  0  0  0  0  0  0  0  0  0  0  0
   58.0705   30.4188   46.5039 H   0  0  0  0  0  0  0  0  0  0  0  0
  1  2  1  0
  2  3  2  0
  2  4  2  0
  2  5  1  0
  5  6  2  0
  6  7  1  0
  7  8  2  0
  8  9  1  0
  9 10  2  0
 10 11  1  0
 11 12  2  0
 12 13  1  0
 13 14  2  0
 14 15  1  0
 14 16  1  0
 16 17  1  0
 17 18  1  0
 17 19  2  0
 19 20  1  0
 16 21  2  0
  8 22  1  0
 22 23  2  0
 23  5  1  0
 21 11  1  0
  1 24  1  0
  1 25  1  0
  6 26  1  0
  7 27  1  0
 12 28  1  0
 13 29  1  0
 15 30  1  0
 18 31  1  0
 20 32  1  0
 21 33  1  0
 22 34  1  0
 23 35  1  0
M  END
>  <smiles>  (85) 
NS(=O)(=O)c1ccc(N=Nc2ccc(O)c(C(O)=NO)c2)cc1

>  <score_type>  (85) 
oracle

>  <origin>  (85) 
adg

>  <m_score__min__energy>  (85) 
-8.8800000000000008

>  <m_primary>  (85) 
energy

$$$$
85:0
     RDKit          3D

 38 40  0  0  0  0  0  0  0  0999 V2000
   55.2040   26.6250   46.0820 N   0  0  0  0  0  0  0  0  0  0  0  0
   56.7540   25.8680   46.2010 S   0  0  0  0  0  0  0  0  0  0  0  0
   56.7290   24.8430   47.3000 O   0  0  0  0  0  0  0  0  0  0  0  0
   57.0740   25.1780   44.9050 O   0  0  0  0  0  0  0  0  0  0  0  0
   57.9770   27.0850   46.5480 C   0  0  0  0  0  0  0  0  0  0  0  0
   58.3930   27.3110   47.8670 C   0  0  0  0  0  0  0  0  0  0  0  0
   59.3550   28.2860   48.1460 C   0  0  0  0  0  0  0  0  0  0  0  0
   59.9260   29.0320   47.1070 C   0  0  0  0  0  0  0  0  0  0  0  0
   60.8700   30.0660   47.4270 N   0  0  0  0  0  0  0  0  0  0  0  0
   60.7300   31.3510   47.2530 C   0  0  0  0  0  0  0  0  0  0  0  0
   61.3960   32.3060   48.0490 C   0  0  0  0  0  0  0  0  0  0  0  0
   61.1880   33.6640   47.8070 C   0  0  0  0  0  0  0  0  0  0  0  0
   60.3170   34.0690   46.7970 C   0  0  0  0  0  0  0  0  0  0  0  0
   59.6420   33.1020   46.0430 C   0  0  0  0  0  0  0  0  0  0  0  0
   58.7520   33.5070   44.9890 N   0  0  0  0  0  0  0  0  0  0  0  0
   58.0450   32.5880   44.1380 C   0  0  0  0  0  0  0  0  0  0  0  0
   58.1230   32.7400   42.7450 C   0  0  0  0  0  0  0  0  0  0  0  0
   57.4280   31.8720   41.8990 C   0  0  0  0  0  0  0  0  0  0  0  0
   56.6370   30.8540   42.4360 C   0  0  0  0  0  0  0  0  0  0  0  0
   56.5320   30.7070   43.8220 C   0  0  0  0  0  0  0  0  0  0  0  0
   55.5190   29.4440   44.4960 Cl  0  0  0  0  0  0  0  0  0  0  0  0
   57.2270   31.5750   44.6720 C   0  0  0  0  0  0  0  0  0  0  0  0
   59.8730   31.7820   46.2880 N   0  0  0  0  0  0  0  0  0  0  0  0
   59.4780   28.8370   45.7900 C   0  0  0  0  0  0  0  0  0  0  0  0
   58.5150   27.8620   45.5120 C   0  0  0  0  0  0  0  0  0  0  0  0
   55.1510   27.0620   45.1350 H   0  0  0  0  0  0  0  0  0  0  0  0
   57.9605   26.7184   48.6866 H   0  0  0  0  0  0  0  0  0  0  0  0
   59.6649   28.4682   49.1856 H   0  0  0  0  0  0  0  0  0  0  0  0
   62.0733   31.9829   48.8533 H   0  0  0  0  0  0  0  0  0  0  0  0
   61.7123   34.4165   48.4143 H   0  0  0  0  0  0  0  0  0  0  0  0
   60.1615   35.1389   46.5943 H   0  0  0  0  0  0  0  0  0  0  0  0
   58.6780   34.5270   44.7750 H   0  0  0  0  0  0  0  0  0  0  0  0
   58.7350   33.5474   42.3166 H   0  0  0  0  0  0  0  0  0  0  0  0
   57.5040   31.9907   40.8081 H   0  0  0  0  0  0  0  0  0  0  0  0
   56.0963   30.1675   41.7679 H   0  0  0  0  0  0  0  0  0  0  0  0
   57.1334   31.4649   45.7625 H   0  0  0  0  0  0  0  0  0  0  0  0
   59.8859   29.4530   44.9751 H   0  0  0  0  0  0  0  0  0  0  0  0
   58.1782   27.7039   44.4768 H   0  0  0  0  0  0  0  0  0  0  0  0
  1  2  1  0
  2  3  2  0
  2  4  2  0
  2  5  1  0
  5  6  2  0
  6  7  1  0
  7  8  2  0
  8  9  1  0
  9 10  2  3
 10 11  1  0
 11 12  2  0
 12 13  1  0
 13 14  2  0
 14 15  1  0
 15 16  1  0
 16 17  2  0
 17 18  1  0
 18 19  2  0
 19 20  1  0
 20 21  1  0
 20 22  2  0
 14 23  1  0
  8 24  1  0
 24 25  2  0
 25  5  1  0
 23 10  1  0
 22 16  1  0
  1 26  1  0
  6 27  1  0
  7 28  1  0
 11 29  1  0
 12 30  1  0
 13 31  1  0
 15 32  1  0
 17 33  1  0
 18 34  1  0
 19 35  1  0
 22 36  1  0
 24 37  1  0
 25 38  1  0
M  CHG  2   1  -1  23  -1
M  END
>  <UniqueID>  (86) 
74

>  <SMILES>  (86) 
[NH-]S(=O)(=O)c1ccc(N=c2cccc(Nc3cccc(Cl)c3)[n-]2)cc1

>  <Energy>  (86) 
54.203499830981485

>  <Genealogy>  (86) 
[NH-]S(=O)(=O)c1ccc(N=c2cccc(Nc3cccc(Cl)c3)[n-]2)cc1 (protonated)
[NH-]S(=O)(=O)c1ccc(N=c2cccc(Nc3cccc(Cl)c3)[n-]2)cc1 (3D coordinates assigned)
[NH-]S(=O)(=O)c1ccc(N=c2cccc(Nc3cccc(Cl)c3)[n-]2)cc1 (optimized conformer: 54.203499830981485 kcal/mol)

>  <smiles>  (86) 
NS(=O)(=O)c1ccc(N=c2cccc(Nc3cccc(Cl)c3)[nH]2)cc1

>  <score_type>  (86) 
oracle

>  <origin>  (86) 
adg

>  <m_score__min__energy>  (86) 
-12.16

>  <m_primary>  (86) 
energy

$$$$
86:0
     RDKit          3D

 52 55  0  0  0  0  0  0  0  0999 V2000
   54.7440   23.7670   45.2850 C   0  0  0  0  0  0  0  0  0  0  0  0
   55.3900   24.2160   46.4720 O   0  0  0  0  0  0  0  0  0  0  0  0
   56.3010   25.2810   46.5310 C   0  0  0  0  0  0  0  0  0  0  0  0
   56.0550   26.5110   45.8990 C   0  0  0  0  0  0  0  0  0  0  0  0
   56.9890   27.5610   45.9700 C   0  0  0  0  0  0  0  0  0  0  0  0
   56.7410   28.7860   45.3270 C   0  0  0  0  0  0  0  0  0  0  0  0
   55.6680   28.9690   44.6880 O   0  0  0  0  0  0  0  0  0  0  0  0
   57.6880   29.8120   45.3980 C   0  0  0  0  0  0  0  0  0  0  0  0
   57.3980   31.3660   44.6090 S   0  0  0  0  0  0  0  0  0  0  0  0
   55.9170   31.6080   44.5060 O   0  0  0  0  0  0  0  0  0  0  0  0
   57.9690   31.3690   43.2180 O   0  0  0  0  0  0  0  0  0  0  0  0
   58.1660   32.6380   45.5510 C   0  0  0  0  0  0  0  0  0  0  0  0
   58.8310   33.6840   44.8960 C   0  0  0  0  0  0  0  0  0  0  0  0
   59.4600   34.6890   45.6360 C   0  0  0  0  0  0  0  0  0  0  0  0
   59.4330   34.6520   47.0340 C   0  0  0  0  0  0  0  0  0  0  0  0
   58.7770   33.6070   47.6920 C   0  0  0  0  0  0  0  0  0  0  0  0
   58.1460   32.6000   46.9530 C   0  0  0  0  0  0  0  0  0  0  0  0
   58.8620   29.6080   46.1240 C   0  0  0  0  0  0  0  0  0  0  0  0
   59.1150   28.4210   46.7580 N   0  0  0  0  0  0  0  0  0  0  0  0
   60.4010   28.2990   47.4800 C   0  0  0  0  0  0  0  0  0  0  0  0
   60.8400   29.6330   48.0360 C   0  0  0  0  0  0  0  0  0  0  0  0
   60.6120   29.9500   49.3860 C   0  0  0  0  0  0  0  0  0  0  0  0
   61.0280   31.1800   49.9030 C   0  0  0  0  0  0  0  0  0  0  0  0
   61.6860   32.0980   49.0810 C   0  0  0  0  0  0  0  0  0  0  0  0
   61.9360   31.7840   47.7420 C   0  0  0  0  0  0  0  0  0  0  0  0
   62.5810   32.6730   46.9470 F   0  0  0  0  0  0  0  0  0  0  0  0
   61.5220   30.5540   47.2220 C   0  0  0  0  0  0  0  0  0  0  0  0
   58.1980   27.3870   46.6940 C   0  0  0  0  0  0  0  0  0  0  0  0
   58.4240   26.1440   47.3290 C   0  0  0  0  0  0  0  0  0  0  0  0
   57.4900   25.0970   47.2440 C   0  0  0  0  0  0  0  0  0  0  0  0
   57.7090   23.8530   47.8570 O   0  0  0  0  0  0  0  0  0  0  0  0
   56.7400   23.1420   48.6220 C   0  0  0  0  0  0  0  0  0  0  0  0
   53.8678   23.1580   45.5523 H   0  0  0  0  0  0  0  0  0  0  0  0
   54.4200   24.6356   44.6929 H   0  0  0  0  0  0  0  0  0  0  0  0
   55.4452   23.1606   44.6929 H   0  0  0  0  0  0  0  0  0  0  0  0
   55.1185   26.6555   45.3404 H   0  0  0  0  0  0  0  0  0  0  0  0
   58.8578   33.7138   43.7967 H   0  0  0  0  0  0  0  0  0  0  0  0
   59.9771   35.5103   45.1183 H   0  0  0  0  0  0  0  0  0  0  0  0
   59.9274   35.4443   47.6153 H   0  0  0  0  0  0  0  0  0  0  0  0
   58.7569   33.5765   48.7914 H   0  0  0  0  0  0  0  0  0  0  0  0
   57.6333   31.7771   47.4726 H   0  0  0  0  0  0  0  0  0  0  0  0
   59.6016   30.4197   46.1885 H   0  0  0  0  0  0  0  0  0  0  0  0
   60.2816   27.5858   48.3089 H   0  0  0  0  0  0  0  0  0  0  0  0
   61.1665   27.9454   46.7737 H   0  0  0  0  0  0  0  0  0  0  0  0
   60.1033   29.2260   50.0394 H   0  0  0  0  0  0  0  0  0  0  0  0
   60.8371   31.4254   50.9581 H   0  0  0  0  0  0  0  0  0  0  0  0
   62.0075   33.0682   49.4875 H   0  0  0  0  0  0  0  0  0  0  0  0
   61.7309   30.3058   46.1709 H   0  0  0  0  0  0  0  0  0  0  0  0
   59.3508   25.9931   47.9019 H   0  0  0  0  0  0  0  0  0  0  0  0
   56.9396   23.2885   49.6938 H   0  0  0  0  0  0  0  0  0  0  0  0
   55.7348   23.5184   48.3814 H   0  0  0  0  0  0  0  0  0  0  0  0
   56.7974   22.0702   48.3814 H   0  0  0  0  0  0  0  0  0  0  0  0
  1  2  1  0
  2  3  1  0
  3  4  2  0
  4  5  1  0
  5  6  1  0
  6  7  2  0
  6  8  1  0
  8  9  1  0
  9 10  2  0
  9 11  2  0
  9 12  1  0
 12 13  2  0
 13 14  1  0
 14 15  2  0
 15 16  1  0
 16 17  2  0
  8 18  2  0
 18 19  1  0
 19 20  1  0
 20 21  1  0
 21 22  2  0
 22 23  1  0
 23 24  2  0
 24 25  1  0
 25 26  1  0
 25 27  2  0
 19 28  1  0
 28 29  1  0
 29 30  2  0
 30 31  1  0
 31 32  1  0
 30  3  1  0
 28  5  2  0
 17 12  1  0
 27 21  1  0
  1 33  1  0
  1 34  1  0
  1 35  1  0
  4 36  1  0
 13 37  1  0
 14 38  1  0
 15 39  1  0
 16 40  1  0
 17 41  1  0
 18 42  1  0
 20 43  1  0
 20 44  1  0
 22 45  1  0
 23 46  1  0
 24 47  1  0
 27 48  1  0
 29 49  1  0
 32 50  1  0
 32 51  1  0
 32 52  1  0
M  END
>  <UniqueID>  (87) 
75

>  <SMILES>  (87) 
COc1cc2c(=O)c(S(=O)(=O)c3ccccc3)cn(Cc3cccc(F)c3)c2cc1OC

>  <Energy>  (87) 
67.23240520314357

>  <Genealogy>  (87) 
COc1cc2c(=O)c(S(=O)(=O)c3ccccc3)cn(Cc3cccc(F)c3)c2cc1OC (3D coordinates assigned)
COc1cc2c(=O)c(S(=O)(=O)c3ccccc3)cn(Cc3cccc(F)c3)c2cc1OC (optimized conformer: 67.23240520314357 kcal/mol)

>  <smiles>  (87) 
COc1cc2c(=O)c(S(=O)(=O)c3ccccc3)cn(Cc3cccc(F)c3)c2cc1OC

>  <score_type>  (87) 
oracle

>  <origin>  (87) 
adg

>  <m_score__min__energy>  (87) 
-8.6899999999999995

>  <m_primary>  (87) 
energy

$$$$
87:0
     RDKit          3D

 69 74  0  0  1  0  0  0  0  0999 V2000
   59.3920   31.5000   52.3550 C   0  0  0  0  0  0  0  0  0  0  0  0
   59.2830   31.0440   50.9500 C   0  0  0  0  0  0  0  0  0  0  0  0
   59.7550   29.8480   50.4490 C   0  0  0  0  0  0  0  0  0  0  0  0
   57.0370   28.9190   45.8070 C   0  0  0  0  0  0  0  0  0  0  0  0
   56.1950   29.7460   45.2810 N   0  0  0  0  0  0  0  0  0  0  0  0
   58.7550   28.5070   47.2650 C   0  0  0  0  0  0  0  0  0  0  0  0
   58.7610   27.1690   46.8630 C   0  0  0  0  0  0  0  0  0  0  0  0
   57.8780   26.7210   45.9110 C   0  0  0  0  0  0  0  0  0  0  0  0
   57.8220   25.3790   45.4500 N   0  0  0  0  0  0  0  0  0  0  0  0
   58.2080   24.2820   46.3330 C   0  0  0  0  0  0  0  0  0  0  0  0
   59.0860   23.3680   45.4690 C   0  0  0  0  0  0  0  0  0  0  0  0
   58.1290   22.7860   44.4610 C   0  0  0  0  0  0  0  0  0  0  0  0
   58.0880   21.4310   44.2170 C   0  0  0  0  0  0  0  0  0  0  0  0
   57.1900   20.9770   43.2850 C   0  0  0  0  0  0  0  0  0  0  0  0
   56.3540   21.8450   42.6150 C   0  0  0  0  0  0  0  0  0  0  0  0
   56.4100   23.2130   42.8750 C   0  0  0  0  0  0  0  0  0  0  0  0
   57.3170   23.7000   43.8190 C   0  0  0  0  0  0  0  0  0  0  0  0
   57.3720   25.1580   44.0910 C   0  0  0  0  0  0  0  0  0  0  0  0
   57.0200   27.6380   45.3990 N   0  0  0  0  0  0  0  0  0  0  0  0
   59.4430   29.8390   49.1120 C   0  0  0  0  0  0  0  0  0  0  0  0
   59.6890   28.9320   48.2590 N   0  0  0  0  0  0  0  0  0  0  0  0
   56.2450   30.2410   43.9330 C   0  0  0  0  0  0  0  0  0  0  0  0
   57.1640   31.4360   44.0110 C   0  0  0  0  0  0  0  0  0  0  0  0
   57.6860   31.9970   42.8590 C   0  0  0  0  0  0  0  0  0  0  0  0
   58.5190   33.0860   42.9760 C   0  0  0  0  0  0  0  0  0  0  0  0
   58.8680   33.6550   44.1780 C   0  0  0  0  0  0  0  0  0  0  0  0
   58.3270   33.0700   45.3190 C   0  0  0  0  0  0  0  0  0  0  0  0
   58.6780   33.6840   46.9250 S   0  0  0  0  0  0  0  0  0  0  0  0
   57.6950   33.1700   47.9460 O   0  0  0  0  0  0  0  0  0  0  0  0
   58.6120   35.1850   46.8910 O   0  0  0  0  0  0  0  0  0  0  0  0
   60.3110   33.1830   47.2980 C   0  0  0  0  0  0  0  0  0  0  0  0
   61.2080   33.9770   47.9750 C   0  0  0  0  0  0  0  0  0  0  0  0
   62.4860   33.4760   48.2180 C   0  0  0  0  0  0  0  0  0  0  0  0
   62.8550   32.2010   47.7900 C   0  0  0  0  0  0  0  0  0  0  0  0
   64.1030   31.7150   48.0290 F   0  0  0  0  0  0  0  0  0  0  0  0
   61.9480   31.4080   47.1100 C   0  0  0  0  0  0  0  0  0  0  0  0
   60.6940   31.9240   46.8820 C   0  0  0  0  0  0  0  0  0  0  0  0
   57.4930   31.9830   45.2180 C   0  0  0  0  0  0  0  0  0  0  0  0
   57.8850   29.3950   46.7340 N   0  0  0  0  0  0  0  0  0  0  0  0
   58.7990   31.0010   48.8110 N   0  0  0  0  0  0  0  0  0  0  0  0
   58.7110   31.7140   49.9250 N   0  0  0  0  0  0  0  0  0  0  0  0
   59.1903   30.6561   53.0311 H   0  0  0  0  0  0  0  0  0  0  0  0
   60.4069   31.8825   52.5387 H   0  0  0  0  0  0  0  0  0  0  0  0
   58.6598   32.3001   52.5387 H   0  0  0  0  0  0  0  0  0  0  0  0
   60.2774   29.0587   51.0094 H   0  0  0  0  0  0  0  0  0  0  0  0
   59.4794   26.4679   47.3130 H   0  0  0  0  0  0  0  0  0  0  0  0
   58.7758   24.6612   47.1954 H   0  0  0  0  0  0  0  0  0  0  0  0
   57.3343   23.7519   46.7400 H   0  0  0  0  0  0  0  0  0  0  0  0
   59.8771   23.9456   44.9684 H   0  0  0  0  0  0  0  0  0  0  0  0
   59.5999   22.5949   46.0591 H   0  0  0  0  0  0  0  0  0  0  0  0
   58.7529   20.7366   44.7515 H   0  0  0  0  0  0  0  0  0  0  0  0
   57.1357   19.9000   43.0679 H   0  0  0  0  0  0  0  0  0  0  0  0
   55.6408   21.4565   41.8731 H   0  0  0  0  0  0  0  0  0  0  0  0
   55.7436   23.9054   42.3398 H   0  0  0  0  0  0  0  0  0  0  0  0
   58.0729   25.6355   43.3905 H   0  0  0  0  0  0  0  0  0  0  0  0
   56.3702   25.5933   43.9611 H   0  0  0  0  0  0  0  0  0  0  0  0
   56.6528   29.4790   43.2525 H   0  0  0  0  0  0  0  0  0  0  0  0
   55.2499   30.4997   43.5420 H   0  0  0  0  0  0  0  0  0  0  0  0
   57.4403   31.5813   41.8706 H   0  0  0  0  0  0  0  0  0  0  0  0
   58.9291   33.5265   42.0552 H   0  0  0  0  0  0  0  0  0  0  0  0
   59.5384   34.5253   44.2347 H   0  0  0  0  0  0  0  0  0  0  0  0
   60.9234   34.9832   48.3164 H   0  0  0  0  0  0  0  0  0  0  0  0
   63.2164   34.0974   48.7569 H   0  0  0  0  0  0  0  0  0  0  0  0
   62.2204   30.4001   46.7639 H   0  0  0  0  0  0  0  0  0  0  0  0
   59.9621   31.3045   46.3430 H   0  0  0  0  0  0  0  0  0  0  0  0
   57.0784   31.5406   46.1358 H   0  0  0  0  0  0  0  0  0  0  0  0
   57.8660   30.3970   47.0230 H   0  0  0  0  0  0  0  0  0  0  0  0
   58.4430   31.2620   47.8500 H   0  0  0  0  0  0  0  0  0  0  0  0
   58.2680   32.6690   50.0400 H   0  0  0  0  0  0  0  0  0  0  0  0
  1  2  1  0
  2  3  2  0
  3  4  1  0
  4  5  2  0
  5  6  1  0
  6  7  2  0
  7  8  1  0
  8  9  1  0
  9 10  1  0
 10 11  1  0
 11 12  1  0
 12 13  2  0
 13 14  1  0
 14 15  2  0
 15 16  1  0
 16 17  2  0
 17 18  1  0
  8 19  2  0
 19 20  1  0
 20 21  2  0
 21 22  1  0
 22 23  1  0
 23 24  2  0
 24 25  1  0
 25 26  2  0
 26 27  1  0
 27 28  1  0
 28 29  2  0
 28 30  2  0
 28 31  1  0
 31 32  2  0
 32 33  1  0
 33 34  2  0
 34 35  1  0
 34 36  1  0
 36 37  2  0
 27 38  2  0
 20 39  1  0
  4 40  1  0
 40 41  1  0
 41  2  1  0
 39  6  1  0
 18  9  1  0
 38 23  1  0
 17 12  1  0
 37 31  1  0
  1 42  1  0
  1 43  1  0
  1 44  1  0
  3 45  1  0
  7 46  1  0
 10 47  1  0
 10 48  1  0
 11 49  1  0
 11 50  1  0
 13 51  1  0
 14 52  1  0
 15 53  1  0
 16 54  1  0
 18 55  1  0
 18 56  1  0
 22 57  1  0
 22 58  1  0
 24 59  1  0
 25 60  1  0
 26 61  1  0
 32 62  1  0
 33 63  1  0
 36 64  1  0
 37 65  1  0
 38 66  1  0
 39 67  1  0
 40 68  1  0
 41 69  1  0
M  END
>  <smiles>  (88) 
Cc1cc(=Nc2cc(N3CCc4ccccc4C3)nc(=NCc3cccc(S(=O)(=O)c4ccc(F)cc4)c3)[nH]2)[nH][nH]1

>  <score_type>  (88) 
oracle

>  <origin>  (88) 
adg

>  <m_score__min__energy>  (88) 
-11.17

>  <m_primary>  (88) 
energy

$$$$
88:0
     RDKit          3D

 58 62  0  0  0  0  0  0  0  0999 V2000
   57.9918   31.6879   43.4742 H   0  0  0  0  0  0  0  0  0  0  0  0
   57.7220   30.7160   43.9130 C   0  0  0  0  0  0  0  0  0  0  0  0
   56.3970   30.4540   44.2680 C   0  0  0  0  0  0  0  0  0  0  0  0
   55.6249   31.2218   44.1121 H   0  0  0  0  0  0  0  0  0  0  0  0
   56.0500   29.2180   44.8210 C   0  0  0  0  0  0  0  0  0  0  0  0
   55.0032   29.0141   45.0906 H   0  0  0  0  0  0  0  0  0  0  0  0
   57.0330   28.2320   45.0350 C   0  0  0  0  0  0  0  0  0  0  0  0
   56.6620   26.9210   45.6210 C   0  0  0  0  0  0  0  0  0  0  0  0
   55.4850   26.7220   46.0290 O   0  0  0  0  0  0  0  0  0  0  0  0
   57.5870   25.8270   45.6320 N   0  0  0  0  0  0  0  0  0  0  0  0
   58.8420   25.7080   46.1640 C   0  0  0  0  0  0  0  0  0  0  0  0
   59.4750   26.6080   46.8650 N   0  0  0  0  0  0  0  0  0  0  0  0
   59.0660   27.3550   48.0530 C   0  0  0  0  0  0  0  0  0  0  0  0
   59.2800   26.7457   48.9435 H   0  0  0  0  0  0  0  0  0  0  0  0
   57.9915   27.5704   47.9581 H   0  0  0  0  0  0  0  0  0  0  0  0
   59.7890   28.6770   48.1850 C   0  0  0  0  0  0  0  0  0  0  0  0
   59.6820   29.6110   47.1400 C   0  0  0  0  0  0  0  0  0  0  0  0
   59.0921   29.3603   46.2461 H   0  0  0  0  0  0  0  0  0  0  0  0
   60.3140   30.8510   47.2220 C   0  0  0  0  0  0  0  0  0  0  0  0
   60.1884   31.5826   46.4102 H   0  0  0  0  0  0  0  0  0  0  0  0
   61.1080   31.1720   48.3310 C   0  0  0  0  0  0  0  0  0  0  0  0
   61.7250   32.4710   48.4320 N   0  0  0  0  0  0  0  0  0  0  0  0
   62.2460   33.1660   47.2520 C   0  0  0  0  0  0  0  0  0  0  0  0
   61.6850   34.1005   47.1038 H   0  0  0  0  0  0  0  0  0  0  0  0
   62.1313   32.5148   46.3729 H   0  0  0  0  0  0  0  0  0  0  0  0
   63.7390   33.4940   47.4420 C   0  0  0  0  0  0  0  0  0  0  0  0
   63.9759   34.3876   46.8459 H   0  0  0  0  0  0  0  0  0  0  0  0
   64.3044   32.6080   47.1176 H   0  0  0  0  0  0  0  0  0  0  0  0
   64.1230   33.7580   48.8550 N   0  0  0  0  0  0  0  0  0  0  0  0
   64.8550   32.6230   49.4450 C   0  0  0  0  0  0  0  0  0  0  0  0
   64.8121   32.6895   50.5421 H   0  0  0  0  0  0  0  0  0  0  0  0
   64.3948   31.6794   49.1166 H   0  0  0  0  0  0  0  0  0  0  0  0
   65.9044   32.6530   49.1166 H   0  0  0  0  0  0  0  0  0  0  0  0
   62.9850   34.1780   49.7020 C   0  0  0  0  0  0  0  0  0  0  0  0
   62.5642   35.1100   49.2965 H   0  0  0  0  0  0  0  0  0  0  0  0
   63.3573   34.3253   50.7265 H   0  0  0  0  0  0  0  0  0  0  0  0
   61.8790   33.1090   49.7440 C   0  0  0  0  0  0  0  0  0  0  0  0
   60.9284   33.5838   50.0285 H   0  0  0  0  0  0  0  0  0  0  0  0
   62.1572   32.3408   50.4805 H   0  0  0  0  0  0  0  0  0  0  0  0
   61.2720   30.2210   49.3490 C   0  0  0  0  0  0  0  0  0  0  0  0
   61.9065   30.4580   50.2157 H   0  0  0  0  0  0  0  0  0  0  0  0
   60.6390   28.9740   49.2770 C   0  0  0  0  0  0  0  0  0  0  0  0
   61.0150   27.7150   50.6790 Br  0  0  0  0  0  0  0  0  0  0  0  0
   59.4110   24.4970   45.9290 N   0  0  0  0  0  0  0  0  0  0  0  0
   58.4670   23.8420   45.2330 C   0  0  0  0  0  0  0  0  0  0  0  0
   58.5260   22.5420   44.7350 C   0  0  0  0  0  0  0  0  0  0  0  0
   59.4159   21.9142   44.8896 H   0  0  0  0  0  0  0  0  0  0  0  0
   57.4100   22.0590   44.0280 C   0  0  0  0  0  0  0  0  0  0  0  0
   57.4203   21.0367   43.6221 H   0  0  0  0  0  0  0  0  0  0  0  0
   56.2750   22.8800   43.8360 C   0  0  0  0  0  0  0  0  0  0  0  0
   55.4084   22.4931   43.2798 H   0  0  0  0  0  0  0  0  0  0  0  0
   56.2470   24.1890   44.3520 C   0  0  0  0  0  0  0  0  0  0  0  0
   55.3719   24.8397   44.2074 H   0  0  0  0  0  0  0  0  0  0  0  0
   57.3710   24.6330   45.0550 C   0  0  0  0  0  0  0  0  0  0  0  0
   58.3660   28.5080   44.6750 C   0  0  0  0  0  0  0  0  0  0  0  0
   59.1447   27.7477   44.8350 H   0  0  0  0  0  0  0  0  0  0  0  0
   58.7050   29.7440   44.1150 C   0  0  0  0  0  0  0  0  0  0  0  0
   59.7479   29.9512   43.8330 H   0  0  0  0  0  0  0  0  0  0  0  0
  1  2  1  0
  2  3  2  0
  3  4  1  0
  3  5  1  0
  5  6  1  0
  5  7  2  0
  7  8  1  0
  8  9  2  0
  8 10  1  0
 10 11  1  0
 11 12  2  0
 12 13  1  0
 13 14  1  0
 13 15  1  0
 13 16  1  0
 16 17  2  0
 17 18  1  0
 17 19  1  0
 19 20  1  0
 19 21  2  0
 21 22  1  0
 22 23  1  0
 23 24  1  0
 23 25  1  0
 23 26  1  0
 26 27  1  0
 26 28  1  0
 26 29  1  0
 29 30  1  0
 30 31  1  0
 30 32  1  0
 30 33  1  0
 29 34  1  0
 34 35  1  0
 34 36  1  0
 34 37  1  0
 37 38  1  0
 37 39  1  0
 21 40  1  0
 40 41  1  0
 40 42  2  0
 42 43  1  0
 11 44  1  0
 44 45  1  0
 45 46  2  0
 46 47  1  0
 46 48  1  0
 48 49  1  0
 48 50  2  0
 50 51  1  0
 50 52  1  0
 52 53  1  0
 52 54  2  0
  7 55  1  0
 55 56  1  0
 55 57  2  0
 57 58  1  0
 57  2  1  0
 54 10  1  0
 42 16  1  0
 54 45  1  0
 37 22  1  0
M  CHG  1  44  -1
M  END
>  <UniqueID>  (89) 
76

>  <SMILES>  (89) 
CN1CCN(c2ccc(C/N=c3/[n-]c4ccccc4n3C(=O)c3ccccc3)c(Br)c2)CC1

>  <Energy>  (89) 
126.81347931437938

>  <Genealogy>  (89) 
CN1CCN(c2ccc(CN=c3[n-]c4ccccc4n3C(=O)c3ccccc3)c(Br)c2)CC1 (protonated)
CN1CCN(c2ccc(C/N=c3/[n-]c4ccccc4n3C(=O)c3ccccc3)c(Br)c2)CC1 (cis-trans isomerization)
CN1CCN(c2ccc(C/N=c3/[n-]c4ccccc4n3C(=O)c3ccccc3)c(Br)c2)CC1 (3D coordinates assigned)
CN1CCN(c2ccc(C/N=c3/[n-]c4ccccc4n3C(=O)c3ccccc3)c(Br)c2)CC1 (nonaromatic ring conformer: 126.81347931437938 kcal/mol)

>  <smiles>  (89) 
CN1CCN(c2ccc(CN=c3[nH]c4ccccc4n3C(=O)c3ccccc3)c(Br)c2)CC1

>  <score_type>  (89) 
oracle

>  <origin>  (89) 
adg

>  <m_score__min__energy>  (89) 
-10.720000000000001

>  <m_primary>  (89) 
energy

$$$$
89:0
     RDKit          3D

 40 42  0  0  0  0  0  0  0  0999 V2000
   55.8700   28.3900   45.2450 O   0  0  0  0  0  0  0  0  0  0  0  0
   56.9210   27.7130   45.4020 C   0  0  0  0  0  0  0  0  0  0  0  0
   58.2000   28.3580   45.3460 N   0  0  0  0  0  0  0  0  0  0  0  0
   58.4610   29.7530   45.5620 C   0  0  0  0  0  0  0  0  0  0  0  0
   57.8600   30.6880   44.7120 C   0  0  0  0  0  0  0  0  0  0  0  0
   58.0700   32.0570   44.9020 C   0  0  0  0  0  0  0  0  0  0  0  0
   58.8700   32.5070   45.9600 C   0  0  0  0  0  0  0  0  0  0  0  0
   59.1200   34.2290   46.2190 S   0  0  0  0  0  0  0  0  0  0  0  0
   58.5550   34.9840   45.0500 O   0  0  0  0  0  0  0  0  0  0  0  0
   58.4300   34.6840   47.4750 O   0  0  0  0  0  0  0  0  0  0  0  0
   60.8160   34.5710   46.3510 N   0  0  0  0  0  0  0  0  0  0  0  0
   61.7310   33.9030   47.2320 C   0  0  0  0  0  0  0  0  0  0  0  0
   62.8690   33.2280   46.7510 C   0  0  0  0  0  0  0  0  0  0  0  0
   63.7440   32.5990   47.6410 C   0  0  0  0  0  0  0  0  0  0  0  0
   63.4930   32.6350   49.0130 C   0  0  0  0  0  0  0  0  0  0  0  0
   62.3630   33.2960   49.4990 C   0  0  0  0  0  0  0  0  0  0  0  0
   61.4810   33.9320   48.6140 C   0  0  0  0  0  0  0  0  0  0  0  0
   60.3580   34.5990   49.1010 O   0  0  0  0  0  0  0  0  0  0  0  0
   59.4600   31.5750   46.8230 C   0  0  0  0  0  0  0  0  0  0  0  0
   59.2540   30.2060   46.6310 C   0  0  0  0  0  0  0  0  0  0  0  0
   56.8390   26.2560   45.6930 C   0  0  0  0  0  0  0  0  0  0  0  0
   58.0160   25.4810   45.7090 C   0  0  0  0  0  0  0  0  0  0  0  0
   57.9650   24.1100   45.9760 C   0  0  0  0  0  0  0  0  0  0  0  0
   59.1360   23.3600   45.9850 O   0  0  0  0  0  0  0  0  0  0  0  0
   56.7410   23.4930   46.2330 C   0  0  0  0  0  0  0  0  0  0  0  0
   55.5640   24.2430   46.2190 C   0  0  0  0  0  0  0  0  0  0  0  0
   55.6030   25.6170   45.9520 C   0  0  0  0  0  0  0  0  0  0  0  0
   54.4080   26.3280   45.9540 O   0  0  0  0  0  0  0  0  0  0  0  0
   57.2176   30.3433   43.8883 H   0  0  0  0  0  0  0  0  0  0  0  0
   57.6055   32.7830   44.2185 H   0  0  0  0  0  0  0  0  0  0  0  0
   63.0704   33.1955   45.6701 H   0  0  0  0  0  0  0  0  0  0  0  0
   64.6323   32.0745   47.2590 H   0  0  0  0  0  0  0  0  0  0  0  0
   64.1853   32.1427   49.7119 H   0  0  0  0  0  0  0  0  0  0  0  0
   62.1641   33.3178   50.5806 H   0  0  0  0  0  0  0  0  0  0  0  0
   59.6890   35.0370   48.4780 H   0  0  0  0  0  0  0  0  0  0  0  0
   60.0887   31.9222   47.6562 H   0  0  0  0  0  0  0  0  0  0  0  0
   59.7137   29.4807   47.3184 H   0  0  0  0  0  0  0  0  0  0  0  0
   58.9856   25.9605   45.5091 H   0  0  0  0  0  0  0  0  0  0  0  0
   56.7032   22.4147   46.4469 H   0  0  0  0  0  0  0  0  0  0  0  0
   54.6002   23.7519   46.4189 H   0  0  0  0  0  0  0  0  0  0  0  0
  1  2  2  0
  2  3  1  0
  3  4  1  0
  4  5  2  0
  5  6  1  0
  6  7  2  0
  7  8  1  0
  8  9  2  0
  8 10  2  0
  8 11  1  0
 11 12  1  0
 12 13  2  0
 13 14  1  0
 14 15  2  0
 15 16  1  0
 16 17  2  0
 17 18  1  0
  7 19  1  0
 19 20  2  0
  2 21  1  0
 21 22  2  0
 22 23  1  0
 23 24  1  0
 23 25  2  0
 25 26  1  0
 26 27  2  0
 27 28  1  0
 20  4  1  0
 27 21  1  0
 17 12  1  0
  5 29  1  0
  6 30  1  0
 13 31  1  0
 14 32  1  0
 15 33  1  0
 16 34  1  0
 18 35  1  0
 19 36  1  0
 20 37  1  0
 22 38  1  0
 25 39  1  0
 26 40  1  0
M  CHG  4   3  -1  11  -1  24  -1  28  -1
M  END
>  <UniqueID>  (90) 
77

>  <SMILES>  (90) 
O=C([N-]c1ccc(S(=O)(=O)[N-]c2ccccc2O)cc1)c1cc([O-])ccc1[O-]

>  <Energy>  (90) 
52.31959949914889

>  <Genealogy>  (90) 
O=C([N-]c1ccc(S(=O)(=O)[N-]c2ccccc2O)cc1)c1cc([O-])ccc1[O-] (protonated)
O=C([N-]c1ccc(S(=O)(=O)[N-]c2ccccc2O)cc1)c1cc([O-])ccc1[O-] (3D coordinates assigned)
O=C([N-]c1ccc(S(=O)(=O)[N-]c2ccccc2O)cc1)c1cc([O-])ccc1[O-] (optimized conformer: 52.31959949914889 kcal/mol)

>  <smiles>  (90) 
O=C(Nc1ccc(S(=O)(=O)Nc2ccccc2O)cc1)c1cc(O)ccc1O

>  <score_type>  (90) 
oracle

>  <origin>  (90) 
adg

>  <m_score__min__energy>  (90) 
-15.5

>  <m_primary>  (90) 
energy

$$$$
90:0
     RDKit          3D

 30 31  0  0  0  0  0  0  0  0999 V2000
   56.9760   25.6680   46.9310 O   0  0  0  0  0  0  0  0  0  0  0  0
   56.5020   26.5730   46.1970 C   0  0  0  0  0  0  0  0  0  0  0  0
   55.1290   26.6420   45.9900 O   0  0  0  0  0  0  0  0  0  0  0  0
   57.4140   27.5390   45.5070 C   0  0  0  0  0  0  0  0  0  0  0  0
   57.0850   28.9890   45.9030 C   0  0  1  0  0  0  0  0  0  0  0  0
   58.3160   29.7210   46.2210 N   0  0  0  0  0  0  0  0  0  0  0  0
   59.1010   29.4600   47.3990 C   0  0  0  0  0  0  0  0  0  0  0  0
   58.7400   28.5690   48.2130 O   0  0  0  0  0  0  0  0  0  0  0  0
   60.3320   30.2200   47.6820 C   0  0  0  0  0  0  0  0  0  0  0  0
   60.9710   30.3530   48.9030 C   0  0  0  0  0  0  0  0  0  0  0  0
   62.0760   31.1440   48.6650 C   0  0  0  0  0  0  0  0  0  0  0  0
   62.0460   31.4460   47.3210 C   0  0  0  0  0  0  0  0  0  0  0  0
   60.9980   30.8820   46.7630 O   0  0  0  0  0  0  0  0  0  0  0  0
   56.3650   29.6990   44.7890 C   0  0  0  0  0  0  0  0  0  0  0  0
   55.1840   29.3550   44.4850 O   0  0  0  0  0  0  0  0  0  0  0  0
   57.0590   30.7150   44.0440 N   0  0  0  0  0  0  0  0  0  0  0  0
   57.4760   31.8540   44.5110 C   0  0  0  0  0  0  0  0  0  0  0  0
   57.4050   32.2200   45.8110 N   0  0  0  0  0  0  0  0  0  0  0  0
   57.8950   33.4750   46.0010 C   0  0  0  0  0  0  0  0  0  0  0  0
   58.3550   34.1120   44.8480 C   0  0  0  0  0  0  0  0  0  0  0  0
   58.1440   33.0620   43.5480 S   0  0  0  0  0  0  0  0  0  0  0  0
   58.4536   27.3163   45.7893 H   0  0  0  0  0  0  0  0  0  0  0  0
   57.2780   27.4336   44.4205 H   0  0  0  0  0  0  0  0  0  0  0  0
   56.4336   28.9567   46.7888 H   0  0  0  0  0  0  0  0  0  0  0  0
   58.6550   30.4180   45.5200 H   0  0  0  0  0  0  0  0  0  0  0  0
   60.6615   29.9177   49.8646 H   0  0  0  0  0  0  0  0  0  0  0  0
   62.8283   31.4679   49.3992 H   0  0  0  0  0  0  0  0  0  0  0  0
   62.7871   32.0654   46.7946 H   0  0  0  0  0  0  0  0  0  0  0  0
   57.9262   33.9526   46.9914 H   0  0  0  0  0  0  0  0  0  0  0  0
   58.7816   35.1246   44.7968 H   0  0  0  0  0  0  0  0  0  0  0  0
  1  2  2  0
  2  3  1  0
  2  4  1  0
  4  5  1  0
  5  6  1  0
  6  7  1  0
  7  8  2  0
  7  9  1  0
  9 10  2  0
 10 11  1  0
 11 12  2  0
 12 13  1  0
  5 14  1  0
 14 15  2  0
 14 16  1  0
 16 17  2  3
 17 18  1  0
 18 19  1  0
 19 20  2  0
 20 21  1  0
 13  9  1  0
 21 17  1  0
  4 22  1  0
  4 23  1  0
  5 24  1  1
  6 25  1  0
 10 26  1  0
 11 27  1  0
 12 28  1  0
 19 29  1  0
 20 30  1  0
M  CHG  2   3  -1  18  -1
M  END
>  <UniqueID>  (91) 
78

>  <SMILES>  (91) 
O=C([O-])C[C@@H](NC(=O)c1ccco1)C(=O)N=c1[n-]ccs1

>  <Energy>  (91) 
83.70163555929696

>  <Genealogy>  (91) 
O=C([O-])CC(NC(=O)c1ccco1)C(=O)N=c1[n-]ccs1 (protonated)
O=C([O-])C[C@@H](NC(=O)c1ccco1)C(=O)N=c1[n-]ccs1 (chirality)
O=C([O-])C[C@@H](NC(=O)c1ccco1)C(=O)N=c1[n-]ccs1 (3D coordinates assigned)
O=C([O-])C[C@@H](NC(=O)c1ccco1)C(=O)N=c1[n-]ccs1 (optimized conformer: 83.70163555929696 kcal/mol)

>  <smiles>  (91) 
O=C(O)CC(NC(=O)c1ccco1)C(=O)N=c1[nH]ccs1

>  <score_type>  (91) 
oracle

>  <origin>  (91) 
adg

>  <m_score__min__energy>  (91) 
-10.34

>  <m_primary>  (91) 
energy

$$$$
91:0
     RDKit          3D

 30 31  0  0  0  0  0  0  0  0999 V2000
   60.0030   34.5850   49.1450 C   0  0  0  0  0  0  0  0  0  0  0  0
   59.5970   35.0000   47.8440 O   0  0  0  0  0  0  0  0  0  0  0  0
   59.2410   34.1230   46.8090 C   0  0  0  0  0  0  0  0  0  0  0  0
   58.8970   34.5760   45.5210 C   0  0  0  0  0  0  0  0  0  0  0  0
   58.5500   33.6610   44.5220 C   0  0  0  0  0  0  0  0  0  0  0  0
   58.5360   32.2830   44.7930 C   0  0  0  0  0  0  0  0  0  0  0  0
   58.1950   31.2970   43.7060 C   0  0  0  0  0  0  0  0  0  0  0  0
   57.5380   30.1040   44.2800 N   0  0  0  0  0  0  0  0  0  0  0  0
   58.2500   28.9430   44.4660 C   0  0  0  0  0  0  0  0  0  0  0  0
   59.4770   28.8840   44.1810 O   0  0  0  0  0  0  0  0  0  0  0  0
   57.6250   27.8050   44.9760 C   0  0  0  0  0  0  0  0  0  0  0  0
   56.2690   27.8670   45.2910 C   0  0  0  0  0  0  0  0  0  0  0  0
   55.5910   26.7260   45.8160 N   0  0  0  0  0  0  0  0  0  0  0  0
   55.5910   29.0240   45.0940 N   0  0  0  0  0  0  0  0  0  0  0  0
   56.2020   30.1310   44.5960 C   0  0  0  0  0  0  0  0  0  0  0  0
   55.5200   31.1780   44.4330 O   0  0  0  0  0  0  0  0  0  0  0  0
   58.8820   31.8350   46.0770 C   0  0  0  0  0  0  0  0  0  0  0  0
   59.2300   32.7500   47.0750 C   0  0  0  0  0  0  0  0  0  0  0  0
   59.4452   35.1552   49.9025 H   0  0  0  0  0  0  0  0  0  0  0  0
   59.7966   33.5116   49.2685 H   0  0  0  0  0  0  0  0  0  0  0  0
   61.0806   34.7678   49.2685 H   0  0  0  0  0  0  0  0  0  0  0  0
   58.9012   35.6535   45.2998 H   0  0  0  0  0  0  0  0  0  0  0  0
   58.2863   34.0229   43.5173 H   0  0  0  0  0  0  0  0  0  0  0  0
   57.5148   31.7736   42.9847 H   0  0  0  0  0  0  0  0  0  0  0  0
   59.1223   30.9861   43.2026 H   0  0  0  0  0  0  0  0  0  0  0  0
   58.1926   26.8749   45.1269 H   0  0  0  0  0  0  0  0  0  0  0  0
   55.2570   26.7080   46.8060 H   0  0  0  0  0  0  0  0  0  0  0  0
   55.4210   25.8920   45.2120 H   0  0  0  0  0  0  0  0  0  0  0  0
   58.8794   30.7577   46.2995 H   0  0  0  0  0  0  0  0  0  0  0  0
   59.4975   32.3869   48.0783 H   0  0  0  0  0  0  0  0  0  0  0  0
  1  2  1  0
  2  3  1  0
  3  4  2  0
  4  5  1  0
  5  6  2  0
  6  7  1  0
  7  8  1  0
  8  9  1  0
  9 10  2  0
  9 11  1  0
 11 12  2  0
 12 13  1  0
 12 14  1  0
 14 15  1  0
 15 16  2  0
  6 17  1  0
 17 18  2  0
 18  3  1  0
 15  8  1  0
  1 19  1  0
  1 20  1  0
  1 21  1  0
  4 22  1  0
  5 23  1  0
  7 24  1  0
  7 25  1  0
 11 26  1  0
 13 27  1  0
 13 28  1  0
 17 29  1  0
 18 30  1  0
M  CHG  1  14  -1
M  END
>  <UniqueID>  (92) 
79

>  <SMILES>  (92) 
COc1ccc(Cn2c(=O)cc(N)[n-]c2=O)cc1

>  <Energy>  (92) 
32.46034577500245

>  <Genealogy>  (92) 
COc1ccc(Cn2c(=O)cc(N)[n-]c2=O)cc1 (protonated)
COc1ccc(Cn2c(=O)cc(N)[n-]c2=O)cc1 (3D coordinates assigned)
COc1ccc(Cn2c(=O)cc(N)[n-]c2=O)cc1 (optimized conformer: 32.46034577500245 kcal/mol)

>  <smiles>  (92) 
COc1ccc(Cn2c(=O)cc(N)[nH]c2=O)cc1

>  <score_type>  (92) 
oracle

>  <origin>  (92) 
adg

>  <m_score__min__energy>  (92) 
-7.71

>  <m_primary>  (92) 
energy

$$$$
