0:0
     RDKit          3D

 32 34  0  0  0  0  0  0  0  0999 V2000
   56.2630   28.3970   44.7740 O   0  0  0  0  0  0  0  0  0  0  0  0
   57.0110   28.9560   43.5940 S   0  0  0  0  0  0  0  0  0  0  0  0
   57.4120   27.8450   42.6660 O   0  0  0  0  0  0  0  0  0  0  0  0
   56.0620   30.1200   42.7650 N   0  0  0  0  0  0  0  0  0  0  0  0
   57.0200   31.1850   42.4640 C   0  0  0  0  0  0  0  0  0  0  0  0
   58.1320   31.2330   43.5370 C   0  0  0  0  0  0  0  0  0  0  0  0
   58.3940   29.8800   44.0410 N   0  0  0  0  0  0  0  0  0  0  0  0
   58.7120   29.8400   45.7610 S   0  0  0  0  0  0  0  0  0  0  0  0
   59.1300   28.4350   46.0980 O   0  0  0  0  0  0  0  0  0  0  0  0
   57.4170   30.1370   46.4660 O   0  0  0  0  0  0  0  0  0  0  0  0
   59.9620   30.9500   46.4070 C   0  0  0  0  0  0  0  0  0  0  0  0
   61.2130   30.4520   46.8060 C   0  0  0  0  0  0  0  0  0  0  0  0
   62.1970   31.2900   47.3170 C   0  0  0  0  0  0  0  0  0  0  0  0
   61.9720   32.6560   47.4480 C   0  0  0  0  0  0  0  0  0  0  0  0
   63.4060   33.7150   48.1690 Br  0  0  0  0  0  0  0  0  0  0  0  0
   60.7330   33.2040   47.0570 C   0  0  0  0  0  0  0  0  0  0  0  0
   60.4840   34.5860   47.1780 C   0  0  0  0  0  0  0  0  0  0  0  0
   59.2610   35.1260   46.7860 C   0  0  0  0  0  0  0  0  0  0  0  0
   58.2680   34.3020   46.2690 C   0  0  0  0  0  0  0  0  0  0  0  0
   58.4880   32.9310   46.1390 C   0  0  0  0  0  0  0  0  0  0  0  0
   59.7170   32.3500   46.5290 C   0  0  0  0  0  0  0  0  0  0  0  0
   55.7360   29.6940   41.8670 H   0  0  0  0  0  0  0  0  0  0  0  0
   57.4743   30.9957   41.4802 H   0  0  0  0  0  0  0  0  0  0  0  0
   56.4899   32.1488   42.4581 H   0  0  0  0  0  0  0  0  0  0  0  0
   59.0514   31.6416   43.0923 H   0  0  0  0  0  0  0  0  0  0  0  0
   57.8066   31.8743   44.3693 H   0  0  0  0  0  0  0  0  0  0  0  0
   61.4185   29.3755   46.7121 H   0  0  0  0  0  0  0  0  0  0  0  0
   63.1658   30.8674   47.6216 H   0  0  0  0  0  0  0  0  0  0  0  0
   61.2639   35.2455   47.5865 H   0  0  0  0  0  0  0  0  0  0  0  0
   59.0808   36.2065   46.8858 H   0  0  0  0  0  0  0  0  0  0  0  0
   57.3041   34.7334   45.9610 H   0  0  0  0  0  0  0  0  0  0  0  0
   57.6934   32.2917   45.7268 H   0  0  0  0  0  0  0  0  0  0  0  0
  1  2  2  0
  2  3  2  0
  2  4  1  0
  4  5  1  0
  5  6  1  0
  6  7  1  0
  7  8  1  0
  8  9  2  0
  8 10  2  0
  8 11  1  0
 11 12  2  0
 12 13  1  0
 13 14  2  0
 14 15  1  0
 14 16  1  0
 16 17  2  0
 17 18  1  0
 18 19  2  0
 19 20  1  0
 20 21  2  0
  7  2  1  0
 21 11  1  0
 21 16  1  0
  4 22  1  0
  5 23  1  0
  5 24  1  0
  6 25  1  0
  6 26  1  0
 12 27  1  0
 13 28  1  0
 17 29  1  0
 18 30  1  0
 19 31  1  0
 20 32  1  0
M  END
>  <UniqueID>  (1) 
1

>  <SMILES>  (1) 
O=S1(=O)NCCN1S(=O)(=O)c1ccc(Br)c2ccccc12

>  <Energy>  (1) 
47.50002407809707

>  <Genealogy>  (1) 
O=S1(=O)NCCN1S(=O)(=O)c1ccc(Br)c2ccccc12 (3D coordinates assigned)
O=S1(=O)NCCN1S(=O)(=O)c1ccc(Br)c2ccccc12 (nonaromatic ring conformer: 47.50002407809707 kcal/mol)

>  <smiles>  (1) 
O=S1(=O)NCCN1S(=O)(=O)c1ccc(Br)c2ccccc12

>  <score_type>  (1) 
oracle

>  <origin>  (1) 
adg

>  <m_score__min__energy>  (1) 
-8.8300000000000001

>  <m_primary>  (1) 
energy

$$$$
1:0
     RDKit          3D

 54 57  0  0  0  0  0  0  0  0999 V2000
   60.4240   28.7430   44.8240 C   0  0  0  0  0  0  0  0  0  0  0  0
   59.7310   28.8780   45.9660 C   0  0  0  0  0  0  0  0  0  0  0  0
   58.7480   28.0000   46.4420 C   0  0  0  0  0  0  0  0  0  0  0  0
   58.0420   27.0460   45.8060 C   0  0  0  0  0  0  0  0  0  0  0  0
   57.3050   25.9590   46.4710 C   0  0  0  0  0  0  0  0  0  0  0  0
   57.8740   24.8600   47.0030 N   0  0  0  0  0  0  0  0  0  0  0  0
   56.8150   24.1040   47.3640 C   0  0  0  0  0  0  0  0  0  0  0  0
   56.9430   22.9820   47.9200 O   0  0  0  0  0  0  0  0  0  0  0  0
   55.6110   24.6390   47.0730 N   0  0  0  0  0  0  0  0  0  0  0  0
   55.9410   25.8070   46.4960 C   0  0  0  0  0  0  0  0  0  0  0  0
   55.0130   26.7110   45.9970 O   0  0  0  0  0  0  0  0  0  0  0  0
   58.5600   28.3140   47.7730 C   0  0  0  0  0  0  0  0  0  0  0  0
   59.3460   29.4170   48.0370 C   0  0  0  0  0  0  0  0  0  0  0  0
   59.4720   30.0500   49.3910 C   0  0  0  0  0  0  0  0  0  0  0  0
   60.0210   29.8000   46.9250 N   0  0  0  0  0  0  0  0  0  0  0  0
   60.9880   30.9110   46.8530 C   0  0  0  0  0  0  0  0  0  0  0  0
   60.3540   32.2740   47.1020 C   0  0  0  0  0  0  0  0  0  0  0  0
   61.1230   33.2330   47.7920 C   0  0  0  0  0  0  0  0  0  0  0  0
   60.5900   34.4770   48.1260 C   0  0  0  0  0  0  0  0  0  0  0  0
   59.2710   34.7800   47.8050 C   0  0  0  0  0  0  0  0  0  0  0  0
   58.4810   33.8420   47.1450 C   0  0  0  0  0  0  0  0  0  0  0  0
   59.0010   32.5860   46.7730 C   0  0  0  0  0  0  0  0  0  0  0  0
   58.0750   31.6190   46.0550 C   0  0  0  0  0  0  0  0  0  0  0  0
   58.4470   31.4280   44.6280 N   0  0  0  0  0  0  0  0  0  0  0  0
   58.2460   32.6730   43.8390 C   0  0  0  0  0  0  0  0  0  0  0  0
   58.1350   32.3730   42.3370 C   0  0  0  0  0  0  0  0  0  0  0  0
   56.9790   31.5090   42.0290 N   0  0  0  0  0  0  0  0  0  0  0  0
   56.5530   30.6630   43.1580 C   0  0  0  0  0  0  0  0  0  0  0  0
   57.7440   30.2520   44.0350 C   0  0  0  0  0  0  0  0  0  0  0  0
   61.1766   29.4952   44.5452 H   0  0  0  0  0  0  0  0  0  0  0  0
   60.2392   27.8802   44.1672 H   0  0  0  0  0  0  0  0  0  0  0  0
   58.0139   27.0816   44.7069 H   0  0  0  0  0  0  0  0  0  0  0  0
   57.9091   27.7866   48.4858 H   0  0  0  0  0  0  0  0  0  0  0  0
   59.3200   29.2866   50.1682 H   0  0  0  0  0  0  0  0  0  0  0  0
   60.4750   30.4885   49.4989 H   0  0  0  0  0  0  0  0  0  0  0  0
   58.7133   30.8392   49.4989 H   0  0  0  0  0  0  0  0  0  0  0  0
   61.7688   30.7448   47.6098 H   0  0  0  0  0  0  0  0  0  0  0  0
   61.3984   30.9223   45.8325 H   0  0  0  0  0  0  0  0  0  0  0  0
   62.1602   32.9959   48.0713 H   0  0  0  0  0  0  0  0  0  0  0  0
   61.2136   35.2203   48.6443 H   0  0  0  0  0  0  0  0  0  0  0  0
   58.8516   35.7611   48.0726 H   0  0  0  0  0  0  0  0  0  0  0  0
   57.4343   34.0854   46.9103 H   0  0  0  0  0  0  0  0  0  0  0  0
   58.1184   30.6450   46.5643 H   0  0  0  0  0  0  0  0  0  0  0  0
   57.0610   32.0446   46.0821 H   0  0  0  0  0  0  0  0  0  0  0  0
   59.4680   31.2190   44.5890 H   0  0  0  0  0  0  0  0  0  0  0  0
   57.3210   33.1642   44.1751 H   0  0  0  0  0  0  0  0  0  0  0  0
   59.1156   33.3276   43.9978 H   0  0  0  0  0  0  0  0  0  0  0  0
   58.0236   33.3224   41.7927 H   0  0  0  0  0  0  0  0  0  0  0  0
   59.0475   31.8417   42.0286 H   0  0  0  0  0  0  0  0  0  0  0  0
   56.1690   32.1180   41.7610 H   0  0  0  0  0  0  0  0  0  0  0  0
   55.8333   31.2234   43.7727 H   0  0  0  0  0  0  0  0  0  0  0  0
   56.0936   29.7503   42.7507 H   0  0  0  0  0  0  0  0  0  0  0  0
   57.3776   29.6114   44.8507 H   0  0  0  0  0  0  0  0  0  0  0  0
   58.4630   29.7189   43.3956 H   0  0  0  0  0  0  0  0  0  0  0  0
  1  2  2  0
  2  3  1  0
  3  4  2  3
  4  5  1  0
  5  6  1  0
  6  7  1  0
  7  8  2  0
  7  9  1  0
  9 10  1  0
 10 11  1  0
  3 12  1  0
 12 13  2  0
 13 14  1  0
 13 15  1  0
 15 16  1  0
 16 17  1  0
 17 18  2  0
 18 19  1  0
 19 20  2  0
 20 21  1  0
 21 22  2  0
 22 23  1  0
 23 24  1  0
 24 25  1  0
 25 26  1  0
 26 27  1  0
 27 28  1  0
 28 29  1  0
 15  2  1  0
 22 17  1  0
 29 24  1  0
 10  5  2  0
  1 30  1  0
  1 31  1  0
  4 32  1  0
 12 33  1  0
 14 34  1  0
 14 35  1  0
 14 36  1  0
 16 37  1  0
 16 38  1  0
 18 39  1  0
 19 40  1  0
 20 41  1  0
 21 42  1  0
 23 43  1  0
 23 44  1  0
 24 45  1  0
 25 46  1  0
 25 47  1  0
 26 48  1  0
 26 49  1  0
 27 50  1  0
 28 51  1  0
 28 52  1  0
 29 53  1  0
 29 54  1  0
M  CHG  4   6  -1   9  -1  11  -1  24   1
M  END
>  <UniqueID>  (2) 
2

>  <SMILES>  (2) 
C=c1c(=Cc2[n-]c(=O)[n-]c2[O-])cc(C)n1Cc1ccccc1C[NH+]1CCNCC1

>  <Energy>  (2) 
138.08474357731785

>  <Genealogy>  (2) 
C=c1c(=Cc2[n-]c(=O)[n-]c2[O-])cc(C)n1Cc1ccccc1C[NH+]1CCNCC1 (protonated)
C=c1c(=Cc2[n-]c(=O)[n-]c2[O-])cc(C)n1Cc1ccccc1C[NH+]1CCNCC1 (3D coordinates assigned)
C=c1c(=Cc2[n-]c(=O)[n-]c2[O-])cc(C)n1Cc1ccccc1C[NH+]1CCNCC1 (nonaromatic ring conformer: 138.08474357731785 kcal/mol)

>  <smiles>  (2) 
C=c1c(=Cc2[nH]c(=O)[nH]c2O)cc(C)n1Cc1ccccc1CN1CCNCC1

>  <score_type>  (2) 
oracle

>  <origin>  (2) 
adg

>  <m_score__min__energy>  (2) 
-15.050000000000001

>  <m_primary>  (2) 
energy

$$$$
2:0
     RDKit          3D

 57 59  0  0  0  0  0  0  0  0999 V2000
   54.7030   28.9690   45.5400 H   0  0  0  0  0  0  0  0  0  0  0  0
   55.5280   28.5560   45.1240 O   0  0  0  0  0  0  0  0  0  0  0  0
   56.0470   27.3630   45.6140 C   0  0  0  0  0  0  0  0  0  0  0  0
   55.2880   26.3380   46.0390 N   0  0  0  0  0  0  0  0  0  0  0  0
   56.2070   25.4530   46.4800 C   0  0  0  0  0  0  0  0  0  0  0  0
   55.8930   24.3390   46.9720 O   0  0  0  0  0  0  0  0  0  0  0  0
   57.4900   25.8600   46.3610 N   0  0  0  0  0  0  0  0  0  0  0  0
   57.3830   27.0690   45.7840 C   0  0  0  0  0  0  0  0  0  0  0  0
   58.5380   27.9480   45.5260 C   0  0  0  0  0  0  0  0  0  0  0  0
   59.4749   27.4831   45.1853 H   0  0  0  0  0  0  0  0  0  0  0  0
   58.5160   29.2860   45.6820 C   0  0  0  0  0  0  0  0  0  0  0  0
   58.8900   29.9880   46.8170 C   0  0  0  0  0  0  0  0  0  0  0  0
   59.2818   29.5621   47.7525 H   0  0  0  0  0  0  0  0  0  0  0  0
   58.6760   31.3250   46.5470 C   0  0  0  0  0  0  0  0  0  0  0  0
   59.0130   32.4220   47.4780 C   0  0  0  0  0  0  0  0  0  0  0  0
   58.0970   32.9360   48.1730 O   0  0  0  0  0  0  0  0  0  0  0  0
   60.3610   32.9200   47.5870 N   0  0  0  0  0  0  0  0  0  0  0  0
   60.6160   34.2880   48.0560 C   0  0  0  0  0  0  0  0  0  0  0  0
   61.1792   34.8341   47.2850 H   0  0  0  0  0  0  0  0  0  0  0  0
   59.6509   34.7801   48.2470 H   0  0  0  0  0  0  0  0  0  0  0  0
   61.4300   34.2770   49.3620 C   0  0  0  0  0  0  0  0  0  0  0  0
   62.0011   35.2150   49.4258 H   0  0  0  0  0  0  0  0  0  0  0  0
   60.7154   34.1708   50.1915 H   0  0  0  0  0  0  0  0  0  0  0  0
   62.4220   33.0890   49.4540 C   0  0  0  0  0  0  0  0  0  0  0  0
   61.9212   32.2854   50.0138 H   0  0  0  0  0  0  0  0  0  0  0  0
   63.6700   33.4820   50.2110 C   0  0  0  0  0  0  0  0  0  0  0  0
   63.7330   34.6250   50.7410 O   0  0  0  0  0  0  0  0  0  0  0  0
   64.7860   32.5760   50.3440 N   0  0  0  0  0  0  0  0  0  0  0  0
   66.1510   33.1210   50.3490 C   0  0  0  0  0  0  0  0  0  0  0  0
   66.4009   33.4820   49.3404 H   0  0  0  0  0  0  0  0  0  0  0  0
   66.2019   33.9500   51.0703 H   0  0  0  0  0  0  0  0  0  0  0  0
   67.1510   32.0450   50.7600 C   0  0  0  0  0  0  0  0  0  0  0  0
   67.2011   31.9910   51.8575 H   0  0  0  0  0  0  0  0  0  0  0  0
   66.8286   31.0726   50.3594 H   0  0  0  0  0  0  0  0  0  0  0  0
   68.1444   32.2954   50.3594 H   0  0  0  0  0  0  0  0  0  0  0  0
   64.5760   31.1490   50.6300 C   0  0  0  0  0  0  0  0  0  0  0  0
   64.1401   30.6623   49.7451 H   0  0  0  0  0  0  0  0  0  0  0  0
   65.5439   30.6882   50.8764 H   0  0  0  0  0  0  0  0  0  0  0  0
   63.6310   30.9780   51.8140 C   0  0  0  0  0  0  0  0  0  0  0  0
   64.1963   31.0803   52.7521 H   0  0  0  0  0  0  0  0  0  0  0  0
   62.8475   31.7490   51.7721 H   0  0  0  0  0  0  0  0  0  0  0  0
   63.1673   29.9814   51.7721 H   0  0  0  0  0  0  0  0  0  0  0  0
   62.7730   32.5300   48.0610 C   0  0  0  0  0  0  0  0  0  0  0  0
   63.2251   33.3270   47.4524 H   0  0  0  0  0  0  0  0  0  0  0  0
   63.4835   31.6980   48.1752 H   0  0  0  0  0  0  0  0  0  0  0  0
   61.5040   32.0160   47.3640 C   0  0  0  0  0  0  0  0  0  0  0  0
   61.6951   31.9414   46.2833 H   0  0  0  0  0  0  0  0  0  0  0  0
   61.2530   31.0318   47.7863 H   0  0  0  0  0  0  0  0  0  0  0  0
   58.1700   31.4810   45.3000 N   0  0  0  0  0  0  0  0  0  0  0  0
   57.7870   32.7450   44.6630 C   0  0  0  0  0  0  0  0  0  0  0  0
   57.5606   33.4922   45.4378 H   0  0  0  0  0  0  0  0  0  0  0  0
   58.6161   33.1059   44.0367 H   0  0  0  0  0  0  0  0  0  0  0  0
   56.8970   32.5850   44.0367 H   0  0  0  0  0  0  0  0  0  0  0  0
   58.0750   30.2390   44.7590 C   0  0  0  0  0  0  0  0  0  0  0  0
   57.6430   29.9960   43.5110 C   0  0  0  0  0  0  0  0  0  0  0  0
   57.3183   30.8285   42.8695 H   0  0  0  0  0  0  0  0  0  0  0  0
   57.6139   28.9644   43.1302 H   0  0  0  0  0  0  0  0  0  0  0  0
  1  2  1  0
  2  3  1  0
  3  4  1  0
  4  5  1  0
  5  6  2  0
  5  7  1  0
  7  8  1  0
  8  9  1  0
  9 10  1  0
  9 11  2  0
 11 12  1  0
 12 13  1  0
 12 14  2  0
 14 15  1  0
 15 16  2  0
 15 17  1  0
 17 18  1  0
 18 19  1  0
 18 20  1  0
 18 21  1  0
 21 22  1  0
 21 23  1  0
 21 24  1  0
 24 25  1  0
 24 26  1  0
 26 27  2  0
 26 28  1  0
 28 29  1  0
 29 30  1  0
 29 31  1  0
 29 32  1  0
 32 33  1  0
 32 34  1  0
 32 35  1  0
 28 36  1  0
 36 37  1  0
 36 38  1  0
 36 39  1  0
 39 40  1  0
 39 41  1  0
 39 42  1  0
 24 43  1  0
 43 44  1  0
 43 45  1  0
 43 46  1  0
 46 47  1  0
 46 48  1  0
 14 49  1  0
 49 50  1  0
 50 51  1  0
 50 52  1  0
 50 53  1  0
 49 54  1  0
 54 55  2  0
 55 56  1  0
 55 57  1  0
  8  3  2  0
 54 11  1  0
 46 17  1  0
M  CHG  2   4  -1   7  -1
M  END
>  <UniqueID>  (3) 
3

>  <SMILES>  (3) 
C=c1/c(=C/c2[n-]c(=O)[n-]c2O)cc(C(=O)N2CCC(C(=O)N(CC)CC)CC2)n1C

>  <Energy>  (3) 
124.31900462736584

>  <Genealogy>  (3) 
C=c1c(=Cc2[n-]c(=O)[n-]c2O)cc(C(=O)N2CCC(C(=O)N(CC)CC)CC2)n1C (protonated)
C=c1/c(=C/c2[n-]c(=O)[n-]c2O)cc(C(=O)N2CCC(C(=O)N(CC)CC)CC2)n1C (cis-trans isomerization)
C=c1/c(=C/c2[n-]c(=O)[n-]c2O)cc(C(=O)N2CCC(C(=O)N(CC)CC)CC2)n1C (3D coordinates assigned)
C=c1/c(=C/c2[n-]c(=O)[n-]c2O)cc(C(=O)N2CCC(C(=O)N(CC)CC)CC2)n1C (nonaromatic ring conformer: 124.31900462736584 kcal/mol)

>  <smiles>  (3) 
C=c1c(=Cc2[nH]c(=O)[nH]c2O)cc(C(=O)N2CCC(C(=O)N(CC)CC)CC2)n1C

>  <score_type>  (3) 
oracle

>  <origin>  (3) 
adg

>  <m_score__min__energy>  (3) 
-13.07

>  <m_primary>  (3) 
energy

$$$$
3:0
     RDKit          3D

 71 75  0  0  0  0  0  0  0  0999 V2000
   55.1410   28.0070   44.9060 H   0  0  0  0  0  0  0  0  0  0  0  0
   55.2550   28.9870   44.6740 O   0  0  0  0  0  0  0  0  0  0  0  0
   56.3490   29.7040   45.1430 C   0  0  0  0  0  0  0  0  0  0  0  0
   56.5740   30.9980   44.8100 N   0  0  0  0  0  0  0  0  0  0  0  0
   57.7450   31.2930   45.4050 C   0  0  0  0  0  0  0  0  0  0  0  0
   58.4140   32.5130   45.3570 C   0  0  0  0  0  0  0  0  0  0  0  0
   57.9964   33.3657   44.8016 H   0  0  0  0  0  0  0  0  0  0  0  0
   59.6390   32.6240   46.0390 C   0  0  0  0  0  0  0  0  0  0  0  0
   60.1891   33.5764   46.0204 H   0  0  0  0  0  0  0  0  0  0  0  0
   60.1700   31.5210   46.7490 C   0  0  0  0  0  0  0  0  0  0  0  0
   61.6960   31.6960   47.6080 S   0  0  0  0  0  0  0  0  0  0  0  0
   61.5630   31.1390   48.9990 O   0  0  0  0  0  0  0  0  0  0  0  0
   62.7490   30.9100   46.8750 O   0  0  0  0  0  0  0  0  0  0  0  0
   62.1300   33.3920   47.6600 N   0  0  0  0  0  0  0  0  0  0  0  0
   61.6000   34.0670   48.8680 C   0  0  0  0  0  0  0  0  0  0  0  0
   61.2133   35.0540   48.5743 H   0  0  0  0  0  0  0  0  0  0  0  0
   60.8142   33.4189   49.2833 H   0  0  0  0  0  0  0  0  0  0  0  0
   62.6550   34.2650   49.9710 C   0  0  0  0  0  0  0  0  0  0  0  0
   63.1913   35.2098   49.7984 H   0  0  0  0  0  0  0  0  0  0  0  0
   62.1556   34.2968   50.9506 H   0  0  0  0  0  0  0  0  0  0  0  0
   63.6120   33.1490   49.9490 N   0  0  0  0  0  0  0  0  0  0  0  0
   64.4920   33.1960   51.1250 C   0  0  0  0  0  0  0  0  0  0  0  0
   63.8828   33.1635   52.0403 H   0  0  0  0  0  0  0  0  0  0  0  0
   65.1738   32.3330   51.1075 H   0  0  0  0  0  0  0  0  0  0  0  0
   65.0780   34.1267   51.1075 H   0  0  0  0  0  0  0  0  0  0  0  0
   64.4070   33.1550   48.7030 C   0  0  0  0  0  0  0  0  0  0  0  0
   65.2506   33.8501   48.8260 H   0  0  0  0  0  0  0  0  0  0  0  0
   64.7536   32.1268   48.5224 H   0  0  0  0  0  0  0  0  0  0  0  0
   63.5780   33.5940   47.4750 C   0  0  0  0  0  0  0  0  0  0  0  0
   63.7628   34.6625   47.2903 H   0  0  0  0  0  0  0  0  0  0  0  0
   63.8926   32.9717   46.6242 H   0  0  0  0  0  0  0  0  0  0  0  0
   59.4660   30.3000   46.7840 C   0  0  0  0  0  0  0  0  0  0  0  0
   59.8605   29.4345   47.3365 H   0  0  0  0  0  0  0  0  0  0  0  0
   58.2540   30.2220   46.0970 C   0  0  0  0  0  0  0  0  0  0  0  0
   57.3570   29.1870   45.9580 C   0  0  0  0  0  0  0  0  0  0  0  0
   57.5200   27.8170   46.4890 C   0  0  0  0  0  0  0  0  0  0  0  0
   58.2030   27.6696   47.3386 H   0  0  0  0  0  0  0  0  0  0  0  0
   56.8850   26.7430   45.9970 C   0  0  0  0  0  0  0  0  0  0  0  0
   55.6050   26.4110   46.2640 N   0  0  0  0  0  0  0  0  0  0  0  0
   55.4100   25.2500   45.5950 C   0  0  0  0  0  0  0  0  0  0  0  0
   54.2470   24.5950   45.6300 C   0  0  0  0  0  0  0  0  0  0  0  0
   54.1286   23.6542   45.0724 H   0  0  0  0  0  0  0  0  0  0  0  0
   53.4073   24.9962   46.2165 H   0  0  0  0  0  0  0  0  0  0  0  0
   56.5120   24.8380   44.9150 N   0  0  0  0  0  0  0  0  0  0  0  0
   56.7100   23.6100   44.1380 C   0  0  0  0  0  0  0  0  0  0  0  0
   55.7305   23.1752   43.8899 H   0  0  0  0  0  0  0  0  0  0  0  0
   57.2575   23.8534   43.2155 H   0  0  0  0  0  0  0  0  0  0  0  0
   57.5230   22.5960   44.9490 C   0  0  0  0  0  0  0  0  0  0  0  0
   56.9722   21.6447   44.9900 H   0  0  0  0  0  0  0  0  0  0  0  0
   58.4978   22.4581   44.4584 H   0  0  0  0  0  0  0  0  0  0  0  0
   57.7650   23.0980   46.3820 C   0  0  0  0  0  0  0  0  0  0  0  0
   58.8468   23.1029   46.5811 H   0  0  0  0  0  0  0  0  0  0  0  0
   57.3465   24.1116   46.4680 H   0  0  0  0  0  0  0  0  0  0  0  0
   57.0960   22.2330   47.3800 N   0  0  0  0  0  0  0  0  0  0  0  0
   56.2570   23.0290   48.3190 C   0  0  0  0  0  0  0  0  0  0  0  0
   56.9004   23.4253   49.1184 H   0  0  0  0  0  0  0  0  0  0  0  0
   55.7849   23.8386   47.7431 H   0  0  0  0  0  0  0  0  0  0  0  0
   55.1390   22.1940   48.9550 C   0  0  0  0  0  0  0  0  0  0  0  0
   55.5862   21.3483   49.4980 H   0  0  0  0  0  0  0  0  0  0  0  0
   54.5701   22.8366   49.6431 H   0  0  0  0  0  0  0  0  0  0  0  0
   54.1780   21.6520   47.8840 C   0  0  0  0  0  0  0  0  0  0  0  0
   53.7579   20.6986   48.2370 H   0  0  0  0  0  0  0  0  0  0  0  0
   53.3930   22.4064   47.7268 H   0  0  0  0  0  0  0  0  0  0  0  0
   54.8750   21.4140   46.5330 C   0  0  0  0  0  0  0  0  0  0  0  0
   54.3986   20.5603   46.0288 H   0  0  0  0  0  0  0  0  0  0  0  0
   54.7785   22.3259   45.9254 H   0  0  0  0  0  0  0  0  0  0  0  0
   56.3680   21.1130   46.7250 C   0  0  0  0  0  0  0  0  0  0  0  0
   56.4689   20.2135   47.3500 H   0  0  0  0  0  0  0  0  0  0  0  0
   56.8097   20.9651   45.7285 H   0  0  0  0  0  0  0  0  0  0  0  0
   57.4380   25.7730   45.1880 C   0  0  0  0  0  0  0  0  0  0  0  0
   58.6260   25.7440   44.7660 O   0  0  0  0  0  0  0  0  0  0  0  0
  1  2  1  0
  2  3  1  0
  3  4  1  0
  4  5  1  0
  5  6  2  0
  6  7  1  0
  6  8  1  0
  8  9  1  0
  8 10  2  0
 10 11  1  0
 11 12  2  0
 11 13  2  0
 11 14  1  0
 14 15  1  0
 15 16  1  0
 15 17  1  0
 15 18  1  0
 18 19  1  0
 18 20  1  0
 18 21  1  0
 21 22  1  0
 22 23  1  0
 22 24  1  0
 22 25  1  0
 21 26  1  0
 26 27  1  0
 26 28  1  0
 26 29  1  0
 29 30  1  0
 29 31  1  0
 10 32  1  0
 32 33  1  0
 32 34  2  0
 34 35  1  0
 35 36  1  0
 36 37  1  0
 36 38  2  0
 38 39  1  0
 39 40  1  0
 40 41  2  0
 41 42  1  0
 41 43  1  0
 40 44  1  0
 44 45  1  0
 45 46  1  0
 45 47  1  0
 45 48  1  0
 48 49  1  0
 48 50  1  0
 48 51  1  0
 51 52  1  0
 51 53  1  0
 51 54  1  0
 54 55  1  0
 55 56  1  0
 55 57  1  0
 55 58  1  0
 58 59  1  0
 58 60  1  0
 58 61  1  0
 61 62  1  0
 61 63  1  0
 61 64  1  0
 64 65  1  0
 64 66  1  0
 64 67  1  0
 67 68  1  0
 67 69  1  0
 44 70  1  0
 70 71  2  0
 35  3  2  0
 70 38  1  0
 34  5  1  0
 67 54  1  0
 29 14  1  0
M  CHG  2   4  -1  39  -1
M  END
>  <UniqueID>  (4) 
4

>  <SMILES>  (4) 
C=c1[n-]/c(=C\c2c(O)[n-]c3ccc(S(=O)(=O)N4CCN(C)CC4)cc23)c(=O)n1CCCN1CCCCC1

>  <Energy>  (4) 
156.4047328589731

>  <Genealogy>  (4) 
C=c1[n-]c(=Cc2c(O)[n-]c3ccc(S(=O)(=O)N4CCN(C)CC4)cc23)c(=O)n1CCCN1CCCCC1 (protonated)
C=c1[n-]/c(=C\c2c(O)[n-]c3ccc(S(=O)(=O)N4CCN(C)CC4)cc23)c(=O)n1CCCN1CCCCC1 (cis-trans isomerization)
C=c1[n-]/c(=C\c2c(O)[n-]c3ccc(S(=O)(=O)N4CCN(C)CC4)cc23)c(=O)n1CCCN1CCCCC1 (3D coordinates assigned)
C=c1[n-]/c(=C\c2c(O)[n-]c3ccc(S(=O)(=O)N4CCN(C)CC4)cc23)c(=O)n1CCCN1CCCCC1 (nonaromatic ring conformer: 156.4047328589731 kcal/mol)

>  <smiles>  (4) 
C=c1[nH]c(=Cc2c(O)[nH]c3ccc(S(=O)(=O)N4CCN(C)CC4)cc23)c(=O)n1CCCN1CCCCC1

>  <score_type>  (4) 
oracle

>  <origin>  (4) 
adg

>  <m_score__min__energy>  (4) 
-13.609999999999999

>  <m_primary>  (4) 
energy

$$$$
4:0
     RDKit          3D

 40 43  0  0  0  0  0  0  0  0999 V2000
   55.5540   22.9050   42.7940 N   0  0  0  0  0  0  0  0  0  0  0  0
   56.5700   22.2040   44.0030 S   0  0  0  0  0  0  0  0  0  0  0  0
   57.9190   21.8990   43.4130 O   0  0  0  0  0  0  0  0  0  0  0  0
   55.9550   20.9230   44.4890 O   0  0  0  0  0  0  0  0  0  0  0  0
   56.7500   23.3320   45.3440 C   0  0  0  0  0  0  0  0  0  0  0  0
   56.8350   22.8590   46.6590 C   0  0  0  0  0  0  0  0  0  0  0  0
   56.9790   23.7570   47.7190 C   0  0  0  0  0  0  0  0  0  0  0  0
   57.0290   25.1310   47.4730 C   0  0  0  0  0  0  0  0  0  0  0  0
   56.9250   25.6270   46.1610 C   0  0  0  0  0  0  0  0  0  0  0  0
   56.9800   27.0910   45.9190 C   0  0  0  0  0  0  0  0  0  0  0  0
   58.0850   27.8710   46.3440 C   0  0  0  0  0  0  0  0  0  0  0  0
   58.0480   29.2330   46.0690 C   0  0  0  0  0  0  0  0  0  0  0  0
   58.9690   30.1600   46.3670 N   0  0  0  0  0  0  0  0  0  0  0  0
   58.4220   31.3010   45.8610 C   0  0  0  0  0  0  0  0  0  0  0  0
   59.0790   32.6250   45.9480 C   0  0  0  0  0  0  0  0  0  0  0  0
   60.2200   32.7730   46.6450 C   0  0  0  0  0  0  0  0  0  0  0  0
   60.9470   34.0850   46.7320 C   0  0  0  0  0  0  0  0  0  0  0  0
   60.0470   35.2630   46.3430 C   0  0  0  0  0  0  0  0  0  0  0  0
   59.2990   34.9590   45.1190 N   0  0  0  0  0  0  0  0  0  0  0  0
   58.3860   33.8290   45.3410 C   0  0  0  0  0  0  0  0  0  0  0  0
   57.2120   31.1210   45.2660 N   0  0  0  0  0  0  0  0  0  0  0  0
   57.0070   29.8040   45.4150 C   0  0  0  0  0  0  0  0  0  0  0  0
   55.9280   29.0400   44.9900 C   0  0  0  0  0  0  0  0  0  0  0  0
   54.9590   29.5610   44.3770 O   0  0  0  0  0  0  0  0  0  0  0  0
   55.9440   27.7000   45.2520 N   0  0  0  0  0  0  0  0  0  0  0  0
   56.7920   24.7110   45.0970 C   0  0  0  0  0  0  0  0  0  0  0  0
   55.9940   22.6990   41.8690 H   0  0  0  0  0  0  0  0  0  0  0  0
   56.7883   21.7781   46.8577 H   0  0  0  0  0  0  0  0  0  0  0  0
   57.0532   23.3812   48.7502 H   0  0  0  0  0  0  0  0  0  0  0  0
   57.1508   25.8312   48.3126 H   0  0  0  0  0  0  0  0  0  0  0  0
   58.9374   27.4166   46.8702 H   0  0  0  0  0  0  0  0  0  0  0  0
   60.6362   31.9011   47.1708 H   0  0  0  0  0  0  0  0  0  0  0  0
   61.2966   34.2302   47.7648 H   0  0  0  0  0  0  0  0  0  0  0  0
   61.7920   34.0542   46.0284 H   0  0  0  0  0  0  0  0  0  0  0  0
   59.3378   35.4613   47.1602 H   0  0  0  0  0  0  0  0  0  0  0  0
   60.6772   36.1464   46.1632 H   0  0  0  0  0  0  0  0  0  0  0  0
   59.9750   34.7040   44.3600 H   0  0  0  0  0  0  0  0  0  0  0  0
   57.5844   34.1531   46.0210 H   0  0  0  0  0  0  0  0  0  0  0  0
   57.9909   33.5246   44.3606 H   0  0  0  0  0  0  0  0  0  0  0  0
   56.7206   25.0821   44.0640 H   0  0  0  0  0  0  0  0  0  0  0  0
  1  2  1  0
  2  3  2  0
  2  4  2  0
  2  5  1  0
  5  6  2  0
  6  7  1  0
  7  8  2  0
  8  9  1  0
  9 10  1  0
 10 11  2  0
 11 12  1  0
 12 13  1  0
 13 14  1  0
 14 15  1  0
 15 16  2  0
 16 17  1  0
 17 18  1  0
 18 19  1  0
 19 20  1  0
 14 21  2  0
 21 22  1  0
 22 23  1  0
 23 24  2  0
 23 25  1  0
  9 26  2  0
 26  5  1  0
 25 10  1  0
 22 12  2  0
 20 15  1  0
  1 27  1  0
  6 28  1  0
  7 29  1  0
  8 30  1  0
 11 31  1  0
 16 32  1  0
 17 33  1  0
 17 34  1  0
 18 35  1  0
 18 36  1  0
 19 37  1  0
 20 38  1  0
 20 39  1  0
 26 40  1  0
M  CHG  3   1  -1  13  -1  25  -1
M  END
>  <UniqueID>  (5) 
5

>  <SMILES>  (5) 
[NH-]S(=O)(=O)c1cccc(-c2cc3[n-]c(C4=CCCNC4)nc3c(=O)[n-]2)c1

>  <Energy>  (5) 
84.8770479776319

>  <Genealogy>  (5) 
[NH-]S(=O)(=O)c1cccc(-c2cc3[n-]c(C4=CCCNC4)nc3c(=O)[n-]2)c1 (protonated)
[NH-]S(=O)(=O)c1cccc(-c2cc3[n-]c(C4=CCCNC4)nc3c(=O)[n-]2)c1 (3D coordinates assigned)
[NH-]S(=O)(=O)c1cccc(-c2cc3[n-]c(C4=CCCNC4)nc3c(=O)[n-]2)c1 (nonaromatic ring conformer: 84.8770479776319 kcal/mol)

>  <smiles>  (5) 
NS(=O)(=O)c1cccc(-c2cc3[nH]c(C4=CCCNC4)nc3c(=O)[nH]2)c1

>  <score_type>  (5) 
oracle

>  <origin>  (5) 
adg

>  <m_score__min__energy>  (5) 
-12.640000000000001

>  <m_primary>  (5) 
energy

$$$$
5:0
     RDKit          3D

 40 42  0  0  0  0  0  0  0  0999 V2000
   60.7740   29.7530   45.9340 C   0  0  0  0  0  0  0  0  0  0  0  0
   59.5380   29.2530   45.8720 C   0  0  0  0  0  0  0  0  0  0  0  0
   59.1960   28.1080   46.5080 N   0  0  0  0  0  0  0  0  0  0  0  0
   57.8780   27.9640   46.2580 C   0  0  0  0  0  0  0  0  0  0  0  0
   57.1060   26.9930   46.7630 C   0  0  0  0  0  0  0  0  0  0  0  0
   56.7530   25.7680   46.0130 C   0  0  0  0  0  0  0  0  0  0  0  0
   57.7670   24.8440   45.7210 C   0  0  0  0  0  0  0  0  0  0  0  0
   57.4790   23.6750   45.0110 C   0  0  0  0  0  0  0  0  0  0  0  0
   56.1680   23.4080   44.6000 C   0  0  0  0  0  0  0  0  0  0  0  0
   55.8680   22.2480   43.8910 O   0  0  0  0  0  0  0  0  0  0  0  0
   55.1460   24.3120   44.9110 C   0  0  0  0  0  0  0  0  0  0  0  0
   55.4280   25.4820   45.6250 C   0  0  0  0  0  0  0  0  0  0  0  0
   54.3820   26.3320   45.9680 O   0  0  0  0  0  0  0  0  0  0  0  0
   57.4530   29.0220   45.4860 C   0  0  0  0  0  0  0  0  0  0  0  0
   56.2680   29.2410   45.1130 O   0  0  0  0  0  0  0  0  0  0  0  0
   58.4950   29.8320   45.2210 N   0  0  0  0  0  0  0  0  0  0  0  0
   58.4140   31.1620   44.6080 C   0  0  0  0  0  0  0  0  0  0  0  0
   57.9170   32.1360   45.6260 C   0  0  0  0  0  0  0  0  0  0  0  0
   57.8310   31.7930   46.8370 O   0  0  0  0  0  0  0  0  0  0  0  0
   57.6670   33.4890   45.2380 N   0  0  0  0  0  0  0  0  0  0  0  0
   58.6710   34.5360   45.3550 C   0  0  0  0  0  0  0  0  0  0  0  0
   59.5660   34.2360   46.5160 C   0  0  0  0  0  0  0  0  0  0  0  0
   59.2560   34.4530   47.8530 C   0  0  0  0  0  0  0  0  0  0  0  0
   60.3380   34.2340   48.7140 C   0  0  0  0  0  0  0  0  0  0  0  0
   61.5060   33.8630   48.0580 C   0  0  0  0  0  0  0  0  0  0  0  0
   61.1900   33.8140   46.4070 S   0  0  0  0  0  0  0  0  0  0  0  0
   61.0170   30.6861   45.4046 H   0  0  0  0  0  0  0  0  0  0  0  0
   61.5496   29.2320   46.5145 H   0  0  0  0  0  0  0  0  0  0  0  0
   56.7158   27.1123   47.7845 H   0  0  0  0  0  0  0  0  0  0  0  0
   58.7969   25.0409   46.0534 H   0  0  0  0  0  0  0  0  0  0  0  0
   58.2841   22.9636   44.7748 H   0  0  0  0  0  0  0  0  0  0  0  0
   55.1210   22.2240   43.2060 H   0  0  0  0  0  0  0  0  0  0  0  0
   54.1145   24.1015   44.5922 H   0  0  0  0  0  0  0  0  0  0  0  0
   59.4111   31.4690   44.2595 H   0  0  0  0  0  0  0  0  0  0  0  0
   57.7250   31.1354   43.7509 H   0  0  0  0  0  0  0  0  0  0  0  0
   59.2680   34.5773   44.4320 H   0  0  0  0  0  0  0  0  0  0  0  0
   58.1756   35.5054   45.5127 H   0  0  0  0  0  0  0  0  0  0  0  0
   58.2601   34.7656   48.2002 H   0  0  0  0  0  0  0  0  0  0  0  0
   60.2703   34.3450   49.8063 H   0  0  0  0  0  0  0  0  0  0  0  0
   62.4710   33.6398   48.5365 H   0  0  0  0  0  0  0  0  0  0  0  0
  1  2  2  0
  2  3  1  0
  3  4  1  0
  4  5  2  3
  5  6  1  0
  6  7  2  0
  7  8  1  0
  8  9  2  0
  9 10  1  0
  9 11  1  0
 11 12  2  0
 12 13  1  0
  4 14  1  0
 14 15  2  0
 14 16  1  0
 16 17  1  0
 17 18  1  0
 18 19  2  0
 18 20  1  0
 20 21  1  0
 21 22  1  0
 22 23  2  0
 23 24  1  0
 24 25  2  0
 25 26  1  0
 16  2  1  0
 26 22  1  0
 12  6  1  0
  1 27  1  0
  1 28  1  0
  5 29  1  0
  7 30  1  0
  8 31  1  0
 10 32  1  0
 11 33  1  0
 17 34  1  0
 17 35  1  0
 21 36  1  0
 21 37  1  0
 23 38  1  0
 24 39  1  0
 25 40  1  0
M  CHG  3   3  -1  13  -1  20  -1
M  END
>  <UniqueID>  (6) 
6

>  <SMILES>  (6) 
C=c1[n-]c(=Cc2ccc(O)cc2[O-])c(=O)n1CC(=O)[N-]Cc1cccs1

>  <Energy>  (6) 
100.06771402382478

>  <Genealogy>  (6) 
C=c1[n-]c(=Cc2ccc(O)cc2[O-])c(=O)n1CC(=O)[N-]Cc1cccs1 (protonated)
C=c1[n-]c(=Cc2ccc(O)cc2[O-])c(=O)n1CC(=O)[N-]Cc1cccs1 (3D coordinates assigned)
C=c1[n-]c(=Cc2ccc(O)cc2[O-])c(=O)n1CC(=O)[N-]Cc1cccs1 (optimized conformer: 100.06771402382478 kcal/mol)

>  <smiles>  (6) 
C=c1[nH]c(=Cc2ccc(O)cc2O)c(=O)n1CC(=O)NCc1cccs1

>  <score_type>  (6) 
oracle

>  <origin>  (6) 
adg

>  <m_score__min__energy>  (6) 
-14.58

>  <m_primary>  (6) 
energy

$$$$
6:0
     RDKit          3D

 41 42  0  0  0  0  0  0  0  0999 V2000
   54.7650   25.9430   45.8960 O   0  0  0  0  0  0  0  0  0  0  0  0
   55.8840   26.5070   46.0200 C   0  0  0  0  0  0  0  0  0  0  0  0
   57.0600   25.6780   46.4590 C   0  0  0  0  0  0  0  0  0  0  0  0
   58.2840   26.2280   45.8870 N   0  0  0  0  0  0  0  0  0  0  0  0
   59.4270   26.5460   46.6920 C   0  0  0  0  0  0  0  0  0  0  0  0
   59.5590   26.0420   47.8420 O   0  0  0  0  0  0  0  0  0  0  0  0
   60.4350   27.5400   46.2030 C   0  0  0  0  0  0  0  0  0  0  0  0
   60.2250   28.8510   46.9100 C   0  0  0  0  0  0  0  0  0  0  0  0
   59.3800   28.9240   48.0280 C   0  0  0  0  0  0  0  0  0  0  0  0
   59.1150   30.1580   48.6290 C   0  0  0  0  0  0  0  0  0  0  0  0
   59.6950   31.3250   48.1230 C   0  0  0  0  0  0  0  0  0  0  0  0
   60.5380   31.2590   47.0100 C   0  0  0  0  0  0  0  0  0  0  0  0
   60.7990   30.0280   46.4010 C   0  0  0  0  0  0  0  0  0  0  0  0
   56.0110   27.8730   45.6050 N   0  0  0  0  0  0  0  0  0  0  0  0
   57.0640   28.4350   44.8140 C   0  0  0  0  0  0  0  0  0  0  0  0
   57.5730   27.7890   43.8580 O   0  0  0  0  0  0  0  0  0  0  0  0
   57.5880   29.7940   45.1460 C   0  0  0  0  0  0  0  0  0  0  0  0
   56.5930   31.0500   44.2810 S   0  0  0  0  0  0  0  0  0  0  0  0
   57.5500   32.4270   44.9170 C   0  0  0  0  0  0  0  0  0  0  0  0
   58.4460   33.1010   44.0780 C   0  0  0  0  0  0  0  0  0  0  0  0
   59.1900   34.1780   44.5690 C   0  0  0  0  0  0  0  0  0  0  0  0
   59.0300   34.5930   45.8970 C   0  0  0  0  0  0  0  0  0  0  0  0
   58.1340   33.9230   46.7360 C   0  0  0  0  0  0  0  0  0  0  0  0
   57.3970   32.8370   46.2500 C   0  0  0  0  0  0  0  0  0  0  0  0
   57.1295   25.6927   47.5567 H   0  0  0  0  0  0  0  0  0  0  0  0
   56.9274   24.6421   46.1136 H   0  0  0  0  0  0  0  0  0  0  0  0
   58.2480   26.5760   44.9030 H   0  0  0  0  0  0  0  0  0  0  0  0
   61.4489   27.1682   46.4122 H   0  0  0  0  0  0  0  0  0  0  0  0
   60.3151   27.6830   45.1189 H   0  0  0  0  0  0  0  0  0  0  0  0
   58.9250   28.0078   48.4325 H   0  0  0  0  0  0  0  0  0  0  0  0
   58.4483   30.2109   49.5024 H   0  0  0  0  0  0  0  0  0  0  0  0
   59.4882   32.2942   48.6003 H   0  0  0  0  0  0  0  0  0  0  0  0
   60.9965   32.1766   46.6129 H   0  0  0  0  0  0  0  0  0  0  0  0
   61.4561   29.9807   45.5201 H   0  0  0  0  0  0  0  0  0  0  0  0
   57.5233   29.9577   46.2318 H   0  0  0  0  0  0  0  0  0  0  0  0
   58.6380   29.8721   44.8277 H   0  0  0  0  0  0  0  0  0  0  0  0
   58.5645   32.7828   43.0317 H   0  0  0  0  0  0  0  0  0  0  0  0
   59.9014   34.6997   43.9119 H   0  0  0  0  0  0  0  0  0  0  0  0
   59.6092   35.4461   46.2802 H   0  0  0  0  0  0  0  0  0  0  0  0
   58.0084   34.2498   47.7788 H   0  0  0  0  0  0  0  0  0  0  0  0
   56.6983   32.3053   46.9127 H   0  0  0  0  0  0  0  0  0  0  0  0
  1  2  2  0
  2  3  1  0
  3  4  1  0
  4  5  1  0
  5  6  2  0
  5  7  1  0
  7  8  1  0
  8  9  2  0
  9 10  1  0
 10 11  2  0
 11 12  1  0
 12 13  2  0
  2 14  1  0
 14 15  1  0
 15 16  2  0
 15 17  1  0
 17 18  1  0
 18 19  1  0
 19 20  2  0
 20 21  1  0
 21 22  2  0
 22 23  1  0
 23 24  2  0
 13  8  1  0
 24 19  1  0
  3 25  1  0
  3 26  1  0
  4 27  1  0
  7 28  1  0
  7 29  1  0
  9 30  1  0
 10 31  1  0
 11 32  1  0
 12 33  1  0
 13 34  1  0
 17 35  1  0
 17 36  1  0
 20 37  1  0
 21 38  1  0
 22 39  1  0
 23 40  1  0
 24 41  1  0
M  CHG  1  14  -1
M  END
>  <UniqueID>  (7) 
7

>  <SMILES>  (7) 
O=C(CNC(=O)Cc1ccccc1)[N-]C(=O)CSc1ccccc1

>  <Energy>  (7) 
32.45107063983496

>  <Genealogy>  (7) 
O=C(CNC(=O)Cc1ccccc1)[N-]C(=O)CSc1ccccc1 (protonated)
O=C(CNC(=O)Cc1ccccc1)[N-]C(=O)CSc1ccccc1 (3D coordinates assigned)
O=C(CNC(=O)Cc1ccccc1)[N-]C(=O)CSc1ccccc1 (optimized conformer: 32.45107063983496 kcal/mol)

>  <smiles>  (7) 
O=C(Cc1ccccc1)NCC(=O)NC(=O)CSc1ccccc1

>  <score_type>  (7) 
oracle

>  <origin>  (7) 
adg

>  <m_score__min__energy>  (7) 
-9.4600000000000009

>  <m_primary>  (7) 
energy

$$$$
7:0
     RDKit          3D

 29 30  0  0  0  0  0  0  0  0999 V2000
   58.1060   27.6740   43.8980 C   0  0  0  0  0  0  0  0  0  0  0  0
   57.6250   28.7470   44.5430 C   0  0  0  0  0  0  0  0  0  0  0  0
   58.3000   29.3570   45.7310 C   0  0  0  0  0  0  0  0  0  0  0  0
   59.0710   28.6180   46.5460 C   0  0  0  0  0  0  0  0  0  0  0  0
   57.8680   30.7730   46.1180 C   0  0  1  0  0  0  0  0  0  0  0  0
   58.9490   31.5770   46.8210 C   0  0  0  0  0  0  0  0  0  0  0  0
   59.1690   31.4020   48.0100 O   0  0  0  0  0  0  0  0  0  0  0  0
   59.7150   32.6320   46.0720 C   0  0  0  0  0  0  0  0  0  0  0  0
   58.7640   33.5010   45.2860 C   0  0  0  0  0  0  0  0  0  0  0  0
   59.0840   34.9510   45.0590 C   0  0  0  0  0  0  0  0  0  0  0  0
   57.6800   32.9640   44.7080 C   0  0  0  0  0  0  0  0  0  0  0  0
   57.3470   31.5340   44.8990 C   0  0  0  0  0  0  0  0  0  0  0  0
   56.6020   30.9060   43.9760 C   0  0  0  0  0  0  0  0  0  0  0  0
   56.3670   29.4230   44.0450 C   0  0  2  0  0  0  0  0  0  0  0  0
   55.3070   29.1680   44.9280 O   0  0  0  0  0  0  0  0  0  0  0  0
   57.5675   27.2673   43.0293 H   0  0  0  0  0  0  0  0  0  0  0  0
   59.0390   27.2006   44.2377 H   0  0  0  0  0  0  0  0  0  0  0  0
   59.5588   29.0848   47.4144 H   0  0  0  0  0  0  0  0  0  0  0  0
   59.2145   27.5461   46.3449 H   0  0  0  0  0  0  0  0  0  0  0  0
   57.0559   30.6467   46.8491 H   0  0  0  0  0  0  0  0  0  0  0  0
   60.4213   32.1479   45.3814 H   0  0  0  0  0  0  0  0  0  0  0  0
   60.2648   33.2573   46.7908 H   0  0  0  0  0  0  0  0  0  0  0  0
   59.1959   35.4580   46.0288 H   0  0  0  0  0  0  0  0  0  0  0  0
   60.0223   35.0349   44.4910 H   0  0  0  0  0  0  0  0  0  0  0  0
   58.2682   35.4220   44.4910 H   0  0  0  0  0  0  0  0  0  0  0  0
   57.0295   33.5941   44.0837 H   0  0  0  0  0  0  0  0  0  0  0  0
   56.1558   31.4865   43.1551 H   0  0  0  0  0  0  0  0  0  0  0  0
   56.1131   29.0323   43.0486 H   0  0  0  0  0  0  0  0  0  0  0  0
   55.1430   28.1900   44.8990 H   0  0  0  0  0  0  0  0  0  0  0  0
  1  2  2  0
  2  3  1  0
  3  4  2  0
  3  5  1  0
  5  6  1  0
  6  7  2  0
  6  8  1  0
  8  9  1  0
  9 10  1  0
  9 11  2  0
 11 12  1  0
 12 13  2  0
 13 14  1  0
 14 15  1  0
 14  2  1  0
 12  5  1  0
  1 16  1  0
  1 17  1  0
  4 18  1  0
  4 19  1  0
  5 20  1  1
  8 21  1  0
  8 22  1  0
 10 23  1  0
 10 24  1  0
 10 25  1  0
 11 26  1  0
 13 27  1  0
 14 28  1  6
 15 29  1  0
M  END
>  <UniqueID>  (8) 
8

>  <SMILES>  (8) 
C=C1C(=C)[C@@H](O)C=C2C=C(C)CC(=O)[C@H]12

>  <Energy>  (8) 
37.25218968532874

>  <Genealogy>  (8) 
C=C1C(=C)[C@@H](O)C=C2C=C(C)CC(=O)[C@H]12 (chirality)
C=C1C(=C)[C@@H](O)C=C2C=C(C)CC(=O)[C@H]12 (3D coordinates assigned)
C=C1C(=C)[C@@H](O)C=C2C=C(C)CC(=O)[C@H]12 (nonaromatic ring conformer: 37.25218968532874 kcal/mol)

>  <smiles>  (8) 
C=C1C(=C)C2C(=O)CC(C)=CC2=CC1O

>  <score_type>  (8) 
oracle

>  <origin>  (8) 
adg

>  <m_score__min__energy>  (8) 
-7.8700000000000001

>  <m_primary>  (8) 
energy

$$$$
8:0
     RDKit          3D

 43 45  0  0  0  0  0  0  0  0999 V2000
   60.7380   26.3390   48.2390 O   0  0  0  0  0  0  0  0  0  0  0  0
   59.7790   26.8970   47.6410 C   0  0  0  0  0  0  0  0  0  0  0  0
   58.5930   26.0760   47.2060 C   0  0  0  0  0  0  0  0  0  0  0  0
   58.3610   26.1190   45.6840 C   0  0  0  0  0  0  0  0  0  0  0  0
   57.6810   27.3590   45.2650 N   0  0  0  0  0  0  0  0  0  0  0  0
   58.3610   28.2790   44.5160 C   0  0  0  0  0  0  0  0  0  0  0  0
   57.7390   29.4530   44.0990 C   0  0  0  0  0  0  0  0  0  0  0  0
   56.4160   29.6750   44.4700 C   0  0  0  0  0  0  0  0  0  0  0  0
   55.8280   30.7280   44.1040 O   0  0  0  0  0  0  0  0  0  0  0  0
   55.7630   28.7560   45.2280 N   0  0  0  0  0  0  0  0  0  0  0  0
   56.3810   27.6100   45.6300 C   0  0  0  0  0  0  0  0  0  0  0  0
   55.7460   26.7860   46.3440 O   0  0  0  0  0  0  0  0  0  0  0  0
   59.8180   28.3190   47.4180 N   0  0  0  0  0  0  0  0  0  0  0  0
   60.7540   28.8630   46.4270 C   0  0  0  0  0  0  0  0  0  0  0  0
   60.3770   30.2560   45.9900 C   0  0  0  0  0  0  0  0  0  0  0  0
   59.3930   30.9700   46.5670 C   0  0  0  0  0  0  0  0  0  0  0  0
   59.1000   32.3410   46.0910 C   0  0  0  0  0  0  0  0  0  0  0  0
   58.2120   32.5340   45.0190 C   0  0  0  0  0  0  0  0  0  0  0  0
   57.9260   33.8230   44.5610 C   0  0  0  0  0  0  0  0  0  0  0  0
   58.5260   34.9300   45.1640 C   0  0  0  0  0  0  0  0  0  0  0  0
   59.4140   34.7510   46.2290 C   0  0  0  0  0  0  0  0  0  0  0  0
   59.9980   35.8300   46.8080 F   0  0  0  0  0  0  0  0  0  0  0  0
   59.7030   33.4630   46.6950 C   0  0  0  0  0  0  0  0  0  0  0  0
   60.5850   33.3090   47.7150 F   0  0  0  0  0  0  0  0  0  0  0  0
   58.5020   30.3570   47.6250 C   0  0  0  0  0  0  0  0  0  0  0  0
   59.2190   29.2450   48.3820 C   0  0  0  0  0  0  0  0  0  0  0  0
   58.7602   25.0311   47.5063 H   0  0  0  0  0  0  0  0  0  0  0  0
   57.7011   26.5025   47.6883 H   0  0  0  0  0  0  0  0  0  0  0  0
   59.3339   26.0575   45.1743 H   0  0  0  0  0  0  0  0  0  0  0  0
   57.7167   25.2694   45.4137 H   0  0  0  0  0  0  0  0  0  0  0  0
   59.4090   28.0900   44.2403 H   0  0  0  0  0  0  0  0  0  0  0  0
   58.2821   30.1898   43.4889 H   0  0  0  0  0  0  0  0  0  0  0  0
   54.7720   28.9330   45.5090 H   0  0  0  0  0  0  0  0  0  0  0  0
   61.7609   28.8910   46.8691 H   0  0  0  0  0  0  0  0  0  0  0  0
   60.7230   28.2118   45.5410 H   0  0  0  0  0  0  0  0  0  0  0  0
   60.9341   30.7114   45.1580 H   0  0  0  0  0  0  0  0  0  0  0  0
   57.7392   31.6653   44.5375 H   0  0  0  0  0  0  0  0  0  0  0  0
   57.2268   33.9656   43.7238 H   0  0  0  0  0  0  0  0  0  0  0  0
   58.3000   35.9435   44.8011 H   0  0  0  0  0  0  0  0  0  0  0  0
   58.2028   31.1395   48.3378 H   0  0  0  0  0  0  0  0  0  0  0  0
   57.6218   29.9242   47.1271 H   0  0  0  0  0  0  0  0  0  0  0  0
   60.0072   29.6789   49.0149 H   0  0  0  0  0  0  0  0  0  0  0  0
   58.5008   28.7059   49.0172 H   0  0  0  0  0  0  0  0  0  0  0  0
  1  2  2  0
  2  3  1  0
  3  4  1  0
  4  5  1  0
  5  6  1  0
  6  7  2  0
  7  8  1  0
  8  9  2  0
  8 10  1  0
 10 11  1  0
 11 12  2  0
  2 13  1  0
 13 14  1  0
 14 15  1  0
 15 16  2  0
 16 17  1  0
 17 18  2  0
 18 19  1  0
 19 20  2  0
 20 21  1  0
 21 22  1  0
 21 23  2  0
 23 24  1  0
 16 25  1  0
 25 26  1  0
 11  5  1  0
 26 13  1  0
 23 17  1  0
  3 27  1  0
  3 28  1  0
  4 29  1  0
  4 30  1  0
  6 31  1  0
  7 32  1  0
 10 33  1  0
 14 34  1  0
 14 35  1  0
 15 36  1  0
 18 37  1  0
 19 38  1  0
 20 39  1  0
 25 40  1  0
 25 41  1  0
 26 42  1  0
 26 43  1  0
M  END
>  <UniqueID>  (9) 
9

>  <SMILES>  (9) 
O=C(CCn1ccc(=O)[nH]c1=O)N1CC=C(c2cccc(F)c2F)CC1

>  <Energy>  (9) 
55.67761355442216

>  <Genealogy>  (9) 
O=C(CCn1ccc(=O)[nH]c1=O)N1CC=C(c2cccc(F)c2F)CC1 (3D coordinates assigned)
O=C(CCn1ccc(=O)[nH]c1=O)N1CC=C(c2cccc(F)c2F)CC1 (nonaromatic ring conformer: 55.67761355442216 kcal/mol)

>  <smiles>  (9) 
O=C(CCn1ccc(=O)[nH]c1=O)N1CC=C(c2cccc(F)c2F)CC1

>  <score_type>  (9) 
oracle

>  <origin>  (9) 
adg

>  <m_score__min__energy>  (9) 
-9.0299999999999994

>  <m_primary>  (9) 
energy

$$$$
9:0
     RDKit          3D

 42 44  0  0  0  0  0  0  0  0999 V2000
   58.8480   34.6930   44.8860 C   0  0  0  0  0  0  0  0  0  0  0  0
   57.4990   33.9860   44.9100 C   0  0  0  0  0  0  0  0  0  0  0  0
   57.6480   32.5790   45.3970 C   0  0  0  0  0  0  0  0  0  0  0  0
   57.0400   31.5180   44.8270 N   0  0  0  0  0  0  0  0  0  0  0  0
   57.4360   30.4590   45.5170 N   0  0  0  0  0  0  0  0  0  0  0  0
   56.9580   29.0960   45.2760 C   0  0  0  0  0  0  0  0  0  0  0  0
   58.0410   28.0940   45.5770 C   0  0  0  0  0  0  0  0  0  0  0  0
   59.1170   28.1820   45.0040 O   0  0  0  0  0  0  0  0  0  0  0  0
   57.8350   27.0180   46.6110 C   0  0  0  0  0  0  0  0  0  0  0  0
   57.3390   25.7830   45.9730 N   0  0  0  0  0  0  0  0  0  0  0  0
   56.0060   25.6860   45.6570 C   0  0  0  0  0  0  0  0  0  0  0  0
   55.1200   26.7060   45.9920 O   0  0  0  0  0  0  0  0  0  0  0  0
   55.5120   24.5690   44.9840 C   0  0  0  0  0  0  0  0  0  0  0  0
   56.3820   23.5500   44.5970 C   0  0  0  0  0  0  0  0  0  0  0  0
   55.9060   22.4390   43.8830 C   0  0  0  0  0  0  0  0  0  0  0  0
   56.7860   21.4280   43.4910 C   0  0  0  0  0  0  0  0  0  0  0  0
   58.1420   21.5160   43.8110 C   0  0  0  0  0  0  0  0  0  0  0  0
   58.6270   22.6150   44.5250 C   0  0  0  0  0  0  0  0  0  0  0  0
   57.7520   23.6450   44.9250 C   0  0  0  0  0  0  0  0  0  0  0  0
   58.2100   24.7740   45.6330 C   0  0  0  0  0  0  0  0  0  0  0  0
   59.4310   24.8570   45.9470 O   0  0  0  0  0  0  0  0  0  0  0  0
   58.2520   30.8860   46.5060 C   0  0  0  0  0  0  0  0  0  0  0  0
   58.8770   30.0170   47.5520 C   0  0  0  0  0  0  0  0  0  0  0  0
   58.4210   32.2180   46.4410 N   0  0  0  0  0  0  0  0  0  0  0  0
   59.1872   34.8708   45.9172 H   0  0  0  0  0  0  0  0  0  0  0  0
   59.5824   34.0639   44.3617 H   0  0  0  0  0  0  0  0  0  0  0  0
   58.7486   35.6549   44.3617 H   0  0  0  0  0  0  0  0  0  0  0  0
   56.8180   34.5301   45.5809 H   0  0  0  0  0  0  0  0  0  0  0  0
   57.0922   33.9654   43.8882 H   0  0  0  0  0  0  0  0  0  0  0  0
   56.0912   28.8970   45.9234 H   0  0  0  0  0  0  0  0  0  0  0  0
   56.6719   29.0022   44.2180 H   0  0  0  0  0  0  0  0  0  0  0  0
   58.7914   26.8086   47.1123 H   0  0  0  0  0  0  0  0  0  0  0  0
   57.0928   27.3645   47.3452 H   0  0  0  0  0  0  0  0  0  0  0  0
   54.4381   24.4918   44.7588 H   0  0  0  0  0  0  0  0  0  0  0  0
   54.8377   22.3646   43.6318 H   0  0  0  0  0  0  0  0  0  0  0  0
   56.4099   20.5605   42.9289 H   0  0  0  0  0  0  0  0  0  0  0  0
   58.8313   20.7172   43.4999 H   0  0  0  0  0  0  0  0  0  0  0  0
   59.6962   22.6765   44.7759 H   0  0  0  0  0  0  0  0  0  0  0  0
   58.6069   30.3925   48.5500 H   0  0  0  0  0  0  0  0  0  0  0  0
   58.5126   28.9855   47.4374 H   0  0  0  0  0  0  0  0  0  0  0  0
   59.9709   30.0343   47.4374 H   0  0  0  0  0  0  0  0  0  0  0  0
   58.9970   32.8300   47.0600 H   0  0  0  0  0  0  0  0  0  0  0  0
  1  2  1  0
  2  3  1  0
  3  4  2  0
  4  5  1  0
  5  6  1  0
  6  7  1  0
  7  8  2  0
  7  9  1  0
  9 10  1  0
 10 11  1  0
 11 12  1  0
 11 13  2  0
 13 14  1  0
 14 15  2  0
 15 16  1  0
 16 17  2  0
 17 18  1  0
 18 19  2  0
 19 20  1  0
 20 21  2  0
  5 22  1  0
 22 23  1  0
 22 24  2  0
 24  3  1  0
 20 10  1  0
 19 14  1  0
  1 25  1  0
  1 26  1  0
  1 27  1  0
  2 28  1  0
  2 29  1  0
  6 30  1  0
  6 31  1  0
  9 32  1  0
  9 33  1  0
 13 34  1  0
 15 35  1  0
 16 36  1  0
 17 37  1  0
 18 38  1  0
 23 39  1  0
 23 40  1  0
 23 41  1  0
 24 42  1  0
M  CHG  2  12  -1  24   1
M  END
>  <UniqueID>  (10) 
10

>  <SMILES>  (10) 
CCc1nn(CC(=O)Cn2c([O-])cc3ccccc3c2=O)c(C)[nH+]1

>  <Energy>  (10) 
74.07708632644618

>  <Genealogy>  (10) 
CCc1nn(CC(=O)Cn2c([O-])cc3ccccc3c2=O)c(C)[nH+]1 (protonated)
CCc1nn(CC(=O)Cn2c([O-])cc3ccccc3c2=O)c(C)[nH+]1 (3D coordinates assigned)
CCc1nn(CC(=O)Cn2c([O-])cc3ccccc3c2=O)c(C)[nH+]1 (optimized conformer: 74.07708632644618 kcal/mol)

>  <smiles>  (10) 
CCc1nc(C)n(CC(=O)Cn2c(O)cc3ccccc3c2=O)n1

>  <score_type>  (10) 
oracle

>  <origin>  (10) 
adg

>  <m_score__min__energy>  (10) 
-10.59

>  <m_primary>  (10) 
energy

$$$$
10:0
     RDKit          3D

 61 64  0  0  0  0  0  0  0  0999 V2000
   54.6770   26.3380   45.9880 O   0  0  0  0  0  0  0  0  0  0  0  0
   55.9010   26.6350   46.0170 C   0  0  0  0  0  0  0  0  0  0  0  0
   56.8780   25.6630   46.4130 N   0  0  0  0  0  0  0  0  0  0  0  0
   57.3230   24.5460   45.6340 C   0  0  0  0  0  0  0  0  0  0  0  0
   58.5680   23.9730   45.9290 C   0  0  0  0  0  0  0  0  0  0  0  0
   59.0200   22.8570   45.2170 C   0  0  0  0  0  0  0  0  0  0  0  0
   58.2270   22.2980   44.2130 C   0  0  0  0  0  0  0  0  0  0  0  0
   56.9740   22.8460   43.9270 C   0  0  0  0  0  0  0  0  0  0  0  0
   56.5170   23.9620   44.6380 C   0  0  0  0  0  0  0  0  0  0  0  0
   56.3080   27.9500   45.6290 N   0  0  0  0  0  0  0  0  0  0  0  0
   57.0700   28.2560   44.4220 C   0  0  1  0  0  0  0  0  0  0  0  0
   56.4860   29.4810   43.6920 C   0  0  0  0  0  0  0  0  0  0  0  0
   57.2170   30.7770   43.9500 C   0  0  0  0  0  0  0  0  0  0  0  0
   57.3630   31.2640   45.2600 C   0  0  0  0  0  0  0  0  0  0  0  0
   57.9900   32.4920   45.4900 C   0  0  0  0  0  0  0  0  0  0  0  0
   58.4660   33.2470   44.4170 C   0  0  0  0  0  0  0  0  0  0  0  0
   58.3210   32.7740   43.1120 C   0  0  0  0  0  0  0  0  0  0  0  0
   57.6980   31.5450   42.8770 C   0  0  0  0  0  0  0  0  0  0  0  0
   58.5610   28.3780   44.6850 C   0  0  0  0  0  0  0  0  0  0  0  0
   59.3440   27.8580   43.8440 O   0  0  0  0  0  0  0  0  0  0  0  0
   59.1170   29.0800   45.8200 N   0  0  0  0  0  0  0  0  0  0  0  0
   58.7710   28.6520   47.1880 C   0  0  0  0  0  0  0  0  0  0  0  0
   59.0080   29.7530   48.2370 C   0  0  0  0  0  0  0  0  0  0  0  0
   60.2510   30.6300   47.9740 C   0  0  0  0  0  0  0  0  0  0  0  0
   61.0130   30.8950   49.2040 N   0  0  0  0  0  0  0  0  0  0  0  0
   62.3020   31.5410   49.3110 C   0  0  0  0  0  0  0  0  0  0  0  0
   63.1480   31.1860   50.3760 C   0  0  0  0  0  0  0  0  0  0  0  0
   64.4040   31.7840   50.5230 C   0  0  0  0  0  0  0  0  0  0  0  0
   64.8350   32.7400   49.6010 C   0  0  0  0  0  0  0  0  0  0  0  0
   64.0140   33.0940   48.5290 C   0  0  0  0  0  0  0  0  0  0  0  0
   62.7570   32.4980   48.3800 C   0  0  0  0  0  0  0  0  0  0  0  0
   61.1510   30.0950   46.8540 C   0  0  0  0  0  0  0  0  0  0  0  0
   60.3300   29.8860   45.5790 C   0  0  0  0  0  0  0  0  0  0  0  0
   59.1932   24.4036   46.7251 H   0  0  0  0  0  0  0  0  0  0  0  0
   60.0021   22.4190   45.4486 H   0  0  0  0  0  0  0  0  0  0  0  0
   58.5885   21.4266   43.6474 H   0  0  0  0  0  0  0  0  0  0  0  0
   56.3457   22.3999   43.1420 H   0  0  0  0  0  0  0  0  0  0  0  0
   55.5253   24.3839   44.4179 H   0  0  0  0  0  0  0  0  0  0  0  0
   56.9659   27.3969   43.7429 H   0  0  0  0  0  0  0  0  0  0  0  0
   56.5142   29.2811   42.6107 H   0  0  0  0  0  0  0  0  0  0  0  0
   55.4659   29.6170   44.0805 H   0  0  0  0  0  0  0  0  0  0  0  0
   56.9822   30.6763   46.1083 H   0  0  0  0  0  0  0  0  0  0  0  0
   58.1084   32.8639   46.5184 H   0  0  0  0  0  0  0  0  0  0  0  0
   58.9555   34.2150   44.5999 H   0  0  0  0  0  0  0  0  0  0  0  0
   58.6976   33.3693   42.2671 H   0  0  0  0  0  0  0  0  0  0  0  0
   57.5839   31.1775   41.8465 H   0  0  0  0  0  0  0  0  0  0  0  0
   57.7081   28.3696   47.2093 H   0  0  0  0  0  0  0  0  0  0  0  0
   59.4243   27.8050   47.4445 H   0  0  0  0  0  0  0  0  0  0  0  0
   58.1236   30.4068   48.2548 H   0  0  0  0  0  0  0  0  0  0  0  0
   59.1831   29.2407   49.1945 H   0  0  0  0  0  0  0  0  0  0  0  0
   59.8593   31.5926   47.6134 H   0  0  0  0  0  0  0  0  0  0  0  0
   60.5260   30.6580   50.0980 H   0  0  0  0  0  0  0  0  0  0  0  0
   62.8184   30.4288   51.1026 H   0  0  0  0  0  0  0  0  0  0  0  0
   65.0524   31.5010   51.3653 H   0  0  0  0  0  0  0  0  0  0  0  0
   65.8207   33.2138   49.7193 H   0  0  0  0  0  0  0  0  0  0  0  0
   64.3561   33.8432   47.7998 H   0  0  0  0  0  0  0  0  0  0  0  0
   62.1181   32.7781   47.5295 H   0  0  0  0  0  0  0  0  0  0  0  0
   61.9549   30.8190   46.6553 H   0  0  0  0  0  0  0  0  0  0  0  0
   61.5844   29.1335   47.1666 H   0  0  0  0  0  0  0  0  0  0  0  0
   60.0296   30.8687   45.1865 H   0  0  0  0  0  0  0  0  0  0  0  0
   60.9587   29.3413   44.8593 H   0  0  0  0  0  0  0  0  0  0  0  0
  1  2  2  0
  2  3  1  0
  3  4  1  0
  4  5  2  0
  5  6  1  0
  6  7  2  0
  7  8  1  0
  8  9  2  0
  2 10  1  0
 10 11  1  0
 11 12  1  0
 12 13  1  0
 13 14  2  0
 14 15  1  0
 15 16  2  0
 16 17  1  0
 17 18  2  0
 11 19  1  0
 19 20  2  0
 19 21  1  0
 21 22  1  0
 22 23  1  0
 23 24  1  0
 24 25  1  0
 25 26  1  0
 26 27  2  0
 27 28  1  0
 28 29  2  0
 29 30  1  0
 30 31  2  0
 24 32  1  0
 32 33  1  0
  9  4  1  0
 18 13  1  0
 33 21  1  0
 31 26  1  0
  5 34  1  0
  6 35  1  0
  7 36  1  0
  8 37  1  0
  9 38  1  0
 11 39  1  6
 12 40  1  0
 12 41  1  0
 14 42  1  0
 15 43  1  0
 16 44  1  0
 17 45  1  0
 18 46  1  0
 22 47  1  0
 22 48  1  0
 23 49  1  0
 23 50  1  0
 24 51  1  0
 25 52  1  0
 27 53  1  0
 28 54  1  0
 29 55  1  0
 30 56  1  0
 31 57  1  0
 32 58  1  0
 32 59  1  0
 33 60  1  0
 33 61  1  0
M  CHG  2   3  -1  10  -1
M  END
>  <UniqueID>  (11) 
11

>  <SMILES>  (11) 
O=C([N-]c1ccccc1)[N-][C@@H](Cc1ccccc1)C(=O)N1CCC(Nc2ccccc2)CC1

>  <Energy>  (11) 
73.04871423355166

>  <Genealogy>  (11) 
O=C([N-]c1ccccc1)[N-]C(Cc1ccccc1)C(=O)N1CCC(Nc2ccccc2)CC1 (protonated)
O=C([N-]c1ccccc1)[N-][C@@H](Cc1ccccc1)C(=O)N1CCC(Nc2ccccc2)CC1 (chirality)
O=C([N-]c1ccccc1)[N-][C@@H](Cc1ccccc1)C(=O)N1CCC(Nc2ccccc2)CC1 (3D coordinates assigned)
O=C([N-]c1ccccc1)[N-][C@@H](Cc1ccccc1)C(=O)N1CCC(Nc2ccccc2)CC1 (nonaromatic ring conformer: 73.04871423355166 kcal/mol)

>  <smiles>  (11) 
O=C(Nc1ccccc1)NC(Cc1ccccc1)C(=O)N1CCC(Nc2ccccc2)CC1

>  <score_type>  (11) 
oracle

>  <origin>  (11) 
adg

>  <m_score__min__energy>  (11) 
-12.869999999999999

>  <m_primary>  (11) 
energy

$$$$
11:0
     RDKit          3D

 53 55  0  0  0  0  0  0  0  0999 V2000
   60.8080   30.4800   46.7180 C   0  0  0  0  0  0  0  0  0  0  0  0
   61.8830   30.4590   47.6500 O   0  0  0  0  0  0  0  0  0  0  0  0
   62.6010   31.5910   48.0700 C   0  0  0  0  0  0  0  0  0  0  0  0
   63.1460   32.5020   47.1430 C   0  0  0  0  0  0  0  0  0  0  0  0
   63.8910   33.5990   47.5810 C   0  0  0  0  0  0  0  0  0  0  0  0
   64.1130   33.7950   48.9430 C   0  0  0  0  0  0  0  0  0  0  0  0
   63.5800   32.9020   49.8730 C   0  0  0  0  0  0  0  0  0  0  0  0
   62.8080   31.8060   49.4510 C   0  0  0  0  0  0  0  0  0  0  0  0
   62.2400   30.8920   50.4660 C   0  0  0  0  0  0  0  0  0  0  0  0
   62.9430   29.9370   50.8990 O   0  0  0  0  0  0  0  0  0  0  0  0
   60.9210   31.1060   50.9930 N   0  0  0  0  0  0  0  0  0  0  0  0
   60.2420   30.1300   51.8400 C   0  0  0  0  0  0  0  0  0  0  0  0
   58.8860   29.7160   51.2520 C   0  0  0  0  0  0  0  0  0  0  0  0
   58.5950   30.4130   49.9480 C   0  0  0  0  0  0  0  0  0  0  0  0
   58.5680   29.7310   48.8910 O   0  0  0  0  0  0  0  0  0  0  0  0
   58.4810   31.8390   49.8420 N   0  0  0  0  0  0  0  0  0  0  0  0
   58.8330   32.6740   48.7290 C   0  0  0  0  0  0  0  0  0  0  0  0
   59.9480   33.5110   48.8400 C   0  0  0  0  0  0  0  0  0  0  0  0
   60.3380   34.3200   47.7680 C   0  0  0  0  0  0  0  0  0  0  0  0
   59.6230   34.2840   46.5690 C   0  0  0  0  0  0  0  0  0  0  0  0
   58.5220   33.4290   46.4340 C   0  0  0  0  0  0  0  0  0  0  0  0
   57.5990   33.3890   44.9350 S   0  0  0  0  0  0  0  0  0  0  0  0
   58.5530   33.3990   43.7750 O   0  0  0  0  0  0  0  0  0  0  0  0
   56.6920   34.5870   44.8380 O   0  0  0  0  0  0  0  0  0  0  0  0
   56.6350   31.9500   44.8720 N   0  0  0  0  0  0  0  0  0  0  0  0
   57.1840   30.6420   44.6910 C   0  0  0  0  0  0  0  0  0  0  0  0
   58.0750   29.9930   45.5400 C   0  0  0  0  0  0  0  0  0  0  0  0
   58.4610   28.7370   45.0620 C   0  0  0  0  0  0  0  0  0  0  0  0
   57.8590   28.4010   43.8550 C   0  0  0  0  0  0  0  0  0  0  0  0
   58.1150   27.1550   43.0750 C   0  0  0  0  0  0  0  0  0  0  0  0
   56.8700   29.6710   43.3580 S   0  0  0  0  0  0  0  0  0  0  0  0
   58.1440   32.6090   47.5070 C   0  0  0  0  0  0  0  0  0  0  0  0
   59.8518   30.4987   47.2615 H   0  0  0  0  0  0  0  0  0  0  0  0
   60.8881   31.3768   46.0860 H   0  0  0  0  0  0  0  0  0  0  0  0
   60.8530   29.5808   46.0860 H   0  0  0  0  0  0  0  0  0  0  0  0
   62.9833   32.3478   46.0661 H   0  0  0  0  0  0  0  0  0  0  0  0
   64.3034   34.3097   46.8497 H   0  0  0  0  0  0  0  0  0  0  0  0
   64.7088   34.6542   49.2848 H   0  0  0  0  0  0  0  0  0  0  0  0
   63.7656   33.0571   50.9461 H   0  0  0  0  0  0  0  0  0  0  0  0
   60.4260   31.9990   50.7780 H   0  0  0  0  0  0  0  0  0  0  0  0
   60.8772   29.2370   51.9350 H   0  0  0  0  0  0  0  0  0  0  0  0
   60.0638   30.5925   52.8220 H   0  0  0  0  0  0  0  0  0  0  0  0
   58.8913   28.6296   51.0796 H   0  0  0  0  0  0  0  0  0  0  0  0
   58.1042   30.0032   51.9705 H   0  0  0  0  0  0  0  0  0  0  0  0
   60.5226   33.5331   49.7777 H   0  0  0  0  0  0  0  0  0  0  0  0
   61.2084   34.9850   47.8693 H   0  0  0  0  0  0  0  0  0  0  0  0
   59.9249   34.9278   45.7297 H   0  0  0  0  0  0  0  0  0  0  0  0
   58.4370   30.4221   46.4860 H   0  0  0  0  0  0  0  0  0  0  0  0
   59.1698   28.0807   45.5882 H   0  0  0  0  0  0  0  0  0  0  0  0
   58.2870   26.3178   43.7674 H   0  0  0  0  0  0  0  0  0  0  0  0
   57.2436   26.9336   42.4413 H   0  0  0  0  0  0  0  0  0  0  0  0
   59.0031   27.2951   42.4413 H   0  0  0  0  0  0  0  0  0  0  0  0
   57.3024   31.9103   47.3907 H   0  0  0  0  0  0  0  0  0  0  0  0
  1  2  1  0
  2  3  1  0
  3  4  2  0
  4  5  1  0
  5  6  2  0
  6  7  1  0
  7  8  2  0
  8  9  1  0
  9 10  2  0
  9 11  1  0
 11 12  1  0
 12 13  1  0
 13 14  1  0
 14 15  2  0
 14 16  1  0
 16 17  1  0
 17 18  2  0
 18 19  1  0
 19 20  2  0
 20 21  1  0
 21 22  1  0
 22 23  2  0
 22 24  2  0
 22 25  1  0
 25 26  1  0
 26 27  2  0
 27 28  1  0
 28 29  2  0
 29 30  1  0
 29 31  1  0
 21 32  2  0
  8  3  1  0
 32 17  1  0
 31 26  1  0
  1 33  1  0
  1 34  1  0
  1 35  1  0
  4 36  1  0
  5 37  1  0
  6 38  1  0
  7 39  1  0
 11 40  1  0
 12 41  1  0
 12 42  1  0
 13 43  1  0
 13 44  1  0
 18 45  1  0
 19 46  1  0
 20 47  1  0
 27 48  1  0
 28 49  1  0
 30 50  1  0
 30 51  1  0
 30 52  1  0
 32 53  1  0
M  CHG  2  16  -1  25  -1
M  END
>  <UniqueID>  (12) 
12

>  <SMILES>  (12) 
COc1ccccc1C(=O)NCCC(=O)[N-]c1cccc(S(=O)(=O)[N-]c2ccc(C)s2)c1

>  <Energy>  (12) 
84.94048206781774

>  <Genealogy>  (12) 
COc1ccccc1C(=O)NCCC(=O)[N-]c1cccc(S(=O)(=O)[N-]c2ccc(C)s2)c1 (protonated)
COc1ccccc1C(=O)NCCC(=O)[N-]c1cccc(S(=O)(=O)[N-]c2ccc(C)s2)c1 (3D coordinates assigned)
COc1ccccc1C(=O)NCCC(=O)[N-]c1cccc(S(=O)(=O)[N-]c2ccc(C)s2)c1 (optimized conformer: 84.94048206781774 kcal/mol)

>  <smiles>  (12) 
COc1ccccc1C(=O)NCCC(=O)Nc1cccc(S(=O)(=O)Nc2ccc(C)s2)c1

>  <score_type>  (12) 
oracle

>  <origin>  (12) 
adg

>  <m_score__min__energy>  (12) 
-11.83

>  <m_primary>  (12) 
energy

$$$$
12:0
     RDKit          3D

 48 50  0  0  0  0  0  0  0  0999 V2000
   60.7690   26.8880   47.9340 C   0  0  0  0  0  0  0  0  0  0  0  0
   60.4900   25.9600   46.7540 C   0  0  0  0  0  0  0  0  0  0  0  0
   59.1640   26.2850   46.1160 C   0  0  0  0  0  0  0  0  0  0  0  0
   59.0110   27.4180   45.2970 C   0  0  0  0  0  0  0  0  0  0  0  0
   57.7440   27.5440   44.7500 C   0  0  0  0  0  0  0  0  0  0  0  0
   57.2910   28.6290   43.8190 C   0  0  0  0  0  0  0  0  0  0  0  0
   56.3990   29.6390   44.4930 C   0  0  0  0  0  0  0  0  0  0  0  0
   55.1530   29.4570   44.5360 O   0  0  0  0  0  0  0  0  0  0  0  0
   56.9290   30.8460   45.0520 N   0  0  0  0  0  0  0  0  0  0  0  0
   58.4460   30.9630   45.8840 S   0  0  0  0  0  0  0  0  0  0  0  0
   58.3370   30.2820   47.2200 O   0  0  0  0  0  0  0  0  0  0  0  0
   59.5040   30.2630   45.0780 O   0  0  0  0  0  0  0  0  0  0  0  0
   58.8990   32.6540   46.0750 C   0  0  0  0  0  0  0  0  0  0  0  0
   59.3550   33.1120   47.3220 C   0  0  0  0  0  0  0  0  0  0  0  0
   59.7470   34.4440   47.4780 C   0  0  0  0  0  0  0  0  0  0  0  0
   59.6880   35.3250   46.3930 C   0  0  0  0  0  0  0  0  0  0  0  0
   59.2320   34.8740   45.1470 C   0  0  0  0  0  0  0  0  0  0  0  0
   58.8370   33.5420   44.9870 C   0  0  0  0  0  0  0  0  0  0  0  0
   56.8100   26.2440   45.2520 S   0  0  0  0  0  0  0  0  0  0  0  0
   57.9950   25.5040   46.1950 C   0  0  0  0  0  0  0  0  0  0  0  0
   57.7650   24.2420   46.9320 C   0  0  0  0  0  0  0  0  0  0  0  0
   57.4170   24.3010   48.1430 O   0  0  0  0  0  0  0  0  0  0  0  0
   58.0040   22.9740   46.3050 N   0  0  0  0  0  0  0  0  0  0  0  0
   57.6270   22.5820   45.1220 C   0  0  0  0  0  0  0  0  0  0  0  0
   56.5340   23.2430   44.3800 C   0  0  0  0  0  0  0  0  0  0  0  0
   56.5660   22.5470   43.0130 C   0  0  0  0  0  0  0  0  0  0  0  0
   57.4550   21.3010   43.1670 C   0  0  0  0  0  0  0  0  0  0  0  0
   58.1480   21.4590   44.4300 N   0  0  0  0  0  0  0  0  0  0  0  0
   60.6052   26.3433   48.8755 H   0  0  0  0  0  0  0  0  0  0  0  0
   61.8115   27.2360   47.8883 H   0  0  0  0  0  0  0  0  0  0  0  0
   60.0913   27.7532   47.8883 H   0  0  0  0  0  0  0  0  0  0  0  0
   61.2881   26.0783   46.0063 H   0  0  0  0  0  0  0  0  0  0  0  0
   60.4585   24.9237   47.1217 H   0  0  0  0  0  0  0  0  0  0  0  0
   59.8216   28.1372   45.1082 H   0  0  0  0  0  0  0  0  0  0  0  0
   58.1775   29.1488   43.4267 H   0  0  0  0  0  0  0  0  0  0  0  0
   56.7082   28.1552   43.0153 H   0  0  0  0  0  0  0  0  0  0  0  0
   59.4036   32.4213   48.1767 H   0  0  0  0  0  0  0  0  0  0  0  0
   60.1027   34.8006   48.4559 H   0  0  0  0  0  0  0  0  0  0  0  0
   59.9997   36.3725   46.5179 H   0  0  0  0  0  0  0  0  0  0  0  0
   59.1847   35.5678   44.2947 H   0  0  0  0  0  0  0  0  0  0  0  0
   58.4776   33.1890   44.0092 H   0  0  0  0  0  0  0  0  0  0  0  0
   55.5668   23.0860   44.8799 H   0  0  0  0  0  0  0  0  0  0  0  0
   56.6578   24.3338   44.3113 H   0  0  0  0  0  0  0  0  0  0  0  0
   55.5492   22.2518   42.7149 H   0  0  0  0  0  0  0  0  0  0  0  0
   56.9616   23.2197   42.2377 H   0  0  0  0  0  0  0  0  0  0  0  0
   56.8380   20.3905   43.1808 H   0  0  0  0  0  0  0  0  0  0  0  0
   58.1611   21.2035   42.3292 H   0  0  0  0  0  0  0  0  0  0  0  0
   58.7540   20.7140   44.8330 H   0  0  0  0  0  0  0  0  0  0  0  0
  1  2  1  0
  2  3  1  0
  3  4  1  0
  4  5  2  0
  5  6  1  0
  6  7  1  0
  7  8  2  0
  7  9  1  0
  9 10  1  0
 10 11  2  0
 10 12  2  0
 10 13  1  0
 13 14  2  0
 14 15  1  0
 15 16  2  0
 16 17  1  0
 17 18  2  0
  5 19  1  0
 19 20  1  0
 20 21  1  0
 21 22  2  0
 21 23  1  0
 23 24  2  3
 24 25  1  0
 25 26  1  0
 26 27  1  0
 27 28  1  0
 20  3  2  0
 28 24  1  0
 18 13  1  0
  1 29  1  0
  1 30  1  0
  1 31  1  0
  2 32  1  0
  2 33  1  0
  4 34  1  0
  6 35  1  0
  6 36  1  0
 14 37  1  0
 15 38  1  0
 16 39  1  0
 17 40  1  0
 18 41  1  0
 25 42  1  0
 25 43  1  0
 26 44  1  0
 26 45  1  0
 27 46  1  0
 27 47  1  0
 28 48  1  0
M  CHG  1   9  -1
M  END
>  <UniqueID>  (13) 
13

>  <SMILES>  (13) 
CCc1cc(CC(=O)[N-]S(=O)(=O)c2ccccc2)sc1C(=O)N=C1CCCN1

>  <Energy>  (13) 
83.54926158510418

>  <Genealogy>  (13) 
CCc1cc(CC(=O)[N-]S(=O)(=O)c2ccccc2)sc1C(=O)N=C1CCCN1 (protonated)
CCc1cc(CC(=O)[N-]S(=O)(=O)c2ccccc2)sc1C(=O)N=C1CCCN1 (3D coordinates assigned)
CCc1cc(CC(=O)[N-]S(=O)(=O)c2ccccc2)sc1C(=O)N=C1CCCN1 (nonaromatic ring conformer: 83.54926158510418 kcal/mol)

>  <smiles>  (13) 
CCc1cc(CC(=O)NS(=O)(=O)c2ccccc2)sc1C(=O)N=C1CCCN1

>  <score_type>  (13) 
oracle

>  <origin>  (13) 
adg

>  <m_score__min__energy>  (13) 
-10.789999999999999

>  <m_primary>  (13) 
energy

$$$$
13:0
     RDKit          3D

 65 69  0  0  0  0  0  0  0  0999 V2000
   64.7060   31.9740   49.4360 C   0  0  0  0  0  0  0  0  0  0  0  0
   63.4840   32.6380   48.9810 N   0  0  0  0  0  0  0  0  0  0  0  0
   63.1970   33.0680   47.7320 C   0  0  0  0  0  0  0  0  0  0  0  0
   63.9920   32.9460   46.7590 O   0  0  0  0  0  0  0  0  0  0  0  0
   61.9730   33.6480   47.6290 N   0  0  0  0  0  0  0  0  0  0  0  0
   61.4280   34.2060   46.3820 C   0  0  0  0  0  0  0  0  0  0  0  0
   60.0810   33.6250   46.0050 C   0  0  0  0  0  0  0  0  0  0  0  0
   59.1990   34.4210   45.2520 C   0  0  0  0  0  0  0  0  0  0  0  0
   57.9450   33.9320   44.8750 C   0  0  0  0  0  0  0  0  0  0  0  0
   57.5610   32.6400   45.2380 C   0  0  0  0  0  0  0  0  0  0  0  0
   58.4270   31.8370   45.9860 C   0  0  0  0  0  0  0  0  0  0  0  0
   59.6800   32.3230   46.3730 C   0  0  0  0  0  0  0  0  0  0  0  0
   61.4760   33.5880   48.9000 C   0  0  0  0  0  0  0  0  0  0  0  0
   62.3930   32.9690   49.7010 C   0  0  0  0  0  0  0  0  0  0  0  0
   62.1350   32.7560   51.0460 C   0  0  0  0  0  0  0  0  0  0  0  0
   62.9750   32.1570   51.7720 O   0  0  0  0  0  0  0  0  0  0  0  0
   60.9430   33.2050   51.5610 N   0  0  0  0  0  0  0  0  0  0  0  0
   60.6090   32.9560   52.9810 C   0  0  0  0  0  0  0  0  0  0  0  0
   59.3380   32.1350   53.1060 C   0  0  0  0  0  0  0  0  0  0  0  0
   58.2750   32.7360   53.2160 O   0  0  0  0  0  0  0  0  0  0  0  0
   59.3050   30.6760   53.0630 N   0  0  0  0  0  0  0  0  0  0  0  0
   58.1290   30.1870   52.3090 C   0  0  0  0  0  0  0  0  0  0  0  0
   58.3170   30.3370   50.7990 C   0  0  0  0  0  0  0  0  0  0  0  0
   59.5500   29.6580   50.3980 N   0  0  0  0  0  0  0  0  0  0  0  0
   59.6090   28.9390   49.1520 C   0  0  0  0  0  0  0  0  0  0  0  0
   58.8660   29.3810   48.0440 C   0  0  0  0  0  0  0  0  0  0  0  0
   58.9230   28.6840   46.8320 C   0  0  0  0  0  0  0  0  0  0  0  0
   59.7220   27.5440   46.7180 C   0  0  0  0  0  0  0  0  0  0  0  0
   60.4670   27.1000   47.8150 C   0  0  0  0  0  0  0  0  0  0  0  0
   60.4110   27.7920   49.0290 C   0  0  0  0  0  0  0  0  0  0  0  0
   60.7850   29.9850   51.1140 C   0  0  0  0  0  0  0  0  0  0  0  0
   60.5560   29.9940   52.6390 C   0  0  0  0  0  0  0  0  0  0  0  0
   60.0220   33.8360   50.7440 C   0  0  0  0  0  0  0  0  0  0  0  0
   58.9200   34.2150   51.2380 O   0  0  0  0  0  0  0  0  0  0  0  0
   60.2830   34.0510   49.4010 N   0  0  0  0  0  0  0  0  0  0  0  0
   59.2760   34.7140   48.5570 C   0  0  0  0  0  0  0  0  0  0  0  0
   64.7289   31.9616   50.5357 H   0  0  0  0  0  0  0  0  0  0  0  0
   64.7251   30.9415   49.0572 H   0  0  0  0  0  0  0  0  0  0  0  0
   65.5827   32.5198   49.0572 H   0  0  0  0  0  0  0  0  0  0  0  0
   61.3173   35.2935   46.5050 H   0  0  0  0  0  0  0  0  0  0  0  0
   62.1309   33.9500   45.5755 H   0  0  0  0  0  0  0  0  0  0  0  0
   59.4988   35.4375   44.9572 H   0  0  0  0  0  0  0  0  0  0  0  0
   57.2604   34.5656   44.2920 H   0  0  0  0  0  0  0  0  0  0  0  0
   56.5766   32.2536   44.9354 H   0  0  0  0  0  0  0  0  0  0  0  0
   58.1219   30.8194   46.2712 H   0  0  0  0  0  0  0  0  0  0  0  0
   60.3550   31.6884   46.9660 H   0  0  0  0  0  0  0  0  0  0  0  0
   61.4379   32.4098   53.4549 H   0  0  0  0  0  0  0  0  0  0  0  0
   60.4507   33.9243   53.4784 H   0  0  0  0  0  0  0  0  0  0  0  0
   59.1560   30.3780   54.0580 H   0  0  0  0  0  0  0  0  0  0  0  0
   57.9729   29.1238   52.5440 H   0  0  0  0  0  0  0  0  0  0  0  0
   57.2587   30.7908   52.6058 H   0  0  0  0  0  0  0  0  0  0  0  0
   57.4614   29.8859   50.2751 H   0  0  0  0  0  0  0  0  0  0  0  0
   58.3810   31.4038   50.5386 H   0  0  0  0  0  0  0  0  0  0  0  0
   58.2367   30.2791   48.1299 H   0  0  0  0  0  0  0  0  0  0  0  0
   58.3383   29.0340   45.9685 H   0  0  0  0  0  0  0  0  0  0  0  0
   59.7652   26.9956   45.7655 H   0  0  0  0  0  0  0  0  0  0  0  0
   61.0987   26.2042   47.7228 H   0  0  0  0  0  0  0  0  0  0  0  0
   60.9965   27.4373   49.8900 H   0  0  0  0  0  0  0  0  0  0  0  0
   61.5513   29.2345   50.8701 H   0  0  0  0  0  0  0  0  0  0  0  0
   61.1139   30.9878   50.8039 H   0  0  0  0  0  0  0  0  0  0  0  0
   60.5160   28.9516   52.9881 H   0  0  0  0  0  0  0  0  0  0  0  0
   61.3898   30.5595   53.0807 H   0  0  0  0  0  0  0  0  0  0  0  0
   58.5284   35.2062   49.1963 H   0  0  0  0  0  0  0  0  0  0  0  0
   59.7674   35.4658   47.9219 H   0  0  0  0  0  0  0  0  0  0  0  0
   58.7796   33.9655   47.9219 H   0  0  0  0  0  0  0  0  0  0  0  0
  1  2  1  0
  2  3  1  0
  3  4  2  0
  3  5  1  0
  5  6  1  0
  6  7  1  0
  7  8  2  0
  8  9  1  0
  9 10  2  0
 10 11  1  0
 11 12  2  0
  5 13  1  0
 13 14  2  0
 14 15  1  0
 15 16  2  0
 15 17  1  0
 17 18  1  0
 18 19  1  0
 19 20  2  0
 19 21  1  0
 21 22  1  0
 22 23  1  0
 23 24  1  0
 24 25  1  0
 25 26  2  0
 26 27  1  0
 27 28  2  0
 28 29  1  0
 29 30  2  0
 24 31  1  0
 31 32  1  0
 17 33  1  0
 33 34  2  0
 33 35  1  0
 35 36  1  0
 14  2  1  0
 32 21  1  0
 12  7  1  0
 35 13  1  0
 30 25  1  0
  1 37  1  0
  1 38  1  0
  1 39  1  0
  6 40  1  0
  6 41  1  0
  8 42  1  0
  9 43  1  0
 10 44  1  0
 11 45  1  0
 12 46  1  0
 18 47  1  0
 18 48  1  0
 21 49  1  0
 22 50  1  0
 22 51  1  0
 23 52  1  0
 23 53  1  0
 26 54  1  0
 27 55  1  0
 28 56  1  0
 29 57  1  0
 30 58  1  0
 31 59  1  0
 31 60  1  0
 32 61  1  0
 32 62  1  0
 36 63  1  0
 36 64  1  0
 36 65  1  0
M  CHG  1  21   1
M  END
>  <UniqueID>  (14) 
14

>  <SMILES>  (14) 
Cn1c(=O)n(Cc2ccccc2)c2c1c(=O)n(CC(=O)[NH+]1CCN(c3ccccc3)CC1)c(=O)n2C

>  <Energy>  (14) 
140.2739360269965

>  <Genealogy>  (14) 
Cn1c(=O)n(Cc2ccccc2)c2c1c(=O)n(CC(=O)[NH+]1CCN(c3ccccc3)CC1)c(=O)n2C (protonated)
Cn1c(=O)n(Cc2ccccc2)c2c1c(=O)n(CC(=O)[NH+]1CCN(c3ccccc3)CC1)c(=O)n2C (3D coordinates assigned)
Cn1c(=O)n(Cc2ccccc2)c2c1c(=O)n(CC(=O)[NH+]1CCN(c3ccccc3)CC1)c(=O)n2C (nonaromatic ring conformer: 140.2739360269965 kcal/mol)

>  <smiles>  (14) 
Cn1c(=O)n(Cc2ccccc2)c2c1c(=O)n(CC(=O)N1CCN(c3ccccc3)CC1)c(=O)n2C

>  <score_type>  (14) 
oracle

>  <origin>  (14) 
adg

>  <m_score__min__energy>  (14) 
-7.0800000000000001

>  <m_primary>  (14) 
energy

$$$$
14:0
     RDKit          3D

 65 69  0  0  0  0  0  0  0  0999 V2000
   54.9700   30.1610   54.6210 C   0  0  0  0  0  0  0  0  0  0  0  0
   55.4720   29.5650   53.2880 C   0  0  0  0  0  0  0  0  0  0  0  0
   54.3070   29.5380   52.2790 C   0  0  0  0  0  0  0  0  0  0  0  0
   55.9740   28.1300   53.5370 C   0  0  0  0  0  0  0  0  0  0  0  0
   56.6030   30.3830   52.6930 C   0  0  0  0  0  0  0  0  0  0  0  0
   56.5090   31.5730   51.9840 C   0  0  0  0  0  0  0  0  0  0  0  0
   57.7940   31.8940   51.6080 C   0  0  0  0  0  0  0  0  0  0  0  0
   58.5950   30.8840   52.1050 C   0  0  0  0  0  0  0  0  0  0  0  0
   60.0490   30.7590   51.9230 C   0  0  0  0  0  0  0  0  0  0  0  0
   60.7880   31.7430   52.1850 O   0  0  0  0  0  0  0  0  0  0  0  0
   60.6460   29.5420   51.4540 N   0  0  0  0  0  0  0  0  0  0  0  0
   60.4360   28.9690   50.1530 C   0  0  0  0  0  0  0  0  0  0  0  0
   60.8490   27.6520   49.9090 C   0  0  0  0  0  0  0  0  0  0  0  0
   60.6280   27.0630   48.6590 C   0  0  0  0  0  0  0  0  0  0  0  0
   59.9780   27.7800   47.6490 C   0  0  0  0  0  0  0  0  0  0  0  0
   59.5350   29.0890   47.8920 C   0  0  0  0  0  0  0  0  0  0  0  0
   58.8630   29.8360   46.8730 N   0  0  0  0  0  0  0  0  0  0  0  0
   57.8250   29.3480   46.2070 N   0  0  0  0  0  0  0  0  0  0  0  0
   57.3930   30.2950   45.3490 C   0  0  0  0  0  0  0  0  0  0  0  0
   56.2850   30.0790   44.4040 C   0  0  0  0  0  0  0  0  0  0  0  0
   55.1420   29.3370   44.8160 N   0  0  0  0  0  0  0  0  0  0  0  0
   56.3390   30.5380   43.2330 O   0  0  0  0  0  0  0  0  0  0  0  0
   58.1800   31.4270   45.4970 C   0  0  0  0  0  0  0  0  0  0  0  0
   59.1210   31.0920   46.4370 C   0  0  0  0  0  0  0  0  0  0  0  0
   60.2650   31.9930   46.7260 C   0  0  0  0  0  0  0  0  0  0  0  0
   61.4570   31.5600   47.3350 C   0  0  0  0  0  0  0  0  0  0  0  0
   62.5350   32.4380   47.5030 C   0  0  0  0  0  0  0  0  0  0  0  0
   63.7290   31.9430   48.1240 N   0  0  0  0  0  0  0  0  0  0  0  0
   64.1510   32.1480   49.7950 S   0  0  0  0  0  0  0  0  0  0  0  0
   63.1480   33.4410   50.4990 C   0  0  0  0  0  0  0  0  0  0  0  0
   65.5950   32.5560   49.8790 O   0  0  0  0  0  0  0  0  0  0  0  0
   63.9620   30.8610   50.5470 O   0  0  0  0  0  0  0  0  0  0  0  0
   62.4220   33.7630   47.0550 C   0  0  0  0  0  0  0  0  0  0  0  0
   61.2540   34.2000   46.4280 C   0  0  0  0  0  0  0  0  0  0  0  0
   60.1840   33.3170   46.2270 C   0  0  0  0  0  0  0  0  0  0  0  0
   58.9210   33.8070   45.5360 C   0  0  0  0  0  0  0  0  0  0  0  0
   58.2250   32.7040   44.7130 C   0  0  0  0  0  0  0  0  0  0  0  0
   59.7640   29.6770   49.1410 C   0  0  0  0  0  0  0  0  0  0  0  0
   57.8640   30.0090   52.7530 O   0  0  0  0  0  0  0  0  0  0  0  0
   55.4276   29.6177   55.4609 H   0  0  0  0  0  0  0  0  0  0  0  0
   55.2493   31.2235   54.6759 H   0  0  0  0  0  0  0  0  0  0  0  0
   53.8755   30.0663   54.6759 H   0  0  0  0  0  0  0  0  0  0  0  0
   53.3512   29.5158   52.8230 H   0  0  0  0  0  0  0  0  0  0  0  0
   54.3484   30.4373   51.6470 H   0  0  0  0  0  0  0  0  0  0  0  0
   54.3900   28.6415   51.6470 H   0  0  0  0  0  0  0  0  0  0  0  0
   56.0381   27.9467   54.6197 H   0  0  0  0  0  0  0  0  0  0  0  0
   55.2734   27.4128   53.0845 H   0  0  0  0  0  0  0  0  0  0  0  0
   56.9689   28.0059   53.0845 H   0  0  0  0  0  0  0  0  0  0  0  0
   55.5939   32.1434   51.7668 H   0  0  0  0  0  0  0  0  0  0  0  0
   58.1164   32.7732   51.0309 H   0  0  0  0  0  0  0  0  0  0  0  0
   61.3491   27.0789   50.7036 H   0  0  0  0  0  0  0  0  0  0  0  0
   60.9663   26.0335   48.4702 H   0  0  0  0  0  0  0  0  0  0  0  0
   59.8142   27.3177   46.6644 H   0  0  0  0  0  0  0  0  0  0  0  0
   55.1970   28.6770   45.6270 H   0  0  0  0  0  0  0  0  0  0  0  0
   61.5432   30.5201   47.6831 H   0  0  0  0  0  0  0  0  0  0  0  0
   63.1928   33.3833   51.5966 H   0  0  0  0  0  0  0  0  0  0  0  0
   63.5256   34.4196   50.1676 H   0  0  0  0  0  0  0  0  0  0  0  0
   62.1063   33.3186   50.1676 H   0  0  0  0  0  0  0  0  0  0  0  0
   63.2593   34.4618   47.1989 H   0  0  0  0  0  0  0  0  0  0  0  0
   61.1727   35.2435   46.0896 H   0  0  0  0  0  0  0  0  0  0  0  0
   58.2195   34.1700   46.3016 H   0  0  0  0  0  0  0  0  0  0  0  0
   59.2131   34.6064   44.8391 H   0  0  0  0  0  0  0  0  0  0  0  0
   57.1990   33.0208   44.4744 H   0  0  0  0  0  0  0  0  0  0  0  0
   58.7905   32.5366   43.7845 H   0  0  0  0  0  0  0  0  0  0  0  0
   59.4151   30.7024   49.3328 H   0  0  0  0  0  0  0  0  0  0  0  0
  1  2  1  0
  2  3  1  0
  2  4  1  0
  2  5  1  0
  5  6  2  0
  6  7  1  0
  7  8  2  0
  8  9  1  0
  9 10  2  0
  9 11  1  0
 11 12  1  0
 12 13  2  0
 13 14  1  0
 14 15  2  0
 15 16  1  0
 16 17  1  0
 17 18  1  0
 18 19  2  0
 19 20  1  0
 20 21  1  0
 20 22  2  0
 19 23  1  0
 23 24  2  0
 24 25  1  0
 25 26  2  0
 26 27  1  0
 27 28  1  0
 28 29  1  0
 29 30  1  0
 29 31  2  0
 29 32  2  0
 27 33  2  0
 33 34  1  0
 34 35  2  0
 35 36  1  0
 36 37  1  0
 16 38  2  0
  8 39  1  0
 39  5  1  0
 38 12  1  0
 24 17  1  0
 35 25  1  0
 37 23  1  0
  1 40  1  0
  1 41  1  0
  1 42  1  0
  3 43  1  0
  3 44  1  0
  3 45  1  0
  4 46  1  0
  4 47  1  0
  4 48  1  0
  6 49  1  0
  7 50  1  0
 13 51  1  0
 14 52  1  0
 15 53  1  0
 21 54  1  0
 26 55  1  0
 30 56  1  0
 30 57  1  0
 30 58  1  0
 33 59  1  0
 34 60  1  0
 36 61  1  0
 36 62  1  0
 37 63  1  0
 37 64  1  0
 38 65  1  0
M  CHG  3  11  -1  21  -1  28  -1
M  END
>  <UniqueID>  (15) 
15

>  <SMILES>  (15) 
CC(C)(C)c1ccc(C(=O)[N-]c2cccc(-n3nc(C([NH-])=O)c4c3-c3cc([N-]S(C)(=O)=O)ccc3CC4)c2)o1

>  <Energy>  (15) 
140.8808194999192

>  <Genealogy>  (15) 
CC(C)(C)c1ccc(C(=O)[N-]c2cccc(-n3nc(C([NH-])=O)c4c3-c3cc([N-]S(C)(=O)=O)ccc3CC4)c2)o1 (protonated)
CC(C)(C)c1ccc(C(=O)[N-]c2cccc(-n3nc(C([NH-])=O)c4c3-c3cc([N-]S(C)(=O)=O)ccc3CC4)c2)o1 (3D coordinates assigned)
CC(C)(C)c1ccc(C(=O)[N-]c2cccc(-n3nc(C([NH-])=O)c4c3-c3cc([N-]S(C)(=O)=O)ccc3CC4)c2)o1 (nonaromatic ring conformer: 140.8808194999192 kcal/mol)

>  <smiles>  (15) 
CC(C)(C)c1ccc(C(=O)Nc2cccc(-n3nc(C(N)=O)c4c3-c3cc(NS(C)(=O)=O)ccc3CC4)c2)o1

>  <score_type>  (15) 
oracle

>  <origin>  (15) 
adg

>  <m_score__min__energy>  (15) 
-15.470000000000001

>  <m_primary>  (15) 
energy

$$$$
15:0
     RDKit          3D

 41 42  0  0  0  0  0  0  0  0999 V2000
   58.8360   29.1500   45.4230 O   0  0  0  0  0  0  0  0  0  0  0  0
   57.6480   28.8360   45.7080 C   0  0  0  0  0  0  0  0  0  0  0  0
   57.3850   27.7690   46.7210 C   0  0  0  0  0  0  0  0  0  0  0  0
   57.2010   26.4390   46.0380 C   0  0  0  0  0  0  0  0  0  0  0  0
   58.3220   25.6390   45.7600 C   0  0  0  0  0  0  0  0  0  0  0  0
   58.1660   24.3900   45.1540 C   0  0  0  0  0  0  0  0  0  0  0  0
   56.8900   23.9230   44.8310 C   0  0  0  0  0  0  0  0  0  0  0  0
   55.7670   24.7030   45.1140 C   0  0  0  0  0  0  0  0  0  0  0  0
   55.9140   25.9570   45.7200 C   0  0  0  0  0  0  0  0  0  0  0  0
   54.7820   26.7110   46.0040 O   0  0  0  0  0  0  0  0  0  0  0  0
   56.5500   29.5240   45.0980 N   0  0  0  0  0  0  0  0  0  0  0  0
   56.4980   29.8580   43.6800 C   0  0  0  0  0  0  0  0  0  0  0  0
   57.1570   31.1820   43.4440 C   0  0  0  0  0  0  0  0  0  0  0  0
   57.0080   31.7640   42.3360 O   0  0  0  0  0  0  0  0  0  0  0  0
   57.9040   31.8070   44.4960 N   0  0  0  0  0  0  0  0  0  0  0  0
   58.2570   33.2240   44.4630 C   0  0  0  0  0  0  0  0  0  0  0  0
   58.7190   33.6660   45.8160 C   0  0  0  0  0  0  0  0  0  0  0  0
   57.9110   33.6660   46.7840 O   0  0  0  0  0  0  0  0  0  0  0  0
   60.0600   34.1400   45.9810 N   0  0  0  0  0  0  0  0  0  0  0  0
   61.1540   33.4080   46.5510 C   0  0  0  0  0  0  0  0  0  0  0  0
   62.4860   33.8470   46.4320 C   0  0  0  0  0  0  0  0  0  0  0  0
   63.5200   33.1300   47.0460 C   0  0  0  0  0  0  0  0  0  0  0  0
   63.2330   31.9840   47.7890 C   0  0  0  0  0  0  0  0  0  0  0  0
   61.9090   31.5550   47.9290 C   0  0  0  0  0  0  0  0  0  0  0  0
   61.6300   30.4490   48.6620 F   0  0  0  0  0  0  0  0  0  0  0  0
   60.8740   32.2690   47.3180 C   0  0  0  0  0  0  0  0  0  0  0  0
   58.2373   27.7072   47.4136 H   0  0  0  0  0  0  0  0  0  0  0  0
   56.4684   28.0181   47.2758 H   0  0  0  0  0  0  0  0  0  0  0  0
   59.3284   25.9982   46.0210 H   0  0  0  0  0  0  0  0  0  0  0  0
   59.0493   23.7735   44.9309 H   0  0  0  0  0  0  0  0  0  0  0  0
   56.7696   22.9396   44.3531 H   0  0  0  0  0  0  0  0  0  0  0  0
   54.7633   24.3312   44.8601 H   0  0  0  0  0  0  0  0  0  0  0  0
   57.0219   29.0818   43.1029 H   0  0  0  0  0  0  0  0  0  0  0  0
   55.4473   29.9140   43.3593 H   0  0  0  0  0  0  0  0  0  0  0  0
   58.1210   31.2570   45.3580 H   0  0  0  0  0  0  0  0  0  0  0  0
   59.0642   33.3818   43.7325 H   0  0  0  0  0  0  0  0  0  0  0  0
   57.3728   33.8106   44.1730 H   0  0  0  0  0  0  0  0  0  0  0  0
   62.7151   34.7553   45.8554 H   0  0  0  0  0  0  0  0  0  0  0  0
   64.5608   33.4707   46.9426 H   0  0  0  0  0  0  0  0  0  0  0  0
   64.0478   31.4182   48.2644 H   0  0  0  0  0  0  0  0  0  0  0  0
   59.8332   31.9347   47.4400 H   0  0  0  0  0  0  0  0  0  0  0  0
  1  2  2  0
  2  3  1  0
  3  4  1  0
  4  5  2  0
  5  6  1  0
  6  7  2  0
  7  8  1  0
  8  9  2  0
  9 10  1  0
  2 11  1  0
 11 12  1  0
 12 13  1  0
 13 14  2  0
 13 15  1  0
 15 16  1  0
 16 17  1  0
 17 18  2  0
 17 19  1  0
 19 20  1  0
 20 21  2  0
 21 22  1  0
 22 23  2  0
 23 24  1  0
 24 25  1  0
 24 26  2  0
  9  4  1  0
 26 20  1  0
  3 27  1  0
  3 28  1  0
  5 29  1  0
  6 30  1  0
  7 31  1  0
  8 32  1  0
 12 33  1  0
 12 34  1  0
 15 35  1  0
 16 36  1  0
 16 37  1  0
 21 38  1  0
 22 39  1  0
 23 40  1  0
 26 41  1  0
M  CHG  3  10  -1  11  -1  19  -1
M  END
>  <UniqueID>  (16) 
16

>  <SMILES>  (16) 
O=C(Cc1ccccc1[O-])[N-]CC(=O)NCC(=O)[N-]c1cccc(F)c1

>  <Energy>  (16) 
33.79089658560495

>  <Genealogy>  (16) 
O=C(Cc1ccccc1[O-])[N-]CC(=O)NCC(=O)[N-]c1cccc(F)c1 (protonated)
O=C(Cc1ccccc1[O-])[N-]CC(=O)NCC(=O)[N-]c1cccc(F)c1 (3D coordinates assigned)
O=C(Cc1ccccc1[O-])[N-]CC(=O)NCC(=O)[N-]c1cccc(F)c1 (optimized conformer: 33.79089658560495 kcal/mol)

>  <smiles>  (16) 
O=C(CNC(=O)Cc1ccccc1O)NCC(=O)Nc1cccc(F)c1

>  <score_type>  (16) 
oracle

>  <origin>  (16) 
adg

>  <m_score__min__energy>  (16) 
-13.710000000000001

>  <m_primary>  (16) 
energy

$$$$
16:0
     RDKit          3D

 39 41  0  0  0  0  0  0  0  0999 V2000
   55.1260   26.7040   45.9830 O   0  0  0  0  0  0  0  0  0  0  0  0
   56.2640   26.3200   46.3580 C   0  0  0  0  0  0  0  0  0  0  0  0
   56.3730   25.1030   47.1040 N   0  0  0  0  0  0  0  0  0  0  0  0
   55.8430   23.8350   46.6960 C   0  0  0  0  0  0  0  0  0  0  0  0
   55.0360   23.2430   47.4590 O   0  0  0  0  0  0  0  0  0  0  0  0
   56.2590   23.1820   45.4400 C   0  0  0  0  0  0  0  0  0  0  0  0
   57.3920   22.3910   45.2770 C   0  0  0  0  0  0  0  0  0  0  0  0
   57.5720   21.9440   43.9630 C   0  0  0  0  0  0  0  0  0  0  0  0
   56.5950   22.3880   43.0820 C   0  0  0  0  0  0  0  0  0  0  0  0
   55.5090   23.3410   43.9400 S   0  0  0  0  0  0  0  0  0  0  0  0
   57.4410   27.0450   45.9640 N   0  0  0  0  0  0  0  0  0  0  0  0
   57.4360   28.4280   45.5710 C   0  0  0  0  0  0  0  0  0  0  0  0
   56.5560   28.8530   44.5640 C   0  0  0  0  0  0  0  0  0  0  0  0
   56.5500   30.1870   44.1460 C   0  0  0  0  0  0  0  0  0  0  0  0
   57.4210   31.1160   44.7260 C   0  0  0  0  0  0  0  0  0  0  0  0
   57.3950   32.4750   44.2630 N   0  0  0  0  0  0  0  0  0  0  0  0
   57.5320   33.6480   45.0750 C   0  0  0  0  0  0  0  0  0  0  0  0
   56.7170   34.5950   44.9090 O   0  0  0  0  0  0  0  0  0  0  0  0
   58.5720   33.7660   46.1240 C   0  0  0  0  0  0  0  0  0  0  0  0
   59.8620   34.2040   45.7770 C   0  0  0  0  0  0  0  0  0  0  0  0
   60.8580   34.3110   46.7500 C   0  0  0  0  0  0  0  0  0  0  0  0
   60.5750   33.9910   48.0800 C   0  0  0  0  0  0  0  0  0  0  0  0
   59.2920   33.5730   48.4410 C   0  0  0  0  0  0  0  0  0  0  0  0
   58.2890   33.4650   47.4720 C   0  0  0  0  0  0  0  0  0  0  0  0
   57.0390   33.1040   47.8590 F   0  0  0  0  0  0  0  0  0  0  0  0
   58.3380   30.6840   45.6990 C   0  0  0  0  0  0  0  0  0  0  0  0
   58.3440   29.3510   46.1190 C   0  0  0  0  0  0  0  0  0  0  0  0
   58.0784   22.1416   46.0996 H   0  0  0  0  0  0  0  0  0  0  0  0
   58.4099   21.3005   43.6566 H   0  0  0  0  0  0  0  0  0  0  0  0
   56.5412   22.1560   42.0081 H   0  0  0  0  0  0  0  0  0  0  0  0
   58.3400   26.5180   45.9050 H   0  0  0  0  0  0  0  0  0  0  0  0
   55.8665   28.1320   44.1006 H   0  0  0  0  0  0  0  0  0  0  0  0
   55.8558   30.5086   43.3557 H   0  0  0  0  0  0  0  0  0  0  0  0
   60.0883   34.4641   44.7324 H   0  0  0  0  0  0  0  0  0  0  0  0
   61.8667   34.6477   46.4687 H   0  0  0  0  0  0  0  0  0  0  0  0
   61.3631   34.0682   48.8435 H   0  0  0  0  0  0  0  0  0  0  0  0
   59.0698   33.3281   49.4901 H   0  0  0  0  0  0  0  0  0  0  0  0
   59.0541   31.3979   46.1320 H   0  0  0  0  0  0  0  0  0  0  0  0
   59.0636   29.0219   46.8831 H   0  0  0  0  0  0  0  0  0  0  0  0
  1  2  2  0
  2  3  1  0
  3  4  1  0
  4  5  2  0
  4  6  1  0
  6  7  2  0
  7  8  1  0
  8  9  2  0
  9 10  1  0
  2 11  1  0
 11 12  1  0
 12 13  2  0
 13 14  1  0
 14 15  2  0
 15 16  1  0
 16 17  1  0
 17 18  2  0
 17 19  1  0
 19 20  2  0
 20 21  1  0
 21 22  2  0
 22 23  1  0
 23 24  2  0
 24 25  1  0
 15 26  1  0
 26 27  2  0
 10  6  1  0
 27 12  1  0
 24 19  1  0
  7 28  1  0
  8 29  1  0
  9 30  1  0
 11 31  1  0
 13 32  1  0
 14 33  1  0
 20 34  1  0
 21 35  1  0
 22 36  1  0
 23 37  1  0
 26 38  1  0
 27 39  1  0
M  CHG  2   3  -1  16  -1
M  END
>  <UniqueID>  (17) 
17

>  <SMILES>  (17) 
O=C([N-]C(=O)c1cccs1)Nc1ccc([N-]C(=O)c2ccccc2F)cc1

>  <Energy>  (17) 
82.42993300523268

>  <Genealogy>  (17) 
O=C([N-]C(=O)c1cccs1)Nc1ccc([N-]C(=O)c2ccccc2F)cc1 (protonated)
O=C([N-]C(=O)c1cccs1)Nc1ccc([N-]C(=O)c2ccccc2F)cc1 (3D coordinates assigned)
O=C([N-]C(=O)c1cccs1)Nc1ccc([N-]C(=O)c2ccccc2F)cc1 (optimized conformer: 82.42993300523268 kcal/mol)

>  <smiles>  (17) 
O=C(NC(=O)c1cccs1)Nc1ccc(NC(=O)c2ccccc2F)cc1

>  <score_type>  (17) 
oracle

>  <origin>  (17) 
adg

>  <m_score__min__energy>  (17) 
-11.35

>  <m_primary>  (17) 
energy

$$$$
17:0
     RDKit          3D

 42 44  0  0  1  0  0  0  0  0999 V2000
   57.5380   33.3460   44.3630 O   0  0  0  0  0  0  0  0  0  0  0  0
   57.7450   32.6720   45.4330 C   0  0  0  0  0  0  0  0  0  0  0  0
   57.1750   31.4280   45.6240 N   0  0  0  0  0  0  0  0  0  0  0  0
   57.2030   30.4700   44.8160 C   0  0  0  0  0  0  0  0  0  0  0  0
   56.2860   30.5230   43.7950 N   0  0  0  0  0  0  0  0  0  0  0  0
   56.2280   29.5540   42.8780 C   0  0  0  0  0  0  0  0  0  0  0  0
   57.0610   28.5030   42.9260 N   0  0  0  0  0  0  0  0  0  0  0  0
   57.9590   28.4410   43.9170 C   0  0  0  0  0  0  0  0  0  0  0  0
   58.0640   29.4300   44.9070 C   0  0  0  0  0  0  0  0  0  0  0  0
   59.0810   29.1950   45.9030 C   0  0  0  0  0  0  0  0  0  0  0  0
   60.0940   28.4740   45.7690 O   0  0  0  0  0  0  0  0  0  0  0  0
   58.9190   29.8370   47.1670 N   0  0  0  0  0  0  0  0  0  0  0  0
   59.8400   29.6970   48.2710 C   0  0  0  0  0  0  0  0  0  0  0  0
   60.9890   30.6230   48.2170 C   0  0  0  0  0  0  0  0  0  0  0  0
   61.7340   30.7980   49.3630 C   0  0  0  0  0  0  0  0  0  0  0  0
   62.8190   31.6400   49.4370 C   0  0  0  0  0  0  0  0  0  0  0  0
   63.1570   32.3310   48.2960 C   0  0  0  0  0  0  0  0  0  0  0  0
   64.2710   33.1820   48.4060 O   0  0  0  0  0  0  0  0  0  0  0  0
   62.4560   32.2110   47.1000 C   0  0  0  0  0  0  0  0  0  0  0  0
   61.3740   31.3380   47.1100 C   0  0  0  0  0  0  0  0  0  0  0  0
   58.6180   33.3410   46.4100 C   0  0  0  0  0  0  0  0  0  0  0  0
   59.5250   34.3290   46.0040 C   0  0  0  0  0  0  0  0  0  0  0  0
   60.3470   34.9590   46.9170 C   0  0  0  0  0  0  0  0  0  0  0  0
   60.2870   34.6170   48.2710 C   0  0  0  0  0  0  0  0  0  0  0  0
   59.3990   33.6410   48.6960 C   0  0  0  0  0  0  0  0  0  0  0  0
   59.3050   33.1640   50.5330 Br  0  0  0  0  0  0  0  0  0  0  0  0
   58.6040   33.0470   47.7500 C   0  0  0  0  0  0  0  0  0  0  0  0
   55.4848   29.6184   42.0696 H   0  0  0  0  0  0  0  0  0  0  0  0
   57.0310   27.7210   42.2050 H   0  0  0  0  0  0  0  0  0  0  0  0
   58.6423   27.5799   43.9568 H   0  0  0  0  0  0  0  0  0  0  0  0
   58.0860   30.4580   47.3340 H   0  0  0  0  0  0  0  0  0  0  0  0
   59.2902   29.8824   49.2055 H   0  0  0  0  0  0  0  0  0  0  0  0
   60.2503   28.6779   48.2154 H   0  0  0  0  0  0  0  0  0  0  0  0
   61.4465   30.2360   50.2639 H   0  0  0  0  0  0  0  0  0  0  0  0
   63.3922   31.7561   50.3686 H   0  0  0  0  0  0  0  0  0  0  0  0
   65.0750   32.9960   47.8010 H   0  0  0  0  0  0  0  0  0  0  0  0
   62.7413   32.7740   46.1991 H   0  0  0  0  0  0  0  0  0  0  0  0
   60.7961   31.2136   46.1823 H   0  0  0  0  0  0  0  0  0  0  0  0
   59.5830   34.6070   44.9413 H   0  0  0  0  0  0  0  0  0  0  0  0
   61.0515   35.7327   46.5778 H   0  0  0  0  0  0  0  0  0  0  0  0
   60.9423   35.1207   48.9969 H   0  0  0  0  0  0  0  0  0  0  0  0
   57.8999   32.2743   48.0922 H   0  0  0  0  0  0  0  0  0  0  0  0
  1  2  2  0
  2  3  1  0
  3  4  2  0
  4  5  1  0
  5  6  2  0
  6  7  1  0
  7  8  1  0
  8  9  2  0
  9 10  1  0
 10 11  2  0
 10 12  1  0
 12 13  1  0
 13 14  1  0
 14 15  2  0
 15 16  1  0
 16 17  2  0
 17 18  1  0
 17 19  1  0
 19 20  2  0
  2 21  1  0
 21 22  2  0
 22 23  1  0
 23 24  2  0
 24 25  1  0
 25 26  1  0
 25 27  2  0
  9  4  1  0
 20 14  1  0
 27 21  1  0
  6 28  1  0
  7 29  1  0
  8 30  1  0
 12 31  1  0
 13 32  1  0
 13 33  1  0
 15 34  1  0
 16 35  1  0
 18 36  1  0
 19 37  1  0
 20 38  1  0
 22 39  1  0
 23 40  1  0
 24 41  1  0
 27 42  1  0
M  END
>  <smiles>  (18) 
O=C(N=c1nc[nH]cc1C(=O)NCc1ccc(O)cc1)c1cccc(Br)c1

>  <score_type>  (18) 
oracle

>  <origin>  (18) 
adg

>  <m_score__min__energy>  (18) 
-8.4800000000000004

>  <m_primary>  (18) 
energy

$$$$
18:0
     RDKit          3D

 49 53  0  0  0  0  0  0  0  0999 V2000
   56.4461   28.6481   44.2346 H   0  0  0  0  0  0  0  0  0  0  0  0
   57.0380   28.8070   45.1480 C   0  0  0  0  0  0  0  0  0  0  0  0
   57.5760   30.0750   45.4400 C   0  0  0  0  0  0  0  0  0  0  0  0
   57.4000   31.2940   44.5570 C   0  0  0  0  0  0  0  0  0  0  0  0
   56.9591   30.7095   43.7360 H   0  0  0  0  0  0  0  0  0  0  0  0
   58.4540   32.3880   44.6540 C   0  0  0  0  0  0  0  0  0  0  0  0
   59.3192   32.2607   45.3212 H   0  0  0  0  0  0  0  0  0  0  0  0
   59.0893   32.9226   43.9325 H   0  0  0  0  0  0  0  0  0  0  0  0
   57.0650   32.6120   45.2410 C   0  0  0  0  0  0  0  0  0  0  0  0
   56.9277   32.6464   46.3319 H   0  0  0  0  0  0  0  0  0  0  0  0
   56.2824   33.3752   45.1187 H   0  0  0  0  0  0  0  0  0  0  0  0
   58.3010   30.2300   46.5780 N   0  0  0  0  0  0  0  0  0  0  0  0
   58.5200   29.1990   47.4370 C   0  0  0  0  0  0  0  0  0  0  0  0
   59.2150   29.3670   48.5220 N   0  0  0  0  0  0  0  0  0  0  0  0
   59.2950   30.6280   49.2540 C   0  0  0  0  0  0  0  0  0  0  0  0
   58.2823   31.0300   49.4053 H   0  0  0  0  0  0  0  0  0  0  0  0
   59.7692   30.4571   50.2317 H   0  0  0  0  0  0  0  0  0  0  0  0
   60.1110   31.6090   48.4640 C   0  0  0  0  0  0  0  0  0  0  0  0
   59.5140   32.8000   47.9770 C   0  0  0  0  0  0  0  0  0  0  0  0
   58.4450   32.9867   48.1567 H   0  0  0  0  0  0  0  0  0  0  0  0
   60.2770   33.7450   47.2660 C   0  0  0  0  0  0  0  0  0  0  0  0
   59.8205   34.6678   46.8786 H   0  0  0  0  0  0  0  0  0  0  0  0
   61.6280   33.4740   47.0690 C   0  0  0  0  0  0  0  0  0  0  0  0
   62.6060   34.2030   46.4290 C   0  0  0  0  0  0  0  0  0  0  0  0
   62.4944   35.1752   45.9267 H   0  0  0  0  0  0  0  0  0  0  0  0
   63.7660   33.4440   46.5550 C   0  0  0  0  0  0  0  0  0  0  0  0
   64.7479   33.7322   46.1515 H   0  0  0  0  0  0  0  0  0  0  0  0
   63.5220   32.3040   47.2410 N   0  0  0  0  0  0  0  0  0  0  0  0
   64.2110   31.5560   47.4800 H   0  0  0  0  0  0  0  0  0  0  0  0
   62.2140   32.3340   47.5480 C   0  0  0  0  0  0  0  0  0  0  0  0
   61.4880   31.3770   48.2560 C   0  0  0  0  0  0  0  0  0  0  0  0
   61.9737   30.4683   48.6410 H   0  0  0  0  0  0  0  0  0  0  0  0
   58.0050   27.9750   47.1600 N   0  0  0  0  0  0  0  0  0  0  0  0
   57.2690   27.7490   46.0410 C   0  0  0  0  0  0  0  0  0  0  0  0
   56.7290   26.3950   45.7790 C   0  0  0  0  0  0  0  0  0  0  0  0
   55.5090   26.1590   45.9950 O   0  0  0  0  0  0  0  0  0  0  0  0
   57.5960   25.3470   45.3110 N   0  0  0  0  0  0  0  0  0  0  0  0
   58.6290   25.4850   45.3780 H   0  0  0  0  0  0  0  0  0  0  0  0
   57.1420   24.0830   44.8050 C   0  0  0  0  0  0  0  0  0  0  0  0
   57.2200   22.9400   45.5210 N   0  0  0  0  0  0  0  0  0  0  0  0
   56.7650   21.9640   44.7530 N   0  0  0  0  0  0  0  0  0  0  0  0
   56.7160   20.5640   45.1530 C   0  0  0  0  0  0  0  0  0  0  0  0
   56.7136   20.4962   46.2509 H   0  0  0  0  0  0  0  0  0  0  0  0
   55.8011   20.1008   44.7551 H   0  0  0  0  0  0  0  0  0  0  0  0
   57.5963   20.0379   44.7551 H   0  0  0  0  0  0  0  0  0  0  0  0
   56.4220   22.4690   43.5540 C   0  0  0  0  0  0  0  0  0  0  0  0
   55.9780   21.7850   42.5930 O   0  0  0  0  0  0  0  0  0  0  0  0
   56.6440   23.8260   43.5320 C   0  0  0  0  0  0  0  0  0  0  0  0
   56.4702   24.5348   42.7090 H   0  0  0  0  0  0  0  0  0  0  0  0
  1  2  1  0
  2  3  1  0
  3  4  1  0
  4  5  1  0
  4  6  1  0
  6  7  1  0
  6  8  1  0
  6  9  1  0
  9 10  1  0
  9 11  1  0
  3 12  2  0
 12 13  1  0
 13 14  2  0
 14 15  1  0
 15 16  1  0
 15 17  1  0
 15 18  1  0
 18 19  2  0
 19 20  1  0
 19 21  1  0
 21 22  1  0
 21 23  2  0
 23 24  1  0
 24 25  1  0
 24 26  2  0
 26 27  1  0
 26 28  1  0
 28 29  1  0
 28 30  1  0
 30 31  2  0
 31 32  1  0
 13 33  1  0
 33 34  1  0
 34 35  1  0
 35 36  2  0
 35 37  1  0
 37 38  1  0
 37 39  1  0
 39 40  1  0
 40 41  1  0
 41 42  1  0
 42 43  1  0
 42 44  1  0
 42 45  1  0
 41 46  1  0
 46 47  2  0
 46 48  1  0
 48 49  1  0
 34  2  2  0
 48 39  2  0
  9  4  1  0
 31 18  1  0
 30 23  1  0
M  CHG  2  33  -1  40  -1
M  END
>  <UniqueID>  (19) 
18

>  <SMILES>  (19) 
Cn1[n-]c(NC(=O)c2cc(C3CC3)n/c(=N\Cc3ccc4cc[nH]c4c3)[n-]2)cc1=O

>  <Energy>  (19) 
386.4744589441125

>  <Genealogy>  (19) 
Cn1[n-]c(NC(=O)c2cc(C3CC3)nc(=NCc3ccc4cc[nH]c4c3)[n-]2)cc1=O (protonated)
Cn1[n-]c(NC(=O)c2cc(C3CC3)n/c(=N\Cc3ccc4cc[nH]c4c3)[n-]2)cc1=O (cis-trans isomerization)
Cn1[n-]c(NC(=O)c2cc(C3CC3)n/c(=N\Cc3ccc4cc[nH]c4c3)[n-]2)cc1=O (3D coordinates assigned)
Cn1[n-]c(NC(=O)c2cc(C3CC3)n/c(=N\Cc3ccc4cc[nH]c4c3)[n-]2)cc1=O (nonaromatic ring conformer: 386.4744589441125 kcal/mol)

>  <smiles>  (19) 
Cn1[nH]c(NC(=O)c2cc(C3CC3)nc(=NCc3ccc4cc[nH]c4c3)[nH]2)cc1=O

>  <score_type>  (19) 
oracle

>  <origin>  (19) 
adg

>  <m_score__min__energy>  (19) 
-12.300000000000001

>  <m_primary>  (19) 
energy

$$$$
19:0
     RDKit          3D

 48 50  0  0  0  0  0  0  0  0999 V2000
   55.4260   29.1180   44.9610 N   0  0  0  0  0  0  0  0  0  0  0  0
   56.3100   29.8960   44.1560 C   0  0  0  0  0  0  0  0  0  0  0  0
   56.3030   29.7350   42.9050 O   0  0  0  0  0  0  0  0  0  0  0  0
   57.2260   30.8810   44.7790 C   0  0  0  0  0  0  0  0  0  0  0  0
   57.1490   32.2440   44.4390 C   0  0  0  0  0  0  0  0  0  0  0  0
   58.0140   33.1760   45.0280 C   0  0  0  0  0  0  0  0  0  0  0  0
   57.9270   34.5590   44.6770 N   0  0  0  0  0  0  0  0  0  0  0  0
   58.9630   32.7470   45.9640 C   0  0  0  0  0  0  0  0  0  0  0  0
   59.0480   31.3940   46.3180 C   0  0  0  0  0  0  0  0  0  0  0  0
   60.2290   30.8640   47.5200 S   0  0  0  0  0  0  0  0  0  0  0  0
   59.7980   31.3360   48.8820 O   0  0  0  0  0  0  0  0  0  0  0  0
   61.5640   31.4870   47.2140 O   0  0  0  0  0  0  0  0  0  0  0  0
   60.3860   29.1220   47.5350 N   0  0  0  0  0  0  0  0  0  0  0  0
   60.7080   28.6290   46.1790 C   0  0  0  0  0  0  0  0  0  0  0  0
   60.4440   27.1260   46.0360 C   0  0  0  0  0  0  0  0  0  0  0  0
   59.0470   26.8160   46.3740 N   0  0  0  0  0  0  0  0  0  0  0  0
   58.4000   25.6340   45.8580 C   0  0  0  0  0  0  0  0  0  0  0  0
   57.7440   25.6430   44.6140 C   0  0  0  0  0  0  0  0  0  0  0  0
   57.1310   24.4780   44.1480 C   0  0  0  0  0  0  0  0  0  0  0  0
   57.1690   23.3120   44.9180 C   0  0  0  0  0  0  0  0  0  0  0  0
   56.4110   21.8300   44.3450 S   0  0  0  0  0  0  0  0  0  0  0  0
   57.3780   20.4690   44.7930 N   0  0  0  0  0  0  0  0  0  0  0  0
   56.2800   21.8840   42.8490 O   0  0  0  0  0  0  0  0  0  0  0  0
   55.0470   21.6820   44.9600 O   0  0  0  0  0  0  0  0  0  0  0  0
   57.8400   23.3330   46.1440 C   0  0  0  0  0  0  0  0  0  0  0  0
   58.4310   24.4770   46.5790 N   0  0  0  0  0  0  0  0  0  0  0  0
   58.2820   27.7800   47.1740 C   0  0  0  0  0  0  0  0  0  0  0  0
   59.2130   28.4780   48.1740 C   0  0  0  0  0  0  0  0  0  0  0  0
   58.1850   30.4660   45.7190 C   0  0  0  0  0  0  0  0  0  0  0  0
   54.4060   29.3430   45.0100 H   0  0  0  0  0  0  0  0  0  0  0  0
   56.4031   32.5812   43.7042 H   0  0  0  0  0  0  0  0  0  0  0  0
   57.0410   34.9610   44.2990 H   0  0  0  0  0  0  0  0  0  0  0  0
   58.7490   35.1930   44.7930 H   0  0  0  0  0  0  0  0  0  0  0  0
   59.6458   33.4765   46.4241 H   0  0  0  0  0  0  0  0  0  0  0  0
   60.0882   29.1694   45.4483 H   0  0  0  0  0  0  0  0  0  0  0  0
   61.7791   28.8041   45.9996 H   0  0  0  0  0  0  0  0  0  0  0  0
   60.6420   26.8205   44.9980 H   0  0  0  0  0  0  0  0  0  0  0  0
   61.1068   26.5805   46.7239 H   0  0  0  0  0  0  0  0  0  0  0  0
   57.7139   26.5627   44.0113 H   0  0  0  0  0  0  0  0  0  0  0  0
   56.6182   24.4779   43.1749 H   0  0  0  0  0  0  0  0  0  0  0  0
   58.3670   20.7030   44.5500 H   0  0  0  0  0  0  0  0  0  0  0  0
   57.0960   19.6760   44.1750 H   0  0  0  0  0  0  0  0  0  0  0  0
   57.8898   22.4217   46.7581 H   0  0  0  0  0  0  0  0  0  0  0  0
   57.8314   28.5311   46.5086 H   0  0  0  0  0  0  0  0  0  0  0  0
   57.4901   27.2497   47.7232 H   0  0  0  0  0  0  0  0  0  0  0  0
   58.6377   29.2502   48.7057 H   0  0  0  0  0  0  0  0  0  0  0  0
   59.5977   27.7042   48.8546 H   0  0  0  0  0  0  0  0  0  0  0  0
   58.2591   29.4018   45.9874 H   0  0  0  0  0  0  0  0  0  0  0  0
  1  2  1  0
  2  3  2  0
  2  4  1  0
  4  5  2  0
  5  6  1  0
  6  7  1  0
  6  8  2  0
  8  9  1  0
  9 10  1  0
 10 11  2  0
 10 12  2  0
 10 13  1  0
 13 14  1  0
 14 15  1  0
 15 16  1  0
 16 17  1  0
 17 18  2  0
 18 19  1  0
 19 20  2  0
 20 21  1  0
 21 22  1  0
 21 23  2  0
 21 24  2  0
 20 25  1  0
 25 26  2  0
 16 27  1  0
 27 28  1  0
  9 29  2  0
 29  4  1  0
 28 13  1  0
 26 17  1  0
  1 30  1  0
  5 31  1  0
  7 32  1  0
  7 33  1  0
  8 34  1  0
 14 35  1  0
 14 36  1  0
 15 37  1  0
 15 38  1  0
 18 39  1  0
 19 40  1  0
 22 41  1  0
 22 42  1  0
 25 43  1  0
 27 44  1  0
 27 45  1  0
 28 46  1  0
 28 47  1  0
 29 48  1  0
M  CHG  1   1  -1
M  END
>  <UniqueID>  (20) 
19

>  <SMILES>  (20) 
[NH-]C(=O)c1cc(N)cc(S(=O)(=O)N2CCN(c3ccc(S(N)(=O)=O)cn3)CC2)c1

>  <Energy>  (20) 
54.379408978604694

>  <Genealogy>  (20) 
[NH-]C(=O)c1cc(N)cc(S(=O)(=O)N2CCN(c3ccc(S(N)(=O)=O)cn3)CC2)c1 (protonated)
[NH-]C(=O)c1cc(N)cc(S(=O)(=O)N2CCN(c3ccc(S(N)(=O)=O)cn3)CC2)c1 (3D coordinates assigned)
[NH-]C(=O)c1cc(N)cc(S(=O)(=O)N2CCN(c3ccc(S(N)(=O)=O)cn3)CC2)c1 (nonaromatic ring conformer: 54.379408978604694 kcal/mol)

>  <smiles>  (20) 
NC(=O)c1cc(N)cc(S(=O)(=O)N2CCN(c3ccc(S(N)(=O)=O)cn3)CC2)c1

>  <score_type>  (20) 
oracle

>  <origin>  (20) 
adg

>  <m_score__min__energy>  (20) 
-11.640000000000001

>  <m_primary>  (20) 
energy

$$$$
20:0
     RDKit          3D

 44 46  0  0  0  0  0  0  0  0999 V2000
   54.8360   30.5790   55.5320 O   0  0  0  0  0  0  0  0  0  0  0  0
   54.9140   30.2230   54.3230 C   0  0  0  0  0  0  0  0  0  0  0  0
   53.8000   29.3950   53.7300 C   0  0  0  0  0  0  0  0  0  0  0  0
   52.9850   30.1880   52.7410 C   0  0  0  0  0  0  0  0  0  0  0  0
   53.0580   29.9020   51.3680 C   0  0  0  0  0  0  0  0  0  0  0  0
   52.2780   30.6220   50.4570 C   0  0  0  0  0  0  0  0  0  0  0  0
   51.4140   31.6230   50.9110 C   0  0  0  0  0  0  0  0  0  0  0  0
   50.6390   32.3370   50.0050 O   0  0  0  0  0  0  0  0  0  0  0  0
   51.3280   31.9050   52.2790 C   0  0  0  0  0  0  0  0  0  0  0  0
   52.1060   31.1880   53.1910 C   0  0  0  0  0  0  0  0  0  0  0  0
   56.0940   30.5530   53.5570 N   0  0  0  0  0  0  0  0  0  0  0  0
   57.0390   31.5560   54.0760 C   0  0  0  0  0  0  0  0  0  0  0  0
   57.6680   32.3550   52.9290 C   0  0  0  0  0  0  0  0  0  0  0  0
   58.1140   31.4820   51.8340 N   0  0  0  0  0  0  0  0  0  0  0  0
   58.6300   32.0650   50.6230 C   0  0  0  0  0  0  0  0  0  0  0  0
   58.2370   31.6360   49.5060 O   0  0  0  0  0  0  0  0  0  0  0  0
   59.5430   33.1690   50.6570 N   0  0  0  0  0  0  0  0  0  0  0  0
   60.9560   33.0930   50.4270 C   0  0  0  0  0  0  0  0  0  0  0  0
   61.5860   33.8670   49.4350 C   0  0  0  0  0  0  0  0  0  0  0  0
   62.9690   33.7780   49.2480 C   0  0  0  0  0  0  0  0  0  0  0  0
   63.7350   32.9300   50.0550 C   0  0  0  0  0  0  0  0  0  0  0  0
   65.4690   32.8220   49.8200 Cl  0  0  0  0  0  0  0  0  0  0  0  0
   63.1150   32.1770   51.0580 C   0  0  0  0  0  0  0  0  0  0  0  0
   61.7320   32.2640   51.2460 C   0  0  0  0  0  0  0  0  0  0  0  0
   57.8820   30.0350   51.9120 C   0  0  0  0  0  0  0  0  0  0  0  0
   56.4440   29.7660   52.3620 C   0  0  0  0  0  0  0  0  0  0  0  0
   54.2360   28.5251   53.2170 H   0  0  0  0  0  0  0  0  0  0  0  0
   53.1354   29.0771   54.5469 H   0  0  0  0  0  0  0  0  0  0  0  0
   53.7305   29.1095   51.0079 H   0  0  0  0  0  0  0  0  0  0  0  0
   52.3445   30.4002   49.3816 H   0  0  0  0  0  0  0  0  0  0  0  0
   50.6473   32.6918   52.6363 H   0  0  0  0  0  0  0  0  0  0  0  0
   52.0303   31.4071   54.2663 H   0  0  0  0  0  0  0  0  0  0  0  0
   56.5023   32.2456   54.7442 H   0  0  0  0  0  0  0  0  0  0  0  0
   57.8387   31.0368   54.6245 H   0  0  0  0  0  0  0  0  0  0  0  0
   56.9226   33.0633   52.5382 H   0  0  0  0  0  0  0  0  0  0  0  0
   58.5480   32.8837   53.3239 H   0  0  0  0  0  0  0  0  0  0  0  0
   60.9894   34.5435   48.8053 H   0  0  0  0  0  0  0  0  0  0  0  0
   63.4560   34.3765   48.4641 H   0  0  0  0  0  0  0  0  0  0  0  0
   63.7161   31.5158   51.6994 H   0  0  0  0  0  0  0  0  0  0  0  0
   61.2508   31.6774   52.0424 H   0  0  0  0  0  0  0  0  0  0  0  0
   58.0454   29.5847   50.9218 H   0  0  0  0  0  0  0  0  0  0  0  0
   58.5796   29.5931   52.6388 H   0  0  0  0  0  0  0  0  0  0  0  0
   55.7581   30.0337   51.5447 H   0  0  0  0  0  0  0  0  0  0  0  0
   56.3563   28.6990   52.6147 H   0  0  0  0  0  0  0  0  0  0  0  0
  1  2  2  0
  2  3  1  0
  3  4  1  0
  4  5  2  0
  5  6  1  0
  6  7  2  0
  7  8  1  0
  7  9  1  0
  9 10  2  0
  2 11  1  0
 11 12  1  0
 12 13  1  0
 13 14  1  0
 14 15  1  0
 15 16  2  0
 15 17  1  0
 17 18  1  0
 18 19  2  0
 19 20  1  0
 20 21  2  0
 21 22  1  0
 21 23  1  0
 23 24  2  0
 14 25  1  0
 25 26  1  0
 10  4  1  0
 26 11  1  0
 24 18  1  0
  3 27  1  0
  3 28  1  0
  5 29  1  0
  6 30  1  0
  9 31  1  0
 10 32  1  0
 12 33  1  0
 12 34  1  0
 13 35  1  0
 13 36  1  0
 19 37  1  0
 20 38  1  0
 23 39  1  0
 24 40  1  0
 25 41  1  0
 25 42  1  0
 26 43  1  0
 26 44  1  0
M  CHG  2   8  -1  17  -1
M  END
>  <UniqueID>  (21) 
20

>  <SMILES>  (21) 
O=C(Cc1ccc([O-])cc1)N1CCN(C(=O)[N-]c2ccc(Cl)cc2)CC1

>  <Energy>  (21) 
52.244139250041954

>  <Genealogy>  (21) 
O=C(Cc1ccc([O-])cc1)N1CCN(C(=O)[N-]c2ccc(Cl)cc2)CC1 (protonated)
O=C(Cc1ccc([O-])cc1)N1CCN(C(=O)[N-]c2ccc(Cl)cc2)CC1 (3D coordinates assigned)
O=C(Cc1ccc([O-])cc1)N1CCN(C(=O)[N-]c2ccc(Cl)cc2)CC1 (nonaromatic ring conformer: 52.244139250041954 kcal/mol)

>  <smiles>  (21) 
O=C(Cc1ccc(O)cc1)N1CCN(C(=O)Nc2ccc(Cl)cc2)CC1

>  <score_type>  (21) 
oracle

>  <origin>  (21) 
adg

>  <m_score__min__energy>  (21) 
-12.18

>  <m_primary>  (21) 
energy

$$$$
21:0
     RDKit          3D

 62 65  0  0  0  0  0  0  0  0999 V2000
   57.5110   24.8880   48.1810 O   0  0  0  0  0  0  0  0  0  0  0  0
   57.9100   25.4800   47.1370 C   0  0  0  0  0  0  0  0  0  0  0  0
   57.1400   25.2540   45.8660 C   0  0  0  0  0  0  0  0  0  0  0  0
   55.9030   26.1190   45.8060 C   0  0  0  0  0  0  0  0  0  0  0  0
   54.7670   25.5920   45.9900 O   0  0  0  0  0  0  0  0  0  0  0  0
   55.9750   27.5410   45.6360 N   0  0  0  0  0  0  0  0  0  0  0  0
   57.1200   28.3210   45.2640 C   0  0  0  0  0  0  0  0  0  0  0  0
   58.3220   27.7270   44.8480 C   0  0  0  0  0  0  0  0  0  0  0  0
   59.4070   28.5230   44.4690 C   0  0  0  0  0  0  0  0  0  0  0  0
   59.2940   29.9130   44.4750 C   0  0  0  0  0  0  0  0  0  0  0  0
   58.0870   30.5190   44.8500 C   0  0  0  0  0  0  0  0  0  0  0  0
   57.9360   32.2810   44.8230 S   0  0  0  0  0  0  0  0  0  0  0  0
   58.0250   32.7650   43.4010 O   0  0  0  0  0  0  0  0  0  0  0  0
   56.5860   32.6650   45.3600 O   0  0  0  0  0  0  0  0  0  0  0  0
   59.1760   33.0540   45.7830 N   0  0  0  0  0  0  0  0  0  0  0  0
   58.5710   33.9560   46.7750 C   0  0  0  0  0  0  0  0  0  0  0  0
   59.6660   34.6230   47.6320 C   0  0  0  0  0  0  0  0  0  0  0  0
   60.9560   34.1140   47.3400 O   0  0  0  0  0  0  0  0  0  0  0  0
   60.9610   32.7080   47.4750 C   0  0  0  0  0  0  0  0  0  0  0  0
   60.0200   32.0470   46.4490 C   0  0  0  0  0  0  0  0  0  0  0  0
   57.0030   29.7180   45.2370 C   0  0  0  0  0  0  0  0  0  0  0  0
   59.0870   26.2990   47.2420 N   0  0  0  0  0  0  0  0  0  0  0  0
   59.6480   27.1320   48.2780 C   0  0  0  0  0  0  0  0  0  0  0  0
   60.6870   26.7280   49.1430 C   0  0  0  0  0  0  0  0  0  0  0  0
   61.1450   27.5890   50.1440 C   0  0  0  0  0  0  0  0  0  0  0  0
   60.5750   28.8510   50.3070 C   0  0  0  0  0  0  0  0  0  0  0  0
   59.5330   29.2710   49.4640 C   0  0  0  0  0  0  0  0  0  0  0  0
   58.8970   30.5920   49.6760 C   0  0  0  0  0  0  0  0  0  0  0  0
   58.5780   31.2840   48.6710 O   0  0  0  0  0  0  0  0  0  0  0  0
   58.6330   31.1050   50.9950 N   0  0  0  0  0  0  0  0  0  0  0  0
   58.1970   30.2280   52.0880 C   0  0  0  0  0  0  0  0  0  0  0  0
   57.0490   30.8960   52.8520 C   0  0  0  0  0  0  0  0  0  0  0  0
   57.4050   32.2060   53.2560 O   0  0  0  0  0  0  0  0  0  0  0  0
   57.6000   33.0240   52.1160 C   0  0  0  0  0  0  0  0  0  0  0  0
   58.7950   32.5330   51.2920 C   0  0  0  0  0  0  0  0  0  0  0  0
   59.0760   28.4000   48.4600 C   0  0  0  0  0  0  0  0  0  0  0  0
   57.7863   25.4948   45.0091 H   0  0  0  0  0  0  0  0  0  0  0  0
   56.8257   24.2003   45.8360 H   0  0  0  0  0  0  0  0  0  0  0  0
   58.4105   26.6309   44.8201 H   0  0  0  0  0  0  0  0  0  0  0  0
   60.3531   28.0513   44.1650 H   0  0  0  0  0  0  0  0  0  0  0  0
   60.1537   30.5349   44.1849 H   0  0  0  0  0  0  0  0  0  0  0  0
   57.9944   34.7342   46.2535 H   0  0  0  0  0  0  0  0  0  0  0  0
   57.9093   33.3723   47.4319 H   0  0  0  0  0  0  0  0  0  0  0  0
   59.6592   35.7054   47.4363 H   0  0  0  0  0  0  0  0  0  0  0  0
   59.4478   34.4068   48.6882 H   0  0  0  0  0  0  0  0  0  0  0  0
   61.9838   32.3358   47.3159 H   0  0  0  0  0  0  0  0  0  0  0  0
   60.6089   32.4535   48.4856 H   0  0  0  0  0  0  0  0  0  0  0  0
   60.6231   31.5250   45.6915 H   0  0  0  0  0  0  0  0  0  0  0  0
   59.3676   31.3366   46.9779 H   0  0  0  0  0  0  0  0  0  0  0  0
   56.0514   30.1903   45.5222 H   0  0  0  0  0  0  0  0  0  0  0  0
   61.1383   25.7313   49.0290 H   0  0  0  0  0  0  0  0  0  0  0  0
   61.9612   27.2687   50.8082 H   0  0  0  0  0  0  0  0  0  0  0  0
   60.9428   29.5202   51.0988 H   0  0  0  0  0  0  0  0  0  0  0  0
   57.8525   29.2691   51.6735 H   0  0  0  0  0  0  0  0  0  0  0  0
   59.0388   30.0500   52.7733 H   0  0  0  0  0  0  0  0  0  0  0  0
   56.1647   30.9481   52.1998 H   0  0  0  0  0  0  0  0  0  0  0  0
   56.8301   30.2989   53.7495 H   0  0  0  0  0  0  0  0  0  0  0  0
   56.6948   32.9942   51.4917 H   0  0  0  0  0  0  0  0  0  0  0  0
   57.8009   34.0525   52.4502 H   0  0  0  0  0  0  0  0  0  0  0  0
   58.8482   33.0993   50.3505 H   0  0  0  0  0  0  0  0  0  0  0  0
   59.7216   32.6847   51.8650 H   0  0  0  0  0  0  0  0  0  0  0  0
   58.2530   28.7191   47.8035 H   0  0  0  0  0  0  0  0  0  0  0  0
  1  2  2  0
  2  3  1  0
  3  4  1  0
  4  5  2  0
  4  6  1  0
  6  7  1  0
  7  8  2  0
  8  9  1  0
  9 10  2  0
 10 11  1  0
 11 12  1  0
 12 13  2  0
 12 14  2  0
 12 15  1  0
 15 16  1  0
 16 17  1  0
 17 18  1  0
 18 19  1  0
 19 20  1  0
 11 21  2  0
  2 22  1  0
 22 23  1  0
 23 24  2  0
 24 25  1  0
 25 26  2  0
 26 27  1  0
 27 28  1  0
 28 29  2  0
 28 30  1  0
 30 31  1  0
 31 32  1  0
 32 33  1  0
 33 34  1  0
 34 35  1  0
 27 36  2  0
 21  7  1  0
 36 23  1  0
 20 15  1  0
 35 30  1  0
  3 37  1  0
  3 38  1  0
  8 39  1  0
  9 40  1  0
 10 41  1  0
 16 42  1  0
 16 43  1  0
 17 44  1  0
 17 45  1  0
 19 46  1  0
 19 47  1  0
 20 48  1  0
 20 49  1  0
 21 50  1  0
 24 51  1  0
 25 52  1  0
 26 53  1  0
 31 54  1  0
 31 55  1  0
 32 56  1  0
 32 57  1  0
 34 58  1  0
 34 59  1  0
 35 60  1  0
 35 61  1  0
 36 62  1  0
M  CHG  2   6  -1  22  -1
M  END
>  <UniqueID>  (22) 
21

>  <SMILES>  (22) 
O=C(CC(=O)[N-]c1cccc(S(=O)(=O)N2CCOCC2)c1)[N-]c1cccc(C(=O)N2CCOCC2)c1

>  <Energy>  (22) 
91.35894961487462

>  <Genealogy>  (22) 
O=C(CC(=O)[N-]c1cccc(S(=O)(=O)N2CCOCC2)c1)[N-]c1cccc(C(=O)N2CCOCC2)c1 (protonated)
O=C(CC(=O)[N-]c1cccc(S(=O)(=O)N2CCOCC2)c1)[N-]c1cccc(C(=O)N2CCOCC2)c1 (3D coordinates assigned)
O=C(CC(=O)[N-]c1cccc(S(=O)(=O)N2CCOCC2)c1)[N-]c1cccc(C(=O)N2CCOCC2)c1 (nonaromatic ring conformer: 91.35894961487462 kcal/mol)

>  <smiles>  (22) 
O=C(CC(=O)Nc1cccc(S(=O)(=O)N2CCOCC2)c1)Nc1cccc(C(=O)N2CCOCC2)c1

>  <score_type>  (22) 
oracle

>  <origin>  (22) 
adg

>  <m_score__min__energy>  (22) 
-14.529999999999999

>  <m_primary>  (22) 
energy

$$$$
22:0
     RDKit          3D

 62 66  0  0  0  0  0  0  0  0999 V2000
   61.9500   30.4730   46.3840 O   0  0  0  0  0  0  0  0  0  0  0  0
   60.9230   30.1240   47.0290 C   0  0  0  0  0  0  0  0  0  0  0  0
   60.7370   30.5950   48.3660 N   0  0  0  0  0  0  0  0  0  0  0  0
   61.3400   31.8150   48.8160 C   0  0  0  0  0  0  0  0  0  0  0  0
   62.6140   31.7730   49.3940 C   0  0  0  0  0  0  0  0  0  0  0  0
   63.2150   32.9480   49.8560 C   0  0  0  0  0  0  0  0  0  0  0  0
   62.5370   34.1640   49.7650 C   0  0  0  0  0  0  0  0  0  0  0  0
   61.2550   34.2140   49.2090 C   0  0  0  0  0  0  0  0  0  0  0  0
   60.6490   33.0450   48.7120 C   0  0  0  0  0  0  0  0  0  0  0  0
   59.2510   33.0700   48.2240 C   0  0  0  0  0  0  0  0  0  0  0  0
   58.3360   32.7110   49.0180 O   0  0  0  0  0  0  0  0  0  0  0  0
   58.9240   33.3010   46.8410 N   0  0  0  0  0  0  0  0  0  0  0  0
   59.6540   34.2810   46.0370 C   0  0  0  0  0  0  0  0  0  0  0  0
   58.7790   34.7550   44.8740 C   0  0  0  0  0  0  0  0  0  0  0  0
   58.2900   33.6480   44.1440 O   0  0  0  0  0  0  0  0  0  0  0  0
   57.4000   32.8990   44.9500 C   0  0  0  0  0  0  0  0  0  0  0  0
   58.1370   32.2780   46.1370 C   0  0  0  0  0  0  0  0  0  0  0  0
   59.9330   29.2220   46.4010 C   0  0  0  0  0  0  0  0  0  0  0  0
   59.4570   29.4880   45.1050 C   0  0  0  0  0  0  0  0  0  0  0  0
   58.4730   28.6740   44.5310 C   0  0  0  0  0  0  0  0  0  0  0  0
   57.9580   27.5880   45.2390 C   0  0  0  0  0  0  0  0  0  0  0  0
   58.4250   27.3010   46.5340 C   0  0  0  0  0  0  0  0  0  0  0  0
   57.8760   26.1140   47.2840 C   0  0  0  0  0  0  0  0  0  0  0  0
   56.6670   25.5530   46.5750 C   0  0  0  0  0  0  0  0  0  0  0  0
   55.5380   26.3140   46.5600 N   0  0  0  0  0  0  0  0  0  0  0  0
   54.4280   25.9250   45.9280 N   0  0  0  0  0  0  0  0  0  0  0  0
   54.3660   24.7500   45.2510 C   0  0  0  0  0  0  0  0  0  0  0  0
   53.2920   24.4190   44.6780 O   0  0  0  0  0  0  0  0  0  0  0  0
   55.4990   23.9240   45.1990 C   0  0  0  0  0  0  0  0  0  0  0  0
   56.6690   24.3220   45.8740 C   0  0  0  0  0  0  0  0  0  0  0  0
   57.8330   23.3540   45.8700 C   0  0  0  0  0  0  0  0  0  0  0  0
   58.0820   22.7750   44.4640 C   0  0  0  0  0  0  0  0  0  0  0  0
   56.7920   22.4200   43.6760 C   0  0  0  0  0  0  0  0  0  0  0  0
   55.4940   22.5950   44.4840 C   0  0  0  0  0  0  0  0  0  0  0  0
   59.4080   28.1270   47.1120 C   0  0  0  0  0  0  0  0  0  0  0  0
   60.3210   29.9540   49.0760 H   0  0  0  0  0  0  0  0  0  0  0  0
   63.1438   30.8133   49.4851 H   0  0  0  0  0  0  0  0  0  0  0  0
   64.2243   32.9136   50.2920 H   0  0  0  0  0  0  0  0  0  0  0  0
   63.0122   35.0858   50.1316 H   0  0  0  0  0  0  0  0  0  0  0  0
   60.7171   35.1723   49.1598 H   0  0  0  0  0  0  0  0  0  0  0  0
   59.9222   35.1423   46.6665 H   0  0  0  0  0  0  0  0  0  0  0  0
   60.5665   33.8145   45.6374 H   0  0  0  0  0  0  0  0  0  0  0  0
   57.9302   35.3317   45.2703 H   0  0  0  0  0  0  0  0  0  0  0  0
   59.3839   35.3851   44.2053 H   0  0  0  0  0  0  0  0  0  0  0  0
   56.6069   33.5627   45.3247 H   0  0  0  0  0  0  0  0  0  0  0  0
   56.9667   32.0916   44.3415 H   0  0  0  0  0  0  0  0  0  0  0  0
   57.4038   31.8425   46.8318 H   0  0  0  0  0  0  0  0  0  0  0  0
   58.8163   31.4960   45.7669 H   0  0  0  0  0  0  0  0  0  0  0  0
   59.8600   30.3406   44.5387 H   0  0  0  0  0  0  0  0  0  0  0  0
   58.1045   28.8917   43.5177 H   0  0  0  0  0  0  0  0  0  0  0  0
   57.1837   26.9538   44.7826 H   0  0  0  0  0  0  0  0  0  0  0  0
   58.6512   25.3362   47.3480 H   0  0  0  0  0  0  0  0  0  0  0  0
   57.5786   26.4372   48.2925 H   0  0  0  0  0  0  0  0  0  0  0  0
   58.7381   23.8822   46.2043 H   0  0  0  0  0  0  0  0  0  0  0  0
   57.5918   22.5219   46.5478 H   0  0  0  0  0  0  0  0  0  0  0  0
   58.6468   23.5178   43.8816 H   0  0  0  0  0  0  0  0  0  0  0  0
   58.6308   21.8324   44.6066 H   0  0  0  0  0  0  0  0  0  0  0  0
   56.7381   23.0704   42.7906 H   0  0  0  0  0  0  0  0  0  0  0  0
   56.8625   21.3535   43.4160 H   0  0  0  0  0  0  0  0  0  0  0  0
   54.6327   22.5533   43.8010 H   0  0  0  0  0  0  0  0  0  0  0  0
   55.4234   21.7879   45.2281 H   0  0  0  0  0  0  0  0  0  0  0  0
   59.7690   27.9143   48.1291 H   0  0  0  0  0  0  0  0  0  0  0  0
  1  2  2  0
  2  3  1  0
  3  4  1  0
  4  5  2  0
  5  6  1  0
  6  7  2  0
  7  8  1  0
  8  9  2  0
  9 10  1  0
 10 11  2  0
 10 12  1  0
 12 13  1  0
 13 14  1  0
 14 15  1  0
 15 16  1  0
 16 17  1  0
  2 18  1  0
 18 19  2  0
 19 20  1  0
 20 21  2  0
 21 22  1  0
 22 23  1  0
 23 24  1  0
 24 25  2  0
 25 26  1  0
 26 27  1  0
 27 28  2  0
 27 29  1  0
 29 30  2  0
 30 31  1  0
 31 32  1  0
 32 33  1  0
 33 34  1  0
 22 35  2  0
  9  4  1  0
 17 12  1  0
 35 18  1  0
 30 24  1  0
 34 29  1  0
  3 36  1  0
  5 37  1  0
  6 38  1  0
  7 39  1  0
  8 40  1  0
 13 41  1  0
 13 42  1  0
 14 43  1  0
 14 44  1  0
 16 45  1  0
 16 46  1  0
 17 47  1  0
 17 48  1  0
 19 49  1  0
 20 50  1  0
 21 51  1  0
 23 52  1  0
 23 53  1  0
 31 54  1  0
 31 55  1  0
 32 56  1  0
 32 57  1  0
 33 58  1  0
 33 59  1  0
 34 60  1  0
 34 61  1  0
 35 62  1  0
M  CHG  1  26  -1
M  END
>  <UniqueID>  (23) 
22

>  <SMILES>  (23) 
O=C(Nc1ccccc1C(=O)N1CCOCC1)c1cccc(Cc2n[n-]c(=O)c3c2CCCC3)c1

>  <Energy>  (23) 
93.75735083201069

>  <Genealogy>  (23) 
O=C(Nc1ccccc1C(=O)N1CCOCC1)c1cccc(Cc2n[n-]c(=O)c3c2CCCC3)c1 (protonated)
O=C(Nc1ccccc1C(=O)N1CCOCC1)c1cccc(Cc2n[n-]c(=O)c3c2CCCC3)c1 (3D coordinates assigned)
O=C(Nc1ccccc1C(=O)N1CCOCC1)c1cccc(Cc2n[n-]c(=O)c3c2CCCC3)c1 (nonaromatic ring conformer: 93.75735083201069 kcal/mol)

>  <smiles>  (23) 
O=C(Nc1ccccc1C(=O)N1CCOCC1)c1cccc(Cc2n[nH]c(=O)c3c2CCCC3)c1

>  <score_type>  (23) 
oracle

>  <origin>  (23) 
adg

>  <m_score__min__energy>  (23) 
-13.460000000000001

>  <m_primary>  (23) 
energy

$$$$
23:0
     RDKit          3D

 58 60  0  0  0  0  0  0  0  0999 V2000
   58.7560   25.9420   47.7540 C   0  0  0  0  0  0  0  0  0  0  0  0
   58.4570   27.3170   47.2150 C   0  0  0  0  0  0  0  0  0  0  0  0
   59.1450   28.4700   47.6210 C   0  0  0  0  0  0  0  0  0  0  0  0
   60.2940   28.5710   48.5390 C   0  0  0  0  0  0  0  0  0  0  0  0
   61.1230   27.6170   48.5810 O   0  0  0  0  0  0  0  0  0  0  0  0
   60.4770   29.7030   49.4150 N   0  0  0  0  0  0  0  0  0  0  0  0
   61.8310   30.0740   49.8340 C   0  0  0  0  0  0  0  0  0  0  0  0
   59.3360   30.4080   50.0110 C   0  0  0  0  0  0  0  0  0  0  0  0
   58.3860   29.8070   46.9480 S   0  0  0  0  0  0  0  0  0  0  0  0
   57.2250   28.9690   46.0760 C   0  0  0  0  0  0  0  0  0  0  0  0
   56.2250   29.5320   45.2080 N   0  0  0  0  0  0  0  0  0  0  0  0
   56.2910   29.9160   43.8250 C   0  0  0  0  0  0  0  0  0  0  0  0
   55.4970   29.3620   43.0190 O   0  0  0  0  0  0  0  0  0  0  0  0
   57.3050   30.8890   43.2720 C   0  0  0  0  0  0  0  0  0  0  0  0
   58.5080   30.9500   44.1230 N   0  0  0  0  0  0  0  0  0  0  0  0
   58.6150   32.2310   44.7860 C   0  0  0  0  0  0  0  0  0  0  0  0
   58.0380   33.3810   44.2180 C   0  0  0  0  0  0  0  0  0  0  0  0
   58.1210   34.6120   44.8740 C   0  0  0  0  0  0  0  0  0  0  0  0
   58.7850   34.7120   46.0980 C   0  0  0  0  0  0  0  0  0  0  0  0
   59.3890   33.5790   46.6660 C   0  0  0  0  0  0  0  0  0  0  0  0
   60.0830   33.6580   47.9680 C   0  0  0  0  0  0  0  0  0  0  0  0
   59.3960   33.9100   48.9920 O   0  0  0  0  0  0  0  0  0  0  0  0
   61.5060   33.4240   48.0940 N   0  0  0  0  0  0  0  0  0  0  0  0
   62.1340   33.6330   49.4060 C   0  0  0  0  0  0  0  0  0  0  0  0
   63.6520   33.7750   49.2600 C   0  0  0  0  0  0  0  0  0  0  0  0
   64.1780   32.6900   48.5180 O   0  0  0  0  0  0  0  0  0  0  0  0
   63.7090   32.7610   47.1840 C   0  0  0  0  0  0  0  0  0  0  0  0
   62.1970   32.5470   47.1280 C   0  0  0  0  0  0  0  0  0  0  0  0
   59.2930   32.3450   46.0090 C   0  0  0  0  0  0  0  0  0  0  0  0
   57.3830   27.5980   46.3220 C   0  0  0  0  0  0  0  0  0  0  0  0
   56.4920   26.5730   45.7210 C   0  0  0  0  0  0  0  0  0  0  0  0
   56.9640   25.6820   44.9620 O   0  0  0  0  0  0  0  0  0  0  0  0
   55.1220   26.5770   45.9810 O   0  0  0  0  0  0  0  0  0  0  0  0
   58.7499   25.9699   48.8536 H   0  0  0  0  0  0  0  0  0  0  0  0
   57.9905   25.2353   47.4009 H   0  0  0  0  0  0  0  0  0  0  0  0
   59.7458   25.6170   47.4009 H   0  0  0  0  0  0  0  0  0  0  0  0
   61.8838   30.0885   50.9326 H   0  0  0  0  0  0  0  0  0  0  0  0
   62.5502   29.3398   49.4420 H   0  0  0  0  0  0  0  0  0  0  0  0
   62.0755   31.0723   49.4420 H   0  0  0  0  0  0  0  0  0  0  0  0
   59.4092   30.3628   51.1076 H   0  0  0  0  0  0  0  0  0  0  0  0
   59.3439   31.4589   49.6860 H   0  0  0  0  0  0  0  0  0  0  0  0
   58.3997   29.9308   49.6860 H   0  0  0  0  0  0  0  0  0  0  0  0
   57.5968   30.5669   42.2615 H   0  0  0  0  0  0  0  0  0  0  0  0
   56.8478   31.8891   43.2446 H   0  0  0  0  0  0  0  0  0  0  0  0
   58.4980   30.1800   44.8320 H   0  0  0  0  0  0  0  0  0  0  0  0
   59.3550   30.8100   43.5270 H   0  0  0  0  0  0  0  0  0  0  0  0
   57.5181   33.3109   43.2512 H   0  0  0  0  0  0  0  0  0  0  0  0
   57.6618   35.5049   44.4247 H   0  0  0  0  0  0  0  0  0  0  0  0
   58.8350   35.6800   46.6182 H   0  0  0  0  0  0  0  0  0  0  0  0
   61.7272   34.5487   49.8599 H   0  0  0  0  0  0  0  0  0  0  0  0
   61.9187   32.7638   50.0449 H   0  0  0  0  0  0  0  0  0  0  0  0
   63.8799   34.7160   48.7379 H   0  0  0  0  0  0  0  0  0  0  0  0
   64.1088   33.7790   50.2606 H   0  0  0  0  0  0  0  0  0  0  0  0
   63.9486   33.7515   46.7698 H   0  0  0  0  0  0  0  0  0  0  0  0
   64.1988   31.9711   46.5957 H   0  0  0  0  0  0  0  0  0  0  0  0
   61.8381   32.7749   46.1135 H   0  0  0  0  0  0  0  0  0  0  0  0
   61.9799   31.4998   47.3854 H   0  0  0  0  0  0  0  0  0  0  0  0
   59.7554   31.4537   46.4582 H   0  0  0  0  0  0  0  0  0  0  0  0
  1  2  1  0
  2  3  2  0
  3  4  1  0
  4  5  2  0
  4  6  1  0
  6  7  1  0
  6  8  1  0
  3  9  1  0
  9 10  1  0
 10 11  1  0
 11 12  1  0
 12 13  2  0
 12 14  1  0
 14 15  1  0
 15 16  1  0
 16 17  2  0
 17 18  1  0
 18 19  2  0
 19 20  1  0
 20 21  1  0
 21 22  2  0
 21 23  1  0
 23 24  1  0
 24 25  1  0
 25 26  1  0
 26 27  1  0
 27 28  1  0
 20 29  2  0
 10 30  2  0
 30 31  1  0
 31 32  2  0
 31 33  1  0
 30  2  1  0
 29 16  1  0
 28 23  1  0
  1 34  1  0
  1 35  1  0
  1 36  1  0
  7 37  1  0
  7 38  1  0
  7 39  1  0
  8 40  1  0
  8 41  1  0
  8 42  1  0
 14 43  1  0
 14 44  1  0
 15 45  1  0
 15 46  1  0
 17 47  1  0
 18 48  1  0
 19 49  1  0
 24 50  1  0
 24 51  1  0
 25 52  1  0
 25 53  1  0
 27 54  1  0
 27 55  1  0
 28 56  1  0
 28 57  1  0
 29 58  1  0
M  CHG  3  11  -1  15   1  33  -1
M  END
>  <UniqueID>  (24) 
23

>  <SMILES>  (24) 
Cc1c(C(=O)N(C)C)sc([N-]C(=O)C[NH2+]c2cccc(C(=O)N3CCOCC3)c2)c1C(=O)[O-]

>  <Energy>  (24) 
102.86445878922687

>  <Genealogy>  (24) 
Cc1c(C(=O)N(C)C)sc([N-]C(=O)C[NH2+]c2cccc(C(=O)N3CCOCC3)c2)c1C(=O)[O-] (protonated)
Cc1c(C(=O)N(C)C)sc([N-]C(=O)C[NH2+]c2cccc(C(=O)N3CCOCC3)c2)c1C(=O)[O-] (3D coordinates assigned)
Cc1c(C(=O)N(C)C)sc([N-]C(=O)C[NH2+]c2cccc(C(=O)N3CCOCC3)c2)c1C(=O)[O-] (nonaromatic ring conformer: 102.86445878922687 kcal/mol)

>  <smiles>  (24) 
Cc1c(C(=O)N(C)C)sc(NC(=O)CNc2cccc(C(=O)N3CCOCC3)c2)c1C(=O)O

>  <score_type>  (24) 
oracle

>  <origin>  (24) 
adg

>  <m_score__min__energy>  (24) 
-11

>  <m_primary>  (24) 
energy

$$$$
24:0
     RDKit          3D

 53 57  0  0  0  0  0  0  0  0999 V2000
   59.1071   35.3020   45.9899 H   0  0  0  0  0  0  0  0  0  0  0  0
   58.6480   34.3210   45.7980 C   0  0  0  0  0  0  0  0  0  0  0  0
   57.2030   34.0590   44.9780 S   0  0  0  0  0  0  0  0  0  0  0  0
   57.2950   32.3930   45.1410 C   0  0  0  0  0  0  0  0  0  0  0  0
   56.3750   31.5850   44.6990 N   0  0  0  0  0  0  0  0  0  0  0  0
   56.5080   30.1710   44.5020 C   0  0  0  0  0  0  0  0  0  0  0  0
   55.5780   29.4120   44.8870 O   0  0  0  0  0  0  0  0  0  0  0  0
   57.6640   29.5820   43.7410 C   0  0  0  0  0  0  0  0  0  0  0  0
   57.4567   28.5229   43.5280 H   0  0  0  0  0  0  0  0  0  0  0  0
   57.7934   30.1365   42.7999 H   0  0  0  0  0  0  0  0  0  0  0  0
   58.8950   29.6850   44.5290 N   0  0  0  0  0  0  0  0  0  0  0  0
   58.8420   28.6210   45.9080 S   0  0  0  0  0  0  0  0  0  0  0  0
   58.1470   29.3190   47.0440 O   0  0  0  0  0  0  0  0  0  0  0  0
   60.2460   28.2900   46.3370 O   0  0  0  0  0  0  0  0  0  0  0  0
   57.9580   27.1480   45.5180 C   0  0  0  0  0  0  0  0  0  0  0  0
   58.1620   26.4880   44.2940 C   0  0  0  0  0  0  0  0  0  0  0  0
   58.9031   26.8750   43.5792 H   0  0  0  0  0  0  0  0  0  0  0  0
   57.4250   25.3400   43.9820 C   0  0  0  0  0  0  0  0  0  0  0  0
   57.5905   24.8232   43.0252 H   0  0  0  0  0  0  0  0  0  0  0  0
   56.4780   24.8500   44.8870 C   0  0  0  0  0  0  0  0  0  0  0  0
   55.4550   23.2980   44.4500 Br  0  0  0  0  0  0  0  0  0  0  0  0
   56.2740   25.5040   46.1090 C   0  0  0  0  0  0  0  0  0  0  0  0
   55.5304   25.1174   46.8215 H   0  0  0  0  0  0  0  0  0  0  0  0
   57.0140   26.6470   46.4240 C   0  0  0  0  0  0  0  0  0  0  0  0
   56.8547   27.1550   47.3866 H   0  0  0  0  0  0  0  0  0  0  0  0
   58.3970   32.0170   45.8330 N   0  0  0  0  0  0  0  0  0  0  0  0
   58.5970   31.0300   46.0970 H   0  0  0  0  0  0  0  0  0  0  0  0
   59.1700   33.0840   46.1960 C   0  0  0  0  0  0  0  0  0  0  0  0
   60.4740   32.9610   46.9880 C   0  0  1  0  0  0  0  0  0  0  0  0
   60.9260   31.4740   47.0250 C   0  0  0  0  0  0  0  0  0  0  0  0
   61.1116   31.1260   45.9982 H   0  0  0  0  0  0  0  0  0  0  0  0
   60.1324   30.8713   47.4908 H   0  0  0  0  0  0  0  0  0  0  0  0
   62.2210   31.3250   47.8550 C   0  0  2  0  0  0  0  0  0  0  0  0
   62.5248   30.2680   47.8745 H   0  0  0  0  0  0  0  0  0  0  0  0
   61.9650   31.8160   49.2980 C   0  0  0  0  0  0  0  0  0  0  0  0
   62.8850   31.7057   49.8908 H   0  0  0  0  0  0  0  0  0  0  0  0
   61.1612   31.2167   49.7505 H   0  0  0  0  0  0  0  0  0  0  0  0
   61.5450   33.3010   49.2730 C   0  0  1  0  0  0  0  0  0  0  0  0
   61.3672   33.6483   50.3015 H   0  0  0  0  0  0  0  0  0  0  0  0
   62.6680   34.1430   48.6330 C   0  0  0  0  0  0  0  0  0  0  0  0
   63.5894   34.0350   49.2240 H   0  0  0  0  0  0  0  0  0  0  0  0
   62.3670   35.2008   48.6129 H   0  0  0  0  0  0  0  0  0  0  0  0
   62.9210   33.6530   47.1920 C   0  0  1  0  0  0  0  0  0  0  0  0
   63.7225   34.2547   46.7386 H   0  0  0  0  0  0  0  0  0  0  0  0
   63.3430   32.1690   47.2160 C   0  0  0  0  0  0  0  0  0  0  0  0
   64.2651   32.0596   47.8057 H   0  0  0  0  0  0  0  0  0  0  0  0
   63.5219   31.8222   46.1875 H   0  0  0  0  0  0  0  0  0  0  0  0
   61.6270   33.8040   46.3610 C   0  0  0  0  0  0  0  0  0  0  0  0
   61.8133   33.4556   45.3344 H   0  0  0  0  0  0  0  0  0  0  0  0
   61.3302   34.8632   46.3538 H   0  0  0  0  0  0  0  0  0  0  0  0
   60.2490   33.4570   48.4460 C   0  0  0  0  0  0  0  0  0  0  0  0
   59.4482   32.8636   48.9114 H   0  0  0  0  0  0  0  0  0  0  0  0
   59.9662   34.5197   48.4222 H   0  0  0  0  0  0  0  0  0  0  0  0
  1  2  1  0
  2  3  1  0
  3  4  1  0
  4  5  2  0
  5  6  1  0
  6  7  2  0
  6  8  1  0
  8  9  1  0
  8 10  1  0
  8 11  1  0
 11 12  1  0
 12 13  2  0
 12 14  2  0
 12 15  1  0
 15 16  2  0
 16 17  1  0
 16 18  1  0
 18 19  1  0
 18 20  2  0
 20 21  1  0
 20 22  1  0
 22 23  1  0
 22 24  2  0
 24 25  1  0
  4 26  1  0
 26 27  1  0
 26 28  1  0
 29 28  1  6
 29 30  1  0
 30 31  1  0
 30 32  1  0
 30 33  1  0
 33 34  1  1
 33 35  1  0
 35 36  1  0
 35 37  1  0
 35 38  1  0
 38 39  1  1
 38 40  1  0
 40 41  1  0
 40 42  1  0
 40 43  1  0
 43 44  1  6
 43 45  1  0
 45 46  1  0
 45 47  1  0
 43 48  1  0
 48 49  1  0
 48 50  1  0
 38 51  1  0
 51 52  1  0
 51 53  1  0
 28  2  2  0
 48 29  1  0
 24 15  1  0
 51 29  1  0
 45 33  1  0
M  CHG  1  11  -1
M  END
>  <UniqueID>  (25) 
24

>  <SMILES>  (25) 
O=C(C[N-]S(=O)(=O)c1ccc(Br)cc1)/N=c1\[nH]c(C23CC4CC(CC(C4)C2)C3)cs1

>  <Energy>  (25) 
89.38307077667135

>  <Genealogy>  (25) 
O=C(C[N-]S(=O)(=O)c1ccc(Br)cc1)N=c1[nH]c(C23CC4CC(CC(C4)C2)C3)cs1 (protonated)
O=C(C[N-]S(=O)(=O)c1ccc(Br)cc1)/N=c1\[nH]c(C23CC4CC(CC(C4)C2)C3)cs1 (cis-trans isomerization)
O=C(C[N-]S(=O)(=O)c1ccc(Br)cc1)/N=c1\[nH]c(C23CC4CC(CC(C4)C2)C3)cs1 (3D coordinates assigned)
O=C(C[N-]S(=O)(=O)c1ccc(Br)cc1)/N=c1\[nH]c(C23CC4CC(CC(C4)C2)C3)cs1 (nonaromatic ring conformer: 89.38307077667135 kcal/mol)

>  <smiles>  (25) 
O=C(CNS(=O)(=O)c1ccc(Br)cc1)N=c1[nH]c(C23CC4CC(CC(C4)C2)C3)cs1

>  <score_type>  (25) 
oracle

>  <origin>  (25) 
adg

>  <m_score__min__energy>  (25) 
-11.5

>  <m_primary>  (25) 
energy

$$$$
25:0
     RDKit          3D

 51 52  0  0  0  0  0  0  0  0999 V2000
   60.3660   27.2760   45.9480 C   0  0  0  0  0  0  0  0  0  0  0  0
   60.5190   28.4790   45.3880 C   0  0  0  0  0  0  0  0  0  0  0  0
   59.4620   29.0880   44.5070 C   0  0  0  0  0  0  0  0  0  0  0  0
   58.5510   29.9150   45.3080 N   0  0  0  0  0  0  0  0  0  0  0  0
   58.7140   29.8970   46.7380 C   0  0  0  0  0  0  0  0  0  0  0  0
   58.1620   28.9850   47.4140 O   0  0  0  0  0  0  0  0  0  0  0  0
   59.5330   30.8630   47.4010 N   0  0  0  0  0  0  0  0  0  0  0  0
   60.6910   31.3760   46.9420 C   0  0  0  0  0  0  0  0  0  0  0  0
   61.1640   32.2980   47.8680 C   0  0  0  0  0  0  0  0  0  0  0  0
   62.4410   33.1220   47.7450 C   0  0  0  0  0  0  0  0  0  0  0  0
   63.6550   32.1880   47.9030 C   0  0  0  0  0  0  0  0  0  0  0  0
   62.5410   33.8400   46.3830 C   0  0  0  0  0  0  0  0  0  0  0  0
   62.4650   34.1860   48.8610 C   0  0  0  0  0  0  0  0  0  0  0  0
   60.1780   32.2880   48.8500 C   0  0  0  0  0  0  0  0  0  0  0  0
   60.1530   32.9840   49.8980 O   0  0  0  0  0  0  0  0  0  0  0  0
   59.2390   31.4330   48.5310 O   0  0  0  0  0  0  0  0  0  0  0  0
   57.3980   30.5670   44.6430 C   0  0  2  0  0  0  0  0  0  0  0  0
   56.6450   29.6080   43.7140 C   0  0  0  0  0  0  0  0  0  0  0  0
   57.7610   31.9210   43.9790 C   0  0  0  0  0  0  0  0  0  0  0  0
   58.2150   33.0170   44.9190 C   0  0  0  0  0  0  0  0  0  0  0  0
   57.7270   33.0790   46.2360 C   0  0  0  0  0  0  0  0  0  0  0  0
   58.1550   34.0900   47.1010 C   0  0  0  0  0  0  0  0  0  0  0  0
   59.0940   35.0300   46.6700 C   0  0  0  0  0  0  0  0  0  0  0  0
   59.6120   34.9570   45.3750 C   0  0  0  0  0  0  0  0  0  0  0  0
   59.1820   33.9510   44.5050 C   0  0  0  0  0  0  0  0  0  0  0  0
   61.1599   26.8617   46.5868 H   0  0  0  0  0  0  0  0  0  0  0  0
   59.4461   26.6996   45.7704 H   0  0  0  0  0  0  0  0  0  0  0  0
   61.4454   29.0413   45.5765 H   0  0  0  0  0  0  0  0  0  0  0  0
   59.9433   29.7142   43.7414 H   0  0  0  0  0  0  0  0  0  0  0  0
   58.8874   28.2829   44.0258 H   0  0  0  0  0  0  0  0  0  0  0  0
   61.1801   31.1098   45.9934 H   0  0  0  0  0  0  0  0  0  0  0  0
   63.8597   32.0305   48.9722 H   0  0  0  0  0  0  0  0  0  0  0  0
   63.4386   31.2213   47.4248 H   0  0  0  0  0  0  0  0  0  0  0  0
   64.5339   32.6450   47.4248 H   0  0  0  0  0  0  0  0  0  0  0  0
   62.6910   34.9174   46.5466 H   0  0  0  0  0  0  0  0  0  0  0  0
   63.3912   33.4334   45.8157 H   0  0  0  0  0  0  0  0  0  0  0  0
   61.6121   33.6812   45.8157 H   0  0  0  0  0  0  0  0  0  0  0  0
   62.4538   33.6887   49.8421 H   0  0  0  0  0  0  0  0  0  0  0  0
   63.3771   34.7939   48.7685 H   0  0  0  0  0  0  0  0  0  0  0  0
   61.5813   34.8344   48.7685 H   0  0  0  0  0  0  0  0  0  0  0  0
   56.6881   30.8296   45.4412 H   0  0  0  0  0  0  0  0  0  0  0  0
   56.0767   28.8843   44.3167 H   0  0  0  0  0  0  0  0  0  0  0  0
   55.9526   30.1804   43.0793 H   0  0  0  0  0  0  0  0  0  0  0  0
   57.3654   29.0711   43.0793 H   0  0  0  0  0  0  0  0  0  0  0  0
   58.5721   31.7368   43.2592 H   0  0  0  0  0  0  0  0  0  0  0  0
   56.8302   32.2875   43.5216 H   0  0  0  0  0  0  0  0  0  0  0  0
   57.0044   32.3278   46.5876 H   0  0  0  0  0  0  0  0  0  0  0  0
   57.7517   34.1455   48.1229 H   0  0  0  0  0  0  0  0  0  0  0  0
   59.4256   35.8279   47.3507 H   0  0  0  0  0  0  0  0  0  0  0  0
   60.3588   35.6916   45.0395 H   0  0  0  0  0  0  0  0  0  0  0  0
   59.6024   33.8893   43.4904 H   0  0  0  0  0  0  0  0  0  0  0  0
  1  2  2  0
  2  3  1  0
  3  4  1  0
  4  5  1  0
  5  6  2  0
  5  7  1  0
  7  8  1  0
  8  9  2  0
  9 10  1  0
 10 11  1  0
 10 12  1  0
 10 13  1  0
  9 14  1  0
 14 15  2  0
 14 16  1  0
  4 17  1  0
 17 18  1  0
 17 19  1  0
 19 20  1  0
 20 21  2  0
 21 22  1  0
 22 23  2  0
 23 24  1  0
 24 25  2  0
 16  7  1  0
 25 20  1  0
  1 26  1  0
  1 27  1  0
  2 28  1  0
  3 29  1  0
  3 30  1  0
  8 31  1  0
 11 32  1  0
 11 33  1  0
 11 34  1  0
 12 35  1  0
 12 36  1  0
 12 37  1  0
 13 38  1  0
 13 39  1  0
 13 40  1  0
 17 41  1  1
 18 42  1  0
 18 43  1  0
 18 44  1  0
 19 45  1  0
 19 46  1  0
 21 47  1  0
 22 48  1  0
 23 49  1  0
 24 50  1  0
 25 51  1  0
M  END
>  <UniqueID>  (26) 
25

>  <SMILES>  (26) 
C=CCN(C(=O)n1cc(C(C)(C)C)c(=O)o1)[C@H](C)Cc1ccccc1

>  <Energy>  (26) 
80.78177265864902

>  <Genealogy>  (26) 
C=CCN(C(=O)n1cc(C(C)(C)C)c(=O)o1)[C@H](C)Cc1ccccc1 (chirality)
C=CCN(C(=O)n1cc(C(C)(C)C)c(=O)o1)[C@H](C)Cc1ccccc1 (3D coordinates assigned)
C=CCN(C(=O)n1cc(C(C)(C)C)c(=O)o1)[C@H](C)Cc1ccccc1 (optimized conformer: 80.78177265864902 kcal/mol)

>  <smiles>  (26) 
C=CCN(C(=O)n1cc(C(C)(C)C)c(=O)o1)C(C)Cc1ccccc1

>  <score_type>  (26) 
oracle

>  <origin>  (26) 
adg

>  <m_score__min__energy>  (26) 
-8.6199999999999992

>  <m_primary>  (26) 
energy

$$$$
26:0
     RDKit          3D

 38 41  0  0  0  0  0  0  0  0999 V2000
   61.7920   30.4310   48.1250 C   0  0  0  0  0  0  0  0  0  0  0  0
   60.5840   30.4170   47.5270 C   0  0  0  0  0  0  0  0  0  0  0  0
   60.1610   31.6190   46.9040 C   0  0  0  0  0  0  0  0  0  0  0  0
   58.9340   31.7110   46.2250 C   0  0  0  0  0  0  0  0  0  0  0  0
   58.5120   32.9870   45.5980 C   0  0  0  0  0  0  0  0  0  0  0  0
   59.3010   34.1180   45.4590 C   0  0  0  0  0  0  0  0  0  0  0  0
   58.5140   35.0690   44.8440 C   0  0  0  0  0  0  0  0  0  0  0  0
   57.2790   34.4870   44.6390 C   0  0  0  0  0  0  0  0  0  0  0  0
   57.2810   33.2230   45.1000 N   0  0  0  0  0  0  0  0  0  0  0  0
   58.1560   30.5540   46.1360 C   0  0  0  0  0  0  0  0  0  0  0  0
   57.0090   30.4330   45.4420 N   0  0  0  0  0  0  0  0  0  0  0  0
   56.6600   29.1400   45.5770 C   0  0  0  0  0  0  0  0  0  0  0  0
   55.5480   28.5890   44.9500 O   0  0  0  0  0  0  0  0  0  0  0  0
   57.5650   28.4320   46.3550 C   0  0  0  0  0  0  0  0  0  0  0  0
   57.5920   26.9630   46.4950 C   0  0  0  0  0  0  0  0  0  0  0  0
   56.6240   26.1680   46.0290 C   0  0  0  0  0  0  0  0  0  0  0  0
   56.8890   25.0430   45.3230 N   0  0  0  0  0  0  0  0  0  0  0  0
   55.6720   24.5330   45.0650 C   0  0  0  0  0  0  0  0  0  0  0  0
   55.4650   23.4100   44.3800 C   0  0  0  0  0  0  0  0  0  0  0  0
   54.7190   25.3510   45.6190 C   0  0  0  0  0  0  0  0  0  0  0  0
   53.4720   25.1770   45.5730 O   0  0  0  0  0  0  0  0  0  0  0  0
   55.3020   26.3910   46.2360 N   0  0  0  0  0  0  0  0  0  0  0  0
   58.5450   29.3600   46.7160 C   0  0  0  0  0  0  0  0  0  0  0  0
   59.7300   29.2590   47.4910 C   0  0  0  0  0  0  0  0  0  0  0  0
   59.9840   28.1510   48.2170 C   0  0  0  0  0  0  0  0  0  0  0  0
   62.1695   29.5260   48.6235 H   0  0  0  0  0  0  0  0  0  0  0  0
   62.4003   31.3474   48.1145 H   0  0  0  0  0  0  0  0  0  0  0  0
   60.8119   32.5044   46.9537 H   0  0  0  0  0  0  0  0  0  0  0  0
   60.3478   34.2341   45.7764 H   0  0  0  0  0  0  0  0  0  0  0  0
   58.8122   36.0918   44.5702 H   0  0  0  0  0  0  0  0  0  0  0  0
   56.4186   34.9843   44.1674 H   0  0  0  0  0  0  0  0  0  0  0  0
   56.4630   32.5770   45.0980 H   0  0  0  0  0  0  0  0  0  0  0  0
   55.1410   27.7240   45.2860 H   0  0  0  0  0  0  0  0  0  0  0  0
   58.4490   26.5008   47.0069 H   0  0  0  0  0  0  0  0  0  0  0  0
   54.4392   23.0523   44.2072 H   0  0  0  0  0  0  0  0  0  0  0  0
   56.3198   22.8400   43.9870 H   0  0  0  0  0  0  0  0  0  0  0  0
   60.9056   28.0838   48.8139 H   0  0  0  0  0  0  0  0  0  0  0  0
   59.2696   27.3146   48.2122 H   0  0  0  0  0  0  0  0  0  0  0  0
  1  2  2  0
  2  3  1  0
  3  4  2  0
  4  5  1  0
  5  6  2  0
  6  7  1  0
  7  8  2  0
  8  9  1  0
  4 10  1  0
 10 11  1  0
 11 12  1  0
 12 13  1  0
 12 14  2  0
 14 15  1  0
 15 16  2  3
 16 17  1  0
 17 18  1  0
 18 19  2  0
 18 20  1  0
 20 21  2  0
 20 22  1  0
 14 23  1  0
 23 24  1  0
 24 25  2  0
 24  2  1  0
  9  5  1  0
 23 10  2  0
 22 16  1  0
  1 26  1  0
  1 27  1  0
  3 28  1  0
  6 29  1  0
  7 30  1  0
  8 31  1  0
  9 32  1  0
 13 33  1  0
 15 34  1  0
 19 35  1  0
 19 36  1  0
 25 37  1  0
 25 38  1  0
M  CHG  3  11  -1  17  -1  22  -1
M  END
>  <UniqueID>  (27) 
26

>  <SMILES>  (27) 
C=c1cc(-c2ccc[nH]2)c2[n-]c(O)c(C=c3[n-]c(=C)c(=O)[n-]3)c2c1=C

>  <Energy>  (27) 
149.12358539561293

>  <Genealogy>  (27) 
C=c1cc(-c2ccc[nH]2)c2[n-]c(O)c(C=c3[n-]c(=C)c(=O)[n-]3)c2c1=C (protonated)
C=c1cc(-c2ccc[nH]2)c2[n-]c(O)c(C=c3[n-]c(=C)c(=O)[n-]3)c2c1=C (3D coordinates assigned)
C=c1cc(-c2ccc[nH]2)c2[n-]c(O)c(C=c3[n-]c(=C)c(=O)[n-]3)c2c1=C (optimized conformer: 149.12358539561293 kcal/mol)

>  <smiles>  (27) 
C=c1cc(-c2ccc[nH]2)c2[nH]c(O)c(C=c3[nH]c(=C)c(=O)[nH]3)c2c1=C

>  <score_type>  (27) 
oracle

>  <origin>  (27) 
adg

>  <m_score__min__energy>  (27) 
-13.539999999999999

>  <m_primary>  (27) 
energy

$$$$
27:0
     RDKit          3D

 73 78  0  0  0  0  0  0  0  0999 V2000
   65.2710   37.0640   52.8230 C   0  0  0  0  0  0  0  0  0  0  0  0
   64.6500   35.7480   52.6090 N   0  0  0  0  0  0  0  0  0  0  0  0
   65.6240   34.8130   51.9980 C   0  0  0  0  0  0  0  0  0  0  0  0
   65.1920   33.3350   52.1140 C   0  0  0  0  0  0  0  0  0  0  0  0
   63.7700   33.2150   52.4630 N   0  0  0  0  0  0  0  0  0  0  0  0
   62.9420   32.2340   51.8120 C   0  0  0  0  0  0  0  0  0  0  0  0
   63.5030   31.0230   51.3360 C   0  0  0  0  0  0  0  0  0  0  0  0
   62.7020   30.0600   50.6970 C   0  0  0  0  0  0  0  0  0  0  0  0
   61.3380   30.3250   50.5620 C   0  0  0  0  0  0  0  0  0  0  0  0
   60.3150   29.5960   49.9740 C   0  0  0  0  0  0  0  0  0  0  0  0
   60.4000   28.2540   49.3540 C   0  0  0  0  0  0  0  0  0  0  0  0
   60.7470   27.2740   50.0690 O   0  0  0  0  0  0  0  0  0  0  0  0
   60.0650   28.0210   47.9270 C   0  0  0  0  0  0  0  0  0  0  0  0
   60.0020   26.7200   47.4000 C   0  0  0  0  0  0  0  0  0  0  0  0
   59.6760   26.5350   46.0560 C   0  0  0  0  0  0  0  0  0  0  0  0
   59.4030   27.6060   45.2660 N   0  0  0  0  0  0  0  0  0  0  0  0
   59.4300   28.8820   45.7450 C   0  0  0  0  0  0  0  0  0  0  0  0
   59.1420   29.8960   44.9820 N   0  0  0  0  0  0  0  0  0  0  0  0
   58.2390   30.9760   45.2760 C   0  0  0  0  0  0  0  0  0  0  0  0
   57.0110   30.8760   45.0020 O   0  0  0  0  0  0  0  0  0  0  0  0
   58.7550   32.2320   45.8740 C   0  0  0  0  0  0  0  0  0  0  0  0
   58.0020   33.4120   45.7960 C   0  0  0  0  0  0  0  0  0  0  0  0
   58.5000   34.5830   46.3600 C   0  0  0  0  0  0  0  0  0  0  0  0
   59.7370   34.5780   46.9990 C   0  0  0  0  0  0  0  0  0  0  0  0
   60.4870   33.3870   47.0750 C   0  0  0  0  0  0  0  0  0  0  0  0
   61.8570   33.3370   47.7760 C   0  0  0  0  0  0  0  0  0  0  0  0
   61.9860   34.2050   49.0490 C   0  0  0  0  0  0  0  0  0  0  0  0
   63.0330   33.5690   46.8130 C   0  0  0  0  0  0  0  0  0  0  0  0
   63.5240   32.1470   47.0660 C   0  0  0  0  0  0  0  0  0  0  0  0
   62.3620   31.9050   48.0210 C   0  0  0  0  0  0  0  0  0  0  0  0
   59.9680   32.2510   46.5040 N   0  0  0  0  0  0  0  0  0  0  0  0
   59.7550   29.1060   47.0890 C   0  0  0  0  0  0  0  0  0  0  0  0
   59.1660   30.3690   50.1310 C   0  0  0  0  0  0  0  0  0  0  0  0
   59.4610   31.5220   50.7750 N   0  0  0  0  0  0  0  0  0  0  0  0
   58.5280   32.6000   51.0850 C   0  0  0  0  0  0  0  0  0  0  0  0
   60.7850   31.4930   51.0260 C   0  0  0  0  0  0  0  0  0  0  0  0
   61.5580   32.4710   51.6560 C   0  0  0  0  0  0  0  0  0  0  0  0
   63.2270   34.0090   53.5750 C   0  0  0  0  0  0  0  0  0  0  0  0
   64.1270   35.2100   53.8770 C   0  0  0  0  0  0  0  0  0  0  0  0
   65.3614   37.2556   53.9024 H   0  0  0  0  0  0  0  0  0  0  0  0
   66.2703   37.0770   52.3633 H   0  0  0  0  0  0  0  0  0  0  0  0
   64.6458   37.8436   52.3633 H   0  0  0  0  0  0  0  0  0  0  0  0
   65.7314   35.0647   50.9326 H   0  0  0  0  0  0  0  0  0  0  0  0
   66.5735   34.9231   52.5423 H   0  0  0  0  0  0  0  0  0  0  0  0
   65.3668   32.8349   51.1500 H   0  0  0  0  0  0  0  0  0  0  0  0
   65.7841   32.8643   52.9127 H   0  0  0  0  0  0  0  0  0  0  0  0
   64.5785   30.8339   51.4680 H   0  0  0  0  0  0  0  0  0  0  0  0
   63.1375   29.1250   50.3146 H   0  0  0  0  0  0  0  0  0  0  0  0
   60.2086   25.8521   48.0435 H   0  0  0  0  0  0  0  0  0  0  0  0
   59.6399   25.5194   45.6350 H   0  0  0  0  0  0  0  0  0  0  0  0
   57.0241   33.4124   45.2924 H   0  0  0  0  0  0  0  0  0  0  0  0
   57.9158   35.5132   46.3008 H   0  0  0  0  0  0  0  0  0  0  0  0
   60.1292   35.5040   47.4448 H   0  0  0  0  0  0  0  0  0  0  0  0
   61.8911   33.5662   49.9395 H   0  0  0  0  0  0  0  0  0  0  0  0
   62.9677   34.7011   49.0566 H   0  0  0  0  0  0  0  0  0  0  0  0
   61.1910   34.9652   49.0566 H   0  0  0  0  0  0  0  0  0  0  0  0
   62.7302   33.7608   45.7730 H   0  0  0  0  0  0  0  0  0  0  0  0
   63.7092   34.4245   46.9573 H   0  0  0  0  0  0  0  0  0  0  0  0
   63.5115   31.5038   46.1738 H   0  0  0  0  0  0  0  0  0  0  0  0
   64.5580   31.9691   47.3963 H   0  0  0  0  0  0  0  0  0  0  0  0
   61.6652   31.1209   47.6899 H   0  0  0  0  0  0  0  0  0  0  0  0
   62.5495   31.5498   49.0451 H   0  0  0  0  0  0  0  0  0  0  0  0
   60.5180   31.3650   46.5530 H   0  0  0  0  0  0  0  0  0  0  0  0
   59.7676   30.1308   47.4885 H   0  0  0  0  0  0  0  0  0  0  0  0
   58.1630   30.0828   49.7815 H   0  0  0  0  0  0  0  0  0  0  0  0
   58.4377   32.7043   52.1763 H   0  0  0  0  0  0  0  0  0  0  0  0
   58.9005   33.5420   50.6562 H   0  0  0  0  0  0  0  0  0  0  0  0
   57.5423   32.3665   50.6562 H   0  0  0  0  0  0  0  0  0  0  0  0
   61.1007   33.4023   52.0215 H   0  0  0  0  0  0  0  0  0  0  0  0
   62.2236   34.3695   53.3042 H   0  0  0  0  0  0  0  0  0  0  0  0
   63.1769   33.3724   54.4707 H   0  0  0  0  0  0  0  0  0  0  0  0
   63.5446   35.9864   54.3948 H   0  0  0  0  0  0  0  0  0  0  0  0
   64.9623   34.8962   54.5203 H   0  0  0  0  0  0  0  0  0  0  0  0
  1  2  1  0
  2  3  1  0
  3  4  1  0
  4  5  1  0
  5  6  1  0
  6  7  2  0
  7  8  1  0
  8  9  2  0
  9 10  1  0
 10 11  1  0
 11 12  2  0
 11 13  1  0
 13 14  1  0
 14 15  2  0
 15 16  1  0
 16 17  1  0
 17 18  2  3
 18 19  1  0
 19 20  2  0
 19 21  1  0
 21 22  2  0
 22 23  1  0
 23 24  2  0
 24 25  1  0
 25 26  1  0
 26 27  1  0
 26 28  1  0
 28 29  1  0
 29 30  1  0
 25 31  2  0
 17 32  1  0
 10 33  2  0
 33 34  1  0
 34 35  1  0
 34 36  1  0
 36 37  2  0
  5 38  1  0
 38 39  1  0
 39  2  1  0
 37  6  1  0
 36  9  1  0
 32 13  2  0
 31 21  1  0
 30 26  1  0
  1 40  1  0
  1 41  1  0
  1 42  1  0
  3 43  1  0
  3 44  1  0
  4 45  1  0
  4 46  1  0
  7 47  1  0
  8 48  1  0
 14 49  1  0
 15 50  1  0
 22 51  1  0
 23 52  1  0
 24 53  1  0
 27 54  1  0
 27 55  1  0
 27 56  1  0
 28 57  1  0
 28 58  1  0
 29 59  1  0
 29 60  1  0
 30 61  1  0
 30 62  1  0
 31 63  1  0
 32 64  1  0
 33 65  1  0
 35 66  1  0
 35 67  1  0
 35 68  1  0
 37 69  1  0
 38 70  1  0
 38 71  1  0
 39 72  1  0
 39 73  1  0
M  CHG  2  16  -1  31   1
M  END
>  <UniqueID>  (28) 
27

>  <SMILES>  (28) 
CN1CCN(c2ccc3c(C(=O)c4cc[n-]c(=NC(=O)c5cccc(C6(C)CCC6)[nH+]5)c4)cn(C)c3c2)CC1

>  <Energy>  (28) 
194.75130191924137

>  <Genealogy>  (28) 
CN1CCN(c2ccc3c(C(=O)c4cc[n-]c(=NC(=O)c5cccc(C6(C)CCC6)[nH+]5)c4)cn(C)c3c2)CC1 (protonated)
CN1CCN(c2ccc3c(C(=O)c4cc[n-]c(=NC(=O)c5cccc(C6(C)CCC6)[nH+]5)c4)cn(C)c3c2)CC1 (3D coordinates assigned)
CN1CCN(c2ccc3c(C(=O)c4cc[n-]c(=NC(=O)c5cccc(C6(C)CCC6)[nH+]5)c4)cn(C)c3c2)CC1 (nonaromatic ring conformer: 194.75130191924137 kcal/mol)

>  <smiles>  (28) 
CN1CCN(c2ccc3c(C(=O)c4cc[nH]c(=NC(=O)c5cccc(C6(C)CCC6)n5)c4)cn(C)c3c2)CC1

>  <score_type>  (28) 
oracle

>  <origin>  (28) 
adg

>  <m_score__min__energy>  (28) 
-10.23

>  <m_primary>  (28) 
energy

$$$$
28:0
     RDKit          3D

 49 51  0  0  0  0  0  0  0  0999 V2000
   64.0150   31.7800   46.9050 N   0  0  0  0  0  0  0  0  0  0  0  0
   62.8010   32.8940   47.4290 S   0  0  0  0  0  0  0  0  0  0  0  0
   63.2900   33.6340   48.6430 O   0  0  0  0  0  0  0  0  0  0  0  0
   62.5280   33.8900   46.3370 O   0  0  0  0  0  0  0  0  0  0  0  0
   61.3240   32.0190   47.8200 C   0  0  0  0  0  0  0  0  0  0  0  0
   60.3880   32.5750   48.7020 C   0  0  0  0  0  0  0  0  0  0  0  0
   59.2130   31.8830   49.0060 C   0  0  0  0  0  0  0  0  0  0  0  0
   58.9650   30.6340   48.4320 C   0  0  0  0  0  0  0  0  0  0  0  0
   59.9020   30.0600   47.5560 C   0  0  0  0  0  0  0  0  0  0  0  0
   59.6150   28.7370   46.8890 C   0  0  0  0  0  0  0  0  0  0  0  0
   59.7590   28.8210   45.4170 N   0  0  0  0  0  0  0  0  0  0  0  0
   59.1940   27.6280   44.7410 C   0  0  0  0  0  0  0  0  0  0  0  0
   57.7820   27.8780   44.1710 C   0  0  0  0  0  0  0  0  0  0  0  0
   57.0630   28.7750   44.9920 O   0  0  0  0  0  0  0  0  0  0  0  0
   57.6360   30.0790   44.9720 C   0  0  2  0  0  0  0  0  0  0  0  0
   56.9600   30.9420   43.8790 C   0  0  0  0  0  0  0  0  0  0  0  0
   57.7920   32.1670   43.4540 C   0  0  0  0  0  0  0  0  0  0  0  0
   58.1510   33.0660   44.6110 C   0  0  0  0  0  0  0  0  0  0  0  0
   59.2700   33.9120   44.5300 C   0  0  0  0  0  0  0  0  0  0  0  0
   59.6310   34.7070   45.6210 C   0  0  0  0  0  0  0  0  0  0  0  0
   58.8770   34.6690   46.7970 C   0  0  0  0  0  0  0  0  0  0  0  0
   57.7560   33.8400   46.8820 C   0  0  0  0  0  0  0  0  0  0  0  0
   57.3920   33.0400   45.7940 C   0  0  0  0  0  0  0  0  0  0  0  0
   59.1890   30.0600   44.8470 C   0  0  0  0  0  0  0  0  0  0  0  0
   61.0840   30.7560   47.2580 C   0  0  0  0  0  0  0  0  0  0  0  0
   64.5150   31.4510   47.7610 H   0  0  0  0  0  0  0  0  0  0  0  0
   64.7060   32.3240   46.3430 H   0  0  0  0  0  0  0  0  0  0  0  0
   60.5787   33.5586   49.1561 H   0  0  0  0  0  0  0  0  0  0  0  0
   58.4811   32.3230   49.6993 H   0  0  0  0  0  0  0  0  0  0  0  0
   58.0334   30.0981   48.6664 H   0  0  0  0  0  0  0  0  0  0  0  0
   60.3190   27.9842   47.2734 H   0  0  0  0  0  0  0  0  0  0  0  0
   58.5754   28.4579   47.1157 H   0  0  0  0  0  0  0  0  0  0  0  0
   59.8615   27.3430   43.9145 H   0  0  0  0  0  0  0  0  0  0  0  0
   59.1118   26.8288   45.4923 H   0  0  0  0  0  0  0  0  0  0  0  0
   57.8708   28.3050   43.1612 H   0  0  0  0  0  0  0  0  0  0  0  0
   57.2410   26.9209   44.1349 H   0  0  0  0  0  0  0  0  0  0  0  0
   57.4367   30.5466   45.9475 H   0  0  0  0  0  0  0  0  0  0  0  0
   56.7926   30.3117   42.9932 H   0  0  0  0  0  0  0  0  0  0  0  0
   56.0210   31.3239   44.3062 H   0  0  0  0  0  0  0  0  0  0  0  0
   58.7213   31.8134   42.9834 H   0  0  0  0  0  0  0  0  0  0  0  0
   57.1775   32.7565   42.7577 H   0  0  0  0  0  0  0  0  0  0  0  0
   59.8638   33.9486   43.6047 H   0  0  0  0  0  0  0  0  0  0  0  0
   60.5106   35.3642   45.5540 H   0  0  0  0  0  0  0  0  0  0  0  0
   59.1664   35.2921   47.6560 H   0  0  0  0  0  0  0  0  0  0  0  0
   57.1589   33.8163   47.8055 H   0  0  0  0  0  0  0  0  0  0  0  0
   56.5087   32.3882   45.8642 H   0  0  0  0  0  0  0  0  0  0  0  0
   59.4636   30.1246   43.7838 H   0  0  0  0  0  0  0  0  0  0  0  0
   59.5926   30.9169   45.4062 H   0  0  0  0  0  0  0  0  0  0  0  0
   61.8261   30.3088   46.5802 H   0  0  0  0  0  0  0  0  0  0  0  0
  1  2  1  0
  2  3  2  0
  2  4  2  0
  2  5  1  0
  5  6  2  0
  6  7  1  0
  7  8  2  0
  8  9  1  0
  9 10  1  0
 10 11  1  0
 11 12  1  0
 12 13  1  0
 13 14  1  0
 14 15  1  0
 15 16  1  0
 16 17  1  0
 17 18  1  0
 18 19  2  0
 19 20  1  0
 20 21  2  0
 21 22  1  0
 22 23  2  0
 15 24  1  0
  9 25  2  0
 25  5  1  0
 24 11  1  0
 23 18  1  0
  1 26  1  0
  1 27  1  0
  6 28  1  0
  7 29  1  0
  8 30  1  0
 10 31  1  0
 10 32  1  0
 12 33  1  0
 12 34  1  0
 13 35  1  0
 13 36  1  0
 15 37  1  1
 16 38  1  0
 16 39  1  0
 17 40  1  0
 17 41  1  0
 19 42  1  0
 20 43  1  0
 21 44  1  0
 22 45  1  0
 23 46  1  0
 24 47  1  0
 24 48  1  0
 25 49  1  0
M  END
>  <UniqueID>  (29) 
28

>  <SMILES>  (29) 
NS(=O)(=O)c1cccc(CN2CCO[C@H](CCc3ccccc3)C2)c1

>  <Energy>  (29) 
57.18366658303461

>  <Genealogy>  (29) 
NS(=O)(=O)c1cccc(CN2CCO[C@H](CCc3ccccc3)C2)c1 (chirality)
NS(=O)(=O)c1cccc(CN2CCO[C@H](CCc3ccccc3)C2)c1 (3D coordinates assigned)
NS(=O)(=O)c1cccc(CN2CCO[C@H](CCc3ccccc3)C2)c1 (nonaromatic ring conformer: 57.18366658303461 kcal/mol)

>  <smiles>  (29) 
NS(=O)(=O)c1cccc(CN2CCOC(CCc3ccccc3)C2)c1

>  <score_type>  (29) 
oracle

>  <origin>  (29) 
adg

>  <m_score__min__energy>  (29) 
-9.3399999999999999

>  <m_primary>  (29) 
energy

$$$$
29:0
     RDKit          3D

 65 68  0  0  0  0  0  0  0  0999 V2000
   55.1540   29.3440   44.8480 N   0  0  0  0  0  0  0  0  0  0  0  0
   56.3620   29.7700   44.2190 C   0  0  0  0  0  0  0  0  0  0  0  0
   56.4650   29.6680   42.9680 O   0  0  0  0  0  0  0  0  0  0  0  0
   57.4590   30.3680   45.0240 C   0  0  0  0  0  0  0  0  0  0  0  0
   57.5900   31.7660   45.0730 C   0  0  0  0  0  0  0  0  0  0  0  0
   58.6340   32.3640   45.7800 C   0  0  0  0  0  0  0  0  0  0  0  0
   59.5800   31.5780   46.4540 C   0  0  0  0  0  0  0  0  0  0  0  0
   60.6580   32.1940   47.1890 N   0  0  0  0  0  0  0  0  0  0  0  0
   60.3580   33.1280   48.2850 C   0  0  0  0  0  0  0  0  0  0  0  0
   61.4510   34.1920   48.3930 C   0  0  0  0  0  0  0  0  0  0  0  0
   62.7670   33.5390   48.4080 N   0  0  0  0  0  0  0  0  0  0  0  0
   63.6040   33.5670   49.5860 C   0  0  0  0  0  0  0  0  0  0  0  0
   63.1640   34.0520   50.6670 O   0  0  0  0  0  0  0  0  0  0  0  0
   64.9850   33.0700   49.5650 C   0  0  0  0  0  0  0  0  0  0  0  0
   65.5780   32.6530   50.6910 C   0  0  0  0  0  0  0  0  0  0  0  0
   65.7860   31.2220   51.0080 C   0  0  0  0  0  0  0  0  0  0  0  0
   64.7090   30.4700   51.5100 C   0  0  0  0  0  0  0  0  0  0  0  0
   64.8830   29.1230   51.8460 C   0  0  0  0  0  0  0  0  0  0  0  0
   66.1350   28.5190   51.7020 C   0  0  0  0  0  0  0  0  0  0  0  0
   67.2180   29.2620   51.2220 C   0  0  0  0  0  0  0  0  0  0  0  0
   67.0490   30.6070   50.8790 C   0  0  0  0  0  0  0  0  0  0  0  0
   63.0710   32.6910   47.2470 C   0  0  0  0  0  0  0  0  0  0  0  0
   62.0040   31.6000   47.1300 C   0  0  0  0  0  0  0  0  0  0  0  0
   59.4610   30.1810   46.4130 C   0  0  0  0  0  0  0  0  0  0  0  0
   58.4060   29.5710   45.7160 C   0  0  0  0  0  0  0  0  0  0  0  0
   58.2520   28.1480   45.7960 N   0  0  0  0  0  0  0  0  0  0  0  0
   58.3140   27.4380   47.0390 C   0  0  0  0  0  0  0  0  0  0  0  0
   58.5890   28.0560   48.1020 O   0  0  0  0  0  0  0  0  0  0  0  0
   58.1680   25.9390   47.0420 C   0  0  0  0  0  0  0  0  0  0  0  0
   58.4070   25.2900   45.6680 C   0  0  0  0  0  0  0  0  0  0  0  0
   57.1410   24.7100   45.0910 C   0  0  0  0  0  0  0  0  0  0  0  0
   57.1740   23.9530   43.9060 C   0  0  0  0  0  0  0  0  0  0  0  0
   55.9970   23.4040   43.3870 C   0  0  0  0  0  0  0  0  0  0  0  0
   54.7800   23.6020   44.0470 C   0  0  0  0  0  0  0  0  0  0  0  0
   54.7380   24.3480   45.2280 C   0  0  0  0  0  0  0  0  0  0  0  0
   55.9120   24.8970   45.7520 C   0  0  0  0  0  0  0  0  0  0  0  0
   55.1680   28.6490   45.6270 H   0  0  0  0  0  0  0  0  0  0  0  0
   56.8595   32.3980   44.5467 H   0  0  0  0  0  0  0  0  0  0  0  0
   58.7156   33.4606   45.8089 H   0  0  0  0  0  0  0  0  0  0  0  0
   59.3930   33.6183   48.0894 H   0  0  0  0  0  0  0  0  0  0  0  0
   60.3121   32.5665   49.2298 H   0  0  0  0  0  0  0  0  0  0  0  0
   61.3882   34.8717   47.5304 H   0  0  0  0  0  0  0  0  0  0  0  0
   61.3148   34.7662   49.3213 H   0  0  0  0  0  0  0  0  0  0  0  0
   65.5384   33.0398   48.6148 H   0  0  0  0  0  0  0  0  0  0  0  0
   65.9259   33.4072   51.4123 H   0  0  0  0  0  0  0  0  0  0  0  0
   63.7245   30.9433   51.6392 H   0  0  0  0  0  0  0  0  0  0  0  0
   64.0320   28.5378   52.2246 H   0  0  0  0  0  0  0  0  0  0  0  0
   66.2685   27.4596   51.9661 H   0  0  0  0  0  0  0  0  0  0  0  0
   68.2046   28.7876   51.1141 H   0  0  0  0  0  0  0  0  0  0  0  0
   67.9053   31.1885   50.5067 H   0  0  0  0  0  0  0  0  0  0  0  0
   63.0726   33.3040   46.3336 H   0  0  0  0  0  0  0  0  0  0  0  0
   64.0609   32.2287   47.3750 H   0  0  0  0  0  0  0  0  0  0  0  0
   62.1267   31.0735   46.1720 H   0  0  0  0  0  0  0  0  0  0  0  0
   62.1207   30.8939   47.9654 H   0  0  0  0  0  0  0  0  0  0  0  0
   60.2025   29.5565   46.9327 H   0  0  0  0  0  0  0  0  0  0  0  0
   58.1960   27.6080   44.8990 H   0  0  0  0  0  0  0  0  0  0  0  0
   58.8947   25.5210   47.7542 H   0  0  0  0  0  0  0  0  0  0  0  0
   57.1279   25.7186   47.3242 H   0  0  0  0  0  0  0  0  0  0  0  0
   58.7954   26.0530   44.9773 H   0  0  0  0  0  0  0  0  0  0  0  0
   59.1279   24.4697   45.7999 H   0  0  0  0  0  0  0  0  0  0  0  0
   58.1295   23.7921   43.3853 H   0  0  0  0  0  0  0  0  0  0  0  0
   56.0286   22.8155   42.4582 H   0  0  0  0  0  0  0  0  0  0  0  0
   53.8553   23.1703   43.6363 H   0  0  0  0  0  0  0  0  0  0  0  0
   53.7800   24.5034   45.7459 H   0  0  0  0  0  0  0  0  0  0  0  0
   55.8754   25.4780   46.6854 H   0  0  0  0  0  0  0  0  0  0  0  0
  1  2  1  0
  2  3  2  0
  2  4  1  0
  4  5  2  0
  5  6  1  0
  6  7  2  0
  7  8  1  0
  8  9  1  0
  9 10  1  0
 10 11  1  0
 11 12  1  0
 12 13  2  0
 12 14  1  0
 14 15  2  3
 15 16  1  0
 16 17  2  0
 17 18  1  0
 18 19  2  0
 19 20  1  0
 20 21  2  0
 11 22  1  0
 22 23  1  0
  7 24  1  0
 24 25  2  0
 25 26  1  0
 26 27  1  0
 27 28  2  0
 27 29  1  0
 29 30  1  0
 30 31  1  0
 31 32  2  0
 32 33  1  0
 33 34  2  0
 34 35  1  0
 35 36  2  0
 25  4  1  0
 36 31  1  0
 23  8  1  0
 21 16  1  0
  1 37  1  0
  5 38  1  0
  6 39  1  0
  9 40  1  0
  9 41  1  0
 10 42  1  0
 10 43  1  0
 14 44  1  0
 15 45  1  0
 17 46  1  0
 18 47  1  0
 19 48  1  0
 20 49  1  0
 21 50  1  0
 22 51  1  0
 22 52  1  0
 23 53  1  0
 23 54  1  0
 24 55  1  0
 26 56  1  0
 29 57  1  0
 29 58  1  0
 30 59  1  0
 30 60  1  0
 32 61  1  0
 33 62  1  0
 34 63  1  0
 35 64  1  0
 36 65  1  0
M  CHG  1   1  -1
M  END
>  <UniqueID>  (30) 
29

>  <SMILES>  (30) 
[NH-]C(=O)c1ccc(N2CCN(C(=O)C=Cc3ccccc3)CC2)cc1NC(=O)CCc1ccccc1

>  <Energy>  (30) 
88.17210766821297

>  <Genealogy>  (30) 
[NH-]C(=O)c1ccc(N2CCN(C(=O)C=Cc3ccccc3)CC2)cc1NC(=O)CCc1ccccc1 (protonated)
[NH-]C(=O)c1ccc(N2CCN(C(=O)C=Cc3ccccc3)CC2)cc1NC(=O)CCc1ccccc1 (3D coordinates assigned)
[NH-]C(=O)c1ccc(N2CCN(C(=O)C=Cc3ccccc3)CC2)cc1NC(=O)CCc1ccccc1 (nonaromatic ring conformer: 88.17210766821297 kcal/mol)

>  <smiles>  (30) 
NC(=O)c1ccc(N2CCN(C(=O)C=Cc3ccccc3)CC2)cc1NC(=O)CCc1ccccc1

>  <score_type>  (30) 
oracle

>  <origin>  (30) 
adg

>  <m_score__min__energy>  (30) 
-12.699999999999999

>  <m_primary>  (30) 
energy

$$$$
30:0
     RDKit          3D

 65 69  0  0  0  0  0  0  0  0999 V2000
   59.0524   23.3763   45.0175 H   0  0  0  0  0  0  0  0  0  0  0  0
   58.2280   24.0800   45.2050 C   0  0  0  0  0  0  0  0  0  0  0  0
   58.4420   25.4190   45.1090 N   0  0  0  0  0  0  0  0  0  0  0  0
   57.4580   26.3360   45.3230 C   0  0  0  0  0  0  0  0  0  0  0  0
   57.7600   27.5960   45.1800 N   0  0  0  0  0  0  0  0  0  0  0  0
   59.0150   28.2290   45.4510 C   0  0  0  0  0  0  0  0  0  0  0  0
   59.7120   28.6570   44.4930 O   0  0  0  0  0  0  0  0  0  0  0  0
   59.4110   28.4860   46.8480 C   0  0  0  0  0  0  0  0  0  0  0  0
   59.8320   29.6650   47.2590 O   0  0  0  0  0  0  0  0  0  0  0  0
   60.2350   29.5570   48.5030 C   0  0  0  0  0  0  0  0  0  0  0  0
   60.8070   30.5510   49.3260 C   0  0  0  0  0  0  0  0  0  0  0  0
   60.9340   31.9390   48.9180 N   0  0  0  0  0  0  0  0  0  0  0  0
   60.0000   32.9510   49.4380 C   0  0  0  0  0  0  0  0  0  0  0  0
   59.0628   32.4577   49.7353 H   0  0  0  0  0  0  0  0  0  0  0  0
   60.4635   33.4466   50.3038 H   0  0  0  0  0  0  0  0  0  0  0  0
   59.6920   34.0180   48.3630 C   0  0  0  0  0  0  0  0  0  0  0  0
   58.7343   34.5019   48.6051 H   0  0  0  0  0  0  0  0  0  0  0  0
   60.5135   34.7495   48.3605 H   0  0  0  0  0  0  0  0  0  0  0  0
   59.6000   33.4200   47.0060 N   0  0  0  0  0  0  0  0  0  0  0  0
   59.4700   34.2230   46.3470 H   0  0  0  0  0  0  0  0  0  0  0  0
   58.3940   32.5560   46.9150 C   0  0  0  0  0  0  0  0  0  0  0  0
   58.5513   31.6680   47.5449 H   0  0  0  0  0  0  0  0  0  0  0  0
   57.5356   33.1546   47.2537 H   0  0  0  0  0  0  0  0  0  0  0  0
   58.0970   32.1000   45.5080 C   0  0  0  0  0  0  0  0  0  0  0  0
   58.2930   32.7740   44.3060 C   0  0  0  0  0  0  0  0  0  0  0  0
   58.9130   34.1310   44.1370 C   0  0  0  0  0  0  0  0  0  0  0  0
   59.1129   34.5686   45.1262 H   0  0  0  0  0  0  0  0  0  0  0  0
   59.8571   34.0361   43.5805 H   0  0  0  0  0  0  0  0  0  0  0  0
   58.2232   34.7825   43.5805 H   0  0  0  0  0  0  0  0  0  0  0  0
   57.8280   32.0020   43.2910 N   0  0  0  0  0  0  0  0  0  0  0  0
   57.8360   32.3480   41.8680 C   0  0  0  0  0  0  0  0  0  0  0  0
   57.8613   33.4421   41.7568 H   0  0  0  0  0  0  0  0  0  0  0  0
   58.7243   31.9101   41.3892 H   0  0  0  0  0  0  0  0  0  0  0  0
   56.9285   31.9517   41.3892 H   0  0  0  0  0  0  0  0  0  0  0  0
   57.2800   30.9060   43.8040 N   0  0  0  0  0  0  0  0  0  0  0  0
   56.6420   29.8360   43.0370 C   0  0  0  0  0  0  0  0  0  0  0  0
   56.2036   29.1008   43.7279 H   0  0  0  0  0  0  0  0  0  0  0  0
   55.8499   30.2613   42.4032 H   0  0  0  0  0  0  0  0  0  0  0  0
   57.3927   29.3414   42.4032 H   0  0  0  0  0  0  0  0  0  0  0  0
   57.4370   30.9440   45.1420 C   0  0  0  0  0  0  0  0  0  0  0  0
   57.0210   30.0550   45.9330 O   0  0  0  0  0  0  0  0  0  0  0  0
   60.8560   32.7090   46.6040 C   0  0  0  0  0  0  0  0  0  0  0  0
   60.5800   31.7734   46.0957 H   0  0  0  0  0  0  0  0  0  0  0  0
   61.4183   33.3881   45.9462 H   0  0  0  0  0  0  0  0  0  0  0  0
   61.7700   32.3670   47.7940 C   0  0  0  0  0  0  0  0  0  0  0  0
   62.4565   31.5549   47.5125 H   0  0  0  0  0  0  0  0  0  0  0  0
   62.3605   33.2499   48.0799 H   0  0  0  0  0  0  0  0  0  0  0  0
   61.2230   30.1380   50.6160 C   0  0  0  0  0  0  0  0  0  0  0  0
   61.6957   30.8673   51.2903 H   0  0  0  0  0  0  0  0  0  0  0  0
   61.0420   28.8090   51.0510 C   0  0  0  0  0  0  0  0  0  0  0  0
   61.3701   28.5165   52.0593 H   0  0  0  0  0  0  0  0  0  0  0  0
   60.4480   27.8570   50.2110 C   0  0  0  0  0  0  0  0  0  0  0  0
   60.2984   26.8198   50.5454 H   0  0  0  0  0  0  0  0  0  0  0  0
   60.0530   28.2660   48.9390 C   0  0  0  0  0  0  0  0  0  0  0  0
   59.4930   27.5600   47.8900 C   0  0  0  0  0  0  0  0  0  0  0  0
   59.1900   26.0940   47.8370 C   0  0  0  0  0  0  0  0  0  0  0  0
   59.1084   25.6992   48.8605 H   0  0  0  0  0  0  0  0  0  0  0  0
   58.2400   25.9349   47.3058 H   0  0  0  0  0  0  0  0  0  0  0  0
   59.9991   25.5713   47.3058 H   0  0  0  0  0  0  0  0  0  0  0  0
   56.1690   25.8790   45.6950 C   0  0  0  0  0  0  0  0  0  0  0  0
   55.1350   26.7560   46.0000 O   0  0  0  0  0  0  0  0  0  0  0  0
   55.9370   24.5040   45.7920 C   0  0  0  0  0  0  0  0  0  0  0  0
   54.9380   24.1355   46.0680 H   0  0  0  0  0  0  0  0  0  0  0  0
   56.9640   23.5990   45.5410 C   0  0  0  0  0  0  0  0  0  0  0  0
   56.7801   22.5165   45.6071 H   0  0  0  0  0  0  0  0  0  0  0  0
  1  2  1  0
  2  3  1  0
  3  4  1  0
  4  5  2  0
  5  6  1  0
  6  7  2  0
  6  8  1  0
  8  9  1  0
  9 10  1  0
 10 11  2  0
 11 12  1  0
 12 13  1  0
 13 14  1  0
 13 15  1  0
 13 16  1  0
 16 17  1  0
 16 18  1  0
 16 19  1  0
 19 20  1  0
 19 21  1  0
 21 22  1  0
 21 23  1  0
 21 24  1  0
 24 25  2  0
 25 26  1  0
 26 27  1  0
 26 28  1  0
 26 29  1  0
 25 30  1  0
 30 31  1  0
 31 32  1  0
 31 33  1  0
 31 34  1  0
 30 35  1  0
 35 36  1  0
 36 37  1  0
 36 38  1  0
 36 39  1  0
 35 40  1  0
 40 41  2  0
 19 42  1  0
 42 43  1  0
 42 44  1  0
 42 45  1  0
 45 46  1  0
 45 47  1  0
 11 48  1  0
 48 49  1  0
 48 50  2  0
 50 51  1  0
 50 52  1  0
 52 53  1  0
 52 54  2  0
 54 55  1  0
 55 56  1  0
 56 57  1  0
 56 58  1  0
 56 59  1  0
  4 60  1  0
 60 61  1  0
 60 62  2  0
 62 63  1  0
 62 64  1  0
 64 65  1  0
 64  2  2  0
 55  8  2  0
 54 10  1  0
 45 12  1  0
 40 24  1  0
M  CHG  3   3  -1  19   1  61  -1
M  END
>  <UniqueID>  (31) 
30

>  <SMILES>  (31) 
Cc1c(C(=O)/N=c2/[n-]cccc2[O-])oc2c(N3CC[NH+](Cc4c(C)n(C)n(C)c4=O)CC3)cccc12

>  <Energy>  (31) 
160.77411649761243

>  <Genealogy>  (31) 
Cc1c(C(=O)N=c2[n-]cccc2[O-])oc2c(N3CC[NH+](Cc4c(C)n(C)n(C)c4=O)CC3)cccc12 (protonated)
Cc1c(C(=O)/N=c2/[n-]cccc2[O-])oc2c(N3CC[NH+](Cc4c(C)n(C)n(C)c4=O)CC3)cccc12 (cis-trans isomerization)
Cc1c(C(=O)/N=c2/[n-]cccc2[O-])oc2c(N3CC[NH+](Cc4c(C)n(C)n(C)c4=O)CC3)cccc12 (3D coordinates assigned)
Cc1c(C(=O)/N=c2/[n-]cccc2[O-])oc2c(N3CC[NH+](Cc4c(C)n(C)n(C)c4=O)CC3)cccc12 (nonaromatic ring conformer: 160.77411649761243 kcal/mol)

>  <smiles>  (31) 
Cc1c(C(=O)N=c2[nH]cccc2O)oc2c(N3CCN(Cc4c(C)n(C)n(C)c4=O)CC3)cccc12

>  <score_type>  (31) 
oracle

>  <origin>  (31) 
adg

>  <m_score__min__energy>  (31) 
-14.4

>  <m_primary>  (31) 
energy

$$$$
31:0
     RDKit          3D

 60 64  0  0  0  0  0  0  0  0999 V2000
   59.7790   27.9670   47.1730 O   0  0  0  0  0  0  0  0  0  0  0  0
   58.6270   28.0590   46.6620 C   0  0  0  0  0  0  0  0  0  0  0  0
   57.9580   29.3230   46.6400 N   0  0  0  0  0  0  0  0  0  0  0  0
   57.6500   30.1910   45.1720 S   0  0  0  0  0  0  0  0  0  0  0  0
   58.3950   29.5270   44.0500 O   0  0  0  0  0  0  0  0  0  0  0  0
   56.1760   30.1160   44.8900 O   0  0  0  0  0  0  0  0  0  0  0  0
   58.2200   31.8650   45.3500 C   0  0  0  0  0  0  0  0  0  0  0  0
   57.4280   32.8740   44.7720 C   0  0  0  0  0  0  0  0  0  0  0  0
   57.7720   34.2190   44.8970 C   0  0  0  0  0  0  0  0  0  0  0  0
   58.9050   34.5840   45.6150 C   0  0  0  0  0  0  0  0  0  0  0  0
   59.6970   33.6060   46.2140 C   0  0  0  0  0  0  0  0  0  0  0  0
   59.3860   32.2350   46.0810 C   0  0  0  0  0  0  0  0  0  0  0  0
   60.3000   31.2400   46.7720 C   0  0  0  0  0  0  0  0  0  0  0  0
   61.4490   31.9410   47.4540 C   0  0  0  0  0  0  0  0  0  0  0  0
   62.7020   31.8520   46.9190 N   0  0  0  0  0  0  0  0  0  0  0  0
   63.7730   32.3870   47.5210 N   0  0  0  0  0  0  0  0  0  0  0  0
   63.6640   33.0290   48.7170 C   0  0  0  0  0  0  0  0  0  0  0  0
   64.6850   33.5100   49.2800 O   0  0  0  0  0  0  0  0  0  0  0  0
   62.4020   33.1430   49.3000 C   0  0  0  0  0  0  0  0  0  0  0  0
   61.3050   32.6150   48.6760 C   0  0  0  0  0  0  0  0  0  0  0  0
   60.0620   32.8670   49.4450 C   0  0  0  0  0  0  0  0  0  0  0  0
   60.5510   33.5320   50.7450 C   0  0  0  0  0  0  0  0  0  0  0  0
   62.0590   33.7990   50.5860 C   0  0  0  0  0  0  0  0  0  0  0  0
   57.9800   26.8610   46.0880 C   0  0  0  0  0  0  0  0  0  0  0  0
   58.0740   26.5890   44.7130 C   0  0  0  0  0  0  0  0  0  0  0  0
   57.4900   25.4360   44.1780 C   0  0  0  0  0  0  0  0  0  0  0  0
   56.7830   24.5470   45.0030 C   0  0  0  0  0  0  0  0  0  0  0  0
   56.2010   23.3530   44.4500 N   0  0  0  0  0  0  0  0  0  0  0  0
   56.0830   23.1740   43.0020 C   0  0  0  0  0  0  0  0  0  0  0  0
   56.7100   21.8280   42.6230 C   0  0  0  0  0  0  0  0  0  0  0  0
   56.1270   20.7740   43.3700 O   0  0  0  0  0  0  0  0  0  0  0  0
   56.4120   20.9360   44.7490 C   0  0  0  0  0  0  0  0  0  0  0  0
   55.7910   22.2290   45.2960 C   0  0  0  0  0  0  0  0  0  0  0  0
   56.6850   24.8220   46.3750 C   0  0  0  0  0  0  0  0  0  0  0  0
   57.2810   25.9650   46.9130 C   0  0  0  0  0  0  0  0  0  0  0  0
   56.5225   32.5969   44.2123 H   0  0  0  0  0  0  0  0  0  0  0  0
   57.1464   34.9922   44.4271 H   0  0  0  0  0  0  0  0  0  0  0  0
   59.1767   35.6456   45.7105 H   0  0  0  0  0  0  0  0  0  0  0  0
   60.5782   33.9068   46.7996 H   0  0  0  0  0  0  0  0  0  0  0  0
   59.7217   30.6830   47.5239 H   0  0  0  0  0  0  0  0  0  0  0  0
   60.7085   30.5557   46.0138 H   0  0  0  0  0  0  0  0  0  0  0  0
   64.7100   32.2910   47.0680 H   0  0  0  0  0  0  0  0  0  0  0  0
   59.3902   33.5395   48.8914 H   0  0  0  0  0  0  0  0  0  0  0  0
   59.4882   31.9473   49.6319 H   0  0  0  0  0  0  0  0  0  0  0  0
   60.0163   34.4796   50.9069 H   0  0  0  0  0  0  0  0  0  0  0  0
   60.3609   32.8800   51.6103 H   0  0  0  0  0  0  0  0  0  0  0  0
   62.2630   34.8790   50.5414 H   0  0  0  0  0  0  0  0  0  0  0  0
   62.6500   33.4143   51.4302 H   0  0  0  0  0  0  0  0  0  0  0  0
   58.6101   27.2869   44.0531 H   0  0  0  0  0  0  0  0  0  0  0  0
   57.5855   25.2243   43.1028 H   0  0  0  0  0  0  0  0  0  0  0  0
   55.0217   23.1830   42.7128 H   0  0  0  0  0  0  0  0  0  0  0  0
   56.6018   23.9908   42.4789 H   0  0  0  0  0  0  0  0  0  0  0  0
   56.5473   21.6433   41.5509 H   0  0  0  0  0  0  0  0  0  0  0  0
   57.7866   21.8649   42.8457 H   0  0  0  0  0  0  0  0  0  0  0  0
   56.0022   20.0787   45.3032 H   0  0  0  0  0  0  0  0  0  0  0  0
   57.5033   20.9933   44.8748 H   0  0  0  0  0  0  0  0  0  0  0  0
   54.6944   22.1430   45.2883 H   0  0  0  0  0  0  0  0  0  0  0  0
   56.1338   22.3972   46.3276 H   0  0  0  0  0  0  0  0  0  0  0  0
   56.1347   24.1325   47.0321 H   0  0  0  0  0  0  0  0  0  0  0  0
   57.2022   26.1649   47.9918 H   0  0  0  0  0  0  0  0  0  0  0  0
  1  2  2  0
  2  3  1  0
  3  4  1  0
  4  5  2  0
  4  6  2  0
  4  7  1  0
  7  8  2  0
  8  9  1  0
  9 10  2  0
 10 11  1  0
 11 12  2  0
 12 13  1  0
 13 14  1  0
 14 15  2  0
 15 16  1  0
 16 17  1  0
 17 18  2  0
 17 19  1  0
 19 20  2  0
 20 21  1  0
 21 22  1  0
 22 23  1  0
  2 24  1  0
 24 25  2  0
 25 26  1  0
 26 27  2  0
 27 28  1  0
 28 29  1  0
 29 30  1  0
 30 31  1  0
 31 32  1  0
 32 33  1  0
 27 34  1  0
 34 35  2  0
 12  7  1  0
 20 14  1  0
 35 24  1  0
 23 19  1  0
 33 28  1  0
  8 36  1  0
  9 37  1  0
 10 38  1  0
 11 39  1  0
 13 40  1  0
 13 41  1  0
 16 42  1  0
 21 43  1  0
 21 44  1  0
 22 45  1  0
 22 46  1  0
 23 47  1  0
 23 48  1  0
 25 49  1  0
 26 50  1  0
 29 51  1  0
 29 52  1  0
 30 53  1  0
 30 54  1  0
 32 55  1  0
 32 56  1  0
 33 57  1  0
 33 58  1  0
 34 59  1  0
 35 60  1  0
M  CHG  1   3  -1
M  END
>  <UniqueID>  (32) 
31

>  <SMILES>  (32) 
O=C([N-]S(=O)(=O)c1ccccc1Cc1n[nH]c(=O)c2c1CCC2)c1ccc(N2CCOCC2)cc1

>  <Energy>  (32) 
87.40278284903331

>  <Genealogy>  (32) 
O=C([N-]S(=O)(=O)c1ccccc1Cc1n[nH]c(=O)c2c1CCC2)c1ccc(N2CCOCC2)cc1 (protonated)
O=C([N-]S(=O)(=O)c1ccccc1Cc1n[nH]c(=O)c2c1CCC2)c1ccc(N2CCOCC2)cc1 (3D coordinates assigned)
O=C([N-]S(=O)(=O)c1ccccc1Cc1n[nH]c(=O)c2c1CCC2)c1ccc(N2CCOCC2)cc1 (nonaromatic ring conformer: 87.40278284903331 kcal/mol)

>  <smiles>  (32) 
O=C(NS(=O)(=O)c1ccccc1Cc1n[nH]c(=O)c2c1CCC2)c1ccc(N2CCOCC2)cc1

>  <score_type>  (32) 
oracle

>  <origin>  (32) 
adg

>  <m_score__min__energy>  (32) 
-12.23

>  <m_primary>  (32) 
energy

$$$$
32:0
     RDKit          3D

 31 32  0  0  0  0  0  0  0  0999 V2000
   58.6413   32.1328   43.2533 H   0  0  0  0  0  0  0  0  0  0  0  0
   57.8600   31.7100   43.9020 C   0  0  0  0  0  0  0  0  0  0  0  0
   57.3720   30.3440   43.6200 C   0  0  0  0  0  0  0  0  0  0  0  0
   56.7810   30.1340   42.5260 O   0  0  0  0  0  0  0  0  0  0  0  0
   57.5480   29.2150   44.5650 C   0  0  0  0  0  0  0  0  0  0  0  0
   56.4410   28.5800   45.1570 C   0  0  0  0  0  0  0  0  0  0  0  0
   55.1470   29.0040   44.8760 O   0  0  0  0  0  0  0  0  0  0  0  0
   56.6330   27.5510   46.0270 N   0  0  0  0  0  0  0  0  0  0  0  0
   55.8020   27.0830   46.4570 H   0  0  0  0  0  0  0  0  0  0  0  0
   57.8850   27.1340   46.3530 C   0  0  0  0  0  0  0  0  0  0  0  0
   58.0460   26.1830   47.1610 O   0  0  0  0  0  0  0  0  0  0  0  0
   58.9680   27.7460   45.8090 N   0  0  0  0  0  0  0  0  0  0  0  0
   58.8300   28.7730   44.9320 C   0  0  0  0  0  0  0  0  0  0  0  0
   59.8610   29.3110   44.4460 O   0  0  0  0  0  0  0  0  0  0  0  0
   57.3940   32.4570   44.9120 C   0  0  0  0  0  0  0  0  0  0  0  0
   56.3055   32.5372   45.0493 H   0  0  0  0  0  0  0  0  0  0  0  0
   58.2820   33.1790   45.8510 C   0  0  0  0  0  0  0  0  0  0  0  0
   58.7450   34.4500   45.4750 C   0  0  0  0  0  0  0  0  0  0  0  0
   58.4477   34.8733   44.5042 H   0  0  0  0  0  0  0  0  0  0  0  0
   59.5790   35.1810   46.3220 C   0  0  0  0  0  0  0  0  0  0  0  0
   59.9267   36.1807   46.0224 H   0  0  0  0  0  0  0  0  0  0  0  0
   59.9720   34.6450   47.5480 C   0  0  0  0  0  0  0  0  0  0  0  0
   60.6210   35.2273   48.2186 H   0  0  0  0  0  0  0  0  0  0  0  0
   59.5440   33.3720   47.9260 C   0  0  0  0  0  0  0  0  0  0  0  0
   59.8607   32.9541   48.8930 H   0  0  0  0  0  0  0  0  0  0  0  0
   58.7080   32.6170   47.0770 C   0  0  0  0  0  0  0  0  0  0  0  0
   58.3140   31.3090   47.4100 O   0  0  0  0  0  0  0  0  0  0  0  0
   59.1870   30.3040   47.9140 C   0  0  0  0  0  0  0  0  0  0  0  0
   59.1711   30.3223   49.0137 H   0  0  0  0  0  0  0  0  0  0  0  0
   58.8542   29.3175   47.5589 H   0  0  0  0  0  0  0  0  0  0  0  0
   60.2103   30.4955   47.5589 H   0  0  0  0  0  0  0  0  0  0  0  0
  1  2  1  0
  2  3  1  0
  3  4  2  0
  3  5  1  0
  5  6  2  0
  6  7  1  0
  6  8  1  0
  8  9  1  0
  8 10  1  0
 10 11  2  0
 10 12  1  0
 12 13  1  0
 13 14  2  0
  2 15  2  0
 15 16  1  0
 15 17  1  0
 17 18  2  0
 18 19  1  0
 18 20  1  0
 20 21  1  0
 20 22  2  0
 22 23  1  0
 22 24  1  0
 24 25  1  0
 24 26  2  0
 26 27  1  0
 27 28  1  0
 28 29  1  0
 28 30  1  0
 28 31  1  0
 13  5  1  0
 26 17  1  0
M  CHG  2   7  -1  12  -1
M  END
>  <UniqueID>  (33) 
32

>  <SMILES>  (33) 
COc1ccccc1/C=C/C(=O)c1c([O-])[nH]c(=O)[n-]c1=O

>  <Energy>  (33) 
43.7791529351594

>  <Genealogy>  (33) 
COc1ccccc1C=CC(=O)c1c([O-])[nH]c(=O)[n-]c1=O (protonated)
COc1ccccc1/C=C/C(=O)c1c([O-])[nH]c(=O)[n-]c1=O (cis-trans isomerization)
COc1ccccc1/C=C/C(=O)c1c([O-])[nH]c(=O)[n-]c1=O (3D coordinates assigned)
COc1ccccc1/C=C/C(=O)c1c([O-])[nH]c(=O)[n-]c1=O (optimized conformer: 43.7791529351594 kcal/mol)

>  <smiles>  (33) 
COc1ccccc1C=CC(=O)c1c(O)[nH]c(=O)[nH]c1=O

>  <score_type>  (33) 
oracle

>  <origin>  (33) 
adg

>  <m_score__min__energy>  (33) 
-13.19

>  <m_primary>  (33) 
energy

$$$$
33:0
     RDKit          3D

 55 59  0  0  0  0  0  0  0  0999 V2000
   57.0455   20.8778   42.8691 H   0  0  0  0  0  0  0  0  0  0  0  0
   57.2430   21.8290   43.3850 C   0  0  0  0  0  0  0  0  0  0  0  0
   56.5000   22.9660   43.0610 C   0  0  0  0  0  0  0  0  0  0  0  0
   55.7184   22.9091   42.2891 H   0  0  0  0  0  0  0  0  0  0  0  0
   56.7470   24.1760   43.7150 C   0  0  0  0  0  0  0  0  0  0  0  0
   56.1590   25.0682   43.4536 H   0  0  0  0  0  0  0  0  0  0  0  0
   57.7430   24.2610   44.7060 C   0  0  0  0  0  0  0  0  0  0  0  0
   58.0040   25.5110   45.3780 N   0  0  0  0  0  0  0  0  0  0  0  0
   56.9070   26.4590   45.6280 C   0  0  0  0  0  0  0  0  0  0  0  0
   56.5031   26.2844   46.6361 H   0  0  0  0  0  0  0  0  0  0  0  0
   56.1270   26.3015   44.8685 H   0  0  0  0  0  0  0  0  0  0  0  0
   57.4020   27.9100   45.5290 C   0  0  0  0  0  0  0  0  0  0  0  0
   56.6721   28.5665   46.0252 H   0  0  0  0  0  0  0  0  0  0  0  0
   57.5065   28.1558   44.4619 H   0  0  0  0  0  0  0  0  0  0  0  0
   58.7180   28.1010   46.1640 N   0  0  0  0  0  0  0  0  0  0  0  0
   59.4860   29.3040   45.9170 C   0  0  0  0  0  0  0  0  0  0  0  0
   60.7150   29.3330   46.1970 O   0  0  0  0  0  0  0  0  0  0  0  0
   58.8910   30.5010   45.2820 C   0  0  0  0  0  0  0  0  0  0  0  0
   58.1270   30.3550   44.1140 C   0  0  0  0  0  0  0  0  0  0  0  0
   57.9693   29.3546   43.6848 H   0  0  0  0  0  0  0  0  0  0  0  0
   57.5660   31.4730   43.4940 C   0  0  0  0  0  0  0  0  0  0  0  0
   56.9685   31.3504   42.5786 H   0  0  0  0  0  0  0  0  0  0  0  0
   57.7610   32.7450   44.0320 C   0  0  0  0  0  0  0  0  0  0  0  0
   57.3109   33.6207   43.5415 H   0  0  0  0  0  0  0  0  0  0  0  0
   58.5290   32.9150   45.1970 C   0  0  0  0  0  0  0  0  0  0  0  0
   58.7240   34.2710   45.7650 C   0  0  0  0  0  0  0  0  0  0  0  0
   58.8990   35.2470   44.9880 O   0  0  0  0  0  0  0  0  0  0  0  0
   58.7880   34.5040   47.1800 N   0  0  0  0  0  0  0  0  0  0  0  0
   59.7970   34.2430   47.9600 C   0  0  0  0  0  0  0  0  0  0  0  0
   59.6590   33.8820   49.2200 O   0  0  0  0  0  0  0  0  0  0  0  0
   60.8210   33.5890   49.7340 N   0  0  0  0  0  0  0  0  0  0  0  0
   60.9710   33.1510   50.6690 H   0  0  0  0  0  0  0  0  0  0  0  0
   61.7400   33.7970   48.7750 C   0  0  0  0  0  0  0  0  0  0  0  0
   61.1470   34.2120   47.6430 C   0  0  0  0  0  0  0  0  0  0  0  0
   61.9110   33.8350   46.4330 C   0  0  0  0  0  0  0  0  0  0  0  0
   61.3669   33.0869   45.8377 H   0  0  0  0  0  0  0  0  0  0  0  0
   62.0879   34.6780   45.7489 H   0  0  0  0  0  0  0  0  0  0  0  0
   63.2140   33.2390   47.0230 C   0  0  0  0  0  0  0  0  0  0  0  0
   63.4103   32.2529   46.5769 H   0  0  0  0  0  0  0  0  0  0  0  0
   64.0702   33.8942   46.8048 H   0  0  0  0  0  0  0  0  0  0  0  0
   63.0170   33.0960   48.5520 C   0  0  0  0  0  0  0  0  0  0  0  0
   62.9469   32.0386   48.8468 H   0  0  0  0  0  0  0  0  0  0  0  0
   63.8507   33.5044   49.1420 H   0  0  0  0  0  0  0  0  0  0  0  0
   59.1160   31.7880   45.8000 C   0  0  0  0  0  0  0  0  0  0  0  0
   59.7569   31.9150   46.6849 H   0  0  0  0  0  0  0  0  0  0  0  0
   59.3130   26.9730   46.8930 C   0  0  0  0  0  0  0  0  0  0  0  0
   58.7182   26.7624   47.7940 H   0  0  0  0  0  0  0  0  0  0  0  0
   60.3423   27.2251   47.1880 H   0  0  0  0  0  0  0  0  0  0  0  0
   59.3250   25.7400   45.9880 C   0  0  0  0  0  0  0  0  0  0  0  0
   59.6010   24.8591   46.5862 H   0  0  0  0  0  0  0  0  0  0  0  0
   60.0551   25.9077   45.1824 H   0  0  0  0  0  0  0  0  0  0  0  0
   58.4870   23.1080   45.0210 C   0  0  0  0  0  0  0  0  0  0  0  0
   59.2716   23.1585   45.7904 H   0  0  0  0  0  0  0  0  0  0  0  0
   58.2370   21.8990   44.3640 C   0  0  0  0  0  0  0  0  0  0  0  0
   58.8229   21.0034   44.6181 H   0  0  0  0  0  0  0  0  0  0  0  0
  1  2  1  0
  2  3  2  0
  3  4  1  0
  3  5  1  0
  5  6  1  0
  5  7  2  0
  7  8  1  0
  8  9  1  0
  9 10  1  0
  9 11  1  0
  9 12  1  0
 12 13  1  0
 12 14  1  0
 12 15  1  0
 15 16  1  0
 16 17  2  0
 16 18  1  0
 18 19  2  0
 19 20  1  0
 19 21  1  0
 21 22  1  0
 21 23  2  0
 23 24  1  0
 23 25  1  0
 25 26  1  0
 26 27  2  0
 26 28  1  0
 28 29  2  0
 29 30  1  0
 30 31  1  0
 31 32  1  0
 31 33  1  0
 33 34  2  0
 34 35  1  0
 35 36  1  0
 35 37  1  0
 35 38  1  0
 38 39  1  0
 38 40  1  0
 38 41  1  0
 41 42  1  0
 41 43  1  0
 25 44  2  0
 44 45  1  0
 15 46  1  0
 46 47  1  0
 46 48  1  0
 46 49  1  0
 49 50  1  0
 49 51  1  0
  7 52  1  0
 52 53  1  0
 52 54  2  0
 54 55  1  0
 54  2  1  0
 49  8  1  0
 44 18  1  0
 34 29  1  0
 41 33  1  0
M  END
>  <UniqueID>  (34) 
33

>  <SMILES>  (34) 
O=C(/N=c1/o[nH]c2c1CCC2)c1cccc(C(=O)N2CCN(c3ccccc3)CC2)c1

>  <Energy>  (34) 
130.99881736836633

>  <Genealogy>  (34) 
O=C(/N=c1/o[nH]c2c1CCC2)c1cccc(C(=O)N2CCN(c3ccccc3)CC2)c1 (cis-trans isomerization)
O=C(/N=c1/o[nH]c2c1CCC2)c1cccc(C(=O)N2CCN(c3ccccc3)CC2)c1 (3D coordinates assigned)
O=C(/N=c1/o[nH]c2c1CCC2)c1cccc(C(=O)N2CCN(c3ccccc3)CC2)c1 (nonaromatic ring conformer: 130.99881736836633 kcal/mol)

>  <smiles>  (34) 
O=C(N=c1o[nH]c2c1CCC2)c1cccc(C(=O)N2CCN(c3ccccc3)CC2)c1

>  <score_type>  (34) 
oracle

>  <origin>  (34) 
adg

>  <m_score__min__energy>  (34) 
-10.48

>  <m_primary>  (34) 
energy

$$$$
34:0
     RDKit          3D

 74 76  0  0  0  0  0  0  0  0999 V2000
   58.1050   27.2500   43.0020 C   0  0  0  0  0  0  0  0  0  0  0  0
   58.2630   28.4830   44.3330 S   0  0  0  0  0  0  0  0  0  0  0  0
   60.0600   28.2480   44.5640 C   0  0  0  0  0  0  0  0  0  0  0  0
   60.4530   28.2610   46.0510 C   0  0  0  0  0  0  0  0  0  0  0  0
   59.2760   28.2130   47.0550 C   0  0  2  0  0  0  0  0  0  0  0  0
   59.3420   29.3150   48.0250 N   0  0  0  0  0  0  0  0  0  0  0  0
   58.7820   30.6050   47.7440 C   0  0  0  0  0  0  0  0  0  0  0  0
   58.0110   30.7520   46.7560 O   0  0  0  0  0  0  0  0  0  0  0  0
   59.0940   31.7790   48.6440 C   0  0  1  0  0  0  0  0  0  0  0  0
   58.1470   32.9780   48.4200 C   0  0  0  0  0  0  0  0  0  0  0  0
   58.5070   33.7420   47.1700 C   0  0  0  0  0  0  0  0  0  0  0  0
   57.7800   33.5520   45.9810 C   0  0  0  0  0  0  0  0  0  0  0  0
   58.1490   34.2310   44.8160 C   0  0  0  0  0  0  0  0  0  0  0  0
   59.2410   35.1040   44.8270 C   0  0  0  0  0  0  0  0  0  0  0  0
   59.9680   35.2980   46.0040 C   0  0  0  0  0  0  0  0  0  0  0  0
   59.6080   34.6170   47.1710 C   0  0  0  0  0  0  0  0  0  0  0  0
   59.0830   31.3760   50.0520 N   0  0  0  0  0  0  0  0  0  0  0  0
   60.1990   30.8290   50.7610 C   0  0  0  0  0  0  0  0  0  0  0  0
   60.2690   30.9810   52.0110 O   0  0  0  0  0  0  0  0  0  0  0  0
   61.2030   30.1470   50.0710 O   0  0  0  0  0  0  0  0  0  0  0  0
   62.5730   30.5320   50.0990 C   0  0  0  0  0  0  0  0  0  0  0  0
   62.7570   31.7340   49.2190 C   0  0  0  0  0  0  0  0  0  0  0  0
   62.6600   33.0320   49.7500 C   0  0  0  0  0  0  0  0  0  0  0  0
   62.7890   34.1450   48.9150 C   0  0  0  0  0  0  0  0  0  0  0  0
   63.0110   33.9720   47.5460 C   0  0  0  0  0  0  0  0  0  0  0  0
   63.1080   32.6850   47.0090 C   0  0  0  0  0  0  0  0  0  0  0  0
   62.9840   31.5680   47.8430 C   0  0  0  0  0  0  0  0  0  0  0  0
   59.1820   26.8720   47.7370 C   0  0  0  0  0  0  0  0  0  0  0  0
   60.1730   26.3960   48.3540 O   0  0  0  0  0  0  0  0  0  0  0  0
   57.9820   26.1040   47.6040 N   0  0  0  0  0  0  0  0  0  0  0  0
   57.4990   25.5750   46.3310 C   0  0  1  0  0  0  0  0  0  0  0  0
   58.2080   24.2440   46.0360 C   0  0  0  0  0  0  0  0  0  0  0  0
   57.5760   23.5220   44.8720 C   0  0  0  0  0  0  0  0  0  0  0  0
   57.4920   22.1190   44.8650 C   0  0  0  0  0  0  0  0  0  0  0  0
   56.8760   21.4560   43.7990 C   0  0  0  0  0  0  0  0  0  0  0  0
   56.3360   22.1880   42.7380 C   0  0  0  0  0  0  0  0  0  0  0  0
   56.4080   23.5840   42.7410 C   0  0  0  0  0  0  0  0  0  0  0  0
   57.0230   24.2510   43.8070 C   0  0  0  0  0  0  0  0  0  0  0  0
   56.0070   25.3890   46.3860 C   0  0  0  0  0  0  0  0  0  0  0  0
   55.1450   26.4550   45.9990 N   0  0  0  0  0  0  0  0  0  0  0  0
   55.5170   24.2880   46.7560 O   0  0  0  0  0  0  0  0  0  0  0  0
   57.9769   26.2500   43.4419 H   0  0  0  0  0  0  0  0  0  0  0  0
   57.2305   27.4918   42.3801 H   0  0  0  0  0  0  0  0  0  0  0  0
   59.0122   27.2635   42.3801 H   0  0  0  0  0  0  0  0  0  0  0  0
   60.3514   27.2813   44.1275 H   0  0  0  0  0  0  0  0  0  0  0  0
   60.5796   29.0801   44.0665 H   0  0  0  0  0  0  0  0  0  0  0  0
   61.0940   27.3871   46.2391 H   0  0  0  0  0  0  0  0  0  0  0  0
   60.9540   29.2254   46.2211 H   0  0  0  0  0  0  0  0  0  0  0  0
   58.3500   28.3485   46.4769 H   0  0  0  0  0  0  0  0  0  0  0  0
   59.8240   29.1820   48.9410 H   0  0  0  0  0  0  0  0  0  0  0  0
   60.1057   32.1157   48.3737 H   0  0  0  0  0  0  0  0  0  0  0  0
   57.1159   32.6064   48.3271 H   0  0  0  0  0  0  0  0  0  0  0  0
   58.2427   33.6581   49.2793 H   0  0  0  0  0  0  0  0  0  0  0  0
   56.9190   32.8675   45.9678 H   0  0  0  0  0  0  0  0  0  0  0  0
   57.5785   34.0780   43.8880 H   0  0  0  0  0  0  0  0  0  0  0  0
   59.5277   35.6380   43.9090 H   0  0  0  0  0  0  0  0  0  0  0  0
   60.8250   35.9876   46.0128 H   0  0  0  0  0  0  0  0  0  0  0  0
   60.1883   34.7663   48.0935 H   0  0  0  0  0  0  0  0  0  0  0  0
   62.8660   30.7804   51.1298 H   0  0  0  0  0  0  0  0  0  0  0  0
   63.2007   29.7045   49.7366 H   0  0  0  0  0  0  0  0  0  0  0  0
   62.4819   33.1720   50.8264 H   0  0  0  0  0  0  0  0  0  0  0  0
   62.7157   35.1587   49.3357 H   0  0  0  0  0  0  0  0  0  0  0  0
   63.1095   34.8497   46.8903 H   0  0  0  0  0  0  0  0  0  0  0  0
   63.2817   32.5503   45.9312 H   0  0  0  0  0  0  0  0  0  0  0  0
   63.0646   30.5561   47.4192 H   0  0  0  0  0  0  0  0  0  0  0  0
   57.7247   26.2846   45.5214 H   0  0  0  0  0  0  0  0  0  0  0  0
   59.2630   24.4467   45.7996 H   0  0  0  0  0  0  0  0  0  0  0  0
   58.1198   23.6035   46.9260 H   0  0  0  0  0  0  0  0  0  0  0  0
   57.9123   21.5406   45.7009 H   0  0  0  0  0  0  0  0  0  0  0  0
   56.8164   20.3576   43.7955 H   0  0  0  0  0  0  0  0  0  0  0  0
   55.8536   21.6648   41.8992 H   0  0  0  0  0  0  0  0  0  0  0  0
   55.9813   24.1585   41.9056 H   0  0  0  0  0  0  0  0  0  0  0  0
   57.0732   25.3498   43.8103 H   0  0  0  0  0  0  0  0  0  0  0  0
   54.4320   26.3210   45.2480 H   0  0  0  0  0  0  0  0  0  0  0  0
  1  2  1  0
  2  3  1  0
  3  4  1  0
  4  5  1  0
  5  6  1  0
  6  7  1  0
  7  8  2  0
  7  9  1  0
  9 10  1  0
 10 11  1  0
 11 12  2  0
 12 13  1  0
 13 14  2  0
 14 15  1  0
 15 16  2  0
  9 17  1  0
 17 18  1  0
 18 19  2  0
 18 20  1  0
 20 21  1  0
 21 22  1  0
 22 23  2  0
 23 24  1  0
 24 25  2  0
 25 26  1  0
 26 27  2  0
  5 28  1  0
 28 29  2  0
 28 30  1  0
 30 31  1  0
 31 32  1  0
 32 33  1  0
 33 34  2  0
 34 35  1  0
 35 36  2  0
 36 37  1  0
 37 38  2  0
 31 39  1  0
 39 40  1  0
 39 41  2  0
 16 11  1  0
 27 22  1  0
 38 33  1  0
  1 42  1  0
  1 43  1  0
  1 44  1  0
  3 45  1  0
  3 46  1  0
  4 47  1  0
  4 48  1  0
  5 49  1  6
  6 50  1  0
  9 51  1  6
 10 52  1  0
 10 53  1  0
 12 54  1  0
 13 55  1  0
 14 56  1  0
 15 57  1  0
 16 58  1  0
 21 59  1  0
 21 60  1  0
 23 61  1  0
 24 62  1  0
 25 63  1  0
 26 64  1  0
 27 65  1  0
 31 66  1  6
 32 67  1  0
 32 68  1  0
 34 69  1  0
 35 70  1  0
 36 71  1  0
 37 72  1  0
 38 73  1  0
 40 74  1  0
M  CHG  3  17  -1  30  -1  40  -1
M  END
>  <UniqueID>  (35) 
34

>  <SMILES>  (35) 
CSCC[C@H](NC(=O)[C@@H](Cc1ccccc1)[N-]C(=O)OCc1ccccc1)C(=O)[N-]C(Cc1ccccc1)C([NH-])=O

>  <Energy>  (35) 
54.97228482089484

>  <Genealogy>  (35) 
CSCCC(NC(=O)C(Cc1ccccc1)[N-]C(=O)OCc1ccccc1)C(=O)[N-]C(Cc1ccccc1)C([NH-])=O (protonated)
CSCC[C@H](NC(=O)[C@@H](Cc1ccccc1)[N-]C(=O)OCc1ccccc1)C(=O)[N-]C(Cc1ccccc1)C([NH-])=O (chirality)
CSCC[C@H](NC(=O)[C@@H](Cc1ccccc1)[N-]C(=O)OCc1ccccc1)C(=O)[N-]C(Cc1ccccc1)C([NH-])=O (3D coordinates assigned)
CSCC[C@H](NC(=O)[C@@H](Cc1ccccc1)[N-]C(=O)OCc1ccccc1)C(=O)[N-]C(Cc1ccccc1)C([NH-])=O (optimized conformer: 54.97228482089484 kcal/mol)

>  <smiles>  (35) 
CSCCC(NC(=O)C(Cc1ccccc1)NC(=O)OCc1ccccc1)C(=O)NC(Cc1ccccc1)C(N)=O

>  <score_type>  (35) 
oracle

>  <origin>  (35) 
adg

>  <m_score__min__energy>  (35) 
-15.720000000000001

>  <m_primary>  (35) 
energy

$$$$
35:0
     RDKit          3D

 53 55  0  0  0  0  0  0  0  0999 V2000
   60.2820   28.4050   49.4360 C   0  0  0  0  0  0  0  0  0  0  0  0
   60.3300   29.3370   50.5110 O   0  0  0  0  0  0  0  0  0  0  0  0
   59.2250   30.0420   51.0120 C   0  0  0  0  0  0  0  0  0  0  0  0
   58.4920   29.5780   52.1210 C   0  0  0  0  0  0  0  0  0  0  0  0
   57.3730   30.2810   52.5740 C   0  0  0  0  0  0  0  0  0  0  0  0
   56.9730   31.4520   51.9300 C   0  0  0  0  0  0  0  0  0  0  0  0
   55.8860   32.1310   52.3710 F   0  0  0  0  0  0  0  0  0  0  0  0
   57.6950   31.9270   50.8330 C   0  0  0  0  0  0  0  0  0  0  0  0
   58.8250   31.2350   50.3700 C   0  0  0  0  0  0  0  0  0  0  0  0
   59.5490   31.7320   49.2280 N   0  0  0  0  0  0  0  0  0  0  0  0
   59.5600   30.9610   47.9790 C   0  0  0  0  0  0  0  0  0  0  0  0
   60.1010   31.8100   46.8160 C   0  0  0  0  0  0  0  0  0  0  0  0
   59.7970   33.2450   46.9940 N   0  0  0  0  0  0  0  0  0  0  0  0
   58.3410   33.5150   47.0100 C   0  0  0  0  0  0  0  0  0  0  0  0
   57.5990   32.5380   46.0900 C   0  0  0  0  0  0  0  0  0  0  0  0
   58.1740   32.5730   44.6600 C   0  0  0  0  0  0  0  0  0  0  0  0
   58.5150   31.2300   44.1970 N   0  0  0  0  0  0  0  0  0  0  0  0
   57.5680   30.1870   43.9240 C   0  0  0  0  0  0  0  0  0  0  0  0
   56.6910   30.3780   43.0410 O   0  0  0  0  0  0  0  0  0  0  0  0
   57.5710   28.9110   44.6690 C   0  0  0  0  0  0  0  0  0  0  0  0
   58.7780   28.2310   44.8970 C   0  0  0  0  0  0  0  0  0  0  0  0
   58.7830   27.0230   45.5980 C   0  0  0  0  0  0  0  0  0  0  0  0
   57.5890   26.4840   46.0790 C   0  0  0  0  0  0  0  0  0  0  0  0
   56.3760   27.1400   45.8440 C   0  0  0  0  0  0  0  0  0  0  0  0
   55.1960   26.5760   46.3270 O   0  0  0  0  0  0  0  0  0  0  0  0
   56.3640   28.3530   45.1320 C   0  0  0  0  0  0  0  0  0  0  0  0
   55.1580   29.0090   44.9010 O   0  0  0  0  0  0  0  0  0  0  0  0
   60.4870   33.7910   48.1890 C   0  0  0  0  0  0  0  0  0  0  0  0
   60.5150   32.8230   49.3940 C   0  0  0  0  0  0  0  0  0  0  0  0
   60.2294   27.3828   49.8390 H   0  0  0  0  0  0  0  0  0  0  0  0
   59.3928   28.6022   48.8192 H   0  0  0  0  0  0  0  0  0  0  0  0
   61.1867   28.5098   48.8192 H   0  0  0  0  0  0  0  0  0  0  0  0
   58.8025   28.6559   52.6341 H   0  0  0  0  0  0  0  0  0  0  0  0
   56.8059   29.9103   53.4406 H   0  0  0  0  0  0  0  0  0  0  0  0
   57.3757   32.8505   50.3279 H   0  0  0  0  0  0  0  0  0  0  0  0
   60.2005   30.0760   48.1075 H   0  0  0  0  0  0  0  0  0  0  0  0
   58.5292   30.6577   47.7436 H   0  0  0  0  0  0  0  0  0  0  0  0
   61.1921   31.6819   46.7595 H   0  0  0  0  0  0  0  0  0  0  0  0
   59.6136   31.4704   45.8902 H   0  0  0  0  0  0  0  0  0  0  0  0
   57.9638   33.4013   48.0370 H   0  0  0  0  0  0  0  0  0  0  0  0
   58.1672   34.5402   46.6513 H   0  0  0  0  0  0  0  0  0  0  0  0
   57.6998   31.5192   46.4925 H   0  0  0  0  0  0  0  0  0  0  0  0
   56.5407   32.8351   46.0473 H   0  0  0  0  0  0  0  0  0  0  0  0
   57.4245   33.0072   43.9820 H   0  0  0  0  0  0  0  0  0  0  0  0
   59.0893   33.1831   44.6664 H   0  0  0  0  0  0  0  0  0  0  0  0
   59.7230   28.6511   44.5222 H   0  0  0  0  0  0  0  0  0  0  0  0
   59.7319   26.4943   45.7717 H   0  0  0  0  0  0  0  0  0  0  0  0
   57.6017   25.5406   46.6445 H   0  0  0  0  0  0  0  0  0  0  0  0
   54.3210   27.0840   46.3370 H   0  0  0  0  0  0  0  0  0  0  0  0
   61.5246   34.0283   47.9114 H   0  0  0  0  0  0  0  0  0  0  0  0
   59.9207   34.6790   48.5063 H   0  0  0  0  0  0  0  0  0  0  0  0
   61.5245   32.3959   49.4863 H   0  0  0  0  0  0  0  0  0  0  0  0
   60.2456   33.3887   50.2981 H   0  0  0  0  0  0  0  0  0  0  0  0
  1  2  1  0
  2  3  1  0
  3  4  2  0
  4  5  1  0
  5  6  2  0
  6  7  1  0
  6  8  1  0
  8  9  2  0
  9 10  1  0
 10 11  1  0
 11 12  1  0
 12 13  1  0
 13 14  1  0
 14 15  1  0
 15 16  1  0
 16 17  1  0
 17 18  1  0
 18 19  2  0
 18 20  1  0
 20 21  2  0
 21 22  1  0
 22 23  2  0
 23 24  1  0
 24 25  1  0
 24 26  2  0
 26 27  1  0
 13 28  1  0
 28 29  1  0
  9  3  1  0
 29 10  1  0
 26 20  1  0
  1 30  1  0
  1 31  1  0
  1 32  1  0
  4 33  1  0
  5 34  1  0
  8 35  1  0
 11 36  1  0
 11 37  1  0
 12 38  1  0
 12 39  1  0
 14 40  1  0
 14 41  1  0
 15 42  1  0
 15 43  1  0
 16 44  1  0
 16 45  1  0
 21 46  1  0
 22 47  1  0
 23 48  1  0
 25 49  1  0
 28 50  1  0
 28 51  1  0
 29 52  1  0
 29 53  1  0
M  CHG  2  17  -1  27  -1
M  END
>  <UniqueID>  (36) 
35

>  <SMILES>  (36) 
COc1ccc(F)cc1N1CCN(CCC[N-]C(=O)c2cccc(O)c2[O-])CC1

>  <Energy>  (36) 
64.21723796060887

>  <Genealogy>  (36) 
COc1ccc(F)cc1N1CCN(CCC[N-]C(=O)c2cccc(O)c2[O-])CC1 (protonated)
COc1ccc(F)cc1N1CCN(CCC[N-]C(=O)c2cccc(O)c2[O-])CC1 (3D coordinates assigned)
COc1ccc(F)cc1N1CCN(CCC[N-]C(=O)c2cccc(O)c2[O-])CC1 (nonaromatic ring conformer: 64.21723796060887 kcal/mol)

>  <smiles>  (36) 
COc1ccc(F)cc1N1CCN(CCCNC(=O)c2cccc(O)c2O)CC1

>  <score_type>  (36) 
oracle

>  <origin>  (36) 
adg

>  <m_score__min__energy>  (36) 
-14.18

>  <m_primary>  (36) 
energy

$$$$
36:0
     RDKit          3D

 57 60  0  0  0  0  0  0  0  0999 V2000
   56.3700   23.3420   42.7830 C   0  0  0  0  0  0  0  0  0  0  0  0
   56.5470   21.9900   42.4170 O   0  0  0  0  0  0  0  0  0  0  0  0
   57.4050   21.3430   43.3380 C   0  0  0  0  0  0  0  0  0  0  0  0
   56.7000   21.1140   44.6390 C   0  0  0  0  0  0  0  0  0  0  0  0
   55.3950   21.3900   44.8490 N   0  0  0  0  0  0  0  0  0  0  0  0
   54.9890   21.0560   46.1050 C   0  0  0  0  0  0  0  0  0  0  0  0
   53.6020   21.3290   46.5960 C   0  0  0  0  0  0  0  0  0  0  0  0
   53.3110   22.7450   46.4270 N   0  0  0  0  0  0  0  0  0  0  0  0
   53.8130   23.5940   45.3870 C   0  0  0  0  0  0  0  0  0  0  0  0
   53.4410   23.3760   44.2040 O   0  0  0  0  0  0  0  0  0  0  0  0
   54.7830   24.6800   45.6270 C   0  0  0  0  0  0  0  0  0  0  0  0
   56.1340   24.5610   45.8870 C   0  0  0  0  0  0  0  0  0  0  0  0
   56.5520   25.8620   46.1070 C   0  0  0  0  0  0  0  0  0  0  0  0
   57.9210   26.3200   46.4530 C   0  0  0  0  0  0  0  0  0  0  0  0
   59.0610   25.6480   45.9730 C   0  0  0  0  0  0  0  0  0  0  0  0
   60.3390   26.0860   46.3280 C   0  0  0  0  0  0  0  0  0  0  0  0
   60.4980   27.1950   47.1640 C   0  0  0  0  0  0  0  0  0  0  0  0
   59.3770   27.8810   47.6490 C   0  0  0  0  0  0  0  0  0  0  0  0
   59.5390   29.0750   48.5050 C   0  0  0  0  0  0  0  0  0  0  0  0
   59.8190   28.9210   49.7250 O   0  0  0  0  0  0  0  0  0  0  0  0
   59.3880   30.4070   47.9760 N   0  0  0  0  0  0  0  0  0  0  0  0
   58.8770   31.4730   48.8430 C   0  0  0  0  0  0  0  0  0  0  0  0
   58.5560   32.7300   48.0220 C   0  0  0  0  0  0  0  0  0  0  0  0
   59.7020   33.1880   47.1940 N   0  0  0  0  0  0  0  0  0  0  0  0
   60.4880   34.2160   47.8940 C   0  0  0  0  0  0  0  0  0  0  0  0
   60.5850   32.1050   46.6920 C   0  0  0  0  0  0  0  0  0  0  0  0
   59.8790   30.7470   46.6360 C   0  0  0  0  0  0  0  0  0  0  0  0
   58.0940   27.4430   47.2820 C   0  0  0  0  0  0  0  0  0  0  0  0
   55.4970   26.6920   45.9930 N   0  0  0  0  0  0  0  0  0  0  0  0
   54.4220   25.9730   45.7110 N   0  0  0  0  0  0  0  0  0  0  0  0
   55.9860   20.5180   46.9170 C   0  0  0  0  0  0  0  0  0  0  0  0
   57.4040   20.4460   46.0120 S   0  0  0  0  0  0  0  0  0  0  0  0
   56.3589   23.4265   43.8797 H   0  0  0  0  0  0  0  0  0  0  0  0
   57.1971   23.9430   42.3772 H   0  0  0  0  0  0  0  0  0  0  0  0
   55.4160   23.7098   42.3772 H   0  0  0  0  0  0  0  0  0  0  0  0
   57.7195   20.3748   42.9213 H   0  0  0  0  0  0  0  0  0  0  0  0
   58.2825   21.9819   43.5163 H   0  0  0  0  0  0  0  0  0  0  0  0
   54.7690   21.8140   44.1290 H   0  0  0  0  0  0  0  0  0  0  0  0
   52.8815   20.7325   46.0171 H   0  0  0  0  0  0  0  0  0  0  0  0
   53.5232   21.0571   47.6590 H   0  0  0  0  0  0  0  0  0  0  0  0
   56.7392   23.6428   45.9132 H   0  0  0  0  0  0  0  0  0  0  0  0
   58.9449   24.7739   45.3153 H   0  0  0  0  0  0  0  0  0  0  0  0
   61.2246   25.5557   45.9479 H   0  0  0  0  0  0  0  0  0  0  0  0
   61.5079   27.5305   47.4423 H   0  0  0  0  0  0  0  0  0  0  0  0
   57.9615   31.1244   49.3433 H   0  0  0  0  0  0  0  0  0  0  0  0
   59.6463   31.7232   49.5884 H   0  0  0  0  0  0  0  0  0  0  0  0
   57.7088   32.5077   47.3565 H   0  0  0  0  0  0  0  0  0  0  0  0
   58.3184   33.5361   48.7317 H   0  0  0  0  0  0  0  0  0  0  0  0
   60.3842   34.0802   48.9806 H   0  0  0  0  0  0  0  0  0  0  0  0
   61.5472   34.1227   47.6124 H   0  0  0  0  0  0  0  0  0  0  0  0
   60.1203   35.2137   47.6124 H   0  0  0  0  0  0  0  0  0  0  0  0
   60.9237   32.3679   45.6790 H   0  0  0  0  0  0  0  0  0  0  0  0
   61.4291   32.0128   47.3912 H   0  0  0  0  0  0  0  0  0  0  0  0
   59.0323   30.8003   45.9358 H   0  0  0  0  0  0  0  0  0  0  0  0
   60.5843   29.9759   46.2925 H   0  0  0  0  0  0  0  0  0  0  0  0
   57.2108   27.9866   47.6486 H   0  0  0  0  0  0  0  0  0  0  0  0
   55.8675   20.1976   47.9626 H   0  0  0  0  0  0  0  0  0  0  0  0
  1  2  1  0
  2  3  1  0
  3  4  1  0
  4  5  2  0
  5  6  1  0
  6  7  1  0
  7  8  1  0
  8  9  1  0
  9 10  2  0
  9 11  1  0
 11 12  2  0
 12 13  1  0
 13 14  1  0
 14 15  2  0
 15 16  1  0
 16 17  2  0
 17 18  1  0
 18 19  1  0
 19 20  2  0
 19 21  1  0
 21 22  1  0
 22 23  1  0
 23 24  1  0
 24 25  1  0
 24 26  1  0
 26 27  1  0
 18 28  2  0
 13 29  2  0
 29 30  1  0
  6 31  2  0
 31 32  1  0
 32  4  1  0
 30 11  1  0
 28 14  1  0
 27 21  1  0
  1 33  1  0
  1 34  1  0
  1 35  1  0
  3 36  1  0
  3 37  1  0
  5 38  1  0
  7 39  1  0
  7 40  1  0
 12 41  1  0
 15 42  1  0
 16 43  1  0
 17 44  1  0
 22 45  1  0
 22 46  1  0
 23 47  1  0
 23 48  1  0
 25 49  1  0
 25 50  1  0
 25 51  1  0
 26 52  1  0
 26 53  1  0
 27 54  1  0
 27 55  1  0
 28 56  1  0
 31 57  1  0
M  CHG  3   5   1   8  -1  30  -1
M  END
>  <UniqueID>  (37) 
36

>  <SMILES>  (37) 
COCc1[nH+]c(C[N-]C(=O)c2cc(-c3cccc(C(=O)N4CCN(C)CC4)c3)n[n-]2)cs1

>  <Energy>  (37) 
132.22482110557996

>  <Genealogy>  (37) 
COCc1[nH+]c(C[N-]C(=O)c2cc(-c3cccc(C(=O)N4CCN(C)CC4)c3)n[n-]2)cs1 (protonated)
COCc1[nH+]c(C[N-]C(=O)c2cc(-c3cccc(C(=O)N4CCN(C)CC4)c3)n[n-]2)cs1 (3D coordinates assigned)
COCc1[nH+]c(C[N-]C(=O)c2cc(-c3cccc(C(=O)N4CCN(C)CC4)c3)n[n-]2)cs1 (nonaromatic ring conformer: 132.22482110557996 kcal/mol)

>  <smiles>  (37) 
COCc1nc(CNC(=O)c2cc(-c3cccc(C(=O)N4CCN(C)CC4)c3)n[nH]2)cs1

>  <score_type>  (37) 
oracle

>  <origin>  (37) 
adg

>  <m_score__min__energy>  (37) 
-11.49

>  <m_primary>  (37) 
energy

$$$$
37:0
     RDKit          3D

 62 65  0  0  0  0  0  0  0  0999 V2000
   64.4760   26.0730   52.2220 C   0  0  0  0  0  0  0  0  0  0  0  0
   62.9590   26.1070   52.0050 C   0  0  0  0  0  0  0  0  0  0  0  0
   62.3440   24.7420   52.3440 C   0  0  0  0  0  0  0  0  0  0  0  0
   62.3250   27.2440   52.8380 C   0  0  0  0  0  0  0  0  0  0  0  0
   62.7050   28.5730   52.3220 N   0  0  0  0  0  0  0  0  0  0  0  0
   63.5390   29.4140   53.0320 C   0  0  0  0  0  0  0  0  0  0  0  0
   63.9960   29.0400   54.1490 O   0  0  0  0  0  0  0  0  0  0  0  0
   63.8730   30.6650   52.5390 N   0  0  0  0  0  0  0  0  0  0  0  0
   64.7430   31.5610   53.3200 C   0  0  0  0  0  0  0  0  0  0  0  0
   63.3310   31.1100   51.3560 C   0  0  0  0  0  0  0  0  0  0  0  0
   63.5770   32.2660   50.9150 O   0  0  0  0  0  0  0  0  0  0  0  0
   62.4960   30.2590   50.6510 C   0  0  0  0  0  0  0  0  0  0  0  0
   61.8460   30.4960   49.4980 N   0  0  0  0  0  0  0  0  0  0  0  0
   61.1300   29.3710   49.2430 C   0  0  0  0  0  0  0  0  0  0  0  0
   60.2060   29.2130   48.0950 C   0  0  0  0  0  0  0  0  0  0  0  0
   60.5600   29.6870   46.8180 C   0  0  0  0  0  0  0  0  0  0  0  0
   59.6640   29.5850   45.7500 C   0  0  0  0  0  0  0  0  0  0  0  0
   58.3910   29.0270   45.9460 C   0  0  0  0  0  0  0  0  0  0  0  0
   57.4140   28.9850   44.8970 N   0  0  0  0  0  0  0  0  0  0  0  0
   56.2830   29.8550   44.7430 C   0  0  0  0  0  0  0  0  0  0  0  0
   55.1350   29.3450   44.6560 O   0  0  0  0  0  0  0  0  0  0  0  0
   56.4080   31.2850   44.6840 N   0  0  0  0  0  0  0  0  0  0  0  0
   57.4570   32.0860   45.2450 C   0  0  0  0  0  0  0  0  0  0  0  0
   57.7990   32.0130   46.6070 C   0  0  0  0  0  0  0  0  0  0  0  0
   58.9010   32.7220   47.0930 C   0  0  0  0  0  0  0  0  0  0  0  0
   59.6440   33.5430   46.2340 C   0  0  0  0  0  0  0  0  0  0  0  0
   60.8030   34.2370   46.6980 N   0  0  0  0  0  0  0  0  0  0  0  0
   62.0900   33.4270   47.5270 S   0  0  0  0  0  0  0  0  0  0  0  0
   63.6280   34.2110   47.1000 C   0  0  0  0  0  0  0  0  0  0  0  0
   61.8670   33.5320   49.0090 O   0  0  0  0  0  0  0  0  0  0  0  0
   62.1340   31.9750   47.1420 O   0  0  0  0  0  0  0  0  0  0  0  0
   59.2430   33.6940   44.9020 C   0  0  0  0  0  0  0  0  0  0  0  0
   58.1570   32.9640   44.4090 C   0  0  0  0  0  0  0  0  0  0  0  0
   58.0550   28.5110   47.2000 C   0  0  0  0  0  0  0  0  0  0  0  0
   58.9480   28.6110   48.2690 C   0  0  0  0  0  0  0  0  0  0  0  0
   61.3390   28.4230   50.2460 C   0  0  0  0  0  0  0  0  0  0  0  0
   62.2120   29.0240   51.1330 C   0  0  0  0  0  0  0  0  0  0  0  0
   64.6921   26.0682   53.3006 H   0  0  0  0  0  0  0  0  0  0  0  0
   64.8921   25.1653   51.7606 H   0  0  0  0  0  0  0  0  0  0  0  0
   64.9324   26.9611   51.7606 H   0  0  0  0  0  0  0  0  0  0  0  0
   62.7488   26.3136   50.9452 H   0  0  0  0  0  0  0  0  0  0  0  0
   62.2912   24.6248   53.4365 H   0  0  0  0  0  0  0  0  0  0  0  0
   61.3312   24.6805   51.9192 H   0  0  0  0  0  0  0  0  0  0  0  0
   62.9689   23.9426   51.9192 H   0  0  0  0  0  0  0  0  0  0  0  0
   61.2300   27.1462   52.8002 H   0  0  0  0  0  0  0  0  0  0  0  0
   62.6919   27.1587   53.8715 H   0  0  0  0  0  0  0  0  0  0  0  0
   64.5765   31.3895   54.3937 H   0  0  0  0  0  0  0  0  0  0  0  0
   65.7955   31.3556   53.0748 H   0  0  0  0  0  0  0  0  0  0  0  0
   64.5067   32.6070   53.0748 H   0  0  0  0  0  0  0  0  0  0  0  0
   61.8910   31.3680   48.9280 H   0  0  0  0  0  0  0  0  0  0  0  0
   61.5492   30.1411   46.6592 H   0  0  0  0  0  0  0  0  0  0  0  0
   59.9576   29.9433   44.7523 H   0  0  0  0  0  0  0  0  0  0  0  0
   57.1978   31.3965   47.2915 H   0  0  0  0  0  0  0  0  0  0  0  0
   59.1857   32.6354   48.1520 H   0  0  0  0  0  0  0  0  0  0  0  0
   64.1670   34.4857   48.0187 H   0  0  0  0  0  0  0  0  0  0  0  0
   64.2421   33.5159   46.5086 H   0  0  0  0  0  0  0  0  0  0  0  0
   63.4263   35.1163   46.5086 H   0  0  0  0  0  0  0  0  0  0  0  0
   59.7831   34.3883   44.2414 H   0  0  0  0  0  0  0  0  0  0  0  0
   57.8511   33.0803   43.3588 H   0  0  0  0  0  0  0  0  0  0  0  0
   57.0803   28.0226   47.3464 H   0  0  0  0  0  0  0  0  0  0  0  0
   58.6644   28.2153   49.2554 H   0  0  0  0  0  0  0  0  0  0  0  0
   60.9031   27.4154   50.3154 H   0  0  0  0  0  0  0  0  0  0  0  0
  1  2  1  0
  2  3  1  0
  2  4  1  0
  4  5  1  0
  5  6  1  0
  6  7  2  0
  6  8  1  0
  8  9  1  0
  8 10  1  0
 10 11  2  0
 10 12  1  0
 12 13  1  0
 13 14  1  0
 14 15  1  0
 15 16  2  0
 16 17  1  0
 17 18  2  0
 18 19  1  0
 19 20  1  0
 20 21  2  0
 20 22  1  0
 22 23  1  0
 23 24  2  0
 24 25  1  0
 25 26  2  0
 26 27  1  0
 27 28  1  0
 28 29  1  0
 28 30  2  0
 28 31  2  0
 26 32  1  0
 32 33  2  0
 18 34  1  0
 34 35  2  0
 14 36  2  0
 36 37  1  0
 37  5  1  0
 37 12  2  0
 35 15  1  0
 33 23  1  0
  1 38  1  0
  1 39  1  0
  1 40  1  0
  2 41  1  0
  3 42  1  0
  3 43  1  0
  3 44  1  0
  4 45  1  0
  4 46  1  0
  9 47  1  0
  9 48  1  0
  9 49  1  0
 13 50  1  0
 16 51  1  0
 17 52  1  0
 24 53  1  0
 25 54  1  0
 29 55  1  0
 29 56  1  0
 29 57  1  0
 32 58  1  0
 33 59  1  0
 34 60  1  0
 35 61  1  0
 36 62  1  0
M  CHG  3  19  -1  22  -1  27  -1
M  END
>  <UniqueID>  (38) 
37

>  <SMILES>  (38) 
CC(C)Cn1c(=O)n(C)c(=O)c2[nH]c(-c3ccc([N-]C(=O)[N-]c4ccc([N-]S(C)(=O)=O)cc4)cc3)cc21

>  <Energy>  (38) 
108.8521457643115

>  <Genealogy>  (38) 
CC(C)Cn1c(=O)n(C)c(=O)c2[nH]c(-c3ccc([N-]C(=O)[N-]c4ccc([N-]S(C)(=O)=O)cc4)cc3)cc21 (protonated)
CC(C)Cn1c(=O)n(C)c(=O)c2[nH]c(-c3ccc([N-]C(=O)[N-]c4ccc([N-]S(C)(=O)=O)cc4)cc3)cc21 (3D coordinates assigned)
CC(C)Cn1c(=O)n(C)c(=O)c2[nH]c(-c3ccc([N-]C(=O)[N-]c4ccc([N-]S(C)(=O)=O)cc4)cc3)cc21 (optimized conformer: 108.8521457643115 kcal/mol)

>  <smiles>  (38) 
CC(C)Cn1c(=O)n(C)c(=O)c2[nH]c(-c3ccc(NC(=O)Nc4ccc(NS(C)(=O)=O)cc4)cc3)cc21

>  <score_type>  (38) 
oracle

>  <origin>  (38) 
adg

>  <m_score__min__energy>  (38) 
-12.949999999999999

>  <m_primary>  (38) 
energy

$$$$
38:0
     RDKit          3D

 50 53  0  0  0  0  0  0  0  0999 V2000
   56.8890   30.8020   42.9350 C   0  0  0  0  0  0  0  0  0  0  0  0
   57.7800   32.0240   43.1270 C   0  0  0  0  0  0  0  0  0  0  0  0
   58.3710   32.0170   44.4260 O   0  0  0  0  0  0  0  0  0  0  0  0
   58.8410   33.1420   45.1270 C   0  0  0  0  0  0  0  0  0  0  0  0
   58.8590   34.4270   44.5470 C   0  0  0  0  0  0  0  0  0  0  0  0
   59.2720   35.5340   45.2920 C   0  0  0  0  0  0  0  0  0  0  0  0
   59.6650   35.3780   46.6200 C   0  0  0  0  0  0  0  0  0  0  0  0
   59.6620   34.1100   47.2060 C   0  0  0  0  0  0  0  0  0  0  0  0
   59.2710   32.9840   46.4640 C   0  0  0  0  0  0  0  0  0  0  0  0
   59.3120   31.6520   47.1060 C   0  0  0  0  0  0  0  0  0  0  0  0
   59.5550   31.5740   48.3410 O   0  0  0  0  0  0  0  0  0  0  0  0
   59.0900   30.4590   46.3330 N   0  0  0  0  0  0  0  0  0  0  0  0
   59.0890   29.1370   46.8980 C   0  0  0  0  0  0  0  0  0  0  0  0
   59.9620   28.8320   47.9540 C   0  0  0  0  0  0  0  0  0  0  0  0
   60.0200   27.5430   48.4750 C   0  0  0  0  0  0  0  0  0  0  0  0
   59.2380   26.5300   47.9270 C   0  0  0  0  0  0  0  0  0  0  0  0
   58.3770   26.7900   46.8470 C   0  0  0  0  0  0  0  0  0  0  0  0
   57.6330   25.6510   46.2570 C   0  0  0  0  0  0  0  0  0  0  0  0
   58.2990   24.6350   45.6480 N   0  0  0  0  0  0  0  0  0  0  0  0
   57.6390   23.5710   45.1240 C   0  0  0  0  0  0  0  0  0  0  0  0
   58.3500   22.5460   44.4920 C   0  0  0  0  0  0  0  0  0  0  0  0
   57.6680   21.4500   43.9540 C   0  0  0  0  0  0  0  0  0  0  0  0
   56.2740   21.3750   44.0460 C   0  0  0  0  0  0  0  0  0  0  0  0
   55.5540   22.3940   44.6760 C   0  0  0  0  0  0  0  0  0  0  0  0
   56.2320   23.5000   45.2200 C   0  0  0  0  0  0  0  0  0  0  0  0
   55.5650   24.5530   45.8680 C   0  0  0  0  0  0  0  0  0  0  0  0
   54.3110   24.5460   45.9920 O   0  0  0  0  0  0  0  0  0  0  0  0
   56.2780   25.5930   46.3700 N   0  0  0  0  0  0  0  0  0  0  0  0
   58.2660   28.1200   46.3510 C   0  0  0  0  0  0  0  0  0  0  0  0
   57.2690   28.4680   45.2680 C   0  0  0  0  0  0  0  0  0  0  0  0
   56.5977   30.4025   43.9177 H   0  0  0  0  0  0  0  0  0  0  0  0
   55.9875   31.0900   42.3744 H   0  0  0  0  0  0  0  0  0  0  0  0
   57.4389   30.0317   42.3744 H   0  0  0  0  0  0  0  0  0  0  0  0
   58.5760   32.0136   42.3679 H   0  0  0  0  0  0  0  0  0  0  0  0
   57.1654   32.9303   43.0224 H   0  0  0  0  0  0  0  0  0  0  0  0
   58.5457   34.5586   43.5008 H   0  0  0  0  0  0  0  0  0  0  0  0
   59.2871   36.5318   44.8292 H   0  0  0  0  0  0  0  0  0  0  0  0
   59.9778   36.2540   47.2071 H   0  0  0  0  0  0  0  0  0  0  0  0
   59.9681   33.9928   48.2560 H   0  0  0  0  0  0  0  0  0  0  0  0
   58.9070   30.5480   45.3090 H   0  0  0  0  0  0  0  0  0  0  0  0
   60.6060   29.6190   48.3734 H   0  0  0  0  0  0  0  0  0  0  0  0
   60.6859   27.3238   49.3226 H   0  0  0  0  0  0  0  0  0  0  0  0
   59.2946   25.5138   48.3443 H   0  0  0  0  0  0  0  0  0  0  0  0
   59.4461   22.6018   44.4180 H   0  0  0  0  0  0  0  0  0  0  0  0
   58.2291   20.6448   43.4572 H   0  0  0  0  0  0  0  0  0  0  0  0
   55.7426   20.5108   43.6209 H   0  0  0  0  0  0  0  0  0  0  0  0
   54.4581   22.3311   44.7464 H   0  0  0  0  0  0  0  0  0  0  0  0
   56.3263   28.7971   45.7295 H   0  0  0  0  0  0  0  0  0  0  0  0
   57.6738   29.2780   44.6435 H   0  0  0  0  0  0  0  0  0  0  0  0
   57.0819   27.5820   44.6435 H   0  0  0  0  0  0  0  0  0  0  0  0
  1  2  1  0
  2  3  1  0
  3  4  1  0
  4  5  2  0
  5  6  1  0
  6  7  2  0
  7  8  1  0
  8  9  2  0
  9 10  1  0
 10 11  2  0
 10 12  1  0
 12 13  1  0
 13 14  2  0
 14 15  1  0
 15 16  2  0
 16 17  1  0
 17 18  1  0
 18 19  2  0
 19 20  1  0
 20 21  2  0
 21 22  1  0
 22 23  2  0
 23 24  1  0
 24 25  2  0
 25 26  1  0
 26 27  2  0
 26 28  1  0
 17 29  2  0
 29 30  1  0
  9  4  1  0
 29 13  1  0
 28 18  1  0
 25 20  1  0
  1 31  1  0
  1 32  1  0
  1 33  1  0
  2 34  1  0
  2 35  1  0
  5 36  1  0
  6 37  1  0
  7 38  1  0
  8 39  1  0
 12 40  1  0
 14 41  1  0
 15 42  1  0
 16 43  1  0
 21 44  1  0
 22 45  1  0
 23 46  1  0
 24 47  1  0
 30 48  1  0
 30 49  1  0
 30 50  1  0
M  CHG  1  28  -1
M  END
>  <UniqueID>  (39) 
38

>  <SMILES>  (39) 
CCOc1ccccc1C(=O)Nc1cccc(-c2nc3ccccc3c(=O)[n-]2)c1C

>  <Energy>  (39) 
72.4521642020541

>  <Genealogy>  (39) 
CCOc1ccccc1C(=O)Nc1cccc(-c2nc3ccccc3c(=O)[n-]2)c1C (protonated)
CCOc1ccccc1C(=O)Nc1cccc(-c2nc3ccccc3c(=O)[n-]2)c1C (3D coordinates assigned)
CCOc1ccccc1C(=O)Nc1cccc(-c2nc3ccccc3c(=O)[n-]2)c1C (optimized conformer: 72.4521642020541 kcal/mol)

>  <smiles>  (39) 
CCOc1ccccc1C(=O)Nc1cccc(-c2nc3ccccc3c(=O)[nH]2)c1C

>  <score_type>  (39) 
oracle

>  <origin>  (39) 
adg

>  <m_score__min__energy>  (39) 
-10.09

>  <m_primary>  (39) 
energy

$$$$
39:0
     RDKit          3D

 46 48  0  0  0  0  0  0  0  0999 V2000
   51.5930   32.3950   48.6180 H   0  0  0  0  0  0  0  0  0  0  0  0
   51.0000   32.3200   49.4350 O   0  0  0  0  0  0  0  0  0  0  0  0
   51.4140   31.6600   50.5910 C   0  0  0  0  0  0  0  0  0  0  0  0
   52.1880   30.5000   50.4740 C   0  0  0  0  0  0  0  0  0  0  0  0
   52.4591   30.1210   49.4776 H   0  0  0  0  0  0  0  0  0  0  0  0
   52.6180   29.8210   51.6170 C   0  0  0  0  0  0  0  0  0  0  0  0
   53.2104   28.8996   51.5162 H   0  0  0  0  0  0  0  0  0  0  0  0
   52.2970   30.3100   52.8950 C   0  0  0  0  0  0  0  0  0  0  0  0
   52.6960   29.5800   54.1160 C   0  0  0  0  0  0  0  0  0  0  0  0
   51.8968   29.2891   54.8136 H   0  0  0  0  0  0  0  0  0  0  0  0
   53.9540   29.2420   54.4450 C   0  0  0  0  0  0  0  0  0  0  0  0
   54.2471   29.3493   55.4998 H   0  0  0  0  0  0  0  0  0  0  0  0
   54.9810   28.7350   53.4990 C   0  0  0  0  0  0  0  0  0  0  0  0
   54.9390   27.5370   53.1100 O   0  0  0  0  0  0  0  0  0  0  0  0
   56.0270   29.5930   53.0030 N   0  0  0  0  0  0  0  0  0  0  0  0
   57.3560   29.0020   52.7770 C   0  0  0  0  0  0  0  0  0  0  0  0
   57.3151   28.3593   51.8852 H   0  0  0  0  0  0  0  0  0  0  0  0
   57.6310   28.4170   53.6670 H   0  0  0  0  0  0  0  0  0  0  0  0
   58.4160   30.0810   52.5640 C   0  0  0  0  0  0  0  0  0  0  0  0
   59.3527   29.6133   52.2267 H   0  0  0  0  0  0  0  0  0  0  0  0
   58.5922   30.6138   53.5101 H   0  0  0  0  0  0  0  0  0  0  0  0
   57.9500   31.0300   51.5480 N   0  0  0  0  0  0  0  0  0  0  0  0
   58.7800   31.3620   50.4200 C   0  0  0  0  0  0  0  0  0  0  0  0
   59.3020   30.3490   49.5990 C   0  0  0  0  0  0  0  0  0  0  0  0
   59.0697   29.2957   49.8148 H   0  0  0  0  0  0  0  0  0  0  0  0
   60.1160   30.6730   48.5080 C   0  0  0  0  0  0  0  0  0  0  0  0
   60.5085   29.8740   47.8619 H   0  0  0  0  0  0  0  0  0  0  0  0
   60.4340   32.0110   48.2340 C   0  0  0  0  0  0  0  0  0  0  0  0
   61.2740   32.3590   47.0410 C   0  0  0  0  0  0  0  0  0  0  0  0
   62.2414   32.7598   47.3780 H   0  0  0  0  0  0  0  0  0  0  0  0
   61.4421   31.4565   46.4351 H   0  0  0  0  0  0  0  0  0  0  0  0
   60.7546   33.1160   46.4351 H   0  0  0  0  0  0  0  0  0  0  0  0
   59.9040   33.0240   49.0450 C   0  0  0  0  0  0  0  0  0  0  0  0
   60.1302   34.0774   48.8230 H   0  0  0  0  0  0  0  0  0  0  0  0
   59.0890   32.7020   50.1350 C   0  0  0  0  0  0  0  0  0  0  0  0
   58.6876   33.5032   50.7729 H   0  0  0  0  0  0  0  0  0  0  0  0
   56.5920   31.5860   51.6370 C   0  0  0  0  0  0  0  0  0  0  0  0
   56.0425   31.3263   50.7201 H   0  0  0  0  0  0  0  0  0  0  0  0
   56.6814   32.6758   51.7563 H   0  0  0  0  0  0  0  0  0  0  0  0
   55.8180   31.0420   52.8480 C   0  0  0  0  0  0  0  0  0  0  0  0
   54.7448   31.2370   52.7056 H   0  0  0  0  0  0  0  0  0  0  0  0
   56.1858   31.5469   53.7534 H   0  0  0  0  0  0  0  0  0  0  0  0
   51.4960   31.4550   53.0100 C   0  0  0  0  0  0  0  0  0  0  0  0
   51.2055   31.8208   54.0059 H   0  0  0  0  0  0  0  0  0  0  0  0
   51.0640   32.1350   51.8670 C   0  0  0  0  0  0  0  0  0  0  0  0
   50.2860   33.2800   52.0030 O   0  0  0  0  0  0  0  0  0  0  0  0
  1  2  1  0
  2  3  1  0
  3  4  2  0
  4  5  1  0
  4  6  1  0
  6  7  1  0
  6  8  2  0
  8  9  1  0
  9 10  1  0
  9 11  2  0
 11 12  1  0
 11 13  1  0
 13 14  2  0
 13 15  1  0
 15 16  1  0
 16 17  1  0
 16 18  1  0
 16 19  1  0
 19 20  1  0
 19 21  1  0
 19 22  1  0
 22 23  1  0
 23 24  2  0
 24 25  1  0
 24 26  1  0
 26 27  1  0
 26 28  2  0
 28 29  1  0
 29 30  1  0
 29 31  1  0
 29 32  1  0
 28 33  1  0
 33 34  1  0
 33 35  2  0
 35 36  1  0
 22 37  1  0
 37 38  1  0
 37 39  1  0
 37 40  1  0
 40 41  1  0
 40 42  1  0
  8 43  1  0
 43 44  1  0
 43 45  2  0
 45 46  1  0
 45  3  1  0
 40 15  1  0
 35 23  1  0
M  CHG  1  46  -1
M  END
>  <UniqueID>  (40) 
39

>  <SMILES>  (40) 
Cc1ccc(N2CCN(C(=O)/C=C\c3ccc(O)c([O-])c3)CC2)cc1

>  <Energy>  (40) 
61.67376200010123

>  <Genealogy>  (40) 
Cc1ccc(N2CCN(C(=O)C=Cc3ccc(O)c([O-])c3)CC2)cc1 (protonated)
Cc1ccc(N2CCN(C(=O)/C=C\c3ccc(O)c([O-])c3)CC2)cc1 (cis-trans isomerization)
Cc1ccc(N2CCN(C(=O)/C=C\c3ccc(O)c([O-])c3)CC2)cc1 (3D coordinates assigned)
Cc1ccc(N2CCN(C(=O)/C=C\c3ccc(O)c([O-])c3)CC2)cc1 (nonaromatic ring conformer: 61.67376200010123 kcal/mol)

>  <smiles>  (40) 
Cc1ccc(N2CCN(C(=O)C=Cc3ccc(O)c(O)c3)CC2)cc1

>  <score_type>  (40) 
oracle

>  <origin>  (40) 
adg

>  <m_score__min__energy>  (40) 
-12.24

>  <m_primary>  (40) 
energy

$$$$
40:0
     RDKit          3D

 69 72  0  0  0  0  0  0  0  0999 V2000
   56.6220   30.5420   43.5240 C   0  0  0  0  0  0  0  0  0  0  0  0
   56.1340   30.0530   44.8100 N   0  0  0  0  0  0  0  0  0  0  0  0
   56.6690   29.1010   45.5190 C   0  0  0  0  0  0  0  0  0  0  0  0
   57.8200   29.3590   46.1910 N   0  0  0  0  0  0  0  0  0  0  0  0
   58.4180   28.3980   46.9350 C   0  0  0  0  0  0  0  0  0  0  0  0
   59.5230   28.6710   47.5650 N   0  0  0  0  0  0  0  0  0  0  0  0
   59.6580   28.7670   49.0220 C   0  0  0  0  0  0  0  0  0  0  0  0
   58.5990   29.7370   49.5960 C   0  0  0  0  0  0  0  0  0  0  0  0
   59.0810   30.3600   50.9150 C   0  0  0  0  0  0  0  0  0  0  0  0
   60.3360   31.1440   50.7570 N   0  0  0  0  0  0  0  0  0  0  0  0
   60.0620   32.5980   50.7130 C   0  0  0  0  0  0  0  0  0  0  0  0
   59.7130   33.0430   49.3160 C   0  0  0  0  0  0  0  0  0  0  0  0
   60.6000   33.8600   48.5970 C   0  0  0  0  0  0  0  0  0  0  0  0
   60.2800   34.2820   47.3050 C   0  0  0  0  0  0  0  0  0  0  0  0
   59.0680   33.8970   46.7160 C   0  0  0  0  0  0  0  0  0  0  0  0
   58.6670   34.4610   45.0970 S   0  0  0  0  0  0  0  0  0  0  0  0
   56.8990   34.5640   44.9300 C   0  0  0  0  0  0  0  0  0  0  0  0
   59.2070   33.5080   44.0670 O   0  0  0  0  0  0  0  0  0  0  0  0
   59.2790   35.8160   44.8700 O   0  0  0  0  0  0  0  0  0  0  0  0
   58.1770   33.0830   47.4310 C   0  0  0  0  0  0  0  0  0  0  0  0
   58.4990   32.6560   48.7230 C   0  0  0  0  0  0  0  0  0  0  0  0
   61.1730   30.7190   49.6060 C   0  0  0  0  0  0  0  0  0  0  0  0
   61.0930   29.2040   49.3800 C   0  0  0  0  0  0  0  0  0  0  0  0
   57.8530   27.1660   47.0160 N   0  0  0  0  0  0  0  0  0  0  0  0
   56.6970   26.8880   46.3670 C   0  0  0  0  0  0  0  0  0  0  0  0
   56.1840   25.6960   46.4880 N   0  0  0  0  0  0  0  0  0  0  0  0
   56.4080   24.5920   45.5950 C   0  0  0  0  0  0  0  0  0  0  0  0
   55.3050   23.9660   44.9790 C   0  0  0  0  0  0  0  0  0  0  0  0
   53.9050   24.4390   45.2630 C   0  0  0  0  0  0  0  0  0  0  0  0
   55.5150   22.8710   44.1280 C   0  0  0  0  0  0  0  0  0  0  0  0
   56.8120   22.4140   43.8610 C   0  0  0  0  0  0  0  0  0  0  0  0
   57.0260   21.2090   42.9930 C   0  0  0  0  0  0  0  0  0  0  0  0
   57.9070   23.0490   44.4600 C   0  0  0  0  0  0  0  0  0  0  0  0
   57.7200   24.1540   45.3020 C   0  0  0  0  0  0  0  0  0  0  0  0
   58.9230   24.8190   45.9170 C   0  0  0  0  0  0  0  0  0  0  0  0
   56.1060   27.8570   45.6020 N   0  0  0  0  0  0  0  0  0  0  0  0
   57.3899   31.3115   43.6918 H   0  0  0  0  0  0  0  0  0  0  0  0
   57.0576   29.7070   42.9556 H   0  0  0  0  0  0  0  0  0  0  0  0
   55.7862   30.9759   42.9556 H   0  0  0  0  0  0  0  0  0  0  0  0
   59.4788   27.7817   49.4771 H   0  0  0  0  0  0  0  0  0  0  0  0
   58.4125   30.5388   48.8664 H   0  0  0  0  0  0  0  0  0  0  0  0
   57.6757   29.1721   49.7919 H   0  0  0  0  0  0  0  0  0  0  0  0
   58.2947   31.0281   51.2963 H   0  0  0  0  0  0  0  0  0  0  0  0
   59.2903   29.5365   51.6136 H   0  0  0  0  0  0  0  0  0  0  0  0
   59.2199   32.8252   51.3832 H   0  0  0  0  0  0  0  0  0  0  0  0
   60.9675   33.1337   51.0341 H   0  0  0  0  0  0  0  0  0  0  0  0
   61.5517   34.1692   49.0537 H   0  0  0  0  0  0  0  0  0  0  0  0
   60.9820   34.9192   46.7472 H   0  0  0  0  0  0  0  0  0  0  0  0
   56.4374   34.5909   45.9281 H   0  0  0  0  0  0  0  0  0  0  0  0
   56.6354   35.4790   44.3793 H   0  0  0  0  0  0  0  0  0  0  0  0
   56.5309   33.6858   44.3793 H   0  0  0  0  0  0  0  0  0  0  0  0
   57.2232   32.7800   46.9745 H   0  0  0  0  0  0  0  0  0  0  0  0
   57.7988   32.0142   49.2778 H   0  0  0  0  0  0  0  0  0  0  0  0
   60.8222   31.2343   48.6997 H   0  0  0  0  0  0  0  0  0  0  0  0
   62.2188   30.9798   49.8256 H   0  0  0  0  0  0  0  0  0  0  0  0
   61.7678   28.9283   48.5562 H   0  0  0  0  0  0  0  0  0  0  0  0
   61.3887   28.6976   50.3106 H   0  0  0  0  0  0  0  0  0  0  0  0
   53.7493   24.4916   46.3507 H   0  0  0  0  0  0  0  0  0  0  0  0
   53.7586   25.4365   44.8230 H   0  0  0  0  0  0  0  0  0  0  0  0
   53.1837   23.7347   44.8230 H   0  0  0  0  0  0  0  0  0  0  0  0
   54.6535   22.3666   43.6661 H   0  0  0  0  0  0  0  0  0  0  0  0
   57.1832   20.3238   43.6268 H   0  0  0  0  0  0  0  0  0  0  0  0
   56.1415   21.0528   42.3579 H   0  0  0  0  0  0  0  0  0  0  0  0
   57.9102   21.3669   42.3579 H   0  0  0  0  0  0  0  0  0  0  0  0
   58.9242   22.6769   44.2678 H   0  0  0  0  0  0  0  0  0  0  0  0
   58.8452   24.7760   47.0134 H   0  0  0  0  0  0  0  0  0  0  0  0
   59.8358   24.2973   45.5934 H   0  0  0  0  0  0  0  0  0  0  0  0
   58.9667   25.8694   45.5934 H   0  0  0  0  0  0  0  0  0  0  0  0
   55.2300   27.6430   45.0780 H   0  0  0  0  0  0  0  0  0  0  0  0
  1  2  1  0
  2  3  2  3
  3  4  1  0
  4  5  1  0
  5  6  2  3
  6  7  1  0
  7  8  1  0
  8  9  1  0
  9 10  1  0
 10 11  1  0
 11 12  1  0
 12 13  2  0
 13 14  1  0
 14 15  2  0
 15 16  1  0
 16 17  1  0
 16 18  2  0
 16 19  2  0
 15 20  1  0
 20 21  2  0
 10 22  1  0
 22 23  1  0
  5 24  1  0
 24 25  1  0
 25 26  2  3
 26 27  1  0
 27 28  2  0
 28 29  1  0
 28 30  1  0
 30 31  2  0
 31 32  1  0
 31 33  1  0
 33 34  2  0
 34 35  1  0
 25 36  1  0
 36  3  1  0
 23  7  1  0
 34 27  1  0
 21 12  1  0
  1 37  1  0
  1 38  1  0
  1 39  1  0
  7 40  1  0
  8 41  1  0
  8 42  1  0
  9 43  1  0
  9 44  1  0
 11 45  1  0
 11 46  1  0
 13 47  1  0
 14 48  1  0
 17 49  1  0
 17 50  1  0
 17 51  1  0
 20 52  1  0
 21 53  1  0
 22 54  1  0
 22 55  1  0
 23 56  1  0
 23 57  1  0
 29 58  1  0
 29 59  1  0
 29 60  1  0
 30 61  1  0
 32 62  1  0
 32 63  1  0
 32 64  1  0
 33 65  1  0
 35 66  1  0
 35 67  1  0
 35 68  1  0
 36 69  1  0
M  CHG  2   4  -1  24  -1
M  END
>  <UniqueID>  (41) 
40

>  <SMILES>  (41) 
CN=c1[n-]c(=NC2CCN(Cc3ccc(S(C)(=O)=O)cc3)CC2)[n-]c(=Nc2c(C)cc(C)cc2C)[nH]1

>  <Energy>  (41) 
85.96811406486226

>  <Genealogy>  (41) 
CN=c1[n-]c(=NC2CCN(Cc3ccc(S(C)(=O)=O)cc3)CC2)[n-]c(=Nc2c(C)cc(C)cc2C)[nH]1 (protonated)
CN=c1[n-]c(=NC2CCN(Cc3ccc(S(C)(=O)=O)cc3)CC2)[n-]c(=Nc2c(C)cc(C)cc2C)[nH]1 (3D coordinates assigned)
CN=c1[n-]c(=NC2CCN(Cc3ccc(S(C)(=O)=O)cc3)CC2)[n-]c(=Nc2c(C)cc(C)cc2C)[nH]1 (nonaromatic ring conformer: 85.96811406486226 kcal/mol)

>  <smiles>  (41) 
CN=c1[nH]c(=Nc2c(C)cc(C)cc2C)[nH]c(=NC2CCN(Cc3ccc(S(C)(=O)=O)cc3)CC2)[nH]1

>  <score_type>  (41) 
oracle

>  <origin>  (41) 
adg

>  <m_score__min__energy>  (41) 
-13.119999999999999

>  <m_primary>  (41) 
energy

$$$$
41:0
     RDKit          3D

 65 68  0  0  1  0  0  0  0  0999 V2000
   60.0300   29.0110   44.5290 C   0  0  0  0  0  0  0  0  0  0  0  0
   58.6290   29.0100   44.1280 N   0  0  0  0  0  0  0  0  0  0  0  0
   58.1420   27.8620   43.3910 C   0  0  0  0  0  0  0  0  0  0  0  0
   57.7300   30.0550   44.4190 C   0  0  0  0  0  0  0  0  0  0  0  0
   56.5140   30.0000   44.0420 O   0  0  0  0  0  0  0  0  0  0  0  0
   58.1130   31.2460   45.1550 C   0  0  0  0  0  0  0  0  0  0  0  0
   58.1690   32.5100   44.6160 C   0  0  0  0  0  0  0  0  0  0  0  0
   58.5470   33.6110   45.3940 C   0  0  0  0  0  0  0  0  0  0  0  0
   58.8780   33.4750   46.7310 C   0  0  0  0  0  0  0  0  0  0  0  0
   59.2820   34.6370   47.5740 C   0  0  0  0  0  0  0  0  0  0  0  0
   60.6440   34.6370   47.9490 N   0  0  0  0  0  0  0  0  0  0  0  0
   61.4670   33.6920   47.9080 C   0  0  0  0  0  0  0  0  0  0  0  0
   61.3770   32.7060   48.8260 N   0  0  0  0  0  0  0  0  0  0  0  0
   62.2670   31.7020   48.8020 C   0  0  0  0  0  0  0  0  0  0  0  0
   62.1640   30.7880   49.6690 N   0  0  0  0  0  0  0  0  0  0  0  0
   61.1610   29.8030   49.7570 C   0  0  1  0  0  0  0  0  0  0  0  0
   59.8670   30.0900   50.3920 C   0  0  0  0  0  0  0  0  0  0  0  0
   58.8310   29.3280   49.5970 C   0  0  0  0  0  0  0  0  0  0  0  0
   59.5070   28.6190   48.5530 N   0  0  0  0  0  0  0  0  0  0  0  0
   59.0240   27.6420   47.6220 C   0  0  0  0  0  0  0  0  0  0  0  0
   59.7920   26.5300   47.3290 C   0  0  0  0  0  0  0  0  0  0  0  0
   59.2750   25.5930   46.4570 C   0  0  0  0  0  0  0  0  0  0  0  0
   58.0220   25.7710   45.8960 C   0  0  0  0  0  0  0  0  0  0  0  0
   57.4340   24.5150   44.8070 S   0  0  0  0  0  0  0  0  0  0  0  0
   58.4940   23.0760   44.9140 C   0  0  0  0  0  0  0  0  0  0  0  0
   56.0530   24.0920   45.1630 O   0  0  0  0  0  0  0  0  0  0  0  0
   57.4760   24.9770   43.3890 O   0  0  0  0  0  0  0  0  0  0  0  0
   57.2430   26.8890   46.1850 C   0  0  0  0  0  0  0  0  0  0  0  0
   57.7570   27.8300   47.0590 C   0  0  0  0  0  0  0  0  0  0  0  0
   60.9280   29.0120   48.5030 C   0  0  0  0  0  0  0  0  0  0  0  0
   63.2510   31.6330   47.9010 N   0  0  0  0  0  0  0  0  0  0  0  0
   63.3360   32.6140   46.9890 C   0  0  0  0  0  0  0  0  0  0  0  0
   62.4540   33.6740   46.9590 C   0  0  0  0  0  0  0  0  0  0  0  0
   62.5530   34.6400   46.0270 F   0  0  0  0  0  0  0  0  0  0  0  0
   58.8080   32.1820   47.2340 C   0  0  0  0  0  0  0  0  0  0  0  0
   58.4390   31.0920   46.4850 C   0  0  0  0  0  0  0  0  0  0  0  0
   60.0971   29.0110   45.6269 H   0  0  0  0  0  0  0  0  0  0  0  0
   60.5258   28.1132   44.1314 H   0  0  0  0  0  0  0  0  0  0  0  0
   60.5246   29.9095   44.1314 H   0  0  0  0  0  0  0  0  0  0  0  0
   57.8127   27.0856   44.0973 H   0  0  0  0  0  0  0  0  0  0  0  0
   57.2949   28.1650   42.7580 H   0  0  0  0  0  0  0  0  0  0  0  0
   58.9486   27.4635   42.7580 H   0  0  0  0  0  0  0  0  0  0  0  0
   57.9127   32.6584   43.5566 H   0  0  0  0  0  0  0  0  0  0  0  0
   58.5818   34.6084   44.9314 H   0  0  0  0  0  0  0  0  0  0  0  0
   59.0801   35.5591   47.0093 H   0  0  0  0  0  0  0  0  0  0  0  0
   58.6989   34.5693   48.5043 H   0  0  0  0  0  0  0  0  0  0  0  0
   60.6110   32.7170   49.5630 H   0  0  0  0  0  0  0  0  0  0  0  0
   61.6876   29.2049   50.5153 H   0  0  0  0  0  0  0  0  0  0  0  0
   59.8714   29.7499   51.4381 H   0  0  0  0  0  0  0  0  0  0  0  0
   59.6538   31.1691   50.3994 H   0  0  0  0  0  0  0  0  0  0  0  0
   58.3067   28.6168   50.2522 H   0  0  0  0  0  0  0  0  0  0  0  0
   58.0910   30.0213   49.1706 H   0  0  0  0  0  0  0  0  0  0  0  0
   60.7871   26.3958   47.7782 H   0  0  0  0  0  0  0  0  0  0  0  0
   59.8632   24.6980   46.2060 H   0  0  0  0  0  0  0  0  0  0  0  0
   58.6743   22.8312   45.9712 H   0  0  0  0  0  0  0  0  0  0  0  0
   58.0063   22.2237   44.4183 H   0  0  0  0  0  0  0  0  0  0  0  0
   59.4526   23.2890   44.4183 H   0  0  0  0  0  0  0  0  0  0  0  0
   56.2492   27.0196   45.7319 H   0  0  0  0  0  0  0  0  0  0  0  0
   57.1700   28.7255   47.3112 H   0  0  0  0  0  0  0  0  0  0  0  0
   61.5740   28.1219   48.4826 H   0  0  0  0  0  0  0  0  0  0  0  0
   61.1623   29.5943   47.5997 H   0  0  0  0  0  0  0  0  0  0  0  0
   63.9000   30.8490   47.9340 H   0  0  0  0  0  0  0  0  0  0  0  0
   64.1385   32.5711   46.2379 H   0  0  0  0  0  0  0  0  0  0  0  0
   59.0626   32.0224   48.2922 H   0  0  0  0  0  0  0  0  0  0  0  0
   58.4036   30.0945   46.9473 H   0  0  0  0  0  0  0  0  0  0  0  0
  1  2  1  0
  2  3  1  0
  2  4  1  0
  4  5  2  0
  4  6  1  0
  6  7  2  0
  7  8  1  0
  8  9  2  0
  9 10  1  0
 10 11  1  0
 11 12  2  0
 12 13  1  0
 13 14  1  0
 14 15  2  0
 15 16  1  0
 16 17  1  0
 17 18  1  0
 18 19  1  0
 19 20  1  0
 20 21  2  0
 21 22  1  0
 22 23  2  0
 23 24  1  0
 24 25  1  0
 24 26  2  0
 24 27  2  0
 23 28  1  0
 28 29  2  0
 19 30  1  0
 14 31  1  0
 31 32  1  0
 32 33  2  0
 33 34  1  0
  9 35  1  0
 35 36  2  0
 36  6  1  0
 33 12  1  0
 30 16  1  0
 29 20  1  0
  1 37  1  0
  1 38  1  0
  1 39  1  0
  3 40  1  0
  3 41  1  0
  3 42  1  0
  7 43  1  0
  8 44  1  0
 10 45  1  0
 10 46  1  0
 13 47  1  0
 16 48  1  1
 17 49  1  0
 17 50  1  0
 18 51  1  0
 18 52  1  0
 21 53  1  0
 22 54  1  0
 25 55  1  0
 25 56  1  0
 25 57  1  0
 28 58  1  0
 29 59  1  0
 30 60  1  0
 30 61  1  0
 31 62  1  0
 32 63  1  0
 35 64  1  0
 36 65  1  0
M  END
>  <smiles>  (42) 
CN(C)C(=O)c1ccc(CN=c2[nH]c(=NC3CCN(c4ccc(S(C)(=O)=O)cc4)C3)[nH]cc2F)cc1

>  <score_type>  (42) 
oracle

>  <origin>  (42) 
adg

>  <m_score__min__energy>  (42) 
-9.8200000000000003

>  <m_primary>  (42) 
energy

$$$$
42:0
     RDKit          3D

 46 48  0  0  0  0  0  0  0  0999 V2000
   64.6250   33.1870   49.2730 C   0  0  0  0  0  0  0  0  0  0  0  0
   63.3270   33.5500   48.6170 C   0  0  0  0  0  0  0  0  0  0  0  0
   63.2350   33.5540   47.2180 C   0  0  0  0  0  0  0  0  0  0  0  0
   62.0260   33.8640   46.5920 C   0  0  0  0  0  0  0  0  0  0  0  0
   60.8940   34.1770   47.3520 C   0  0  0  0  0  0  0  0  0  0  0  0
   59.6660   34.4610   46.6660 N   0  0  0  0  0  0  0  0  0  0  0  0
   58.5900   33.5530   46.3970 C   0  0  0  0  0  0  0  0  0  0  0  0
   57.4090   33.9840   46.4970 O   0  0  0  0  0  0  0  0  0  0  0  0
   58.8110   32.1190   46.0810 C   0  0  0  0  0  0  0  0  0  0  0  0
   59.9940   31.4850   46.5090 C   0  0  0  0  0  0  0  0  0  0  0  0
   60.2280   30.1420   46.2020 C   0  0  0  0  0  0  0  0  0  0  0  0
   59.2880   29.4140   45.4720 C   0  0  0  0  0  0  0  0  0  0  0  0
   58.1020   30.0280   45.0430 C   0  0  0  0  0  0  0  0  0  0  0  0
   56.8750   29.1020   44.1810 S   0  0  0  0  0  0  0  0  0  0  0  0
   55.9360   30.0560   43.5000 O   0  0  0  0  0  0  0  0  0  0  0  0
   57.5040   28.2210   43.1380 O   0  0  0  0  0  0  0  0  0  0  0  0
   55.9760   28.1120   45.2880 N   0  0  0  0  0  0  0  0  0  0  0  0
   56.4470   26.8950   45.8900 C   0  0  0  0  0  0  0  0  0  0  0  0
   57.7670   26.7510   46.3280 C   0  0  0  0  0  0  0  0  0  0  0  0
   58.1810   25.5640   46.9140 C   0  0  0  0  0  0  0  0  0  0  0  0
   57.2860   24.5020   47.0450 C   0  0  0  0  0  0  0  0  0  0  0  0
   57.7580   23.3270   47.6410 O   0  0  0  0  0  0  0  0  0  0  0  0
   55.9900   24.6250   46.5950 N   0  0  0  0  0  0  0  0  0  0  0  0
   55.0730   23.4760   46.7020 C   0  0  0  0  0  0  0  0  0  0  0  0
   55.5640   25.8110   46.0370 C   0  0  0  0  0  0  0  0  0  0  0  0
   54.3730   25.9430   45.6410 O   0  0  0  0  0  0  0  0  0  0  0  0
   57.8760   31.3810   45.3270 C   0  0  0  0  0  0  0  0  0  0  0  0
   60.9760   34.1500   48.7560 C   0  0  0  0  0  0  0  0  0  0  0  0
   62.1890   33.8470   49.3830 C   0  0  0  0  0  0  0  0  0  0  0  0
   64.5054   33.2204   50.3660 H   0  0  0  0  0  0  0  0  0  0  0  0
   64.9192   32.1721   48.9672 H   0  0  0  0  0  0  0  0  0  0  0  0
   65.4030   33.9020   48.9672 H   0  0  0  0  0  0  0  0  0  0  0  0
   64.1195   33.3118   46.6106 H   0  0  0  0  0  0  0  0  0  0  0  0
   61.9632   33.8621   45.4938 H   0  0  0  0  0  0  0  0  0  0  0  0
   60.7383   32.0508   47.0886 H   0  0  0  0  0  0  0  0  0  0  0  0
   61.1567   29.6570   46.5371 H   0  0  0  0  0  0  0  0  0  0  0  0
   59.4772   28.3572   45.2326 H   0  0  0  0  0  0  0  0  0  0  0  0
   58.4788   27.5810   46.2076 H   0  0  0  0  0  0  0  0  0  0  0  0
   59.2147   25.4601   47.2753 H   0  0  0  0  0  0  0  0  0  0  0  0
   58.1930   22.5720   47.1310 H   0  0  0  0  0  0  0  0  0  0  0  0
   54.8918   23.2490   47.7630 H   0  0  0  0  0  0  0  0  0  0  0  0
   54.1194   23.7210   46.2114 H   0  0  0  0  0  0  0  0  0  0  0  0
   55.5234   22.6005   46.2114 H   0  0  0  0  0  0  0  0  0  0  0  0
   56.9625   31.8711   44.9591 H   0  0  0  0  0  0  0  0  0  0  0  0
   60.0842   34.3677   49.3621 H   0  0  0  0  0  0  0  0  0  0  0  0
   62.2514   33.8414   50.4812 H   0  0  0  0  0  0  0  0  0  0  0  0
  1  2  1  0
  2  3  2  0
  3  4  1  0
  4  5  2  0
  5  6  1  0
  6  7  1  0
  7  8  2  0
  7  9  1  0
  9 10  2  0
 10 11  1  0
 11 12  2  0
 12 13  1  0
 13 14  1  0
 14 15  2  0
 14 16  2  0
 14 17  1  0
 17 18  1  0
 18 19  2  0
 19 20  1  0
 20 21  2  0
 21 22  1  0
 21 23  1  0
 23 24  1  0
 23 25  1  0
 25 26  2  0
 13 27  2  0
  5 28  1  0
 28 29  2  0
 29  2  1  0
 27  9  1  0
 25 18  1  0
  1 30  1  0
  1 31  1  0
  1 32  1  0
  3 33  1  0
  4 34  1  0
 10 35  1  0
 11 36  1  0
 12 37  1  0
 19 38  1  0
 20 39  1  0
 22 40  1  0
 24 41  1  0
 24 42  1  0
 24 43  1  0
 27 44  1  0
 28 45  1  0
 29 46  1  0
M  CHG  2   6  -1  17  -1
M  END
>  <UniqueID>  (43) 
41

>  <SMILES>  (43) 
Cc1ccc([N-]C(=O)c2cccc(S(=O)(=O)[N-]c3ccc(O)n(C)c3=O)c2)cc1

>  <Energy>  (43) 
59.16695892985736

>  <Genealogy>  (43) 
Cc1ccc([N-]C(=O)c2cccc(S(=O)(=O)[N-]c3ccc(O)n(C)c3=O)c2)cc1 (protonated)
Cc1ccc([N-]C(=O)c2cccc(S(=O)(=O)[N-]c3ccc(O)n(C)c3=O)c2)cc1 (3D coordinates assigned)
Cc1ccc([N-]C(=O)c2cccc(S(=O)(=O)[N-]c3ccc(O)n(C)c3=O)c2)cc1 (optimized conformer: 59.16695892985736 kcal/mol)

>  <smiles>  (43) 
Cc1ccc(NC(=O)c2cccc(S(=O)(=O)Nc3ccc(O)n(C)c3=O)c2)cc1

>  <score_type>  (43) 
oracle

>  <origin>  (43) 
adg

>  <m_score__min__energy>  (43) 
-12.93

>  <m_primary>  (43) 
energy

$$$$
43:0
     RDKit          3D

 52 55  0  0  0  0  0  0  0  0999 V2000
   57.4560   22.5150   46.9800 N   0  0  0  0  0  0  0  0  0  0  0  0
   58.2070   23.1170   45.5440 S   0  0  0  0  0  0  0  0  0  0  0  0
   57.6420   22.3830   44.3610 O   0  0  0  0  0  0  0  0  0  0  0  0
   59.6880   22.8820   45.6170 O   0  0  0  0  0  0  0  0  0  0  0  0
   57.8940   24.8430   45.3850 C   0  0  0  0  0  0  0  0  0  0  0  0
   57.5530   25.6020   46.5120 C   0  0  0  0  0  0  0  0  0  0  0  0
   57.3110   26.9730   46.3910 C   0  0  0  0  0  0  0  0  0  0  0  0
   57.4180   27.6080   45.1410 C   0  0  0  0  0  0  0  0  0  0  0  0
   57.1630   29.0200   45.0210 N   0  0  0  0  0  0  0  0  0  0  0  0
   58.0620   30.0140   45.1460 C   0  0  0  0  0  0  0  0  0  0  0  0
   57.4030   31.2140   44.9580 C   0  0  0  0  0  0  0  0  0  0  0  0
   58.0300   32.5510   44.9800 C   0  0  0  0  0  0  0  0  0  0  0  0
   57.5330   33.4660   44.2690 O   0  0  0  0  0  0  0  0  0  0  0  0
   59.2050   32.8570   45.8290 C   0  0  0  0  0  0  0  0  0  0  0  0
   59.9490   31.8340   46.4420 C   0  0  0  0  0  0  0  0  0  0  0  0
   61.0660   32.1410   47.2260 C   0  0  0  0  0  0  0  0  0  0  0  0
   61.4640   33.4720   47.3980 C   0  0  0  0  0  0  0  0  0  0  0  0
   62.8880   33.8570   48.3700 S   0  0  0  0  0  0  0  0  0  0  0  0
   63.9000   34.5600   47.5090 O   0  0  0  0  0  0  0  0  0  0  0  0
   62.4910   34.7910   49.4790 O   0  0  0  0  0  0  0  0  0  0  0  0
   63.6110   32.4170   49.0520 N   0  0  0  0  0  0  0  0  0  0  0  0
   62.7100   31.7630   50.0300 C   0  0  0  0  0  0  0  0  0  0  0  0
   63.1430   32.0100   51.4830 C   0  0  0  0  0  0  0  0  0  0  0  0
   64.5110   31.5210   51.7340 N   0  0  0  0  0  0  0  0  0  0  0  0
   65.4110   31.6350   50.5700 C   0  0  0  0  0  0  0  0  0  0  0  0
   64.9550   32.7200   49.5850 C   0  0  0  0  0  0  0  0  0  0  0  0
   60.7320   34.4960   46.7830 C   0  0  0  0  0  0  0  0  0  0  0  0
   59.6160   34.1910   45.9980 C   0  0  0  0  0  0  0  0  0  0  0  0
   56.1000   30.9830   44.6930 N   0  0  0  0  0  0  0  0  0  0  0  0
   55.9950   29.6400   44.7440 C   0  0  0  0  0  0  0  0  0  0  0  0
   54.8030   28.9720   44.4930 O   0  0  0  0  0  0  0  0  0  0  0  0
   57.7600   26.8410   44.0140 C   0  0  0  0  0  0  0  0  0  0  0  0
   58.0010   25.4690   44.1370 C   0  0  0  0  0  0  0  0  0  0  0  0
   57.7760   21.5270   47.1000 H   0  0  0  0  0  0  0  0  0  0  0  0
   57.4754   25.1168   47.4962 H   0  0  0  0  0  0  0  0  0  0  0  0
   57.0349   27.5595   47.2797 H   0  0  0  0  0  0  0  0  0  0  0  0
   59.1340   29.8923   45.3604 H   0  0  0  0  0  0  0  0  0  0  0  0
   59.6506   30.7843   46.3042 H   0  0  0  0  0  0  0  0  0  0  0  0
   61.6343   31.3328   47.7096 H   0  0  0  0  0  0  0  0  0  0  0  0
   61.6929   32.1587   49.8926 H   0  0  0  0  0  0  0  0  0  0  0  0
   62.7492   30.6788   49.8485 H   0  0  0  0  0  0  0  0  0  0  0  0
   63.1074   33.0903   51.6870 H   0  0  0  0  0  0  0  0  0  0  0  0
   62.4557   31.4616   52.1440 H   0  0  0  0  0  0  0  0  0  0  0  0
   64.9120   32.0820   52.5220 H   0  0  0  0  0  0  0  0  0  0  0  0
   66.4213   31.8835   50.9271 H   0  0  0  0  0  0  0  0  0  0  0  0
   65.3980   30.6717   50.0391 H   0  0  0  0  0  0  0  0  0  0  0  0
   64.9263   33.6891   50.1047 H   0  0  0  0  0  0  0  0  0  0  0  0
   65.6660   32.7546   48.7464 H   0  0  0  0  0  0  0  0  0  0  0  0
   61.0365   35.5443   46.9183 H   0  0  0  0  0  0  0  0  0  0  0  0
   59.0551   35.0010   45.5088 H   0  0  0  0  0  0  0  0  0  0  0  0
   57.8386   27.3232   43.0285 H   0  0  0  0  0  0  0  0  0  0  0  0
   58.2757   24.8793   43.2500 H   0  0  0  0  0  0  0  0  0  0  0  0
  1  2  1  0
  2  3  2  0
  2  4  2  0
  2  5  1  0
  5  6  2  0
  6  7  1  0
  7  8  2  0
  8  9  1  0
  9 10  1  0
 10 11  2  0
 11 12  1  0
 12 13  2  0
 12 14  1  0
 14 15  2  0
 15 16  1  0
 16 17  2  0
 17 18  1  0
 18 19  2  0
 18 20  2  0
 18 21  1  0
 21 22  1  0
 22 23  1  0
 23 24  1  0
 24 25  1  0
 25 26  1  0
 17 27  1  0
 27 28  2  0
 11 29  1  0
 29 30  2  0
 30 31  1  0
  8 32  1  0
 32 33  2  0
 33  5  1  0
 30  9  1  0
 28 14  1  0
 26 21  1  0
  1 34  1  0
  6 35  1  0
  7 36  1  0
 10 37  1  0
 15 38  1  0
 16 39  1  0
 22 40  1  0
 22 41  1  0
 23 42  1  0
 23 43  1  0
 24 44  1  0
 25 45  1  0
 25 46  1  0
 26 47  1  0
 26 48  1  0
 27 49  1  0
 28 50  1  0
 32 51  1  0
 33 52  1  0
M  CHG  2   1  -1  31  -1
M  END
>  <UniqueID>  (44) 
42

>  <SMILES>  (44) 
[NH-]S(=O)(=O)c1ccc(-n2cc(C(=O)c3ccc(S(=O)(=O)N4CCNCC4)cc3)nc2[O-])cc1

>  <Energy>  (44) 
101.55926690172556

>  <Genealogy>  (44) 
[NH-]S(=O)(=O)c1ccc(-n2cc(C(=O)c3ccc(S(=O)(=O)N4CCNCC4)cc3)nc2[O-])cc1 (protonated)
[NH-]S(=O)(=O)c1ccc(-n2cc(C(=O)c3ccc(S(=O)(=O)N4CCNCC4)cc3)nc2[O-])cc1 (3D coordinates assigned)
[NH-]S(=O)(=O)c1ccc(-n2cc(C(=O)c3ccc(S(=O)(=O)N4CCNCC4)cc3)nc2[O-])cc1 (nonaromatic ring conformer: 101.55926690172556 kcal/mol)

>  <smiles>  (44) 
NS(=O)(=O)c1ccc(-n2cc(C(=O)c3ccc(S(=O)(=O)N4CCNCC4)cc3)nc2O)cc1

>  <score_type>  (44) 
oracle

>  <origin>  (44) 
adg

>  <m_score__min__energy>  (44) 
-14.52

>  <m_primary>  (44) 
energy

$$$$
44:0
     RDKit          3D

 82 87  0  0  0  0  0  0  0  0999 V2000
   62.6780   34.5220   50.9860 H   0  0  0  0  0  0  0  0  0  0  0  0
   63.7160   34.6480   50.9970 N   0  0  0  0  0  0  0  0  0  0  0  0
   64.5880   33.5320   50.8330 C   0  0  0  0  0  0  0  0  0  0  0  0
   65.8000   33.7240   50.5490 O   0  0  0  0  0  0  0  0  0  0  0  0
   64.0700   32.1670   50.9910 C   0  0  0  0  0  0  0  0  0  0  0  0
   62.7730   31.8320   50.8290 N   0  0  0  0  0  0  0  0  0  0  0  0
   62.6710   30.5310   51.0450 N   0  0  0  0  0  0  0  0  0  0  0  0
   61.4150   29.7920   50.9680 C   0  0  0  0  0  0  0  0  0  0  0  0
   61.0523   29.5786   51.9843 H   0  0  0  0  0  0  0  0  0  0  0  0
   60.6675   30.3943   50.4308 H   0  0  0  0  0  0  0  0  0  0  0  0
   61.5785   28.8461   50.4308 H   0  0  0  0  0  0  0  0  0  0  0  0
   63.8830   30.0270   51.3520 C   0  0  0  0  0  0  0  0  0  0  0  0
   64.0810   28.7640   51.6090 N   0  0  0  0  0  0  0  0  0  0  0  0
   63.5250   27.9680   52.6680 C   0  0  0  0  0  0  0  0  0  0  0  0
   63.8320   28.1740   53.8730 O   0  0  0  0  0  0  0  0  0  0  0  0
   62.6020   26.8420   52.2980 C   0  0  0  0  0  0  0  0  0  0  0  0
   62.4061   26.8900   51.2167 H   0  0  0  0  0  0  0  0  0  0  0  0
   63.0974   25.9023   52.5836 H   0  0  0  0  0  0  0  0  0  0  0  0
   61.2830   26.8980   53.0290 C   0  0  0  0  0  0  0  0  0  0  0  0
   60.3210   25.8950   52.8270 C   0  0  0  0  0  0  0  0  0  0  0  0
   60.5333   25.0619   52.1408 H   0  0  0  0  0  0  0  0  0  0  0  0
   59.0950   25.9520   53.4950 C   0  0  0  0  0  0  0  0  0  0  0  0
   58.3500   25.1584   53.3366 H   0  0  0  0  0  0  0  0  0  0  0  0
   58.8070   27.0120   54.3650 C   0  0  0  0  0  0  0  0  0  0  0  0
   57.5520   27.0340   54.9910 O   0  0  0  0  0  0  0  0  0  0  0  0
   56.5960   28.0550   54.8740 C   0  0  0  0  0  0  0  0  0  0  0  0
   55.5060   28.0010   55.5060 O   0  0  0  0  0  0  0  0  0  0  0  0
   56.9010   29.2360   54.0570 C   0  0  0  0  0  0  0  0  0  0  0  0
   57.9280   30.4900   54.5090 S   0  0  0  0  0  0  0  0  0  0  0  0
   57.7030   31.4150   53.1150 C   0  0  0  0  0  0  0  0  0  0  0  0
   58.3060   32.7690   52.8370 C   0  0  1  0  0  0  0  0  0  0  0  0
   57.6084   33.4842   53.2972 H   0  0  0  0  0  0  0  0  0  0  0  0
   59.6550   32.8730   53.3820 N   0  0  0  0  0  0  0  0  0  0  0  0
   59.9060   32.7430   54.3860 H   0  0  0  0  0  0  0  0  0  0  0  0
   60.4890   33.2000   52.4610 C   0  0  0  0  0  0  0  0  0  0  0  0
   61.8880   33.3550   52.7130 N   0  0  0  0  0  0  0  0  0  0  0  0
   62.5400   33.6680   51.9580 H   0  0  0  0  0  0  0  0  0  0  0  0
   62.2910   33.0680   53.6310 H   0  0  0  0  0  0  0  0  0  0  0  0
   59.9000   33.3410   51.1800 N   0  0  0  0  0  0  0  0  0  0  0  0
   60.6200   33.7260   49.9580 C   0  0  0  0  0  0  0  0  0  0  0  0
   60.8791   34.7931   50.0223 H   0  0  0  0  0  0  0  0  0  0  0  0
   61.5189   33.0960   49.8863 H   0  0  0  0  0  0  0  0  0  0  0  0
   59.8010   33.5010   48.7120 C   0  0  0  0  0  0  0  0  0  0  0  0
   59.2610   32.2340   48.4410 C   0  0  0  0  0  0  0  0  0  0  0  0
   59.4617   31.3953   49.1238 H   0  0  0  0  0  0  0  0  0  0  0  0
   58.4680   32.0340   47.3050 C   0  0  0  0  0  0  0  0  0  0  0  0
   58.0253   31.0450   47.1156 H   0  0  0  0  0  0  0  0  0  0  0  0
   58.2330   33.0880   46.4040 C   0  0  0  0  0  0  0  0  0  0  0  0
   57.3810   32.8800   45.2130 C   0  0  0  0  0  0  0  0  0  0  0  0
   57.0940   33.8550   44.4640 O   0  0  0  0  0  0  0  0  0  0  0  0
   56.8500   31.5790   44.9290 N   0  0  0  0  0  0  0  0  0  0  0  0
   57.4990   30.6110   44.0550 C   0  0  0  0  0  0  0  0  0  0  0  0
   56.9500   30.5514   43.1037 H   0  0  0  0  0  0  0  0  0  0  0  0
   58.5346   30.9290   43.8641 H   0  0  0  0  0  0  0  0  0  0  0  0
   57.5060   29.2610   44.7130 C   0  0  0  0  0  0  0  0  0  0  0  0
   58.7240   28.5920   44.9070 C   0  0  0  0  0  0  0  0  0  0  0  0
   59.6670   29.0756   44.6122 H   0  0  0  0  0  0  0  0  0  0  0  0
   58.7450   27.3140   45.4730 C   0  0  0  0  0  0  0  0  0  0  0  0
   59.7036   26.7975   45.6289 H   0  0  0  0  0  0  0  0  0  0  0  0
   57.5480   26.6920   45.8410 C   0  0  0  0  0  0  0  0  0  0  0  0
   57.5651   25.6872   46.2884 H   0  0  0  0  0  0  0  0  0  0  0  0
   56.3280   27.3480   45.6400 C   0  0  0  0  0  0  0  0  0  0  0  0
   55.1370   26.7250   45.9990 O   0  0  0  0  0  0  0  0  0  0  0  0
   56.3050   28.6290   45.0760 C   0  0  0  0  0  0  0  0  0  0  0  0
   55.3449   29.1416   44.9168 H   0  0  0  0  0  0  0  0  0  0  0  0
   58.8000   34.3480   46.6650 C   0  0  0  0  0  0  0  0  0  0  0  0
   58.6413   35.1758   45.9582 H   0  0  0  0  0  0  0  0  0  0  0  0
   59.5640   34.5550   47.8170 C   0  0  0  0  0  0  0  0  0  0  0  0
   59.9823   35.5512   48.0233 H   0  0  0  0  0  0  0  0  0  0  0  0
   58.4800   33.0370   51.3220 C   0  0  0  0  0  0  0  0  0  0  0  0
   58.2094   32.1478   50.7337 H   0  0  0  0  0  0  0  0  0  0  0  0
   57.8339   33.8494   50.9580 H   0  0  0  0  0  0  0  0  0  0  0  0
   56.8000   30.7540   52.2880 C   0  0  0  0  0  0  0  0  0  0  0  0
   56.4639   31.1537   51.3199 H   0  0  0  0  0  0  0  0  0  0  0  0
   56.3610   29.5310   52.8080 C   0  0  0  0  0  0  0  0  0  0  0  0
   55.6585   28.8681   52.2817 H   0  0  0  0  0  0  0  0  0  0  0  0
   59.7890   27.9920   54.6050 C   0  0  0  0  0  0  0  0  0  0  0  0
   59.5887   28.8063   55.3169 H   0  0  0  0  0  0  0  0  0  0  0  0
   61.0200   27.9330   53.9400 C   0  0  0  0  0  0  0  0  0  0  0  0
   61.7839   28.7008   54.1323 H   0  0  0  0  0  0  0  0  0  0  0  0
   64.8190   31.0490   51.3260 C   0  0  0  0  0  0  0  0  0  0  0  0
   65.8993   30.9878   51.5240 H   0  0  0  0  0  0  0  0  0  0  0  0
  1  2  1  0
  2  3  1  0
  3  4  2  0
  3  5  1  0
  5  6  1  0
  6  7  1  0
  7  8  1  0
  8  9  1  0
  8 10  1  0
  8 11  1  0
  7 12  1  0
 12 13  2  0
 13 14  1  0
 14 15  2  0
 14 16  1  0
 16 17  1  0
 16 18  1  0
 16 19  1  0
 19 20  2  0
 20 21  1  0
 20 22  1  0
 22 23  1  0
 22 24  2  0
 24 25  1  0
 25 26  1  0
 26 27  2  0
 26 28  1  0
 28 29  1  0
 29 30  1  0
 30 31  1  0
 31 32  1  1
 31 33  1  0
 33 34  1  0
 33 35  2  0
 35 36  1  0
 36 37  1  0
 36 38  1  0
 35 39  1  0
 39 40  1  0
 40 41  1  0
 40 42  1  0
 40 43  1  0
 43 44  2  0
 44 45  1  0
 44 46  1  0
 46 47  1  0
 46 48  2  0
 48 49  1  0
 49 50  2  0
 49 51  1  0
 51 52  1  0
 52 53  1  0
 52 54  1  0
 52 55  1  0
 55 56  2  0
 56 57  1  0
 56 58  1  0
 58 59  1  0
 58 60  2  0
 60 61  1  0
 60 62  1  0
 62 63  1  0
 62 64  2  0
 64 65  1  0
 48 66  1  0
 66 67  1  0
 66 68  2  0
 68 69  1  0
 39 70  1  0
 70 71  1  0
 70 72  1  0
 30 73  2  0
 73 74  1  0
 73 75  1  0
 75 76  1  0
 24 77  1  0
 77 78  1  0
 77 79  2  0
 79 80  1  0
 12 81  1  0
 81 82  1  0
 81  5  2  0
 79 19  1  0
 75 28  2  0
 70 31  1  0
 68 43  1  0
 64 55  1  0
M  CHG  5   2  -1   6  -1  33   1  51  -1  63  -1
M  END
>  <UniqueID>  (45) 
43

>  <SMILES>  (45) 
Cn1[n-]c(C([NH-])=O)c/c1=N\C(=O)Cc1ccc(OC(=O)c2ccc([C@@H]3CN(Cc4ccc(C(=O)[N-]Cc5cccc([O-])c5)cc4)C(N)=[NH+]3)s2)cc1

>  <Energy>  (45) 
162.86676882446415

>  <Genealogy>  (45) 
Cn1[n-]c(C([NH-])=O)cc1=NC(=O)Cc1ccc(OC(=O)c2ccc(C3CN(Cc4ccc(C(=O)[N-]Cc5cccc([O-])c5)cc4)C(N)=[NH+]3)s2)cc1 (protonated)
Cn1[n-]c(C([NH-])=O)cc1=NC(=O)Cc1ccc(OC(=O)c2ccc([C@@H]3CN(Cc4ccc(C(=O)[N-]Cc5cccc([O-])c5)cc4)C(N)=[NH+]3)s2)cc1 (chirality)
Cn1[n-]c(C([NH-])=O)c/c1=N\C(=O)Cc1ccc(OC(=O)c2ccc([C@@H]3CN(Cc4ccc(C(=O)[N-]Cc5cccc([O-])c5)cc4)C(N)=[NH+]3)s2)cc1 (cis-trans isomerization)
Cn1[n-]c(C([NH-])=O)c/c1=N\C(=O)Cc1ccc(OC(=O)c2ccc([C@@H]3CN(Cc4ccc(C(=O)[N-]Cc5cccc([O-])c5)cc4)C(N)=[NH+]3)s2)cc1 (3D coordinates assigned)
Cn1[n-]c(C([NH-])=O)c/c1=N\C(=O)Cc1ccc(OC(=O)c2ccc([C@@H]3CN(Cc4ccc(C(=O)[N-]Cc5cccc([O-])c5)cc4)C(N)=[NH+]3)s2)cc1 (nonaromatic ring conformer: 162.86676882446415 kcal/mol)

>  <smiles>  (45) 
Cn1[nH]c(C(N)=O)cc1=NC(=O)Cc1ccc(OC(=O)c2ccc(C3CN(Cc4ccc(C(=O)NCc5cccc(O)c5)cc4)C(N)=N3)s2)cc1

>  <score_type>  (45) 
oracle

>  <origin>  (45) 
adg

>  <m_score__min__energy>  (45) 
-20.390000000000001

>  <m_primary>  (45) 
energy

$$$$
45:0
     RDKit          3D

 46 48  0  0  0  0  0  0  0  0999 V2000
   59.6990   28.2500   46.5910 C   0  0  0  0  0  0  0  0  0  0  0  0
   58.4890   28.3650   46.0240 C   0  0  0  0  0  0  0  0  0  0  0  0
   57.3810   27.5150   46.1710 C   0  0  0  0  0  0  0  0  0  0  0  0
   57.2820   26.3050   46.7510 C   0  0  0  0  0  0  0  0  0  0  0  0
   56.4670   25.1810   46.2650 C   0  0  0  0  0  0  0  0  0  0  0  0
   56.8960   23.9000   46.2550 N   0  0  0  0  0  0  0  0  0  0  0  0
   55.8050   23.2010   45.8730 C   0  0  0  0  0  0  0  0  0  0  0  0
   55.8050   21.9470   45.7530 O   0  0  0  0  0  0  0  0  0  0  0  0
   54.7160   23.9680   45.6560 N   0  0  0  0  0  0  0  0  0  0  0  0
   53.3580   23.5270   45.3570 C   0  0  0  0  0  0  0  0  0  0  0  0
   55.1260   25.2130   45.9410 C   0  0  0  0  0  0  0  0  0  0  0  0
   54.3020   26.3350   45.9450 O   0  0  0  0  0  0  0  0  0  0  0  0
   56.3030   28.1000   45.6030 N   0  0  0  0  0  0  0  0  0  0  0  0
   56.7740   29.2510   45.0910 C   0  0  0  0  0  0  0  0  0  0  0  0
   56.0400   30.0760   44.4850 O   0  0  0  0  0  0  0  0  0  0  0  0
   58.0930   29.4410   45.3020 N   0  0  0  0  0  0  0  0  0  0  0  0
   58.8520   30.6510   44.9610 C   0  0  0  0  0  0  0  0  0  0  0  0
   58.8350   31.6110   46.1120 C   0  0  0  0  0  0  0  0  0  0  0  0
   57.8900   32.4420   46.2080 O   0  0  0  0  0  0  0  0  0  0  0  0
   59.8580   31.5620   47.1150 N   0  0  0  0  0  0  0  0  0  0  0  0
   59.7920   32.3650   48.3010 C   0  0  0  0  0  0  0  0  0  0  0  0
   59.4790   31.7590   49.5390 C   0  0  0  0  0  0  0  0  0  0  0  0
   59.1970   30.2840   49.6200 C   0  0  0  0  0  0  0  0  0  0  0  0
   59.4000   32.5500   50.6960 C   0  0  0  0  0  0  0  0  0  0  0  0
   59.6310   33.9250   50.6290 C   0  0  0  0  0  0  0  0  0  0  0  0
   59.9500   34.5250   49.4110 C   0  0  0  0  0  0  0  0  0  0  0  0
   60.0520   33.7530   48.2430 C   0  0  0  0  0  0  0  0  0  0  0  0
   60.4050   34.4260   46.9440 C   0  0  0  0  0  0  0  0  0  0  0  0
   60.4776   28.9985   46.3823 H   0  0  0  0  0  0  0  0  0  0  0  0
   59.9128   27.4072   47.2648 H   0  0  0  0  0  0  0  0  0  0  0  0
   57.8625   26.1417   47.6710 H   0  0  0  0  0  0  0  0  0  0  0  0
   52.8145   23.3505   46.2969 H   0  0  0  0  0  0  0  0  0  0  0  0
   52.8403   24.3032   44.7743 H   0  0  0  0  0  0  0  0  0  0  0  0
   53.3952   22.5948   44.7743 H   0  0  0  0  0  0  0  0  0  0  0  0
   59.8921   30.3757   44.7322 H   0  0  0  0  0  0  0  0  0  0  0  0
   58.3906   31.1306   44.0852 H   0  0  0  0  0  0  0  0  0  0  0  0
   60.5940   30.8240   47.0610 H   0  0  0  0  0  0  0  0  0  0  0  0
   59.1387   29.9792   50.6753 H   0  0  0  0  0  0  0  0  0  0  0  0
   58.2408   30.0656   49.1220 H   0  0  0  0  0  0  0  0  0  0  0  0
   60.0052   29.7283   49.1220 H   0  0  0  0  0  0  0  0  0  0  0  0
   59.1545   32.0834   51.6614 H   0  0  0  0  0  0  0  0  0  0  0  0
   59.5612   34.5375   51.5400 H   0  0  0  0  0  0  0  0  0  0  0  0
   60.1228   35.6104   49.3653 H   0  0  0  0  0  0  0  0  0  0  0  0
   60.9068   35.3827   47.1512 H   0  0  0  0  0  0  0  0  0  0  0  0
   61.0785   33.7764   46.3657 H   0  0  0  0  0  0  0  0  0  0  0  0
   59.4877   34.6108   46.3657 H   0  0  0  0  0  0  0  0  0  0  0  0
  1  2  2  0
  2  3  1  0
  3  4  2  3
  4  5  1  0
  5  6  1  0
  6  7  1  0
  7  8  2  0
  7  9  1  0
  9 10  1  0
  9 11  1  0
 11 12  1  0
  3 13  1  0
 13 14  1  0
 14 15  2  0
 14 16  1  0
 16 17  1  0
 17 18  1  0
 18 19  2  0
 18 20  1  0
 20 21  1  0
 21 22  2  0
 22 23  1  0
 22 24  1  0
 24 25  2  0
 25 26  1  0
 26 27  2  0
 27 28  1  0
 16  2  1  0
 27 21  1  0
 11  5  2  0
  1 29  1  0
  1 30  1  0
  4 31  1  0
 10 32  1  0
 10 33  1  0
 10 34  1  0
 17 35  1  0
 17 36  1  0
 20 37  1  0
 23 38  1  0
 23 39  1  0
 23 40  1  0
 24 41  1  0
 25 42  1  0
 26 43  1  0
 28 44  1  0
 28 45  1  0
 28 46  1  0
M  CHG  3   6  -1  12  -1  13  -1
M  END
>  <UniqueID>  (46) 
44

>  <SMILES>  (46) 
C=c1c(=Cc2[n-]c(=O)n(C)c2[O-])[n-]c(=O)n1CC(=O)Nc1c(C)cccc1C

>  <Energy>  (46) 
127.77725514184122

>  <Genealogy>  (46) 
C=c1c(=Cc2[n-]c(=O)n(C)c2[O-])[n-]c(=O)n1CC(=O)Nc1c(C)cccc1C (protonated)
C=c1c(=Cc2[n-]c(=O)n(C)c2[O-])[n-]c(=O)n1CC(=O)Nc1c(C)cccc1C (3D coordinates assigned)
C=c1c(=Cc2[n-]c(=O)n(C)c2[O-])[n-]c(=O)n1CC(=O)Nc1c(C)cccc1C (optimized conformer: 127.77725514184122 kcal/mol)

>  <smiles>  (46) 
C=c1c(=Cc2[nH]c(=O)n(C)c2O)[nH]c(=O)n1CC(=O)Nc1c(C)cccc1C

>  <score_type>  (46) 
oracle

>  <origin>  (46) 
adg

>  <m_score__min__energy>  (46) 
-15.82

>  <m_primary>  (46) 
energy

$$$$
46:0
     RDKit          3D

 65 68  0  0  0  0  0  0  0  0999 V2000
   64.5110   32.7280   49.2260 C   0  0  0  0  0  0  0  0  0  0  0  0
   63.1340   32.9200   48.6620 C   0  0  0  0  0  0  0  0  0  0  0  0
   62.6890   32.1120   47.6040 C   0  0  0  0  0  0  0  0  0  0  0  0
   61.4200   32.3110   47.0500 C   0  0  0  0  0  0  0  0  0  0  0  0
   60.5860   33.3240   47.5430 C   0  0  0  0  0  0  0  0  0  0  0  0
   59.0020   33.6100   46.8250 S   0  0  0  0  0  0  0  0  0  0  0  0
   58.5220   34.9770   47.2230 O   0  0  0  0  0  0  0  0  0  0  0  0
   58.0140   32.5950   47.3330 O   0  0  0  0  0  0  0  0  0  0  0  0
   59.0970   33.5260   45.0880 N   0  0  0  0  0  0  0  0  0  0  0  0
   57.7640   33.4560   44.4850 C   0  0  0  0  0  0  0  0  0  0  0  0
   57.6630   32.2450   43.5550 C   0  0  0  0  0  0  0  0  0  0  0  0
   57.6180   30.9770   44.3520 C   0  0  0  0  0  0  0  0  0  0  0  0
   56.6540   30.7850   45.1440 O   0  0  0  0  0  0  0  0  0  0  0  0
   58.6020   29.9530   44.1360 N   0  0  0  0  0  0  0  0  0  0  0  0
   58.7730   28.8010   44.9810 C   0  0  0  0  0  0  0  0  0  0  0  0
   58.4690   27.5290   44.4720 C   0  0  0  0  0  0  0  0  0  0  0  0
   58.6410   26.3920   45.2630 C   0  0  0  0  0  0  0  0  0  0  0  0
   59.1330   26.5100   46.5640 C   0  0  0  0  0  0  0  0  0  0  0  0
   59.4740   27.7700   47.0820 C   0  0  0  0  0  0  0  0  0  0  0  0
   59.9990   27.8970   48.4590 C   0  0  0  0  0  0  0  0  0  0  0  0
   60.4530   26.8740   49.0420 O   0  0  0  0  0  0  0  0  0  0  0  0
   60.0080   29.1630   49.1440 N   0  0  0  0  0  0  0  0  0  0  0  0
   61.1300   29.4850   50.0370 C   0  0  0  0  0  0  0  0  0  0  0  0
   61.1050   30.9580   50.4610 C   0  0  0  0  0  0  0  0  0  0  0  0
   59.7720   31.3380   50.9500 N   0  0  0  0  0  0  0  0  0  0  0  0
   59.6300   32.3980   51.9200 C   0  0  0  0  0  0  0  0  0  0  0  0
   60.5570   32.5390   52.9690 C   0  0  0  0  0  0  0  0  0  0  0  0
   60.4350   33.5870   53.8860 C   0  0  0  0  0  0  0  0  0  0  0  0
   59.3870   34.5050   53.7690 C   0  0  0  0  0  0  0  0  0  0  0  0
   58.4560   34.3710   52.7380 C   0  0  0  0  0  0  0  0  0  0  0  0
   58.5770   33.3260   51.8140 C   0  0  0  0  0  0  0  0  0  0  0  0
   58.5660   30.7650   50.3290 C   0  0  0  0  0  0  0  0  0  0  0  0
   58.8900   30.1030   48.9880 C   0  0  0  0  0  0  0  0  0  0  0  0
   59.2900   28.9120   46.2860 C   0  0  0  0  0  0  0  0  0  0  0  0
   61.0380   34.1480   48.5840 C   0  0  0  0  0  0  0  0  0  0  0  0
   62.3070   33.9500   49.1390 C   0  0  0  0  0  0  0  0  0  0  0  0
   64.4614   32.7349   50.3249 H   0  0  0  0  0  0  0  0  0  0  0  0
   64.9166   31.7646   48.8833 H   0  0  0  0  0  0  0  0  0  0  0  0
   65.1646   33.5437   48.8833 H   0  0  0  0  0  0  0  0  0  0  0  0
   63.3409   31.3190   47.2088 H   0  0  0  0  0  0  0  0  0  0  0  0
   61.0755   31.6704   46.2248 H   0  0  0  0  0  0  0  0  0  0  0  0
   57.0102   33.3657   45.2810 H   0  0  0  0  0  0  0  0  0  0  0  0
   57.5880   34.3710   43.9003 H   0  0  0  0  0  0  0  0  0  0  0  0
   56.7468   32.3267   42.9517 H   0  0  0  0  0  0  0  0  0  0  0  0
   58.5463   32.2235   42.8997 H   0  0  0  0  0  0  0  0  0  0  0  0
   59.1850   30.0160   43.2700 H   0  0  0  0  0  0  0  0  0  0  0  0
   58.0929   27.4275   43.4433 H   0  0  0  0  0  0  0  0  0  0  0  0
   58.3882   25.4002   44.8601 H   0  0  0  0  0  0  0  0  0  0  0  0
   59.2542   25.6114   47.1867 H   0  0  0  0  0  0  0  0  0  0  0  0
   61.0648   28.8533   50.9351 H   0  0  0  0  0  0  0  0  0  0  0  0
   62.0682   29.2977   49.4941 H   0  0  0  0  0  0  0  0  0  0  0  0
   61.8415   31.1150   51.2628 H   0  0  0  0  0  0  0  0  0  0  0  0
   61.3508   31.5804   49.5879 H   0  0  0  0  0  0  0  0  0  0  0  0
   61.3833   31.8197   53.0682 H   0  0  0  0  0  0  0  0  0  0  0  0
   61.1656   33.6897   54.7019 H   0  0  0  0  0  0  0  0  0  0  0  0
   59.2964   35.3319   54.4887 H   0  0  0  0  0  0  0  0  0  0  0  0
   57.6259   35.0875   52.6512 H   0  0  0  0  0  0  0  0  0  0  0  0
   57.8440   33.2296   50.9995 H   0  0  0  0  0  0  0  0  0  0  0  0
   58.1383   30.0111   51.0063 H   0  0  0  0  0  0  0  0  0  0  0  0
   57.8488   31.5794   50.1490 H   0  0  0  0  0  0  0  0  0  0  0  0
   58.0046   29.5583   48.6282 H   0  0  0  0  0  0  0  0  0  0  0  0
   59.1727   30.8802   48.2627 H   0  0  0  0  0  0  0  0  0  0  0  0
   59.5522   29.9027   46.6857 H   0  0  0  0  0  0  0  0  0  0  0  0
   60.3925   34.9528   48.9655 H   0  0  0  0  0  0  0  0  0  0  0  0
   62.6580   34.6031   49.9515 H   0  0  0  0  0  0  0  0  0  0  0  0
  1  2  1  0
  2  3  2  0
  3  4  1  0
  4  5  2  0
  5  6  1  0
  6  7  2  0
  6  8  2  0
  6  9  1  0
  9 10  1  0
 10 11  1  0
 11 12  1  0
 12 13  2  0
 12 14  1  0
 14 15  1  0
 15 16  2  0
 16 17  1  0
 17 18  2  0
 18 19  1  0
 19 20  1  0
 20 21  2  0
 20 22  1  0
 22 23  1  0
 23 24  1  0
 24 25  1  0
 25 26  1  0
 26 27  2  0
 27 28  1  0
 28 29  2  0
 29 30  1  0
 30 31  2  0
 25 32  1  0
 32 33  1  0
 19 34  2  0
  5 35  1  0
 35 36  2  0
 36  2  1  0
 34 15  1  0
 33 22  1  0
 31 26  1  0
  1 37  1  0
  1 38  1  0
  1 39  1  0
  3 40  1  0
  4 41  1  0
 10 42  1  0
 10 43  1  0
 11 44  1  0
 11 45  1  0
 14 46  1  0
 16 47  1  0
 17 48  1  0
 18 49  1  0
 23 50  1  0
 23 51  1  0
 24 52  1  0
 24 53  1  0
 27 54  1  0
 28 55  1  0
 29 56  1  0
 30 57  1  0
 31 58  1  0
 32 59  1  0
 32 60  1  0
 33 61  1  0
 33 62  1  0
 34 63  1  0
 35 64  1  0
 36 65  1  0
M  CHG  1   9  -1
M  END
>  <UniqueID>  (47) 
45

>  <SMILES>  (47) 
Cc1ccc(S(=O)(=O)[N-]CCC(=O)Nc2cccc(C(=O)N3CCN(c4ccccc4)CC3)c2)cc1

>  <Energy>  (47) 
74.8782766263278

>  <Genealogy>  (47) 
Cc1ccc(S(=O)(=O)[N-]CCC(=O)Nc2cccc(C(=O)N3CCN(c4ccccc4)CC3)c2)cc1 (protonated)
Cc1ccc(S(=O)(=O)[N-]CCC(=O)Nc2cccc(C(=O)N3CCN(c4ccccc4)CC3)c2)cc1 (3D coordinates assigned)
Cc1ccc(S(=O)(=O)[N-]CCC(=O)Nc2cccc(C(=O)N3CCN(c4ccccc4)CC3)c2)cc1 (nonaromatic ring conformer: 74.8782766263278 kcal/mol)

>  <smiles>  (47) 
Cc1ccc(S(=O)(=O)NCCC(=O)Nc2cccc(C(=O)N3CCN(c4ccccc4)CC3)c2)cc1

>  <score_type>  (47) 
oracle

>  <origin>  (47) 
adg

>  <m_score__min__energy>  (47) 
-11.65

>  <m_primary>  (47) 
energy

$$$$
47:0
     RDKit          3D

 59 62  0  0  0  0  0  0  0  0999 V2000
   57.0090   21.5330   42.9520 C   0  0  0  0  0  0  0  0  0  0  0  0
   55.9860   21.6940   43.9300 O   0  0  0  0  0  0  0  0  0  0  0  0
   56.2020   21.6590   45.3170 C   0  0  0  0  0  0  0  0  0  0  0  0
   56.8540   20.5780   45.9440 C   0  0  0  0  0  0  0  0  0  0  0  0
   57.0520   20.5800   47.3270 C   0  0  0  0  0  0  0  0  0  0  0  0
   56.6200   21.6620   48.0950 C   0  0  0  0  0  0  0  0  0  0  0  0
   55.9730   22.7390   47.4840 C   0  0  0  0  0  0  0  0  0  0  0  0
   55.7370   22.7290   46.0980 C   0  0  0  0  0  0  0  0  0  0  0  0
   55.0840   23.8340   45.4580 N   0  0  0  0  0  0  0  0  0  0  0  0
   55.5170   25.2000   45.4960 C   0  0  0  0  0  0  0  0  0  0  0  0
   54.7420   26.0670   45.9820 O   0  0  0  0  0  0  0  0  0  0  0  0
   56.9260   25.5920   45.1240 C   0  0  0  0  0  0  0  0  0  0  0  0
   57.8940   25.2040   46.1750 N   0  0  0  0  0  0  0  0  0  0  0  0
   59.2890   25.4050   45.7230 C   0  0  0  0  0  0  0  0  0  0  0  0
   59.6140   26.8970   45.5450 C   0  0  0  0  0  0  0  0  0  0  0  0
   59.0540   27.6760   46.6520 N   0  0  0  0  0  0  0  0  0  0  0  0
   58.9940   29.1040   46.5680 C   0  0  0  0  0  0  0  0  0  0  0  0
   58.9130   29.8760   47.7350 C   0  0  0  0  0  0  0  0  0  0  0  0
   58.8050   31.2680   47.6460 C   0  0  0  0  0  0  0  0  0  0  0  0
   58.7380   31.8970   46.3920 C   0  0  0  0  0  0  0  0  0  0  0  0
   58.6010   33.3210   46.3370 N   0  0  0  0  0  0  0  0  0  0  0  0
   59.7830   34.4270   46.9560 S   0  0  0  0  0  0  0  0  0  0  0  0
   59.9670   35.5470   45.9660 O   0  0  0  0  0  0  0  0  0  0  0  0
   59.2710   35.0140   48.2420 O   0  0  0  0  0  0  0  0  0  0  0  0
   61.3210   33.6270   47.2760 C   0  0  0  0  0  0  0  0  0  0  0  0
   61.4810   32.8010   48.3990 C   0  0  0  0  0  0  0  0  0  0  0  0
   62.7110   32.1810   48.6390 C   0  0  0  0  0  0  0  0  0  0  0  0
   63.7720   32.4010   47.7540 C   0  0  0  0  0  0  0  0  0  0  0  0
   63.5990   33.2040   46.6660 N   0  0  0  0  0  0  0  0  0  0  0  0
   62.4080   33.8140   46.4100 C   0  0  0  0  0  0  0  0  0  0  0  0
   58.8360   31.1220   45.2240 C   0  0  0  0  0  0  0  0  0  0  0  0
   58.9730   29.7340   45.3130 C   0  0  0  0  0  0  0  0  0  0  0  0
   58.5860   26.9920   47.8560 C   0  0  0  0  0  0  0  0  0  0  0  0
   57.6070   25.8600   47.4830 C   0  0  0  0  0  0  0  0  0  0  0  0
   57.9757   21.3809   43.4542 H   0  0  0  0  0  0  0  0  0  0  0  0
   56.7810   20.6597   42.3232 H   0  0  0  0  0  0  0  0  0  0  0  0
   57.0603   22.4341   42.3232 H   0  0  0  0  0  0  0  0  0  0  0  0
   57.2086   19.7287   45.3415 H   0  0  0  0  0  0  0  0  0  0  0  0
   57.5495   19.7269   47.8115 H   0  0  0  0  0  0  0  0  0  0  0  0
   56.7889   21.6670   49.1819 H   0  0  0  0  0  0  0  0  0  0  0  0
   55.6471   23.5977   48.0893 H   0  0  0  0  0  0  0  0  0  0  0  0
   57.1997   25.0910   44.1838 H   0  0  0  0  0  0  0  0  0  0  0  0
   56.9608   26.6856   45.0103 H   0  0  0  0  0  0  0  0  0  0  0  0
   59.9724   24.9771   46.4713 H   0  0  0  0  0  0  0  0  0  0  0  0
   59.4119   24.9065   44.7502 H   0  0  0  0  0  0  0  0  0  0  0  0
   60.7057   27.0303   45.5235 H   0  0  0  0  0  0  0  0  0  0  0  0
   59.1722   27.2488   44.6011 H   0  0  0  0  0  0  0  0  0  0  0  0
   58.9343   29.3876   48.7204 H   0  0  0  0  0  0  0  0  0  0  0  0
   58.7724   31.8735   48.5637 H   0  0  0  0  0  0  0  0  0  0  0  0
   60.6398   32.6415   49.0896 H   0  0  0  0  0  0  0  0  0  0  0  0
   62.8430   31.5275   49.5139 H   0  0  0  0  0  0  0  0  0  0  0  0
   64.7470   31.9255   47.9363 H   0  0  0  0  0  0  0  0  0  0  0  0
   62.2988   34.4544   45.5223 H   0  0  0  0  0  0  0  0  0  0  0  0
   58.8048   31.6086   44.2380 H   0  0  0  0  0  0  0  0  0  0  0  0
   59.0647   29.1326   44.3965 H   0  0  0  0  0  0  0  0  0  0  0  0
   59.4483   26.5649   48.3889 H   0  0  0  0  0  0  0  0  0  0  0  0
   58.0660   27.7168   48.4997 H   0  0  0  0  0  0  0  0  0  0  0  0
   57.6521   25.0928   48.2700 H   0  0  0  0  0  0  0  0  0  0  0  0
   56.6129   26.3220   47.3913 H   0  0  0  0  0  0  0  0  0  0  0  0
  1  2  1  0
  2  3  1  0
  3  4  2  0
  4  5  1  0
  5  6  2  0
  6  7  1  0
  7  8  2  0
  8  9  1  0
  9 10  1  0
 10 11  2  0
 10 12  1  0
 12 13  1  0
 13 14  1  0
 14 15  1  0
 15 16  1  0
 16 17  1  0
 17 18  2  0
 18 19  1  0
 19 20  2  0
 20 21  1  0
 21 22  1  0
 22 23  2  0
 22 24  2  0
 22 25  1  0
 25 26  2  0
 26 27  1  0
 27 28  2  0
 28 29  1  0
 29 30  2  0
 20 31  1  0
 31 32  2  0
 16 33  1  0
 33 34  1  0
  8  3  1  0
 34 13  1  0
 32 17  1  0
 30 25  1  0
  1 35  1  0
  1 36  1  0
  1 37  1  0
  4 38  1  0
  5 39  1  0
  6 40  1  0
  7 41  1  0
 12 42  1  0
 12 43  1  0
 14 44  1  0
 14 45  1  0
 15 46  1  0
 15 47  1  0
 18 48  1  0
 19 49  1  0
 26 50  1  0
 27 51  1  0
 28 52  1  0
 30 53  1  0
 31 54  1  0
 32 55  1  0
 33 56  1  0
 33 57  1  0
 34 58  1  0
 34 59  1  0
M  CHG  2   9  -1  21  -1
M  END
>  <UniqueID>  (48) 
46

>  <SMILES>  (48) 
COc1ccccc1[N-]C(=O)CN1CCN(c2ccc([N-]S(=O)(=O)c3cccnc3)cc2)CC1

>  <Energy>  (48) 
86.05107833254917

>  <Genealogy>  (48) 
COc1ccccc1[N-]C(=O)CN1CCN(c2ccc([N-]S(=O)(=O)c3cccnc3)cc2)CC1 (protonated)
COc1ccccc1[N-]C(=O)CN1CCN(c2ccc([N-]S(=O)(=O)c3cccnc3)cc2)CC1 (3D coordinates assigned)
COc1ccccc1[N-]C(=O)CN1CCN(c2ccc([N-]S(=O)(=O)c3cccnc3)cc2)CC1 (nonaromatic ring conformer: 86.05107833254917 kcal/mol)

>  <smiles>  (48) 
COc1ccccc1NC(=O)CN1CCN(c2ccc(NS(=O)(=O)c3cccnc3)cc2)CC1

>  <score_type>  (48) 
oracle

>  <origin>  (48) 
adg

>  <m_score__min__energy>  (48) 
-11.52

>  <m_primary>  (48) 
energy

$$$$
48:0
     RDKit          3D

 50 53  0  0  0  0  0  0  0  0999 V2000
   64.9417   32.7919   48.5673 H   0  0  0  0  0  0  0  0  0  0  0  0
   63.8940   32.9430   48.2680 C   0  0  0  0  0  0  0  0  0  0  0  0
   63.5970   33.4830   47.0190 C   0  0  0  0  0  0  0  0  0  0  0  0
   64.4112   33.7449   46.3273 H   0  0  0  0  0  0  0  0  0  0  0  0
   62.2690   33.6930   46.6420 C   0  0  0  0  0  0  0  0  0  0  0  0
   62.0433   34.0990   45.6449 H   0  0  0  0  0  0  0  0  0  0  0  0
   61.2130   33.3890   47.5290 C   0  0  0  0  0  0  0  0  0  0  0  0
   61.5250   32.8100   48.7770 C   0  0  0  0  0  0  0  0  0  0  0  0
   62.8620   32.5940   49.1390 C   0  0  0  0  0  0  0  0  0  0  0  0
   63.0986   32.1467   50.1157 H   0  0  0  0  0  0  0  0  0  0  0  0
   60.4780   32.4100   49.6630 N   0  0  0  0  0  0  0  0  0  0  0  0
   60.7120   31.9370   50.5660 H   0  0  0  0  0  0  0  0  0  0  0  0
   59.1070   32.6000   49.3130 C   0  0  0  0  0  0  0  0  0  0  0  0
   58.2060   32.1280   50.0520 O   0  0  0  0  0  0  0  0  0  0  0  0
   58.7170   33.4010   48.1050 C   0  0  0  0  0  0  0  0  0  0  0  0
   58.3391   34.3775   48.4421 H   0  0  0  0  0  0  0  0  0  0  0  0
   57.9535   32.8213   47.5655 H   0  0  0  0  0  0  0  0  0  0  0  0
   59.8280   33.6300   47.1680 N   0  0  0  0  0  0  0  0  0  0  0  0
   59.4710   34.1900   45.8910 C   0  0  0  0  0  0  0  0  0  0  0  0
   59.7350   35.4020   45.6500 O   0  0  0  0  0  0  0  0  0  0  0  0
   58.8520   33.3420   44.8190 C   0  0  0  0  0  0  0  0  0  0  0  0
   59.2058   32.3060   44.9259 H   0  0  0  0  0  0  0  0  0  0  0  0
   59.1428   33.7390   43.8352 H   0  0  0  0  0  0  0  0  0  0  0  0
   57.0290   33.3750   44.9600 S   0  0  0  0  0  0  0  0  0  0  0  0
   56.8360   31.6020   44.8060 C   0  0  0  0  0  0  0  0  0  0  0  0
   55.6620   30.9990   44.5270 N   0  0  0  0  0  0  0  0  0  0  0  0
   55.7380   29.6690   44.5410 N   0  0  0  0  0  0  0  0  0  0  0  0
   56.9710   29.2110   44.8520 C   0  0  0  0  0  0  0  0  0  0  0  0
   57.2460   27.9400   44.8960 N   0  0  0  0  0  0  0  0  0  0  0  0
   57.0160   27.0630   46.0090 C   0  0  0  0  0  0  0  0  0  0  0  0
   55.8350   26.7100   46.2690 O   0  0  0  0  0  0  0  0  0  0  0  0
   58.1410   26.6010   46.8970 C   0  0  0  0  0  0  0  0  0  0  0  0
   58.6977   25.8028   46.3843 H   0  0  0  0  0  0  0  0  0  0  0  0
   57.7105   26.2313   47.8393 H   0  0  0  0  0  0  0  0  0  0  0  0
   59.0850   27.7310   47.2160 C   0  0  0  0  0  0  0  0  0  0  0  0
   59.8820   28.2890   46.2030 C   0  0  0  0  0  0  0  0  0  0  0  0
   59.8168   27.8987   45.1766 H   0  0  0  0  0  0  0  0  0  0  0  0
   60.7580   29.3390   46.4950 C   0  0  0  0  0  0  0  0  0  0  0  0
   61.3867   29.7669   45.7002 H   0  0  0  0  0  0  0  0  0  0  0  0
   60.8360   29.8460   47.7960 C   0  0  0  0  0  0  0  0  0  0  0  0
   61.5299   30.6698   48.0192 H   0  0  0  0  0  0  0  0  0  0  0  0
   60.0380   29.3140   48.8180 C   0  0  0  0  0  0  0  0  0  0  0  0
   60.1510   29.8620   50.1050 O   0  0  0  0  0  0  0  0  0  0  0  0
   60.6700   29.1650   51.2350 C   0  0  0  0  0  0  0  0  0  0  0  0
   60.3125   29.6451   52.1579 H   0  0  0  0  0  0  0  0  0  0  0  0
   60.3286   28.1196   51.2095 H   0  0  0  0  0  0  0  0  0  0  0  0
   61.7694   29.1924   51.2095 H   0  0  0  0  0  0  0  0  0  0  0  0
   59.1560   28.2530   48.5210 C   0  0  0  0  0  0  0  0  0  0  0  0
   58.5205   27.8317   49.3139 H   0  0  0  0  0  0  0  0  0  0  0  0
   58.0580   30.4820   45.0930 S   0  0  0  0  0  0  0  0  0  0  0  0
  1  2  1  0
  2  3  2  0
  3  4  1  0
  3  5  1  0
  5  6  1  0
  5  7  2  0
  7  8  1  0
  8  9  2  0
  9 10  1  0
  8 11  1  0
 11 12  1  0
 11 13  1  0
 13 14  2  0
 13 15  1  0
 15 16  1  0
 15 17  1  0
 15 18  1  0
 18 19  1  0
 19 20  2  0
 19 21  1  0
 21 22  1  0
 21 23  1  0
 21 24  1  0
 24 25  1  0
 25 26  2  0
 26 27  1  0
 27 28  1  0
 28 29  2  0
 29 30  1  0
 30 31  2  0
 30 32  1  0
 32 33  1  0
 32 34  1  0
 32 35  1  0
 35 36  2  0
 36 37  1  0
 36 38  1  0
 38 39  1  0
 38 40  2  0
 40 41  1  0
 40 42  1  0
 42 43  1  0
 43 44  1  0
 44 45  1  0
 44 46  1  0
 44 47  1  0
 42 48  2  0
 48 49  1  0
 28 50  1  0
  9  2  1  0
 50 25  1  0
 18  7  1  0
 48 35  1  0
M  CHG  1  27  -1
M  END
>  <UniqueID>  (49) 
47

>  <SMILES>  (49) 
COc1cccc(CC(=O)/N=c2/[n-]nc(SCC(=O)N3CC(=O)Nc4ccccc43)s2)c1

>  <Energy>  (49) 
94.08658844712438

>  <Genealogy>  (49) 
COc1cccc(CC(=O)N=c2[n-]nc(SCC(=O)N3CC(=O)Nc4ccccc43)s2)c1 (protonated)
COc1cccc(CC(=O)/N=c2/[n-]nc(SCC(=O)N3CC(=O)Nc4ccccc43)s2)c1 (cis-trans isomerization)
COc1cccc(CC(=O)/N=c2/[n-]nc(SCC(=O)N3CC(=O)Nc4ccccc43)s2)c1 (3D coordinates assigned)
COc1cccc(CC(=O)/N=c2/[n-]nc(SCC(=O)N3CC(=O)Nc4ccccc43)s2)c1 (nonaromatic ring conformer: 94.08658844712438 kcal/mol)

>  <smiles>  (49) 
COc1cccc(CC(=O)N=c2[nH]nc(SCC(=O)N3CC(=O)Nc4ccccc43)s2)c1

>  <score_type>  (49) 
oracle

>  <origin>  (49) 
adg

>  <m_score__min__energy>  (49) 
-11.93

>  <m_primary>  (49) 
energy

$$$$
49:0
     RDKit          3D

 37 38  0  0  0  0  0  0  0  0999 V2000
   56.2610   29.7210   42.7740 C   0  0  0  0  0  0  0  0  0  0  0  0
   55.9560   30.0680   44.1990 C   0  0  0  0  0  0  0  0  0  0  0  0
   55.1450   29.3520   44.8450 O   0  0  0  0  0  0  0  0  0  0  0  0
   56.5310   31.2130   44.8390 N   0  0  0  0  0  0  0  0  0  0  0  0
   57.9420   31.5880   44.7890 C   0  0  0  0  0  0  0  0  0  0  0  0
   58.7720   30.6690   45.6440 C   0  0  0  0  0  0  0  0  0  0  0  0
   58.6870   29.2770   45.4860 C   0  0  0  0  0  0  0  0  0  0  0  0
   59.4570   28.4270   46.2860 C   0  0  0  0  0  0  0  0  0  0  0  0
   59.3440   26.6890   46.0790 Cl  0  0  0  0  0  0  0  0  0  0  0  0
   60.3200   28.9630   47.2470 C   0  0  0  0  0  0  0  0  0  0  0  0
   60.4250   30.3520   47.4100 C   0  0  0  0  0  0  0  0  0  0  0  0
   61.3470   30.9150   48.4200 C   0  0  0  0  0  0  0  0  0  0  0  0
   61.6480   30.2190   49.4290 O   0  0  0  0  0  0  0  0  0  0  0  0
   61.9240   32.2260   48.2630 N   0  0  0  0  0  0  0  0  0  0  0  0
   62.3350   32.7010   46.9340 C   0  0  0  0  0  0  0  0  0  0  0  0
   63.4060   33.7940   47.0560 C   0  0  0  0  0  0  0  0  0  0  0  0
   64.3720   33.4490   48.1070 N   0  0  0  0  0  0  0  0  0  0  0  0
   63.7570   33.3910   49.4500 C   0  0  0  0  0  0  0  0  0  0  0  0
   62.2550   33.0420   49.4360 C   0  0  0  0  0  0  0  0  0  0  0  0
   59.6270   31.1990   46.6240 C   0  0  0  0  0  0  0  0  0  0  0  0
   56.9870   28.8951   42.7450 H   0  0  0  0  0  0  0  0  0  0  0  0
   55.3354   29.4136   42.2653 H   0  0  0  0  0  0  0  0  0  0  0  0
   56.6846   30.5995   42.2653 H   0  0  0  0  0  0  0  0  0  0  0  0
   58.2941   31.5279   43.7486 H   0  0  0  0  0  0  0  0  0  0  0  0
   58.0469   32.6141   45.1712 H   0  0  0  0  0  0  0  0  0  0  0  0
   58.0112   28.8525   44.7290 H   0  0  0  0  0  0  0  0  0  0  0  0
   60.9199   28.2914   47.8787 H   0  0  0  0  0  0  0  0  0  0  0  0
   62.7442   31.8569   46.3594 H   0  0  0  0  0  0  0  0  0  0  0  0
   61.4572   33.1215   46.4215 H   0  0  0  0  0  0  0  0  0  0  0  0
   63.9343   33.8925   46.0962 H   0  0  0  0  0  0  0  0  0  0  0  0
   62.9178   34.7443   47.3180 H   0  0  0  0  0  0  0  0  0  0  0  0
   64.7840   32.5110   47.8830 H   0  0  0  0  0  0  0  0  0  0  0  0
   64.2845   32.6267   50.0396 H   0  0  0  0  0  0  0  0  0  0  0  0
   63.8465   34.3972   49.8854 H   0  0  0  0  0  0  0  0  0  0  0  0
   62.0061   32.4805   50.3485 H   0  0  0  0  0  0  0  0  0  0  0  0
   61.6750   33.9757   49.3927 H   0  0  0  0  0  0  0  0  0  0  0  0
   59.6720   32.2873   46.7773 H   0  0  0  0  0  0  0  0  0  0  0  0
  1  2  1  0
  2  3  2  0
  2  4  1  0
  4  5  1  0
  5  6  1  0
  6  7  2  0
  7  8  1  0
  8  9  1  0
  8 10  2  0
 10 11  1  0
 11 12  1  0
 12 13  2  0
 12 14  1  0
 14 15  1  0
 15 16  1  0
 16 17  1  0
 17 18  1  0
 18 19  1  0
 11 20  2  0
 20  6  1  0
 19 14  1  0
  1 21  1  0
  1 22  1  0
  1 23  1  0
  5 24  1  0
  5 25  1  0
  7 26  1  0
 10 27  1  0
 15 28  1  0
 15 29  1  0
 16 30  1  0
 16 31  1  0
 17 32  1  0
 18 33  1  0
 18 34  1  0
 19 35  1  0
 19 36  1  0
 20 37  1  0
M  CHG  1   4  -1
M  END
>  <UniqueID>  (50) 
48

>  <SMILES>  (50) 
CC(=O)[N-]Cc1cc(Cl)cc(C(=O)N2CCNCC2)c1

>  <Energy>  (50) 
41.53886058974127

>  <Genealogy>  (50) 
CC(=O)[N-]Cc1cc(Cl)cc(C(=O)N2CCNCC2)c1 (protonated)
CC(=O)[N-]Cc1cc(Cl)cc(C(=O)N2CCNCC2)c1 (3D coordinates assigned)
CC(=O)[N-]Cc1cc(Cl)cc(C(=O)N2CCNCC2)c1 (nonaromatic ring conformer: 41.53886058974127 kcal/mol)

>  <smiles>  (50) 
CC(=O)NCc1cc(Cl)cc(C(=O)N2CCNCC2)c1

>  <score_type>  (50) 
oracle

>  <origin>  (50) 
adg

>  <m_score__min__energy>  (50) 
-9.5800000000000001

>  <m_primary>  (50) 
energy

$$$$
50:0
     RDKit          3D

 40 42  0  0  0  0  0  0  0  0999 V2000
   59.0440   27.1890   46.1780 O   0  0  0  0  0  0  0  0  0  0  0  0
   58.2040   27.4450   45.2730 C   0  0  0  0  0  0  0  0  0  0  0  0
   57.5330   26.2900   44.5770 C   0  0  0  0  0  0  0  0  0  0  0  0
   56.9380   25.3560   45.5840 C   0  0  0  0  0  0  0  0  0  0  0  0
   57.5400   24.2390   46.0270 N   0  0  0  0  0  0  0  0  0  0  0  0
   56.6380   23.7210   46.8880 C   0  0  0  0  0  0  0  0  0  0  0  0
   56.8390   22.6510   47.5200 O   0  0  0  0  0  0  0  0  0  0  0  0
   55.5030   24.4430   47.0240 N   0  0  0  0  0  0  0  0  0  0  0  0
   55.7110   25.4750   46.1910 C   0  0  0  0  0  0  0  0  0  0  0  0
   54.7990   26.5060   45.9950 O   0  0  0  0  0  0  0  0  0  0  0  0
   57.9400   28.8170   44.9110 N   0  0  0  0  0  0  0  0  0  0  0  0
   56.6880   29.2000   44.2490 C   0  0  0  0  0  0  0  0  0  0  0  0
   56.4180   30.6980   44.4240 C   0  0  0  0  0  0  0  0  0  0  0  0
   57.5470   31.5130   43.9170 N   0  0  0  0  0  0  0  0  0  0  0  0
   57.3740   32.9400   44.2740 C   0  0  0  0  0  0  0  0  0  0  0  0
   58.2450   33.3150   45.4460 C   0  0  0  0  0  0  0  0  0  0  0  0
   57.9530   32.8370   46.7350 C   0  0  0  0  0  0  0  0  0  0  0  0
   58.7410   33.2220   47.8240 C   0  0  0  0  0  0  0  0  0  0  0  0
   59.8280   34.0830   47.6350 C   0  0  0  0  0  0  0  0  0  0  0  0
   60.8160   34.5650   49.0020 Cl  0  0  0  0  0  0  0  0  0  0  0  0
   60.1230   34.5640   46.3540 C   0  0  0  0  0  0  0  0  0  0  0  0
   59.3340   34.1850   45.2640 C   0  0  0  0  0  0  0  0  0  0  0  0
   58.8910   31.0120   44.3200 C   0  0  0  0  0  0  0  0  0  0  0  0
   58.8540   29.8770   45.3550 C   0  0  0  0  0  0  0  0  0  0  0  0
   56.7369   26.6733   43.9218 H   0  0  0  0  0  0  0  0  0  0  0  0
   58.2806   25.7465   43.9805 H   0  0  0  0  0  0  0  0  0  0  0  0
   56.7619   28.9695   43.1760 H   0  0  0  0  0  0  0  0  0  0  0  0
   55.8606   28.6363   44.7048 H   0  0  0  0  0  0  0  0  0  0  0  0
   55.5064   30.9647   43.8692 H   0  0  0  0  0  0  0  0  0  0  0  0
   56.2958   30.9050   45.4974 H   0  0  0  0  0  0  0  0  0  0  0  0
   57.6475   33.5625   43.4093 H   0  0  0  0  0  0  0  0  0  0  0  0
   56.3228   33.1059   44.5523 H   0  0  0  0  0  0  0  0  0  0  0  0
   57.1015   32.1576   46.8877 H   0  0  0  0  0  0  0  0  0  0  0  0
   58.5061   32.8474   48.8312 H   0  0  0  0  0  0  0  0  0  0  0  0
   60.9769   35.2412   46.2048 H   0  0  0  0  0  0  0  0  0  0  0  0
   59.5663   34.5692   44.2598 H   0  0  0  0  0  0  0  0  0  0  0  0
   59.4057   30.6426   43.4208 H   0  0  0  0  0  0  0  0  0  0  0  0
   59.4146   31.8556   44.7935 H   0  0  0  0  0  0  0  0  0  0  0  0
   59.8648   29.4596   45.4731 H   0  0  0  0  0  0  0  0  0  0  0  0
   58.4994   30.2782   46.3159 H   0  0  0  0  0  0  0  0  0  0  0  0
  1  2  2  0
  2  3  1  0
  3  4  1  0
  4  5  1  0
  5  6  1  0
  6  7  2  0
  6  8  1  0
  8  9  1  0
  9 10  1  0
  2 11  1  0
 11 12  1  0
 12 13  1  0
 13 14  1  0
 14 15  1  0
 15 16  1  0
 16 17  2  0
 17 18  1  0
 18 19  2  0
 19 20  1  0
 19 21  1  0
 21 22  2  0
 14 23  1  0
 23 24  1  0
  9  4  2  0
 24 11  1  0
 22 16  1  0
  3 25  1  0
  3 26  1  0
 12 27  1  0
 12 28  1  0
 13 29  1  0
 13 30  1  0
 15 31  1  0
 15 32  1  0
 17 33  1  0
 18 34  1  0
 21 35  1  0
 22 36  1  0
 23 37  1  0
 23 38  1  0
 24 39  1  0
 24 40  1  0
M  CHG  3   5  -1   8  -1  10  -1
M  END
>  <UniqueID>  (51) 
49

>  <SMILES>  (51) 
O=C(Cc1[n-]c(=O)[n-]c1[O-])N1CCN(Cc2ccc(Cl)cc2)CC1

>  <Energy>  (51) 
77.38018364039756

>  <Genealogy>  (51) 
O=C(Cc1[n-]c(=O)[n-]c1[O-])N1CCN(Cc2ccc(Cl)cc2)CC1 (protonated)
O=C(Cc1[n-]c(=O)[n-]c1[O-])N1CCN(Cc2ccc(Cl)cc2)CC1 (3D coordinates assigned)
O=C(Cc1[n-]c(=O)[n-]c1[O-])N1CCN(Cc2ccc(Cl)cc2)CC1 (nonaromatic ring conformer: 77.38018364039756 kcal/mol)

>  <smiles>  (51) 
O=C(Cc1[nH]c(=O)[nH]c1O)N1CCN(Cc2ccc(Cl)cc2)CC1

>  <score_type>  (51) 
oracle

>  <origin>  (51) 
adg

>  <m_score__min__energy>  (51) 
-16.120000000000001

>  <m_primary>  (51) 
energy

$$$$
51:0
     RDKit          3D

 44 46  0  0  0  0  0  0  0  0999 V2000
   60.0571   33.3989   50.4368 H   0  0  0  0  0  0  0  0  0  0  0  0
   59.6010   33.3790   49.4360 C   0  0  0  0  0  0  0  0  0  0  0  0
   58.7070   32.3630   49.0960 C   0  0  0  0  0  0  0  0  0  0  0  0
   58.4639   31.5787   49.8280 H   0  0  0  0  0  0  0  0  0  0  0  0
   58.1200   32.3390   47.8290 C   0  0  0  0  0  0  0  0  0  0  0  0
   57.4208   31.5314   47.5665 H   0  0  0  0  0  0  0  0  0  0  0  0
   58.4160   33.3390   46.8870 C   0  0  0  0  0  0  0  0  0  0  0  0
   57.6430   33.2890   45.2960 S   0  0  0  0  0  0  0  0  0  0  0  0
   56.7180   34.4610   45.1240 O   0  0  0  0  0  0  0  0  0  0  0  0
   58.7060   33.3410   44.2350 O   0  0  0  0  0  0  0  0  0  0  0  0
   56.7270   31.8290   45.0900 N   0  0  0  0  0  0  0  0  0  0  0  0
   57.2850   30.5310   44.8400 C   0  0  0  0  0  0  0  0  0  0  0  0
   56.8680   29.8320   43.7030 C   0  0  0  0  0  0  0  0  0  0  0  0
   56.1200   30.2774   43.0305 H   0  0  0  0  0  0  0  0  0  0  0  0
   57.3960   28.5720   43.4170 C   0  0  0  0  0  0  0  0  0  0  0  0
   57.0561   28.0264   42.5244 H   0  0  0  0  0  0  0  0  0  0  0  0
   58.3550   27.9990   44.2590 C   0  0  0  0  0  0  0  0  0  0  0  0
   58.8470   26.7760   43.9370 F   0  0  0  0  0  0  0  0  0  0  0  0
   58.7970   28.6890   45.4070 C   0  0  0  0  0  0  0  0  0  0  0  0
   59.8320   28.1170   46.3080 C   0  0  0  0  0  0  0  0  0  0  0  0
   60.5030   27.1150   45.9390 O   0  0  0  0  0  0  0  0  0  0  0  0
   60.0620   28.7210   47.5940 N   0  0  0  0  0  0  0  0  0  0  0  0
   60.8290   29.7340   47.8780 C   0  0  0  0  0  0  0  0  0  0  0  0
   61.4290   30.8780   46.7970 S   0  0  0  0  0  0  0  0  0  0  0  0
   62.2640   31.7370   47.9890 C   0  0  0  0  0  0  0  0  0  0  0  0
   63.0760   32.9470   47.7350 C   0  0  0  0  0  0  0  0  0  0  0  0
   63.7430   33.0570   46.6720 O   0  0  0  0  0  0  0  0  0  0  0  0
   63.1220   34.0580   48.7380 C   0  0  0  0  0  0  0  0  0  0  0  0
   63.1045   33.6360   49.7537 H   0  0  0  0  0  0  0  0  0  0  0  0
   64.0450   34.6399   48.5985 H   0  0  0  0  0  0  0  0  0  0  0  0
   62.2503   34.7142   48.5985 H   0  0  0  0  0  0  0  0  0  0  0  0
   62.0430   31.0920   49.2170 C   0  0  0  0  0  0  0  0  0  0  0  0
   62.6170   31.5470   50.5260 C   0  0  0  0  0  0  0  0  0  0  0  0
   62.0481   31.0960   51.3524 H   0  0  0  0  0  0  0  0  0  0  0  0
   63.6699   31.2355   50.5928 H   0  0  0  0  0  0  0  0  0  0  0  0
   62.5540   32.6432   50.5928 H   0  0  0  0  0  0  0  0  0  0  0  0
   61.2500   29.9870   49.1360 N   0  0  0  0  0  0  0  0  0  0  0  0
   60.9900   29.3950   49.9580 H   0  0  0  0  0  0  0  0  0  0  0  0
   58.2470   29.9550   45.6880 C   0  0  0  0  0  0  0  0  0  0  0  0
   58.5752   30.5012   46.5846 H   0  0  0  0  0  0  0  0  0  0  0  0
   59.3340   34.3570   47.2320 C   0  0  0  0  0  0  0  0  0  0  0  0
   59.8520   35.7350   46.0020 Br  0  0  0  0  0  0  0  0  0  0  0  0
   59.9160   34.3700   48.5050 C   0  0  0  0  0  0  0  0  0  0  0  0
   60.6260   35.1662   48.7733 H   0  0  0  0  0  0  0  0  0  0  0  0
  1  2  1  0
  2  3  2  0
  3  4  1  0
  3  5  1  0
  5  6  1  0
  5  7  2  0
  7  8  1  0
  8  9  2  0
  8 10  2  0
  8 11  1  0
 11 12  1  0
 12 13  2  0
 13 14  1  0
 13 15  1  0
 15 16  1  0
 15 17  2  0
 17 18  1  0
 17 19  1  0
 19 20  1  0
 20 21  2  0
 20 22  1  0
 22 23  2  0
 23 24  1  0
 24 25  1  0
 25 26  1  0
 26 27  2  0
 26 28  1  0
 28 29  1  0
 28 30  1  0
 28 31  1  0
 25 32  2  0
 32 33  1  0
 33 34  1  0
 33 35  1  0
 33 36  1  0
 32 37  1  0
 37 38  1  0
 19 39  2  0
 39 40  1  0
  7 41  1  0
 41 42  1  0
 41 43  2  0
 43 44  1  0
 43  2  1  0
 39 12  1  0
 37 23  1  0
M  CHG  1  11  -1
M  END
>  <UniqueID>  (52) 
50

>  <SMILES>  (52) 
CC(=O)c1s/c(=N\C(=O)c2cc([N-]S(=O)(=O)c3ccccc3Br)ccc2F)[nH]c1C

>  <Energy>  (52) 
84.85960559859356

>  <Genealogy>  (52) 
CC(=O)c1sc(=NC(=O)c2cc([N-]S(=O)(=O)c3ccccc3Br)ccc2F)[nH]c1C (protonated)
CC(=O)c1s/c(=N\C(=O)c2cc([N-]S(=O)(=O)c3ccccc3Br)ccc2F)[nH]c1C (cis-trans isomerization)
CC(=O)c1s/c(=N\C(=O)c2cc([N-]S(=O)(=O)c3ccccc3Br)ccc2F)[nH]c1C (3D coordinates assigned)
CC(=O)c1s/c(=N\C(=O)c2cc([N-]S(=O)(=O)c3ccccc3Br)ccc2F)[nH]c1C (optimized conformer: 84.85960559859356 kcal/mol)

>  <smiles>  (52) 
CC(=O)c1sc(=NC(=O)c2cc(NS(=O)(=O)c3ccccc3Br)ccc2F)[nH]c1C

>  <score_type>  (52) 
oracle

>  <origin>  (52) 
adg

>  <m_score__min__energy>  (52) 
-10.76

>  <m_primary>  (52) 
energy

$$$$
52:0
     RDKit          3D

 25 26  0  0  0  0  0  0  0  0999 V2000
   53.7331   28.8625   53.2245 H   0  0  0  0  0  0  0  0  0  0  0  0
   54.0600   29.7070   52.6000 C   0  0  0  0  0  0  0  0  0  0  0  0
   55.3580   30.0710   52.6690 C   0  0  0  0  0  0  0  0  0  0  0  0
   56.3660   29.1250   53.2050 C   0  0  0  0  0  0  0  0  0  0  0  0
   56.1180   28.1120   54.5320 S   0  0  0  0  0  0  0  0  0  0  0  0
   57.6640   27.4620   54.4430 C   0  0  0  0  0  0  0  0  0  0  0  0
   58.1100   26.5810   55.2230 O   0  0  0  0  0  0  0  0  0  0  0  0
   58.3900   27.9920   53.4380 N   0  0  0  0  0  0  0  0  0  0  0  0
   57.6730   28.9210   52.7510 C   0  0  0  0  0  0  0  0  0  0  0  0
   58.2380   29.6290   51.6980 O   0  0  0  0  0  0  0  0  0  0  0  0
   55.8270   31.4490   52.2680 C   0  0  0  0  0  0  0  0  0  0  0  0
   56.0296   32.0444   53.1705 H   0  0  0  0  0  0  0  0  0  0  0  0
   56.7468   31.3639   51.6707 H   0  0  0  0  0  0  0  0  0  0  0  0
   55.0463   31.9427   51.6707 H   0  0  0  0  0  0  0  0  0  0  0  0
   53.0460   30.3610   51.7460 C   0  0  0  0  0  0  0  0  0  0  0  0
   52.6750   29.8200   50.5020 C   0  0  0  0  0  0  0  0  0  0  0  0
   53.1221   28.8748   50.1602 H   0  0  0  0  0  0  0  0  0  0  0  0
   51.7400   30.4790   49.6980 C   0  0  0  0  0  0  0  0  0  0  0  0
   51.4413   30.0426   48.7335 H   0  0  0  0  0  0  0  0  0  0  0  0
   51.1840   31.6910   50.1170 C   0  0  0  0  0  0  0  0  0  0  0  0
   50.2540   32.3400   49.3140 O   0  0  0  0  0  0  0  0  0  0  0  0
   51.5710   32.2510   51.3410 C   0  0  0  0  0  0  0  0  0  0  0  0
   51.0290   33.4610   51.7580 O   0  0  0  0  0  0  0  0  0  0  0  0
   52.5060   31.5930   52.1470 C   0  0  0  0  0  0  0  0  0  0  0  0
   52.8198   32.0435   53.1002 H   0  0  0  0  0  0  0  0  0  0  0  0
  1  2  1  0
  2  3  2  0
  3  4  1  0
  4  5  1  0
  5  6  1  0
  6  7  2  0
  6  8  1  0
  8  9  1  0
  9 10  1  0
  3 11  1  0
 11 12  1  0
 11 13  1  0
 11 14  1  0
  2 15  1  0
 15 16  2  0
 16 17  1  0
 16 18  1  0
 18 19  1  0
 18 20  2  0
 20 21  1  0
 20 22  1  0
 22 23  1  0
 22 24  2  0
 24 25  1  0
  9  4  2  0
 24 15  1  0
M  CHG  4   8  -1  10  -1  21  -1  23  -1
M  END
>  <UniqueID>  (53) 
51

>  <SMILES>  (53) 
C/C(=C\c1ccc([O-])c([O-])c1)c1sc(=O)[n-]c1[O-]

>  <Energy>  (53) 
66.7448860564711

>  <Genealogy>  (53) 
CC(=Cc1ccc([O-])c([O-])c1)c1sc(=O)[n-]c1[O-] (protonated)
C/C(=C\c1ccc([O-])c([O-])c1)c1sc(=O)[n-]c1[O-] (cis-trans isomerization)
C/C(=C\c1ccc([O-])c([O-])c1)c1sc(=O)[n-]c1[O-] (3D coordinates assigned)
C/C(=C\c1ccc([O-])c([O-])c1)c1sc(=O)[n-]c1[O-] (optimized conformer: 66.7448860564711 kcal/mol)

>  <smiles>  (53) 
CC(=Cc1ccc(O)c(O)c1)c1sc(=O)[nH]c1O

>  <score_type>  (53) 
oracle

>  <origin>  (53) 
adg

>  <m_score__min__energy>  (53) 
-17.059999999999999

>  <m_primary>  (53) 
energy

$$$$
53:0
     RDKit          3D

 46 48  0  0  0  0  0  0  0  0999 V2000
   65.9520   28.8050   51.9940 C   0  0  0  0  0  0  0  0  0  0  0  0
   67.1270   29.5590   51.7140 O   0  0  0  0  0  0  0  0  0  0  0  0
   67.1400   30.9380   51.4550 C   0  0  0  0  0  0  0  0  0  0  0  0
   68.2100   31.7660   51.8400 C   0  0  0  0  0  0  0  0  0  0  0  0
   68.1820   33.1310   51.5440 C   0  0  0  0  0  0  0  0  0  0  0  0
   67.0870   33.6840   50.8770 C   0  0  0  0  0  0  0  0  0  0  0  0
   65.9930   32.8780   50.5150 C   0  0  0  0  0  0  0  0  0  0  0  0
   64.7990   33.4700   49.7880 C   0  0  0  0  0  0  0  0  0  0  0  0
   64.1740   32.5670   48.7840 N   0  0  0  0  0  0  0  0  0  0  0  0
   63.7990   33.2650   47.5200 C   0  0  0  0  0  0  0  0  0  0  0  0
   62.2830   33.4440   47.3570 C   0  0  0  0  0  0  0  0  0  0  0  0
   61.6120   32.1400   47.4520 N   0  0  0  0  0  0  0  0  0  0  0  0
   60.3640   31.9010   46.7640 C   0  0  0  0  0  0  0  0  0  0  0  0
   60.0980   30.6510   46.1780 C   0  0  0  0  0  0  0  0  0  0  0  0
   58.8900   30.4190   45.5130 C   0  0  0  0  0  0  0  0  0  0  0  0
   57.9200   31.4360   45.4260 C   0  0  0  0  0  0  0  0  0  0  0  0
   56.6650   31.2420   44.7540 N   0  0  0  0  0  0  0  0  0  0  0  0
   56.4880   30.4120   43.8060 C   0  0  0  0  0  0  0  0  0  0  0  0
   56.2630   29.3610   42.6060 S   0  0  0  0  0  0  0  0  0  0  0  0
   58.1830   32.6800   46.0110 C   0  0  0  0  0  0  0  0  0  0  0  0
   59.3910   32.9130   46.6730 C   0  0  0  0  0  0  0  0  0  0  0  0
   62.2120   31.0940   48.2920 C   0  0  0  0  0  0  0  0  0  0  0  0
   63.0920   31.7340   49.3720 C   0  0  0  0  0  0  0  0  0  0  0  0
   66.0460   31.4990   50.7870 C   0  0  0  0  0  0  0  0  0  0  0  0
   65.8211   28.7210   53.0829 H   0  0  0  0  0  0  0  0  0  0  0  0
   65.0786   29.3117   51.5577 H   0  0  0  0  0  0  0  0  0  0  0  0
   66.0487   27.7999   51.5577 H   0  0  0  0  0  0  0  0  0  0  0  0
   69.0704   31.3379   52.3752 H   0  0  0  0  0  0  0  0  0  0  0  0
   69.0259   33.7727   51.8375 H   0  0  0  0  0  0  0  0  0  0  0  0
   67.0801   34.7566   50.6332 H   0  0  0  0  0  0  0  0  0  0  0  0
   64.0364   33.7306   50.5366 H   0  0  0  0  0  0  0  0  0  0  0  0
   65.1740   34.3419   49.2319 H   0  0  0  0  0  0  0  0  0  0  0  0
   64.9340   31.8930   48.5220 H   0  0  0  0  0  0  0  0  0  0  0  0
   64.2712   34.2585   47.5155 H   0  0  0  0  0  0  0  0  0  0  0  0
   64.1468   32.6395   46.6847 H   0  0  0  0  0  0  0  0  0  0  0  0
   61.9066   34.1065   48.1504 H   0  0  0  0  0  0  0  0  0  0  0  0
   62.0746   33.8875   46.3721 H   0  0  0  0  0  0  0  0  0  0  0  0
   60.8471   29.8481   46.2432 H   0  0  0  0  0  0  0  0  0  0  0  0
   58.6966   29.4374   45.0557 H   0  0  0  0  0  0  0  0  0  0  0  0
   57.4319   33.4813   45.9490 H   0  0  0  0  0  0  0  0  0  0  0  0
   59.5830   33.8963   47.1271 H   0  0  0  0  0  0  0  0  0  0  0  0
   61.4137   30.5085   48.7715 H   0  0  0  0  0  0  0  0  0  0  0  0
   62.8300   30.4352   47.6643 H   0  0  0  0  0  0  0  0  0  0  0  0
   62.4629   32.3690   50.0131 H   0  0  0  0  0  0  0  0  0  0  0  0
   63.5612   30.9259   49.9523 H   0  0  0  0  0  0  0  0  0  0  0  0
   65.2149   30.8519   50.4698 H   0  0  0  0  0  0  0  0  0  0  0  0
  1  2  1  0
  2  3  1  0
  3  4  2  0
  4  5  1  0
  5  6  2  0
  6  7  1  0
  7  8  1  0
  8  9  1  0
  9 10  1  0
 10 11  1  0
 11 12  1  0
 12 13  1  0
 13 14  2  0
 14 15  1  0
 15 16  2  0
 16 17  1  0
 17 18  2  0
 18 19  2  0
 16 20  1  0
 20 21  2  0
 12 22  1  0
 22 23  1  0
  7 24  2  0
 24  3  1  0
 23  9  1  0
 21 13  1  0
  1 25  1  0
  1 26  1  0
  1 27  1  0
  4 28  1  0
  5 29  1  0
  6 30  1  0
  8 31  1  0
  8 32  1  0
  9 33  1  0
 10 34  1  0
 10 35  1  0
 11 36  1  0
 11 37  1  0
 14 38  1  0
 15 39  1  0
 20 40  1  0
 21 41  1  0
 22 42  1  0
 22 43  1  0
 23 44  1  0
 23 45  1  0
 24 46  1  0
M  CHG  1   9   1
M  END
>  <UniqueID>  (54) 
52

>  <SMILES>  (54) 
COc1cccc(C[NH+]2CCN(c3ccc(N=C=S)cc3)CC2)c1

>  <Energy>  (54) 
61.24343814151017

>  <Genealogy>  (54) 
COc1cccc(C[NH+]2CCN(c3ccc(N=C=S)cc3)CC2)c1 (protonated)
COc1cccc(C[NH+]2CCN(c3ccc(N=C=S)cc3)CC2)c1 (3D coordinates assigned)
COc1cccc(C[NH+]2CCN(c3ccc(N=C=S)cc3)CC2)c1 (nonaromatic ring conformer: 61.24343814151017 kcal/mol)

>  <smiles>  (54) 
COc1cccc(CN2CCN(c3ccc(N=C=S)cc3)CC2)c1

>  <score_type>  (54) 
oracle

>  <origin>  (54) 
adg

>  <m_score__min__energy>  (54) 
-5.7699999999999996

>  <m_primary>  (54) 
energy

$$$$
54:0
     RDKit          3D

 61 64  0  0  0  0  0  0  0  0999 V2000
   52.9250   28.2450   53.9020 C   0  0  0  0  0  0  0  0  0  0  0  0
   53.9070   28.9930   53.3750 C   0  0  0  0  0  0  0  0  0  0  0  0
   53.8020   30.2980   52.8620 C   0  0  0  0  0  0  0  0  0  0  0  0
   52.7220   31.0610   52.6020 C   0  0  0  0  0  0  0  0  0  0  0  0
   52.1070   31.2470   51.2780 C   0  0  0  0  0  0  0  0  0  0  0  0
   52.0920   30.3010   50.3220 N   0  0  0  0  0  0  0  0  0  0  0  0
   51.3200   30.8480   49.3560 C   0  0  0  0  0  0  0  0  0  0  0  0
   51.0770   30.2590   48.2700 O   0  0  0  0  0  0  0  0  0  0  0  0
   50.8170   32.0690   49.6500 N   0  0  0  0  0  0  0  0  0  0  0  0
   51.3130   32.3010   50.8770 C   0  0  0  0  0  0  0  0  0  0  0  0
   51.0210   33.4360   51.6270 O   0  0  0  0  0  0  0  0  0  0  0  0
   55.0990   30.7320   52.6340 C   0  0  0  0  0  0  0  0  0  0  0  0
   55.9320   29.6800   52.9550 C   0  0  0  0  0  0  0  0  0  0  0  0
   57.4020   29.7230   52.8660 C   0  0  0  0  0  0  0  0  0  0  0  0
   58.0370   28.6450   53.0350 O   0  0  0  0  0  0  0  0  0  0  0  0
   58.1110   30.9460   52.5690 N   0  0  0  0  0  0  0  0  0  0  0  0
   57.4100   32.0270   51.8500 C   0  0  0  0  0  0  0  0  0  0  0  0
   58.0970   33.3770   52.0720 C   0  0  0  0  0  0  0  0  0  0  0  0
   59.5340   33.2370   51.8360 N   0  0  0  0  0  0  0  0  0  0  0  0
   60.1290   33.7080   50.6050 C   0  0  0  0  0  0  0  0  0  0  0  0
   59.3870   34.1120   49.6650 O   0  0  0  0  0  0  0  0  0  0  0  0
   61.6220   33.6890   50.3950 C   0  0  0  0  0  0  0  0  0  0  0  0
   62.0790   32.3490   49.9600 N   0  0  0  0  0  0  0  0  0  0  0  0
   63.5410   32.2920   49.7530 C   0  0  0  0  0  0  0  0  0  0  0  0
   63.9960   33.1160   48.5280 C   0  0  0  0  0  0  0  0  0  0  0  0
   62.8840   33.3840   47.5920 N   0  0  0  0  0  0  0  0  0  0  0  0
   63.4060   33.8250   46.2890 C   0  0  0  0  0  0  0  0  0  0  0  0
   62.0340   32.1930   47.4360 C   0  0  0  0  0  0  0  0  0  0  0  0
   61.3410   31.8510   48.7740 C   0  0  0  0  0  0  0  0  0  0  0  0
   60.2070   32.2730   52.7100 C   0  0  0  0  0  0  0  0  0  0  0  0
   59.5840   30.8910   52.5040 C   0  0  0  0  0  0  0  0  0  0  0  0
   55.2140   28.6200   53.3910 N   0  0  0  0  0  0  0  0  0  0  0  0
   55.7570   27.3350   53.8490 C   0  0  0  0  0  0  0  0  0  0  0  0
   53.1427   27.2315   54.2700 H   0  0  0  0  0  0  0  0  0  0  0  0
   51.9025   28.6455   53.9659 H   0  0  0  0  0  0  0  0  0  0  0  0
   52.2617   31.5888   53.4502 H   0  0  0  0  0  0  0  0  0  0  0  0
   55.4047   31.7233   52.2680 H   0  0  0  0  0  0  0  0  0  0  0  0
   57.4069   31.7988   50.7739 H   0  0  0  0  0  0  0  0  0  0  0  0
   56.3820   32.0921   52.2361 H   0  0  0  0  0  0  0  0  0  0  0  0
   57.6814   34.1191   51.3745 H   0  0  0  0  0  0  0  0  0  0  0  0
   57.9258   33.7101   53.1063 H   0  0  0  0  0  0  0  0  0  0  0  0
   61.8863   34.4273   49.6236 H   0  0  0  0  0  0  0  0  0  0  0  0
   62.1134   33.9350   51.3479 H   0  0  0  0  0  0  0  0  0  0  0  0
   64.0402   32.6876   50.6498 H   0  0  0  0  0  0  0  0  0  0  0  0
   63.8127   31.2419   49.5699 H   0  0  0  0  0  0  0  0  0  0  0  0
   64.4036   34.0758   48.8781 H   0  0  0  0  0  0  0  0  0  0  0  0
   64.7566   32.5307   47.9905 H   0  0  0  0  0  0  0  0  0  0  0  0
   64.2377   34.5276   46.4460 H   0  0  0  0  0  0  0  0  0  0  0  0
   63.7649   32.9525   45.7234 H   0  0  0  0  0  0  0  0  0  0  0  0
   62.6057   34.3246   45.7234 H   0  0  0  0  0  0  0  0  0  0  0  0
   61.2688   32.3908   46.6710 H   0  0  0  0  0  0  0  0  0  0  0  0
   62.6613   31.3428   47.1299 H   0  0  0  0  0  0  0  0  0  0  0  0
   60.3374   32.3013   48.7727 H   0  0  0  0  0  0  0  0  0  0  0  0
   61.3027   30.7543   48.8505 H   0  0  0  0  0  0  0  0  0  0  0  0
   61.2778   32.2352   52.4612 H   0  0  0  0  0  0  0  0  0  0  0  0
   60.0898   32.5797   53.7599 H   0  0  0  0  0  0  0  0  0  0  0  0
   59.8841   30.5072   51.5178 H   0  0  0  0  0  0  0  0  0  0  0  0
   59.9401   30.2290   53.3071 H   0  0  0  0  0  0  0  0  0  0  0  0
   55.7667   27.3121   54.9487 H   0  0  0  0  0  0  0  0  0  0  0  0
   55.1282   26.5155   53.4707 H   0  0  0  0  0  0  0  0  0  0  0  0
   56.7829   27.2147   53.4707 H   0  0  0  0  0  0  0  0  0  0  0  0
  1  2  2  0
  2  3  1  0
  3  4  2  3
  4  5  1  0
  5  6  1  0
  6  7  1  0
  7  8  2  0
  7  9  1  0
  9 10  1  0
 10 11  1  0
  3 12  1  0
 12 13  2  0
 13 14  1  0
 14 15  2  0
 14 16  1  0
 16 17  1  0
 17 18  1  0
 18 19  1  0
 19 20  1  0
 20 21  2  0
 20 22  1  0
 22 23  1  0
 23 24  1  0
 24 25  1  0
 25 26  1  0
 26 27  1  0
 26 28  1  0
 28 29  1  0
 19 30  1  0
 30 31  1  0
 13 32  1  0
 32 33  1  0
 32  2  1  0
 10  5  2  0
 31 16  1  0
 29 23  1  0
  1 34  1  0
  1 35  1  0
  4 36  1  0
 12 37  1  0
 17 38  1  0
 17 39  1  0
 18 40  1  0
 18 41  1  0
 22 42  1  0
 22 43  1  0
 24 44  1  0
 24 45  1  0
 25 46  1  0
 25 47  1  0
 27 48  1  0
 27 49  1  0
 27 50  1  0
 28 51  1  0
 28 52  1  0
 29 53  1  0
 29 54  1  0
 30 55  1  0
 30 56  1  0
 31 57  1  0
 31 58  1  0
 33 59  1  0
 33 60  1  0
 33 61  1  0
M  CHG  3   6  -1   9  -1  11  -1
M  END
>  <UniqueID>  (55) 
53

>  <SMILES>  (55) 
C=c1c(=Cc2[n-]c(=O)[n-]c2[O-])cc(C(=O)N2CCN(C(=O)CN3CCN(C)CC3)CC2)n1C

>  <Energy>  (55) 
152.65347846959273

>  <Genealogy>  (55) 
C=c1c(=Cc2[n-]c(=O)[n-]c2[O-])cc(C(=O)N2CCN(C(=O)CN3CCN(C)CC3)CC2)n1C (protonated)
C=c1c(=Cc2[n-]c(=O)[n-]c2[O-])cc(C(=O)N2CCN(C(=O)CN3CCN(C)CC3)CC2)n1C (3D coordinates assigned)
C=c1c(=Cc2[n-]c(=O)[n-]c2[O-])cc(C(=O)N2CCN(C(=O)CN3CCN(C)CC3)CC2)n1C (nonaromatic ring conformer: 152.65347846959273 kcal/mol)

>  <smiles>  (55) 
C=c1c(=Cc2[nH]c(=O)[nH]c2O)cc(C(=O)N2CCN(C(=O)CN3CCN(C)CC3)CC2)n1C

>  <score_type>  (55) 
oracle

>  <origin>  (55) 
adg

>  <m_score__min__energy>  (55) 
-18.030000000000001

>  <m_primary>  (55) 
energy

$$$$
55:0
     RDKit          3D

 52 54  0  0  0  0  0  0  0  0999 V2000
   52.5210   30.9630   55.4990 C   0  0  0  0  0  0  0  0  0  0  0  0
   53.3770   30.5640   54.5440 C   0  0  0  0  0  0  0  0  0  0  0  0
   53.0570   30.2810   53.2100 C   0  0  0  0  0  0  0  0  0  0  0  0
   51.8300   30.3160   52.6450 C   0  0  0  0  0  0  0  0  0  0  0  0
   51.5260   30.7500   51.2620 C   0  0  0  0  0  0  0  0  0  0  0  0
   51.6050   29.9870   50.1570 N   0  0  0  0  0  0  0  0  0  0  0  0
   51.2790   30.8370   49.1600 C   0  0  0  0  0  0  0  0  0  0  0  0
   51.2350   30.4820   47.9540 O   0  0  0  0  0  0  0  0  0  0  0  0
   51.0050   32.0970   49.5590 N   0  0  0  0  0  0  0  0  0  0  0  0
   51.1700   32.0240   50.8900 C   0  0  0  0  0  0  0  0  0  0  0  0
   50.9970   33.1050   51.7470 O   0  0  0  0  0  0  0  0  0  0  0  0
   54.2570   29.9460   52.5930 C   0  0  0  0  0  0  0  0  0  0  0  0
   55.2450   30.0480   53.5510 C   0  0  0  0  0  0  0  0  0  0  0  0
   56.6770   29.8220   53.2670 C   0  0  0  0  0  0  0  0  0  0  0  0
   57.3780   29.2470   54.1460 O   0  0  0  0  0  0  0  0  0  0  0  0
   57.2320   30.0770   51.9510 N   0  0  0  0  0  0  0  0  0  0  0  0
   58.6690   29.6870   51.9200 C   0  0  0  0  0  0  0  0  0  0  0  0
   59.6020   30.8960   52.0730 C   0  0  0  0  0  0  0  0  0  0  0  0
   59.3910   31.8630   50.9730 N   0  0  0  0  0  0  0  0  0  0  0  0
   60.0450   33.1700   51.2010 C   0  0  0  0  0  0  0  0  0  0  0  0
   60.4130   33.4410   52.6730 C   0  0  0  0  0  0  0  0  0  0  0  0
   58.9790   33.9570   53.6060 S   0  0  0  0  0  0  0  0  0  0  0  0
   58.6000   32.7690   54.8780 C   0  0  0  0  0  0  0  0  0  0  0  0
   59.2660   35.2840   54.2490 O   0  0  0  0  0  0  0  0  0  0  0  0
   57.7990   34.1010   52.6880 O   0  0  0  0  0  0  0  0  0  0  0  0
   57.9970   31.9460   50.4760 C   0  0  0  0  0  0  0  0  0  0  0  0
   56.9850   31.4840   51.5350 C   0  0  0  0  0  0  0  0  0  0  0  0
   54.7100   30.3970   54.7460 N   0  0  0  0  0  0  0  0  0  0  0  0
   55.4280   30.5220   56.0180 C   0  0  0  0  0  0  0  0  0  0  0  0
   52.8859   31.1575   56.5183 H   0  0  0  0  0  0  0  0  0  0  0  0
   51.4551   31.0953   55.2618 H   0  0  0  0  0  0  0  0  0  0  0  0
   50.9821   29.9937   53.2672 H   0  0  0  0  0  0  0  0  0  0  0  0
   54.3930   29.6549   51.5410 H   0  0  0  0  0  0  0  0  0  0  0  0
   56.7410   29.4610   51.2600 H   0  0  0  0  0  0  0  0  0  0  0  0
   58.8629   28.9837   52.7432 H   0  0  0  0  0  0  0  0  0  0  0  0
   58.8723   29.2255   50.9424 H   0  0  0  0  0  0  0  0  0  0  0  0
   59.3964   31.3913   53.0334 H   0  0  0  0  0  0  0  0  0  0  0  0
   60.6439   30.5447   52.0396 H   0  0  0  0  0  0  0  0  0  0  0  0
   60.9673   33.2039   50.6024 H   0  0  0  0  0  0  0  0  0  0  0  0
   59.3196   33.9432   50.9077 H   0  0  0  0  0  0  0  0  0  0  0  0
   60.8196   32.5207   53.1176 H   0  0  0  0  0  0  0  0  0  0  0  0
   61.1609   34.2469   52.7050 H   0  0  0  0  0  0  0  0  0  0  0  0
   58.7471   33.2300   55.8658 H   0  0  0  0  0  0  0  0  0  0  0  0
   57.5538   32.4447   54.7768 H   0  0  0  0  0  0  0  0  0  0  0  0
   59.2651   31.8987   54.7768 H   0  0  0  0  0  0  0  0  0  0  0  0
   57.7773   32.9892   50.2048 H   0  0  0  0  0  0  0  0  0  0  0  0
   57.9053   31.2827   49.6033 H   0  0  0  0  0  0  0  0  0  0  0  0
   57.0676   32.1367   52.4166 H   0  0  0  0  0  0  0  0  0  0  0  0
   55.9777   31.5416   51.0968 H   0  0  0  0  0  0  0  0  0  0  0  0
   54.7211   30.3989   56.8517 H   0  0  0  0  0  0  0  0  0  0  0  0
   56.2049   29.7456   56.0784 H   0  0  0  0  0  0  0  0  0  0  0  0
   55.8968   31.5153   56.0784 H   0  0  0  0  0  0  0  0  0  0  0  0
  1  2  2  0
  2  3  1  0
  3  4  2  3
  4  5  1  0
  5  6  1  0
  6  7  1  0
  7  8  2  0
  7  9  1  0
  9 10  1  0
 10 11  1  0
  3 12  1  0
 12 13  2  0
 13 14  1  0
 14 15  2  0
 14 16  1  0
 16 17  1  0
 17 18  1  0
 18 19  1  0
 19 20  1  0
 20 21  1  0
 21 22  1  0
 22 23  1  0
 22 24  2  0
 22 25  2  0
 19 26  1  0
 26 27  1  0
 13 28  1  0
 28 29  1  0
 28  2  1  0
 10  5  2  0
 27 16  1  0
  1 30  1  0
  1 31  1  0
  4 32  1  0
 12 33  1  0
 16 34  1  0
 17 35  1  0
 17 36  1  0
 18 37  1  0
 18 38  1  0
 20 39  1  0
 20 40  1  0
 21 41  1  0
 21 42  1  0
 23 43  1  0
 23 44  1  0
 23 45  1  0
 26 46  1  0
 26 47  1  0
 27 48  1  0
 27 49  1  0
 29 50  1  0
 29 51  1  0
 29 52  1  0
M  CHG  4   6  -1   9  -1  11  -1  16   1
M  END
>  <UniqueID>  (56) 
54

>  <SMILES>  (56) 
C=c1c(=Cc2[n-]c(=O)[n-]c2[O-])cc(C(=O)[NH+]2CCN(CCS(C)(=O)=O)CC2)n1C

>  <Energy>  (56) 
129.29101037538038

>  <Genealogy>  (56) 
C=c1c(=Cc2[n-]c(=O)[n-]c2[O-])cc(C(=O)[NH+]2CCN(CCS(C)(=O)=O)CC2)n1C (protonated)
C=c1c(=Cc2[n-]c(=O)[n-]c2[O-])cc(C(=O)[NH+]2CCN(CCS(C)(=O)=O)CC2)n1C (3D coordinates assigned)
C=c1c(=Cc2[n-]c(=O)[n-]c2[O-])cc(C(=O)[NH+]2CCN(CCS(C)(=O)=O)CC2)n1C (nonaromatic ring conformer: 129.29101037538038 kcal/mol)

>  <smiles>  (56) 
C=c1c(=Cc2[nH]c(=O)[nH]c2O)cc(C(=O)N2CCN(CCS(C)(=O)=O)CC2)n1C

>  <score_type>  (56) 
oracle

>  <origin>  (56) 
adg

>  <m_score__min__energy>  (56) 
-15.94

>  <m_primary>  (56) 
energy

$$$$
56:0
     RDKit          3D

 42 44  0  0  0  0  0  0  0  0999 V2000
   59.4488   27.7555   45.4123 H   0  0  0  0  0  0  0  0  0  0  0  0
   58.4940   28.1990   45.7310 C   0  0  0  0  0  0  0  0  0  0  0  0
   57.3890   27.2730   46.0250 C   0  0  0  0  0  0  0  0  0  0  0  0
   56.0650   27.4570   45.6990 C   0  0  0  0  0  0  0  0  0  0  0  0
   55.5200   28.6090   45.1430 O   0  0  0  0  0  0  0  0  0  0  0  0
   55.3480   26.3540   45.9860 N   0  0  0  0  0  0  0  0  0  0  0  0
   56.2840   25.5070   46.4660 C   0  0  0  0  0  0  0  0  0  0  0  0
   56.0160   24.3350   46.8420 O   0  0  0  0  0  0  0  0  0  0  0  0
   57.5300   26.0200   46.4920 N   0  0  0  0  0  0  0  0  0  0  0  0
   58.4100   25.5360   46.7750 H   0  0  0  0  0  0  0  0  0  0  0  0
   58.4390   29.5440   45.8180 C   0  0  0  0  0  0  0  0  0  0  0  0
   58.8280   30.2280   46.9500 C   0  0  0  0  0  0  0  0  0  0  0  0
   59.2794   29.7941   47.8544 H   0  0  0  0  0  0  0  0  0  0  0  0
   58.5440   31.5570   46.7330 C   0  0  0  0  0  0  0  0  0  0  0  0
   58.7550   32.6010   47.7590 C   0  0  0  0  0  0  0  0  0  0  0  0
   58.1260   32.5260   48.8470 O   0  0  0  0  0  0  0  0  0  0  0  0
   59.7380   33.6360   47.6000 N   0  0  0  0  0  0  0  0  0  0  0  0
   61.0280   33.4800   47.5190 C   0  0  0  0  0  0  0  0  0  0  0  0
   61.7340   33.9540   46.4520 N   0  0  0  0  0  0  0  0  0  0  0  0
   63.0830   33.8140   46.3600 C   0  0  0  0  0  0  0  0  0  0  0  0
   63.6176   34.2024   45.4806 H   0  0  0  0  0  0  0  0  0  0  0  0
   63.7900   33.1770   47.3820 C   0  0  0  0  0  0  0  0  0  0  0  0
   64.8815   33.0589   47.3138 H   0  0  0  0  0  0  0  0  0  0  0  0
   63.0950   32.6920   48.4910 C   0  0  0  0  0  0  0  0  0  0  0  0
   63.6382   32.1902   49.3054 H   0  0  0  0  0  0  0  0  0  0  0  0
   61.7080   32.8450   48.5650 C   0  0  0  0  0  0  0  0  0  0  0  0
   61.1548   32.4694   49.4384 H   0  0  0  0  0  0  0  0  0  0  0  0
   58.0300   31.7510   45.4900 N   0  0  0  0  0  0  0  0  0  0  0  0
   57.7290   33.0810   44.9050 C   0  0  0  0  0  0  0  0  0  0  0  0
   57.2514   32.9053   43.9298 H   0  0  0  0  0  0  0  0  0  0  0  0
   56.7040   33.8600   45.7390 C   0  0  0  0  0  0  0  0  0  0  0  0
   56.9079   33.7050   46.8088 H   0  0  0  0  0  0  0  0  0  0  0  0
   56.7780   34.9319   45.5031 H   0  0  0  0  0  0  0  0  0  0  0  0
   55.6911   33.5017   45.5031 H   0  0  0  0  0  0  0  0  0  0  0  0
   59.0030   33.8830   44.6100 C   0  0  0  0  0  0  0  0  0  0  0  0
   59.4763   34.1809   45.5572 H   0  0  0  0  0  0  0  0  0  0  0  0
   59.7016   33.2615   44.0306 H   0  0  0  0  0  0  0  0  0  0  0  0
   58.7446   34.7817   44.0306 H   0  0  0  0  0  0  0  0  0  0  0  0
   57.9960   30.5140   44.9020 C   0  0  0  0  0  0  0  0  0  0  0  0
   57.7220   30.2940   43.6070 C   0  0  0  0  0  0  0  0  0  0  0  0
   57.3797   31.1220   42.9689 H   0  0  0  0  0  0  0  0  0  0  0  0
   57.8397   29.2856   43.1835 H   0  0  0  0  0  0  0  0  0  0  0  0
  1  2  1  0
  2  3  1  0
  3  4  2  0
  4  5  1  0
  4  6  1  0
  6  7  1  0
  7  8  2  0
  7  9  1  0
  9 10  1  0
  2 11  2  3
 11 12  1  0
 12 13  1  0
 12 14  2  0
 14 15  1  0
 15 16  2  0
 15 17  1  0
 17 18  2  0
 18 19  1  0
 19 20  1  0
 20 21  1  0
 20 22  2  0
 22 23  1  0
 22 24  1  0
 24 25  1  0
 24 26  2  0
 26 27  1  0
 14 28  1  0
 28 29  1  0
 29 30  1  0
 29 31  1  0
 31 32  1  0
 31 33  1  0
 31 34  1  0
 29 35  1  0
 35 36  1  0
 35 37  1  0
 35 38  1  0
 28 39  1  0
 39 40  2  0
 40 41  1  0
 40 42  1  0
  9  3  1  0
 39 11  1  0
 26 18  1  0
M  CHG  3   5  -1   6  -1  19  -1
M  END
>  <UniqueID>  (57) 
55

>  <SMILES>  (57) 
C=c1c(=Cc2[nH]c(=O)[n-]c2[O-])cc(C(=O)/N=c2/cccc[n-]2)n1C(C)C

>  <Energy>  (57) 
125.53332560858833

>  <Genealogy>  (57) 
C=c1c(=Cc2[nH]c(=O)[n-]c2[O-])cc(C(=O)N=c2cccc[n-]2)n1C(C)C (protonated)
C=c1c(=Cc2[nH]c(=O)[n-]c2[O-])cc(C(=O)/N=c2/cccc[n-]2)n1C(C)C (cis-trans isomerization)
C=c1c(=Cc2[nH]c(=O)[n-]c2[O-])cc(C(=O)/N=c2/cccc[n-]2)n1C(C)C (3D coordinates assigned)
C=c1c(=Cc2[nH]c(=O)[n-]c2[O-])cc(C(=O)/N=c2/cccc[n-]2)n1C(C)C (optimized conformer: 125.53332560858833 kcal/mol)

>  <smiles>  (57) 
C=c1c(=Cc2[nH]c(=O)[nH]c2O)cc(C(=O)N=c2cccc[nH]2)n1C(C)C

>  <score_type>  (57) 
oracle

>  <origin>  (57) 
adg

>  <m_score__min__energy>  (57) 
-15.199999999999999

>  <m_primary>  (57) 
energy

$$$$
57:0
     RDKit          3D

 56 58  0  0  0  0  0  0  0  0999 V2000
   54.9560   24.7800   45.3470 C   0  0  0  0  0  0  0  0  0  0  0  0
   56.1210   24.6830   46.7420 S   0  0  0  0  0  0  0  0  0  0  0  0
   57.2180   25.9400   46.0660 C   0  0  0  0  0  0  0  0  0  0  0  0
   56.7040   27.2270   45.8620 C   0  0  0  0  0  0  0  0  0  0  0  0
   57.5210   28.2560   45.3680 C   0  0  0  0  0  0  0  0  0  0  0  0
   56.9590   29.6090   45.1500 C   0  0  0  0  0  0  0  0  0  0  0  0
   55.7890   29.7180   44.6910 O   0  0  0  0  0  0  0  0  0  0  0  0
   57.7160   30.8010   45.4410 N   0  0  0  0  0  0  0  0  0  0  0  0
   57.5440   31.9820   44.5910 C   0  0  0  0  0  0  0  0  0  0  0  0
   58.3730   33.1560   45.1140 C   0  0  0  0  0  0  0  0  0  0  0  0
   58.1110   33.3480   46.5540 N   0  0  0  0  0  0  0  0  0  0  0  0
   58.7710   34.5800   47.0470 C   0  0  0  0  0  0  0  0  0  0  0  0
   60.1090   34.8340   46.3300 C   0  0  0  0  0  0  0  0  0  0  0  0
   61.2900   34.2470   47.0590 C   0  0  0  0  0  0  0  0  0  0  0  0
   62.4290   33.8230   46.3520 C   0  0  0  0  0  0  0  0  0  0  0  0
   63.5240   33.2850   47.0350 C   0  0  0  0  0  0  0  0  0  0  0  0
   63.4890   33.1590   48.4260 C   0  0  0  0  0  0  0  0  0  0  0  0
   62.3570   33.5660   49.1370 C   0  0  0  0  0  0  0  0  0  0  0  0
   62.3210   33.4370   50.4860 F   0  0  0  0  0  0  0  0  0  0  0  0
   61.2590   34.1050   48.4570 C   0  0  0  0  0  0  0  0  0  0  0  0
   58.4580   32.1540   47.3760 C   0  0  0  0  0  0  0  0  0  0  0  0
   58.6530   30.8570   46.5680 C   0  0  0  0  0  0  0  0  0  0  0  0
   58.8550   27.9720   45.0470 C   0  0  0  0  0  0  0  0  0  0  0  0
   59.3740   26.6910   45.2450 C   0  0  0  0  0  0  0  0  0  0  0  0
   58.5680   25.6600   45.7630 C   0  0  0  0  0  0  0  0  0  0  0  0
   59.1030   24.3380   45.9550 N   0  0  0  0  0  0  0  0  0  0  0  0
   58.4020   22.9180   45.2470 S   0  0  0  0  0  0  0  0  0  0  0  0
   59.6780   21.9750   44.4450 C   0  0  0  0  0  0  0  0  0  0  0  0
   57.3760   23.3120   44.2220 O   0  0  0  0  0  0  0  0  0  0  0  0
   57.7600   22.0770   46.3150 O   0  0  0  0  0  0  0  0  0  0  0  0
   53.9292   24.8655   45.7321 H   0  0  0  0  0  0  0  0  0  0  0  0
   55.1919   25.6616   44.7329 H   0  0  0  0  0  0  0  0  0  0  0  0
   55.0429   23.8715   44.7329 H   0  0  0  0  0  0  0  0  0  0  0  0
   55.6482   27.4336   46.0915 H   0  0  0  0  0  0  0  0  0  0  0  0
   57.8679   31.7398   43.5680 H   0  0  0  0  0  0  0  0  0  0  0  0
   56.4824   32.2698   44.5998 H   0  0  0  0  0  0  0  0  0  0  0  0
   59.4419   32.9453   44.9618 H   0  0  0  0  0  0  0  0  0  0  0  0
   58.0951   34.0698   44.5683 H   0  0  0  0  0  0  0  0  0  0  0  0
   58.1039   35.4368   46.8711 H   0  0  0  0  0  0  0  0  0  0  0  0
   58.9754   34.4539   48.1205 H   0  0  0  0  0  0  0  0  0  0  0  0
   60.0591   34.3864   45.3264 H   0  0  0  0  0  0  0  0  0  0  0  0
   60.2574   35.9231   46.2878 H   0  0  0  0  0  0  0  0  0  0  0  0
   62.4588   33.9150   45.2563 H   0  0  0  0  0  0  0  0  0  0  0  0
   64.4143   32.9605   46.4764 H   0  0  0  0  0  0  0  0  0  0  0  0
   64.3531   32.7391   48.9618 H   0  0  0  0  0  0  0  0  0  0  0  0
   60.3673   34.4191   49.0194 H   0  0  0  0  0  0  0  0  0  0  0  0
   59.3933   32.3674   47.9142 H   0  0  0  0  0  0  0  0  0  0  0  0
   57.6053   31.9785   48.0484 H   0  0  0  0  0  0  0  0  0  0  0  0
   59.6829   30.8231   46.1831 H   0  0  0  0  0  0  0  0  0  0  0  0
   58.4631   29.9978   47.2281 H   0  0  0  0  0  0  0  0  0  0  0  0
   59.4981   28.7641   44.6360 H   0  0  0  0  0  0  0  0  0  0  0  0
   60.4248   26.4852   44.9933 H   0  0  0  0  0  0  0  0  0  0  0  0
   60.0010   24.2050   46.4690 H   0  0  0  0  0  0  0  0  0  0  0  0
   60.3174   21.5025   45.2052 H   0  0  0  0  0  0  0  0  0  0  0  0
   59.2192   21.1972   43.8168 H   0  0  0  0  0  0  0  0  0  0  0  0
   60.2868   22.6418   43.8168 H   0  0  0  0  0  0  0  0  0  0  0  0
  1  2  1  0
  2  3  1  0
  3  4  2  0
  4  5  1  0
  5  6  1  0
  6  7  2  0
  6  8  1  0
  8  9  1  0
  9 10  1  0
 10 11  1  0
 11 12  1  0
 12 13  1  0
 13 14  1  0
 14 15  2  0
 15 16  1  0
 16 17  2  0
 17 18  1  0
 18 19  1  0
 18 20  2  0
 11 21  1  0
 21 22  1  0
  5 23  2  0
 23 24  1  0
 24 25  2  0
 25 26  1  0
 26 27  1  0
 27 28  1  0
 27 29  2  0
 27 30  2  0
 25  3  1  0
 22  8  1  0
 20 14  1  0
  1 31  1  0
  1 32  1  0
  1 33  1  0
  4 34  1  0
  9 35  1  0
  9 36  1  0
 10 37  1  0
 10 38  1  0
 12 39  1  0
 12 40  1  0
 13 41  1  0
 13 42  1  0
 15 43  1  0
 16 44  1  0
 17 45  1  0
 20 46  1  0
 21 47  1  0
 21 48  1  0
 22 49  1  0
 22 50  1  0
 23 51  1  0
 24 52  1  0
 26 53  1  0
 28 54  1  0
 28 55  1  0
 28 56  1  0
M  END
>  <UniqueID>  (58) 
56

>  <SMILES>  (58) 
CSc1cc(C(=O)N2CCN(CCc3cccc(F)c3)CC2)ccc1NS(C)(=O)=O

>  <Energy>  (58) 
63.282131756146754

>  <Genealogy>  (58) 
CSc1cc(C(=O)N2CCN(CCc3cccc(F)c3)CC2)ccc1NS(C)(=O)=O (3D coordinates assigned)
CSc1cc(C(=O)N2CCN(CCc3cccc(F)c3)CC2)ccc1NS(C)(=O)=O (nonaromatic ring conformer: 63.282131756146754 kcal/mol)

>  <smiles>  (58) 
CSc1cc(C(=O)N2CCN(CCc3cccc(F)c3)CC2)ccc1NS(C)(=O)=O

>  <score_type>  (58) 
oracle

>  <origin>  (58) 
adg

>  <m_score__min__energy>  (58) 
-9.1999999999999993

>  <m_primary>  (58) 
energy

$$$$
58:0
     RDKit          3D

 58 61  0  0  0  0  0  0  0  0999 V2000
   58.8990   33.7440   44.5490 C   0  0  0  0  0  0  0  0  0  0  0  0
   58.3620   32.3250   45.4920 S   0  0  2  0  0  0  0  0  0  0  0  0
   59.4180   31.2560   45.5170 O   0  0  0  0  0  0  0  0  0  0  0  0
   57.0420   31.7470   44.8570 N   0  0  0  0  0  0  0  0  0  0  0  0
   56.7660   30.3610   44.6080 C   0  0  0  0  0  0  0  0  0  0  0  0
   55.5640   29.9840   44.6110 O   0  0  0  0  0  0  0  0  0  0  0  0
   57.8170   29.4100   44.3490 N   0  0  0  0  0  0  0  0  0  0  0  0
   57.6070   27.9880   44.2820 C   0  0  0  0  0  0  0  0  0  0  0  0
   57.1130   27.2650   45.3810 C   0  0  0  0  0  0  0  0  0  0  0  0
   56.9290   25.8820   45.2940 C   0  0  0  0  0  0  0  0  0  0  0  0
   57.2570   25.1870   44.1160 C   0  0  0  0  0  0  0  0  0  0  0  0
   57.0370   23.7190   44.0380 C   0  0  0  0  0  0  0  0  0  0  0  0
   56.9240   22.9270   45.1910 C   0  0  0  0  0  0  0  0  0  0  0  0
   56.7300   21.5450   45.0500 C   0  0  0  0  0  0  0  0  0  0  0  0
   56.6070   20.6890   46.2030 N   0  0  0  0  0  0  0  0  0  0  0  0
   55.6150   21.0210   47.2360 C   0  0  0  0  0  0  0  0  0  0  0  0
   55.7580   20.1150   48.4680 C   0  0  0  0  0  0  0  0  0  0  0  0
   57.2380   19.9280   48.8400 C   0  0  0  0  0  0  0  0  0  0  0  0
   57.3220   19.0760   49.9290 F   0  0  0  0  0  0  0  0  0  0  0  0
   57.7630   21.1550   49.2130 F   0  0  0  0  0  0  0  0  0  0  0  0
   58.0720   19.3490   47.6710 C   0  0  0  0  0  0  0  0  0  0  0  0
   57.3630   19.4330   46.3100 C   0  0  0  0  0  0  0  0  0  0  0  0
   56.6160   21.0140   43.8020 N   0  0  0  0  0  0  0  0  0  0  0  0
   56.7130   21.7910   42.6940 C   0  0  0  0  0  0  0  0  0  0  0  0
   56.9240   23.1260   42.8170 N   0  0  0  0  0  0  0  0  0  0  0  0
   57.7690   25.9130   43.0240 C   0  0  0  0  0  0  0  0  0  0  0  0
   57.9510   27.2960   43.1130 C   0  0  0  0  0  0  0  0  0  0  0  0
   58.0080   32.8240   47.1170 N   0  0  0  0  0  0  0  0  0  0  0  0
   59.0100   33.1630   48.0940 C   0  0  0  0  0  0  0  0  0  0  0  0
   58.8810   32.6720   49.4040 C   0  0  0  0  0  0  0  0  0  0  0  0
   59.8310   32.9910   50.3780 C   0  0  0  0  0  0  0  0  0  0  0  0
   60.9260   33.7960   50.0520 C   0  0  0  0  0  0  0  0  0  0  0  0
   61.0740   34.2770   48.7490 C   0  0  0  0  0  0  0  0  0  0  0  0
   60.1250   33.9600   47.7710 C   0  0  0  0  0  0  0  0  0  0  0  0
   59.2030   34.5473   45.2363 H   0  0  0  0  0  0  0  0  0  0  0  0
   59.7523   33.4614   43.9150 H   0  0  0  0  0  0  0  0  0  0  0  0
   58.0723   34.0971   43.9150 H   0  0  0  0  0  0  0  0  0  0  0  0
   58.7660   29.7550   44.0970 H   0  0  0  0  0  0  0  0  0  0  0  0
   56.8695   27.7908   46.3160 H   0  0  0  0  0  0  0  0  0  0  0  0
   56.5235   25.3316   46.1557 H   0  0  0  0  0  0  0  0  0  0  0  0
   56.9866   23.3830   46.1901 H   0  0  0  0  0  0  0  0  0  0  0  0
   55.7566   22.0675   47.5439 H   0  0  0  0  0  0  0  0  0  0  0  0
   54.6117   20.8692   46.8114 H   0  0  0  0  0  0  0  0  0  0  0  0
   55.2282   20.5734   49.3161 H   0  0  0  0  0  0  0  0  0  0  0  0
   55.3265   19.1307   48.2335 H   0  0  0  0  0  0  0  0  0  0  0  0
   59.0165   19.9092   47.6065 H   0  0  0  0  0  0  0  0  0  0  0  0
   58.2328   18.2823   47.8862 H   0  0  0  0  0  0  0  0  0  0  0  0
   58.1137   19.3923   45.5071 H   0  0  0  0  0  0  0  0  0  0  0  0
   56.6653   18.5875   46.2182 H   0  0  0  0  0  0  0  0  0  0  0  0
   56.6206   21.3387   41.6956 H   0  0  0  0  0  0  0  0  0  0  0  0
   58.0280   25.3876   42.0930 H   0  0  0  0  0  0  0  0  0  0  0  0
   58.3683   27.8466   42.2570 H   0  0  0  0  0  0  0  0  0  0  0  0
   57.0060   33.0030   47.3450 H   0  0  0  0  0  0  0  0  0  0  0  0
   58.0256   32.0315   49.6650 H   0  0  0  0  0  0  0  0  0  0  0  0
   59.7168   32.6079   51.4028 H   0  0  0  0  0  0  0  0  0  0  0  0
   61.6705   34.0505   50.8207 H   0  0  0  0  0  0  0  0  0  0  0  0
   61.9385   34.9064   48.4912 H   0  0  0  0  0  0  0  0  0  0  0  0
   60.2506   34.3353   46.7446 H   0  0  0  0  0  0  0  0  0  0  0  0
  1  2  1  0
  2  3  2  0
  2  4  2  0
  4  5  1  0
  5  6  2  0
  5  7  1  0
  7  8  1  0
  8  9  2  0
  9 10  1  0
 10 11  2  0
 11 12  1  0
 12 13  2  0
 13 14  1  0
 14 15  1  0
 15 16  1  0
 16 17  1  0
 17 18  1  0
 18 19  1  0
 18 20  1  0
 18 21  1  0
 21 22  1  0
 14 23  2  0
 23 24  1  0
 24 25  2  0
 11 26  1  0
 26 27  2  0
  2 28  1  1
 28 29  1  0
 29 30  2  0
 30 31  1  0
 31 32  2  0
 32 33  1  0
 33 34  2  0
 27  8  1  0
 34 29  1  0
 25 12  1  0
 22 15  1  0
  1 35  1  0
  1 36  1  0
  1 37  1  0
  7 38  1  0
  9 39  1  0
 10 40  1  0
 13 41  1  0
 16 42  1  0
 16 43  1  0
 17 44  1  0
 17 45  1  0
 21 46  1  0
 21 47  1  0
 22 48  1  0
 22 49  1  0
 24 50  1  0
 26 51  1  0
 27 52  1  0
 28 53  1  0
 30 54  1  0
 31 55  1  0
 32 56  1  0
 33 57  1  0
 34 58  1  0
M  END
>  <UniqueID>  (59) 
57

>  <SMILES>  (59) 
C[S@](=O)(=NC(=O)Nc1ccc(-c2cc(N3CCC(F)(F)CC3)ncn2)cc1)Nc1ccccc1

>  <Energy>  (59) 
73.84267943207908

>  <Genealogy>  (59) 
C[S@](=O)(=NC(=O)Nc1ccc(-c2cc(N3CCC(F)(F)CC3)ncn2)cc1)Nc1ccccc1 (chirality)
C[S@](=O)(=NC(=O)Nc1ccc(-c2cc(N3CCC(F)(F)CC3)ncn2)cc1)Nc1ccccc1 (3D coordinates assigned)
C[S@](=O)(=NC(=O)Nc1ccc(-c2cc(N3CCC(F)(F)CC3)ncn2)cc1)Nc1ccccc1 (nonaromatic ring conformer: 73.84267943207908 kcal/mol)

>  <smiles>  (59) 
CS(=O)(=NC(=O)Nc1ccc(-c2cc(N3CCC(F)(F)CC3)ncn2)cc1)Nc1ccccc1

>  <score_type>  (59) 
oracle

>  <origin>  (59) 
adg

>  <m_score__min__energy>  (59) 
-8.7200000000000006

>  <m_primary>  (59) 
energy

$$$$
59:0
     RDKit          3D

 52 55  0  0  0  0  0  0  0  0999 V2000
   52.3930   31.5520   51.2720 C   0  0  0  0  0  0  0  0  0  0  0  0
   52.6270   30.5130   52.3620 C   0  0  0  0  0  0  0  0  0  0  0  0
   54.0680   30.1130   52.4050 C   0  0  0  0  0  0  0  0  0  0  0  0
   55.0930   30.9900   52.3890 N   0  0  0  0  0  0  0  0  0  0  0  0
   56.1580   30.1580   52.3700 C   0  0  0  0  0  0  0  0  0  0  0  0
   57.5900   30.6180   52.3320 C   0  0  0  0  0  0  0  0  0  0  0  0
   57.7310   32.0650   52.8660 C   0  0  0  0  0  0  0  0  0  0  0  0
   57.7630   33.0890   51.7220 C   0  0  0  0  0  0  0  0  0  0  0  0
   58.8660   32.8330   50.7620 N   0  0  0  0  0  0  0  0  0  0  0  0
   59.9700   33.8170   50.8180 C   0  0  0  0  0  0  0  0  0  0  0  0
   61.1000   33.5260   49.8550 C   0  0  0  0  0  0  0  0  0  0  0  0
   62.4080   33.2570   50.2080 C   0  0  0  0  0  0  0  0  0  0  0  0
   63.1390   33.1590   49.0830 N   0  0  0  0  0  0  0  0  0  0  0  0
   64.5610   32.8500   49.0160 C   0  0  0  0  0  0  0  0  0  0  0  0
   62.3670   33.3220   48.0210 N   0  0  0  0  0  0  0  0  0  0  0  0
   61.1120   33.5430   48.4600 C   0  0  0  0  0  0  0  0  0  0  0  0
   59.9780   33.7550   47.5450 C   0  0  0  0  0  0  0  0  0  0  0  0
   58.7580   33.0850   47.7380 C   0  0  0  0  0  0  0  0  0  0  0  0
   57.6910   33.3010   46.8600 C   0  0  0  0  0  0  0  0  0  0  0  0
   57.8390   34.1730   45.7780 C   0  0  0  0  0  0  0  0  0  0  0  0
   59.0570   34.8240   45.5670 C   0  0  0  0  0  0  0  0  0  0  0  0
   60.1260   34.6110   46.4420 C   0  0  0  0  0  0  0  0  0  0  0  0
   59.3240   31.4260   50.6760 C   0  0  0  0  0  0  0  0  0  0  0  0
   58.1650   30.4530   50.9070 C   0  0  0  0  0  0  0  0  0  0  0  0
   55.7920   28.8980   52.3570 O   0  0  0  0  0  0  0  0  0  0  0  0
   54.4980   28.8390   52.3750 N   0  0  0  0  0  0  0  0  0  0  0  0
   52.1737   32.5256   51.7345 H   0  0  0  0  0  0  0  0  0  0  0  0
   53.2944   31.6375   50.6473 H   0  0  0  0  0  0  0  0  0  0  0  0
   51.5420   31.2428   50.6473 H   0  0  0  0  0  0  0  0  0  0  0  0
   52.3404   30.9385   53.3350 H   0  0  0  0  0  0  0  0  0  0  0  0
   52.0177   29.6239   52.1422 H   0  0  0  0  0  0  0  0  0  0  0  0
   58.1852   29.9826   53.0043 H   0  0  0  0  0  0  0  0  0  0  0  0
   56.8763   32.2885   53.5214 H   0  0  0  0  0  0  0  0  0  0  0  0
   58.6793   32.1369   53.4188 H   0  0  0  0  0  0  0  0  0  0  0  0
   56.8064   33.0436   51.1808 H   0  0  0  0  0  0  0  0  0  0  0  0
   57.9292   34.0816   52.1659 H   0  0  0  0  0  0  0  0  0  0  0  0
   59.5608   34.8104   50.5818 H   0  0  0  0  0  0  0  0  0  0  0  0
   60.3932   33.7647   51.8320 H   0  0  0  0  0  0  0  0  0  0  0  0
   62.7873   33.1424   51.2342 H   0  0  0  0  0  0  0  0  0  0  0  0
   64.9655   32.7621   50.0351 H   0  0  0  0  0  0  0  0  0  0  0  0
   64.7049   31.8996   48.4811 H   0  0  0  0  0  0  0  0  0  0  0  0
   65.0863   33.6549   48.4811 H   0  0  0  0  0  0  0  0  0  0  0  0
   58.6419   32.3889   48.5818 H   0  0  0  0  0  0  0  0  0  0  0  0
   56.7337   32.7837   47.0214 H   0  0  0  0  0  0  0  0  0  0  0  0
   56.9965   34.3468   45.0925 H   0  0  0  0  0  0  0  0  0  0  0  0
   59.1749   35.5050   44.7112 H   0  0  0  0  0  0  0  0  0  0  0  0
   61.0871   35.1161   46.2657 H   0  0  0  0  0  0  0  0  0  0  0  0
   59.7493   31.2472   49.6774 H   0  0  0  0  0  0  0  0  0  0  0  0
   60.0817   31.2574   51.4554 H   0  0  0  0  0  0  0  0  0  0  0  0
   57.3720   30.6548   50.1719 H   0  0  0  0  0  0  0  0  0  0  0  0
   58.5381   29.4245   50.7927 H   0  0  0  0  0  0  0  0  0  0  0  0
   53.9260   27.9670   52.3570 H   0  0  0  0  0  0  0  0  0  0  0  0
  1  2  1  0
  2  3  1  0
  3  4  1  0
  4  5  2  0
  5  6  1  0
  6  7  1  0
  7  8  1  0
  8  9  1  0
  9 10  1  0
 10 11  1  0
 11 12  2  0
 12 13  1  0
 13 14  1  0
 13 15  1  0
 15 16  2  0
 16 17  1  0
 17 18  2  0
 18 19  1  0
 19 20  2  0
 20 21  1  0
 21 22  2  0
  9 23  1  0
 23 24  1  0
  5 25  1  0
 25 26  1  0
 26  3  2  0
 24  6  1  0
 16 11  1  0
 22 17  1  0
  1 27  1  0
  1 28  1  0
  1 29  1  0
  2 30  1  0
  2 31  1  0
  6 32  1  0
  7 33  1  0
  7 34  1  0
  8 35  1  0
  8 36  1  0
 10 37  1  0
 10 38  1  0
 12 39  1  0
 14 40  1  0
 14 41  1  0
 14 42  1  0
 18 43  1  0
 19 44  1  0
 20 45  1  0
 21 46  1  0
 22 47  1  0
 23 48  1  0
 23 49  1  0
 24 50  1  0
 24 51  1  0
 26 52  1  0
M  CHG  1  26   1
M  END
>  <UniqueID>  (60) 
58

>  <SMILES>  (60) 
CCc1nc(C2CCN(Cc3cn(C)nc3-c3ccccc3)CC2)o[nH+]1

>  <Energy>  (60) 
127.00555824331614

>  <Genealogy>  (60) 
CCc1nc(C2CCN(Cc3cn(C)nc3-c3ccccc3)CC2)o[nH+]1 (protonated)
CCc1nc(C2CCN(Cc3cn(C)nc3-c3ccccc3)CC2)o[nH+]1 (3D coordinates assigned)
CCc1nc(C2CCN(Cc3cn(C)nc3-c3ccccc3)CC2)o[nH+]1 (nonaromatic ring conformer: 127.00555824331614 kcal/mol)

>  <smiles>  (60) 
CCc1noc(C2CCN(Cc3cn(C)nc3-c3ccccc3)CC2)n1

>  <score_type>  (60) 
oracle

>  <origin>  (60) 
adg

>  <m_score__min__energy>  (60) 
-7.5199999999999996

>  <m_primary>  (60) 
energy

$$$$
60:0
     RDKit          3D

 53 56  0  0  0  0  0  0  0  0999 V2000
   57.6780   30.3350   43.1440 N   0  0  0  0  0  0  0  0  0  0  0  0
   57.7490   31.7620   43.1580 C   0  0  0  0  0  0  0  0  0  0  0  0
   57.8290   32.3860   42.0650 O   0  0  0  0  0  0  0  0  0  0  0  0
   57.7140   32.5090   44.4310 C   0  0  0  0  0  0  0  0  0  0  0  0
   57.8440   33.9070   44.4930 C   0  0  0  0  0  0  0  0  0  0  0  0
   57.8960   34.4100   45.7870 C   0  0  0  0  0  0  0  0  0  0  0  0
   57.7780   33.1270   46.8670 S   0  0  0  0  0  0  0  0  0  0  0  0
   57.6490   31.9260   45.7030 C   0  0  0  0  0  0  0  0  0  0  0  0
   57.4130   30.5470   46.0180 N   0  0  0  0  0  0  0  0  0  0  0  0
   58.4200   29.5750   46.3270 C   0  0  0  0  0  0  0  0  0  0  0  0
   58.4810   28.5290   45.6270 O   0  0  0  0  0  0  0  0  0  0  0  0
   59.4060   29.7750   47.4160 C   0  0  0  0  0  0  0  0  0  0  0  0
   59.1930   29.1870   48.6720 C   0  0  0  0  0  0  0  0  0  0  0  0
   60.1070   29.3860   49.7080 C   0  0  0  0  0  0  0  0  0  0  0  0
   61.2560   30.1500   49.4940 C   0  0  0  0  0  0  0  0  0  0  0  0
   61.5020   30.7160   48.2350 C   0  0  0  0  0  0  0  0  0  0  0  0
   62.9350   31.7200   47.9750 S   0  0  0  0  0  0  0  0  0  0  0  0
   63.6450   31.2200   46.7480 O   0  0  0  0  0  0  0  0  0  0  0  0
   63.8670   31.5490   49.1420 O   0  0  0  0  0  0  0  0  0  0  0  0
   62.5700   33.4220   47.7480 N   0  0  0  0  0  0  0  0  0  0  0  0
   61.2060   33.6620   47.2170 C   0  0  0  0  0  0  0  0  0  0  0  0
   60.2970   34.4320   48.1850 C   0  0  0  0  0  0  0  0  0  0  0  0
   60.5720   34.0040   49.5590 N   0  0  0  0  0  0  0  0  0  0  0  0
   59.5520   33.4200   50.4030 C   0  0  0  0  0  0  0  0  0  0  0  0
   59.3930   33.8510   51.7350 C   0  0  0  0  0  0  0  0  0  0  0  0
   58.4380   33.2570   52.5650 C   0  0  0  0  0  0  0  0  0  0  0  0
   57.6290   32.2280   52.0790 C   0  0  0  0  0  0  0  0  0  0  0  0
   57.7740   31.7900   50.7630 C   0  0  0  0  0  0  0  0  0  0  0  0
   58.7310   32.3770   49.9290 C   0  0  0  0  0  0  0  0  0  0  0  0
   61.9410   34.1810   50.0580 C   0  0  0  0  0  0  0  0  0  0  0  0
   62.9510   34.2650   48.9000 C   0  0  0  0  0  0  0  0  0  0  0  0
   60.5650   30.5430   47.2080 C   0  0  0  0  0  0  0  0  0  0  0  0
   57.6840   29.8180   42.2370 H   0  0  0  0  0  0  0  0  0  0  0  0
   57.6780   29.7880   44.0330 H   0  0  0  0  0  0  0  0  0  0  0  0
   57.8995   34.5448   43.5985 H   0  0  0  0  0  0  0  0  0  0  0  0
   57.9975   35.4709   46.0595 H   0  0  0  0  0  0  0  0  0  0  0  0
   58.3010   28.5659   48.8411 H   0  0  0  0  0  0  0  0  0  0  0  0
   59.9216   28.9396   50.6961 H   0  0  0  0  0  0  0  0  0  0  0  0
   61.9702   30.3083   50.3155 H   0  0  0  0  0  0  0  0  0  0  0  0
   61.2922   34.2410   46.2857 H   0  0  0  0  0  0  0  0  0  0  0  0
   60.7445   32.6767   47.0555 H   0  0  0  0  0  0  0  0  0  0  0  0
   60.4917   35.5106   48.0911 H   0  0  0  0  0  0  0  0  0  0  0  0
   59.2443   34.2265   47.9410 H   0  0  0  0  0  0  0  0  0  0  0  0
   60.0258   34.6618   52.1250 H   0  0  0  0  0  0  0  0  0  0  0  0
   58.3235   33.6010   53.6035 H   0  0  0  0  0  0  0  0  0  0  0  0
   56.8775   31.7630   52.7340 H   0  0  0  0  0  0  0  0  0  0  0  0
   57.1343   30.9811   50.3801 H   0  0  0  0  0  0  0  0  0  0  0  0
   58.8439   32.0216   48.8941 H   0  0  0  0  0  0  0  0  0  0  0  0
   61.9911   35.1097   50.6454 H   0  0  0  0  0  0  0  0  0  0  0  0
   62.1986   33.3121   50.6815 H   0  0  0  0  0  0  0  0  0  0  0  0
   63.0156   35.3106   48.5647 H   0  0  0  0  0  0  0  0  0  0  0  0
   63.9175   33.8974   49.2751 H   0  0  0  0  0  0  0  0  0  0  0  0
   60.7380   31.0130   46.2286 H   0  0  0  0  0  0  0  0  0  0  0  0
  1  2  1  0
  2  3  2  0
  2  4  1  0
  4  5  1  0
  5  6  2  0
  6  7  1  0
  7  8  1  0
  8  9  1  0
  9 10  1  0
 10 11  2  0
 10 12  1  0
 12 13  2  0
 13 14  1  0
 14 15  2  0
 15 16  1  0
 16 17  1  0
 17 18  2  0
 17 19  2  0
 17 20  1  0
 20 21  1  0
 21 22  1  0
 22 23  1  0
 23 24  1  0
 24 25  2  0
 25 26  1  0
 26 27  2  0
 27 28  1  0
 28 29  2  0
 23 30  1  0
 30 31  1  0
 16 32  2  0
  8  4  2  0
 32 12  1  0
 31 20  1  0
 29 24  1  0
  1 33  1  0
  1 34  1  0
  5 35  1  0
  6 36  1  0
 13 37  1  0
 14 38  1  0
 15 39  1  0
 21 40  1  0
 21 41  1  0
 22 42  1  0
 22 43  1  0
 25 44  1  0
 26 45  1  0
 27 46  1  0
 28 47  1  0
 29 48  1  0
 30 49  1  0
 30 50  1  0
 31 51  1  0
 31 52  1  0
 32 53  1  0
M  CHG  1   9  -1
M  END
>  <UniqueID>  (61) 
59

>  <SMILES>  (61) 
NC(=O)c1ccsc1[N-]C(=O)c1cccc(S(=O)(=O)N2CCN(c3ccccc3)CC2)c1

>  <Energy>  (61) 
98.8607148167108

>  <Genealogy>  (61) 
NC(=O)c1ccsc1[N-]C(=O)c1cccc(S(=O)(=O)N2CCN(c3ccccc3)CC2)c1 (protonated)
NC(=O)c1ccsc1[N-]C(=O)c1cccc(S(=O)(=O)N2CCN(c3ccccc3)CC2)c1 (3D coordinates assigned)
NC(=O)c1ccsc1[N-]C(=O)c1cccc(S(=O)(=O)N2CCN(c3ccccc3)CC2)c1 (nonaromatic ring conformer: 98.8607148167108 kcal/mol)

>  <smiles>  (61) 
NC(=O)c1ccsc1NC(=O)c1cccc(S(=O)(=O)N2CCN(c3ccccc3)CC2)c1

>  <score_type>  (61) 
oracle

>  <origin>  (61) 
adg

>  <m_score__min__energy>  (61) 
-11.949999999999999

>  <m_primary>  (61) 
energy

$$$$
61:0
     RDKit          3D

 59 62  0  0  0  0  0  0  0  0999 V2000
   54.4260   20.0140   47.3110 C   0  0  0  0  0  0  0  0  0  0  0  0
   55.4950   21.0320   46.8630 C   0  0  0  0  0  0  0  0  0  0  0  0
   56.0710   20.6410   45.4890 C   0  0  0  0  0  0  0  0  0  0  0  0
   56.6180   21.1130   47.9170 C   0  0  0  0  0  0  0  0  0  0  0  0
   56.2630   22.3050   48.7970 C   0  0  0  0  0  0  0  0  0  0  0  0
   55.4200   23.2190   47.9180 C   0  0  0  0  0  0  0  0  0  0  0  0
   54.9340   22.3840   46.8280 N   0  0  0  0  0  0  0  0  0  0  0  0
   53.9420   22.8480   45.8890 C   0  0  0  0  0  0  0  0  0  0  0  0
   52.8960   22.1770   45.6890 O   0  0  0  0  0  0  0  0  0  0  0  0
   54.1000   24.0990   45.2070 N   0  0  0  0  0  0  0  0  0  0  0  0
   55.1750   24.8300   45.2420 C   0  0  0  0  0  0  0  0  0  0  0  0
   55.2580   25.9070   46.0750 N   0  0  0  0  0  0  0  0  0  0  0  0
   56.3690   26.6830   46.1490 C   0  0  0  0  0  0  0  0  0  0  0  0
   57.4950   26.3900   45.3610 C   0  0  0  0  0  0  0  0  0  0  0  0
   58.7240   27.2270   45.4020 C   0  0  0  0  0  0  0  0  0  0  0  0
   59.8280   26.6660   45.6560 O   0  0  0  0  0  0  0  0  0  0  0  0
   58.6880   28.6490   45.1210 N   0  0  0  0  0  0  0  0  0  0  0  0
   58.6090   29.4050   46.3880 C   0  0  0  0  0  0  0  0  0  0  0  0
   58.5310   30.9160   46.1200 C   0  0  0  0  0  0  0  0  0  0  0  0
   57.3750   31.2120   45.2530 N   0  0  0  0  0  0  0  0  0  0  0  0
   57.1340   32.6790   45.1800 C   0  0  0  0  0  0  0  0  0  0  0  0
   58.2170   33.4480   44.4240 C   0  0  0  0  0  0  0  0  0  0  0  0
   58.5450   34.2240   45.6960 C   0  0  0  0  0  0  0  0  0  0  0  0
   57.4300   33.4980   46.4400 C   0  0  0  0  0  0  0  0  0  0  0  0
   57.5070   30.4890   43.9670 C   0  0  0  0  0  0  0  0  0  0  0  0
   57.5470   28.9810   44.2390 C   0  0  0  0  0  0  0  0  0  0  0  0
   57.4270   25.2850   44.4960 C   0  0  0  0  0  0  0  0  0  0  0  0
   56.2750   24.4970   44.4390 C   0  0  0  0  0  0  0  0  0  0  0  0
   56.2290   23.1130   43.3530 Cl  0  0  0  0  0  0  0  0  0  0  0  0
   54.3900   19.9797   48.4099 H   0  0  0  0  0  0  0  0  0  0  0  0
   53.4435   20.3186   46.9213 H   0  0  0  0  0  0  0  0  0  0  0  0
   54.6822   19.0178   46.9213 H   0  0  0  0  0  0  0  0  0  0  0  0
   56.9735   20.0283   45.6307 H   0  0  0  0  0  0  0  0  0  0  0  0
   55.3210   20.0646   44.9276 H   0  0  0  0  0  0  0  0  0  0  0  0
   56.3298   21.5508   44.9276 H   0  0  0  0  0  0  0  0  0  0  0  0
   56.6519   20.1902   48.5147 H   0  0  0  0  0  0  0  0  0  0  0  0
   57.6079   21.2291   47.4515 H   0  0  0  0  0  0  0  0  0  0  0  0
   55.6873   21.9773   49.6752 H   0  0  0  0  0  0  0  0  0  0  0  0
   57.1605   22.8156   49.1761 H   0  0  0  0  0  0  0  0  0  0  0  0
   54.5759   23.6300   48.4913 H   0  0  0  0  0  0  0  0  0  0  0  0
   56.0043   24.0728   47.5443 H   0  0  0  0  0  0  0  0  0  0  0  0
   56.3882   27.5466   46.8300 H   0  0  0  0  0  0  0  0  0  0  0  0
   59.5620   28.9230   44.6130 H   0  0  0  0  0  0  0  0  0  0  0  0
   57.7111   29.0902   46.9400 H   0  0  0  0  0  0  0  0  0  0  0  0
   59.5143   29.1986   46.9779 H   0  0  0  0  0  0  0  0  0  0  0  0
   58.4175   31.4506   47.0747 H   0  0  0  0  0  0  0  0  0  0  0  0
   59.4536   31.2434   45.6185 H   0  0  0  0  0  0  0  0  0  0  0  0
   56.0983   32.6281   44.8129 H   0  0  0  0  0  0  0  0  0  0  0  0
   59.0410   32.8194   44.0552 H   0  0  0  0  0  0  0  0  0  0  0  0
   57.9771   33.9795   43.4913 H   0  0  0  0  0  0  0  0  0  0  0  0
   59.5512   34.0260   46.0940 H   0  0  0  0  0  0  0  0  0  0  0  0
   58.5749   35.3235   45.6808 H   0  0  0  0  0  0  0  0  0  0  0  0
   57.7753   32.8990   47.2956 H   0  0  0  0  0  0  0  0  0  0  0  0
   56.6303   34.0639   46.9402 H   0  0  0  0  0  0  0  0  0  0  0  0
   56.6470   30.7240   43.3227 H   0  0  0  0  0  0  0  0  0  0  0  0
   58.4341   30.7984   43.4623 H   0  0  0  0  0  0  0  0  0  0  0  0
   56.6099   28.6752   44.7271 H   0  0  0  0  0  0  0  0  0  0  0  0
   57.6655   28.4479   43.2841 H   0  0  0  0  0  0  0  0  0  0  0  0
   58.2885   25.0382   43.8580 H   0  0  0  0  0  0  0  0  0  0  0  0
  1  2  1  0
  2  3  1  0
  2  4  1  0
  4  5  1  0
  5  6  1  0
  6  7  1  0
  7  8  1  0
  8  9  2  0
  8 10  1  0
 10 11  2  3
 11 12  1  0
 12 13  1  0
 13 14  2  0
 14 15  1  0
 15 16  2  0
 15 17  1  0
 17 18  1  0
 18 19  1  0
 19 20  1  0
 20 21  1  0
 21 22  1  0
 22 23  1  0
 23 24  1  0
 20 25  1  0
 25 26  1  0
 14 27  1  0
 27 28  2  0
 28 29  1  0
  7  2  1  0
 28 11  1  0
 26 17  1  0
 24 21  1  0
  1 30  1  0
  1 31  1  0
  1 32  1  0
  3 33  1  0
  3 34  1  0
  3 35  1  0
  4 36  1  0
  4 37  1  0
  5 38  1  0
  5 39  1  0
  6 40  1  0
  6 41  1  0
 13 42  1  0
 17 43  1  0
 18 44  1  0
 18 45  1  0
 19 46  1  0
 19 47  1  0
 21 48  1  0
 22 49  1  0
 22 50  1  0
 23 51  1  0
 23 52  1  0
 24 53  1  0
 24 54  1  0
 25 55  1  0
 25 56  1  0
 26 57  1  0
 26 58  1  0
 27 59  1  0
M  CHG  2  12  -1  17   1
M  END
>  <UniqueID>  (62) 
60

>  <SMILES>  (62) 
CC1(C)CCCN1C(=O)N=c1[n-]cc(C(=O)[NH+]2CCN(C3CCC3)CC2)cc1Cl

>  <Energy>  (62) 
138.88429632666202

>  <Genealogy>  (62) 
CC1(C)CCCN1C(=O)N=c1[n-]cc(C(=O)[NH+]2CCN(C3CCC3)CC2)cc1Cl (protonated)
CC1(C)CCCN1C(=O)N=c1[n-]cc(C(=O)[NH+]2CCN(C3CCC3)CC2)cc1Cl (3D coordinates assigned)
CC1(C)CCCN1C(=O)N=c1[n-]cc(C(=O)[NH+]2CCN(C3CCC3)CC2)cc1Cl (nonaromatic ring conformer: 138.88429632666202 kcal/mol)

>  <smiles>  (62) 
CC1(C)CCCN1C(=O)N=c1[nH]cc(C(=O)N2CCN(C3CCC3)CC2)cc1Cl

>  <score_type>  (62) 
oracle

>  <origin>  (62) 
adg

>  <m_score__min__energy>  (62) 
-9.75

>  <m_primary>  (62) 
energy

$$$$
62:0
     RDKit          3D

 63 67  0  0  0  0  0  0  0  0999 V2000
   57.3790   33.8390   44.1040 O   0  0  0  0  0  0  0  0  0  0  0  0
   57.8370   32.8820   44.7800 C   0  0  0  0  0  0  0  0  0  0  0  0
   57.7480   31.5530   44.2490 N   0  0  0  0  0  0  0  0  0  0  0  0
   56.6680   30.6030   44.5080 C   0  0  0  0  0  0  0  0  0  0  0  0
   57.1850   29.1600   44.5340 C   0  0  0  0  0  0  0  0  0  0  0  0
   57.6440   28.6590   45.9240 C   0  0  0  0  0  0  0  0  0  0  0  0
   58.7250   29.4450   46.5640 N   0  0  0  0  0  0  0  0  0  0  0  0
   59.9610   29.5800   45.7750 C   0  0  0  0  0  0  0  0  0  0  0  0
   60.8240   30.6850   46.3780 C   0  0  0  0  0  0  0  0  0  0  0  0
   61.0260   30.4730   47.8190 N   0  0  0  0  0  0  0  0  0  0  0  0
   62.0220   31.2540   48.5180 C   0  0  0  0  0  0  0  0  0  0  0  0
   62.2460   31.0720   49.8970 C   0  0  0  0  0  0  0  0  0  0  0  0
   63.2140   31.8260   50.5660 C   0  0  0  0  0  0  0  0  0  0  0  0
   63.9750   32.7670   49.8700 C   0  0  0  0  0  0  0  0  0  0  0  0
   63.7690   32.9550   48.5030 C   0  0  0  0  0  0  0  0  0  0  0  0
   62.7990   32.2060   47.8280 C   0  0  0  0  0  0  0  0  0  0  0  0
   60.3680   29.3390   48.4850 C   0  0  0  0  0  0  0  0  0  0  0  0
   58.9130   29.1740   48.0080 C   0  0  0  0  0  0  0  0  0  0  0  0
   58.4700   33.1640   46.0790 C   0  0  0  0  0  0  0  0  0  0  0  0
   59.4620   34.1500   46.1750 C   0  0  0  0  0  0  0  0  0  0  0  0
   60.0550   34.4380   47.4090 C   0  0  0  0  0  0  0  0  0  0  0  0
   59.6520   33.7500   48.5580 C   0  0  0  0  0  0  0  0  0  0  0  0
   60.2210   34.0350   49.7590 N   0  0  0  0  0  0  0  0  0  0  0  0
   59.8600   33.3920   50.9030 C   0  0  0  0  0  0  0  0  0  0  0  0
   58.8390   32.4150   50.8660 C   0  0  0  0  0  0  0  0  0  0  0  0
   58.2470   32.1000   49.6350 C   0  0  0  0  0  0  0  0  0  0  0  0
   58.6450   32.7680   48.4710 C   0  0  0  0  0  0  0  0  0  0  0  0
   58.0520   32.4830   47.2330 C   0  0  0  0  0  0  0  0  0  0  0  0
   58.4510   31.6290   52.0970 C   0  0  0  0  0  0  0  0  0  0  0  0
   58.8590   32.3320   53.3950 C   0  0  0  0  0  0  0  0  0  0  0  0
   60.3140   32.7970   53.3190 C   0  0  0  0  0  0  0  0  0  0  0  0
   60.4850   33.8320   52.2020 C   0  0  0  0  0  0  0  0  0  0  0  0
   56.2115   30.8370   45.4811 H   0  0  0  0  0  0  0  0  0  0  0  0
   55.9288   30.6908   43.6982 H   0  0  0  0  0  0  0  0  0  0  0  0
   56.3774   28.5010   44.1825 H   0  0  0  0  0  0  0  0  0  0  0  0
   58.0753   29.1389   43.8883 H   0  0  0  0  0  0  0  0  0  0  0  0
   56.7719   28.6750   46.5942 H   0  0  0  0  0  0  0  0  0  0  0  0
   58.0603   27.6543   45.7589 H   0  0  0  0  0  0  0  0  0  0  0  0
   60.5146   28.6297   45.7933 H   0  0  0  0  0  0  0  0  0  0  0  0
   59.7092   29.8343   44.7348 H   0  0  0  0  0  0  0  0  0  0  0  0
   61.8024   30.6912   45.8753 H   0  0  0  0  0  0  0  0  0  0  0  0
   60.3095   31.6468   46.2354 H   0  0  0  0  0  0  0  0  0  0  0  0
   61.6536   30.3297   50.4521 H   0  0  0  0  0  0  0  0  0  0  0  0
   63.3767   31.6777   51.6437 H   0  0  0  0  0  0  0  0  0  0  0  0
   64.7361   33.3595   50.3988 H   0  0  0  0  0  0  0  0  0  0  0  0
   64.3710   33.6943   47.9543 H   0  0  0  0  0  0  0  0  0  0  0  0
   62.6416   32.3614   46.7505 H   0  0  0  0  0  0  0  0  0  0  0  0
   60.9255   28.4183   48.2582 H   0  0  0  0  0  0  0  0  0  0  0  0
   60.3574   29.5324   49.5678 H   0  0  0  0  0  0  0  0  0  0  0  0
   58.5960   28.1405   48.2114 H   0  0  0  0  0  0  0  0  0  0  0  0
   58.3098   29.9136   48.5549 H   0  0  0  0  0  0  0  0  0  0  0  0
   59.7757   34.7000   45.2755 H   0  0  0  0  0  0  0  0  0  0  0  0
   60.8392   35.2065   47.4756 H   0  0  0  0  0  0  0  0  0  0  0  0
   57.4674   31.3256   49.5836 H   0  0  0  0  0  0  0  0  0  0  0  0
   57.2580   31.7246   47.1659 H   0  0  0  0  0  0  0  0  0  0  0  0
   57.3596   31.4917   52.0983 H   0  0  0  0  0  0  0  0  0  0  0  0
   58.9800   30.6653   52.0585 H   0  0  0  0  0  0  0  0  0  0  0  0
   58.2082   33.2044   53.5539 H   0  0  0  0  0  0  0  0  0  0  0  0
   58.7555   31.6238   54.2303 H   0  0  0  0  0  0  0  0  0  0  0  0
   60.6008   33.2495   54.2797 H   0  0  0  0  0  0  0  0  0  0  0  0
   60.9556   31.9298   53.1039 H   0  0  0  0  0  0  0  0  0  0  0  0
   60.0128   34.7736   52.5189 H   0  0  0  0  0  0  0  0  0  0  0  0
   61.5637   33.9577   52.0268 H   0  0  0  0  0  0  0  0  0  0  0  0
  1  2  2  0
  2  3  1  0
  3  4  1  0
  4  5  1  0
  5  6  1  0
  6  7  1  0
  7  8  1  0
  8  9  1  0
  9 10  1  0
 10 11  1  0
 11 12  2  0
 12 13  1  0
 13 14  2  0
 14 15  1  0
 15 16  2  0
 10 17  1  0
 17 18  1  0
  2 19  1  0
 19 20  2  0
 20 21  1  0
 21 22  2  0
 22 23  1  0
 23 24  2  0
 24 25  1  0
 25 26  2  0
 26 27  1  0
 27 28  2  0
 25 29  1  0
 29 30  1  0
 30 31  1  0
 31 32  1  0
 18  7  1  0
 28 19  1  0
 16 11  1  0
 27 22  1  0
 32 24  1  0
  4 33  1  0
  4 34  1  0
  5 35  1  0
  5 36  1  0
  6 37  1  0
  6 38  1  0
  8 39  1  0
  8 40  1  0
  9 41  1  0
  9 42  1  0
 12 43  1  0
 13 44  1  0
 14 45  1  0
 15 46  1  0
 16 47  1  0
 17 48  1  0
 17 49  1  0
 18 50  1  0
 18 51  1  0
 20 52  1  0
 21 53  1  0
 26 54  1  0
 28 55  1  0
 29 56  1  0
 29 57  1  0
 30 58  1  0
 30 59  1  0
 31 60  1  0
 31 61  1  0
 32 62  1  0
 32 63  1  0
M  CHG  1   3  -1
M  END
>  <UniqueID>  (63) 
61

>  <SMILES>  (63) 
O=C([N-]CCCN1CCN(c2ccccc2)CC1)c1ccc2nc3c(cc2c1)CCCC3

>  <Energy>  (63) 
87.95194038569994

>  <Genealogy>  (63) 
O=C([N-]CCCN1CCN(c2ccccc2)CC1)c1ccc2nc3c(cc2c1)CCCC3 (protonated)
O=C([N-]CCCN1CCN(c2ccccc2)CC1)c1ccc2nc3c(cc2c1)CCCC3 (3D coordinates assigned)
O=C([N-]CCCN1CCN(c2ccccc2)CC1)c1ccc2nc3c(cc2c1)CCCC3 (nonaromatic ring conformer: 87.95194038569994 kcal/mol)

>  <smiles>  (63) 
O=C(NCCCN1CCN(c2ccccc2)CC1)c1ccc2nc3c(cc2c1)CCCC3

>  <score_type>  (63) 
oracle

>  <origin>  (63) 
adg

>  <m_score__min__energy>  (63) 
-10.58

>  <m_primary>  (63) 
energy

$$$$
63:0
     RDKit          3D

 61 64  0  0  0  0  0  0  0  0999 V2000
   57.3390   32.5050   44.6610 C   0  0  0  0  0  0  0  0  0  0  0  0
   57.4220   31.1690   44.6570 C   0  0  0  0  0  0  0  0  0  0  0  0
   56.9440   30.4320   43.5680 C   0  0  0  0  0  0  0  0  0  0  0  0
   57.0270   29.0400   43.5670 C   0  0  0  0  0  0  0  0  0  0  0  0
   57.5740   28.3390   44.6600 C   0  0  0  0  0  0  0  0  0  0  0  0
   57.5420   26.9850   44.6120 C   0  0  0  0  0  0  0  0  0  0  0  0
   57.1690   26.0930   45.7220 C   0  0  0  0  0  0  0  0  0  0  0  0
   57.9860   25.1510   46.2250 N   0  0  0  0  0  0  0  0  0  0  0  0
   57.2060   24.5130   47.1270 C   0  0  0  0  0  0  0  0  0  0  0  0
   57.6270   23.5590   47.8310 O   0  0  0  0  0  0  0  0  0  0  0  0
   55.9380   24.9710   47.2050 N   0  0  0  0  0  0  0  0  0  0  0  0
   55.9270   25.9610   46.2980 C   0  0  0  0  0  0  0  0  0  0  0  0
   54.7960   26.7030   45.9800 O   0  0  0  0  0  0  0  0  0  0  0  0
   58.1280   29.0900   45.7390 C   0  0  0  0  0  0  0  0  0  0  0  0
   58.9690   28.4800   46.7420 N   0  0  0  0  0  0  0  0  0  0  0  0
   60.4220   28.6780   46.6750 C   0  0  0  0  0  0  0  0  0  0  0  0
   60.8890   29.6010   47.8180 C   0  0  0  0  0  0  0  0  0  0  0  0
   59.7380   30.1690   48.5430 N   0  0  0  0  0  0  0  0  0  0  0  0
   60.2800   31.2670   49.7870 S   0  0  0  0  0  0  0  0  0  0  0  0
   59.2170   32.3000   50.0350 O   0  0  0  0  0  0  0  0  0  0  0  0
   60.4770   30.5200   51.0770 O   0  0  0  0  0  0  0  0  0  0  0  0
   61.7670   32.1140   49.2410 C   0  0  0  0  0  0  0  0  0  0  0  0
   62.9330   32.0660   50.0620 C   0  0  0  0  0  0  0  0  0  0  0  0
   62.8920   31.4590   51.4520 C   0  0  0  0  0  0  0  0  0  0  0  0
   64.1660   32.5440   49.5560 C   0  0  0  0  0  0  0  0  0  0  0  0
   65.4490   32.4420   50.3470 C   0  0  0  0  0  0  0  0  0  0  0  0
   64.2150   33.1390   48.2950 C   0  0  0  0  0  0  0  0  0  0  0  0
   63.0690   33.2720   47.5070 C   0  0  0  0  0  0  0  0  0  0  0  0
   63.2120   33.9270   46.1540 C   0  0  0  0  0  0  0  0  0  0  0  0
   61.8200   32.8080   47.9940 C   0  0  0  0  0  0  0  0  0  0  0  0
   60.5720   33.0330   47.1660 C   0  0  0  0  0  0  0  0  0  0  0  0
   58.9170   29.0960   49.1360 C   0  0  0  0  0  0  0  0  0  0  0  0
   58.4190   28.1140   48.0530 C   0  0  0  0  0  0  0  0  0  0  0  0
   58.0110   30.4920   45.7340 C   0  0  0  0  0  0  0  0  0  0  0  0
   57.7172   33.0770   45.5211 H   0  0  0  0  0  0  0  0  0  0  0  0
   56.8926   33.0309   43.8042 H   0  0  0  0  0  0  0  0  0  0  0  0
   56.5000   30.9538   42.7074 H   0  0  0  0  0  0  0  0  0  0  0  0
   56.6583   28.4783   42.6960 H   0  0  0  0  0  0  0  0  0  0  0  0
   57.8193   26.5105   43.6591 H   0  0  0  0  0  0  0  0  0  0  0  0
   60.9256   27.7043   46.7660 H   0  0  0  0  0  0  0  0  0  0  0  0
   60.6757   29.1446   45.7117 H   0  0  0  0  0  0  0  0  0  0  0  0
   61.5052   29.0203   48.5202 H   0  0  0  0  0  0  0  0  0  0  0  0
   61.4723   30.4270   47.3849 H   0  0  0  0  0  0  0  0  0  0  0  0
   62.9461   32.2602   52.2037 H   0  0  0  0  0  0  0  0  0  0  0  0
   61.9540   30.8989   51.5800 H   0  0  0  0  0  0  0  0  0  0  0  0
   63.7462   30.7778   51.5800 H   0  0  0  0  0  0  0  0  0  0  0  0
   65.2191   32.4603   51.4225 H   0  0  0  0  0  0  0  0  0  0  0  0
   65.9599   31.5004   50.0972 H   0  0  0  0  0  0  0  0  0  0  0  0
   66.1022   33.2910   50.0972 H   0  0  0  0  0  0  0  0  0  0  0  0
   65.1769   33.5115   47.9129 H   0  0  0  0  0  0  0  0  0  0  0  0
   63.4449   34.9939   46.2859 H   0  0  0  0  0  0  0  0  0  0  0  0
   64.0251   33.4405   45.5952 H   0  0  0  0  0  0  0  0  0  0  0  0
   62.2701   33.8237   45.5952 H   0  0  0  0  0  0  0  0  0  0  0  0
   59.7119   33.1881   47.8339 H   0  0  0  0  0  0  0  0  0  0  0  0
   60.7082   33.9211   46.5313 H   0  0  0  0  0  0  0  0  0  0  0  0
   60.3895   32.1533   46.5313 H   0  0  0  0  0  0  0  0  0  0  0  0
   59.5226   28.5443   49.8701 H   0  0  0  0  0  0  0  0  0  0  0  0
   58.0424   29.5532   49.6218 H   0  0  0  0  0  0  0  0  0  0  0  0
   58.7428   27.0948   48.3107 H   0  0  0  0  0  0  0  0  0  0  0  0
   57.3210   28.1598   48.0059 H   0  0  0  0  0  0  0  0  0  0  0  0
   58.3889   31.0680   46.5916 H   0  0  0  0  0  0  0  0  0  0  0  0
  1  2  2  0
  2  3  1  0
  3  4  2  0
  4  5  1  0
  5  6  2  3
  6  7  1  0
  7  8  1  0
  8  9  1  0
  9 10  2  0
  9 11  1  0
 11 12  1  0
 12 13  1  0
  5 14  1  0
 14 15  1  0
 15 16  1  0
 16 17  1  0
 17 18  1  0
 18 19  1  0
 19 20  2  0
 19 21  2  0
 19 22  1  0
 22 23  2  0
 23 24  1  0
 23 25  1  0
 25 26  1  0
 25 27  2  0
 27 28  1  0
 28 29  1  0
 28 30  2  0
 30 31  1  0
 18 32  1  0
 32 33  1  0
 14 34  2  0
 34  2  1  0
 12  7  2  0
 33 15  1  0
 30 22  1  0
  1 35  1  0
  1 36  1  0
  3 37  1  0
  4 38  1  0
  6 39  1  0
 16 40  1  0
 16 41  1  0
 17 42  1  0
 17 43  1  0
 24 44  1  0
 24 45  1  0
 24 46  1  0
 26 47  1  0
 26 48  1  0
 26 49  1  0
 27 50  1  0
 29 51  1  0
 29 52  1  0
 29 53  1  0
 31 54  1  0
 31 55  1  0
 31 56  1  0
 32 57  1  0
 32 58  1  0
 33 59  1  0
 33 60  1  0
 34 61  1  0
M  CHG  3   8  -1  11  -1  13  -1
M  END
>  <UniqueID>  (64) 
62

>  <SMILES>  (64) 
C=c1ccc(=Cc2[n-]c(=O)[n-]c2[O-])c(N2CCN(S(=O)(=O)c3c(C)c(C)cc(C)c3C)CC2)c1

>  <Energy>  (64) 
127.68492802998647

>  <Genealogy>  (64) 
C=c1ccc(=Cc2[n-]c(=O)[n-]c2[O-])c(N2CCN(S(=O)(=O)c3c(C)c(C)cc(C)c3C)CC2)c1 (protonated)
C=c1ccc(=Cc2[n-]c(=O)[n-]c2[O-])c(N2CCN(S(=O)(=O)c3c(C)c(C)cc(C)c3C)CC2)c1 (3D coordinates assigned)
C=c1ccc(=Cc2[n-]c(=O)[n-]c2[O-])c(N2CCN(S(=O)(=O)c3c(C)c(C)cc(C)c3C)CC2)c1 (nonaromatic ring conformer: 127.68492802998647 kcal/mol)

>  <smiles>  (64) 
C=c1ccc(=Cc2[nH]c(=O)[nH]c2O)c(N2CCN(S(=O)(=O)c3c(C)c(C)cc(C)c3C)CC2)c1

>  <score_type>  (64) 
oracle

>  <origin>  (64) 
adg

>  <m_score__min__energy>  (64) 
-18.300000000000001

>  <m_primary>  (64) 
energy

$$$$
64:0
     RDKit          3D

 46 48  0  0  0  0  0  0  0  0999 V2000
   54.7710   26.2520   45.9850 N   0  0  0  0  0  0  0  0  0  0  0  0
   56.4250   25.7490   45.9720 S   0  0  0  0  0  0  0  0  0  0  0  0
   56.5890   24.6090   45.0050 O   0  0  0  0  0  0  0  0  0  0  0  0
   56.8180   25.2750   47.3430 O   0  0  0  0  0  0  0  0  0  0  0  0
   57.4520   27.1020   45.5010 C   0  0  0  0  0  0  0  0  0  0  0  0
   56.9010   28.3800   45.3220 C   0  0  0  0  0  0  0  0  0  0  0  0
   57.7090   29.4580   44.9280 C   0  0  0  0  0  0  0  0  0  0  0  0
   57.1170   30.8050   44.7500 C   0  0  0  0  0  0  0  0  0  0  0  0
   56.3010   31.0000   43.8110 O   0  0  0  0  0  0  0  0  0  0  0  0
   57.3990   31.8840   45.6500 N   0  0  0  0  0  0  0  0  0  0  0  0
   58.7010   32.3730   46.0020 C   0  0  0  0  0  0  0  0  0  0  0  0
   59.1320   33.6580   45.6340 C   0  0  0  0  0  0  0  0  0  0  0  0
   60.4000   34.1120   46.0080 C   0  0  0  0  0  0  0  0  0  0  0  0
   61.2590   33.2870   46.7520 C   0  0  0  0  0  0  0  0  0  0  0  0
   62.5980   33.7690   47.1570 C   0  0  0  0  0  0  0  0  0  0  0  0
   63.3600   34.2860   46.2950 O   0  0  0  0  0  0  0  0  0  0  0  0
   63.0510   33.6450   48.5160 N   0  0  0  0  0  0  0  0  0  0  0  0
   64.4380   33.2450   48.7800 C   0  0  0  0  0  0  0  0  0  0  0  0
   64.5070   32.3200   50.0050 C   0  0  0  0  0  0  0  0  0  0  0  0
   63.5960   32.7640   51.1710 C   0  0  0  0  0  0  0  0  0  0  0  0
   62.9530   34.1380   50.9490 C   0  0  0  0  0  0  0  0  0  0  0  0
   62.2160   34.1760   49.6050 C   0  0  0  0  0  0  0  0  0  0  0  0
   60.8120   32.0150   47.1490 C   0  0  0  0  0  0  0  0  0  0  0  0
   59.5400   31.5660   46.7780 C   0  0  0  0  0  0  0  0  0  0  0  0
   59.0850   29.2490   44.7380 C   0  0  0  0  0  0  0  0  0  0  0  0
   59.6370   27.9810   44.9270 C   0  0  0  0  0  0  0  0  0  0  0  0
   58.8280   26.9090   45.3110 C   0  0  0  0  0  0  0  0  0  0  0  0
   59.3880   25.6890   45.5010 F   0  0  0  0  0  0  0  0  0  0  0  0
   54.7110   27.0850   46.6110 H   0  0  0  0  0  0  0  0  0  0  0  0
   55.8258   28.5385   45.4920 H   0  0  0  0  0  0  0  0  0  0  0  0
   58.4681   34.3108   45.0482 H   0  0  0  0  0  0  0  0  0  0  0  0
   60.7269   35.1214   45.7178 H   0  0  0  0  0  0  0  0  0  0  0  0
   64.8349   32.7138   47.9024 H   0  0  0  0  0  0  0  0  0  0  0  0
   65.0363   34.1461   48.9802 H   0  0  0  0  0  0  0  0  0  0  0  0
   64.2051   31.3090   49.6941 H   0  0  0  0  0  0  0  0  0  0  0  0
   65.5423   32.3538   50.3753 H   0  0  0  0  0  0  0  0  0  0  0  0
   62.7955   32.0193   51.2917 H   0  0  0  0  0  0  0  0  0  0  0  0
   64.2287   32.8414   52.0675 H   0  0  0  0  0  0  0  0  0  0  0  0
   62.2372   34.3378   51.7600 H   0  0  0  0  0  0  0  0  0  0  0  0
   63.7431   34.9034   50.9429 H   0  0  0  0  0  0  0  0  0  0  0  0
   61.3012   33.5699   49.6819 H   0  0  0  0  0  0  0  0  0  0  0  0
   61.9737   35.2239   49.3741 H   0  0  0  0  0  0  0  0  0  0  0  0
   61.4654   31.3695   47.7543 H   0  0  0  0  0  0  0  0  0  0  0  0
   59.1970   30.5713   47.0987 H   0  0  0  0  0  0  0  0  0  0  0  0
   59.7303   30.0882   44.4390 H   0  0  0  0  0  0  0  0  0  0  0  0
   60.7149   27.8251   44.7727 H   0  0  0  0  0  0  0  0  0  0  0  0
  1  2  1  0
  2  3  2  0
  2  4  2  0
  2  5  1  0
  5  6  2  0
  6  7  1  0
  7  8  1  0
  8  9  2  0
  8 10  1  0
 10 11  1  0
 11 12  2  0
 12 13  1  0
 13 14  2  0
 14 15  1  0
 15 16  2  0
 15 17  1  0
 17 18  1  0
 18 19  1  0
 19 20  1  0
 20 21  1  0
 21 22  1  0
 14 23  1  0
 23 24  2  0
  7 25  2  0
 25 26  1  0
 26 27  2  0
 27 28  1  0
 27  5  1  0
 24 11  1  0
 22 17  1  0
  1 29  1  0
  6 30  1  0
 12 31  1  0
 13 32  1  0
 18 33  1  0
 18 34  1  0
 19 35  1  0
 19 36  1  0
 20 37  1  0
 20 38  1  0
 21 39  1  0
 21 40  1  0
 22 41  1  0
 22 42  1  0
 23 43  1  0
 24 44  1  0
 25 45  1  0
 26 46  1  0
M  CHG  2   1  -1  10  -1
M  END
>  <UniqueID>  (65) 
63

>  <SMILES>  (65) 
[NH-]S(=O)(=O)c1cc(C(=O)[N-]c2ccc(C(=O)N3CCCCC3)cc2)ccc1F

>  <Energy>  (65) 
60.158475425549724

>  <Genealogy>  (65) 
[NH-]S(=O)(=O)c1cc(C(=O)[N-]c2ccc(C(=O)N3CCCCC3)cc2)ccc1F (protonated)
[NH-]S(=O)(=O)c1cc(C(=O)[N-]c2ccc(C(=O)N3CCCCC3)cc2)ccc1F (3D coordinates assigned)
[NH-]S(=O)(=O)c1cc(C(=O)[N-]c2ccc(C(=O)N3CCCCC3)cc2)ccc1F (nonaromatic ring conformer: 60.158475425549724 kcal/mol)

>  <smiles>  (65) 
NS(=O)(=O)c1cc(C(=O)Nc2ccc(C(=O)N3CCCCC3)cc2)ccc1F

>  <score_type>  (65) 
oracle

>  <origin>  (65) 
adg

>  <m_score__min__energy>  (65) 
-13.44

>  <m_primary>  (65) 
energy

$$$$
65:0
     RDKit          3D

 48 51  0  0  0  0  0  0  0  0999 V2000
   55.9950   28.6050   44.2280 H   0  0  0  0  0  0  0  0  0  0  0  0
   55.8760   28.3890   45.2170 O   0  0  0  0  0  0  0  0  0  0  0  0
   56.1340   27.1080   45.6990 C   0  0  0  0  0  0  0  0  0  0  0  0
   55.1780   26.2300   46.0520 N   0  0  0  0  0  0  0  0  0  0  0  0
   55.8950   25.1680   46.4820 C   0  0  0  0  0  0  0  0  0  0  0  0
   55.3570   24.1090   46.9130 O   0  0  0  0  0  0  0  0  0  0  0  0
   57.2360   25.3270   46.4220 N   0  0  0  0  0  0  0  0  0  0  0  0
   57.3790   26.5600   45.8960 C   0  0  0  0  0  0  0  0  0  0  0  0
   58.6680   27.2570   45.7560 C   0  0  0  0  0  0  0  0  0  0  0  0
   59.5791   26.6408   45.7675 H   0  0  0  0  0  0  0  0  0  0  0  0
   58.8230   28.5870   45.6150 C   0  0  0  0  0  0  0  0  0  0  0  0
   58.4190   29.2760   44.4830 C   0  0  0  0  0  0  0  0  0  0  0  0
   57.9893   28.8403   43.5689 H   0  0  0  0  0  0  0  0  0  0  0  0
   58.6590   30.6130   44.7220 C   0  0  0  0  0  0  0  0  0  0  0  0
   58.3580   31.7230   43.7590 C   0  0  0  0  0  0  0  0  0  0  0  0
   58.1102   32.6369   44.3188 H   0  0  0  0  0  0  0  0  0  0  0  0
   59.2384   31.9081   43.1260 H   0  0  0  0  0  0  0  0  0  0  0  0
   57.5047   31.4380   43.1260 H   0  0  0  0  0  0  0  0  0  0  0  0
   59.2140   30.7800   45.9420 N   0  0  0  0  0  0  0  0  0  0  0  0
   59.6890   32.0270   46.4790 C   0  0  0  0  0  0  0  0  0  0  0  0
   58.7990   33.0800   46.7520 C   0  0  0  0  0  0  0  0  0  0  0  0
   57.4370   32.9340   46.4610 O   0  0  0  0  0  0  0  0  0  0  0  0
   56.7330   33.8280   45.6020 C   0  0  0  0  0  0  0  0  0  0  0  0
   56.1654   34.5488   46.2088 H   0  0  0  0  0  0  0  0  0  0  0  0
   57.4509   34.3681   44.9672 H   0  0  0  0  0  0  0  0  0  0  0  0
   56.0396   33.2568   44.9672 H   0  0  0  0  0  0  0  0  0  0  0  0
   59.2670   34.2350   47.3070 N   0  0  0  0  0  0  0  0  0  0  0  0
   60.5830   34.4070   47.6080 C   0  0  0  0  0  0  0  0  0  0  0  0
   60.9225   35.3440   48.0737 H   0  0  0  0  0  0  0  0  0  0  0  0
   61.5060   33.3910   47.3250 C   0  0  0  0  0  0  0  0  0  0  0  0
   62.9310   33.5820   47.6120 C   0  0  0  0  0  0  0  0  0  0  0  0
   63.6310   34.3020   46.8550 O   0  0  0  0  0  0  0  0  0  0  0  0
   63.5160   32.9850   48.7710 N   0  0  0  0  0  0  0  0  0  0  0  0
   63.1130   32.0510   49.8330 C   0  0  0  0  0  0  0  0  0  0  0  0
   62.3662   32.4817   50.5163 H   0  0  0  0  0  0  0  0  0  0  0  0
   62.6202   31.1188   49.5196 H   0  0  0  0  0  0  0  0  0  0  0  0
   64.4630   31.9290   50.4580 C   0  0  0  0  0  0  0  0  0  0  0  0
   64.5462   32.3095   51.4867 H   0  0  0  0  0  0  0  0  0  0  0  0
   64.9714   30.9708   50.6406 H   0  0  0  0  0  0  0  0  0  0  0  0
   64.8520   32.8870   49.3840 C   0  0  0  0  0  0  0  0  0  0  0  0
   65.2084   33.8488   49.7815 H   0  0  0  0  0  0  0  0  0  0  0  0
   65.6842   32.5929   48.7275 H   0  0  0  0  0  0  0  0  0  0  0  0
   61.0540   32.1970   46.7540 C   0  0  0  0  0  0  0  0  0  0  0  0
   61.7674   31.3928   46.5210 H   0  0  0  0  0  0  0  0  0  0  0  0
   59.3570   29.5470   46.4900 C   0  0  0  0  0  0  0  0  0  0  0  0
   60.0210   29.3240   47.6350 C   0  0  0  0  0  0  0  0  0  0  0  0
   60.3894   30.1718   48.2312 H   0  0  0  0  0  0  0  0  0  0  0  0
   60.1967   28.2934   47.9771 H   0  0  0  0  0  0  0  0  0  0  0  0
  1  2  1  0
  2  3  1  0
  3  4  1  0
  4  5  1  0
  5  6  2  0
  5  7  1  0
  7  8  1  0
  8  9  1  0
  9 10  1  0
  9 11  2  0
 11 12  1  0
 12 13  1  0
 12 14  2  0
 14 15  1  0
 15 16  1  0
 15 17  1  0
 15 18  1  0
 14 19  1  0
 19 20  1  0
 20 21  2  0
 21 22  1  0
 22 23  1  0
 23 24  1  0
 23 25  1  0
 23 26  1  0
 21 27  1  0
 27 28  2  0
 28 29  1  0
 28 30  1  0
 30 31  1  0
 31 32  2  0
 31 33  1  0
 33 34  1  0
 34 35  1  0
 34 36  1  0
 34 37  1  0
 37 38  1  0
 37 39  1  0
 37 40  1  0
 40 41  1  0
 40 42  1  0
 30 43  2  0
 43 44  1  0
 19 45  1  0
 45 46  2  0
 46 47  1  0
 46 48  1  0
  8  3  2  0
 45 11  1  0
 43 20  1  0
 40 33  1  0
M  CHG  2   4  -1   7  -1
M  END
>  <UniqueID>  (66) 
64

>  <SMILES>  (66) 
C=c1/c(=C\c2[n-]c(=O)[n-]c2O)cc(C)n1-c1cc(C(=O)N2CCC2)cnc1OC

>  <Energy>  (66) 
173.28828572092857

>  <Genealogy>  (66) 
C=c1c(=Cc2[n-]c(=O)[n-]c2O)cc(C)n1-c1cc(C(=O)N2CCC2)cnc1OC (protonated)
C=c1/c(=C\c2[n-]c(=O)[n-]c2O)cc(C)n1-c1cc(C(=O)N2CCC2)cnc1OC (cis-trans isomerization)
C=c1/c(=C\c2[n-]c(=O)[n-]c2O)cc(C)n1-c1cc(C(=O)N2CCC2)cnc1OC (3D coordinates assigned)
C=c1/c(=C\c2[n-]c(=O)[n-]c2O)cc(C)n1-c1cc(C(=O)N2CCC2)cnc1OC (nonaromatic ring conformer: 173.28828572092857 kcal/mol)

>  <smiles>  (66) 
C=c1c(=Cc2[nH]c(=O)[nH]c2O)cc(C)n1-c1cc(C(=O)N2CCC2)cnc1OC

>  <score_type>  (66) 
oracle

>  <origin>  (66) 
adg

>  <m_score__min__energy>  (66) 
-13.15

>  <m_primary>  (66) 
energy

$$$$
66:0
     RDKit          3D

 36 38  0  0  0  0  0  0  0  0999 V2000
   56.5290   30.2470   43.2360 C   0  0  0  0  0  0  0  0  0  0  0  0
   57.3220   30.5830   44.2640 C   0  0  0  0  0  0  0  0  0  0  0  0
   57.2340   31.8710   44.6980 N   0  0  0  0  0  0  0  0  0  0  0  0
   58.0910   32.4080   45.6020 C   0  0  0  0  0  0  0  0  0  0  0  0
   57.9410   33.7370   46.0060 C   0  0  0  0  0  0  0  0  0  0  0  0
   58.8450   34.3010   46.9120 C   0  0  0  0  0  0  0  0  0  0  0  0
   59.9130   33.5410   47.4230 C   0  0  0  0  0  0  0  0  0  0  0  0
   60.8710   34.1360   48.3810 C   0  0  0  0  0  0  0  0  0  0  0  0
   60.4680   34.5650   49.4970 O   0  0  0  0  0  0  0  0  0  0  0  0
   62.2280   34.2230   48.0470 O   0  0  0  0  0  0  0  0  0  0  0  0
   63.0860   33.0900   48.0200 C   0  0  0  0  0  0  0  0  0  0  0  0
   60.0590   32.2030   47.0110 C   0  0  0  0  0  0  0  0  0  0  0  0
   59.1510   31.6360   46.1030 C   0  0  0  0  0  0  0  0  0  0  0  0
   59.2650   30.3020   45.7000 C   0  0  0  0  0  0  0  0  0  0  0  0
   58.3160   29.7190   44.8340 C   0  0  0  0  0  0  0  0  0  0  0  0
   58.4080   28.3770   44.6380 C   0  0  0  0  0  0  0  0  0  0  0  0
   57.6500   27.3260   45.3530 C   0  0  0  0  0  0  0  0  0  0  0  0
   56.2730   27.4800   45.5750 C   0  0  0  0  0  0  0  0  0  0  0  0
   55.6200   28.6400   45.1670 O   0  0  0  0  0  0  0  0  0  0  0  0
   55.5730   26.4960   46.1990 N   0  0  0  0  0  0  0  0  0  0  0  0
   56.1780   25.3500   46.6020 C   0  0  0  0  0  0  0  0  0  0  0  0
   55.5100   24.4570   47.1830 O   0  0  0  0  0  0  0  0  0  0  0  0
   57.5030   25.1650   46.3730 N   0  0  0  0  0  0  0  0  0  0  0  0
   58.2480   26.1150   45.7520 C   0  0  0  0  0  0  0  0  0  0  0  0
   59.4690   25.8940   45.5300 O   0  0  0  0  0  0  0  0  0  0  0  0
   56.5508   29.2223   42.8366 H   0  0  0  0  0  0  0  0  0  0  0  0
   55.8568   30.9961   42.7922 H   0  0  0  0  0  0  0  0  0  0  0  0
   57.1107   34.3407   45.6109 H   0  0  0  0  0  0  0  0  0  0  0  0
   58.7199   35.3473   47.2276 H   0  0  0  0  0  0  0  0  0  0  0  0
   63.3192   32.7820   49.0499 H   0  0  0  0  0  0  0  0  0  0  0  0
   62.5854   32.2634   47.4946 H   0  0  0  0  0  0  0  0  0  0  0  0
   64.0174   33.3478   47.4946 H   0  0  0  0  0  0  0  0  0  0  0  0
   60.8898   31.5979   47.4030 H   0  0  0  0  0  0  0  0  0  0  0  0
   60.1085   29.6971   46.0642 H   0  0  0  0  0  0  0  0  0  0  0  0
   59.1182   28.0376   43.8696 H   0  0  0  0  0  0  0  0  0  0  0  0
   54.7700   28.9470   45.6260 H   0  0  0  0  0  0  0  0  0  0  0  0
  1  2  2  0
  2  3  1  0
  3  4  2  0
  4  5  1  0
  5  6  2  0
  6  7  1  0
  7  8  1  0
  8  9  2  0
  8 10  1  0
 10 11  1  0
  7 12  2  0
 12 13  1  0
 13 14  2  0
 14 15  1  0
 15 16  2  3
 16 17  1  0
 17 18  2  0
 18 19  1  0
 18 20  1  0
 20 21  1  0
 21 22  2  0
 21 23  1  0
 23 24  1  0
 24 25  2  0
 15  2  1  0
 24 17  1  0
 13  4  1  0
  1 26  1  0
  1 27  1  0
  5 28  1  0
  6 29  1  0
 11 30  1  0
 11 31  1  0
 11 32  1  0
 12 33  1  0
 14 34  1  0
 16 35  1  0
 19 36  1  0
M  CHG  2  20  -1  23  -1
M  END
>  <UniqueID>  (67) 
65

>  <SMILES>  (67) 
C=c1nc2ccc(C(=O)OC)cc2cc1=Cc1c(O)[n-]c(=O)[n-]c1=O

>  <Energy>  (67) 
62.82765802393461

>  <Genealogy>  (67) 
C=c1nc2ccc(C(=O)OC)cc2cc1=Cc1c(O)[n-]c(=O)[n-]c1=O (protonated)
C=c1nc2ccc(C(=O)OC)cc2cc1=Cc1c(O)[n-]c(=O)[n-]c1=O (3D coordinates assigned)
C=c1nc2ccc(C(=O)OC)cc2cc1=Cc1c(O)[n-]c(=O)[n-]c1=O (optimized conformer: 62.82765802393461 kcal/mol)

>  <smiles>  (67) 
C=c1nc2ccc(C(=O)OC)cc2cc1=Cc1c(O)[nH]c(=O)[nH]c1=O

>  <score_type>  (67) 
oracle

>  <origin>  (67) 
adg

>  <m_score__min__energy>  (67) 
-13.15

>  <m_primary>  (67) 
energy

$$$$
67:0
     RDKit          3D

 56 59  0  0  0  0  0  0  0  0999 V2000
   60.5072   33.2914   53.2649 H   0  0  0  0  0  0  0  0  0  0  0  0
   60.2000   32.8380   52.3110 C   0  0  0  0  0  0  0  0  0  0  0  0
   61.0230   31.8960   51.6870 C   0  0  0  0  0  0  0  0  0  0  0  0
   61.9778   31.6081   52.1512 H   0  0  0  0  0  0  0  0  0  0  0  0
   60.6350   31.3190   50.4740 C   0  0  0  0  0  0  0  0  0  0  0  0
   61.2838   30.5757   49.9876 H   0  0  0  0  0  0  0  0  0  0  0  0
   59.4190   31.6860   49.8750 C   0  0  0  0  0  0  0  0  0  0  0  0
   58.9960   31.0480   48.5760 C   0  0  0  0  0  0  0  0  0  0  0  0
   58.8394   31.8345   47.8231 H   0  0  0  0  0  0  0  0  0  0  0  0
   58.0649   30.4879   48.7472 H   0  0  0  0  0  0  0  0  0  0  0  0
   60.0300   30.1070   48.0860 N   0  0  0  0  0  0  0  0  0  0  0  0
   59.5890   28.6940   48.1100 C   0  0  0  0  0  0  0  0  0  0  0  0
   59.1726   28.4725   49.1038 H   0  0  0  0  0  0  0  0  0  0  0  0
   60.4664   28.0692   47.8869 H   0  0  0  0  0  0  0  0  0  0  0  0
   58.5160   28.3850   47.0460 C   0  0  0  0  0  0  0  0  0  0  0  0
   57.5276   28.6240   47.4654 H   0  0  0  0  0  0  0  0  0  0  0  0
   58.6060   27.3195   46.7879 H   0  0  0  0  0  0  0  0  0  0  0  0
   58.7070   29.1950   45.7410 C   0  0  0  0  0  0  0  0  0  0  0  0
   58.0883   30.1028   45.7975 H   0  0  0  0  0  0  0  0  0  0  0  0
   58.2320   28.3810   44.5220 C   0  0  0  0  0  0  0  0  0  0  0  0
   57.8860   27.3940   44.8627 H   0  0  0  0  0  0  0  0  0  0  0  0
   59.0752   28.2773   43.8232 H   0  0  0  0  0  0  0  0  0  0  0  0
   57.1390   29.0550   43.8290 N   0  0  0  0  0  0  0  0  0  0  0  0
   56.1600   29.8660   44.4890 C   0  0  0  0  0  0  0  0  0  0  0  0
   55.1640   29.3330   45.0470 O   0  0  0  0  0  0  0  0  0  0  0  0
   56.2870   31.2900   44.5030 N   0  0  0  0  0  0  0  0  0  0  0  0
   57.5070   32.0030   44.8710 C   0  0  0  0  0  0  0  0  0  0  0  0
   57.9851   31.4825   45.7140 H   0  0  0  0  0  0  0  0  0  0  0  0
   58.1731   32.0232   43.9958 H   0  0  0  0  0  0  0  0  0  0  0  0
   57.2080   33.4500   45.2830 C   0  0  0  0  0  0  0  0  0  0  0  0
   56.4432   33.8634   44.6091 H   0  0  0  0  0  0  0  0  0  0  0  0
   56.8507   33.4473   46.3234 H   0  0  0  0  0  0  0  0  0  0  0  0
   58.4080   34.2840   45.2100 N   0  0  0  0  0  0  0  0  0  0  0  0
   59.4050   34.2210   46.0380 C   0  0  0  0  0  0  0  0  0  0  0  0
   60.6550   33.8260   45.6860 N   0  0  0  0  0  0  0  0  0  0  0  0
   61.4720   33.8150   46.7690 C   0  0  0  0  0  0  0  0  0  0  0  0
   62.8150   33.4380   46.7380 C   0  0  0  0  0  0  0  0  0  0  0  0
   63.2900   33.1313   45.7944 H   0  0  0  0  0  0  0  0  0  0  0  0
   63.5490   33.4580   47.9370 C   0  0  0  0  0  0  0  0  0  0  0  0
   64.6092   33.1647   47.9327 H   0  0  0  0  0  0  0  0  0  0  0  0
   62.9370   33.8510   49.1450 C   0  0  0  0  0  0  0  0  0  0  0  0
   63.6740   33.8650   50.3220 O   0  0  0  0  0  0  0  0  0  0  0  0
   61.5840   34.2280   49.1620 C   0  0  0  0  0  0  0  0  0  0  0  0
   61.0950   34.5368   50.0977 H   0  0  0  0  0  0  0  0  0  0  0  0
   60.8790   34.2000   47.9620 C   0  0  0  0  0  0  0  0  0  0  0  0
   59.2660   34.5780   47.6850 S   0  0  0  0  0  0  0  0  0  0  0  0
   60.1700   29.6360   45.5880 C   0  0  0  0  0  0  0  0  0  0  0  0
   60.2766   30.2122   44.6570 H   0  0  0  0  0  0  0  0  0  0  0  0
   60.8056   28.7386   45.5606 H   0  0  0  0  0  0  0  0  0  0  0  0
   60.6100   30.5140   46.7780 C   0  0  0  0  0  0  0  0  0  0  0  0
   60.3042   31.5506   46.5730 H   0  0  0  0  0  0  0  0  0  0  0  0
   61.7004   30.4000   46.8676 H   0  0  0  0  0  0  0  0  0  0  0  0
   58.5940   32.6300   50.5080 C   0  0  0  0  0  0  0  0  0  0  0  0
   57.6374   32.9192   50.0484 H   0  0  0  0  0  0  0  0  0  0  0  0
   58.9870   33.2030   51.7220 C   0  0  0  0  0  0  0  0  0  0  0  0
   58.3391   33.9431   52.2143 H   0  0  0  0  0  0  0  0  0  0  0  0
  1  2  1  0
  2  3  2  0
  3  4  1  0
  3  5  1  0
  5  6  1  0
  5  7  2  0
  7  8  1  0
  8  9  1  0
  8 10  1  0
  8 11  1  0
 11 12  1  0
 12 13  1  0
 12 14  1  0
 12 15  1  0
 15 16  1  0
 15 17  1  0
 15 18  1  0
 18 19  1  0
 18 20  1  0
 20 21  1  0
 20 22  1  0
 20 23  1  0
 23 24  1  0
 24 25  2  0
 24 26  1  0
 26 27  1  0
 27 28  1  0
 27 29  1  0
 27 30  1  0
 30 31  1  0
 30 32  1  0
 30 33  1  0
 33 34  2  0
 34 35  1  0
 35 36  1  0
 36 37  2  0
 37 38  1  0
 37 39  1  0
 39 40  1  0
 39 41  2  0
 41 42  1  0
 41 43  1  0
 43 44  1  0
 43 45  2  0
 45 46  1  0
 18 47  1  0
 47 48  1  0
 47 49  1  0
 47 50  1  0
 50 51  1  0
 50 52  1  0
  7 53  1  0
 53 54  1  0
 53 55  2  0
 55 56  1  0
 55  2  1  0
 50 11  1  0
 46 34  1  0
 45 36  1  0
M  CHG  4  23  -1  26  -1  35  -1  42  -1
M  END
>  <UniqueID>  (68) 
66

>  <SMILES>  (68) 
O=C([N-]CC/N=c1\[n-]c2ccc([O-])cc2s1)[N-]CC1CCN(Cc2ccccc2)CC1

>  <Energy>  (68) 
95.30191953185371

>  <Genealogy>  (68) 
O=C([N-]CCN=c1[n-]c2ccc([O-])cc2s1)[N-]CC1CCN(Cc2ccccc2)CC1 (protonated)
O=C([N-]CC/N=c1\[n-]c2ccc([O-])cc2s1)[N-]CC1CCN(Cc2ccccc2)CC1 (cis-trans isomerization)
O=C([N-]CC/N=c1\[n-]c2ccc([O-])cc2s1)[N-]CC1CCN(Cc2ccccc2)CC1 (3D coordinates assigned)
O=C([N-]CC/N=c1\[n-]c2ccc([O-])cc2s1)[N-]CC1CCN(Cc2ccccc2)CC1 (nonaromatic ring conformer: 95.30191953185371 kcal/mol)

>  <smiles>  (68) 
O=C(NCCN=c1[nH]c2ccc(O)cc2s1)NCC1CCN(Cc2ccccc2)CC1

>  <score_type>  (68) 
oracle

>  <origin>  (68) 
adg

>  <m_score__min__energy>  (68) 
-16.100000000000001

>  <m_primary>  (68) 
energy

$$$$
68:0
     RDKit          3D

 43 46  0  0  1  0  0  0  0  0999 V2000
   59.6450   35.3580   46.6890 C   0  0  0  0  0  0  0  0  0  0  0  0
   58.9200   34.2750   45.9460 C   0  0  0  0  0  0  0  0  0  0  0  0
   59.1610   34.1480   44.5870 C   0  0  0  0  0  0  0  0  0  0  0  0
   58.4920   33.1440   43.8850 C   0  0  0  0  0  0  0  0  0  0  0  0
   57.6270   32.3370   44.5960 C   0  0  0  0  0  0  0  0  0  0  0  0
   56.9030   31.2590   43.8710 C   0  0  0  0  0  0  0  0  0  0  0  0
   60.5410   29.1570   46.8430 N   0  0  0  0  0  0  0  0  0  0  0  0
   60.7110   30.3860   47.1770 C   0  0  0  0  0  0  0  0  0  0  0  0
   58.4750   29.6150   45.8010 N   0  0  0  0  0  0  0  0  0  0  0  0
   59.4160   28.6910   46.1070 C   0  0  0  0  0  0  0  0  0  0  0  0
   56.5220   30.2640   44.8660 N   0  0  0  0  0  0  0  0  0  0  0  0
   57.3740   29.3160   45.1160 C   0  0  0  0  0  0  0  0  0  0  0  0
   61.9250   31.0140   47.2800 C   0  0  0  0  0  0  0  0  0  0  0  0
   61.6190   32.3210   47.6620 C   0  0  0  0  0  0  0  0  0  0  0  0
   62.5650   33.4380   47.9180 C   0  0  0  0  0  0  0  0  0  0  0  0
   63.4190   33.9760   46.8580 C   0  0  0  0  0  0  0  0  0  0  0  0
   64.0150   33.0860   47.9420 C   0  0  0  0  0  0  0  0  0  0  0  0
   60.2840   32.4400   47.7730 N   0  0  0  0  0  0  0  0  0  0  0  0
   59.7320   31.2570   47.4750 N   0  0  0  0  0  0  0  0  0  0  0  0
   59.2610   27.3790   45.7100 C   0  0  0  0  0  0  0  0  0  0  0  0
   58.1060   27.0800   44.9950 C   0  0  0  0  0  0  0  0  0  0  0  0
   57.1850   28.0440   44.7100 N   0  0  0  0  0  0  0  0  0  0  0  0
   57.3980   32.4740   45.9460 C   0  0  0  0  0  0  0  0  0  0  0  0
   58.0690   33.4620   46.5910 N   0  0  0  0  0  0  0  0  0  0  0  0
   59.5365   35.1959   47.7716 H   0  0  0  0  0  0  0  0  0  0  0  0
   60.7114   35.3365   46.4201 H   0  0  0  0  0  0  0  0  0  0  0  0
   59.2187   36.3358   46.4201 H   0  0  0  0  0  0  0  0  0  0  0  0
   59.8626   34.8222   44.0740 H   0  0  0  0  0  0  0  0  0  0  0  0
   58.6483   33.0013   42.8056 H   0  0  0  0  0  0  0  0  0  0  0  0
   56.0066   31.6677   43.3818 H   0  0  0  0  0  0  0  0  0  0  0  0
   57.5374   30.8136   43.0905 H   0  0  0  0  0  0  0  0  0  0  0  0
   62.9210   30.5828   47.1010 H   0  0  0  0  0  0  0  0  0  0  0  0
   61.8511   33.9199   48.6023 H   0  0  0  0  0  0  0  0  0  0  0  0
   63.3218   33.5998   45.8289 H   0  0  0  0  0  0  0  0  0  0  0  0
   63.6372   34.9816   46.4693 H   0  0  0  0  0  0  0  0  0  0  0  0
   64.3422   32.0633   47.7031 H   0  0  0  0  0  0  0  0  0  0  0  0
   64.8356   33.1706   48.6696 H   0  0  0  0  0  0  0  0  0  0  0  0
   59.7130   33.2870   48.0410 H   0  0  0  0  0  0  0  0  0  0  0  0
   58.7150   31.0030   47.4630 H   0  0  0  0  0  0  0  0  0  0  0  0
   60.0111   26.6100   45.9464 H   0  0  0  0  0  0  0  0  0  0  0  0
   57.9328   26.0487   44.6538 H   0  0  0  0  0  0  0  0  0  0  0  0
   56.3050   27.8080   44.1630 H   0  0  0  0  0  0  0  0  0  0  0  0
   56.7009   31.8111   46.4796 H   0  0  0  0  0  0  0  0  0  0  0  0
  1  2  1  0
  2  3  2  0
  3  4  1  0
  4  5  2  0
  5  6  1  0
  6  7  1  0
  7  8  2  0
  8  9  1  0
  9 10  2  0
 10 11  1  0
 11 12  2  0
 12 13  1  0
 13 14  2  0
 14 15  1  0
 15 16  1  0
 16 17  1  0
 14 18  1  0
 18 19  1  0
 10 20  1  0
 20 21  2  0
 21 22  1  0
  5 23  1  0
 23 24  2  0
 24  2  1  0
 22  8  1  0
 19 12  1  0
 17 15  1  0
  1 25  1  0
  1 26  1  0
  1 27  1  0
  3 28  1  0
  4 29  1  0
  6 30  1  0
  6 31  1  0
 13 32  1  0
 15 33  1  0
 16 34  1  0
 16 35  1  0
 17 36  1  0
 17 37  1  0
 18 38  1  0
 19 39  1  0
 20 40  1  0
 21 41  1  0
 22 42  1  0
 23 43  1  0
M  END
>  <smiles>  (69) 
Cc1ccc(CN=c2nc(N=c3cc(C4CC4)[nH][nH]3)cc[nH]2)cn1

>  <score_type>  (69) 
oracle

>  <origin>  (69) 
adg

>  <m_score__min__energy>  (69) 
-7.5899999999999999

>  <m_primary>  (69) 
energy

$$$$
69:0
     RDKit          3D

 45 47  0  0  0  0  0  0  0  0999 V2000
   56.3860   30.5930   43.1260 O   0  0  0  0  0  0  0  0  0  0  0  0
   56.6340   30.6730   44.3580 C   0  0  0  0  0  0  0  0  0  0  0  0
   56.0820   29.6790   45.2340 N   0  0  0  0  0  0  0  0  0  0  0  0
   56.3830   28.2480   45.2450 C   0  0  0  0  0  0  0  0  0  0  0  0
   57.8450   27.9800   45.0090 C   0  0  0  0  0  0  0  0  0  0  0  0
   58.2700   28.0350   43.8230 O   0  0  0  0  0  0  0  0  0  0  0  0
   58.7590   27.6470   46.0800 N   0  0  0  0  0  0  0  0  0  0  0  0
   58.4130   27.7480   47.4920 C   0  0  0  0  0  0  0  0  0  0  0  0
   58.9800   29.0460   48.0880 C   0  0  0  0  0  0  0  0  0  0  0  0
   60.1810   29.5960   47.4060 N   0  0  0  0  0  0  0  0  0  0  0  0
   60.7300   30.8680   47.8750 C   0  0  0  0  0  0  0  0  0  0  0  0
   60.2310   31.4980   49.0410 C   0  0  0  0  0  0  0  0  0  0  0  0
   60.7490   32.7200   49.4790 C   0  0  0  0  0  0  0  0  0  0  0  0
   61.7710   33.3480   48.7700 C   0  0  0  0  0  0  0  0  0  0  0  0
   62.2750   34.5670   49.2190 O   0  0  0  0  0  0  0  0  0  0  0  0
   62.2800   32.7480   47.6160 C   0  0  0  0  0  0  0  0  0  0  0  0
   61.7700   31.5250   47.1720 C   0  0  0  0  0  0  0  0  0  0  0  0
   60.7760   28.9760   46.1940 C   0  0  0  0  0  0  0  0  0  0  0  0
   60.1950   27.6120   45.8450 C   0  0  0  0  0  0  0  0  0  0  0  0
   57.4260   31.8150   44.8500 C   0  0  0  0  0  0  0  0  0  0  0  0
   57.8040   32.8590   43.9900 C   0  0  0  0  0  0  0  0  0  0  0  0
   58.5640   33.9280   44.4740 C   0  0  0  0  0  0  0  0  0  0  0  0
   58.9380   33.9710   45.8200 C   0  0  0  0  0  0  0  0  0  0  0  0
   59.8950   35.3110   46.4250 Cl  0  0  0  0  0  0  0  0  0  0  0  0
   58.5390   32.9480   46.6880 C   0  0  0  0  0  0  0  0  0  0  0  0
   57.7770   31.8800   46.2070 C   0  0  0  0  0  0  0  0  0  0  0  0
   56.0986   27.8323   46.2229 H   0  0  0  0  0  0  0  0  0  0  0  0
   55.8140   27.7738   44.4318 H   0  0  0  0  0  0  0  0  0  0  0  0
   57.3182   27.7477   47.5983 H   0  0  0  0  0  0  0  0  0  0  0  0
   58.8437   26.8897   48.0284 H   0  0  0  0  0  0  0  0  0  0  0  0
   58.1894   29.8098   48.0489 H   0  0  0  0  0  0  0  0  0  0  0  0
   59.3037   28.7920   49.1082 H   0  0  0  0  0  0  0  0  0  0  0  0
   59.4223   31.0177   49.6114 H   0  0  0  0  0  0  0  0  0  0  0  0
   60.3473   33.1890   50.3893 H   0  0  0  0  0  0  0  0  0  0  0  0
   62.2830   34.8060   50.2040 H   0  0  0  0  0  0  0  0  0  0  0  0
   63.0867   33.2408   47.0536 H   0  0  0  0  0  0  0  0  0  0  0  0
   62.1827   31.0650   46.2620 H   0  0  0  0  0  0  0  0  0  0  0  0
   60.6078   29.6515   45.3423 H   0  0  0  0  0  0  0  0  0  0  0  0
   61.8437   28.8209   46.4083 H   0  0  0  0  0  0  0  0  0  0  0  0
   60.3923   27.3845   44.7870 H   0  0  0  0  0  0  0  0  0  0  0  0
   60.6598   26.8340   46.4685 H   0  0  0  0  0  0  0  0  0  0  0  0
   57.5013   32.8356   42.9327 H   0  0  0  0  0  0  0  0  0  0  0  0
   58.8683   34.7372   43.7938 H   0  0  0  0  0  0  0  0  0  0  0  0
   58.8254   32.9848   47.7494 H   0  0  0  0  0  0  0  0  0  0  0  0
   57.4508   31.0865   46.8954 H   0  0  0  0  0  0  0  0  0  0  0  0
  1  2  2  0
  2  3  1  0
  3  4  1  0
  4  5  1  0
  5  6  2  0
  5  7  1  0
  7  8  1  0
  8  9  1  0
  9 10  1  0
 10 11  1  0
 11 12  2  0
 12 13  1  0
 13 14  2  0
 14 15  1  0
 14 16  1  0
 16 17  2  0
 10 18  1  0
 18 19  1  0
  2 20  1  0
 20 21  2  0
 21 22  1  0
 22 23  2  0
 23 24  1  0
 23 25  1  0
 25 26  2  0
 19  7  1  0
 26 20  1  0
 17 11  1  0
  4 27  1  0
  4 28  1  0
  8 29  1  0
  8 30  1  0
  9 31  1  0
  9 32  1  0
 12 33  1  0
 13 34  1  0
 15 35  1  0
 16 36  1  0
 17 37  1  0
 18 38  1  0
 18 39  1  0
 19 40  1  0
 19 41  1  0
 21 42  1  0
 22 43  1  0
 25 44  1  0
 26 45  1  0
M  CHG  1   3  -1
M  END
>  <UniqueID>  (70) 
67

>  <SMILES>  (70) 
O=C([N-]CC(=O)N1CCN(c2ccc(O)cc2)CC1)c1ccc(Cl)cc1

>  <Energy>  (70) 
56.567713553830984

>  <Genealogy>  (70) 
O=C([N-]CC(=O)N1CCN(c2ccc(O)cc2)CC1)c1ccc(Cl)cc1 (protonated)
O=C([N-]CC(=O)N1CCN(c2ccc(O)cc2)CC1)c1ccc(Cl)cc1 (3D coordinates assigned)
O=C([N-]CC(=O)N1CCN(c2ccc(O)cc2)CC1)c1ccc(Cl)cc1 (nonaromatic ring conformer: 56.567713553830984 kcal/mol)

>  <smiles>  (70) 
O=C(NCC(=O)N1CCN(c2ccc(O)cc2)CC1)c1ccc(Cl)cc1

>  <score_type>  (70) 
oracle

>  <origin>  (70) 
adg

>  <m_score__min__energy>  (70) 
-10.119999999999999

>  <m_primary>  (70) 
energy

$$$$
70:0
     RDKit          3D

 48 51  0  0  0  0  0  0  0  0999 V2000
   60.3570   29.0080   45.7060 C   0  0  0  0  0  0  0  0  0  0  0  0
   59.1600   29.8110   45.2680 C   0  0  0  0  0  0  0  0  0  0  0  0
   58.9110   31.1130   45.7160 C   0  0  0  0  0  0  0  0  0  0  0  0
   59.7310   31.8890   46.6550 C   0  0  0  0  0  0  0  0  0  0  0  0
   60.5600   31.2720   47.3800 O   0  0  0  0  0  0  0  0  0  0  0  0
   59.6080   33.3250   46.7510 N   0  0  0  0  0  0  0  0  0  0  0  0
   58.3530   33.9030   47.2400 C   0  0  0  0  0  0  0  0  0  0  0  0
   60.7190   34.2100   46.3710 C   0  0  0  0  0  0  0  0  0  0  0  0
   62.0160   33.6920   46.9060 C   0  0  0  0  0  0  0  0  0  0  0  0
   62.2240   33.3620   48.2010 N   0  0  0  0  0  0  0  0  0  0  0  0
   63.5150   32.9670   48.1730 C   0  0  0  0  0  0  0  0  0  0  0  0
   64.2380   32.4790   49.3560 C   0  0  0  0  0  0  0  0  0  0  0  0
   65.4970   32.8870   49.7870 C   0  0  0  0  0  0  0  0  0  0  0  0
   65.9160   32.2360   50.9590 C   0  0  0  0  0  0  0  0  0  0  0  0
   64.9970   31.3180   51.4500 C   0  0  0  0  0  0  0  0  0  0  0  0
   63.6610   31.3140   50.4250 S   0  0  0  0  0  0  0  0  0  0  0  0
   64.0400   33.0630   46.9370 N   0  0  0  0  0  0  0  0  0  0  0  0
   63.0930   33.5150   46.1770 O   0  0  0  0  0  0  0  0  0  0  0  0
   57.4570   31.6550   45.0600 S   0  0  0  0  0  0  0  0  0  0  0  0
   57.1840   30.2130   44.2500 C   0  0  0  0  0  0  0  0  0  0  0  0
   56.1730   29.9970   43.5320 O   0  0  0  0  0  0  0  0  0  0  0  0
   58.1750   29.3060   44.4570 N   0  0  0  0  0  0  0  0  0  0  0  0
   58.1590   27.9420   43.9060 C   0  0  0  0  0  0  0  0  0  0  0  0
   57.9020   26.9240   44.9910 C   0  0  0  0  0  0  0  0  0  0  0  0
   58.8930   25.9790   45.3120 C   0  0  0  0  0  0  0  0  0  0  0  0
   58.6710   25.0350   46.3200 C   0  0  0  0  0  0  0  0  0  0  0  0
   57.4590   25.0320   47.0210 C   0  0  0  0  0  0  0  0  0  0  0  0
   56.4740   25.9750   46.7220 C   0  0  0  0  0  0  0  0  0  0  0  0
   56.6900   26.9220   45.7130 C   0  0  0  0  0  0  0  0  0  0  0  0
   55.7140   27.8290   45.4430 F   0  0  0  0  0  0  0  0  0  0  0  0
   60.3979   28.9805   46.8049 H   0  0  0  0  0  0  0  0  0  0  0  0
   60.2732   27.9827   45.3165 H   0  0  0  0  0  0  0  0  0  0  0  0
   61.2739   29.4744   45.3165 H   0  0  0  0  0  0  0  0  0  0  0  0
   58.3533   33.9029   48.3400 H   0  0  0  0  0  0  0  0  0  0  0  0
   58.2576   34.9358   46.8735 H   0  0  0  0  0  0  0  0  0  0  0  0
   57.5062   33.3042   46.8735 H   0  0  0  0  0  0  0  0  0  0  0  0
   60.7774   34.2651   45.2739 H   0  0  0  0  0  0  0  0  0  0  0  0
   60.5359   35.2085   46.7947 H   0  0  0  0  0  0  0  0  0  0  0  0
   66.1019   33.6419   49.2634 H   0  0  0  0  0  0  0  0  0  0  0  0
   66.8833   32.4351   51.4434 H   0  0  0  0  0  0  0  0  0  0  0  0
   65.1204   30.7006   52.3520 H   0  0  0  0  0  0  0  0  0  0  0  0
   65.0060   32.8230   46.6210 H   0  0  0  0  0  0  0  0  0  0  0  0
   57.3646   27.8691   43.1487 H   0  0  0  0  0  0  0  0  0  0  0  0
   59.1407   27.7342   43.4554 H   0  0  0  0  0  0  0  0  0  0  0  0
   59.8485   25.9823   44.7670 H   0  0  0  0  0  0  0  0  0  0  0  0
   59.4483   24.2952   46.5619 H   0  0  0  0  0  0  0  0  0  0  0  0
   57.2826   24.2850   47.8090 H   0  0  0  0  0  0  0  0  0  0  0  0
   55.5261   25.9743   47.2801 H   0  0  0  0  0  0  0  0  0  0  0  0
  1  2  1  0
  2  3  2  0
  3  4  1  0
  4  5  2  0
  4  6  1  0
  6  7  1  0
  6  8  1  0
  8  9  1  0
  9 10  2  0
 10 11  1  0
 11 12  1  0
 12 13  2  0
 13 14  1  0
 14 15  2  0
 15 16  1  0
 11 17  2  0
 17 18  1  0
  3 19  1  0
 19 20  1  0
 20 21  2  0
 20 22  1  0
 22 23  1  0
 23 24  1  0
 24 25  2  0
 25 26  1  0
 26 27  2  0
 27 28  1  0
 28 29  2  0
 29 30  1  0
 22  2  1  0
 29 24  1  0
 18  9  1  0
 16 12  1  0
  1 31  1  0
  1 32  1  0
  1 33  1  0
  7 34  1  0
  7 35  1  0
  7 36  1  0
  8 37  1  0
  8 38  1  0
 13 39  1  0
 14 40  1  0
 15 41  1  0
 17 42  1  0
 23 43  1  0
 23 44  1  0
 25 45  1  0
 26 46  1  0
 27 47  1  0
 28 48  1  0
M  CHG  1  17   1
M  END
>  <UniqueID>  (71) 
68

>  <SMILES>  (71) 
Cc1c(C(=O)N(C)Cc2nc(-c3cccs3)[nH+]o2)sc(=O)n1Cc1ccccc1F

>  <Energy>  (71) 
145.35234168308673

>  <Genealogy>  (71) 
Cc1c(C(=O)N(C)Cc2nc(-c3cccs3)[nH+]o2)sc(=O)n1Cc1ccccc1F (protonated)
Cc1c(C(=O)N(C)Cc2nc(-c3cccs3)[nH+]o2)sc(=O)n1Cc1ccccc1F (3D coordinates assigned)
Cc1c(C(=O)N(C)Cc2nc(-c3cccs3)[nH+]o2)sc(=O)n1Cc1ccccc1F (optimized conformer: 145.35234168308673 kcal/mol)

>  <smiles>  (71) 
Cc1c(C(=O)N(C)Cc2nc(-c3cccs3)no2)sc(=O)n1Cc1ccccc1F

>  <score_type>  (71) 
oracle

>  <origin>  (71) 
adg

>  <m_score__min__energy>  (71) 
-7.9299999999999997

>  <m_primary>  (71) 
energy

$$$$
71:0
     RDKit          3D

 55 58  0  0  0  0  0  0  0  0999 V2000
   56.7590   30.4840   43.4570 C   0  0  0  0  0  0  0  0  0  0  0  0
   55.4620   30.0570   44.1310 C   0  0  0  0  0  0  0  0  0  0  0  0
   55.7550   29.1360   45.2220 N   0  0  0  0  0  0  0  0  0  0  0  0
   57.0080   28.4600   45.3520 C   0  0  0  0  0  0  0  0  0  0  0  0
   57.2570   27.4460   44.6430 O   0  0  0  0  0  0  0  0  0  0  0  0
   58.0120   28.9180   46.3770 C   0  0  0  0  0  0  0  0  0  0  0  0
   59.0600   29.8590   45.7330 C   0  0  0  0  0  0  0  0  0  0  0  0
   60.4530   29.7630   46.3820 C   0  0  0  0  0  0  0  0  0  0  0  0
   60.3550   29.4060   47.8050 N   0  0  0  0  0  0  0  0  0  0  0  0
   61.1570   30.0810   48.7880 C   0  0  0  0  0  0  0  0  0  0  0  0
   61.0430   29.7680   50.1690 C   0  0  0  0  0  0  0  0  0  0  0  0
   61.8470   30.4310   51.1110 C   0  0  0  0  0  0  0  0  0  0  0  0
   62.7350   31.3780   50.6200 C   0  0  0  0  0  0  0  0  0  0  0  0
   63.5990   32.1490   51.3030 N   0  0  0  0  0  0  0  0  0  0  0  0
   64.2350   32.9130   50.4170 N   0  0  0  0  0  0  0  0  0  0  0  0
   63.7450   32.5830   49.1960 C   0  0  0  0  0  0  0  0  0  0  0  0
   64.1650   33.2230   47.9110 C   0  0  0  0  0  0  0  0  0  0  0  0
   62.7380   33.4150   46.7830 S   0  0  0  0  0  0  0  0  0  0  0  0
   61.6040   34.2140   47.9780 C   0  0  0  0  0  0  0  0  0  0  0  0
   60.1830   33.7780   47.7450 C   0  0  0  0  0  0  0  0  0  0  0  0
   59.4970   33.0250   48.7140 C   0  0  0  0  0  0  0  0  0  0  0  0
   58.1740   32.6350   48.4940 C   0  0  0  0  0  0  0  0  0  0  0  0
   57.5240   32.9940   47.3090 C   0  0  0  0  0  0  0  0  0  0  0  0
   58.1980   33.7440   46.3390 C   0  0  0  0  0  0  0  0  0  0  0  0
   57.3810   34.1960   44.8530 Cl  0  0  0  0  0  0  0  0  0  0  0  0
   59.5240   34.1350   46.5560 C   0  0  0  0  0  0  0  0  0  0  0  0
   62.8110   31.6260   49.3140 N   0  0  0  0  0  0  0  0  0  0  0  0
   62.0690   31.0200   48.3920 N   0  0  0  0  0  0  0  0  0  0  0  0
   59.5910   28.2140   48.2080 C   0  0  0  0  0  0  0  0  0  0  0  0
   58.6730   27.7220   47.0810 C   0  0  0  0  0  0  0  0  0  0  0  0
   57.5073   30.7304   44.2247 H   0  0  0  0  0  0  0  0  0  0  0  0
   57.1342   29.6619   42.8297 H   0  0  0  0  0  0  0  0  0  0  0  0
   56.5724   31.3681   42.8297 H   0  0  0  0  0  0  0  0  0  0  0  0
   54.9478   30.9440   44.5295 H   0  0  0  0  0  0  0  0  0  0  0  0
   54.8168   29.5556   43.3945 H   0  0  0  0  0  0  0  0  0  0  0  0
   57.4795   29.4922   47.1495 H   0  0  0  0  0  0  0  0  0  0  0  0
   59.1534   29.5992   44.6682 H   0  0  0  0  0  0  0  0  0  0  0  0
   58.7043   30.8892   45.8816 H   0  0  0  0  0  0  0  0  0  0  0  0
   61.0399   28.9936   45.8590 H   0  0  0  0  0  0  0  0  0  0  0  0
   60.9417   30.7453   46.3029 H   0  0  0  0  0  0  0  0  0  0  0  0
   60.3237   29.0050   50.5013 H   0  0  0  0  0  0  0  0  0  0  0  0
   61.7762   30.2102   52.1863 H   0  0  0  0  0  0  0  0  0  0  0  0
   63.7540   32.1700   52.3350 H   0  0  0  0  0  0  0  0  0  0  0  0
   64.5916   34.2142   48.1245 H   0  0  0  0  0  0  0  0  0  0  0  0
   64.9138   32.5799   47.4254 H   0  0  0  0  0  0  0  0  0  0  0  0
   61.9030   33.9358   48.9994 H   0  0  0  0  0  0  0  0  0  0  0  0
   61.6633   35.3041   47.8433 H   0  0  0  0  0  0  0  0  0  0  0  0
   60.0038   32.7421   49.6484 H   0  0  0  0  0  0  0  0  0  0  0  0
   57.6422   32.0442   49.2544 H   0  0  0  0  0  0  0  0  0  0  0  0
   56.4816   32.6864   47.1393 H   0  0  0  0  0  0  0  0  0  0  0  0
   60.0529   34.7244   45.7926 H   0  0  0  0  0  0  0  0  0  0  0  0
   60.2953   27.4109   48.4707 H   0  0  0  0  0  0  0  0  0  0  0  0
   58.9627   28.4839   49.0696 H   0  0  0  0  0  0  0  0  0  0  0  0
   59.2668   27.1528   46.3506 H   0  0  0  0  0  0  0  0  0  0  0  0
   57.8900   27.0792   47.5096 H   0  0  0  0  0  0  0  0  0  0  0  0
  1  2  1  0
  2  3  1  0
  3  4  1  0
  4  5  2  0
  4  6  1  0
  6  7  1  0
  7  8  1  0
  8  9  1  0
  9 10  1  0
 10 11  1  0
 11 12  2  0
 12 13  1  0
 13 14  2  0
 14 15  1  0
 15 16  2  0
 16 17  1  0
 17 18  1  0
 18 19  1  0
 19 20  1  0
 20 21  2  0
 21 22  1  0
 22 23  2  0
 23 24  1  0
 24 25  1  0
 24 26  2  0
 16 27  1  0
 27 28  1  0
  9 29  1  0
 29 30  1  0
 30  6  1  0
 28 10  2  0
 27 13  1  0
 26 20  1  0
  1 31  1  0
  1 32  1  0
  1 33  1  0
  2 34  1  0
  2 35  1  0
  6 36  1  0
  7 37  1  0
  7 38  1  0
  8 39  1  0
  8 40  1  0
 11 41  1  0
 12 42  1  0
 14 43  1  0
 17 44  1  0
 17 45  1  0
 19 46  1  0
 19 47  1  0
 21 48  1  0
 22 49  1  0
 23 50  1  0
 26 51  1  0
 29 52  1  0
 29 53  1  0
 30 54  1  0
 30 55  1  0
M  CHG  2   3  -1  14   1
M  END
>  <UniqueID>  (72) 
69

>  <SMILES>  (72) 
CC[N-]C(=O)C1CCN(c2ccc3[nH+]nc(CSCc4cccc(Cl)c4)n3n2)CC1

>  <Energy>  (72) 
96.39177373750466

>  <Genealogy>  (72) 
CC[N-]C(=O)C1CCN(c2ccc3[nH+]nc(CSCc4cccc(Cl)c4)n3n2)CC1 (protonated)
CC[N-]C(=O)C1CCN(c2ccc3[nH+]nc(CSCc4cccc(Cl)c4)n3n2)CC1 (3D coordinates assigned)
CC[N-]C(=O)C1CCN(c2ccc3[nH+]nc(CSCc4cccc(Cl)c4)n3n2)CC1 (nonaromatic ring conformer: 96.39177373750466 kcal/mol)

>  <smiles>  (72) 
CCNC(=O)C1CCN(c2ccc3nnc(CSCc4cccc(Cl)c4)n3n2)CC1

>  <score_type>  (72) 
oracle

>  <origin>  (72) 
adg

>  <m_score__min__energy>  (72) 
-9.9800000000000004

>  <m_primary>  (72) 
energy

$$$$
72:0
     RDKit          3D

 65 67  0  0  0  0  0  0  0  0999 V2000
   57.8350   32.3100   41.8060 C   0  0  0  0  0  0  0  0  0  0  0  0
   57.4600   31.5340   43.0650 C   0  0  0  0  0  0  0  0  0  0  0  0
   56.6850   30.2590   42.7160 C   0  0  0  0  0  0  0  0  0  0  0  0
   55.5960   29.9720   43.7510 C   0  0  0  0  0  0  0  0  0  0  0  0
   56.1840   29.8520   45.0800 N   0  0  0  0  0  0  0  0  0  0  0  0
   56.7610   28.6430   45.5880 C   0  0  0  0  0  0  0  0  0  0  0  0
   56.0630   27.5910   45.6140 O   0  0  0  0  0  0  0  0  0  0  0  0
   58.2330   28.5980   45.9950 C   0  0  0  0  0  0  0  0  0  0  0  0
   58.8950   27.2910   45.4540 C   0  0  0  0  0  0  0  0  0  0  0  0
   58.7740   26.1910   46.4090 N   0  0  0  0  0  0  0  0  0  0  0  0
   57.5740   25.4510   46.6580 C   0  0  0  0  0  0  0  0  0  0  0  0
   57.0670   25.4370   47.8110 O   0  0  0  0  0  0  0  0  0  0  0  0
   56.9680   24.6630   45.5650 C   0  0  0  0  0  0  0  0  0  0  0  0
   57.8060   23.8670   44.7640 C   0  0  0  0  0  0  0  0  0  0  0  0
   57.2710   23.0480   43.7670 C   0  0  0  0  0  0  0  0  0  0  0  0
   55.8930   23.0100   43.5530 C   0  0  0  0  0  0  0  0  0  0  0  0
   55.0490   23.8110   44.3240 C   0  0  0  0  0  0  0  0  0  0  0  0
   55.5710   24.6560   45.3140 C   0  0  0  0  0  0  0  0  0  0  0  0
   54.6850   25.4860   45.9960 O   0  0  0  0  0  0  0  0  0  0  0  0
   58.2990   28.6720   47.5440 C   0  0  0  0  0  0  0  0  0  0  0  0
   59.7300   28.8250   48.0700 C   0  0  0  0  0  0  0  0  0  0  0  0
   60.3930   29.9670   47.4260 N   0  0  0  0  0  0  0  0  0  0  0  0
   61.2500   30.8440   48.1870 C   0  0  0  0  0  0  0  0  0  0  0  0
   61.2930   30.7530   49.4470 O   0  0  0  0  0  0  0  0  0  0  0  0
   62.0250   31.8100   47.5280 O   0  0  0  0  0  0  0  0  0  0  0  0
   61.6930   33.1970   47.5040 C   0  0  0  0  0  0  0  0  0  0  0  0
   60.3260   33.4020   46.9060 C   0  0  0  0  0  0  0  0  0  0  0  0
   59.1700   33.0840   47.6380 C   0  0  0  0  0  0  0  0  0  0  0  0
   57.9050   33.2870   47.0780 C   0  0  0  0  0  0  0  0  0  0  0  0
   57.7860   33.8140   45.7860 C   0  0  0  0  0  0  0  0  0  0  0  0
   58.9310   34.1380   45.0540 C   0  0  0  0  0  0  0  0  0  0  0  0
   60.1980   33.9340   45.6110 C   0  0  0  0  0  0  0  0  0  0  0  0
   60.3950   30.0270   45.9580 C   0  0  0  0  0  0  0  0  0  0  0  0
   58.9740   29.8360   45.4040 C   0  0  0  0  0  0  0  0  0  0  0  0
   58.2975   33.2670   42.0893 H   0  0  0  0  0  0  0  0  0  0  0  0
   58.5476   31.7204   41.2105 H   0  0  0  0  0  0  0  0  0  0  0  0
   56.9303   32.5020   41.2105 H   0  0  0  0  0  0  0  0  0  0  0  0
   58.3782   31.2599   43.6051 H   0  0  0  0  0  0  0  0  0  0  0  0
   56.8194   32.1722   43.6913 H   0  0  0  0  0  0  0  0  0  0  0  0
   56.2173   30.3827   41.7281 H   0  0  0  0  0  0  0  0  0  0  0  0
   57.3897   29.4144   42.7089 H   0  0  0  0  0  0  0  0  0  0  0  0
   54.8668   30.7956   43.7492 H   0  0  0  0  0  0  0  0  0  0  0  0
   55.0955   29.0270   43.4931 H   0  0  0  0  0  0  0  0  0  0  0  0
   58.4012   27.0035   44.5140 H   0  0  0  0  0  0  0  0  0  0  0  0
   59.9647   27.4892   45.2914 H   0  0  0  0  0  0  0  0  0  0  0  0
   58.8940   23.8896   44.9242 H   0  0  0  0  0  0  0  0  0  0  0  0
   57.9388   22.4306   43.1482 H   0  0  0  0  0  0  0  0  0  0  0  0
   55.4728   22.3508   42.7791 H   0  0  0  0  0  0  0  0  0  0  0  0
   53.9628   23.7791   44.1532 H   0  0  0  0  0  0  0  0  0  0  0  0
   54.9660   26.1120   46.7440 H   0  0  0  0  0  0  0  0  0  0  0  0
   57.7066   29.5357   47.8803 H   0  0  0  0  0  0  0  0  0  0  0  0
   57.9003   27.7257   47.9384 H   0  0  0  0  0  0  0  0  0  0  0  0
   59.7009   28.9888   49.1573 H   0  0  0  0  0  0  0  0  0  0  0  0
   60.2943   27.9090   47.8407 H   0  0  0  0  0  0  0  0  0  0  0  0
   61.7010   33.5889   48.5318 H   0  0  0  0  0  0  0  0  0  0  0  0
   62.4337   33.7295   46.8893 H   0  0  0  0  0  0  0  0  0  0  0  0
   59.2602   32.6741   48.6548 H   0  0  0  0  0  0  0  0  0  0  0  0
   57.0024   33.0325   47.6529 H   0  0  0  0  0  0  0  0  0  0  0  0
   56.7900   33.9730   45.3471 H   0  0  0  0  0  0  0  0  0  0  0  0
   58.8363   34.5534   44.0399 H   0  0  0  0  0  0  0  0  0  0  0  0
   61.0980   34.1910   45.0332 H   0  0  0  0  0  0  0  0  0  0  0  0
   60.7789   31.0067   45.6373 H   0  0  0  0  0  0  0  0  0  0  0  0
   61.0361   29.2207   45.5722 H   0  0  0  0  0  0  0  0  0  0  0  0
   58.3864   30.7363   45.6367 H   0  0  0  0  0  0  0  0  0  0  0  0
   59.0707   29.6667   44.3214 H   0  0  0  0  0  0  0  0  0  0  0  0
  1  2  1  0
  2  3  1  0
  3  4  1  0
  4  5  1  0
  5  6  1  0
  6  7  2  0
  6  8  1  0
  8  9  1  0
  9 10  1  0
 10 11  1  0
 11 12  2  0
 11 13  1  0
 13 14  2  0
 14 15  1  0
 15 16  2  0
 16 17  1  0
 17 18  2  0
 18 19  1  0
  8 20  1  0
 20 21  1  0
 21 22  1  0
 22 23  1  0
 23 24  2  0
 23 25  1  0
 25 26  1  0
 26 27  1  0
 27 28  2  0
 28 29  1  0
 29 30  2  0
 30 31  1  0
 31 32  2  0
 22 33  1  0
 33 34  1  0
 34  8  1  0
 18 13  1  0
 32 27  1  0
  1 35  1  0
  1 36  1  0
  1 37  1  0
  2 38  1  0
  2 39  1  0
  3 40  1  0
  3 41  1  0
  4 42  1  0
  4 43  1  0
  9 44  1  0
  9 45  1  0
 14 46  1  0
 15 47  1  0
 16 48  1  0
 17 49  1  0
 19 50  1  0
 20 51  1  0
 20 52  1  0
 21 53  1  0
 21 54  1  0
 26 55  1  0
 26 56  1  0
 28 57  1  0
 29 58  1  0
 30 59  1  0
 31 60  1  0
 32 61  1  0
 33 62  1  0
 33 63  1  0
 34 64  1  0
 34 65  1  0
M  CHG  2   5  -1  10  -1
M  END
>  <UniqueID>  (73) 
70

>  <SMILES>  (73) 
CCCC[N-]C(=O)C1(C[N-]C(=O)c2ccccc2O)CCN(C(=O)OCc2ccccc2)CC1

>  <Energy>  (73) 
62.36354982887691

>  <Genealogy>  (73) 
CCCC[N-]C(=O)C1(C[N-]C(=O)c2ccccc2O)CCN(C(=O)OCc2ccccc2)CC1 (protonated)
CCCC[N-]C(=O)C1(C[N-]C(=O)c2ccccc2O)CCN(C(=O)OCc2ccccc2)CC1 (3D coordinates assigned)
CCCC[N-]C(=O)C1(C[N-]C(=O)c2ccccc2O)CCN(C(=O)OCc2ccccc2)CC1 (nonaromatic ring conformer: 62.36354982887691 kcal/mol)

>  <smiles>  (73) 
CCCCNC(=O)C1(CNC(=O)c2ccccc2O)CCN(C(=O)OCc2ccccc2)CC1

>  <score_type>  (73) 
oracle

>  <origin>  (73) 
adg

>  <m_score__min__energy>  (73) 
-13.06

>  <m_primary>  (73) 
energy

$$$$
73:0
     RDKit          3D

 55 58  0  0  0  0  0  0  0  0999 V2000
   55.6630   28.8120   45.2020 O   0  0  0  0  0  0  0  0  0  0  0  0
   56.4130   29.5510   44.5100 C   0  0  0  0  0  0  0  0  0  0  0  0
   57.0200   28.9950   43.2590 C   0  0  0  0  0  0  0  0  0  0  0  0
   57.7830   27.3550   43.5370 S   0  0  0  0  0  0  0  0  0  0  0  0
   59.0460   27.9440   44.6770 C   0  0  0  0  0  0  0  0  0  0  0  0
   59.9940   28.7910   44.1960 N   0  0  0  0  0  0  0  0  0  0  0  0
   60.9390   29.3440   44.9950 C   0  0  0  0  0  0  0  0  0  0  0  0
   60.9380   29.0810   46.3650 C   0  0  0  0  0  0  0  0  0  0  0  0
   59.9700   28.2280   46.8990 C   0  0  0  0  0  0  0  0  0  0  0  0
   59.0210   27.6270   46.0610 C   0  0  0  0  0  0  0  0  0  0  0  0
   57.9780   26.7690   46.6760 C   0  0  0  0  0  0  0  0  0  0  0  0
   57.1650   27.2800   47.4880 O   0  0  0  0  0  0  0  0  0  0  0  0
   57.8650   25.3700   46.3820 N   0  0  0  0  0  0  0  0  0  0  0  0
   56.8340   24.7290   45.6140 C   0  0  0  0  0  0  0  0  0  0  0  0
   57.1920   23.6530   44.7920 C   0  0  0  0  0  0  0  0  0  0  0  0
   56.2180   22.9580   44.0670 C   0  0  0  0  0  0  0  0  0  0  0  0
   56.6620   21.5640   43.0980 Cl  0  0  0  0  0  0  0  0  0  0  0  0
   54.8790   23.3610   44.1300 C   0  0  0  0  0  0  0  0  0  0  0  0
   54.5230   24.4750   44.8890 C   0  0  0  0  0  0  0  0  0  0  0  0
   55.4920   25.1780   45.6150 C   0  0  0  0  0  0  0  0  0  0  0  0
   55.1380   26.3350   46.3030 O   0  0  0  0  0  0  0  0  0  0  0  0
   56.5760   30.9290   44.8500 N   0  0  0  0  0  0  0  0  0  0  0  0
   57.6800   31.4910   45.5720 C   0  0  0  0  0  0  0  0  0  0  0  0
   58.3210   32.6210   45.0560 C   0  0  0  0  0  0  0  0  0  0  0  0
   59.3920   33.2040   45.7410 C   0  0  0  0  0  0  0  0  0  0  0  0
   59.8460   32.6550   46.9530 C   0  0  0  0  0  0  0  0  0  0  0  0
   60.9130   33.2830   47.6900 N   0  0  0  0  0  0  0  0  0  0  0  0
   60.6010   34.0190   48.9170 C   0  0  0  0  0  0  0  0  0  0  0  0
   61.8550   34.2060   49.7670 C   0  0  0  0  0  0  0  0  0  0  0  0
   62.8950   34.7500   48.9830 O   0  0  0  0  0  0  0  0  0  0  0  0
   63.3210   33.7880   48.0410 C   0  0  0  0  0  0  0  0  0  0  0  0
   62.2130   33.4610   47.0310 C   0  0  0  0  0  0  0  0  0  0  0  0
   59.2350   31.4880   47.4410 C   0  0  0  0  0  0  0  0  0  0  0  0
   58.1640   30.9070   46.7560 C   0  0  0  0  0  0  0  0  0  0  0  0
   56.2335   28.8960   42.4963 H   0  0  0  0  0  0  0  0  0  0  0  0
   57.8100   29.6856   42.9288 H   0  0  0  0  0  0  0  0  0  0  0  0
   61.7078   30.0011   44.5625 H   0  0  0  0  0  0  0  0  0  0  0  0
   61.6932   29.5416   47.0189 H   0  0  0  0  0  0  0  0  0  0  0  0
   59.9523   28.0272   47.9804 H   0  0  0  0  0  0  0  0  0  0  0  0
   58.2473   23.3520   44.7158 H   0  0  0  0  0  0  0  0  0  0  0  0
   54.1085   22.7994   43.5813 H   0  0  0  0  0  0  0  0  0  0  0  0
   53.4737   24.8038   44.9176 H   0  0  0  0  0  0  0  0  0  0  0  0
   55.8170   27.0610   46.5130 H   0  0  0  0  0  0  0  0  0  0  0  0
   57.9806   33.0549   44.1042 H   0  0  0  0  0  0  0  0  0  0  0  0
   59.8824   34.0981   45.3286 H   0  0  0  0  0  0  0  0  0  0  0  0
   60.1935   35.0059   48.6525 H   0  0  0  0  0  0  0  0  0  0  0  0
   59.8632   33.4445   49.4963 H   0  0  0  0  0  0  0  0  0  0  0  0
   61.6316   34.8890   50.5998 H   0  0  0  0  0  0  0  0  0  0  0  0
   62.1731   33.2290   50.1597 H   0  0  0  0  0  0  0  0  0  0  0  0
   64.1941   34.1805   47.4992 H   0  0  0  0  0  0  0  0  0  0  0  0
   63.5782   32.8654   48.5820 H   0  0  0  0  0  0  0  0  0  0  0  0
   62.1358   34.2856   46.3071 H   0  0  0  0  0  0  0  0  0  0  0  0
   62.4746   32.5183   46.5281 H   0  0  0  0  0  0  0  0  0  0  0  0
   59.6025   31.0276   48.3700 H   0  0  0  0  0  0  0  0  0  0  0  0
   57.6981   29.9895   47.1446 H   0  0  0  0  0  0  0  0  0  0  0  0
  1  2  2  0
  2  3  1  0
  3  4  1  0
  4  5  1  0
  5  6  2  0
  6  7  1  0
  7  8  2  0
  8  9  1  0
  9 10  2  0
 10 11  1  0
 11 12  2  0
 11 13  1  0
 13 14  1  0
 14 15  2  0
 15 16  1  0
 16 17  1  0
 16 18  2  0
 18 19  1  0
 19 20  2  0
 20 21  1  0
  2 22  1  0
 22 23  1  0
 23 24  2  0
 24 25  1  0
 25 26  2  0
 26 27  1  0
 27 28  1  0
 28 29  1  0
 29 30  1  0
 30 31  1  0
 31 32  1  0
 26 33  1  0
 33 34  2  0
 10  5  1  0
 20 14  1  0
 34 23  1  0
 32 27  1  0
  3 35  1  0
  3 36  1  0
  7 37  1  0
  8 38  1  0
  9 39  1  0
 15 40  1  0
 18 41  1  0
 19 42  1  0
 21 43  1  0
 24 44  1  0
 25 45  1  0
 28 46  1  0
 28 47  1  0
 29 48  1  0
 29 49  1  0
 31 50  1  0
 31 51  1  0
 32 52  1  0
 32 53  1  0
 33 54  1  0
 34 55  1  0
M  CHG  2  13  -1  22  -1
M  END
>  <UniqueID>  (74) 
71

>  <SMILES>  (74) 
O=C(CSc1ncccc1C(=O)[N-]c1cc(Cl)ccc1O)[N-]c1ccc(N2CCOCC2)cc1

>  <Energy>  (74) 
77.3575558513647

>  <Genealogy>  (74) 
O=C(CSc1ncccc1C(=O)[N-]c1cc(Cl)ccc1O)[N-]c1ccc(N2CCOCC2)cc1 (protonated)
O=C(CSc1ncccc1C(=O)[N-]c1cc(Cl)ccc1O)[N-]c1ccc(N2CCOCC2)cc1 (3D coordinates assigned)
O=C(CSc1ncccc1C(=O)[N-]c1cc(Cl)ccc1O)[N-]c1ccc(N2CCOCC2)cc1 (nonaromatic ring conformer: 77.3575558513647 kcal/mol)

>  <smiles>  (74) 
O=C(CSc1ncccc1C(=O)Nc1cc(Cl)ccc1O)Nc1ccc(N2CCOCC2)cc1

>  <score_type>  (74) 
oracle

>  <origin>  (74) 
adg

>  <m_score__min__energy>  (74) 
-13.4

>  <m_primary>  (74) 
energy

$$$$
74:0
     RDKit          3D

 70 73  0  0  0  0  0  0  0  0999 V2000
   59.0580   31.2280   52.3730 C   0  0  0  0  0  0  0  0  0  0  0  0
   57.7680   30.5520   51.9010 C   0  0  1  0  0  0  0  0  0  0  0  0
   56.5640   31.5120   51.9340 C   0  0  0  0  0  0  0  0  0  0  0  0
   55.2370   30.8060   52.0890 C   0  0  0  0  0  0  0  0  0  0  0  0
   55.0650   29.8340   53.0860 C   0  0  0  0  0  0  0  0  0  0  0  0
   53.8330   29.1980   53.2430 C   0  0  0  0  0  0  0  0  0  0  0  0
   52.7600   29.5240   52.4080 C   0  0  0  0  0  0  0  0  0  0  0  0
   52.9120   30.4950   51.4010 C   0  0  0  0  0  0  0  0  0  0  0  0
   51.7780   30.8480   50.5140 C   0  0  0  0  0  0  0  0  0  0  0  0
   51.0260   32.0390   50.7390 N   0  0  0  0  0  0  0  0  0  0  0  0
   51.4670   30.0980   49.5490 O   0  0  0  0  0  0  0  0  0  0  0  0
   54.1590   31.1290   51.2490 C   0  0  0  0  0  0  0  0  0  0  0  0
   57.9570   30.0310   50.5420 N   0  0  0  0  0  0  0  0  0  0  0  0
   59.5860   29.4750   50.2920 S   0  0  0  0  0  0  0  0  0  0  0  0
   60.1290   28.9220   51.5790 O   0  0  0  0  0  0  0  0  0  0  0  0
   59.5750   28.3690   49.2740 O   0  0  0  0  0  0  0  0  0  0  0  0
   60.6150   30.8140   49.7410 C   0  0  0  0  0  0  0  0  0  0  0  0
   61.9470   30.8480   50.1870 C   0  0  0  0  0  0  0  0  0  0  0  0
   62.8060   31.8680   49.7880 C   0  0  0  0  0  0  0  0  0  0  0  0
   62.3520   32.8730   48.9410 C   0  0  0  0  0  0  0  0  0  0  0  0
   61.0340   32.8660   48.4770 C   0  0  0  0  0  0  0  0  0  0  0  0
   60.5400   34.1900   47.4220 Cl  0  0  0  0  0  0  0  0  0  0  0  0
   60.1460   31.8280   48.8580 C   0  0  0  0  0  0  0  0  0  0  0  0
   58.7130   31.8460   48.3580 C   0  0  0  0  0  0  0  0  0  0  0  0
   58.5170   30.8940   47.2130 C   0  0  0  0  0  0  0  0  0  0  0  0
   58.6760   31.2990   46.0290 O   0  0  0  0  0  0  0  0  0  0  0  0
   58.1970   29.5180   47.4670 N   0  0  0  0  0  0  0  0  0  0  0  0
   57.9130   28.5800   46.3750 C   0  0  1  0  0  0  0  0  0  0  0  0
   59.1540   28.3010   45.5350 C   0  0  0  0  0  0  0  0  0  0  0  0
   59.2240   26.7840   45.3840 C   0  0  0  0  0  0  0  0  0  0  0  0
   58.0050   26.2050   45.9630 N   0  0  0  0  0  0  0  0  0  0  0  0
   57.0260   25.7220   44.9550 C   0  0  0  0  0  0  0  0  0  0  0  0
   57.2180   24.2800   44.5240 C   0  0  0  0  0  0  0  0  0  0  0  0
   58.2070   23.4830   45.1310 C   0  0  0  0  0  0  0  0  0  0  0  0
   58.3720   22.1490   44.7490 C   0  0  0  0  0  0  0  0  0  0  0  0
   57.5650   21.6000   43.7500 C   0  0  0  0  0  0  0  0  0  0  0  0
   56.6010   22.3910   43.1200 C   0  0  0  0  0  0  0  0  0  0  0  0
   56.4330   23.7270   43.4980 C   0  0  0  0  0  0  0  0  0  0  0  0
   57.4710   27.2100   46.8890 C   0  0  0  0  0  0  0  0  0  0  0  0
   59.0837   31.2415   53.4726 H   0  0  0  0  0  0  0  0  0  0  0  0
   59.9254   30.6686   51.9928 H   0  0  0  0  0  0  0  0  0  0  0  0
   59.0917   32.2596   51.9928 H   0  0  0  0  0  0  0  0  0  0  0  0
   57.5475   29.7268   52.5941 H   0  0  0  0  0  0  0  0  0  0  0  0
   56.6922   32.2030   52.7803 H   0  0  0  0  0  0  0  0  0  0  0  0
   56.5412   32.0373   50.9678 H   0  0  0  0  0  0  0  0  0  0  0  0
   55.9047   29.5722   53.7466 H   0  0  0  0  0  0  0  0  0  0  0  0
   53.7054   28.4370   54.0270 H   0  0  0  0  0  0  0  0  0  0  0  0
   51.7918   29.0187   52.5390 H   0  0  0  0  0  0  0  0  0  0  0  0
   50.2630   32.3230   50.0850 H   0  0  0  0  0  0  0  0  0  0  0  0
   54.2910   31.8868   50.4627 H   0  0  0  0  0  0  0  0  0  0  0  0
   62.3153   30.0592   50.8594 H   0  0  0  0  0  0  0  0  0  0  0  0
   63.8468   31.8791   50.1437 H   0  0  0  0  0  0  0  0  0  0  0  0
   63.0350   33.6789   48.6342 H   0  0  0  0  0  0  0  0  0  0  0  0
   58.0435   31.5570   49.1816 H   0  0  0  0  0  0  0  0  0  0  0  0
   58.4837   32.8622   48.0048 H   0  0  0  0  0  0  0  0  0  0  0  0
   58.1010   29.2060   48.4600 H   0  0  0  0  0  0  0  0  0  0  0  0
   57.1187   29.0664   45.7898 H   0  0  0  0  0  0  0  0  0  0  0  0
   59.0642   28.7800   44.5488 H   0  0  0  0  0  0  0  0  0  0  0  0
   60.0617   28.7021   46.0096 H   0  0  0  0  0  0  0  0  0  0  0  0
   59.2915   26.5192   44.3185 H   0  0  0  0  0  0  0  0  0  0  0  0
   60.1119   26.3927   45.9022 H   0  0  0  0  0  0  0  0  0  0  0  0
   56.0173   25.8202   45.3827 H   0  0  0  0  0  0  0  0  0  0  0  0
   57.1770   26.3374   44.0559 H   0  0  0  0  0  0  0  0  0  0  0  0
   58.8535   23.9127   45.9103 H   0  0  0  0  0  0  0  0  0  0  0  0
   59.1394   21.5297   45.2364 H   0  0  0  0  0  0  0  0  0  0  0  0
   57.6882   20.5462   43.4596 H   0  0  0  0  0  0  0  0  0  0  0  0
   55.9730   21.9622   42.3252 H   0  0  0  0  0  0  0  0  0  0  0  0
   55.6817   24.3487   42.9890 H   0  0  0  0  0  0  0  0  0  0  0  0
   56.3727   27.1534   46.9139 H   0  0  0  0  0  0  0  0  0  0  0  0
   57.8439   27.0374   47.9094 H   0  0  0  0  0  0  0  0  0  0  0  0
  1  2  1  0
  2  3  1  0
  3  4  1  0
  4  5  2  0
  5  6  1  0
  6  7  2  0
  7  8  1  0
  8  9  1  0
  9 10  1  0
  9 11  2  0
  8 12  2  0
  2 13  1  0
 13 14  1  0
 14 15  2  0
 14 16  2  0
 14 17  1  0
 17 18  2  0
 18 19  1  0
 19 20  2  0
 20 21  1  0
 21 22  1  0
 21 23  2  0
 23 24  1  0
 24 25  1  0
 25 26  2  0
 25 27  1  0
 27 28  1  0
 28 29  1  0
 29 30  1  0
 30 31  1  0
 31 32  1  0
 32 33  1  0
 33 34  2  0
 34 35  1  0
 35 36  2  0
 36 37  1  0
 37 38  2  0
 31 39  1  0
 12  4  1  0
 23 17  1  0
 39 28  1  0
 38 33  1  0
  1 40  1  0
  1 41  1  0
  1 42  1  0
  2 43  1  1
  3 44  1  0
  3 45  1  0
  5 46  1  0
  6 47  1  0
  7 48  1  0
 10 49  1  0
 12 50  1  0
 18 51  1  0
 19 52  1  0
 20 53  1  0
 24 54  1  0
 24 55  1  0
 27 56  1  0
 28 57  1  6
 29 58  1  0
 29 59  1  0
 30 60  1  0
 30 61  1  0
 32 62  1  0
 32 63  1  0
 34 64  1  0
 35 65  1  0
 36 66  1  0
 37 67  1  0
 38 68  1  0
 39 69  1  0
 39 70  1  0
M  CHG  2  10  -1  13  -1
M  END
>  <UniqueID>  (75) 
72

>  <SMILES>  (75) 
C[C@@H](Cc1cccc(C([NH-])=O)c1)[N-]S(=O)(=O)c1cccc(Cl)c1CC(=O)N[C@H]1CCN(Cc2ccccc2)C1

>  <Energy>  (75) 
75.71888743966532

>  <Genealogy>  (75) 
CC(Cc1cccc(C([NH-])=O)c1)[N-]S(=O)(=O)c1cccc(Cl)c1CC(=O)NC1CCN(Cc2ccccc2)C1 (protonated)
C[C@@H](Cc1cccc(C([NH-])=O)c1)[N-]S(=O)(=O)c1cccc(Cl)c1CC(=O)N[C@H]1CCN(Cc2ccccc2)C1 (chirality)
C[C@@H](Cc1cccc(C([NH-])=O)c1)[N-]S(=O)(=O)c1cccc(Cl)c1CC(=O)N[C@H]1CCN(Cc2ccccc2)C1 (3D coordinates assigned)
C[C@@H](Cc1cccc(C([NH-])=O)c1)[N-]S(=O)(=O)c1cccc(Cl)c1CC(=O)N[C@H]1CCN(Cc2ccccc2)C1 (nonaromatic ring conformer: 75.71888743966532 kcal/mol)

>  <smiles>  (75) 
CC(Cc1cccc(C(N)=O)c1)NS(=O)(=O)c1cccc(Cl)c1CC(=O)NC1CCN(Cc2ccccc2)C1

>  <score_type>  (75) 
oracle

>  <origin>  (75) 
adg

>  <m_score__min__energy>  (75) 
-14.24

>  <m_primary>  (75) 
energy

$$$$
75:0
     RDKit          3D

 33 34  0  0  0  0  0  0  0  0999 V2000
   60.0650   30.4360   48.2930 C   0  0  0  0  0  0  0  0  0  0  0  0
   59.1470   30.1410   47.3680 C   0  0  0  0  0  0  0  0  0  0  0  0
   58.7830   28.8690   47.0840 N   0  0  0  0  0  0  0  0  0  0  0  0
   57.8930   28.9640   46.0730 C   0  0  0  0  0  0  0  0  0  0  0  0
   57.2930   27.9340   45.4580 C   0  0  0  0  0  0  0  0  0  0  0  0
   57.1990   26.5780   46.0400 C   0  0  0  0  0  0  0  0  0  0  0  0
   55.9420   26.0160   46.3120 C   0  0  0  0  0  0  0  0  0  0  0  0
   54.7760   26.7080   46.0060 O   0  0  0  0  0  0  0  0  0  0  0  0
   55.8560   24.7810   46.8690 N   0  0  0  0  0  0  0  0  0  0  0  0
   56.9710   24.0760   47.1870 C   0  0  0  0  0  0  0  0  0  0  0  0
   56.8680   22.9310   47.6970 O   0  0  0  0  0  0  0  0  0  0  0  0
   58.2000   24.6080   46.9590 N   0  0  0  0  0  0  0  0  0  0  0  0
   58.3400   25.8400   46.4050 C   0  0  0  0  0  0  0  0  0  0  0  0
   59.4950   26.3150   46.2430 O   0  0  0  0  0  0  0  0  0  0  0  0
   57.7400   30.3000   45.7620 C   0  0  0  0  0  0  0  0  0  0  0  0
   56.9740   30.7650   44.8760 O   0  0  0  0  0  0  0  0  0  0  0  0
   58.5170   31.0490   46.5730 N   0  0  0  0  0  0  0  0  0  0  0  0
   58.6250   32.4870   46.5950 C   0  0  0  0  0  0  0  0  0  0  0  0
   59.7570   33.0270   46.7190 O   0  0  0  0  0  0  0  0  0  0  0  0
   57.4090   33.3660   46.4750 C   0  0  0  0  0  0  0  0  0  0  0  0
   57.3680   34.1170   45.1360 C   0  0  0  0  0  0  0  0  0  0  0  0
   58.2690   33.4740   44.0830 C   0  0  0  0  0  0  0  0  0  0  0  0
   60.3295   31.4853   48.4904 H   0  0  0  0  0  0  0  0  0  0  0  0
   60.5563   29.6295   48.8571 H   0  0  0  0  0  0  0  0  0  0  0  0
   59.1570   28.0010   47.5290 H   0  0  0  0  0  0  0  0  0  0  0  0
   56.8470   28.1074   44.4676 H   0  0  0  0  0  0  0  0  0  0  0  0
   56.5089   32.7392   46.5577 H   0  0  0  0  0  0  0  0  0  0  0  0
   57.4508   34.1134   47.2810 H   0  0  0  0  0  0  0  0  0  0  0  0
   56.3332   34.1187   44.7629 H   0  0  0  0  0  0  0  0  0  0  0  0
   57.7330   35.1396   45.3123 H   0  0  0  0  0  0  0  0  0  0  0  0
   59.0671   32.9044   44.5817 H   0  0  0  0  0  0  0  0  0  0  0  0
   57.6726   32.7962   43.4546 H   0  0  0  0  0  0  0  0  0  0  0  0
   58.7161   34.2584   43.4546 H   0  0  0  0  0  0  0  0  0  0  0  0
  1  2  2  0
  2  3  1  0
  3  4  1  0
  4  5  2  3
  5  6  1  0
  6  7  2  0
  7  8  1  0
  7  9  1  0
  9 10  1  0
 10 11  2  0
 10 12  1  0
 12 13  1  0
 13 14  2  0
  4 15  1  0
 15 16  2  0
 15 17  1  0
 17 18  1  0
 18 19  2  0
 18 20  1  0
 20 21  1  0
 21 22  1  0
 17  2  1  0
 13  6  1  0
  1 23  1  0
  1 24  1  0
  3 25  1  0
  5 26  1  0
 20 27  1  0
 20 28  1  0
 21 29  1  0
 21 30  1  0
 22 31  1  0
 22 32  1  0
 22 33  1  0
M  CHG  3   8  -1   9  -1  12  -1
M  END
>  <UniqueID>  (76) 
73

>  <SMILES>  (76) 
C=c1[nH]c(=Cc2c([O-])[n-]c(=O)[n-]c2=O)c(=O)n1C(=O)CCC

>  <Energy>  (76) 
76.23086552913665

>  <Genealogy>  (76) 
C=c1[nH]c(=Cc2c([O-])[n-]c(=O)[n-]c2=O)c(=O)n1C(=O)CCC (protonated)
C=c1[nH]c(=Cc2c([O-])[n-]c(=O)[n-]c2=O)c(=O)n1C(=O)CCC (3D coordinates assigned)
C=c1[nH]c(=Cc2c([O-])[n-]c(=O)[n-]c2=O)c(=O)n1C(=O)CCC (optimized conformer: 76.23086552913665 kcal/mol)

>  <smiles>  (76) 
C=c1[nH]c(=Cc2c(O)[nH]c(=O)[nH]c2=O)c(=O)n1C(=O)CCC

>  <score_type>  (76) 
oracle

>  <origin>  (76) 
adg

>  <m_score__min__energy>  (76) 
-14.630000000000001

>  <m_primary>  (76) 
energy

$$$$
76:0
     RDKit          3D

 48 50  0  0  0  0  0  0  0  0999 V2000
   59.2550   22.4600   45.1520 C   0  0  0  0  0  0  0  0  0  0  0  0
   57.8900   22.8780   44.6930 C   0  0  0  0  0  0  0  0  0  0  0  0
   57.3360   22.3190   43.5320 C   0  0  0  0  0  0  0  0  0  0  0  0
   56.0800   22.7340   43.0850 C   0  0  0  0  0  0  0  0  0  0  0  0
   55.3810   23.7250   43.7740 C   0  0  0  0  0  0  0  0  0  0  0  0
   55.9360   24.3190   44.9190 C   0  0  0  0  0  0  0  0  0  0  0  0
   55.2120   25.3970   45.6310 C   0  0  0  0  0  0  0  0  0  0  0  0
   53.9530   25.3920   45.6500 O   0  0  0  0  0  0  0  0  0  0  0  0
   55.9080   26.4760   46.2720 N   0  0  0  0  0  0  0  0  0  0  0  0
   56.9160   27.2910   45.6550 C   0  0  0  0  0  0  0  0  0  0  0  0
   58.2460   26.8570   45.6680 C   0  0  0  0  0  0  0  0  0  0  0  0
   59.2490   27.6440   45.0950 C   0  0  0  0  0  0  0  0  0  0  0  0
   58.9270   28.8610   44.4890 C   0  0  0  0  0  0  0  0  0  0  0  0
   57.5920   29.2890   44.4310 C   0  0  0  0  0  0  0  0  0  0  0  0
   57.2370   30.5990   43.7840 C   0  0  0  0  0  0  0  0  0  0  0  0
   57.4320   31.7260   44.7530 C   0  0  0  0  0  0  0  0  0  0  0  0
   57.5880   31.4730   45.9780 O   0  0  0  0  0  0  0  0  0  0  0  0
   57.4700   33.0790   44.2810 N   0  0  0  0  0  0  0  0  0  0  0  0
   57.4910   34.2240   45.1870 C   0  0  0  0  0  0  0  0  0  0  0  0
   58.6880   34.1620   46.0970 C   0  0  0  0  0  0  0  0  0  0  0  0
   59.9830   34.0230   45.5670 C   0  0  0  0  0  0  0  0  0  0  0  0
   61.0850   33.9150   46.4220 C   0  0  0  0  0  0  0  0  0  0  0  0
   60.9040   33.9510   47.8080 C   0  0  0  0  0  0  0  0  0  0  0  0
   59.6210   34.1020   48.3410 C   0  0  0  0  0  0  0  0  0  0  0  0
   58.5150   34.2040   47.4900 C   0  0  0  0  0  0  0  0  0  0  0  0
   56.5900   28.5010   45.0180 C   0  0  0  0  0  0  0  0  0  0  0  0
   57.1890   23.8830   45.3800 C   0  0  0  0  0  0  0  0  0  0  0  0
   59.2852   22.4507   46.2515 H   0  0  0  0  0  0  0  0  0  0  0  0
   59.4776   21.4525   44.7706 H   0  0  0  0  0  0  0  0  0  0  0  0
   60.0035   23.1701   44.7706 H   0  0  0  0  0  0  0  0  0  0  0  0
   57.8920   21.5523   42.9726 H   0  0  0  0  0  0  0  0  0  0  0  0
   55.6401   22.2776   42.1860 H   0  0  0  0  0  0  0  0  0  0  0  0
   54.3897   24.0429   43.4186 H   0  0  0  0  0  0  0  0  0  0  0  0
   58.5033   25.8929   46.1309 H   0  0  0  0  0  0  0  0  0  0  0  0
   60.2949   27.3042   45.1213 H   0  0  0  0  0  0  0  0  0  0  0  0
   59.7224   29.4855   44.0561 H   0  0  0  0  0  0  0  0  0  0  0  0
   57.8825   30.7579   42.9076 H   0  0  0  0  0  0  0  0  0  0  0  0
   56.1819   30.5714   43.4740 H   0  0  0  0  0  0  0  0  0  0  0  0
   57.4070   33.2590   43.2530 H   0  0  0  0  0  0  0  0  0  0  0  0
   57.5345   35.1509   44.5962 H   0  0  0  0  0  0  0  0  0  0  0  0
   56.5789   34.2048   45.8015 H   0  0  0  0  0  0  0  0  0  0  0  0
   60.1300   33.9991   44.4771 H   0  0  0  0  0  0  0  0  0  0  0  0
   62.0958   33.8015   46.0031 H   0  0  0  0  0  0  0  0  0  0  0  0
   61.7712   33.8605   48.4786 H   0  0  0  0  0  0  0  0  0  0  0  0
   59.4804   34.1407   49.4313 H   0  0  0  0  0  0  0  0  0  0  0  0
   57.5062   34.3175   47.9137 H   0  0  0  0  0  0  0  0  0  0  0  0
   55.5419   28.8326   44.9794 H   0  0  0  0  0  0  0  0  0  0  0  0
   57.6244   24.3315   46.2851 H   0  0  0  0  0  0  0  0  0  0  0  0
  1  2  1  0
  2  3  2  0
  3  4  1  0
  4  5  2  0
  5  6  1  0
  6  7  1  0
  7  8  2  0
  7  9  1  0
  9 10  1  0
 10 11  2  0
 11 12  1  0
 12 13  2  0
 13 14  1  0
 14 15  1  0
 15 16  1  0
 16 17  2  0
 16 18  1  0
 18 19  1  0
 19 20  1  0
 20 21  2  0
 21 22  1  0
 22 23  2  0
 23 24  1  0
 24 25  2  0
 14 26  2  0
  6 27  2  0
 27  2  1  0
 26 10  1  0
 25 20  1  0
  1 28  1  0
  1 29  1  0
  1 30  1  0
  3 31  1  0
  4 32  1  0
  5 33  1  0
 11 34  1  0
 12 35  1  0
 13 36  1  0
 15 37  1  0
 15 38  1  0
 18 39  1  0
 19 40  1  0
 19 41  1  0
 21 42  1  0
 22 43  1  0
 23 44  1  0
 24 45  1  0
 25 46  1  0
 26 47  1  0
 27 48  1  0
M  CHG  1   9  -1
M  END
>  <UniqueID>  (77) 
74

>  <SMILES>  (77) 
Cc1cccc(C(=O)[N-]c2cccc(CC(=O)NCc3ccccc3)c2)c1

>  <Energy>  (77) 
48.10445167614021

>  <Genealogy>  (77) 
Cc1cccc(C(=O)[N-]c2cccc(CC(=O)NCc3ccccc3)c2)c1 (protonated)
Cc1cccc(C(=O)[N-]c2cccc(CC(=O)NCc3ccccc3)c2)c1 (3D coordinates assigned)
Cc1cccc(C(=O)[N-]c2cccc(CC(=O)NCc3ccccc3)c2)c1 (optimized conformer: 48.10445167614021 kcal/mol)

>  <smiles>  (77) 
Cc1cccc(C(=O)Nc2cccc(CC(=O)NCc3ccccc3)c2)c1

>  <score_type>  (77) 
oracle

>  <origin>  (77) 
adg

>  <m_score__min__energy>  (77) 
-11.27

>  <m_primary>  (77) 
energy

$$$$
77:0
     RDKit          3D

 47 49  0  0  0  0  0  0  0  0999 V2000
   57.7401   28.8808   46.6606 H   0  0  0  0  0  0  0  0  0  0  0  0
   57.1490   28.3890   45.8740 C   0  0  0  0  0  0  0  0  0  0  0  0
   56.4450   29.1450   45.0740 N   0  0  0  0  0  0  0  0  0  0  0  0
   56.8900   30.3280   44.3890 C   0  0  0  0  0  0  0  0  0  0  0  0
   56.8890   30.4080   42.9860 C   0  0  0  0  0  0  0  0  0  0  0  0
   56.5423   29.5523   42.3880 H   0  0  0  0  0  0  0  0  0  0  0  0
   57.3270   31.5710   42.3490 C   0  0  0  0  0  0  0  0  0  0  0  0
   57.3168   31.6326   41.2508 H   0  0  0  0  0  0  0  0  0  0  0  0
   57.7780   32.6560   43.1040 C   0  0  0  0  0  0  0  0  0  0  0  0
   58.1139   33.5722   42.5964 H   0  0  0  0  0  0  0  0  0  0  0  0
   57.8060   32.5860   44.5090 C   0  0  0  0  0  0  0  0  0  0  0  0
   58.2530   33.7630   45.2950 C   0  0  0  0  0  0  0  0  0  0  0  0
   57.4420   34.3120   46.0900 O   0  0  0  0  0  0  0  0  0  0  0  0
   59.6070   34.2450   45.2160 N   0  0  0  0  0  0  0  0  0  0  0  0
   60.2720   33.8150   44.5390 H   0  0  0  0  0  0  0  0  0  0  0  0
   60.2010   35.0640   46.2730 C   0  0  0  0  0  0  0  0  0  0  0  0
   60.8493   35.8272   45.8178 H   0  0  0  0  0  0  0  0  0  0  0  0
   59.3938   35.5434   46.8462 H   0  0  0  0  0  0  0  0  0  0  0  0
   61.0350   34.1960   47.2240 C   0  0  0  0  0  0  0  0  0  0  0  0
   62.0265   34.0295   46.7777 H   0  0  0  0  0  0  0  0  0  0  0  0
   61.1193   34.7239   48.1854 H   0  0  0  0  0  0  0  0  0  0  0  0
   60.3810   32.8580   47.4770 C   0  0  0  0  0  0  0  0  0  0  0  0
   59.4220   32.7180   48.4970 C   0  0  0  0  0  0  0  0  0  0  0  0
   59.1025   33.5987   49.0734 H   0  0  0  0  0  0  0  0  0  0  0  0
   58.8730   31.4620   48.7810 C   0  0  0  0  0  0  0  0  0  0  0  0
   58.1232   31.3577   49.5791 H   0  0  0  0  0  0  0  0  0  0  0  0
   59.2770   30.3400   48.0510 C   0  0  0  0  0  0  0  0  0  0  0  0
   58.8438   29.3539   48.2746 H   0  0  0  0  0  0  0  0  0  0  0  0
   60.2320   30.4700   47.0360 C   0  0  0  0  0  0  0  0  0  0  0  0
   60.5468   29.5863   46.4615 H   0  0  0  0  0  0  0  0  0  0  0  0
   60.7870   31.7230   46.7510 C   0  0  0  0  0  0  0  0  0  0  0  0
   61.5425   31.8207   45.9575 H   0  0  0  0  0  0  0  0  0  0  0  0
   57.3850   31.4010   45.1400 C   0  0  0  0  0  0  0  0  0  0  0  0
   57.4454   31.3166   46.2351 H   0  0  0  0  0  0  0  0  0  0  0  0
   57.2010   26.9110   45.7880 C   0  0  0  0  0  0  0  0  0  0  0  0
   58.4570   26.2880   45.7150 C   0  0  0  0  0  0  0  0  0  0  0  0
   59.3721   26.8980   45.7351 H   0  0  0  0  0  0  0  0  0  0  0  0
   58.5510   24.8980   45.6170 C   0  0  0  0  0  0  0  0  0  0  0  0
   59.5389   24.4179   45.5577 H   0  0  0  0  0  0  0  0  0  0  0  0
   57.3930   24.1150   45.5940 C   0  0  0  0  0  0  0  0  0  0  0  0
   57.4727   23.0228   45.4908 H   0  0  0  0  0  0  0  0  0  0  0  0
   56.1290   24.7160   45.7020 C   0  0  0  0  0  0  0  0  0  0  0  0
   54.9520   23.9000   45.6980 N   0  0  0  0  0  0  0  0  0  0  0  0
   55.0140   22.8580   45.6360 H   0  0  0  0  0  0  0  0  0  0  0  0
   54.0040   24.3350   45.7540 H   0  0  0  0  0  0  0  0  0  0  0  0
   56.0330   26.1160   45.8230 C   0  0  0  0  0  0  0  0  0  0  0  0
   54.7850   26.7100   45.9980 O   0  0  0  0  0  0  0  0  0  0  0  0
  1  2  1  0
  2  3  2  0
  3  4  1  0
  4  5  2  0
  5  6  1  0
  5  7  1  0
  7  8  1  0
  7  9  2  0
  9 10  1  0
  9 11  1  0
 11 12  1  0
 12 13  2  0
 12 14  1  0
 14 15  1  0
 14 16  1  0
 16 17  1  0
 16 18  1  0
 16 19  1  0
 19 20  1  0
 19 21  1  0
 19 22  1  0
 22 23  2  0
 23 24  1  0
 23 25  1  0
 25 26  1  0
 25 27  2  0
 27 28  1  0
 27 29  1  0
 29 30  1  0
 29 31  2  0
 31 32  1  0
 11 33  2  0
 33 34  1  0
  2 35  1  0
 35 36  2  0
 36 37  1  0
 36 38  1  0
 38 39  1  0
 38 40  2  0
 40 41  1  0
 40 42  1  0
 42 43  1  0
 43 44  1  0
 43 45  1  0
 42 46  2  0
 46 47  1  0
 33  4  1  0
 46 35  1  0
 31 22  1  0
M  CHG  1  47  -1
M  END
>  <UniqueID>  (78) 
75

>  <SMILES>  (78) 
Nc1cccc(/C=N\c2cccc(C(=O)NCCc3ccccc3)c2)c1[O-]

>  <Energy>  (78) 
58.76981439469921

>  <Genealogy>  (78) 
Nc1cccc(C=Nc2cccc(C(=O)NCCc3ccccc3)c2)c1[O-] (protonated)
Nc1cccc(/C=N\c2cccc(C(=O)NCCc3ccccc3)c2)c1[O-] (cis-trans isomerization)
Nc1cccc(/C=N\c2cccc(C(=O)NCCc3ccccc3)c2)c1[O-] (3D coordinates assigned)
Nc1cccc(/C=N\c2cccc(C(=O)NCCc3ccccc3)c2)c1[O-] (optimized conformer: 58.76981439469921 kcal/mol)

>  <smiles>  (78) 
Nc1cccc(C=Nc2cccc(C(=O)NCCc3ccccc3)c2)c1O

>  <score_type>  (78) 
oracle

>  <origin>  (78) 
adg

>  <m_score__min__energy>  (78) 
-13.24

>  <m_primary>  (78) 
energy

$$$$
78:0
     RDKit          3D

 23 24  0  0  0  0  0  0  0  0999 V2000
   57.3930   32.0240   42.1110 C   0  0  0  0  0  0  0  0  0  0  0  0
   57.4160   30.7970   42.8930 N   0  0  0  0  0  0  0  0  0  0  0  0
   58.1220   30.5760   44.0170 C   0  0  0  0  0  0  0  0  0  0  0  0
   57.8960   29.2590   44.3610 C   0  0  0  0  0  0  0  0  0  0  0  0
   58.3990   28.5430   45.5750 C   0  0  0  0  0  0  0  0  0  0  0  0
   57.5150   27.3580   45.8830 C   0  0  0  0  0  0  0  0  0  0  0  0
   56.1250   27.4210   45.6810 C   0  0  0  0  0  0  0  0  0  0  0  0
   55.5250   28.5870   45.2210 O   0  0  0  0  0  0  0  0  0  0  0  0
   55.3520   26.3330   45.9340 N   0  0  0  0  0  0  0  0  0  0  0  0
   55.8970   25.1710   46.3740 C   0  0  0  0  0  0  0  0  0  0  0  0
   55.1610   24.1780   46.6030 O   0  0  0  0  0  0  0  0  0  0  0  0
   57.2380   25.0790   46.5630 N   0  0  0  0  0  0  0  0  0  0  0  0
   58.0560   26.1370   46.3250 C   0  0  0  0  0  0  0  0  0  0  0  0
   59.2970   26.0080   46.5030 O   0  0  0  0  0  0  0  0  0  0  0  0
   57.0640   28.7340   43.4400 N   0  0  0  0  0  0  0  0  0  0  0  0
   56.7940   29.6770   42.5520 N   0  0  0  0  0  0  0  0  0  0  0  0
   57.3768   32.8904   42.7886 H   0  0  0  0  0  0  0  0  0  0  0  0
   58.2904   32.0714   41.4766 H   0  0  0  0  0  0  0  0  0  0  0  0
   56.4944   32.0377   41.4766 H   0  0  0  0  0  0  0  0  0  0  0  0
   58.7527   31.2999   44.5538 H   0  0  0  0  0  0  0  0  0  0  0  0
   59.4256   28.1930   45.3915 H   0  0  0  0  0  0  0  0  0  0  0  0
   58.3860   29.2336   46.4311 H   0  0  0  0  0  0  0  0  0  0  0  0
   56.6860   27.7610   43.4110 H   0  0  0  0  0  0  0  0  0  0  0  0
  1  2  1  0
  2  3  1  0
  3  4  2  0
  4  5  1  0
  5  6  1  0
  6  7  2  0
  7  8  1  0
  7  9  1  0
  9 10  1  0
 10 11  2  0
 10 12  1  0
 12 13  1  0
 13 14  2  0
  4 15  1  0
 15 16  2  0
 16  2  1  0
 13  6  1  0
  1 17  1  0
  1 18  1  0
  1 19  1  0
  3 20  1  0
  5 21  1  0
  5 22  1  0
 15 23  1  0
M  CHG  4   8  -1   9  -1  12  -1  15   1
M  END
>  <UniqueID>  (79) 
76

>  <SMILES>  (79) 
Cn1cc(Cc2c([O-])[n-]c(=O)[n-]c2=O)[nH+]n1

>  <Energy>  (79) 
58.81636215709885

>  <Genealogy>  (79) 
Cn1cc(Cc2c([O-])[n-]c(=O)[n-]c2=O)[nH+]n1 (protonated)
Cn1cc(Cc2c([O-])[n-]c(=O)[n-]c2=O)[nH+]n1 (3D coordinates assigned)
Cn1cc(Cc2c([O-])[n-]c(=O)[n-]c2=O)[nH+]n1 (optimized conformer: 58.81636215709885 kcal/mol)

>  <smiles>  (79) 
Cn1cc(Cc2c(O)[nH]c(=O)[nH]c2=O)nn1

>  <score_type>  (79) 
oracle

>  <origin>  (79) 
adg

>  <m_score__min__energy>  (79) 
-12.289999999999999

>  <m_primary>  (79) 
energy

$$$$
79:0
     RDKit          3D

 61 63  0  0  0  0  0  0  0  0999 V2000
   62.1670   25.9670   51.5830 C   0  0  0  0  0  0  0  0  0  0  0  0
   60.8620   26.5580   51.0610 C   0  0  0  0  0  0  0  0  0  0  0  0
   60.8380   26.5460   49.6360 O   0  0  0  0  0  0  0  0  0  0  0  0
   60.4620   27.6500   48.8630 C   0  0  0  0  0  0  0  0  0  0  0  0
   61.0770   28.7470   48.9660 O   0  0  0  0  0  0  0  0  0  0  0  0
   59.3360   27.5310   47.9300 C   0  0  0  0  0  0  0  0  0  0  0  0
   58.7500   28.5680   47.2160 C   0  0  0  0  0  0  0  0  0  0  0  0
   57.6940   28.1530   46.3890 C   0  0  0  0  0  0  0  0  0  0  0  0
   56.9740   29.1000   45.5160 C   0  0  0  0  0  0  0  0  0  0  0  0
   55.9590   28.6970   44.8840 O   0  0  0  0  0  0  0  0  0  0  0  0
   57.4380   30.4560   45.3360 N   0  0  0  0  0  0  0  0  0  0  0  0
   57.0810   31.1750   44.1060 C   0  0  0  0  0  0  0  0  0  0  0  0
   57.8720   32.4810   43.9750 C   0  0  0  0  0  0  0  0  0  0  0  0
   57.7070   33.3750   45.2280 C   0  0  0  0  0  0  0  0  0  0  0  0
   58.7410   34.5220   45.2350 C   0  0  0  0  0  0  0  0  0  0  0  0
   59.7940   34.3360   46.3000 C   0  0  0  0  0  0  0  0  0  0  0  0
   59.5600   34.7710   47.6170 C   0  0  0  0  0  0  0  0  0  0  0  0
   60.5310   34.5750   48.6050 C   0  0  0  0  0  0  0  0  0  0  0  0
   61.7360   33.9410   48.2890 C   0  0  0  0  0  0  0  0  0  0  0  0
   61.9720   33.5010   46.9830 C   0  0  0  0  0  0  0  0  0  0  0  0
   61.0050   33.6960   45.9920 C   0  0  0  0  0  0  0  0  0  0  0  0
   57.7730   32.5650   46.5570 C   0  0  0  0  0  0  0  0  0  0  0  0
   58.2510   31.1220   46.3650 C   0  0  0  0  0  0  0  0  0  0  0  0
   57.4490   26.7720   46.4510 C   0  0  0  0  0  0  0  0  0  0  0  0
   56.3630   26.0170   45.7890 C   0  0  0  0  0  0  0  0  0  0  0  0
   55.1640   26.3240   46.0140 O   0  0  0  0  0  0  0  0  0  0  0  0
   56.6670   24.9150   44.9170 N   0  0  0  0  0  0  0  0  0  0  0  0
   55.6350   24.0880   44.2850 C   0  0  0  0  0  0  0  0  0  0  0  0
   56.2890   23.1040   43.3140 C   0  0  0  0  0  0  0  0  0  0  0  0
   54.8380   23.3460   45.3600 C   0  0  0  0  0  0  0  0  0  0  0  0
   58.5490   26.1000   47.5400 S   0  0  0  0  0  0  0  0  0  0  0  0
   62.1574   25.9714   52.6829 H   0  0  0  0  0  0  0  0  0  0  0  0
   62.2720   24.9335   51.2213 H   0  0  0  0  0  0  0  0  0  0  0  0
   63.0131   26.5698   51.2213 H   0  0  0  0  0  0  0  0  0  0  0  0
   60.0185   25.9631   51.4414 H   0  0  0  0  0  0  0  0  0  0  0  0
   60.7817   27.5990   51.4073 H   0  0  0  0  0  0  0  0  0  0  0  0
   59.0814   29.6142   47.2912 H   0  0  0  0  0  0  0  0  0  0  0  0
   57.3014   30.5342   43.2395 H   0  0  0  0  0  0  0  0  0  0  0  0
   56.0095   31.4205   44.1459 H   0  0  0  0  0  0  0  0  0  0  0  0
   58.9377   32.2414   43.8452 H   0  0  0  0  0  0  0  0  0  0  0  0
   57.4846   33.0322   43.1055 H   0  0  0  0  0  0  0  0  0  0  0  0
   56.6992   33.8118   45.1686 H   0  0  0  0  0  0  0  0  0  0  0  0
   59.2342   34.5599   44.2525 H   0  0  0  0  0  0  0  0  0  0  0  0
   58.2047   35.4578   45.4511 H   0  0  0  0  0  0  0  0  0  0  0  0
   58.6113   35.2665   47.8708 H   0  0  0  0  0  0  0  0  0  0  0  0
   60.3457   34.9206   49.6327 H   0  0  0  0  0  0  0  0  0  0  0  0
   62.4982   33.7883   49.0673 H   0  0  0  0  0  0  0  0  0  0  0  0
   62.9197   33.0007   46.7348 H   0  0  0  0  0  0  0  0  0  0  0  0
   61.1940   33.3463   44.9663 H   0  0  0  0  0  0  0  0  0  0  0  0
   58.4668   33.0743   47.2420 H   0  0  0  0  0  0  0  0  0  0  0  0
   56.7509   32.5183   46.9608 H   0  0  0  0  0  0  0  0  0  0  0  0
   59.3050   31.1261   46.0504 H   0  0  0  0  0  0  0  0  0  0  0  0
   58.1477   30.5777   47.3153 H   0  0  0  0  0  0  0  0  0  0  0  0
   57.6670   24.7150   44.6740 H   0  0  0  0  0  0  0  0  0  0  0  0
   54.9420   24.7280   43.7191 H   0  0  0  0  0  0  0  0  0  0  0  0
   56.8103   22.3197   43.8824 H   0  0  0  0  0  0  0  0  0  0  0  0
   55.5156   22.6451   42.6806 H   0  0  0  0  0  0  0  0  0  0  0  0
   57.0116   23.6394   42.6806 H   0  0  0  0  0  0  0  0  0  0  0  0
   55.1803   23.6647   46.3556 H   0  0  0  0  0  0  0  0  0  0  0  0
   53.7684   23.5773   45.2486 H   0  0  0  0  0  0  0  0  0  0  0  0
   54.9924   22.2626   45.2486 H   0  0  0  0  0  0  0  0  0  0  0  0
  1  2  1  0
  2  3  1  0
  3  4  1  0
  4  5  2  0
  4  6  1  0
  6  7  2  0
  7  8  1  0
  8  9  1  0
  9 10  2  0
  9 11  1  0
 11 12  1  0
 12 13  1  0
 13 14  1  0
 14 15  1  0
 15 16  1  0
 16 17  2  0
 17 18  1  0
 18 19  2  0
 19 20  1  0
 20 21  2  0
 14 22  1  0
 22 23  1  0
  8 24  2  0
 24 25  1  0
 25 26  2  0
 25 27  1  0
 27 28  1  0
 28 29  1  0
 28 30  1  0
 24 31  1  0
 31  6  1  0
 23 11  1  0
 21 16  1  0
  1 32  1  0
  1 33  1  0
  1 34  1  0
  2 35  1  0
  2 36  1  0
  7 37  1  0
 12 38  1  0
 12 39  1  0
 13 40  1  0
 13 41  1  0
 14 42  1  0
 15 43  1  0
 15 44  1  0
 17 45  1  0
 18 46  1  0
 19 47  1  0
 20 48  1  0
 21 49  1  0
 22 50  1  0
 22 51  1  0
 23 52  1  0
 23 53  1  0
 27 54  1  0
 28 55  1  0
 29 56  1  0
 29 57  1  0
 29 58  1  0
 30 59  1  0
 30 60  1  0
 30 61  1  0
M  END
>  <UniqueID>  (80) 
77

>  <SMILES>  (80) 
CCOC(=O)c1cc(C(=O)N2CCC(Cc3ccccc3)CC2)c(C(=O)NC(C)C)s1

>  <Energy>  (80) 
83.52277501387333

>  <Genealogy>  (80) 
CCOC(=O)c1cc(C(=O)N2CCC(Cc3ccccc3)CC2)c(C(=O)NC(C)C)s1 (3D coordinates assigned)
CCOC(=O)c1cc(C(=O)N2CCC(Cc3ccccc3)CC2)c(C(=O)NC(C)C)s1 (nonaromatic ring conformer: 83.52277501387333 kcal/mol)

>  <smiles>  (80) 
CCOC(=O)c1cc(C(=O)N2CCC(Cc3ccccc3)CC2)c(C(=O)NC(C)C)s1

>  <score_type>  (80) 
oracle

>  <origin>  (80) 
adg

>  <m_score__min__energy>  (80) 
-9.5

>  <m_primary>  (80) 
energy

$$$$
80:0
     RDKit          3D

 54 57  0  0  0  0  0  0  0  0999 V2000
   58.7471   31.5808   49.8434 H   0  0  0  0  0  0  0  0  0  0  0  0
   59.5240   31.6630   49.0690 C   0  0  0  0  0  0  0  0  0  0  0  0
   59.7150   30.6450   48.1870 N   0  0  0  0  0  0  0  0  0  0  0  0
   60.6630   30.7040   47.2090 C   0  0  0  0  0  0  0  0  0  0  0  0
   60.8250   29.7270   46.3690 N   0  0  0  0  0  0  0  0  0  0  0  0
   60.0660   28.5080   46.3000 C   0  0  0  0  0  0  0  0  0  0  0  0
   60.5900   27.4480   45.8510 O   0  0  0  0  0  0  0  0  0  0  0  0
   58.7390   28.4820   46.8410 N   0  0  0  0  0  0  0  0  0  0  0  0
   58.4630   29.2860   47.4450 H   0  0  0  0  0  0  0  0  0  0  0  0
   57.8520   27.3500   46.7480 C   0  0  0  0  0  0  0  0  0  0  0  0
   58.1630   26.1340   47.3820 C   0  0  0  0  0  0  0  0  0  0  0  0
   59.1037   26.0365   47.9437 H   0  0  0  0  0  0  0  0  0  0  0  0
   57.2860   25.0480   47.3040 C   0  0  0  0  0  0  0  0  0  0  0  0
   57.5496   24.0951   47.7862 H   0  0  0  0  0  0  0  0  0  0  0  0
   56.0710   25.1690   46.6130 C   0  0  0  0  0  0  0  0  0  0  0  0
   55.1070   24.1080   46.5760 N   0  0  0  0  0  0  0  0  0  0  0  0
   54.8150   23.0530   45.2120 S   0  0  0  0  0  0  0  0  0  0  0  0
   53.9640   21.8920   45.6780 O   0  0  0  0  0  0  0  0  0  0  0  0
   54.0580   23.8080   44.1450 O   0  0  0  0  0  0  0  0  0  0  0  0
   56.3070   22.3900   44.5420 C   0  0  0  0  0  0  0  0  0  0  0  0
   56.2840   21.5890   43.3900 C   0  0  0  0  0  0  0  0  0  0  0  0
   55.3233   21.3215   42.9257 H   0  0  0  0  0  0  0  0  0  0  0  0
   57.4830   21.1300   42.8310 C   0  0  0  0  0  0  0  0  0  0  0  0
   57.4631   20.5144   41.9196 H   0  0  0  0  0  0  0  0  0  0  0  0
   58.7050   21.4520   43.4280 C   0  0  0  0  0  0  0  0  0  0  0  0
   59.6454   21.0933   42.9843 H   0  0  0  0  0  0  0  0  0  0  0  0
   58.7320   22.2320   44.5920 C   0  0  0  0  0  0  0  0  0  0  0  0
   59.6932   22.4757   45.0681 H   0  0  0  0  0  0  0  0  0  0  0  0
   57.5370   22.7010   45.1490 C   0  0  0  0  0  0  0  0  0  0  0  0
   57.5597   23.3135   46.0624 H   0  0  0  0  0  0  0  0  0  0  0  0
   55.8030   26.3430   45.9030 C   0  0  0  0  0  0  0  0  0  0  0  0
   54.8903   26.4125   45.2930 H   0  0  0  0  0  0  0  0  0  0  0  0
   56.6880   27.4390   45.9590 C   0  0  0  0  0  0  0  0  0  0  0  0
   56.4420   28.6310   45.2550 O   0  0  0  0  0  0  0  0  0  0  0  0
   57.1820   29.0850   44.1230 C   0  0  0  0  0  0  0  0  0  0  0  0
   58.0948   28.4799   44.0201 H   0  0  0  0  0  0  0  0  0  0  0  0
   56.5573   28.9822   43.2235 H   0  0  0  0  0  0  0  0  0  0  0  0
   57.5620   30.5310   44.2910 C   0  0  0  0  0  0  0  0  0  0  0  0
   57.7170   31.3540   43.1590 C   0  0  0  0  0  0  0  0  0  0  0  0
   57.5685   30.9352   42.1527 H   0  0  0  0  0  0  0  0  0  0  0  0
   58.0590   32.7020   43.3090 C   0  0  0  0  0  0  0  0  0  0  0  0
   58.1729   33.3426   42.4220 H   0  0  0  0  0  0  0  0  0  0  0  0
   58.2560   33.2350   44.5860 C   0  0  0  0  0  0  0  0  0  0  0  0
   58.5253   34.2951   44.7031 H   0  0  0  0  0  0  0  0  0  0  0  0
   58.1110   32.4210   45.7170 C   0  0  0  0  0  0  0  0  0  0  0  0
   58.2687   32.8425   46.7207 H   0  0  0  0  0  0  0  0  0  0  0  0
   57.7660   31.0730   45.5720 C   0  0  0  0  0  0  0  0  0  0  0  0
   57.6542   30.4361   46.4618 H   0  0  0  0  0  0  0  0  0  0  0  0
   61.4750   31.8410   47.1070 C   0  0  0  0  0  0  0  0  0  0  0  0
   62.2483   31.9004   46.3270 H   0  0  0  0  0  0  0  0  0  0  0  0
   61.2970   32.8980   48.0010 C   0  0  0  0  0  0  0  0  0  0  0  0
   61.9284   33.7956   47.9262 H   0  0  0  0  0  0  0  0  0  0  0  0
   60.3140   32.8130   48.9920 C   0  0  0  0  0  0  0  0  0  0  0  0
   60.0500   34.1500   50.0980 Cl  0  0  0  0  0  0  0  0  0  0  0  0
  1  2  1  0
  2  3  1  0
  3  4  1  0
  4  5  2  0
  5  6  1  0
  6  7  2  0
  6  8  1  0
  8  9  1  0
  8 10  1  0
 10 11  2  0
 11 12  1  0
 11 13  1  0
 13 14  1  0
 13 15  2  0
 15 16  1  0
 16 17  1  0
 17 18  2  0
 17 19  2  0
 17 20  1  0
 20 21  2  0
 21 22  1  0
 21 23  1  0
 23 24  1  0
 23 25  2  0
 25 26  1  0
 25 27  1  0
 27 28  1  0
 27 29  2  0
 29 30  1  0
 15 31  1  0
 31 32  1  0
 31 33  2  0
 33 34  1  0
 34 35  1  0
 35 36  1  0
 35 37  1  0
 35 38  1  0
 38 39  2  0
 39 40  1  0
 39 41  1  0
 41 42  1  0
 41 43  2  0
 43 44  1  0
 43 45  1  0
 45 46  1  0
 45 47  2  0
 47 48  1  0
  4 49  1  0
 49 50  1  0
 49 51  2  0
 51 52  1  0
 51 53  1  0
 53 54  1  0
 53  2  2  0
 33 10  1  0
 47 38  1  0
 29 20  1  0
M  CHG  2   3  -1  16  -1
M  END
>  <UniqueID>  (81) 
78

>  <SMILES>  (81) 
O=C(/N=c1/ccc(Cl)c[n-]1)Nc1ccc([N-]S(=O)(=O)c2ccccc2)cc1OCc1ccccc1

>  <Energy>  (81) 
73.39261564917044

>  <Genealogy>  (81) 
O=C(N=c1ccc(Cl)c[n-]1)Nc1ccc([N-]S(=O)(=O)c2ccccc2)cc1OCc1ccccc1 (protonated)
O=C(/N=c1/ccc(Cl)c[n-]1)Nc1ccc([N-]S(=O)(=O)c2ccccc2)cc1OCc1ccccc1 (cis-trans isomerization)
O=C(/N=c1/ccc(Cl)c[n-]1)Nc1ccc([N-]S(=O)(=O)c2ccccc2)cc1OCc1ccccc1 (3D coordinates assigned)
O=C(/N=c1/ccc(Cl)c[n-]1)Nc1ccc([N-]S(=O)(=O)c2ccccc2)cc1OCc1ccccc1 (optimized conformer: 73.39261564917044 kcal/mol)

>  <smiles>  (81) 
O=C(N=c1ccc(Cl)c[nH]1)Nc1ccc(NS(=O)(=O)c2ccccc2)cc1OCc1ccccc1

>  <score_type>  (81) 
oracle

>  <origin>  (81) 
adg

>  <m_score__min__energy>  (81) 
-12.34

>  <m_primary>  (81) 
energy

$$$$
81:0
     RDKit          3D

 54 56  0  0  0  0  0  0  0  0999 V2000
   56.9840   29.2310   44.4690 C   0  0  0  0  0  0  0  0  0  0  0  0
   56.4740   30.4830   43.7660 C   0  0  0  0  0  0  0  0  0  0  0  0
   56.6480   31.6310   44.5940 O   0  0  0  0  0  0  0  0  0  0  0  0
   57.7590   32.4810   44.5140 C   0  0  0  0  0  0  0  0  0  0  0  0
   58.3000   32.7120   43.3980 O   0  0  0  0  0  0  0  0  0  0  0  0
   58.2800   33.1010   45.7060 N   0  0  0  0  0  0  0  0  0  0  0  0
   57.6700   32.8250   47.0160 C   0  0  0  0  0  0  0  0  0  0  0  0
   58.7540   32.7070   48.0940 C   0  0  0  0  0  0  0  0  0  0  0  0
   59.7470   33.7880   47.9920 N   0  0  0  0  0  0  0  0  0  0  0  0
   60.9120   33.7680   48.8380 C   0  0  0  0  0  0  0  0  0  0  0  0
   62.0420   34.0400   48.3490 O   0  0  0  0  0  0  0  0  0  0  0  0
   60.8350   33.3720   50.2580 C   0  0  0  0  0  0  0  0  0  0  0  0
   59.7630   33.5410   51.0470 C   0  0  0  0  0  0  0  0  0  0  0  0
   58.8740   32.4610   51.5350 C   0  0  0  0  0  0  0  0  0  0  0  0
   59.4490   31.2840   52.0350 C   0  0  0  0  0  0  0  0  0  0  0  0
   58.6400   30.2510   52.5090 C   0  0  0  0  0  0  0  0  0  0  0  0
   57.2510   30.3910   52.5120 C   0  0  0  0  0  0  0  0  0  0  0  0
   56.6540   31.5780   52.0640 C   0  0  0  0  0  0  0  0  0  0  0  0
   55.2170   31.6810   52.0590 N   0  0  0  0  0  0  0  0  0  0  0  0
   54.3140   30.5680   52.1840 C   0  0  0  0  0  0  0  0  0  0  0  0
   54.7240   29.3860   52.0290 O   0  0  0  0  0  0  0  0  0  0  0  0
   52.8570   30.8100   52.4440 C   0  0  0  0  0  0  0  0  0  0  0  0
   52.1230   30.9960   51.1520 C   0  0  0  0  0  0  0  0  0  0  0  0
   52.1210   29.9010   49.8700 S   0  0  0  0  0  0  0  0  0  0  0  0
   51.0450   30.8300   48.9710 C   0  0  0  0  0  0  0  0  0  0  0  0
   50.6250   30.5210   47.8260 O   0  0  0  0  0  0  0  0  0  0  0  0
   50.6670   31.9560   49.6130 N   0  0  0  0  0  0  0  0  0  0  0  0
   51.2630   32.0450   50.8310 C   0  0  0  0  0  0  0  0  0  0  0  0
   51.0190   33.1130   51.6880 O   0  0  0  0  0  0  0  0  0  0  0  0
   57.4740   32.6110   51.5690 C   0  0  0  0  0  0  0  0  0  0  0  0
   59.6290   34.7900   46.9260 C   0  0  0  0  0  0  0  0  0  0  0  0
   59.3570   34.0970   45.5880 C   0  0  0  0  0  0  0  0  0  0  0  0
   56.9262   29.3729   45.5583 H   0  0  0  0  0  0  0  0  0  0  0  0
   56.3652   28.3693   44.1781 H   0  0  0  0  0  0  0  0  0  0  0  0
   58.0288   29.0470   44.1781 H   0  0  0  0  0  0  0  0  0  0  0  0
   57.0334   30.6248   42.8296 H   0  0  0  0  0  0  0  0  0  0  0  0
   55.4018   30.3583   43.5542 H   0  0  0  0  0  0  0  0  0  0  0  0
   56.9858   33.6456   47.2778 H   0  0  0  0  0  0  0  0  0  0  0  0
   57.1165   31.8760   46.9600 H   0  0  0  0  0  0  0  0  0  0  0  0
   58.2776   32.7536   49.0844 H   0  0  0  0  0  0  0  0  0  0  0  0
   59.2757   31.7493   47.9505 H   0  0  0  0  0  0  0  0  0  0  0  0
   61.7245   32.9025   50.7033 H   0  0  0  0  0  0  0  0  0  0  0  0
   59.5239   34.5687   51.3579 H   0  0  0  0  0  0  0  0  0  0  0  0
   60.5434   31.1746   52.0536 H   0  0  0  0  0  0  0  0  0  0  0  0
   59.0981   29.3230   52.8817 H   0  0  0  0  0  0  0  0  0  0  0  0
   56.6199   29.5636   52.8686 H   0  0  0  0  0  0  0  0  0  0  0  0
   54.7980   32.6210   51.8830 H   0  0  0  0  0  0  0  0  0  0  0  0
   52.4356   29.9467   52.9798 H   0  0  0  0  0  0  0  0  0  0  0  0
   52.7481   31.7202   53.0519 H   0  0  0  0  0  0  0  0  0  0  0  0
   57.0167   33.5432   51.2058 H   0  0  0  0  0  0  0  0  0  0  0  0
   58.7991   35.4737   47.1581 H   0  0  0  0  0  0  0  0  0  0  0  0
   60.5690   35.3570   46.8559 H   0  0  0  0  0  0  0  0  0  0  0  0
   59.0638   34.8544   44.8462 H   0  0  0  0  0  0  0  0  0  0  0  0
   60.2749   33.5776   45.2753 H   0  0  0  0  0  0  0  0  0  0  0  0
  1  2  1  0
  2  3  1  0
  3  4  1  0
  4  5  2  0
  4  6  1  0
  6  7  1  0
  7  8  1  0
  8  9  1  0
  9 10  1  0
 10 11  2  0
 10 12  1  0
 12 13  2  3
 13 14  1  0
 14 15  2  0
 15 16  1  0
 16 17  2  0
 17 18  1  0
 18 19  1  0
 19 20  1  0
 20 21  2  0
 20 22  1  0
 22 23  1  0
 23 24  1  0
 24 25  1  0
 25 26  2  0
 25 27  1  0
 27 28  1  0
 28 29  1  0
 18 30  2  0
  9 31  1  0
 31 32  1  0
 32  6  1  0
 30 14  1  0
 28 23  2  0
  1 33  1  0
  1 34  1  0
  1 35  1  0
  2 36  1  0
  2 37  1  0
  7 38  1  0
  7 39  1  0
  8 40  1  0
  8 41  1  0
 12 42  1  0
 13 43  1  0
 15 44  1  0
 16 45  1  0
 17 46  1  0
 19 47  1  0
 22 48  1  0
 22 49  1  0
 30 50  1  0
 31 51  1  0
 31 52  1  0
 32 53  1  0
 32 54  1  0
M  CHG  2  27  -1  29  -1
M  END
>  <UniqueID>  (82) 
79

>  <SMILES>  (82) 
CCOC(=O)N1CCN(C(=O)C=Cc2cccc(NC(=O)Cc3sc(=O)[n-]c3[O-])c2)CC1

>  <Energy>  (82) 
91.70002055035226

>  <Genealogy>  (82) 
CCOC(=O)N1CCN(C(=O)C=Cc2cccc(NC(=O)Cc3sc(=O)[n-]c3[O-])c2)CC1 (protonated)
CCOC(=O)N1CCN(C(=O)C=Cc2cccc(NC(=O)Cc3sc(=O)[n-]c3[O-])c2)CC1 (3D coordinates assigned)
CCOC(=O)N1CCN(C(=O)C=Cc2cccc(NC(=O)Cc3sc(=O)[n-]c3[O-])c2)CC1 (nonaromatic ring conformer: 91.70002055035226 kcal/mol)

>  <smiles>  (82) 
CCOC(=O)N1CCN(C(=O)C=Cc2cccc(NC(=O)Cc3sc(=O)[nH]c3O)c2)CC1

>  <score_type>  (82) 
oracle

>  <origin>  (82) 
adg

>  <m_score__min__energy>  (82) 
-17.41

>  <m_primary>  (82) 
energy

$$$$
82:0
     RDKit          3D

 68 71  0  0  0  0  0  0  0  0999 V2000
   67.6560   28.8880   51.6740 C   0  0  0  0  0  0  0  0  0  0  0  0
   67.2270   30.2000   52.0360 O   0  0  0  0  0  0  0  0  0  0  0  0
   66.3160   30.9630   51.2930 C   0  0  0  0  0  0  0  0  0  0  0  0
   64.9640   30.6050   51.3280 C   0  0  0  0  0  0  0  0  0  0  0  0
   64.0180   31.3340   50.6010 C   0  0  0  0  0  0  0  0  0  0  0  0
   64.4120   32.4200   49.8120 C   0  0  0  0  0  0  0  0  0  0  0  0
   63.4090   33.1340   49.0730 N   0  0  0  0  0  0  0  0  0  0  0  0
   63.0040   32.8590   47.4080 S   0  0  0  0  0  0  0  0  0  0  0  0
   63.8060   31.7120   46.8610 O   0  0  0  0  0  0  0  0  0  0  0  0
   63.3400   34.0900   46.6150 O   0  0  0  0  0  0  0  0  0  0  0  0
   61.2760   32.5510   47.2660 C   0  0  0  0  0  0  0  0  0  0  0  0
   60.6910   31.5410   48.0410 C   0  0  0  0  0  0  0  0  0  0  0  0
   59.3280   31.2590   47.9170 C   0  0  0  0  0  0  0  0  0  0  0  0
   58.5410   31.9840   47.0170 C   0  0  0  0  0  0  0  0  0  0  0  0
   59.1100   33.0090   46.2450 C   0  0  0  0  0  0  0  0  0  0  0  0
   58.2630   33.7600   45.2920 C   0  0  0  0  0  0  0  0  0  0  0  0
   58.4800   34.9890   45.1270 O   0  0  0  0  0  0  0  0  0  0  0  0
   57.2340   33.1340   44.5080 N   0  0  0  0  0  0  0  0  0  0  0  0
   57.4080   32.0340   43.5630 C   0  0  0  0  0  0  0  0  0  0  0  0
   57.3030   30.7110   44.2580 C   0  0  0  0  0  0  0  0  0  0  0  0
   56.2320   30.4090   44.8540 O   0  0  0  0  0  0  0  0  0  0  0  0
   58.3920   29.7780   44.1920 N   0  0  0  0  0  0  0  0  0  0  0  0
   58.4610   28.5860   44.9920 C   0  0  0  0  0  0  0  0  0  0  0  0
   59.6290   28.2510   45.6980 C   0  0  0  0  0  0  0  0  0  0  0  0
   59.6770   27.0840   46.4640 C   0  0  0  0  0  0  0  0  0  0  0  0
   58.5670   26.2370   46.5250 C   0  0  0  0  0  0  0  0  0  0  0  0
   57.4060   26.5460   45.8050 C   0  0  0  0  0  0  0  0  0  0  0  0
   56.0030   25.4840   45.8910 S   0  0  0  0  0  0  0  0  0  0  0  0
   54.7700   26.3390   45.9870 O   0  0  0  0  0  0  0  0  0  0  0  0
   56.1120   24.6410   47.1320 O   0  0  0  0  0  0  0  0  0  0  0  0
   55.9730   24.4700   44.4570 N   0  0  0  0  0  0  0  0  0  0  0  0
   55.2020   23.2240   44.6370 C   0  0  0  0  0  0  0  0  0  0  0  0
   55.9820   22.1470   45.4100 C   0  0  0  0  0  0  0  0  0  0  0  0
   57.3420   21.8910   44.7650 C   0  0  0  0  0  0  0  0  0  0  0  0
   58.1240   23.1970   44.6400 C   0  0  0  0  0  0  0  0  0  0  0  0
   57.3070   24.2450   43.8680 C   0  0  0  0  0  0  0  0  0  0  0  0
   57.3580   27.7180   45.0380 C   0  0  0  0  0  0  0  0  0  0  0  0
   60.4850   33.2760   46.3600 C   0  0  0  0  0  0  0  0  0  0  0  0
   65.7680   32.7920   49.7850 C   0  0  0  0  0  0  0  0  0  0  0  0
   66.7120   32.0690   50.5180 C   0  0  0  0  0  0  0  0  0  0  0  0
   67.8480   28.3008   52.5842 H   0  0  0  0  0  0  0  0  0  0  0  0
   66.8717   28.3968   51.0794 H   0  0  0  0  0  0  0  0  0  0  0  0
   68.5790   28.9551   51.0794 H   0  0  0  0  0  0  0  0  0  0  0  0
   64.6428   29.7436   51.9320 H   0  0  0  0  0  0  0  0  0  0  0  0
   62.9560   31.0515   50.6498 H   0  0  0  0  0  0  0  0  0  0  0  0
   61.3069   30.9679   48.7497 H   0  0  0  0  0  0  0  0  0  0  0  0
   58.8735   30.4655   48.5284 H   0  0  0  0  0  0  0  0  0  0  0  0
   57.4712   31.7501   46.9135 H   0  0  0  0  0  0  0  0  0  0  0  0
   56.6288   32.0972   42.7892 H   0  0  0  0  0  0  0  0  0  0  0  0
   58.4069   32.1147   43.1096 H   0  0  0  0  0  0  0  0  0  0  0  0
   59.0910   29.9010   43.4260 H   0  0  0  0  0  0  0  0  0  0  0  0
   60.5083   28.9100   45.6472 H   0  0  0  0  0  0  0  0  0  0  0  0
   60.5912   26.8308   47.0209 H   0  0  0  0  0  0  0  0  0  0  0  0
   58.6052   25.3257   47.1398 H   0  0  0  0  0  0  0  0  0  0  0  0
   54.2813   23.4574   45.1919 H   0  0  0  0  0  0  0  0  0  0  0  0
   54.9845   22.8216   43.6366 H   0  0  0  0  0  0  0  0  0  0  0  0
   56.1326   22.4852   46.4458 H   0  0  0  0  0  0  0  0  0  0  0  0
   55.4026   21.2121   45.3914 H   0  0  0  0  0  0  0  0  0  0  0  0
   57.9116   21.1852   45.3874 H   0  0  0  0  0  0  0  0  0  0  0  0
   57.1879   21.4689   43.7610 H   0  0  0  0  0  0  0  0  0  0  0  0
   58.3476   23.5821   45.6458 H   0  0  0  0  0  0  0  0  0  0  0  0
   59.0571   23.0005   44.0916 H   0  0  0  0  0  0  0  0  0  0  0  0
   57.8595   25.1962   43.8730 H   0  0  0  0  0  0  0  0  0  0  0  0
   57.1606   23.8667   42.8455 H   0  0  0  0  0  0  0  0  0  0  0  0
   56.4491   27.9599   44.4675 H   0  0  0  0  0  0  0  0  0  0  0  0
   60.9443   34.0574   45.7367 H   0  0  0  0  0  0  0  0  0  0  0  0
   66.0867   33.6563   49.1839 H   0  0  0  0  0  0  0  0  0  0  0  0
   67.7708   32.3658   50.4893 H   0  0  0  0  0  0  0  0  0  0  0  0
  1  2  1  0
  2  3  1  0
  3  4  2  0
  4  5  1  0
  5  6  2  0
  6  7  1  0
  7  8  1  0
  8  9  2  0
  8 10  2  0
  8 11  1  0
 11 12  2  0
 12 13  1  0
 13 14  2  0
 14 15  1  0
 15 16  1  0
 16 17  2  0
 16 18  1  0
 18 19  1  0
 19 20  1  0
 20 21  2  0
 20 22  1  0
 22 23  1  0
 23 24  2  0
 24 25  1  0
 25 26  2  0
 26 27  1  0
 27 28  1  0
 28 29  2  0
 28 30  2  0
 28 31  1  0
 31 32  1  0
 32 33  1  0
 33 34  1  0
 34 35  1  0
 35 36  1  0
 27 37  2  0
 15 38  2  0
  6 39  1  0
 39 40  2  0
 40  3  1  0
 38 11  1  0
 37 23  1  0
 36 31  1  0
  1 41  1  0
  1 42  1  0
  1 43  1  0
  4 44  1  0
  5 45  1  0
 12 46  1  0
 13 47  1  0
 14 48  1  0
 19 49  1  0
 19 50  1  0
 22 51  1  0
 24 52  1  0
 25 53  1  0
 26 54  1  0
 32 55  1  0
 32 56  1  0
 33 57  1  0
 33 58  1  0
 34 59  1  0
 34 60  1  0
 35 61  1  0
 35 62  1  0
 36 63  1  0
 36 64  1  0
 37 65  1  0
 38 66  1  0
 39 67  1  0
 40 68  1  0
M  CHG  2   7  -1  18  -1
M  END
>  <UniqueID>  (83) 
80

>  <SMILES>  (83) 
COc1ccc([N-]S(=O)(=O)c2cccc(C(=O)[N-]CC(=O)Nc3cccc(S(=O)(=O)N4CCCCC4)c3)c2)cc1

>  <Energy>  (83) 
80.05809205003986

>  <Genealogy>  (83) 
COc1ccc([N-]S(=O)(=O)c2cccc(C(=O)[N-]CC(=O)Nc3cccc(S(=O)(=O)N4CCCCC4)c3)c2)cc1 (protonated)
COc1ccc([N-]S(=O)(=O)c2cccc(C(=O)[N-]CC(=O)Nc3cccc(S(=O)(=O)N4CCCCC4)c3)c2)cc1 (3D coordinates assigned)
COc1ccc([N-]S(=O)(=O)c2cccc(C(=O)[N-]CC(=O)Nc3cccc(S(=O)(=O)N4CCCCC4)c3)c2)cc1 (nonaromatic ring conformer: 80.05809205003986 kcal/mol)

>  <smiles>  (83) 
COc1ccc(NS(=O)(=O)c2cccc(C(=O)NCC(=O)Nc3cccc(S(=O)(=O)N4CCCCC4)c3)c2)cc1

>  <score_type>  (83) 
oracle

>  <origin>  (83) 
adg

>  <m_score__min__energy>  (83) 
-13.58

>  <m_primary>  (83) 
energy

$$$$
83:0
     RDKit          3D

 52 54  0  0  0  0  0  0  0  0999 V2000
   56.5000   24.5560   45.8540 C   0  0  0  0  0  0  0  0  0  0  0  0
   56.0470   25.9830   45.9450 C   0  0  0  0  0  0  0  0  0  0  0  0
   54.8070   26.2120   46.0040 O   0  0  0  0  0  0  0  0  0  0  0  0
   57.0040   27.1220   45.9720 C   0  0  0  0  0  0  0  0  0  0  0  0
   58.2420   26.9510   46.6070 C   0  0  0  0  0  0  0  0  0  0  0  0
   59.1710   27.9870   46.6550 C   0  0  0  0  0  0  0  0  0  0  0  0
   58.8940   29.2250   46.0510 C   0  0  0  0  0  0  0  0  0  0  0  0
   59.8150   30.2870   46.0870 O   0  0  0  0  0  0  0  0  0  0  0  0
   61.2080   30.1690   46.3780 C   0  0  0  0  0  0  0  0  0  0  0  0
   61.6200   31.1770   47.4170 C   0  0  0  0  0  0  0  0  0  0  0  0
   60.8340   31.3680   48.5630 C   0  0  0  0  0  0  0  0  0  0  0  0
   61.2050   32.3060   49.5290 C   0  0  0  0  0  0  0  0  0  0  0  0
   62.3650   33.0830   49.3600 C   0  0  0  0  0  0  0  0  0  0  0  0
   62.7440   34.0570   50.3500 N   0  0  0  0  0  0  0  0  0  0  0  0
   62.9560   35.2460   50.0300 O   0  0  0  0  0  0  0  0  0  0  0  0
   62.9050   33.6880   51.6630 O   0  0  0  0  0  0  0  0  0  0  0  0
   63.1430   32.9050   48.1980 C   0  0  0  0  0  0  0  0  0  0  0  0
   62.7700   31.9630   47.2340 C   0  0  0  0  0  0  0  0  0  0  0  0
   57.6660   29.4100   45.3850 C   0  0  0  0  0  0  0  0  0  0  0  0
   57.3870   30.6950   44.6970 C   0  0  0  0  0  0  0  0  0  0  0  0
   56.2520   31.2320   44.8150 O   0  0  0  0  0  0  0  0  0  0  0  0
   58.4660   31.4220   43.9320 C   0  0  0  0  0  0  0  0  0  0  0  0
   58.2580   32.9470   43.9330 C   0  0  0  0  0  0  0  0  0  0  0  0
   58.7530   33.5870   45.2170 C   0  0  0  0  0  0  0  0  0  0  0  0
   60.0740   34.0770   45.2420 C   0  0  0  0  0  0  0  0  0  0  0  0
   60.6220   34.5840   46.4200 C   0  0  0  0  0  0  0  0  0  0  0  0
   59.8600   34.6200   47.5870 C   0  0  0  0  0  0  0  0  0  0  0  0
   58.5460   34.1500   47.5810 C   0  0  0  0  0  0  0  0  0  0  0  0
   57.9790   33.6270   46.4130 C   0  0  0  0  0  0  0  0  0  0  0  0
   56.6630   33.1520   46.4950 O   0  0  0  0  0  0  0  0  0  0  0  0
   56.7050   28.3750   45.3890 C   0  0  0  0  0  0  0  0  0  0  0  0
   55.4400   28.6170   44.8630 O   0  0  0  0  0  0  0  0  0  0  0  0
   56.6298   24.1472   46.8669 H   0  0  0  0  0  0  0  0  0  0  0  0
   55.7452   23.9654   45.3142 H   0  0  0  0  0  0  0  0  0  0  0  0
   57.4573   24.5089   45.3142 H   0  0  0  0  0  0  0  0  0  0  0  0
   58.4829   25.9846   47.0740 H   0  0  0  0  0  0  0  0  0  0  0  0
   60.1307   27.8348   47.1706 H   0  0  0  0  0  0  0  0  0  0  0  0
   61.4139   29.1564   46.7552 H   0  0  0  0  0  0  0  0  0  0  0  0
   61.7795   30.3558   45.4569 H   0  0  0  0  0  0  0  0  0  0  0  0
   59.9184   30.7744   48.7019 H   0  0  0  0  0  0  0  0  0  0  0  0
   60.5855   32.4380   50.4284 H   0  0  0  0  0  0  0  0  0  0  0  0
   64.0490   33.5107   48.0486 H   0  0  0  0  0  0  0  0  0  0  0  0
   63.3803   31.8368   46.3276 H   0  0  0  0  0  0  0  0  0  0  0  0
   59.4389   31.1976   44.3936 H   0  0  0  0  0  0  0  0  0  0  0  0
   58.4272   31.0783   42.8878 H   0  0  0  0  0  0  0  0  0  0  0  0
   58.8078   33.3810   43.0848 H   0  0  0  0  0  0  0  0  0  0  0  0
   57.1788   33.1430   43.8495 H   0  0  0  0  0  0  0  0  0  0  0  0
   60.6789   34.0594   44.3234 H   0  0  0  0  0  0  0  0  0  0  0  0
   61.6571   34.9561   46.4284 H   0  0  0  0  0  0  0  0  0  0  0  0
   60.2955   35.0198   48.5146 H   0  0  0  0  0  0  0  0  0  0  0  0
   57.9494   34.1910   48.5042 H   0  0  0  0  0  0  0  0  0  0  0  0
   56.3130   32.3310   46.0190 H   0  0  0  0  0  0  0  0  0  0  0  0
  1  2  1  0
  2  3  2  0
  2  4  1  0
  4  5  2  0
  5  6  1  0
  6  7  2  0
  7  8  1  0
  8  9  1  0
  9 10  1  0
 10 11  2  0
 11 12  1  0
 12 13  2  0
 13 14  1  0
 14 15  2  0
 14 16  1  0
 13 17  1  0
 17 18  2  0
  7 19  1  0
 19 20  1  0
 20 21  2  0
 20 22  1  0
 22 23  1  0
 23 24  1  0
 24 25  2  0
 25 26  1  0
 26 27  2  0
 27 28  1  0
 28 29  2  0
 29 30  1  0
 19 31  2  0
 31 32  1  0
 31  4  1  0
 18 10  1  0
 29 24  1  0
  1 33  1  0
  1 34  1  0
  1 35  1  0
  5 36  1  0
  6 37  1  0
  9 38  1  0
  9 39  1  0
 11 40  1  0
 12 41  1  0
 17 42  1  0
 18 43  1  0
 22 44  1  0
 22 45  1  0
 23 46  1  0
 23 47  1  0
 25 48  1  0
 26 49  1  0
 27 50  1  0
 28 51  1  0
 30 52  1  0
M  CHG  3  14   1  16  -1  32  -1
M  END
>  <UniqueID>  (84) 
81

>  <SMILES>  (84) 
CC(=O)c1ccc(OCc2ccc([N+](=O)[O-])cc2)c(C(=O)CCc2ccccc2O)c1[O-]

>  <Energy>  (84) 
62.65317427028747

>  <Genealogy>  (84) 
CC(=O)c1ccc(OCc2ccc([N+](=O)[O-])cc2)c(C(=O)CCc2ccccc2O)c1[O-] (protonated)
CC(=O)c1ccc(OCc2ccc([N+](=O)[O-])cc2)c(C(=O)CCc2ccccc2O)c1[O-] (3D coordinates assigned)
CC(=O)c1ccc(OCc2ccc([N+](=O)[O-])cc2)c(C(=O)CCc2ccccc2O)c1[O-] (optimized conformer: 62.65317427028747 kcal/mol)

>  <smiles>  (84) 
CC(=O)c1ccc(OCc2ccc([N+](=O)[O-])cc2)c(C(=O)CCc2ccccc2O)c1O

>  <score_type>  (84) 
oracle

>  <origin>  (84) 
adg

>  <m_score__min__energy>  (84) 
-12.93

>  <m_primary>  (84) 
energy

$$$$
84:0
     RDKit          3D

 56 59  0  0  0  0  0  0  0  0999 V2000
   54.6543   27.7247   54.4473 H   0  0  0  0  0  0  0  0  0  0  0  0
   53.9720   28.3550   53.8580 C   0  0  0  0  0  0  0  0  0  0  0  0
   52.9035   28.1008   53.7965 H   0  0  0  0  0  0  0  0  0  0  0  0
   54.4440   29.4360   53.2130 C   0  0  0  0  0  0  0  0  0  0  0  0
   53.6960   30.3230   52.4310 C   0  0  0  0  0  0  0  0  0  0  0  0
   52.3630   30.3250   52.2400 C   0  0  0  0  0  0  0  0  0  0  0  0
   51.7210   29.9667   53.0582 H   0  0  0  0  0  0  0  0  0  0  0  0
   51.7160   30.7800   50.9970 C   0  0  0  0  0  0  0  0  0  0  0  0
   51.6820   30.0440   49.8710 N   0  0  0  0  0  0  0  0  0  0  0  0
   51.0300   30.8410   48.9950 C   0  0  0  0  0  0  0  0  0  0  0  0
   50.7810   30.4880   47.8130 O   0  0  0  0  0  0  0  0  0  0  0  0
   50.6680   32.0470   49.4870 N   0  0  0  0  0  0  0  0  0  0  0  0
   51.1190   31.9980   50.7510 C   0  0  0  0  0  0  0  0  0  0  0  0
   51.0190   33.0580   51.6450 O   0  0  0  0  0  0  0  0  0  0  0  0
   54.5970   31.2550   51.9350 C   0  0  0  0  0  0  0  0  0  0  0  0
   54.3648   32.1065   51.2785 H   0  0  0  0  0  0  0  0  0  0  0  0
   55.8410   30.9080   52.4240 C   0  0  0  0  0  0  0  0  0  0  0  0
   57.1100   31.6470   52.0900 C   0  0  0  0  0  0  0  0  0  0  0  0
   56.8742   32.4712   51.4008 H   0  0  0  0  0  0  0  0  0  0  0  0
   57.5434   32.0337   53.0241 H   0  0  0  0  0  0  0  0  0  0  0  0
   58.1190   30.7340   51.4380 C   0  0  0  0  0  0  0  0  0  0  0  0
   57.7220   29.7180   50.8810 O   0  0  0  0  0  0  0  0  0  0  0  0
   59.5320   31.0800   51.4220 N   0  0  1  0  0  0  0  0  0  0  0  0
   59.9490   30.7830   52.3360 H   0  0  0  0  0  0  0  0  0  0  0  0
   60.2780   30.3570   50.3740 C   0  0  0  0  0  0  0  0  0  0  0  0
   59.9396   29.3104   50.3613 H   0  0  0  0  0  0  0  0  0  0  0  0
   61.3481   30.4390   50.6151 H   0  0  0  0  0  0  0  0  0  0  0  0
   60.0790   30.9420   49.0030 C   0  0  0  0  0  0  0  0  0  0  0  0
   60.3630   30.2240   48.0060 O   0  0  0  0  0  0  0  0  0  0  0  0
   59.6430   32.3110   48.8280 N   0  0  0  0  0  0  0  0  0  0  0  0
   59.4250   32.9020   47.4890 C   0  0  0  0  0  0  0  0  0  0  0  0
   60.0544   32.3324   46.7894 H   0  0  0  0  0  0  0  0  0  0  0  0
   59.8870   34.3690   47.4190 C   0  0  0  0  0  0  0  0  0  0  0  0
   59.3269   34.9606   48.1581 H   0  0  0  0  0  0  0  0  0  0  0  0
   60.9645   34.4134   47.6357 H   0  0  0  0  0  0  0  0  0  0  0  0
   59.6360   34.9500   46.0050 C   0  0  0  0  0  0  0  0  0  0  0  0
   59.2182   35.9617   46.1144 H   0  0  0  0  0  0  0  0  0  0  0  0
   60.6032   34.9497   45.4811 H   0  0  0  0  0  0  0  0  0  0  0  0
   58.7380   34.1760   45.2200 O   0  0  0  0  0  0  0  0  0  0  0  0
   57.5990   33.8160   45.9780 C   0  0  0  0  0  0  0  0  0  0  0  0
   57.2111   34.7068   46.4939 H   0  0  0  0  0  0  0  0  0  0  0  0
   56.8350   33.4077   45.3001 H   0  0  0  0  0  0  0  0  0  0  0  0
   57.9620   32.7460   47.0200 C   0  0  0  0  0  0  0  0  0  0  0  0
   57.2936   32.8478   47.8877 H   0  0  0  0  0  0  0  0  0  0  0  0
   57.8466   31.7544   46.5580 H   0  0  0  0  0  0  0  0  0  0  0  0
   59.2530   33.1230   49.9900 C   0  0  0  0  0  0  0  0  0  0  0  0
   58.1554   33.1892   50.0190 H   0  0  0  0  0  0  0  0  0  0  0  0
   59.7208   34.1116   49.8727 H   0  0  0  0  0  0  0  0  0  0  0  0
   59.7440   32.5370   51.3240 C   0  0  0  0  0  0  0  0  0  0  0  0
   59.1996   33.0272   52.1446 H   0  0  0  0  0  0  0  0  0  0  0  0
   60.8271   32.7186   51.3864 H   0  0  0  0  0  0  0  0  0  0  0  0
   55.7500   29.8110   53.2150 N   0  0  0  0  0  0  0  0  0  0  0  0
   56.8540   29.1250   53.8980 C   0  0  0  0  0  0  0  0  0  0  0  0
   56.7199   29.2083   54.9866 H   0  0  0  0  0  0  0  0  0  0  0  0
   56.8605   28.0635   53.6095 H   0  0  0  0  0  0  0  0  0  0  0  0
   57.8086   29.5892   53.6095 H   0  0  0  0  0  0  0  0  0  0  0  0
  1  2  1  0
  2  3  1  0
  2  4  2  0
  4  5  1  0
  5  6  2  0
  6  7  1  0
  6  8  1  0
  8  9  1  0
  9 10  1  0
 10 11  2  0
 10 12  1  0
 12 13  1  0
 13 14  1  0
  5 15  1  0
 15 16  1  0
 15 17  2  0
 17 18  1  0
 18 19  1  0
 18 20  1  0
 18 21  1  0
 21 22  2  0
 21 23  1  0
 23 24  1  1
 23 25  1  0
 25 26  1  0
 25 27  1  0
 25 28  1  0
 28 29  2  0
 28 30  1  0
 30 31  1  0
 31 32  1  0
 31 33  1  0
 33 34  1  0
 33 35  1  0
 33 36  1  0
 36 37  1  0
 36 38  1  0
 36 39  1  0
 39 40  1  0
 40 41  1  0
 40 42  1  0
 40 43  1  0
 43 44  1  0
 43 45  1  0
 30 46  1  0
 46 47  1  0
 46 48  1  0
 46 49  1  0
 49 50  1  0
 49 51  1  0
 17 52  1  0
 52 53  1  0
 53 54  1  0
 53 55  1  0
 53 56  1  0
 52  4  1  0
 13  8  2  0
 49 23  1  0
 43 31  1  0
M  CHG  4   9  -1  12  -1  14  -1  23   1
M  END
>  <UniqueID>  (85) 
82

>  <SMILES>  (85) 
C=c1/c(=C/c2[n-]c(=O)[n-]c2[O-])cc(CC(=O)[N@@H+]2CCN(C3CCOCC3)C(=O)C2)n1C

>  <Energy>  (85) 
134.79009796726845

>  <Genealogy>  (85) 
C=c1c(=Cc2[n-]c(=O)[n-]c2[O-])cc(CC(=O)[NH+]2CCN(C3CCOCC3)C(=O)C2)n1C (protonated)
C=c1c(=Cc2[n-]c(=O)[n-]c2[O-])cc(CC(=O)[N@@H+]2CCN(C3CCOCC3)C(=O)C2)n1C (chirality)
C=c1/c(=C/c2[n-]c(=O)[n-]c2[O-])cc(CC(=O)[N@@H+]2CCN(C3CCOCC3)C(=O)C2)n1C (cis-trans isomerization)
C=c1/c(=C/c2[n-]c(=O)[n-]c2[O-])cc(CC(=O)[N@@H+]2CCN(C3CCOCC3)C(=O)C2)n1C (3D coordinates assigned)
C=c1/c(=C/c2[n-]c(=O)[n-]c2[O-])cc(CC(=O)[N@@H+]2CCN(C3CCOCC3)C(=O)C2)n1C (nonaromatic ring conformer: 134.79009796726845 kcal/mol)

>  <smiles>  (85) 
C=c1c(=Cc2[nH]c(=O)[nH]c2O)cc(CC(=O)N2CCN(C3CCOCC3)C(=O)C2)n1C

>  <score_type>  (85) 
oracle

>  <origin>  (85) 
adg

>  <m_score__min__energy>  (85) 
-17.34

>  <m_primary>  (85) 
energy

$$$$
85:0
     RDKit          3D

 70 74  0  0  0  0  0  0  0  0999 V2000
   54.4660   24.7933   45.9578 H   0  0  0  0  0  0  0  0  0  0  0  0
   55.4260   25.3030   45.7890 C   0  0  0  0  0  0  0  0  0  0  0  0
   55.4900   26.6610   45.8290 N   0  0  0  0  0  0  0  0  0  0  0  0
   56.6440   27.3560   45.6680 C   0  0  0  0  0  0  0  0  0  0  0  0
   56.5190   28.6550   45.6110 N   0  0  0  0  0  0  0  0  0  0  0  0
   55.9260   29.6020   44.7070 C   0  0  0  0  0  0  0  0  0  0  0  0
   54.8130   29.3720   44.1560 O   0  0  0  0  0  0  0  0  0  0  0  0
   56.7170   30.7840   44.2830 C   0  0  0  0  0  0  0  0  0  0  0  0
   57.1380   31.7320   45.2430 C   0  0  0  0  0  0  0  0  0  0  0  0
   56.8406   31.6081   46.2947 H   0  0  0  0  0  0  0  0  0  0  0  0
   57.9310   32.8300   44.8720 C   0  0  0  0  0  0  0  0  0  0  0  0
   58.4800   33.7290   45.9130 C   0  0  0  0  0  0  0  0  0  0  0  0
   57.8610   33.9200   46.9940 O   0  0  0  0  0  0  0  0  0  0  0  0
   59.7710   34.3090   45.7350 N   0  0  0  0  0  0  0  0  0  0  0  0
   60.8840   34.0770   46.6180 C   0  0  0  0  0  0  0  0  0  0  0  0
   62.1810   33.8370   46.1200 C   0  0  0  0  0  0  0  0  0  0  0  0
   62.3436   33.7627   45.0346 H   0  0  0  0  0  0  0  0  0  0  0  0
   63.2600   33.6930   46.9930 C   0  0  0  0  0  0  0  0  0  0  0  0
   64.2702   33.5167   46.5950 H   0  0  0  0  0  0  0  0  0  0  0  0
   63.0560   33.7730   48.3760 C   0  0  0  0  0  0  0  0  0  0  0  0
   63.9014   33.6321   49.0655 H   0  0  0  0  0  0  0  0  0  0  0  0
   61.7730   34.0330   48.8830 C   0  0  0  0  0  0  0  0  0  0  0  0
   61.5480   34.0840   50.3640 C   0  0  0  0  0  0  0  0  0  0  0  0
   62.4923   33.8700   50.8859 H   0  0  0  0  0  0  0  0  0  0  0  0
   61.1918   35.0857   50.6465 H   0  0  0  0  0  0  0  0  0  0  0  0
   60.7947   33.3338   50.6465 H   0  0  0  0  0  0  0  0  0  0  0  0
   60.6890   34.1790   48.0000 C   0  0  0  0  0  0  0  0  0  0  0  0
   59.6821   34.3745   48.3975 H   0  0  0  0  0  0  0  0  0  0  0  0
   58.2590   33.0120   43.5230 C   0  0  0  0  0  0  0  0  0  0  0  0
   58.8650   33.8789   43.2207 H   0  0  0  0  0  0  0  0  0  0  0  0
   57.8220   32.1000   42.5570 C   0  0  0  0  0  0  0  0  0  0  0  0
   58.0765   32.2590   41.4987 H   0  0  0  0  0  0  0  0  0  0  0  0
   57.0650   30.9900   42.9300 C   0  0  0  0  0  0  0  0  0  0  0  0
   56.6540   30.1180   41.9690 F   0  0  0  0  0  0  0  0  0  0  0  0
   57.8590   26.6260   45.4630 C   0  0  0  0  0  0  0  0  0  0  0  0
   59.1540   27.2400   45.3970 N   0  0  0  0  0  0  0  0  0  0  0  0
   59.2820   28.5180   44.6940 C   0  0  0  0  0  0  0  0  0  0  0  0
   60.1230   28.4653   43.9869 H   0  0  0  0  0  0  0  0  0  0  0  0
   58.3536   28.7290   44.1430 H   0  0  0  0  0  0  0  0  0  0  0  0
   59.5380   29.6320   45.7090 C   0  0  0  0  0  0  0  0  0  0  0  0
   59.7289   30.5717   45.1701 H   0  0  0  0  0  0  0  0  0  0  0  0
   58.6511   29.7278   46.3527 H   0  0  0  0  0  0  0  0  0  0  0  0
   60.7060   29.3190   46.5630 N   0  0  0  0  0  0  0  0  0  0  0  0
   61.5800   29.1750   45.9850 H   0  0  0  0  0  0  0  0  0  0  0  0
   60.9440   30.4250   47.4790 C   0  0  0  0  0  0  0  0  0  0  0  0
   62.0430   31.0600   47.4300 O   0  0  0  0  0  0  0  0  0  0  0  0
   60.0690   30.6510   48.5870 N   0  0  0  0  0  0  0  0  0  0  0  0
   59.0380   31.7060   48.5210 C   0  0  0  0  0  0  0  0  0  0  0  0
   59.4908   32.6383   48.1524 H   0  0  0  0  0  0  0  0  0  0  0  0
   58.2359   31.3917   47.8370 H   0  0  0  0  0  0  0  0  0  0  0  0
   58.4510   31.9410   49.9260 C   0  0  0  0  0  0  0  0  0  0  0  0
   58.0096   32.9474   49.9738 H   0  0  0  0  0  0  0  0  0  0  0  0
   57.6759   31.1867   50.1268 H   0  0  0  0  0  0  0  0  0  0  0  0
   59.4740   31.8300   50.8970 O   0  0  0  0  0  0  0  0  0  0  0  0
   59.9180   30.4820   51.0310 C   0  0  0  0  0  0  0  0  0  0  0  0
   60.9209   30.4931   51.4827 H   0  0  0  0  0  0  0  0  0  0  0  0
   59.1733   29.9660   51.6548 H   0  0  0  0  0  0  0  0  0  0  0  0
   59.9960   29.7010   49.6980 C   0  0  0  0  0  0  0  0  0  0  0  0
   60.8927   29.0639   49.6968 H   0  0  0  0  0  0  0  0  0  0  0  0
   59.1018   29.0701   49.5865 H   0  0  0  0  0  0  0  0  0  0  0  0
   60.4570   28.0640   47.3260 C   0  0  0  0  0  0  0  0  0  0  0  0
   61.3372   27.8386   47.9460 H   0  0  0  0  0  0  0  0  0  0  0  0
   59.5686   28.2072   47.9586 H   0  0  0  0  0  0  0  0  0  0  0  0
   60.1960   26.8800   46.3680 C   0  0  0  0  0  0  0  0  0  0  0  0
   61.1243   26.6338   45.8317 H   0  0  0  0  0  0  0  0  0  0  0  0
   59.8607   26.0101   46.9518 H   0  0  0  0  0  0  0  0  0  0  0  0
   57.7940   25.2160   45.3790 C   0  0  0  0  0  0  0  0  0  0  0  0
   58.7101   24.6371   45.1901 H   0  0  0  0  0  0  0  0  0  0  0  0
   56.5770   24.5550   45.5340 C   0  0  0  0  0  0  0  0  0  0  0  0
   56.5239   23.4590   45.4565 H   0  0  0  0  0  0  0  0  0  0  0  0
  1  2  1  0
  2  3  1  0
  3  4  1  0
  4  5  2  0
  5  6  1  0
  6  7  2  0
  6  8  1  0
  8  9  2  0
  9 10  1  0
  9 11  1  0
 11 12  1  0
 12 13  2  0
 12 14  1  0
 14 15  1  0
 15 16  2  0
 16 17  1  0
 16 18  1  0
 18 19  1  0
 18 20  2  0
 20 21  1  0
 20 22  1  0
 22 23  1  0
 23 24  1  0
 23 25  1  0
 23 26  1  0
 22 27  2  0
 27 28  1  0
 11 29  2  0
 29 30  1  0
 29 31  1  0
 31 32  1  0
 31 33  2  0
 33 34  1  0
  4 35  1  0
 35 36  1  0
 36 37  1  0
 37 38  1  0
 37 39  1  0
 37 40  1  0
 40 41  1  0
 40 42  1  0
 40 43  1  0
 43 44  1  0
 43 45  1  0
 45 46  2  0
 45 47  1  0
 47 48  1  0
 48 49  1  0
 48 50  1  0
 48 51  1  0
 51 52  1  0
 51 53  1  0
 51 54  1  0
 54 55  1  0
 55 56  1  0
 55 57  1  0
 55 58  1  0
 58 59  1  0
 58 60  1  0
 43 61  1  0
 61 62  1  0
 61 63  1  0
 61 64  1  0
 64 65  1  0
 64 66  1  0
 35 67  2  0
 67 68  1  0
 67 69  1  0
 69 70  1  0
 69  2  2  0
 33  8  1  0
 64 36  1  0
 27 15  1  0
 58 47  1  0
M  CHG  3   3  -1  14  -1  43   1
M  END
>  <UniqueID>  (86) 
83

>  <SMILES>  (86) 
Cc1cccc([N-]C(=O)c2ccc(F)c(C(=O)/N=c3/[n-]cccc3N3CC[NH+](C(=O)N4CCOCC4)CC3)c2)c1

>  <Energy>  (86) 
126.09371201256856

>  <Genealogy>  (86) 
Cc1cccc([N-]C(=O)c2ccc(F)c(C(=O)N=c3[n-]cccc3N3CC[NH+](C(=O)N4CCOCC4)CC3)c2)c1 (protonated)
Cc1cccc([N-]C(=O)c2ccc(F)c(C(=O)/N=c3/[n-]cccc3N3CC[NH+](C(=O)N4CCOCC4)CC3)c2)c1 (cis-trans isomerization)
Cc1cccc([N-]C(=O)c2ccc(F)c(C(=O)/N=c3/[n-]cccc3N3CC[NH+](C(=O)N4CCOCC4)CC3)c2)c1 (3D coordinates assigned)
Cc1cccc([N-]C(=O)c2ccc(F)c(C(=O)/N=c3/[n-]cccc3N3CC[NH+](C(=O)N4CCOCC4)CC3)c2)c1 (nonaromatic ring conformer: 126.09371201256856 kcal/mol)

>  <smiles>  (86) 
Cc1cccc(NC(=O)c2ccc(F)c(C(=O)N=c3[nH]cccc3N3CCN(C(=O)N4CCOCC4)CC3)c2)c1

>  <score_type>  (86) 
oracle

>  <origin>  (86) 
adg

>  <m_score__min__energy>  (86) 
-11.98

>  <m_primary>  (86) 
energy

$$$$
86:0
     RDKit          3D

 51 54  0  0  0  0  0  0  0  0999 V2000
   56.5940   32.5860   52.2910 O   0  0  0  0  0  0  0  0  0  0  0  0
   56.7370   31.4000   51.8900 C   0  0  0  0  0  0  0  0  0  0  0  0
   57.5990   31.1550   50.7730 N   0  0  0  0  0  0  0  0  0  0  0  0
   58.5990   32.0570   50.2800 C   0  0  0  0  0  0  0  0  0  0  0  0
   59.6650   32.4190   51.1110 C   0  0  0  0  0  0  0  0  0  0  0  0
   60.6370   33.3200   50.6610 C   0  0  0  0  0  0  0  0  0  0  0  0
   60.5440   33.8720   49.3800 C   0  0  0  0  0  0  0  0  0  0  0  0
   59.4680   33.5300   48.5500 C   0  0  0  0  0  0  0  0  0  0  0  0
   59.3690   34.0740   47.1880 C   0  0  0  0  0  0  0  0  0  0  0  0
   58.9990   35.2700   47.0480 O   0  0  0  0  0  0  0  0  0  0  0  0
   59.6010   33.2440   46.0260 N   0  0  0  0  0  0  0  0  0  0  0  0
   59.1470   33.6970   44.7080 C   0  0  0  0  0  0  0  0  0  0  0  0
   57.7340   33.1500   44.4620 C   0  0  0  0  0  0  0  0  0  0  0  0
   57.5960   31.6990   44.8700 C   0  0  0  0  0  0  0  0  0  0  0  0
   56.4470   30.9900   44.4810 C   0  0  0  0  0  0  0  0  0  0  0  0
   56.2570   29.6670   44.8890 C   0  0  0  0  0  0  0  0  0  0  0  0
   55.1160   28.9750   44.4950 O   0  0  0  0  0  0  0  0  0  0  0  0
   57.2140   29.0380   45.6910 C   0  0  0  0  0  0  0  0  0  0  0  0
   58.3590   29.7310   46.0920 C   0  0  0  0  0  0  0  0  0  0  0  0
   58.5490   31.0680   45.7080 C   0  0  0  0  0  0  0  0  0  0  0  0
   59.8000   31.7930   46.1370 C   0  0  0  0  0  0  0  0  0  0  0  0
   58.4850   32.6440   49.0100 C   0  0  0  0  0  0  0  0  0  0  0  0
   56.1350   30.2650   52.6820 C   0  0  2  0  0  0  0  0  0  0  0  0
   56.5860   29.0330   52.1750 O   0  0  0  0  0  0  0  0  0  0  0  0
   54.6270   30.3470   52.6030 C   0  0  0  0  0  0  0  0  0  0  0  0
   53.8200   29.5400   53.4250 C   0  0  0  0  0  0  0  0  0  0  0  0
   52.4240   29.6010   53.3250 C   0  0  0  0  0  0  0  0  0  0  0  0
   51.8250   30.4720   52.4150 C   0  0  0  0  0  0  0  0  0  0  0  0
   52.6160   31.2730   51.5850 C   0  0  0  0  0  0  0  0  0  0  0  0
   52.0050   32.1360   50.6780 O   0  0  0  0  0  0  0  0  0  0  0  0
   54.0130   31.2020   51.6670 C   0  0  0  0  0  0  0  0  0  0  0  0
   59.7395   31.9935   52.1226 H   0  0  0  0  0  0  0  0  0  0  0  0
   61.4762   33.5945   51.3170 H   0  0  0  0  0  0  0  0  0  0  0  0
   61.3135   34.5730   49.0245 H   0  0  0  0  0  0  0  0  0  0  0  0
   59.1288   34.7965   44.6801 H   0  0  0  0  0  0  0  0  0  0  0  0
   59.8322   33.3320   43.9287 H   0  0  0  0  0  0  0  0  0  0  0  0
   57.0174   33.7496   45.0426 H   0  0  0  0  0  0  0  0  0  0  0  0
   57.5334   33.2146   43.3824 H   0  0  0  0  0  0  0  0  0  0  0  0
   55.6909   31.4803   43.8502 H   0  0  0  0  0  0  0  0  0  0  0  0
   57.0651   27.9950   46.0071 H   0  0  0  0  0  0  0  0  0  0  0  0
   59.1152   29.2267   46.7115 H   0  0  0  0  0  0  0  0  0  0  0  0
   60.0306   31.5355   47.1813 H   0  0  0  0  0  0  0  0  0  0  0  0
   60.6340   31.4914   45.4863 H   0  0  0  0  0  0  0  0  0  0  0  0
   57.6200   32.4073   48.3731 H   0  0  0  0  0  0  0  0  0  0  0  0
   56.4466   30.3432   53.7340 H   0  0  0  0  0  0  0  0  0  0  0  0
   57.0060   29.2240   51.2930 H   0  0  0  0  0  0  0  0  0  0  0  0
   54.2874   28.8575   54.1501 H   0  0  0  0  0  0  0  0  0  0  0  0
   51.7992   28.9609   53.9652 H   0  0  0  0  0  0  0  0  0  0  0  0
   50.7284   30.5290   52.3500 H   0  0  0  0  0  0  0  0  0  0  0  0
   52.4450   32.3760   49.7960 H   0  0  0  0  0  0  0  0  0  0  0  0
   54.6328   31.8166   50.9976 H   0  0  0  0  0  0  0  0  0  0  0  0
  1  2  2  0
  2  3  1  0
  3  4  1  0
  4  5  2  0
  5  6  1  0
  6  7  2  0
  7  8  1  0
  8  9  1  0
  9 10  2  0
  9 11  1  0
 11 12  1  0
 12 13  1  0
 13 14  1  0
 14 15  2  0
 15 16  1  0
 16 17  1  0
 16 18  2  0
 18 19  1  0
 19 20  2  0
 20 21  1  0
  8 22  2  0
  2 23  1  0
 23 24  1  0
 23 25  1  0
 25 26  2  0
 26 27  1  0
 27 28  2  0
 28 29  1  0
 29 30  1  0
 29 31  2  0
 22  4  1  0
 31 25  1  0
 21 11  1  0
 20 14  1  0
  5 32  1  0
  6 33  1  0
  7 34  1  0
 12 35  1  0
 12 36  1  0
 13 37  1  0
 13 38  1  0
 15 39  1  0
 18 40  1  0
 19 41  1  0
 21 42  1  0
 21 43  1  0
 22 44  1  0
 23 45  1  1
 24 46  1  0
 26 47  1  0
 27 48  1  0
 28 49  1  0
 30 50  1  0
 31 51  1  0
M  CHG  2   3  -1  17  -1
M  END
>  <UniqueID>  (87) 
84

>  <SMILES>  (87) 
O=C([N-]c1cccc(C(=O)N2CCc3cc([O-])ccc3C2)c1)[C@H](O)c1cccc(O)c1

>  <Energy>  (87) 
67.18928439234249

>  <Genealogy>  (87) 
O=C([N-]c1cccc(C(=O)N2CCc3cc([O-])ccc3C2)c1)C(O)c1cccc(O)c1 (protonated)
O=C([N-]c1cccc(C(=O)N2CCc3cc([O-])ccc3C2)c1)[C@H](O)c1cccc(O)c1 (chirality)
O=C([N-]c1cccc(C(=O)N2CCc3cc([O-])ccc3C2)c1)[C@H](O)c1cccc(O)c1 (3D coordinates assigned)
O=C([N-]c1cccc(C(=O)N2CCc3cc([O-])ccc3C2)c1)[C@H](O)c1cccc(O)c1 (nonaromatic ring conformer: 67.18928439234249 kcal/mol)

>  <smiles>  (87) 
O=C(Nc1cccc(C(=O)N2CCc3cc(O)ccc3C2)c1)C(O)c1cccc(O)c1

>  <score_type>  (87) 
oracle

>  <origin>  (87) 
adg

>  <m_score__min__energy>  (87) 
-13.73

>  <m_primary>  (87) 
energy

$$$$
87:0
     RDKit          3D

 46 49  0  0  0  0  0  0  0  0999 V2000
   57.7039   34.3409   45.3166 H   0  0  0  0  0  0  0  0  0  0  0  0
   57.0620   33.5550   44.8920 C   0  0  0  0  0  0  0  0  0  0  0  0
   56.2160   33.8266   44.2436 H   0  0  0  0  0  0  0  0  0  0  0  0
   57.3100   32.2700   45.1640 C   0  0  0  0  0  0  0  0  0  0  0  0
   56.5400   31.2790   44.6580 N   0  0  0  0  0  0  0  0  0  0  0  0
   57.0910   30.1410   45.1220 C   0  0  0  0  0  0  0  0  0  0  0  0
   56.6010   28.9240   44.8340 C   0  0  0  0  0  0  0  0  0  0  0  0
   55.8428   28.8425   44.0412 H   0  0  0  0  0  0  0  0  0  0  0  0
   57.0240   27.6940   45.5220 C   0  0  0  0  0  0  0  0  0  0  0  0
   58.3140   27.3430   45.7080 N   0  0  0  0  0  0  0  0  0  0  0  0
   58.2280   26.1190   46.2780 C   0  0  0  0  0  0  0  0  0  0  0  0
   59.2410   25.4300   46.5690 O   0  0  0  0  0  0  0  0  0  0  0  0
   56.9590   25.6980   46.4790 N   0  0  0  0  0  0  0  0  0  0  0  0
   56.5030   24.3670   46.8750 C   0  0  0  0  0  0  0  0  0  0  0  0
   57.1649   23.9713   47.6594 H   0  0  0  0  0  0  0  0  0  0  0  0
   55.4747   24.4320   47.2601 H   0  0  0  0  0  0  0  0  0  0  0  0
   56.5340   23.4490   45.6830 C   0  0  0  0  0  0  0  0  0  0  0  0
   55.8480   23.7890   44.5050 C   0  0  0  0  0  0  0  0  0  0  0  0
   55.2242   24.6946   44.4763 H   0  0  0  0  0  0  0  0  0  0  0  0
   55.9550   22.9810   43.3690 C   0  0  0  0  0  0  0  0  0  0  0  0
   55.4117   23.2495   42.4510 H   0  0  0  0  0  0  0  0  0  0  0  0
   56.7510   21.8330   43.3980 C   0  0  0  0  0  0  0  0  0  0  0  0
   56.8600   21.0560   42.2920 F   0  0  0  0  0  0  0  0  0  0  0  0
   57.4410   21.4900   44.5640 C   0  0  0  0  0  0  0  0  0  0  0  0
   58.0655   20.5848   44.5869 H   0  0  0  0  0  0  0  0  0  0  0  0
   57.3380   22.2970   45.7020 C   0  0  0  0  0  0  0  0  0  0  0  0
   57.8888   22.0285   46.6155 H   0  0  0  0  0  0  0  0  0  0  0  0
   56.2020   26.7010   46.0060 C   0  0  0  0  0  0  0  0  0  0  0  0
   54.8120   26.7030   45.9960 O   0  0  0  0  0  0  0  0  0  0  0  0
   58.1730   30.4710   45.9200 C   0  0  0  0  0  0  0  0  0  0  0  0
   58.8970   29.6670   46.5660 O   0  0  0  0  0  0  0  0  0  0  0  0
   58.3240   31.8110   45.9490 N   0  0  0  0  0  0  0  0  0  0  0  0
   59.3780   32.5640   46.6630 C   0  0  0  0  0  0  0  0  0  0  0  0
   60.1291   31.8160   46.9569 H   0  0  0  0  0  0  0  0  0  0  0  0
   60.0160   33.6420   45.7710 C   0  0  0  0  0  0  0  0  0  0  0  0
   61.1036   33.4891   45.7095 H   0  0  0  0  0  0  0  0  0  0  0  0
   59.6157   33.5984   44.7473 H   0  0  0  0  0  0  0  0  0  0  0  0
   59.7100   34.9820   46.4240 C   0  0  0  0  0  0  0  0  0  0  0  0
   60.5732   35.6579   46.3345 H   0  0  0  0  0  0  0  0  0  0  0  0
   58.8564   35.4818   45.9427 H   0  0  0  0  0  0  0  0  0  0  0  0
   59.4280   34.6750   47.8830 C   0  0  0  0  0  0  0  0  0  0  0  0
   60.3607   34.6885   48.4660 H   0  0  0  0  0  0  0  0  0  0  0  0
   58.7571   35.4205   48.3347 H   0  0  0  0  0  0  0  0  0  0  0  0
   58.8150   33.2850   47.8940 C   0  0  0  0  0  0  0  0  0  0  0  0
   59.0977   32.7500   48.8126 H   0  0  0  0  0  0  0  0  0  0  0  0
   57.7162   33.3294   47.8670 H   0  0  0  0  0  0  0  0  0  0  0  0
  1  2  1  0
  2  3  1  0
  2  4  2  0
  4  5  1  0
  5  6  1  0
  6  7  2  0
  7  8  1  0
  7  9  1  0
  9 10  1  0
 10 11  1  0
 11 12  2  0
 11 13  1  0
 13 14  1  0
 14 15  1  0
 14 16  1  0
 14 17  1  0
 17 18  2  0
 18 19  1  0
 18 20  1  0
 20 21  1  0
 20 22  2  0
 22 23  1  0
 22 24  1  0
 24 25  1  0
 24 26  2  0
 26 27  1  0
 13 28  1  0
 28 29  1  0
  6 30  1  0
 30 31  2  0
 30 32  1  0
 32 33  1  0
 33 34  1  0
 33 35  1  0
 35 36  1  0
 35 37  1  0
 35 38  1  0
 38 39  1  0
 38 40  1  0
 38 41  1  0
 41 42  1  0
 41 43  1  0
 41 44  1  0
 44 45  1  0
 44 46  1  0
 32  4  1  0
 44 33  1  0
 28  9  2  0
 26 17  1  0
M  CHG  3   5  -1  10  -1  29  -1
M  END
>  <UniqueID>  (88) 
85

>  <SMILES>  (88) 
C=c1[n-]/c(=C/c2[n-]c(=O)n(Cc3ccc(F)cc3)c2[O-])c(=O)n1C1CCCC1

>  <Energy>  (88) 
121.48875677399204

>  <Genealogy>  (88) 
C=c1[n-]c(=Cc2[n-]c(=O)n(Cc3ccc(F)cc3)c2[O-])c(=O)n1C1CCCC1 (protonated)
C=c1[n-]/c(=C/c2[n-]c(=O)n(Cc3ccc(F)cc3)c2[O-])c(=O)n1C1CCCC1 (cis-trans isomerization)
C=c1[n-]/c(=C/c2[n-]c(=O)n(Cc3ccc(F)cc3)c2[O-])c(=O)n1C1CCCC1 (3D coordinates assigned)
C=c1[n-]/c(=C/c2[n-]c(=O)n(Cc3ccc(F)cc3)c2[O-])c(=O)n1C1CCCC1 (nonaromatic ring conformer: 121.48875677399204 kcal/mol)

>  <smiles>  (88) 
C=c1[nH]c(=Cc2[nH]c(=O)n(Cc3ccc(F)cc3)c2O)c(=O)n1C1CCCC1

>  <score_type>  (88) 
oracle

>  <origin>  (88) 
adg

>  <m_score__min__energy>  (88) 
-15.4

>  <m_primary>  (88) 
energy

$$$$
88:0
     RDKit          3D

 50 53  0  0  0  0  0  0  0  0999 V2000
   58.2100   29.9090   50.3590 O   0  0  0  0  0  0  0  0  0  0  0  0
   58.8090   30.7450   49.6300 C   0  0  0  0  0  0  0  0  0  0  0  0
   58.6400   32.2100   49.9050 C   0  0  0  0  0  0  0  0  0  0  0  0
   59.2830   33.0120   48.8640 N   0  0  0  0  0  0  0  0  0  0  0  0
   60.6580   33.5060   48.9250 C   0  0  0  0  0  0  0  0  0  0  0  0
   60.9130   34.2220   47.5750 C   0  0  0  0  0  0  0  0  0  0  0  0
   59.6150   34.0820   46.8560 C   0  0  0  0  0  0  0  0  0  0  0  0
   59.2850   34.5370   45.5790 C   0  0  0  0  0  0  0  0  0  0  0  0
   57.9940   34.2750   45.0890 C   0  0  0  0  0  0  0  0  0  0  0  0
   57.0630   33.5740   45.8800 C   0  0  0  0  0  0  0  0  0  0  0  0
   57.4200   33.1280   47.1630 C   0  0  0  0  0  0  0  0  0  0  0  0
   58.7140   33.3950   47.6220 C   0  0  0  0  0  0  0  0  0  0  0  0
   59.6950   30.2970   48.5920 N   0  0  0  0  0  0  0  0  0  0  0  0
   59.6010   29.0030   47.9650 C   0  0  0  0  0  0  0  0  0  0  0  0
   59.6460   27.8280   48.7400 C   0  0  0  0  0  0  0  0  0  0  0  0
   59.5380   26.5740   48.1330 C   0  0  0  0  0  0  0  0  0  0  0  0
   59.3740   26.4760   46.7490 C   0  0  0  0  0  0  0  0  0  0  0  0
   59.2430   24.8990   45.9920 Cl  0  0  0  0  0  0  0  0  0  0  0  0
   59.3100   27.6330   45.9700 C   0  0  0  0  0  0  0  0  0  0  0  0
   59.4120   28.8970   46.5700 C   0  0  0  0  0  0  0  0  0  0  0  0
   59.3520   30.0950   45.7150 C   0  0  0  0  0  0  0  0  0  0  0  0
   60.1350   31.0500   45.9680 O   0  0  0  0  0  0  0  0  0  0  0  0
   58.4180   30.1910   44.6170 N   0  0  0  0  0  0  0  0  0  0  0  0
   58.4350   31.3820   43.7590 C   0  0  0  0  0  0  0  0  0  0  0  0
   57.0700   31.5750   43.0910 C   0  0  0  0  0  0  0  0  0  0  0  0
   56.6520   30.3890   42.4470 O   0  0  0  0  0  0  0  0  0  0  0  0
   56.4300   29.3800   43.4120 C   0  0  0  0  0  0  0  0  0  0  0  0
   57.7390   28.9920   44.1050 C   0  0  0  0  0  0  0  0  0  0  0  0
   57.5669   32.4500   49.9338 H   0  0  0  0  0  0  0  0  0  0  0  0
   59.1109   32.4438   50.8712 H   0  0  0  0  0  0  0  0  0  0  0  0
   60.7740   34.2122   49.7604 H   0  0  0  0  0  0  0  0  0  0  0  0
   61.3741   32.6873   49.0892 H   0  0  0  0  0  0  0  0  0  0  0  0
   61.1626   35.2816   47.7330 H   0  0  0  0  0  0  0  0  0  0  0  0
   61.7598   33.7956   47.0172 H   0  0  0  0  0  0  0  0  0  0  0  0
   60.0175   35.0875   44.9704 H   0  0  0  0  0  0  0  0  0  0  0  0
   57.7095   34.6188   44.0836 H   0  0  0  0  0  0  0  0  0  0  0  0
   56.0532   33.3752   45.4917 H   0  0  0  0  0  0  0  0  0  0  0  0
   56.7002   32.5825   47.7910 H   0  0  0  0  0  0  0  0  0  0  0  0
   60.4400   30.9550   48.2750 H   0  0  0  0  0  0  0  0  0  0  0  0
   59.7670   27.8979   49.8311 H   0  0  0  0  0  0  0  0  0  0  0  0
   59.5822   25.6619   48.7463 H   0  0  0  0  0  0  0  0  0  0  0  0
   59.1790   27.5530   44.8808 H   0  0  0  0  0  0  0  0  0  0  0  0
   58.6683   32.2663   44.3702 H   0  0  0  0  0  0  0  0  0  0  0  0
   59.1998   31.2507   42.9793 H   0  0  0  0  0  0  0  0  0  0  0  0
   56.3296   31.8491   43.8570 H   0  0  0  0  0  0  0  0  0  0  0  0
   57.1566   32.3722   42.3380 H   0  0  0  0  0  0  0  0  0  0  0  0
   55.7197   29.7516   44.1652 H   0  0  0  0  0  0  0  0  0  0  0  0
   56.0226   28.4922   42.9061 H   0  0  0  0  0  0  0  0  0  0  0  0
   57.5193   28.3135   44.9425 H   0  0  0  0  0  0  0  0  0  0  0  0
   58.3951   28.4914   43.3777 H   0  0  0  0  0  0  0  0  0  0  0  0
  1  2  2  0
  2  3  1  0
  3  4  1  0
  4  5  1  0
  5  6  1  0
  6  7  1  0
  7  8  2  0
  8  9  1  0
  9 10  2  0
 10 11  1  0
 11 12  2  0
  2 13  1  0
 13 14  1  0
 14 15  2  0
 15 16  1  0
 16 17  2  0
 17 18  1  0
 17 19  1  0
 19 20  2  0
 20 21  1  0
 21 22  2  0
 21 23  1  0
 23 24  1  0
 24 25  1  0
 25 26  1  0
 26 27  1  0
 27 28  1  0
 12  4  1  0
 20 14  1  0
 28 23  1  0
 12  7  1  0
  3 29  1  0
  3 30  1  0
  5 31  1  0
  5 32  1  0
  6 33  1  0
  6 34  1  0
  8 35  1  0
  9 36  1  0
 10 37  1  0
 11 38  1  0
 13 39  1  0
 15 40  1  0
 16 41  1  0
 19 42  1  0
 24 43  1  0
 24 44  1  0
 25 45  1  0
 25 46  1  0
 27 47  1  0
 27 48  1  0
 28 49  1  0
 28 50  1  0
M  END
>  <UniqueID>  (89) 
86

>  <SMILES>  (89) 
O=C(CN1CCc2ccccc21)Nc1ccc(Cl)cc1C(=O)N1CCOCC1

>  <Energy>  (89) 
76.1961074185976

>  <Genealogy>  (89) 
O=C(CN1CCc2ccccc21)Nc1ccc(Cl)cc1C(=O)N1CCOCC1 (3D coordinates assigned)
O=C(CN1CCc2ccccc21)Nc1ccc(Cl)cc1C(=O)N1CCOCC1 (nonaromatic ring conformer: 76.1961074185976 kcal/mol)

>  <smiles>  (89) 
O=C(CN1CCc2ccccc21)Nc1ccc(Cl)cc1C(=O)N1CCOCC1

>  <score_type>  (89) 
oracle

>  <origin>  (89) 
adg

>  <m_score__min__energy>  (89) 
-8.7799999999999994

>  <m_primary>  (89) 
energy

$$$$
