0:0
     RDKit          3D

 63 66  0  0  0  0  0  0  0  0999 V2000
   58.0520   19.9730   46.7990 C   0  0  0  0  0  0  0  0  0  0  0  0
   57.5690   21.2110   46.1720 N   0  0  0  0  0  0  0  0  0  0  0  0
   58.6490   21.8670   45.4100 C   0  0  0  0  0  0  0  0  0  0  0  0
   58.1180   22.9700   44.4670 C   0  0  0  0  0  0  0  0  0  0  0  0
   56.7310   23.3800   44.7600 N   0  0  0  0  0  0  0  0  0  0  0  0
   56.6250   24.5240   46.0830 S   0  0  0  0  0  0  0  0  0  0  0  0
   55.1750   24.8120   46.3610 O   0  0  0  0  0  0  0  0  0  0  0  0
   57.2140   23.9120   47.3240 O   0  0  0  0  0  0  0  0  0  0  0  0
   57.4610   26.0430   45.7510 C   0  0  0  0  0  0  0  0  0  0  0  0
   57.7950   26.3930   44.4350 C   0  0  0  0  0  0  0  0  0  0  0  0
   58.4650   27.5920   44.1740 C   0  0  0  0  0  0  0  0  0  0  0  0
   58.8340   28.4410   45.2280 C   0  0  0  0  0  0  0  0  0  0  0  0
   59.5600   29.7300   44.9540 C   0  0  0  0  0  0  0  0  0  0  0  0
   58.6400   30.8610   45.0820 N   0  0  0  0  0  0  0  0  0  0  0  0
   59.1020   32.1050   45.6280 C   0  0  0  0  0  0  0  0  0  0  0  0
   58.4950   33.3090   45.2500 C   0  0  0  0  0  0  0  0  0  0  0  0
   58.9450   34.5170   45.7820 C   0  0  0  0  0  0  0  0  0  0  0  0
   60.0090   34.5340   46.6870 C   0  0  0  0  0  0  0  0  0  0  0  0
   60.6360   33.3340   47.0720 C   0  0  0  0  0  0  0  0  0  0  0  0
   61.7860   33.3570   48.0130 C   0  0  0  0  0  0  0  0  0  0  0  0
   63.0640   32.9540   47.5860 C   0  0  0  0  0  0  0  0  0  0  0  0
   64.1370   33.0070   48.4770 C   0  0  0  0  0  0  0  0  0  0  0  0
   63.9370   33.4590   49.7790 C   0  0  0  0  0  0  0  0  0  0  0  0
   62.6590   33.8540   50.1760 C   0  0  0  0  0  0  0  0  0  0  0  0
   61.6190   33.7970   49.2990 N   0  0  0  0  0  0  0  0  0  0  0  0
   60.1670   32.1200   46.5400 C   0  0  0  0  0  0  0  0  0  0  0  0
   56.9850   30.7310   44.5620 S   0  0  0  0  0  0  0  0  0  0  0  0
   56.9440   30.4920   42.7990 C   0  0  0  0  0  0  0  0  0  0  0  0
   56.2360   31.9830   44.9220 O   0  0  0  0  0  0  0  0  0  0  0  0
   56.3200   29.5560   45.2220 O   0  0  0  0  0  0  0  0  0  0  0  0
   58.4920   28.0920   46.5440 C   0  0  0  0  0  0  0  0  0  0  0  0
   57.8100   26.9010   46.8040 C   0  0  0  0  0  0  0  0  0  0  0  0
   55.7700   22.2590   44.8730 C   0  0  0  0  0  0  0  0  0  0  0  0
   56.4220   20.9350   45.2980 C   0  0  0  0  0  0  0  0  0  0  0  0
   58.0117   20.0763   47.8934 H   0  0  0  0  0  0  0  0  0  0  0  0
   57.4162   19.1315   46.4865 H   0  0  0  0  0  0  0  0  0  0  0  0
   59.0897   19.7844   46.4865 H   0  0  0  0  0  0  0  0  0  0  0  0
   59.3574   22.3196   46.1195 H   0  0  0  0  0  0  0  0  0  0  0  0
   59.1352   21.1001   44.7891 H   0  0  0  0  0  0  0  0  0  0  0  0
   58.7688   23.8517   44.5620 H   0  0  0  0  0  0  0  0  0  0  0  0
   58.1233   22.5541   43.4487 H   0  0  0  0  0  0  0  0  0  0  0  0
   57.5290   25.7219   43.6050 H   0  0  0  0  0  0  0  0  0  0  0  0
   58.7040   27.8710   43.1371 H   0  0  0  0  0  0  0  0  0  0  0  0
   60.3817   29.8456   45.6761 H   0  0  0  0  0  0  0  0  0  0  0  0
   59.9625   29.7066   43.9305 H   0  0  0  0  0  0  0  0  0  0  0  0
   57.6616   33.3019   44.5321 H   0  0  0  0  0  0  0  0  0  0  0  0
   58.4604   35.4597   45.4880 H   0  0  0  0  0  0  0  0  0  0  0  0
   60.3590   35.4910   47.1013 H   0  0  0  0  0  0  0  0  0  0  0  0
   63.2170   32.5992   46.5561 H   0  0  0  0  0  0  0  0  0  0  0  0
   65.1394   32.6922   48.1512 H   0  0  0  0  0  0  0  0  0  0  0  0
   64.7777   33.5041   50.4870 H   0  0  0  0  0  0  0  0  0  0  0  0
   62.4909   34.2131   51.2021 H   0  0  0  0  0  0  0  0  0  0  0  0
   60.6730   34.0780   49.6410 H   0  0  0  0  0  0  0  0  0  0  0  0
   60.6397   31.1737   46.8419 H   0  0  0  0  0  0  0  0  0  0  0  0
   56.7618   29.4301   42.5771 H   0  0  0  0  0  0  0  0  0  0  0  0
   56.1372   31.1009   42.3651 H   0  0  0  0  0  0  0  0  0  0  0  0
   57.9076   30.7972   42.3651 H   0  0  0  0  0  0  0  0  0  0  0  0
   58.7625   28.7600   47.3750 H   0  0  0  0  0  0  0  0  0  0  0  0
   57.5458   26.6352   47.8382 H   0  0  0  0  0  0  0  0  0  0  0  0
   55.0079   22.5274   45.6194 H   0  0  0  0  0  0  0  0  0  0  0  0
   55.3374   22.1011   43.8740 H   0  0  0  0  0  0  0  0  0  0  0  0
   55.6870   20.3222   45.8405 H   0  0  0  0  0  0  0  0  0  0  0  0
   56.7648   20.3924   44.4046 H   0  0  0  0  0  0  0  0  0  0  0  0
  1  2  1  0
  2  3  1  0
  3  4  1  0
  4  5  1  0
  5  6  1  0
  6  7  2  0
  6  8  2  0
  6  9  1  0
  9 10  2  0
 10 11  1  0
 11 12  2  0
 12 13  1  0
 13 14  1  0
 14 15  1  0
 15 16  2  0
 16 17  1  0
 17 18  2  0
 18 19  1  0
 19 20  1  0
 20 21  2  0
 21 22  1  0
 22 23  2  0
 23 24  1  0
 24 25  2  0
 19 26  2  0
 14 27  1  0
 27 28  1  0
 27 29  2  0
 27 30  2  0
 12 31  1  0
 31 32  2  0
  5 33  1  0
 33 34  1  0
 34  2  1  0
 32  9  1  0
 26 15  1  0
 25 20  1  0
  1 35  1  0
  1 36  1  0
  1 37  1  0
  3 38  1  0
  3 39  1  0
  4 40  1  0
  4 41  1  0
 10 42  1  0
 11 43  1  0
 13 44  1  0
 13 45  1  0
 16 46  1  0
 17 47  1  0
 18 48  1  0
 21 49  1  0
 22 50  1  0
 23 51  1  0
 24 52  1  0
 25 53  1  0
 26 54  1  0
 28 55  1  0
 28 56  1  0
 28 57  1  0
 31 58  1  0
 32 59  1  0
 33 60  1  0
 33 61  1  0
 34 62  1  0
 34 63  1  0
M  CHG  1  25   1
M  END
>  <UniqueID>  (1) 
1

>  <SMILES>  (1) 
CN1CCN(S(=O)(=O)c2ccc(CN(c3cccc(-c4cccc[nH+]4)c3)S(C)(=O)=O)cc2)CC1

>  <Energy>  (1) 
78.55698175058275

>  <Genealogy>  (1) 
CN1CCN(S(=O)(=O)c2ccc(CN(c3cccc(-c4cccc[nH+]4)c3)S(C)(=O)=O)cc2)CC1 (protonated)
CN1CCN(S(=O)(=O)c2ccc(CN(c3cccc(-c4cccc[nH+]4)c3)S(C)(=O)=O)cc2)CC1 (3D coordinates assigned)
CN1CCN(S(=O)(=O)c2ccc(CN(c3cccc(-c4cccc[nH+]4)c3)S(C)(=O)=O)cc2)CC1 (nonaromatic ring conformer: 78.55698175058275 kcal/mol)

>  <smiles>  (1) 
CN1CCN(S(=O)(=O)c2ccc(CN(c3cccc(-c4ccccn4)c3)S(C)(=O)=O)cc2)CC1

>  <score_type>  (1) 
oracle

>  <origin>  (1) 
adg

>  <m_score__min__energy>  (1) 
-9.5800000000000001

>  <m_primary>  (1) 
energy

$$$$
1:0
     RDKit          3D

 52 55  0  0  0  0  0  0  0  0999 V2000
   52.7529   28.5352   53.1258 H   0  0  0  0  0  0  0  0  0  0  0  0
   53.8370   28.3500   53.1060 C   0  0  0  0  0  0  0  0  0  0  0  0
   54.2288   27.3506   53.3464 H   0  0  0  0  0  0  0  0  0  0  0  0
   54.6780   29.3390   52.7900 C   0  0  0  0  0  0  0  0  0  0  0  0
   54.3700   30.6230   52.3160 C   0  0  0  0  0  0  0  0  0  0  0  0
   53.1960   31.2750   52.2270 C   0  0  0  0  0  0  0  0  0  0  0  0
   52.8411   31.7961   53.1284 H   0  0  0  0  0  0  0  0  0  0  0  0
   52.3460   31.3510   51.0280 C   0  0  0  0  0  0  0  0  0  0  0  0
   52.3120   30.4240   50.0520 N   0  0  0  0  0  0  0  0  0  0  0  0
   51.3050   30.8460   49.2570 C   0  0  0  0  0  0  0  0  0  0  0  0
   50.9700   30.2390   48.2080 O   0  0  0  0  0  0  0  0  0  0  0  0
   50.6780   31.9650   49.6820 N   0  0  0  0  0  0  0  0  0  0  0  0
   51.3410   32.2610   50.8110 C   0  0  0  0  0  0  0  0  0  0  0  0
   51.0290   33.3380   51.6300 O   0  0  0  0  0  0  0  0  0  0  0  0
   55.5760   31.1840   51.9240 C   0  0  0  0  0  0  0  0  0  0  0  0
   55.7222   32.1756   51.4708 H   0  0  0  0  0  0  0  0  0  0  0  0
   56.5590   30.2560   52.2130 C   0  0  0  0  0  0  0  0  0  0  0  0
   58.0060   30.4140   51.9730 C   0  0  0  0  0  0  0  0  0  0  0  0
   58.5320   29.7530   51.0370 O   0  0  0  0  0  0  0  0  0  0  0  0
   58.8190   31.3220   52.7530 N   0  0  0  0  0  0  0  0  0  0  0  0
   58.2680   32.6040   53.2280 C   0  0  0  0  0  0  0  0  0  0  0  0
   57.2489   32.7265   52.8325 H   0  0  0  0  0  0  0  0  0  0  0  0
   58.2550   32.5947   54.3279 H   0  0  0  0  0  0  0  0  0  0  0  0
   59.1380   33.7860   52.7560 C   0  0  0  0  0  0  0  0  0  0  0  0
   58.4916   34.6565   52.5705 H   0  0  0  0  0  0  0  0  0  0  0  0
   59.8753   34.0127   53.5402 H   0  0  0  0  0  0  0  0  0  0  0  0
   59.8970   33.4330   51.4540 C   0  0  0  0  0  0  0  0  0  0  0  0
   60.4413   34.3175   51.0915 H   0  0  0  0  0  0  0  0  0  0  0  0
   58.9540   33.0150   50.3950 N   0  0  0  0  0  0  0  0  0  0  0  0
   58.9520   31.9710   50.3160 H   0  0  0  0  0  0  0  0  0  0  0  0
   59.2870   33.5480   49.0670 C   0  0  0  0  0  0  0  0  0  0  0  0
   58.7741   34.5088   48.9130 H   0  0  0  0  0  0  0  0  0  0  0  0
   60.3721   33.7092   48.9856 H   0  0  0  0  0  0  0  0  0  0  0  0
   58.8330   32.5590   48.0320 C   0  0  0  0  0  0  0  0  0  0  0  0
   59.1800   31.2030   48.1510 C   0  0  0  0  0  0  0  0  0  0  0  0
   59.7288   30.8541   49.0382 H   0  0  0  0  0  0  0  0  0  0  0  0
   58.8310   30.2950   47.1470 C   0  0  0  0  0  0  0  0  0  0  0  0
   59.1018   29.2337   47.2481 H   0  0  0  0  0  0  0  0  0  0  0  0
   58.1380   30.7340   46.0140 C   0  0  0  0  0  0  0  0  0  0  0  0
   57.6900   29.5920   44.7610 Cl  0  0  0  0  0  0  0  0  0  0  0  0
   57.8030   32.0860   45.8820 C   0  0  0  0  0  0  0  0  0  0  0  0
   57.2613   32.4330   44.9898 H   0  0  0  0  0  0  0  0  0  0  0  0
   58.1560   32.9970   46.8830 C   0  0  0  0  0  0  0  0  0  0  0  0
   57.9020   34.0612   46.7693 H   0  0  0  0  0  0  0  0  0  0  0  0
   60.8870   32.2760   51.7690 C   0  0  0  0  0  0  0  0  0  0  0  0
   61.1704   31.7895   50.8240 H   0  0  0  0  0  0  0  0  0  0  0  0
   61.7565   32.7153   52.2800 H   0  0  0  0  0  0  0  0  0  0  0  0
   60.2840   31.2080   52.7130 C   0  0  0  0  0  0  0  0  0  0  0  0
   60.5591   30.2070   52.3492 H   0  0  0  0  0  0  0  0  0  0  0  0
   60.6802   31.3660   53.7269 H   0  0  0  0  0  0  0  0  0  0  0  0
   56.0130   29.1510   52.7550 N   0  0  0  0  0  0  0  0  0  0  0  0
   56.5260   28.2790   53.0210 H   0  0  0  0  0  0  0  0  0  0  0  0
  1  2  1  0
  2  3  1  0
  2  4  2  0
  4  5  1  0
  5  6  2  0
  6  7  1  0
  6  8  1  0
  8  9  1  0
  9 10  1  0
 10 11  2  0
 10 12  1  0
 12 13  1  0
 13 14  1  0
  5 15  1  0
 15 16  1  0
 15 17  2  0
 17 18  1  0
 18 19  2  0
 18 20  1  0
 20 21  1  0
 21 22  1  0
 21 23  1  0
 21 24  1  0
 24 25  1  0
 24 26  1  0
 24 27  1  0
 27 28  1  0
 27 29  1  0
 29 30  1  0
 29 31  1  0
 31 32  1  0
 31 33  1  0
 31 34  1  0
 34 35  2  0
 35 36  1  0
 35 37  1  0
 37 38  1  0
 37 39  2  0
 39 40  1  0
 39 41  1  0
 41 42  1  0
 41 43  2  0
 43 44  1  0
 27 45  1  0
 45 46  1  0
 45 47  1  0
 45 48  1  0
 48 49  1  0
 48 50  1  0
 17 51  1  0
 51 52  1  0
 51  4  1  0
 13  8  2  0
 48 20  1  0
 43 34  1  0
M  CHG  3   9  -1  12  -1  14  -1
M  END
>  <UniqueID>  (2) 
2

>  <SMILES>  (2) 
C=c1[nH]c(C(=O)N2CCC(NCc3ccc(Cl)cc3)CC2)c/c1=C/c1[n-]c(=O)[n-]c1[O-]

>  <Energy>  (2) 
127.34976209715069

>  <Genealogy>  (2) 
C=c1[nH]c(C(=O)N2CCC(NCc3ccc(Cl)cc3)CC2)cc1=Cc1[n-]c(=O)[n-]c1[O-] (protonated)
C=c1[nH]c(C(=O)N2CCC(NCc3ccc(Cl)cc3)CC2)c/c1=C/c1[n-]c(=O)[n-]c1[O-] (cis-trans isomerization)
C=c1[nH]c(C(=O)N2CCC(NCc3ccc(Cl)cc3)CC2)c/c1=C/c1[n-]c(=O)[n-]c1[O-] (3D coordinates assigned)
C=c1[nH]c(C(=O)N2CCC(NCc3ccc(Cl)cc3)CC2)c/c1=C/c1[n-]c(=O)[n-]c1[O-] (nonaromatic ring conformer: 127.34976209715069 kcal/mol)

>  <smiles>  (2) 
C=c1[nH]c(C(=O)N2CCC(NCc3ccc(Cl)cc3)CC2)cc1=Cc1[nH]c(=O)[nH]c1O

>  <score_type>  (2) 
oracle

>  <origin>  (2) 
adg

>  <m_score__min__energy>  (2) 
-18.260000000000002

>  <m_primary>  (2) 
energy

$$$$
2:0
     RDKit          3D

 53 56  0  0  0  0  0  0  0  0999 V2000
   55.9100   26.3880   46.5130 O   0  0  0  0  0  0  0  0  0  0  0  0
   56.6750   27.1840   45.9040 C   0  0  0  0  0  0  0  0  0  0  0  0
   58.1650   26.9340   45.9020 C   0  0  0  0  0  0  0  0  0  0  0  0
   58.8290   27.4130   47.1680 C   0  0  0  0  0  0  0  0  0  0  0  0
   58.2830   28.4850   47.8900 C   0  0  0  0  0  0  0  0  0  0  0  0
   58.9140   28.9500   49.0460 C   0  0  0  0  0  0  0  0  0  0  0  0
   60.1030   28.3570   49.4900 C   0  0  0  0  0  0  0  0  0  0  0  0
   60.8700   28.9390   50.9650 S   0  0  0  0  0  0  0  0  0  0  0  0
   59.9250   28.8000   52.1270 O   0  0  0  0  0  0  0  0  0  0  0  0
   62.0900   28.1040   51.2350 O   0  0  0  0  0  0  0  0  0  0  0  0
   61.3300   30.6130   50.7700 N   0  0  0  0  0  0  0  0  0  0  0  0
   60.1950   31.3870   50.2330 C   0  0  0  0  0  0  0  0  0  0  0  0
   60.5030   32.8980   50.2230 C   0  0  0  0  0  0  0  0  0  0  0  0
   62.0090   33.1950   50.1330 C   0  0  0  0  0  0  0  0  0  0  0  0
   62.7340   32.1280   49.3110 C   0  0  0  0  0  0  0  0  0  0  0  0
   62.5230   30.7120   49.8950 C   0  0  0  0  0  0  0  0  0  0  0  0
   60.6550   27.2900   48.7670 C   0  0  0  0  0  0  0  0  0  0  0  0
   60.0260   26.8250   47.6090 C   0  0  0  0  0  0  0  0  0  0  0  0
   56.0800   28.3080   45.2310 N   0  0  0  0  0  0  0  0  0  0  0  0
   56.6490   29.4270   44.8870 C   0  0  0  0  0  0  0  0  0  0  0  0
   57.4330   30.1710   45.6960 N   0  0  0  0  0  0  0  0  0  0  0  0
   57.8750   31.2970   45.0720 C   0  0  0  0  0  0  0  0  0  0  0  0
   58.7720   32.2570   45.7480 C   0  0  0  0  0  0  0  0  0  0  0  0
   59.9810   31.8260   46.3430 C   0  0  0  0  0  0  0  0  0  0  0  0
   60.5210   30.1510   46.2530 Cl  0  0  0  0  0  0  0  0  0  0  0  0
   60.8140   32.7500   46.9830 C   0  0  0  0  0  0  0  0  0  0  0  0
   60.4650   34.0990   47.0340 C   0  0  0  0  0  0  0  0  0  0  0  0
   59.2800   34.5360   46.4440 C   0  0  0  0  0  0  0  0  0  0  0  0
   58.4320   33.6290   45.8020 C   0  0  0  0  0  0  0  0  0  0  0  0
   56.9260   34.2420   45.1220 Cl  0  0  0  0  0  0  0  0  0  0  0  0
   57.4380   31.4470   43.7560 C   0  0  0  0  0  0  0  0  0  0  0  0
   56.4640   30.1290   43.3750 S   0  0  0  0  0  0  0  0  0  0  0  0
   58.3419   25.8534   45.7972 H   0  0  0  0  0  0  0  0  0  0  0  0
   58.5987   27.4963   45.0619 H   0  0  0  0  0  0  0  0  0  0  0  0
   57.3538   28.9614   47.5441 H   0  0  0  0  0  0  0  0  0  0  0  0
   58.4752   29.7859   49.6106 H   0  0  0  0  0  0  0  0  0  0  0  0
   61.5710   30.9750   51.7230 H   0  0  0  0  0  0  0  0  0  0  0  0
   59.9903   31.0561   49.2041 H   0  0  0  0  0  0  0  0  0  0  0  0
   59.3208   31.2148   50.8780 H   0  0  0  0  0  0  0  0  0  0  0  0
   60.0018   33.3538   49.3563 H   0  0  0  0  0  0  0  0  0  0  0  0
   60.1371   33.3184   51.1713 H   0  0  0  0  0  0  0  0  0  0  0  0
   62.1537   34.1755   49.6559 H   0  0  0  0  0  0  0  0  0  0  0  0
   62.4261   33.1942   51.1509 H   0  0  0  0  0  0  0  0  0  0  0  0
   62.3488   32.1494   48.2809 H   0  0  0  0  0  0  0  0  0  0  0  0
   63.8109   32.3509   49.3350 H   0  0  0  0  0  0  0  0  0  0  0  0
   62.4049   30.0040   49.0614 H   0  0  0  0  0  0  0  0  0  0  0  0
   63.4023   30.4790   50.5135 H   0  0  0  0  0  0  0  0  0  0  0  0
   61.5863   26.8174   49.1125 H   0  0  0  0  0  0  0  0  0  0  0  0
   60.4702   25.9948   47.0403 H   0  0  0  0  0  0  0  0  0  0  0  0
   61.7506   32.4100   47.4491 H   0  0  0  0  0  0  0  0  0  0  0  0
   61.1251   34.8188   47.5401 H   0  0  0  0  0  0  0  0  0  0  0  0
   59.0105   35.6017   46.4839 H   0  0  0  0  0  0  0  0  0  0  0  0
   57.6868   32.2817   43.0841 H   0  0  0  0  0  0  0  0  0  0  0  0
  1  2  2  0
  2  3  1  0
  3  4  1  0
  4  5  2  0
  5  6  1  0
  6  7  2  0
  7  8  1  0
  8  9  2  0
  8 10  2  0
  8 11  1  0
 11 12  1  0
 12 13  1  0
 13 14  1  0
 14 15  1  0
 15 16  1  0
  7 17  1  0
 17 18  2  0
  2 19  1  0
 19 20  2  3
 20 21  1  0
 21 22  1  0
 22 23  1  0
 23 24  2  0
 24 25  1  0
 24 26  1  0
 26 27  2  0
 27 28  1  0
 28 29  2  0
 29 30  1  0
 22 31  2  0
 31 32  1  0
 18  4  1  0
 32 20  1  0
 16 11  1  0
 29 23  1  0
  3 33  1  0
  3 34  1  0
  5 35  1  0
  6 36  1  0
 11 37  1  0
 12 38  1  0
 12 39  1  0
 13 40  1  0
 13 41  1  0
 14 42  1  0
 14 43  1  0
 15 44  1  0
 15 45  1  0
 16 46  1  0
 16 47  1  0
 17 48  1  0
 18 49  1  0
 26 50  1  0
 27 51  1  0
 28 52  1  0
 31 53  1  0
M  CHG  2  11   1  21  -1
M  END
>  <UniqueID>  (3) 
3

>  <SMILES>  (3) 
O=C(Cc1ccc(S(=O)(=O)[NH+]2CCCCC2)cc1)N=c1[n-]c(-c2c(Cl)cccc2Cl)cs1

>  <Energy>  (3) 
100.05504582433308

>  <Genealogy>  (3) 
O=C(Cc1ccc(S(=O)(=O)[NH+]2CCCCC2)cc1)N=c1[n-]c(-c2c(Cl)cccc2Cl)cs1 (protonated)
O=C(Cc1ccc(S(=O)(=O)[NH+]2CCCCC2)cc1)N=c1[n-]c(-c2c(Cl)cccc2Cl)cs1 (3D coordinates assigned)
O=C(Cc1ccc(S(=O)(=O)[NH+]2CCCCC2)cc1)N=c1[n-]c(-c2c(Cl)cccc2Cl)cs1 (nonaromatic ring conformer: 100.05504582433308 kcal/mol)

>  <smiles>  (3) 
O=C(Cc1ccc(S(=O)(=O)N2CCCCC2)cc1)N=c1[nH]c(-c2c(Cl)cccc2Cl)cs1

>  <score_type>  (3) 
oracle

>  <origin>  (3) 
adg

>  <m_score__min__energy>  (3) 
-10

>  <m_primary>  (3) 
energy

$$$$
3:0
     RDKit          3D

 49 52  0  0  0  0  0  0  0  0999 V2000
   55.6500   27.0890   45.7080 N   0  0  0  0  0  0  0  0  0  0  0  0
   57.2560   27.7250   45.6560 S   0  0  0  0  0  0  0  0  0  0  0  0
   58.1730   26.6920   45.0610 O   0  0  0  0  0  0  0  0  0  0  0  0
   57.7270   28.0290   47.0500 O   0  0  0  0  0  0  0  0  0  0  0  0
   57.2850   29.1930   44.6670 C   0  0  0  0  0  0  0  0  0  0  0  0
   56.4650   29.2560   43.5290 C   0  0  0  0  0  0  0  0  0  0  0  0
   56.4880   30.3760   42.6950 C   0  0  0  0  0  0  0  0  0  0  0  0
   57.3340   31.4460   42.9870 C   0  0  0  0  0  0  0  0  0  0  0  0
   58.1510   31.4040   44.1170 C   0  0  0  0  0  0  0  0  0  0  0  0
   58.1280   30.2910   44.9730 C   0  0  0  0  0  0  0  0  0  0  0  0
   58.9910   30.3110   46.1700 C   0  0  0  0  0  0  0  0  0  0  0  0
   58.4780   30.7520   47.3980 C   0  0  0  0  0  0  0  0  0  0  0  0
   59.2840   30.7450   48.5400 C   0  0  0  0  0  0  0  0  0  0  0  0
   60.5990   30.2700   48.4730 C   0  0  0  0  0  0  0  0  0  0  0  0
   61.3930   30.2580   49.6660 N   0  0  0  0  0  0  0  0  0  0  0  0
   62.0870   31.3740   50.2410 C   0  0  0  0  0  0  0  0  0  0  0  0
   62.1620   31.4480   51.4950 O   0  0  0  0  0  0  0  0  0  0  0  0
   62.8000   32.3990   49.3810 C   0  0  0  0  0  0  0  0  0  0  0  0
   62.2040   33.7750   49.2610 C   0  0  0  0  0  0  0  0  0  0  0  0
   62.0260   34.4840   50.2880 O   0  0  0  0  0  0  0  0  0  0  0  0
   61.8580   34.2740   47.9650 N   0  0  0  0  0  0  0  0  0  0  0  0
   60.5670   34.1970   47.3420 C   0  0  0  0  0  0  0  0  0  0  0  0
   59.3910   33.9840   48.0850 C   0  0  0  0  0  0  0  0  0  0  0  0
   58.1560   33.8880   47.4340 C   0  0  0  0  0  0  0  0  0  0  0  0
   58.0880   33.9900   46.0420 C   0  0  0  0  0  0  0  0  0  0  0  0
   56.8900   33.8960   45.4130 F   0  0  0  0  0  0  0  0  0  0  0  0
   59.2550   34.1790   45.2990 C   0  0  0  0  0  0  0  0  0  0  0  0
   60.4910   34.2750   45.9460 C   0  0  0  0  0  0  0  0  0  0  0  0
   64.3160   32.2590   49.2890 C   0  0  0  0  0  0  0  0  0  0  0  0
   63.4490   31.8910   48.0950 C   0  0  0  0  0  0  0  0  0  0  0  0
   61.1200   29.8490   47.2410 C   0  0  0  0  0  0  0  0  0  0  0  0
   60.3160   29.8550   46.0980 C   0  0  0  0  0  0  0  0  0  0  0  0
   55.1440   27.4700   44.8790 H   0  0  0  0  0  0  0  0  0  0  0  0
   55.7975   28.4144   43.2919 H   0  0  0  0  0  0  0  0  0  0  0  0
   55.8389   30.4144   41.8077 H   0  0  0  0  0  0  0  0  0  0  0  0
   57.3570   32.3243   42.3252 H   0  0  0  0  0  0  0  0  0  0  0  0
   58.8186   32.2495   44.3393 H   0  0  0  0  0  0  0  0  0  0  0  0
   57.4381   31.1046   47.4630 H   0  0  0  0  0  0  0  0  0  0  0  0
   58.8832   31.1144   49.4955 H   0  0  0  0  0  0  0  0  0  0  0  0
   59.4427   33.8928   49.1800 H   0  0  0  0  0  0  0  0  0  0  0  0
   57.2375   33.7320   48.0188 H   0  0  0  0  0  0  0  0  0  0  0  0
   59.2020   34.2525   44.2027 H   0  0  0  0  0  0  0  0  0  0  0  0
   61.4085   34.4125   45.3551 H   0  0  0  0  0  0  0  0  0  0  0  0
   64.9495   33.1575   49.2519 H   0  0  0  0  0  0  0  0  0  0  0  0
   65.0853   31.7400   49.8796 H   0  0  0  0  0  0  0  0  0  0  0  0
   63.4552   32.5236   47.1951 H   0  0  0  0  0  0  0  0  0  0  0  0
   63.3316   30.9965   47.4656 H   0  0  0  0  0  0  0  0  0  0  0  0
   62.1652   29.5129   47.1741 H   0  0  0  0  0  0  0  0  0  0  0  0
   60.7230   29.5013   45.1392 H   0  0  0  0  0  0  0  0  0  0  0  0
  1  2  1  0
  2  3  2  0
  2  4  2  0
  2  5  1  0
  5  6  2  0
  6  7  1  0
  7  8  2  0
  8  9  1  0
  9 10  2  0
 10 11  1  0
 11 12  2  0
 12 13  1  0
 13 14  2  0
 14 15  1  0
 15 16  1  0
 16 17  2  0
 16 18  1  0
 18 19  1  0
 19 20  2  0
 19 21  1  0
 21 22  1  0
 22 23  2  0
 23 24  1  0
 24 25  2  0
 25 26  1  0
 25 27  1  0
 27 28  2  0
 18 29  1  0
 29 30  1  0
 14 31  1  0
 31 32  2  0
 10  5  1  0
 32 11  1  0
 30 18  1  0
 28 22  1  0
  1 33  1  0
  6 34  1  0
  7 35  1  0
  8 36  1  0
  9 37  1  0
 12 38  1  0
 13 39  1  0
 23 40  1  0
 24 41  1  0
 27 42  1  0
 28 43  1  0
 29 44  1  0
 29 45  1  0
 30 46  1  0
 30 47  1  0
 31 48  1  0
 32 49  1  0
M  CHG  3   1  -1  15  -1  21  -1
M  END
>  <UniqueID>  (4) 
4

>  <SMILES>  (4) 
[NH-]S(=O)(=O)c1ccccc1-c1ccc([N-]C(=O)C2(C(=O)[N-]c3ccc(F)cc3)CC2)cc1

>  <Energy>  (4) 
333.3134591550262

>  <Genealogy>  (4) 
[NH-]S(=O)(=O)c1ccccc1-c1ccc([N-]C(=O)C2(C(=O)[N-]c3ccc(F)cc3)CC2)cc1 (protonated)
[NH-]S(=O)(=O)c1ccccc1-c1ccc([N-]C(=O)C2(C(=O)[N-]c3ccc(F)cc3)CC2)cc1 (3D coordinates assigned)
[NH-]S(=O)(=O)c1ccccc1-c1ccc([N-]C(=O)C2(C(=O)[N-]c3ccc(F)cc3)CC2)cc1 (nonaromatic ring conformer: 333.3134591550262 kcal/mol)

>  <smiles>  (4) 
NS(=O)(=O)c1ccccc1-c1ccc(NC(=O)C2(C(=O)Nc3ccc(F)cc3)CC2)cc1

>  <score_type>  (4) 
oracle

>  <origin>  (4) 
adg

>  <m_score__min__energy>  (4) 
-14.06

>  <m_primary>  (4) 
energy

$$$$
4:0
     RDKit          3D

 45 48  0  0  0  0  0  0  0  0999 V2000
   54.1090   26.3410   46.3820 H   0  0  0  0  0  0  0  0  0  0  0  0
   55.0880   26.3490   46.1250 O   0  0  0  0  0  0  0  0  0  0  0  0
   55.9450   25.3580   46.5920 C   0  0  0  0  0  0  0  0  0  0  0  0
   55.6270   24.0530   46.6320 N   0  0  0  0  0  0  0  0  0  0  0  0
   56.7160   23.5000   47.2070 C   0  0  0  0  0  0  0  0  0  0  0  0
   56.8110   22.2660   47.4320 O   0  0  0  0  0  0  0  0  0  0  0  0
   57.6920   24.3760   47.5320 N   0  0  0  0  0  0  0  0  0  0  0  0
   57.2050   25.5570   47.1130 C   0  0  0  0  0  0  0  0  0  0  0  0
   57.8940   26.8400   47.3340 C   0  0  0  0  0  0  0  0  0  0  0  0
   58.1831   27.0960   48.3640 H   0  0  0  0  0  0  0  0  0  0  0  0
   58.1950   27.7240   46.3570 C   0  0  0  0  0  0  0  0  0  0  0  0
   57.2580   28.6180   45.7920 C   0  0  0  0  0  0  0  0  0  0  0  0
   56.2161   28.6915   46.1369 H   0  0  0  0  0  0  0  0  0  0  0  0
   57.7720   29.3970   44.7600 C   0  0  0  0  0  0  0  0  0  0  0  0
   57.0190   30.3630   43.9390 C   0  0  0  0  0  0  0  0  0  0  0  0
   56.6490   30.0310   42.7810 O   0  0  0  0  0  0  0  0  0  0  0  0
   56.6420   31.6510   44.4450 N   0  0  0  0  0  0  0  0  0  0  0  0
   57.4030   32.4270   45.1610 C   0  0  0  0  0  0  0  0  0  0  0  0
   57.7890   32.0650   46.4180 N   0  0  0  0  0  0  0  0  0  0  0  0
   58.6020   32.8480   47.1760 C   0  0  0  0  0  0  0  0  0  0  0  0
   58.8988   32.5181   48.1825 H   0  0  0  0  0  0  0  0  0  0  0  0
   59.0630   34.0750   46.6780 C   0  0  0  0  0  0  0  0  0  0  0  0
   59.9810   34.9380   47.4990 C   0  0  0  0  0  0  0  0  0  0  0  0
   60.1913   35.8685   46.9514 H   0  0  0  0  0  0  0  0  0  0  0  0
   59.4945   35.1688   48.4582 H   0  0  0  0  0  0  0  0  0  0  0  0
   61.2730   34.2150   47.7650 C   0  0  0  0  0  0  0  0  0  0  0  0
   62.1080   33.8400   46.6980 C   0  0  0  0  0  0  0  0  0  0  0  0
   61.8022   34.0500   45.6624 H   0  0  0  0  0  0  0  0  0  0  0  0
   63.3260   33.2010   46.9490 C   0  0  0  0  0  0  0  0  0  0  0  0
   63.9738   32.9055   46.1106 H   0  0  0  0  0  0  0  0  0  0  0  0
   63.7220   32.9370   48.2630 C   0  0  0  0  0  0  0  0  0  0  0  0
   64.6782   32.4294   48.4580 H   0  0  0  0  0  0  0  0  0  0  0  0
   62.9030   33.3180   49.3290 C   0  0  0  0  0  0  0  0  0  0  0  0
   63.2174   33.1135   50.3631 H   0  0  0  0  0  0  0  0  0  0  0  0
   61.6840   33.9590   49.0840 C   0  0  0  0  0  0  0  0  0  0  0  0
   61.0454   34.2635   49.9263 H   0  0  0  0  0  0  0  0  0  0  0  0
   58.6970   34.4540   45.3790 C   0  0  0  0  0  0  0  0  0  0  0  0
   59.0649   35.4019   44.9593 H   0  0  0  0  0  0  0  0  0  0  0  0
   57.8660   33.6300   44.6170 C   0  0  0  0  0  0  0  0  0  0  0  0
   57.5777   33.9244   43.5971 H   0  0  0  0  0  0  0  0  0  0  0  0
   59.3790   28.9790   44.5190 S   0  0  0  0  0  0  0  0  0  0  0  0
   59.4560   27.8180   45.7330 C   0  0  0  0  0  0  0  0  0  0  0  0
   60.5690   27.1330   46.0120 C   0  0  0  0  0  0  0  0  0  0  0  0
   60.5663   26.3835   46.8172 H   0  0  0  0  0  0  0  0  0  0  0  0
   61.4879   27.3186   45.4365 H   0  0  0  0  0  0  0  0  0  0  0  0
  1  2  1  0
  2  3  1  0
  3  4  1  0
  4  5  1  0
  5  6  2  0
  5  7  1  0
  7  8  1  0
  8  9  1  0
  9 10  1  0
  9 11  2  0
 11 12  1  0
 12 13  1  0
 12 14  2  0
 14 15  1  0
 15 16  2  0
 15 17  1  0
 17 18  2  3
 18 19  1  0
 19 20  1  0
 20 21  1  0
 20 22  2  0
 22 23  1  0
 23 24  1  0
 23 25  1  0
 23 26  1  0
 26 27  2  0
 27 28  1  0
 27 29  1  0
 29 30  1  0
 29 31  2  0
 31 32  1  0
 31 33  1  0
 33 34  1  0
 33 35  2  0
 35 36  1  0
 22 37  1  0
 37 38  1  0
 37 39  2  0
 39 40  1  0
 14 41  1  0
 41 42  1  0
 42 43  2  0
 43 44  1  0
 43 45  1  0
  8  3  2  0
 42 11  1  0
 39 18  1  0
 35 26  1  0
M  CHG  3   4  -1   7  -1  19  -1
M  END
>  <UniqueID>  (5) 
5

>  <SMILES>  (5) 
C=c1sc(C(=O)N=c2ccc(Cc3ccccc3)c[n-]2)c/c1=C\c1[n-]c(=O)[n-]c1O

>  <Energy>  (5) 
117.71467638379752

>  <Genealogy>  (5) 
C=c1sc(C(=O)N=c2ccc(Cc3ccccc3)c[n-]2)cc1=Cc1[n-]c(=O)[n-]c1O (protonated)
C=c1sc(C(=O)N=c2ccc(Cc3ccccc3)c[n-]2)c/c1=C\c1[n-]c(=O)[n-]c1O (cis-trans isomerization)
C=c1sc(C(=O)N=c2ccc(Cc3ccccc3)c[n-]2)c/c1=C\c1[n-]c(=O)[n-]c1O (3D coordinates assigned)
C=c1sc(C(=O)N=c2ccc(Cc3ccccc3)c[n-]2)c/c1=C\c1[n-]c(=O)[n-]c1O (optimized conformer: 117.71467638379752 kcal/mol)

>  <smiles>  (5) 
C=c1sc(C(=O)N=c2ccc(Cc3ccccc3)c[nH]2)cc1=Cc1[nH]c(=O)[nH]c1O

>  <score_type>  (5) 
oracle

>  <origin>  (5) 
adg

>  <m_score__min__energy>  (5) 
-16.100000000000001

>  <m_primary>  (5) 
energy

$$$$
5:0
     RDKit          3D

 56 59  0  0  0  0  0  0  0  0999 V2000
   58.8570   26.6390   44.5290 O   0  0  0  0  0  0  0  0  0  0  0  0
   57.8640   27.4140   44.5420 C   0  0  0  0  0  0  0  0  0  0  0  0
   57.8930   28.6270   43.7850 N   0  0  0  0  0  0  0  0  0  0  0  0
   56.8010   29.9370   44.0840 S   0  0  0  0  0  0  0  0  0  0  0  0
   55.6100   29.4140   44.8390 O   0  0  0  0  0  0  0  0  0  0  0  0
   56.3450   30.5060   42.7710 O   0  0  0  0  0  0  0  0  0  0  0  0
   57.6030   31.2020   45.0100 C   0  0  0  0  0  0  0  0  0  0  0  0
   58.4540   30.8670   46.0690 C   0  0  0  0  0  0  0  0  0  0  0  0
   59.0980   31.8700   46.8000 C   0  0  0  0  0  0  0  0  0  0  0  0
   58.8920   33.2240   46.4860 C   0  0  0  0  0  0  0  0  0  0  0  0
   59.5990   34.2830   47.2440 C   0  0  0  0  0  0  0  0  0  0  0  0
   58.9940   35.3590   47.5090 O   0  0  0  0  0  0  0  0  0  0  0  0
   60.9460   34.1010   47.7110 N   0  0  0  0  0  0  0  0  0  0  0  0
   61.2950   34.5550   49.0660 C   0  0  0  0  0  0  0  0  0  0  0  0
   62.7880   34.3740   49.3500 C   0  0  0  0  0  0  0  0  0  0  0  0
   63.2260   33.0590   48.8660 N   0  0  0  0  0  0  0  0  0  0  0  0
   63.8620   32.1190   49.7560 C   0  0  0  0  0  0  0  0  0  0  0  0
   63.1070   31.1180   50.3940 C   0  0  0  0  0  0  0  0  0  0  0  0
   63.7200   30.2270   51.2810 C   0  0  0  0  0  0  0  0  0  0  0  0
   65.0880   30.3300   51.5450 C   0  0  0  0  0  0  0  0  0  0  0  0
   65.8460   31.3250   50.9220 C   0  0  0  0  0  0  0  0  0  0  0  0
   65.2370   32.2180   50.0340 C   0  0  0  0  0  0  0  0  0  0  0  0
   62.9410   32.6670   47.4770 C   0  0  0  0  0  0  0  0  0  0  0  0
   62.0030   33.6680   46.7850 C   0  0  0  0  0  0  0  0  0  0  0  0
   58.0400   33.5540   45.4180 C   0  0  0  0  0  0  0  0  0  0  0  0
   57.3920   32.5500   44.6930 C   0  0  0  0  0  0  0  0  0  0  0  0
   56.6770   27.0720   45.2710 N   0  0  0  0  0  0  0  0  0  0  0  0
   56.5470   25.9060   46.1020 C   0  0  0  0  0  0  0  0  0  0  0  0
   55.5520   24.9400   45.8610 C   0  0  0  0  0  0  0  0  0  0  0  0
   55.4560   23.8090   46.6790 C   0  0  0  0  0  0  0  0  0  0  0  0
   56.3560   23.6260   47.7340 C   0  0  0  0  0  0  0  0  0  0  0  0
   56.2310   22.2090   48.7590 Cl  0  0  0  0  0  0  0  0  0  0  0  0
   57.3610   24.5690   47.9630 C   0  0  0  0  0  0  0  0  0  0  0  0
   57.4620   25.7000   47.1460 C   0  0  0  0  0  0  0  0  0  0  0  0
   58.6170   29.8103   46.3275 H   0  0  0  0  0  0  0  0  0  0  0  0
   59.7705   31.5972   47.6266 H   0  0  0  0  0  0  0  0  0  0  0  0
   61.0391   35.6204   49.1632 H   0  0  0  0  0  0  0  0  0  0  0  0
   60.7297   33.9494   49.7896 H   0  0  0  0  0  0  0  0  0  0  0  0
   63.3568   35.1618   48.8344 H   0  0  0  0  0  0  0  0  0  0  0  0
   62.9643   34.4415   50.4337 H   0  0  0  0  0  0  0  0  0  0  0  0
   62.0284   31.0355   50.1942 H   0  0  0  0  0  0  0  0  0  0  0  0
   63.1237   29.4436   51.7717 H   0  0  0  0  0  0  0  0  0  0  0  0
   65.5682   29.6283   52.2429 H   0  0  0  0  0  0  0  0  0  0  0  0
   66.9231   31.4062   51.1302 H   0  0  0  0  0  0  0  0  0  0  0  0
   65.8374   33.0025   49.5502 H   0  0  0  0  0  0  0  0  0  0  0  0
   63.8875   32.6206   46.9184 H   0  0  0  0  0  0  0  0  0  0  0  0
   62.4439   31.6858   47.4928 H   0  0  0  0  0  0  0  0  0  0  0  0
   62.5831   34.5446   46.4610 H   0  0  0  0  0  0  0  0  0  0  0  0
   61.5389   33.1807   45.9149 H   0  0  0  0  0  0  0  0  0  0  0  0
   57.8821   34.6094   45.1510 H   0  0  0  0  0  0  0  0  0  0  0  0
   56.7136   32.8195   43.8701 H   0  0  0  0  0  0  0  0  0  0  0  0
   55.8200   27.6400   45.0830 H   0  0  0  0  0  0  0  0  0  0  0  0
   54.8477   25.0747   45.0269 H   0  0  0  0  0  0  0  0  0  0  0  0
   54.6707   23.0618   46.4920 H   0  0  0  0  0  0  0  0  0  0  0  0
   58.0743   24.4219   48.7874 H   0  0  0  0  0  0  0  0  0  0  0  0
   58.2635   26.4324   47.3229 H   0  0  0  0  0  0  0  0  0  0  0  0
  1  2  2  0
  2  3  1  0
  3  4  1  0
  4  5  2  0
  4  6  2  0
  4  7  1  0
  7  8  2  0
  8  9  1  0
  9 10  2  0
 10 11  1  0
 11 12  2  0
 11 13  1  0
 13 14  1  0
 14 15  1  0
 15 16  1  0
 16 17  1  0
 17 18  2  0
 18 19  1  0
 19 20  2  0
 20 21  1  0
 21 22  2  0
 16 23  1  0
 23 24  1  0
 10 25  1  0
 25 26  2  0
  2 27  1  0
 27 28  1  0
 28 29  2  0
 29 30  1  0
 30 31  2  0
 31 32  1  0
 31 33  1  0
 33 34  2  0
 26  7  1  0
 34 28  1  0
 24 13  1  0
 22 17  1  0
  8 35  1  0
  9 36  1  0
 14 37  1  0
 14 38  1  0
 15 39  1  0
 15 40  1  0
 18 41  1  0
 19 42  1  0
 20 43  1  0
 21 44  1  0
 22 45  1  0
 23 46  1  0
 23 47  1  0
 24 48  1  0
 24 49  1  0
 25 50  1  0
 26 51  1  0
 27 52  1  0
 29 53  1  0
 30 54  1  0
 33 55  1  0
 34 56  1  0
M  CHG  1   3  -1
M  END
>  <UniqueID>  (6) 
6

>  <SMILES>  (6) 
O=C([N-]S(=O)(=O)c1ccc(C(=O)N2CCN(c3ccccc3)CC2)cc1)Nc1ccc(Cl)cc1

>  <Energy>  (6) 
74.06335107993293

>  <Genealogy>  (6) 
O=C([N-]S(=O)(=O)c1ccc(C(=O)N2CCN(c3ccccc3)CC2)cc1)Nc1ccc(Cl)cc1 (protonated)
O=C([N-]S(=O)(=O)c1ccc(C(=O)N2CCN(c3ccccc3)CC2)cc1)Nc1ccc(Cl)cc1 (3D coordinates assigned)
O=C([N-]S(=O)(=O)c1ccc(C(=O)N2CCN(c3ccccc3)CC2)cc1)Nc1ccc(Cl)cc1 (nonaromatic ring conformer: 74.06335107993293 kcal/mol)

>  <smiles>  (6) 
O=C(Nc1ccc(Cl)cc1)NS(=O)(=O)c1ccc(C(=O)N2CCN(c3ccccc3)CC2)cc1

>  <score_type>  (6) 
oracle

>  <origin>  (6) 
adg

>  <m_score__min__energy>  (6) 
-11.42

>  <m_primary>  (6) 
energy

$$$$
6:0
     RDKit          3D

 69 74  0  0  0  0  0  0  0  0999 V2000
   62.3890   30.2280   53.8250 H   0  0  0  0  0  0  0  0  0  0  0  0
   62.7810   31.0720   53.3510 N   0  0  0  0  0  0  0  0  0  0  0  0
   62.7580   31.1880   52.0650 C   0  0  0  0  0  0  0  0  0  0  0  0
   63.5970   32.0000   51.3810 N   0  0  0  0  0  0  0  0  0  0  0  0
   63.3610   31.9170   50.0450 C   0  0  0  0  0  0  0  0  0  0  0  0
   64.0930   32.6130   49.0800 C   0  0  0  0  0  0  0  0  0  0  0  0
   65.1210   33.4750   49.4920 O   0  0  0  0  0  0  0  0  0  0  0  0
   66.3180   33.0440   50.1340 C   0  0  0  0  0  0  0  0  0  0  0  0
   66.1864   33.0914   51.2251 H   0  0  0  0  0  0  0  0  0  0  0  0
   66.5415   32.0089   49.8362 H   0  0  0  0  0  0  0  0  0  0  0  0
   67.1501   33.6990   49.8362 H   0  0  0  0  0  0  0  0  0  0  0  0
   63.7670   32.4090   47.7210 C   0  0  0  0  0  0  0  0  0  0  0  0
   64.3315   32.9400   46.9404 H   0  0  0  0  0  0  0  0  0  0  0  0
   62.7280   31.5340   47.3550 C   0  0  0  0  0  0  0  0  0  0  0  0
   62.4910   31.3882   46.2908 H   0  0  0  0  0  0  0  0  0  0  0  0
   61.9870   30.8420   48.3330 C   0  0  0  0  0  0  0  0  0  0  0  0
   60.8700   29.9540   47.9450 C   0  0  0  0  0  0  0  0  0  0  0  0
   60.0610   30.3030   46.9070 N   0  0  0  0  0  0  0  0  0  0  0  0
   59.0400   29.5180   46.4640 C   0  0  0  0  0  0  0  0  0  0  0  0
   58.2220   29.8830   45.3570 C   0  0  0  0  0  0  0  0  0  0  0  0
   58.4260   30.9490   44.6230 N   0  0  0  0  0  0  0  0  0  0  0  0
   57.6130   32.1470   44.3800 C   0  0  1  0  0  0  0  0  0  0  0  0
   56.7961   31.8976   43.6868 H   0  0  0  0  0  0  0  0  0  0  0  0
   56.9790   32.6510   45.6930 C   0  0  0  0  0  0  0  0  0  0  0  0
   56.3474   31.8519   46.1083 H   0  0  0  0  0  0  0  0  0  0  0  0
   56.3926   33.5507   45.4549 H   0  0  0  0  0  0  0  0  0  0  0  0
   58.0320   33.0470   46.7490 C   0  0  0  0  0  0  0  0  0  0  0  0
   58.2323   32.1731   47.3863 H   0  0  0  0  0  0  0  0  0  0  0  0
   57.6180   33.8917   47.3192 H   0  0  0  0  0  0  0  0  0  0  0  0
   59.3700   33.5230   46.1350 C   0  0  2  0  0  0  0  0  0  0  0  0
   59.9968   32.6355   45.9632 H   0  0  0  0  0  0  0  0  0  0  0  0
   60.1020   34.4300   47.0830 C   0  0  0  0  0  0  0  0  0  0  0  0
   59.9440   35.6800   47.0130 O   0  0  0  0  0  0  0  0  0  0  0  0
   60.9330   33.8710   48.0610 O   0  0  0  0  0  0  0  0  0  0  0  0
   60.8880   34.2460   49.4350 C   0  0  0  0  0  0  0  0  0  0  0  0
   61.8715   34.0659   49.8935 H   0  0  0  0  0  0  0  0  0  0  0  0
   60.6300   35.3128   49.5083 H   0  0  0  0  0  0  0  0  0  0  0  0
   59.8460   33.4370   50.1590 C   0  0  0  0  0  0  0  0  0  0  0  0
   59.2300   32.3390   49.5350 C   0  0  0  0  0  0  0  0  0  0  0  0
   59.5275   32.0491   48.5165 H   0  0  0  0  0  0  0  0  0  0  0  0
   58.2400   31.6140   50.2050 C   0  0  0  0  0  0  0  0  0  0  0  0
   57.7626   30.7530   49.7143 H   0  0  0  0  0  0  0  0  0  0  0  0
   57.8560   31.9820   51.4980 C   0  0  0  0  0  0  0  0  0  0  0  0
   57.0785   31.4090   52.0244 H   0  0  0  0  0  0  0  0  0  0  0  0
   58.4590   33.0770   52.1220 C   0  0  0  0  0  0  0  0  0  0  0  0
   58.1557   33.3658   53.1392 H   0  0  0  0  0  0  0  0  0  0  0  0
   59.4480   33.8060   51.4540 C   0  0  0  0  0  0  0  0  0  0  0  0
   59.9160   34.6719   51.9450 H   0  0  0  0  0  0  0  0  0  0  0  0
   59.1480   34.2040   44.7750 C   0  0  0  0  0  0  0  0  0  0  0  0
   60.1186   34.5438   44.3845 H   0  0  0  0  0  0  0  0  0  0  0  0
   58.4631   35.0516   44.9252 H   0  0  0  0  0  0  0  0  0  0  0  0
   58.5060   33.2450   43.7510 C   0  0  0  0  0  0  0  0  0  0  0  0
   59.3122   32.7526   43.1874 H   0  0  0  0  0  0  0  0  0  0  0  0
   57.8512   33.8570   43.1133 H   0  0  0  0  0  0  0  0  0  0  0  0
   57.1370   29.0320   45.0040 C   0  0  0  0  0  0  0  0  0  0  0  0
   56.2000   29.3460   43.8860 C   0  0  0  0  0  0  0  0  0  0  0  0
   56.6310   29.6180   42.7340 O   0  0  0  0  0  0  0  0  0  0  0  0
   54.7890   29.3600   44.1110 N   0  0  0  0  0  0  0  0  0  0  0  0
   54.4000   29.3500   45.0800 H   0  0  0  0  0  0  0  0  0  0  0  0
   56.9430   27.8400   45.7250 C   0  0  0  0  0  0  0  0  0  0  0  0
   56.1145   27.1696   45.4528 H   0  0  0  0  0  0  0  0  0  0  0  0
   57.7630   27.5070   46.7500 N   0  0  0  0  0  0  0  0  0  0  0  0
   58.7900   28.3020   47.1330 C   0  0  0  0  0  0  0  0  0  0  0  0
   59.6050   27.9160   48.1980 C   0  0  0  0  0  0  0  0  0  0  0  0
   59.4181   26.9646   48.7174 H   0  0  0  0  0  0  0  0  0  0  0  0
   60.6560   28.7370   48.6030 C   0  0  0  0  0  0  0  0  0  0  0  0
   61.3113   28.4315   49.4320 H   0  0  0  0  0  0  0  0  0  0  0  0
   62.3340   31.0540   49.6740 C   0  0  0  0  0  0  0  0  0  0  0  0
   61.7020   30.3370   51.0630 S   0  0  0  0  0  0  0  0  0  0  0  0
  1  2  1  0
  2  3  2  0
  3  4  1  0
  4  5  1  0
  5  6  2  0
  6  7  1  0
  7  8  1  0
  8  9  1  0
  8 10  1  0
  8 11  1  0
  6 12  1  0
 12 13  1  0
 12 14  2  0
 14 15  1  0
 14 16  1  0
 16 17  1  0
 17 18  2  0
 18 19  1  0
 19 20  1  0
 20 21  2  3
 21 22  1  0
 22 23  1  6
 22 24  1  0
 24 25  1  0
 24 26  1  0
 24 27  1  0
 27 28  1  0
 27 29  1  0
 27 30  1  0
 30 31  1  6
 30 32  1  0
 32 33  2  0
 32 34  1  0
 34 35  1  0
 35 36  1  0
 35 37  1  0
 35 38  1  0
 38 39  2  0
 39 40  1  0
 39 41  1  0
 41 42  1  0
 41 43  2  0
 43 44  1  0
 43 45  1  0
 45 46  1  0
 45 47  2  0
 47 48  1  0
 30 49  1  0
 49 50  1  0
 49 51  1  0
 49 52  1  0
 52 53  1  0
 52 54  1  0
 20 55  1  0
 55 56  1  0
 56 57  2  0
 56 58  1  0
 58 59  1  0
 55 60  2  0
 60 61  1  0
 60 62  1  0
 62 63  1  0
 63 64  1  0
 64 65  1  0
 64 66  2  0
 66 67  1  0
 16 68  2  0
 68 69  1  0
 69  3  1  0
 68  5  1  0
 66 17  1  0
 63 19  2  0
 52 22  1  0
 47 38  1  0
M  CHG  3   4  -1  58  -1  62  -1
M  END
>  <UniqueID>  (7) 
7

>  <SMILES>  (7) 
[H]/N=c1\[n-]c2c(OC)ccc(-c3ccc4[n-]cc(C([NH-])=O)c(=NC5CCC(C(=O)OCc6ccccc6)CC5)c4n3)c2s1

>  <Energy>  (7) 
128.60913194989442

>  <Genealogy>  (7) 
COc1ccc(-c2ccc3[n-]cc(C([NH-])=O)c(=NC4CCC(C(=O)OCc5ccccc5)CC4)c3n2)c2sc(=N)[n-]c12 (protonated)
[H]/N=c1\[n-]c2c(OC)ccc(-c3ccc4[n-]cc(C([NH-])=O)c(=NC5CCC(C(=O)OCc6ccccc6)CC5)c4n3)c2s1 (cis-trans isomerization)
[H]/N=c1\[n-]c2c(OC)ccc(-c3ccc4[n-]cc(C([NH-])=O)c(=NC5CCC(C(=O)OCc6ccccc6)CC5)c4n3)c2s1 (3D coordinates assigned)
[H]/N=c1\[n-]c2c(OC)ccc(-c3ccc4[n-]cc(C([NH-])=O)c(=NC5CCC(C(=O)OCc6ccccc6)CC5)c4n3)c2s1 (nonaromatic ring conformer: 128.60913194989442 kcal/mol)

>  <smiles>  (7) 
COc1ccc(-c2ccc3[nH]cc(C(N)=O)c(=NC4CCC(C(=O)OCc5ccccc5)CC4)c3n2)c2sc(=N)[nH]c12

>  <score_type>  (7) 
oracle

>  <origin>  (7) 
adg

>  <m_score__min__energy>  (7) 
-15.91

>  <m_primary>  (7) 
energy

$$$$
7:0
     RDKit          3D

 39 40  0  0  0  0  0  0  0  0999 V2000
   55.2060   27.1420   45.0650 H   0  0  0  0  0  0  0  0  0  0  0  0
   55.1810   26.6740   45.9980 N   0  0  0  0  0  0  0  0  0  0  0  0
   56.3280   26.0020   46.5120 C   0  0  0  0  0  0  0  0  0  0  0  0
   56.1800   24.9130   47.1290 O   0  0  0  0  0  0  0  0  0  0  0  0
   57.6820   26.5850   46.4010 C   0  0  0  0  0  0  0  0  0  0  0  0
   58.5132   26.0200   46.8480 H   0  0  0  0  0  0  0  0  0  0  0  0
   57.9820   27.7540   45.7960 C   0  0  0  0  0  0  0  0  0  0  0  0
   57.4760   28.0440   44.4330 C   0  0  0  0  0  0  0  0  0  0  0  0
   57.9311   27.5128   43.5841 H   0  0  0  0  0  0  0  0  0  0  0  0
   56.5240   28.8920   44.1890 N   0  0  0  0  0  0  0  0  0  0  0  0
   55.3800   28.9710   44.9510 O   0  0  0  0  0  0  0  0  0  0  0  0
   55.1430   28.2220   45.5870 H   0  0  0  0  0  0  0  0  0  0  0  0
   58.6810   28.8570   46.4940 C   0  0  0  0  0  0  0  0  0  0  0  0
   58.4760   29.0560   47.8680 C   0  0  0  0  0  0  0  0  0  0  0  0
   57.7806   28.4053   48.4183 H   0  0  0  0  0  0  0  0  0  0  0  0
   59.1530   30.0790   48.5400 C   0  0  0  0  0  0  0  0  0  0  0  0
   58.9699   30.2410   49.6125 H   0  0  0  0  0  0  0  0  0  0  0  0
   60.0610   30.8980   47.8600 C   0  0  0  0  0  0  0  0  0  0  0  0
   60.7070   31.9160   48.5770 O   0  0  0  0  0  0  0  0  0  0  0  0
   60.4060   33.2820   48.4950 C   0  0  0  0  0  0  0  0  0  0  0  0
   59.9840   33.9170   49.4990 O   0  0  0  0  0  0  0  0  0  0  0  0
   60.4870   33.9670   47.1680 C   0  0  0  0  0  0  0  0  0  0  0  0
   61.2076   34.7957   47.2319 H   0  0  0  0  0  0  0  0  0  0  0  0
   60.8127   33.2383   46.4111 H   0  0  0  0  0  0  0  0  0  0  0  0
   59.1110   34.5230   46.7630 C   0  0  0  0  0  0  0  0  0  0  0  0
   59.1142   35.4568   47.3444 H   0  0  0  0  0  0  0  0  0  0  0  0
   58.8700   34.5590   45.2540 C   0  0  0  0  0  0  0  0  0  0  0  0
   58.5480   35.5397   44.8737 H   0  0  0  0  0  0  0  0  0  0  0  0
   59.6953   34.3651   44.5531 H   0  0  0  0  0  0  0  0  0  0  0  0
   57.7390   33.5510   45.4120 C   0  0  0  0  0  0  0  0  0  0  0  0
   56.7496   33.9390   45.1281 H   0  0  0  0  0  0  0  0  0  0  0  0
   57.7371   32.6219   44.8232 H   0  0  0  0  0  0  0  0  0  0  0  0
   57.9810   33.5080   46.9150 C   0  0  0  0  0  0  0  0  0  0  0  0
   57.1330   33.8670   47.5167 H   0  0  0  0  0  0  0  0  0  0  0  0
   58.1594   32.5486   47.4227 H   0  0  0  0  0  0  0  0  0  0  0  0
   60.2670   30.6990   46.4830 C   0  0  0  0  0  0  0  0  0  0  0  0
   60.9641   31.3492   45.9341 H   0  0  0  0  0  0  0  0  0  0  0  0
   59.5900   29.6790   45.8090 C   0  0  0  0  0  0  0  0  0  0  0  0
   59.7703   29.5193   44.7357 H   0  0  0  0  0  0  0  0  0  0  0  0
  1  2  1  0
  2  3  1  0
  3  4  2  0
  3  5  1  0
  5  6  1  0
  5  7  2  0
  7  8  1  0
  8  9  1  0
  8 10  2  0
 10 11  1  0
 11 12  1  0
  7 13  1  0
 13 14  2  0
 14 15  1  0
 14 16  1  0
 16 17  1  0
 16 18  2  0
 18 19  1  0
 19 20  1  0
 20 21  2  0
 20 22  1  0
 22 23  1  0
 22 24  1  0
 22 25  1  0
 25 26  1  0
 25 27  1  0
 27 28  1  0
 27 29  1  0
 27 30  1  0
 30 31  1  0
 30 32  1  0
 30 33  1  0
 33 34  1  0
 33 35  1  0
 18 36  1  0
 36 37  1  0
 36 38  2  0
 38 39  1  0
 38 13  1  0
 33 25  1  0
M  CHG  1   2  -1
M  END
>  <UniqueID>  (8) 
8

>  <SMILES>  (8) 
[NH-]C(=O)/C=C(/C=N\O)c1ccc(OC(=O)CC2CCC2)cc1

>  <Energy>  (8) 
110.95237339157492

>  <Genealogy>  (8) 
[NH-]C(=O)C=C(C=NO)c1ccc(OC(=O)CC2CCC2)cc1 (protonated)
[NH-]C(=O)/C=C(/C=N\O)c1ccc(OC(=O)CC2CCC2)cc1 (cis-trans isomerization)
[NH-]C(=O)/C=C(/C=N\O)c1ccc(OC(=O)CC2CCC2)cc1 (3D coordinates assigned)
[NH-]C(=O)/C=C(/C=N\O)c1ccc(OC(=O)CC2CCC2)cc1 (nonaromatic ring conformer: 110.95237339157492 kcal/mol)

>  <smiles>  (8) 
NC(=O)C=C(C=NO)c1ccc(OC(=O)CC2CCC2)cc1

>  <score_type>  (8) 
oracle

>  <origin>  (8) 
adg

>  <m_score__min__energy>  (8) 
-11.1

>  <m_primary>  (8) 
energy

$$$$
8:0
     RDKit          3D

 38 40  0  0  0  0  0  0  0  0999 V2000
   53.9870   29.9140   55.1410 C   0  0  0  0  0  0  0  0  0  0  0  0
   54.5680   30.1350   53.9540 C   0  0  0  0  0  0  0  0  0  0  0  0
   53.9630   30.5680   52.7640 C   0  0  0  0  0  0  0  0  0  0  0  0
   52.7280   31.0560   52.5420 C   0  0  0  0  0  0  0  0  0  0  0  0
   52.0980   31.2410   51.2240 C   0  0  0  0  0  0  0  0  0  0  0  0
   52.0650   30.3120   50.2520 N   0  0  0  0  0  0  0  0  0  0  0  0
   51.2730   30.8710   49.3130 C   0  0  0  0  0  0  0  0  0  0  0  0
   51.0090   30.3010   48.2220 O   0  0  0  0  0  0  0  0  0  0  0  0
   50.7770   32.0840   49.6380 N   0  0  0  0  0  0  0  0  0  0  0  0
   51.2980   32.2950   50.8570 C   0  0  0  0  0  0  0  0  0  0  0  0
   51.0420   33.4270   51.6220 O   0  0  0  0  0  0  0  0  0  0  0  0
   54.8510   30.4510   51.7530 N   0  0  0  0  0  0  0  0  0  0  0  0
   55.9750   30.0040   52.3420 C   0  0  0  0  0  0  0  0  0  0  0  0
   57.0350   29.7790   51.7000 O   0  0  0  0  0  0  0  0  0  0  0  0
   55.8540   29.8150   53.6730 N   0  0  0  0  0  0  0  0  0  0  0  0
   56.8760   29.2500   54.5640 C   0  0  0  0  0  0  0  0  0  0  0  0
   56.8350   27.7420   54.5330 C   0  0  0  0  0  0  0  0  0  0  0  0
   58.0030   27.0040   54.7550 C   0  0  0  0  0  0  0  0  0  0  0  0
   57.9740   25.6110   54.7170 C   0  0  0  0  0  0  0  0  0  0  0  0
   56.7770   24.9310   54.4560 C   0  0  0  0  0  0  0  0  0  0  0  0
   56.7810   23.5360   54.4040 O   0  0  0  0  0  0  0  0  0  0  0  0
   55.5830   25.6570   54.2400 C   0  0  0  0  0  0  0  0  0  0  0  0
   54.2940   24.9580   53.9690 C   0  0  0  0  0  0  0  0  0  0  0  0
   53.0420   25.7160   53.6420 C   0  0  0  0  0  0  0  0  0  0  0  0
   54.2290   23.7020   54.0420 O   0  0  0  0  0  0  0  0  0  0  0  0
   55.6300   27.0660   54.2860 C   0  0  0  0  0  0  0  0  0  0  0  0
   54.5916   29.5731   55.9943 H   0  0  0  0  0  0  0  0  0  0  0  0
   52.9054   30.0735   55.2621 H   0  0  0  0  0  0  0  0  0  0  0  0
   52.1366   31.3421   53.4243 H   0  0  0  0  0  0  0  0  0  0  0  0
   57.8692   29.5911   54.2366 H   0  0  0  0  0  0  0  0  0  0  0  0
   56.6761   29.5884   55.5914 H   0  0  0  0  0  0  0  0  0  0  0  0
   58.9491   27.5260   54.9606 H   0  0  0  0  0  0  0  0  0  0  0  0
   58.8981   25.0410   54.8933 H   0  0  0  0  0  0  0  0  0  0  0  0
   55.9210   23.0020   54.3700 H   0  0  0  0  0  0  0  0  0  0  0  0
   52.5424   26.0184   54.5742 H   0  0  0  0  0  0  0  0  0  0  0  0
   53.2978   26.6111   53.0560 H   0  0  0  0  0  0  0  0  0  0  0  0
   52.3675   25.0745   53.0560 H   0  0  0  0  0  0  0  0  0  0  0  0
   54.7079   27.6440   54.1258 H   0  0  0  0  0  0  0  0  0  0  0  0
  1  2  2  0
  2  3  1  0
  3  4  2  3
  4  5  1  0
  5  6  1  0
  6  7  1  0
  7  8  2  0
  7  9  1  0
  9 10  1  0
 10 11  1  0
  3 12  1  0
 12 13  1  0
 13 14  2  0
 13 15  1  0
 15 16  1  0
 16 17  1  0
 17 18  2  0
 18 19  1  0
 19 20  2  0
 20 21  1  0
 20 22  1  0
 22 23  1  0
 23 24  1  0
 23 25  2  0
 22 26  2  0
 15  2  1  0
 26 17  1  0
 10  5  2  0
  1 27  1  0
  1 28  1  0
  4 29  1  0
 16 30  1  0
 16 31  1  0
 18 32  1  0
 19 33  1  0
 21 34  1  0
 24 35  1  0
 24 36  1  0
 24 37  1  0
 26 38  1  0
M  CHG  4   6  -1   9  -1  11  -1  12  -1
M  END
>  <UniqueID>  (9) 
9

>  <SMILES>  (9) 
C=c1c(=Cc2[n-]c(=O)[n-]c2[O-])[n-]c(=O)n1Cc1ccc(O)c(C(C)=O)c1

>  <Energy>  (9) 
114.64100602501127

>  <Genealogy>  (9) 
C=c1c(=Cc2[n-]c(=O)[n-]c2[O-])[n-]c(=O)n1Cc1ccc(O)c(C(C)=O)c1 (protonated)
C=c1c(=Cc2[n-]c(=O)[n-]c2[O-])[n-]c(=O)n1Cc1ccc(O)c(C(C)=O)c1 (3D coordinates assigned)
C=c1c(=Cc2[n-]c(=O)[n-]c2[O-])[n-]c(=O)n1Cc1ccc(O)c(C(C)=O)c1 (optimized conformer: 114.64100602501127 kcal/mol)

>  <smiles>  (9) 
C=c1c(=Cc2[nH]c(=O)[nH]c2O)[nH]c(=O)n1Cc1ccc(O)c(C(C)=O)c1

>  <score_type>  (9) 
oracle

>  <origin>  (9) 
adg

>  <m_score__min__energy>  (9) 
-17.219999999999999

>  <m_primary>  (9) 
energy

$$$$
9:0
     RDKit          3D

 41 44  0  0  0  0  0  0  0  0999 V2000
   55.2960   26.5580   45.9970 N   0  0  0  0  0  0  0  0  0  0  0  0
   56.6760   26.8610   46.1890 C   0  0  0  0  0  0  0  0  0  0  0  0
   57.4510   25.9400   46.5670 O   0  0  0  0  0  0  0  0  0  0  0  0
   57.2070   28.2310   45.9510 C   0  0  0  0  0  0  0  0  0  0  0  0
   58.4970   28.5600   46.4110 C   0  0  0  0  0  0  0  0  0  0  0  0
   59.0280   29.8340   46.2040 C   0  0  0  0  0  0  0  0  0  0  0  0
   58.2890   30.8130   45.5250 C   0  0  0  0  0  0  0  0  0  0  0  0
   58.8450   32.1690   45.3120 C   0  0  0  0  0  0  0  0  0  0  0  0
   58.6500   32.7530   44.2100 O   0  0  0  0  0  0  0  0  0  0  0  0
   59.5870   32.8440   46.3450 N   0  0  0  0  0  0  0  0  0  0  0  0
   60.8990   33.4420   46.0280 C   0  0  0  0  0  0  0  0  0  0  0  0
   61.8820   33.2710   47.1990 C   0  0  0  0  0  0  0  0  0  0  0  0
   61.1990   33.5990   48.4940 C   0  0  0  0  0  0  0  0  0  0  0  0
   59.8430   33.5090   48.6690 C   0  0  0  0  0  0  0  0  0  0  0  0
   59.5330   33.5980   49.9740 N   0  0  0  0  0  0  0  0  0  0  0  0
   60.6670   33.7130   50.6520 N   0  0  0  0  0  0  0  0  0  0  0  0
   61.6990   33.7130   49.7820 C   0  0  0  0  0  0  0  0  0  0  0  0
   63.1080   33.7260   50.2120 C   0  0  0  0  0  0  0  0  0  0  0  0
   64.0850   32.9620   49.5540 C   0  0  0  0  0  0  0  0  0  0  0  0
   65.4110   33.0240   49.9900 C   0  0  0  0  0  0  0  0  0  0  0  0
   65.7530   33.8510   51.0600 C   0  0  0  0  0  0  0  0  0  0  0  0
   64.7620   34.6170   51.6750 C   0  0  0  0  0  0  0  0  0  0  0  0
   63.4760   34.5420   51.2380 N   0  0  0  0  0  0  0  0  0  0  0  0
   58.8720   33.2880   47.5530 C   0  0  0  0  0  0  0  0  0  0  0  0
   56.9970   30.4990   45.0750 C   0  0  0  0  0  0  0  0  0  0  0  0
   56.4570   29.2240   45.2790 C   0  0  0  0  0  0  0  0  0  0  0  0
   55.1760   28.9650   44.8050 O   0  0  0  0  0  0  0  0  0  0  0  0
   54.8110   26.8000   45.1050 H   0  0  0  0  0  0  0  0  0  0  0  0
   59.0939   27.8027   46.9404 H   0  0  0  0  0  0  0  0  0  0  0  0
   60.0351   30.0721   46.5768 H   0  0  0  0  0  0  0  0  0  0  0  0
   61.3129   32.9485   45.1363 H   0  0  0  0  0  0  0  0  0  0  0  0
   60.7580   34.5173   45.8439 H   0  0  0  0  0  0  0  0  0  0  0  0
   62.2369   32.2302   47.2277 H   0  0  0  0  0  0  0  0  0  0  0  0
   62.7343   33.9519   47.0575 H   0  0  0  0  0  0  0  0  0  0  0  0
   63.8093   32.3210   48.7037 H   0  0  0  0  0  0  0  0  0  0  0  0
   66.1840   32.4216   49.4903 H   0  0  0  0  0  0  0  0  0  0  0  0
   66.7930   33.8988   51.4152 H   0  0  0  0  0  0  0  0  0  0  0  0
   65.0206   35.2812   52.5128 H   0  0  0  0  0  0  0  0  0  0  0  0
   58.1448   32.5179   47.8498 H   0  0  0  0  0  0  0  0  0  0  0  0
   58.3487   34.2312   47.3371 H   0  0  0  0  0  0  0  0  0  0  0  0
   56.4016   31.2644   44.5557 H   0  0  0  0  0  0  0  0  0  0  0  0
  1  2  1  0
  2  3  2  0
  2  4  1  0
  4  5  2  0
  5  6  1  0
  6  7  2  0
  7  8  1  0
  8  9  2  0
  8 10  1  0
 10 11  1  0
 11 12  1  0
 12 13  1  0
 13 14  1  0
 14 15  2  0
 15 16  1  0
 16 17  1  0
 17 18  1  0
 18 19  2  0
 19 20  1  0
 20 21  2  0
 21 22  1  0
 22 23  2  0
 14 24  1  0
  7 25  1  0
 25 26  2  0
 26 27  1  0
 26  4  1  0
 24 10  1  0
 17 13  2  0
 23 18  1  0
  1 28  1  0
  5 29  1  0
  6 30  1  0
 11 31  1  0
 11 32  1  0
 12 33  1  0
 12 34  1  0
 19 35  1  0
 20 36  1  0
 21 37  1  0
 22 38  1  0
 24 39  1  0
 24 40  1  0
 25 41  1  0
M  CHG  3   1  -1  16  -1  27  -1
M  END
>  <UniqueID>  (10) 
10

>  <SMILES>  (10) 
[NH-]C(=O)c1ccc(C(=O)N2CCc3c(n[n-]c3-c3ccccn3)C2)cc1[O-]

>  <Energy>  (10) 
89.90430535699389

>  <Genealogy>  (10) 
[NH-]C(=O)c1ccc(C(=O)N2CCc3c(n[n-]c3-c3ccccn3)C2)cc1[O-] (protonated)
[NH-]C(=O)c1ccc(C(=O)N2CCc3c(n[n-]c3-c3ccccn3)C2)cc1[O-] (3D coordinates assigned)
[NH-]C(=O)c1ccc(C(=O)N2CCc3c(n[n-]c3-c3ccccn3)C2)cc1[O-] (nonaromatic ring conformer: 89.90430535699389 kcal/mol)

>  <smiles>  (10) 
NC(=O)c1ccc(C(=O)N2CCc3c(n[nH]c3-c3ccccn3)C2)cc1O

>  <score_type>  (10) 
oracle

>  <origin>  (10) 
adg

>  <m_score__min__energy>  (10) 
-15.17

>  <m_primary>  (10) 
energy

$$$$
10:0
     RDKit          3D

 35 36  0  0  0  0  0  0  0  0999 V2000
   56.5510   29.6460   42.6250 C   0  0  0  0  0  0  0  0  0  0  0  0
   56.4420   29.9140   44.3810 S   0  0  0  0  0  0  0  0  0  0  0  0
   56.4770   31.3930   44.6510 O   0  0  0  0  0  0  0  0  0  0  0  0
   55.1450   29.3620   44.9010 O   0  0  0  0  0  0  0  0  0  0  0  0
   57.7960   29.1130   45.1880 C   0  0  0  0  0  0  0  0  0  0  0  0
   59.0350   29.7660   45.2740 C   0  0  0  0  0  0  0  0  0  0  0  0
   60.1170   29.1480   45.9050 C   0  0  0  0  0  0  0  0  0  0  0  0
   59.9700   27.8770   46.4590 C   0  0  0  0  0  0  0  0  0  0  0  0
   58.7440   27.2130   46.3730 C   0  0  0  0  0  0  0  0  0  0  0  0
   57.6530   27.8140   45.7190 C   0  0  0  0  0  0  0  0  0  0  0  0
   56.3800   27.1520   45.6360 N   0  0  0  0  0  0  0  0  0  0  0  0
   56.1480   25.7420   45.7220 C   0  0  0  0  0  0  0  0  0  0  0  0
   55.1440   25.2890   46.3350 O   0  0  0  0  0  0  0  0  0  0  0  0
   57.1520   24.7930   45.1480 C   0  0  0  0  0  0  0  0  0  0  0  0
   56.7720   24.3880   43.7930 N   0  0  0  0  0  0  0  0  0  0  0  0
   55.7680   22.9670   43.8210 S   0  0  0  0  0  0  0  0  0  0  0  0
   54.3350   23.3560   44.0560 O   0  0  0  0  0  0  0  0  0  0  0  0
   55.8630   22.2700   42.4930 O   0  0  0  0  0  0  0  0  0  0  0  0
   56.2920   21.8620   45.0790 C   0  0  0  0  0  0  0  0  0  0  0  0
   57.5840   21.3920   45.2510 C   0  0  0  0  0  0  0  0  0  0  0  0
   57.7110   20.5410   46.3560 C   0  0  0  0  0  0  0  0  0  0  0  0
   56.5220   20.3470   47.0500 C   0  0  0  0  0  0  0  0  0  0  0  0
   55.3100   21.2360   46.2890 S   0  0  0  0  0  0  0  0  0  0  0  0
   56.9590   28.6429   42.4318 H   0  0  0  0  0  0  0  0  0  0  0  0
   55.5487   29.7264   42.1789 H   0  0  0  0  0  0  0  0  0  0  0  0
   57.2127   30.4031   42.1789 H   0  0  0  0  0  0  0  0  0  0  0  0
   59.1548   30.7705   44.8419 H   0  0  0  0  0  0  0  0  0  0  0  0
   61.0863   29.6647   45.9649 H   0  0  0  0  0  0  0  0  0  0  0  0
   60.8206   27.3965   46.9645 H   0  0  0  0  0  0  0  0  0  0  0  0
   58.6309   26.2140   46.8194 H   0  0  0  0  0  0  0  0  0  0  0  0
   58.1351   25.2853   45.1145 H   0  0  0  0  0  0  0  0  0  0  0  0
   57.1930   23.8968   45.7845 H   0  0  0  0  0  0  0  0  0  0  0  0
   58.4214   21.6590   44.5896 H   0  0  0  0  0  0  0  0  0  0  0  0
   58.6617   20.0705   46.6473 H   0  0  0  0  0  0  0  0  0  0  0  0
   56.3943   19.7194   47.9443 H   0  0  0  0  0  0  0  0  0  0  0  0
  1  2  1  0
  2  3  2  0
  2  4  2  0
  2  5  1  0
  5  6  2  0
  6  7  1  0
  7  8  2  0
  8  9  1  0
  9 10  2  0
 10 11  1  0
 11 12  1  0
 12 13  2  0
 12 14  1  0
 14 15  1  0
 15 16  1  0
 16 17  2  0
 16 18  2  0
 16 19  1  0
 19 20  2  0
 20 21  1  0
 21 22  2  0
 22 23  1  0
 10  5  1  0
 23 19  1  0
  1 24  1  0
  1 25  1  0
  1 26  1  0
  6 27  1  0
  7 28  1  0
  8 29  1  0
  9 30  1  0
 14 31  1  0
 14 32  1  0
 20 33  1  0
 21 34  1  0
 22 35  1  0
M  CHG  2  11  -1  15  -1
M  END
>  <UniqueID>  (11) 
11

>  <SMILES>  (11) 
CS(=O)(=O)c1ccccc1[N-]C(=O)C[N-]S(=O)(=O)c1cccs1

>  <Energy>  (11) 
60.574578378079295

>  <Genealogy>  (11) 
CS(=O)(=O)c1ccccc1[N-]C(=O)C[N-]S(=O)(=O)c1cccs1 (protonated)
CS(=O)(=O)c1ccccc1[N-]C(=O)C[N-]S(=O)(=O)c1cccs1 (3D coordinates assigned)
CS(=O)(=O)c1ccccc1[N-]C(=O)C[N-]S(=O)(=O)c1cccs1 (optimized conformer: 60.574578378079295 kcal/mol)

>  <smiles>  (11) 
CS(=O)(=O)c1ccccc1NC(=O)CNS(=O)(=O)c1cccs1

>  <score_type>  (11) 
oracle

>  <origin>  (11) 
adg

>  <m_score__min__energy>  (11) 
-12.23

>  <m_primary>  (11) 
energy

$$$$
11:0
     RDKit          3D

 46 49  0  0  0  0  0  0  0  0999 V2000
   59.0812   23.2136   45.9269 H   0  0  0  0  0  0  0  0  0  0  0  0
   58.2210   23.8980   45.9680 C   0  0  0  0  0  0  0  0  0  0  0  0
   58.3180   25.1420   45.4330 N   0  0  0  0  0  0  0  0  0  0  0  0
   57.2860   26.0310   45.4410 C   0  0  0  0  0  0  0  0  0  0  0  0
   57.5330   27.2320   44.9870 N   0  0  0  0  0  0  0  0  0  0  0  0
   56.9190   28.4810   45.3310 C   0  0  0  0  0  0  0  0  0  0  0  0
   55.7020   28.6880   45.0700 O   0  0  0  0  0  0  0  0  0  0  0  0
   57.6850   29.4790   46.0860 C   0  0  0  0  0  0  0  0  0  0  0  0
   57.8360   30.7590   45.6930 N   0  0  0  0  0  0  0  0  0  0  0  0
   58.5810   31.3780   46.5970 N   0  0  0  0  0  0  0  0  0  0  0  0
   58.9010   32.7810   46.5170 C   0  0  0  0  0  0  0  0  0  0  0  0
   59.2180   33.3540   45.2720 C   0  0  0  0  0  0  0  0  0  0  0  0
   59.2115   32.7297   44.3663 H   0  0  0  0  0  0  0  0  0  0  0  0
   59.5410   34.7100   45.1770 C   0  0  0  0  0  0  0  0  0  0  0  0
   59.7791   35.1506   44.1976 H   0  0  0  0  0  0  0  0  0  0  0  0
   59.5620   35.5070   46.3240 C   0  0  0  0  0  0  0  0  0  0  0  0
   59.8114   36.5756   46.2472 H   0  0  0  0  0  0  0  0  0  0  0  0
   59.2660   34.9460   47.5690 C   0  0  0  0  0  0  0  0  0  0  0  0
   59.2873   35.5728   48.4727 H   0  0  0  0  0  0  0  0  0  0  0  0
   58.9430   33.5900   47.6680 C   0  0  0  0  0  0  0  0  0  0  0  0
   58.7201   33.1519   48.6521 H   0  0  0  0  0  0  0  0  0  0  0  0
   58.8870   30.5030   47.5840 C   0  0  0  0  0  0  0  0  0  0  0  0
   59.5800   30.8190   48.6420 N   0  0  0  0  0  0  0  0  0  0  0  0
   61.0030   30.7170   48.8130 C   0  0  0  0  0  0  0  0  0  0  0  0
   61.5120   29.7240   49.4000 O   0  0  0  0  0  0  0  0  0  0  0  0
   61.8740   31.8380   48.4060 C   0  0  0  0  0  0  0  0  0  0  0  0
   62.6760   31.6970   47.2590 C   0  0  0  0  0  0  0  0  0  0  0  0
   62.6310   30.7675   46.6725 H   0  0  0  0  0  0  0  0  0  0  0  0
   63.5290   32.7280   46.8590 C   0  0  0  0  0  0  0  0  0  0  0  0
   64.1574   32.6053   45.9645 H   0  0  0  0  0  0  0  0  0  0  0  0
   63.5850   33.9140   47.5930 C   0  0  0  0  0  0  0  0  0  0  0  0
   64.2643   34.7214   47.2820 H   0  0  0  0  0  0  0  0  0  0  0  0
   62.7790   34.0760   48.7220 C   0  0  0  0  0  0  0  0  0  0  0  0
   62.8201   35.0155   49.2927 H   0  0  0  0  0  0  0  0  0  0  0  0
   61.9190   33.0500   49.1320 C   0  0  0  0  0  0  0  0  0  0  0  0
   60.8550   33.3610   50.4990 Cl  0  0  0  0  0  0  0  0  0  0  0  0
   58.3360   29.2670   47.2870 C   0  0  0  0  0  0  0  0  0  0  0  0
   58.4012   28.3362   47.8696 H   0  0  0  0  0  0  0  0  0  0  0  0
   56.0260   25.6110   45.9580 C   0  0  0  0  0  0  0  0  0  0  0  0
   54.8110   26.3400   45.7450 N   0  0  0  0  0  0  0  0  0  0  0  0
   54.0320   26.3030   46.4380 H   0  0  0  0  0  0  0  0  0  0  0  0
   54.7690   27.0940   45.0240 H   0  0  0  0  0  0  0  0  0  0  0  0
   55.9370   24.3440   46.5570 C   0  0  0  0  0  0  0  0  0  0  0  0
   54.9921   24.0252   47.0213 H   0  0  0  0  0  0  0  0  0  0  0  0
   57.0350   23.4880   46.5680 C   0  0  0  0  0  0  0  0  0  0  0  0
   56.9654   22.4994   47.0454 H   0  0  0  0  0  0  0  0  0  0  0  0
  1  2  1  0
  2  3  1  0
  3  4  1  0
  4  5  2  0
  5  6  1  0
  6  7  2  0
  6  8  1  0
  8  9  1  0
  9 10  1  0
 10 11  1  0
 11 12  2  0
 12 13  1  0
 12 14  1  0
 14 15  1  0
 14 16  2  0
 16 17  1  0
 16 18  1  0
 18 19  1  0
 18 20  2  0
 20 21  1  0
 10 22  1  0
 22 23  2  0
 23 24  1  0
 24 25  2  0
 24 26  1  0
 26 27  2  0
 27 28  1  0
 27 29  1  0
 29 30  1  0
 29 31  2  0
 31 32  1  0
 31 33  1  0
 33 34  1  0
 33 35  2  0
 35 36  1  0
 22 37  1  0
 37 38  1  0
  4 39  1  0
 39 40  1  0
 40 41  1  0
 40 42  1  0
 39 43  2  0
 43 44  1  0
 43 45  1  0
 45 46  1  0
 45  2  2  0
 37  8  2  0
 20 11  1  0
 35 26  1  0
M  CHG  2   3  -1   9  -1
M  END
>  <UniqueID>  (12) 
12

>  <SMILES>  (12) 
Nc1ccc[n-]/c1=N/C(=O)c1c/c(=N\C(=O)c2ccccc2Cl)n(-c2ccccc2)[n-]1

>  <Energy>  (12) 
111.74746672458103

>  <Genealogy>  (12) 
Nc1ccc[n-]c1=NC(=O)c1cc(=NC(=O)c2ccccc2Cl)n(-c2ccccc2)[n-]1 (protonated)
Nc1ccc[n-]/c1=N/C(=O)c1c/c(=N\C(=O)c2ccccc2Cl)n(-c2ccccc2)[n-]1 (cis-trans isomerization)
Nc1ccc[n-]/c1=N/C(=O)c1c/c(=N\C(=O)c2ccccc2Cl)n(-c2ccccc2)[n-]1 (3D coordinates assigned)
Nc1ccc[n-]/c1=N/C(=O)c1c/c(=N\C(=O)c2ccccc2Cl)n(-c2ccccc2)[n-]1 (optimized conformer: 111.74746672458103 kcal/mol)

>  <smiles>  (12) 
Nc1ccc[nH]c1=NC(=O)c1cc(=NC(=O)c2ccccc2Cl)n(-c2ccccc2)[nH]1

>  <score_type>  (12) 
oracle

>  <origin>  (12) 
adg

>  <m_score__min__energy>  (12) 
-11.81

>  <m_primary>  (12) 
energy

$$$$
12:0
     RDKit          3D

 43 45  0  0  0  0  0  0  0  0999 V2000
   55.3364   21.1593   46.0436 H   0  0  0  0  0  0  0  0  0  0  0  0
   55.1290   22.2390   46.0100 C   0  0  0  0  0  0  0  0  0  0  0  0
   56.0170   23.1190   46.5480 N   0  0  0  0  0  0  0  0  0  0  0  0
   55.8020   24.4660   46.5300 C   0  0  0  0  0  0  0  0  0  0  0  0
   56.6610   25.2960   47.0520 N   0  0  0  0  0  0  0  0  0  0  0  0
   57.8780   25.7730   46.4490 C   0  0  0  0  0  0  0  0  0  0  0  0
   58.9930   25.6510   47.0310 O   0  0  0  0  0  0  0  0  0  0  0  0
   57.8150   26.4510   45.1160 C   0  0  0  0  0  0  0  0  0  0  0  0
   56.8011   26.3458   44.7024 H   0  0  0  0  0  0  0  0  0  0  0  0
   58.5466   25.9834   44.4407 H   0  0  0  0  0  0  0  0  0  0  0  0
   58.1440   27.9130   45.2600 C   0  0  0  0  0  0  0  0  0  0  0  0
   57.1420   28.8750   45.0670 C   0  0  0  0  0  0  0  0  0  0  0  0
   56.1281   28.5575   44.7820 H   0  0  0  0  0  0  0  0  0  0  0  0
   57.4220   30.2340   45.2340 C   0  0  0  0  0  0  0  0  0  0  0  0
   56.6276   30.9783   45.0760 H   0  0  0  0  0  0  0  0  0  0  0  0
   58.7100   30.6570   45.6020 C   0  0  0  0  0  0  0  0  0  0  0  0
   59.0070   32.0990   45.7910 C   0  0  0  0  0  0  0  0  0  0  0  0
   58.1320   33.0790   45.2900 C   0  0  0  0  0  0  0  0  0  0  0  0
   57.2236   32.7754   44.7490 H   0  0  0  0  0  0  0  0  0  0  0  0
   58.4090   34.4370   45.4750 C   0  0  0  0  0  0  0  0  0  0  0  0
   57.7235   35.1964   45.0709 H   0  0  0  0  0  0  0  0  0  0  0  0
   59.5530   34.8320   46.1710 C   0  0  0  0  0  0  0  0  0  0  0  0
   59.7702   35.9017   46.3076 H   0  0  0  0  0  0  0  0  0  0  0  0
   60.4270   33.8670   46.6970 C   0  0  0  0  0  0  0  0  0  0  0  0
   61.6290   34.2430   47.3820 N   0  0  0  0  0  0  0  0  0  0  0  0
   62.9440   33.7330   47.1260 C   0  0  0  0  0  0  0  0  0  0  0  0
   63.6180   34.2280   46.1890 O   0  0  0  0  0  0  0  0  0  0  0  0
   63.5250   32.6030   47.9190 C   0  0  0  0  0  0  0  0  0  0  0  0
   63.4162   32.8147   48.9929 H   0  0  0  0  0  0  0  0  0  0  0  0
   62.9940   31.6715   47.6732 H   0  0  0  0  0  0  0  0  0  0  0  0
   64.5915   32.4929   47.6732 H   0  0  0  0  0  0  0  0  0  0  0  0
   60.1610   32.5080   46.4850 C   0  0  0  0  0  0  0  0  0  0  0  0
   60.8628   31.7513   46.8657 H   0  0  0  0  0  0  0  0  0  0  0  0
   59.7110   29.6910   45.8060 C   0  0  0  0  0  0  0  0  0  0  0  0
   60.7236   30.0083   46.0956 H   0  0  0  0  0  0  0  0  0  0  0  0
   59.4310   28.3300   45.6440 C   0  0  0  0  0  0  0  0  0  0  0  0
   60.4150   27.4240   45.8700 F   0  0  0  0  0  0  0  0  0  0  0  0
   54.6300   24.9680   45.9390 C   0  0  0  0  0  0  0  0  0  0  0  0
   54.3780   26.3380   45.9040 O   0  0  0  0  0  0  0  0  0  0  0  0
   53.7060   24.0790   45.3810 C   0  0  0  0  0  0  0  0  0  0  0  0
   52.7853   24.4612   44.9161 H   0  0  0  0  0  0  0  0  0  0  0  0
   53.9540   22.7060   45.4150 C   0  0  0  0  0  0  0  0  0  0  0  0
   53.2327   21.9995   44.9784 H   0  0  0  0  0  0  0  0  0  0  0  0
  1  2  1  0
  2  3  1  0
  3  4  1  0
  4  5  2  0
  5  6  1  0
  6  7  2  0
  6  8  1  0
  8  9  1  0
  8 10  1  0
  8 11  1  0
 11 12  2  0
 12 13  1  0
 12 14  1  0
 14 15  1  0
 14 16  2  0
 16 17  1  0
 17 18  2  0
 18 19  1  0
 18 20  1  0
 20 21  1  0
 20 22  2  0
 22 23  1  0
 22 24  1  0
 24 25  1  0
 25 26  1  0
 26 27  2  0
 26 28  1  0
 28 29  1  0
 28 30  1  0
 28 31  1  0
 24 32  2  0
 32 33  1  0
 16 34  1  0
 34 35  1  0
 34 36  2  0
 36 37  1  0
  4 38  1  0
 38 39  1  0
 38 40  2  0
 40 41  1  0
 40 42  1  0
 42 43  1  0
 42  2  2  0
 36 11  1  0
 32 17  1  0
M  CHG  3   3  -1  25  -1  39  -1
M  END
>  <UniqueID>  (13) 
13

>  <SMILES>  (13) 
CC(=O)[N-]c1cccc(-c2ccc(CC(=O)/N=c3\[n-]cccc3[O-])c(F)c2)c1

>  <Energy>  (13) 
56.83251579793886

>  <Genealogy>  (13) 
CC(=O)[N-]c1cccc(-c2ccc(CC(=O)N=c3[n-]cccc3[O-])c(F)c2)c1 (protonated)
CC(=O)[N-]c1cccc(-c2ccc(CC(=O)/N=c3\[n-]cccc3[O-])c(F)c2)c1 (cis-trans isomerization)
CC(=O)[N-]c1cccc(-c2ccc(CC(=O)/N=c3\[n-]cccc3[O-])c(F)c2)c1 (3D coordinates assigned)
CC(=O)[N-]c1cccc(-c2ccc(CC(=O)/N=c3\[n-]cccc3[O-])c(F)c2)c1 (optimized conformer: 56.83251579793886 kcal/mol)

>  <smiles>  (13) 
CC(=O)Nc1cccc(-c2ccc(CC(=O)N=c3[nH]cccc3O)c(F)c2)c1

>  <score_type>  (13) 
oracle

>  <origin>  (13) 
adg

>  <m_score__min__energy>  (13) 
-14.359999999999999

>  <m_primary>  (13) 
energy

$$$$
13:0
     RDKit          3D

 41 43  0  0  0  0  0  0  0  0999 V2000
   59.4745   35.6794   44.9358 H   0  0  0  0  0  0  0  0  0  0  0  0
   59.0650   34.7440   45.3450 C   0  0  0  0  0  0  0  0  0  0  0  0
   59.2020   34.4660   46.6670 N   0  0  0  0  0  0  0  0  0  0  0  0
   58.7200   33.3170   47.2110 C   0  0  0  0  0  0  0  0  0  0  0  0
   58.9020   33.0500   48.6710 C   0  0  0  0  0  0  0  0  0  0  0  0
   58.3763   33.8212   49.2531 H   0  0  0  0  0  0  0  0  0  0  0  0
   58.4897   32.0603   48.9170 H   0  0  0  0  0  0  0  0  0  0  0  0
   59.9739   33.0720   48.9170 H   0  0  0  0  0  0  0  0  0  0  0  0
   58.0610   32.3840   46.3990 C   0  0  0  0  0  0  0  0  0  0  0  0
   57.6886   31.4424   46.8287 H   0  0  0  0  0  0  0  0  0  0  0  0
   57.8780   32.6590   45.0280 C   0  0  0  0  0  0  0  0  0  0  0  0
   57.2510   31.8470   44.2210 N   0  0  0  0  0  0  0  0  0  0  0  0
   56.7810   30.5190   44.5100 C   0  0  0  0  0  0  0  0  0  0  0  0
   55.5380   30.3110   44.5170 O   0  0  0  0  0  0  0  0  0  0  0  0
   57.7090   29.4190   44.8780 C   0  0  0  0  0  0  0  0  0  0  0  0
   59.0980   29.6270   44.8620 C   0  0  0  0  0  0  0  0  0  0  0  0
   59.5001   30.6072   44.5662 H   0  0  0  0  0  0  0  0  0  0  0  0
   59.9720   28.5980   45.2190 C   0  0  0  0  0  0  0  0  0  0  0  0
   61.0584   28.7692   45.1983 H   0  0  0  0  0  0  0  0  0  0  0  0
   59.4710   27.3530   45.6020 C   0  0  0  0  0  0  0  0  0  0  0  0
   60.1652   26.5484   45.8861 H   0  0  0  0  0  0  0  0  0  0  0  0
   58.0870   27.1210   45.6270 C   0  0  0  0  0  0  0  0  0  0  0  0
   57.5710   25.8430   46.0450 N   0  0  0  0  0  0  0  0  0  0  0  0
   58.2940   24.7530   46.3870 C   0  0  0  0  0  0  0  0  0  0  0  0
   59.3916   24.6804   46.3937 H   0  0  0  0  0  0  0  0  0  0  0  0
   57.4120   23.7480   46.7260 C   0  0  0  0  0  0  0  0  0  0  0  0
   57.7600   22.4610   47.1180 O   0  0  0  0  0  0  0  0  0  0  0  0
   56.1500   24.2010   46.6160 N   0  0  0  0  0  0  0  0  0  0  0  0
   54.6810   23.3280   46.9120 S   0  0  0  0  0  0  0  0  0  0  0  0
   54.3710   23.3360   48.3820 O   0  0  0  0  0  0  0  0  0  0  0  0
   53.5480   23.9830   46.1740 O   0  0  0  0  0  0  0  0  0  0  0  0
   54.8700   21.6500   46.3530 C   0  0  0  0  0  0  0  0  0  0  0  0
   54.9454   20.9802   47.2223 H   0  0  0  0  0  0  0  0  0  0  0  0
   53.9982   21.3655   45.7455 H   0  0  0  0  0  0  0  0  0  0  0  0
   55.7832   21.5666   45.7455 H   0  0  0  0  0  0  0  0  0  0  0  0
   56.2770   25.4740   46.1990 C   0  0  0  0  0  0  0  0  0  0  0  0
   55.2950   26.2430   46.0030 O   0  0  0  0  0  0  0  0  0  0  0  0
   57.2140   28.1510   45.2370 C   0  0  0  0  0  0  0  0  0  0  0  0
   56.1303   27.9640   45.2120 H   0  0  0  0  0  0  0  0  0  0  0  0
   58.4060   33.8460   44.5040 C   0  0  0  0  0  0  0  0  0  0  0  0
   58.3015   34.0698   43.4321 H   0  0  0  0  0  0  0  0  0  0  0  0
  1  2  1  0
  2  3  1  0
  3  4  1  0
  4  5  1  0
  5  6  1  0
  5  7  1  0
  5  8  1  0
  4  9  2  0
  9 10  1  0
  9 11  1  0
 11 12  2  0
 12 13  1  0
 13 14  2  0
 13 15  1  0
 15 16  2  0
 16 17  1  0
 16 18  1  0
 18 19  1  0
 18 20  2  0
 20 21  1  0
 20 22  1  0
 22 23  1  0
 23 24  1  0
 24 25  1  0
 24 26  2  0
 26 27  1  0
 26 28  1  0
 28 29  1  0
 29 30  2  0
 29 31  2  0
 29 32  1  0
 32 33  1  0
 32 34  1  0
 32 35  1  0
 28 36  1  0
 36 37  2  0
 22 38  2  0
 38 39  1  0
 11 40  1  0
 40 41  1  0
 40  2  2  0
 38 15  1  0
 36 23  1  0
M  CHG  2   3  -1  27  -1
M  END
>  <UniqueID>  (14) 
14

>  <SMILES>  (14) 
Cc1c/c(=N\C(=O)c2cccc(-n3cc([O-])n(S(C)(=O)=O)c3=O)c2)cc[n-]1

>  <Energy>  (14) 
89.0859620894279

>  <Genealogy>  (14) 
Cc1cc(=NC(=O)c2cccc(-n3cc([O-])n(S(C)(=O)=O)c3=O)c2)cc[n-]1 (protonated)
Cc1c/c(=N\C(=O)c2cccc(-n3cc([O-])n(S(C)(=O)=O)c3=O)c2)cc[n-]1 (cis-trans isomerization)
Cc1c/c(=N\C(=O)c2cccc(-n3cc([O-])n(S(C)(=O)=O)c3=O)c2)cc[n-]1 (3D coordinates assigned)
Cc1c/c(=N\C(=O)c2cccc(-n3cc([O-])n(S(C)(=O)=O)c3=O)c2)cc[n-]1 (optimized conformer: 89.0859620894279 kcal/mol)

>  <smiles>  (14) 
Cc1cc(=NC(=O)c2cccc(-n3cc(O)n(S(C)(=O)=O)c3=O)c2)cc[nH]1

>  <score_type>  (14) 
oracle

>  <origin>  (14) 
adg

>  <m_score__min__energy>  (14) 
-11.66

>  <m_primary>  (14) 
energy

$$$$
14:0
     RDKit          3D

 43 46  0  0  0  0  0  0  0  0999 V2000
   65.4400   32.7310   49.7380 C   0  0  0  0  0  0  0  0  0  0  0  0
   64.2140   33.1880   49.0980 N   0  0  0  0  0  0  0  0  0  0  0  0
   63.9150   33.0670   47.7890 C   0  0  0  0  0  0  0  0  0  0  0  0
   62.6420   33.5560   47.5820 C   0  0  0  0  0  0  0  0  0  0  0  0
   62.2270   33.9460   48.8390 C   0  0  0  0  0  0  0  0  0  0  0  0
   61.0640   34.4620   49.1000 N   0  0  0  0  0  0  0  0  0  0  0  0
   59.8100   33.7610   49.1220 C   0  0  0  0  0  0  0  0  0  0  0  0
   59.2430   33.4980   50.2190 O   0  0  0  0  0  0  0  0  0  0  0  0
   59.1760   33.3420   47.8490 C   0  0  0  0  0  0  0  0  0  0  0  0
   58.8530   34.3060   46.8570 C   0  0  0  0  0  0  0  0  0  0  0  0
   58.2530   33.9210   45.6470 C   0  0  0  0  0  0  0  0  0  0  0  0
   57.9850   32.5720   45.4480 C   0  0  0  0  0  0  0  0  0  0  0  0
   57.4110   31.9380   44.3620 C   0  0  0  0  0  0  0  0  0  0  0  0
   57.3950   30.5910   44.7190 C   0  0  0  0  0  0  0  0  0  0  0  0
   56.9280   29.5460   43.9720 N   0  0  0  0  0  0  0  0  0  0  0  0
   56.3650   29.7640   42.6350 C   0  0  0  0  0  0  0  0  0  0  0  0
   57.0070   28.2830   44.4930 C   0  0  0  0  0  0  0  0  0  0  0  0
   57.5440   28.0550   45.7780 C   0  0  0  0  0  0  0  0  0  0  0  0
   57.6480   26.6500   46.3130 C   0  0  0  0  0  0  0  0  0  0  0  0
   56.2830   26.0720   46.5090 C   0  0  0  0  0  0  0  0  0  0  0  0
   56.1330   25.0160   47.1780 O   0  0  0  0  0  0  0  0  0  0  0  0
   55.1710   26.7250   45.9940 O   0  0  0  0  0  0  0  0  0  0  0  0
   58.0240   29.1600   46.5070 C   0  0  0  0  0  0  0  0  0  0  0  0
   58.5340   29.0010   47.6490 O   0  0  0  0  0  0  0  0  0  0  0  0
   57.9260   30.3970   45.9470 N   0  0  0  0  0  0  0  0  0  0  0  0
   58.2900   31.6210   46.3960 C   0  0  0  0  0  0  0  0  0  0  0  0
   58.8880   31.9750   47.6110 C   0  0  0  0  0  0  0  0  0  0  0  0
   63.1900   33.7100   49.7540 N   0  0  0  0  0  0  0  0  0  0  0  0
   65.3216   32.7751   50.8307 H   0  0  0  0  0  0  0  0  0  0  0  0
   65.6484   31.6948   49.4333 H   0  0  0  0  0  0  0  0  0  0  0  0
   66.2758   33.3780   49.4333 H   0  0  0  0  0  0  0  0  0  0  0  0
   64.5757   32.6484   47.0155 H   0  0  0  0  0  0  0  0  0  0  0  0
   62.0865   33.6202   46.6348 H   0  0  0  0  0  0  0  0  0  0  0  0
   59.0757   35.3678   47.0389 H   0  0  0  0  0  0  0  0  0  0  0  0
   58.0021   34.6666   44.8781 H   0  0  0  0  0  0  0  0  0  0  0  0
   57.0491   32.3932   43.4283 H   0  0  0  0  0  0  0  0  0  0  0  0
   55.3429   30.1598   42.7276 H   0  0  0  0  0  0  0  0  0  0  0  0
   56.9893   30.4854   42.0874 H   0  0  0  0  0  0  0  0  0  0  0  0
   56.3407   28.8103   42.0874 H   0  0  0  0  0  0  0  0  0  0  0  0
   56.6455   27.4303   43.8996 H   0  0  0  0  0  0  0  0  0  0  0  0
   58.2068   26.0288   45.5976 H   0  0  0  0  0  0  0  0  0  0  0  0
   58.1721   26.6710   47.2799 H   0  0  0  0  0  0  0  0  0  0  0  0
   59.1288   31.2098   48.3637 H   0  0  0  0  0  0  0  0  0  0  0  0
  1  2  1  0
  2  3  1  0
  3  4  2  0
  4  5  1  0
  5  6  2  3
  6  7  1  0
  7  8  2  0
  7  9  1  0
  9 10  2  0
 10 11  1  0
 11 12  2  0
 12 13  1  0
 13 14  2  0
 14 15  1  0
 15 16  1  0
 15 17  1  0
 17 18  2  0
 18 19  1  0
 19 20  1  0
 20 21  2  0
 20 22  1  0
 18 23  1  0
 23 24  2  0
 23 25  1  0
 25 26  1  0
 26 27  2  0
  5 28  1  0
 28  2  1  0
 27  9  1  0
 26 12  1  0
 25 14  1  0
  1 29  1  0
  1 30  1  0
  1 31  1  0
  3 32  1  0
  4 33  1  0
 10 34  1  0
 11 35  1  0
 13 36  1  0
 16 37  1  0
 16 38  1  0
 16 39  1  0
 17 40  1  0
 19 41  1  0
 19 42  1  0
 27 43  1  0
M  CHG  2  22  -1  28  -1
M  END
>  <UniqueID>  (15) 
15

>  <SMILES>  (15) 
Cn1ccc(=NC(=O)c2ccc3cc4n(C)cc(CC(=O)[O-])c(=O)n4c3c2)[n-]1

>  <Energy>  (15) 
120.85684704187594

>  <Genealogy>  (15) 
Cn1ccc(=NC(=O)c2ccc3cc4n(C)cc(CC(=O)[O-])c(=O)n4c3c2)[n-]1 (protonated)
Cn1ccc(=NC(=O)c2ccc3cc4n(C)cc(CC(=O)[O-])c(=O)n4c3c2)[n-]1 (3D coordinates assigned)
Cn1ccc(=NC(=O)c2ccc3cc4n(C)cc(CC(=O)[O-])c(=O)n4c3c2)[n-]1 (optimized conformer: 120.85684704187594 kcal/mol)

>  <smiles>  (15) 
Cn1ccc(=NC(=O)c2ccc3cc4n(C)cc(CC(=O)O)c(=O)n4c3c2)[nH]1

>  <score_type>  (15) 
oracle

>  <origin>  (15) 
adg

>  <m_score__min__energy>  (15) 
-12.48

>  <m_primary>  (15) 
energy

$$$$
15:0
     RDKit          3D

 57 60  0  0  0  0  0  0  0  0999 V2000
   66.5020   32.6700   50.3440 C   0  0  0  0  0  0  0  0  0  0  0  0
   65.4480   33.4550   49.7880 O   0  0  0  0  0  0  0  0  0  0  0  0
   64.3420   32.9260   49.1000 C   0  0  0  0  0  0  0  0  0  0  0  0
   64.0790   33.2220   47.7470 C   0  0  0  0  0  0  0  0  0  0  0  0
   62.9560   32.6790   47.1110 C   0  0  0  0  0  0  0  0  0  0  0  0
   62.0920   31.8350   47.8120 C   0  0  0  0  0  0  0  0  0  0  0  0
   62.3440   31.5260   49.1600 C   0  0  0  0  0  0  0  0  0  0  0  0
   61.3810   30.6750   49.9430 C   0  0  0  0  0  0  0  0  0  0  0  0
   60.7060   31.4890   50.9510 N   0  0  0  0  0  0  0  0  0  0  0  0
   60.0100   32.7140   50.6860 C   0  0  0  0  0  0  0  0  0  0  0  0
   59.7970   33.5090   51.6400 O   0  0  0  0  0  0  0  0  0  0  0  0
   59.5320   33.0620   49.3360 C   0  0  0  0  0  0  0  0  0  0  0  0
   58.4820   32.3190   48.7360 C   0  0  0  0  0  0  0  0  0  0  0  0
   58.0190   32.6440   47.4490 C   0  0  0  0  0  0  0  0  0  0  0  0
   58.6140   33.7230   46.7970 C   0  0  0  0  0  0  0  0  0  0  0  0
   58.3900   34.2860   45.5570 C   0  0  0  0  0  0  0  0  0  0  0  0
   57.4250   33.8340   44.5060 C   0  0  0  0  0  0  0  0  0  0  0  0
   57.6410   32.3790   44.1930 C   0  0  0  0  0  0  0  0  0  0  0  0
   58.4990   32.0730   43.3210 O   0  0  0  0  0  0  0  0  0  0  0  0
   56.9130   31.3180   44.8320 N   0  0  0  0  0  0  0  0  0  0  0  0
   56.3530   29.8320   44.1230 S   0  0  0  0  0  0  0  0  0  0  0  0
   55.9230   30.1210   42.7130 O   0  0  0  0  0  0  0  0  0  0  0  0
   55.1610   29.2970   44.8690 O   0  0  0  0  0  0  0  0  0  0  0  0
   57.6620   28.6170   44.0640 C   0  0  0  0  0  0  0  0  0  0  0  0
   58.4540   28.6020   45.3390 C   0  0  0  0  0  0  0  0  0  0  0  0
   59.2940   29.6790   45.6660 C   0  0  0  0  0  0  0  0  0  0  0  0
   60.0620   29.6420   46.8350 C   0  0  0  0  0  0  0  0  0  0  0  0
   60.0000   28.5300   47.6800 C   0  0  0  0  0  0  0  0  0  0  0  0
   59.1710   27.4530   47.3590 C   0  0  0  0  0  0  0  0  0  0  0  0
   59.1190   26.3680   48.1740 F   0  0  0  0  0  0  0  0  0  0  0  0
   58.4010   27.4870   46.1920 C   0  0  0  0  0  0  0  0  0  0  0  0
   59.3060   35.3270   45.4600 C   0  0  0  0  0  0  0  0  0  0  0  0
   60.0220   35.4060   46.5680 O   0  0  0  0  0  0  0  0  0  0  0  0
   59.6180   34.4540   47.3750 C   0  0  0  0  0  0  0  0  0  0  0  0
   60.0950   34.1600   48.6500 C   0  0  0  0  0  0  0  0  0  0  0  0
   63.4680   32.0780   49.7960 C   0  0  0  0  0  0  0  0  0  0  0  0
   66.4487   32.7097   51.4420 H   0  0  0  0  0  0  0  0  0  0  0  0
   66.3984   31.6273   50.0093 H   0  0  0  0  0  0  0  0  0  0  0  0
   67.4713   33.0679   50.0093 H   0  0  0  0  0  0  0  0  0  0  0  0
   64.7589   33.8823   47.1886 H   0  0  0  0  0  0  0  0  0  0  0  0
   62.7538   32.9178   46.0565 H   0  0  0  0  0  0  0  0  0  0  0  0
   61.2113   31.4106   47.3077 H   0  0  0  0  0  0  0  0  0  0  0  0
   60.6333   30.2467   49.2593 H   0  0  0  0  0  0  0  0  0  0  0  0
   61.9348   29.8659   50.4416 H   0  0  0  0  0  0  0  0  0  0  0  0
   58.0261   31.4808   49.2833 H   0  0  0  0  0  0  0  0  0  0  0  0
   57.2137   32.0659   46.9722 H   0  0  0  0  0  0  0  0  0  0  0  0
   56.3972   33.9785   44.8703 H   0  0  0  0  0  0  0  0  0  0  0  0
   57.5866   34.4252   43.5926 H   0  0  0  0  0  0  0  0  0  0  0  0
   57.2200   27.6222   43.9057 H   0  0  0  0  0  0  0  0  0  0  0  0
   58.3402   28.8790   43.2385 H   0  0  0  0  0  0  0  0  0  0  0  0
   59.3483   30.5539   45.0014 H   0  0  0  0  0  0  0  0  0  0  0  0
   60.7157   30.4893   47.0896 H   0  0  0  0  0  0  0  0  0  0  0  0
   60.6047   28.5034   48.5985 H   0  0  0  0  0  0  0  0  0  0  0  0
   57.7505   26.6363   45.9407 H   0  0  0  0  0  0  0  0  0  0  0  0
   59.4185   35.9884   44.5883 H   0  0  0  0  0  0  0  0  0  0  0  0
   60.8888   34.7668   49.1100 H   0  0  0  0  0  0  0  0  0  0  0  0
   63.6652   31.8426   50.8523 H   0  0  0  0  0  0  0  0  0  0  0  0
  1  2  1  0
  2  3  1  0
  3  4  2  0
  4  5  1  0
  5  6  2  0
  6  7  1  0
  7  8  1  0
  8  9  1  0
  9 10  1  0
 10 11  2  0
 10 12  1  0
 12 13  2  0
 13 14  1  0
 14 15  2  0
 15 16  1  0
 16 17  1  0
 17 18  1  0
 18 19  2  0
 18 20  1  0
 20 21  1  0
 21 22  2  0
 21 23  2  0
 21 24  1  0
 24 25  1  0
 25 26  2  0
 26 27  1  0
 27 28  2  0
 28 29  1  0
 29 30  1  0
 29 31  2  0
 16 32  2  0
 32 33  1  0
 33 34  1  0
 34 35  2  0
  7 36  2  0
 36  3  1  0
 35 12  1  0
 34 15  1  0
 31 25  1  0
  1 37  1  0
  1 38  1  0
  1 39  1  0
  4 40  1  0
  5 41  1  0
  6 42  1  0
  8 43  1  0
  8 44  1  0
 13 45  1  0
 14 46  1  0
 17 47  1  0
 17 48  1  0
 24 49  1  0
 24 50  1  0
 26 51  1  0
 27 52  1  0
 28 53  1  0
 31 54  1  0
 32 55  1  0
 35 56  1  0
 36 57  1  0
M  CHG  2   9  -1  20  -1
M  END
>  <UniqueID>  (16) 
16

>  <SMILES>  (16) 
COc1cccc(C[N-]C(=O)c2ccc3c(CC(=O)[N-]S(=O)(=O)Cc4cccc(F)c4)coc3c2)c1

>  <Energy>  (16) 
93.66776121467619

>  <Genealogy>  (16) 
COc1cccc(C[N-]C(=O)c2ccc3c(CC(=O)[N-]S(=O)(=O)Cc4cccc(F)c4)coc3c2)c1 (protonated)
COc1cccc(C[N-]C(=O)c2ccc3c(CC(=O)[N-]S(=O)(=O)Cc4cccc(F)c4)coc3c2)c1 (3D coordinates assigned)
COc1cccc(C[N-]C(=O)c2ccc3c(CC(=O)[N-]S(=O)(=O)Cc4cccc(F)c4)coc3c2)c1 (optimized conformer: 93.66776121467619 kcal/mol)

>  <smiles>  (16) 
COc1cccc(CNC(=O)c2ccc3c(CC(=O)NS(=O)(=O)Cc4cccc(F)c4)coc3c2)c1

>  <score_type>  (16) 
oracle

>  <origin>  (16) 
adg

>  <m_score__min__energy>  (16) 
-12.779999999999999

>  <m_primary>  (16) 
energy

$$$$
16:0
     RDKit          3D

 70 75  0  0  1  0  0  0  0  0999 V2000
   59.8690   31.8360   48.3030 O   0  0  0  0  0  0  0  0  0  0  0  0
   59.4660   32.9830   47.9880 C   0  0  0  0  0  0  0  0  0  0  0  0
   59.6160   34.0230   48.9300 N   0  0  0  0  0  0  0  0  0  0  0  0
   60.2070   33.8680   50.2400 C   0  0  0  0  0  0  0  0  0  0  0  0
   59.3040   33.2690   51.2400 C   0  0  0  0  0  0  0  0  0  0  0  0
   59.1230   33.7470   52.5160 C   0  0  0  0  0  0  0  0  0  0  0  0
   58.2300   33.0720   53.3320 C   0  0  0  0  0  0  0  0  0  0  0  0
   57.5300   31.9650   52.9280 C   0  0  0  0  0  0  0  0  0  0  0  0
   57.7420   31.5190   51.6380 C   0  0  0  0  0  0  0  0  0  0  0  0
   58.6050   32.1680   50.8430 N   0  0  0  0  0  0  0  0  0  0  0  0
   58.8670   33.1690   46.6650 C   0  0  0  0  0  0  0  0  0  0  0  0
   59.0680   34.2880   45.8940 C   0  0  0  0  0  0  0  0  0  0  0  0
   58.5020   34.4580   44.6390 C   0  0  0  0  0  0  0  0  0  0  0  0
   58.6200   28.9300   48.4620 C   0  0  0  0  0  0  0  0  0  0  0  0
   58.7030   27.7290   47.7830 C   0  0  0  0  0  0  0  0  0  0  0  0
   57.6460   27.4420   46.8740 N   0  0  0  0  0  0  0  0  0  0  0  0
   57.5460   28.1060   45.7580 C   0  0  0  0  0  0  0  0  0  0  0  0
   57.3720   29.3610   43.4130 N   0  0  0  0  0  0  0  0  0  0  0  0
   57.7910   28.0920   43.4050 C   0  0  0  0  0  0  0  0  0  0  0  0
   57.8890   27.4230   44.6090 C   0  0  0  0  0  0  0  0  0  0  0  0
   57.0370   30.0190   44.5600 C   0  0  0  0  0  0  0  0  0  0  0  0
   61.6360   28.9000   50.5320 N   0  0  0  0  0  0  0  0  0  0  0  0
   60.6800   28.4550   49.5980 C   0  0  0  0  0  0  0  0  0  0  0  0
   59.5970   29.2950   49.3620 C   0  0  0  0  0  0  0  0  0  0  0  0
   59.7680   26.8810   48.0010 C   0  0  0  0  0  0  0  0  0  0  0  0
   57.4610   32.2960   44.8880 C   0  0  0  0  0  0  0  0  0  0  0  0
   56.6490   31.2240   44.4300 N   0  0  0  0  0  0  0  0  0  0  0  0
   61.8920   30.1610   50.6970 C   0  0  0  0  0  0  0  0  0  0  0  0
   62.3720   31.0530   49.6340 C   0  0  0  0  0  0  0  0  0  0  0  0
   63.3330   32.1060   50.0380 C   0  0  0  0  0  0  0  0  0  0  0  0
   63.5160   32.3460   51.4900 C   0  0  0  0  0  0  0  0  0  0  0  0
   62.4930   31.7910   52.3790 C   0  0  0  0  0  0  0  0  0  0  0  0
   62.3180   32.3500   53.6350 C   0  0  0  0  0  0  0  0  0  0  0  0
   61.3590   31.8350   54.4860 C   0  0  0  0  0  0  0  0  0  0  0  0
   60.5470   30.7680   54.1440 C   0  0  0  0  0  0  0  0  0  0  0  0
   59.3550   30.1520   55.2460 Cl  0  0  0  0  0  0  0  0  0  0  0  0
   60.7250   30.2100   52.8850 C   0  0  0  0  0  0  0  0  0  0  0  0
   61.6810   30.7230   52.0340 C   0  0  0  0  0  0  0  0  0  0  0  0
   57.6990   33.4420   44.1590 C   0  0  0  0  0  0  0  0  0  0  0  0
   60.7510   27.2610   48.9150 C   0  0  0  0  0  0  0  0  0  0  0  0
   57.1260   29.3830   45.7410 N   0  0  0  0  0  0  0  0  0  0  0  0
   58.0510   32.1850   46.1280 C   0  0  0  0  0  0  0  0  0  0  0  0
   59.2720   34.9690   48.6470 H   0  0  0  0  0  0  0  0  0  0  0  0
   61.0936   33.2238   50.1451 H   0  0  0  0  0  0  0  0  0  0  0  0
   60.4529   34.8783   50.5990 H   0  0  0  0  0  0  0  0  0  0  0  0
   59.6671   34.6327   52.8758 H   0  0  0  0  0  0  0  0  0  0  0  0
   58.0748   33.4431   54.3558 H   0  0  0  0  0  0  0  0  0  0  0  0
   56.8285   31.4530   53.6031 H   0  0  0  0  0  0  0  0  0  0  0  0
   57.2049   30.6348   51.2643 H   0  0  0  0  0  0  0  0  0  0  0  0
   59.7093   35.0886   46.2913 H   0  0  0  0  0  0  0  0  0  0  0  0
   58.6858   35.3676   44.0484 H   0  0  0  0  0  0  0  0  0  0  0  0
   57.7664   29.6002   48.2822 H   0  0  0  0  0  0  0  0  0  0  0  0
   57.3000   29.8660   42.4840 H   0  0  0  0  0  0  0  0  0  0  0  0
   58.0519   27.5917   42.4607 H   0  0  0  0  0  0  0  0  0  0  0  0
   58.2299   26.3780   44.6509 H   0  0  0  0  0  0  0  0  0  0  0  0
   59.5203   30.2538   49.8956 H   0  0  0  0  0  0  0  0  0  0  0  0
   59.8412   25.9234   47.4646 H   0  0  0  0  0  0  0  0  0  0  0  0
   62.8605   30.4300   48.8703 H   0  0  0  0  0  0  0  0  0  0  0  0
   61.4803   31.5924   49.2820 H   0  0  0  0  0  0  0  0  0  0  0  0
   64.3145   31.8330   49.6230 H   0  0  0  0  0  0  0  0  0  0  0  0
   62.9021   33.0415   49.6517 H   0  0  0  0  0  0  0  0  0  0  0  0
   64.4833   31.9107   51.7812 H   0  0  0  0  0  0  0  0  0  0  0  0
   63.4490   33.4368   51.6150 H   0  0  0  0  0  0  0  0  0  0  0  0
   62.9398   33.1999   53.9530 H   0  0  0  0  0  0  0  0  0  0  0  0
   61.2357   32.2931   55.4784 H   0  0  0  0  0  0  0  0  0  0  0  0
   60.1040   29.3596   52.5669 H   0  0  0  0  0  0  0  0  0  0  0  0
   57.2362   33.5501   43.1670 H   0  0  0  0  0  0  0  0  0  0  0  0
   61.6042   26.5903   49.0947 H   0  0  0  0  0  0  0  0  0  0  0  0
   56.8710   29.8950   46.6130 H   0  0  0  0  0  0  0  0  0  0  0  0
   57.8665   31.2753   46.7183 H   0  0  0  0  0  0  0  0  0  0  0  0
  1  2  2  0
  2  3  1  0
  3  4  1  0
  4  5  1  0
  5  6  2  0
  6  7  1  0
  7  8  2  0
  8  9  1  0
  9 10  2  0
  2 11  1  0
 11 12  2  0
 12 13  1  0
 13 14  2  0
 14 15  1  0
 15 16  1  0
 16 17  2  0
 17 18  1  0
 18 19  1  0
 19 20  2  0
 20 21  1  0
 21 22  2  0
 22 23  1  0
 23 24  2  0
 24 25  1  0
 25 26  2  0
 26 27  1  0
 27 28  2  0
 28 29  1  0
 29 30  1  0
 30 31  1  0
 31 32  1  0
 32 33  2  0
 33 34  1  0
 34 35  2  0
 35 36  1  0
 35 37  1  0
 37 38  2  0
 26 39  1  0
 39 40  2  0
 21 41  1  0
 15 42  2  0
 10  5  1  0
 42 11  1  0
 41 17  1  0
 40 23  1  0
 38 28  1  0
 38 32  1  0
  3 43  1  0
  4 44  1  0
  4 45  1  0
  6 46  1  0
  7 47  1  0
  8 48  1  0
  9 49  1  0
 12 50  1  0
 13 51  1  0
 14 52  1  0
 18 53  1  0
 19 54  1  0
 20 55  1  0
 24 56  1  0
 25 57  1  0
 29 58  1  0
 29 59  1  0
 30 60  1  0
 30 61  1  0
 31 62  1  0
 31 63  1  0
 33 64  1  0
 34 65  1  0
 37 66  1  0
 39 67  1  0
 40 68  1  0
 41 69  1  0
 42 70  1  0
M  END
>  <smiles>  (17) 
O=C(NCc1ccccn1)c1cccc(N=c2[nH]ccc(=Nc3ccc(N=C4CCCc5ccc(Cl)cc54)cc3)[nH]2)c1

>  <score_type>  (17) 
oracle

>  <origin>  (17) 
adg

>  <m_score__min__energy>  (17) 
-11.32

>  <m_primary>  (17) 
energy

$$$$
17:0
     RDKit          3D

 54 56  0  0  0  0  0  0  0  0999 V2000
   61.1240   30.6520   49.0910 C   0  0  0  0  0  0  0  0  0  0  0  0
   60.0090   29.6260   49.3940 C   0  0  0  0  0  0  0  0  0  0  0  0
   60.6960   28.3100   49.8320 C   0  0  0  0  0  0  0  0  0  0  0  0
   59.1920   29.3360   48.1210 C   0  0  0  0  0  0  0  0  0  0  0  0
   59.0780   30.1260   50.5070 C   0  0  0  0  0  0  0  0  0  0  0  0
   58.7410   29.3070   51.5460 N   0  0  0  0  0  0  0  0  0  0  0  0
   57.8980   29.8950   52.4230 C   0  0  0  0  0  0  0  0  0  0  0  0
   57.4350   29.3210   53.4940 N   0  0  0  0  0  0  0  0  0  0  0  0
   56.1310   28.7390   53.6460 C   0  0  0  0  0  0  0  0  0  0  0  0
   55.9440   27.5090   53.4260 O   0  0  0  0  0  0  0  0  0  0  0  0
   55.0380   29.5810   54.0390 N   0  0  0  0  0  0  0  0  0  0  0  0
   53.7090   29.1000   54.3020 C   0  0  0  0  0  0  0  0  0  0  0  0
   53.4820   27.8620   54.3820 O   0  0  0  0  0  0  0  0  0  0  0  0
   52.5940   30.0770   54.5510 C   0  0  0  0  0  0  0  0  0  0  0  0
   52.1990   30.7890   53.2840 C   0  0  0  0  0  0  0  0  0  0  0  0
   52.5640   30.2610   52.0340 C   0  0  0  0  0  0  0  0  0  0  0  0
   52.1670   30.9010   50.8560 C   0  0  0  0  0  0  0  0  0  0  0  0
   51.4030   32.0700   50.9150 C   0  0  0  0  0  0  0  0  0  0  0  0
   51.0130   32.7010   49.7390 O   0  0  0  0  0  0  0  0  0  0  0  0
   51.0310   32.6000   52.1570 C   0  0  0  0  0  0  0  0  0  0  0  0
   50.2680   33.7620   52.2210 O   0  0  0  0  0  0  0  0  0  0  0  0
   51.4220   31.9590   53.3380 C   0  0  0  0  0  0  0  0  0  0  0  0
   57.5070   31.4530   51.9660 S   0  0  0  0  0  0  0  0  0  0  0  0
   58.4700   31.3980   50.5790 C   0  0  0  0  0  0  0  0  0  0  0  0
   58.5350   32.4940   49.5930 C   0  0  0  0  0  0  0  0  0  0  0  0
   58.1380   32.3870   48.3150 C   0  0  0  0  0  0  0  0  0  0  0  0
   58.4910   33.3320   47.2330 C   0  0  0  0  0  0  0  0  0  0  0  0
   59.5770   34.2200   47.3530 C   0  0  0  0  0  0  0  0  0  0  0  0
   59.9010   35.0830   46.3020 C   0  0  0  0  0  0  0  0  0  0  0  0
   59.1610   35.0520   45.1170 C   0  0  0  0  0  0  0  0  0  0  0  0
   58.1020   34.1520   44.9770 C   0  0  0  0  0  0  0  0  0  0  0  0
   57.7740   33.2880   46.0260 C   0  0  0  0  0  0  0  0  0  0  0  0
   61.5382   31.0332   50.0361 H   0  0  0  0  0  0  0  0  0  0  0  0
   61.9219   30.1657   48.5106 H   0  0  0  0  0  0  0  0  0  0  0  0
   60.7056   31.4875   48.5106 H   0  0  0  0  0  0  0  0  0  0  0  0
   60.7229   28.2584   50.9305 H   0  0  0  0  0  0  0  0  0  0  0  0
   60.1305   27.4525   49.4384 H   0  0  0  0  0  0  0  0  0  0  0  0
   61.7228   28.2838   49.4384 H   0  0  0  0  0  0  0  0  0  0  0  0
   58.1897   28.9802   48.4017 H   0  0  0  0  0  0  0  0  0  0  0  0
   59.1010   30.2567   47.5261 H   0  0  0  0  0  0  0  0  0  0  0  0
   59.7018   28.5639   47.5261 H   0  0  0  0  0  0  0  0  0  0  0  0
   55.2200   30.6070   54.1230 H   0  0  0  0  0  0  0  0  0  0  0  0
   51.7220   29.5335   54.9436 H   0  0  0  0  0  0  0  0  0  0  0  0
   52.9437   30.8263   55.2765 H   0  0  0  0  0  0  0  0  0  0  0  0
   53.1643   29.3407   51.9821 H   0  0  0  0  0  0  0  0  0  0  0  0
   52.4566   30.4835   49.8804 H   0  0  0  0  0  0  0  0  0  0  0  0
   51.1202   32.3722   54.3118 H   0  0  0  0  0  0  0  0  0  0  0  0
   58.9352   33.4626   49.9272 H   0  0  0  0  0  0  0  0  0  0  0  0
   57.5006   31.5299   48.0519 H   0  0  0  0  0  0  0  0  0  0  0  0
   60.1729   34.2348   48.2775 H   0  0  0  0  0  0  0  0  0  0  0  0
   60.7394   35.7872   46.4079 H   0  0  0  0  0  0  0  0  0  0  0  0
   59.4127   35.7369   44.2938 H   0  0  0  0  0  0  0  0  0  0  0  0
   57.5256   34.1230   44.0406 H   0  0  0  0  0  0  0  0  0  0  0  0
   56.9497   32.5696   45.9054 H   0  0  0  0  0  0  0  0  0  0  0  0
  1  2  1  0
  2  3  1  0
  2  4  1  0
  2  5  1  0
  5  6  1  0
  6  7  1  0
  7  8  2  3
  8  9  1  0
  9 10  2  0
  9 11  1  0
 11 12  1  0
 12 13  2  0
 12 14  1  0
 14 15  1  0
 15 16  2  0
 16 17  1  0
 17 18  2  0
 18 19  1  0
 18 20  1  0
 20 21  1  0
 20 22  2  0
  7 23  1  0
 23 24  1  0
 24 25  1  0
 25 26  2  3
 26 27  1  0
 27 28  2  0
 28 29  1  0
 29 30  2  0
 30 31  1  0
 31 32  2  0
 24  5  2  0
 32 27  1  0
 22 15  1  0
  1 33  1  0
  1 34  1  0
  1 35  1  0
  3 36  1  0
  3 37  1  0
  3 38  1  0
  4 39  1  0
  4 40  1  0
  4 41  1  0
 11 42  1  0
 14 43  1  0
 14 44  1  0
 16 45  1  0
 17 46  1  0
 22 47  1  0
 25 48  1  0
 26 49  1  0
 28 50  1  0
 29 51  1  0
 30 52  1  0
 31 53  1  0
 32 54  1  0
M  CHG  3   6  -1  19  -1  21  -1
M  END
>  <UniqueID>  (18) 
17

>  <SMILES>  (18) 
CC(C)(C)c1[n-]c(=NC(=O)NC(=O)Cc2ccc([O-])c([O-])c2)sc1C=Cc1ccccc1

>  <Energy>  (18) 
95.68812936821568

>  <Genealogy>  (18) 
CC(C)(C)c1[n-]c(=NC(=O)NC(=O)Cc2ccc([O-])c([O-])c2)sc1C=Cc1ccccc1 (protonated)
CC(C)(C)c1[n-]c(=NC(=O)NC(=O)Cc2ccc([O-])c([O-])c2)sc1C=Cc1ccccc1 (3D coordinates assigned)
CC(C)(C)c1[n-]c(=NC(=O)NC(=O)Cc2ccc([O-])c([O-])c2)sc1C=Cc1ccccc1 (optimized conformer: 95.68812936821568 kcal/mol)

>  <smiles>  (18) 
CC(C)(C)c1[nH]c(=NC(=O)NC(=O)Cc2ccc(O)c(O)c2)sc1C=Cc1ccccc1

>  <score_type>  (18) 
oracle

>  <origin>  (18) 
adg

>  <m_score__min__energy>  (18) 
-20.420000000000002

>  <m_primary>  (18) 
energy

$$$$
18:0
     RDKit          3D

 41 43  0  0  0  0  0  0  0  0999 V2000
   58.2580   30.7010   46.2280 O   0  0  0  0  0  0  0  0  0  0  0  0
   58.8160   29.5760   46.1070 C   0  0  0  0  0  0  0  0  0  0  0  0
   59.9940   29.2730   46.8730 N   0  0  0  0  0  0  0  0  0  0  0  0
   60.7750   30.2610   47.5680 C   0  0  0  0  0  0  0  0  0  0  0  0
   61.1950   30.0040   48.8820 C   0  0  0  0  0  0  0  0  0  0  0  0
   61.9730   30.9380   49.5690 C   0  0  0  0  0  0  0  0  0  0  0  0
   62.3480   32.1320   48.9500 C   0  0  0  0  0  0  0  0  0  0  0  0
   61.9460   32.4050   47.6320 C   0  0  0  0  0  0  0  0  0  0  0  0
   62.3580   33.6600   46.9580 C   0  0  0  0  0  0  0  0  0  0  0  0
   63.5820   33.9450   46.8770 O   0  0  0  0  0  0  0  0  0  0  0  0
   61.4000   34.5940   46.4400 N   0  0  0  0  0  0  0  0  0  0  0  0
   60.0090   34.3340   46.1990 C   0  0  0  0  0  0  0  0  0  0  0  0
   59.5540   34.2560   44.8770 C   0  0  0  0  0  0  0  0  0  0  0  0
   58.2070   33.9890   44.6070 C   0  0  0  0  0  0  0  0  0  0  0  0
   57.3110   33.7830   45.6580 C   0  0  0  0  0  0  0  0  0  0  0  0
   57.7610   33.8360   46.9810 C   0  0  0  0  0  0  0  0  0  0  0  0
   59.1060   34.1020   47.2530 C   0  0  0  0  0  0  0  0  0  0  0  0
   61.1760   31.4540   46.9400 C   0  0  0  0  0  0  0  0  0  0  0  0
   58.2420   28.5620   45.1950 C   0  0  0  0  0  0  0  0  0  0  0  0
   58.8560   28.2820   44.1310 O   0  0  0  0  0  0  0  0  0  0  0  0
   56.9750   27.8560   45.5020 C   0  0  0  0  0  0  0  0  0  0  0  0
   55.8720   28.4160   45.2600 O   0  0  0  0  0  0  0  0  0  0  0  0
   56.9730   26.5140   46.1330 C   0  0  0  0  0  0  0  0  0  0  0  0
   55.7780   25.8010   46.3370 C   0  0  0  0  0  0  0  0  0  0  0  0
   54.5510   26.3430   45.9690 O   0  0  0  0  0  0  0  0  0  0  0  0
   55.8090   24.5750   46.9210 N   0  0  0  0  0  0  0  0  0  0  0  0
   56.9790   24.0220   47.3300 C   0  0  0  0  0  0  0  0  0  0  0  0
   56.9810   22.8850   47.8670 O   0  0  0  0  0  0  0  0  0  0  0  0
   58.1440   24.6950   47.1620 N   0  0  0  0  0  0  0  0  0  0  0  0
   58.1700   25.9220   46.5810 C   0  0  0  0  0  0  0  0  0  0  0  0
   59.2740   26.5120   46.4380 O   0  0  0  0  0  0  0  0  0  0  0  0
   60.2450   28.2680   47.0130 H   0  0  0  0  0  0  0  0  0  0  0  0
   60.9099   29.0620   49.3733 H   0  0  0  0  0  0  0  0  0  0  0  0
   62.2916   30.7324   50.6016 H   0  0  0  0  0  0  0  0  0  0  0  0
   62.9615   32.8628   49.4973 H   0  0  0  0  0  0  0  0  0  0  0  0
   60.2592   34.4054   44.0461 H   0  0  0  0  0  0  0  0  0  0  0  0
   57.8539   33.9414   43.5663 H   0  0  0  0  0  0  0  0  0  0  0  0
   56.2512   33.5790   45.4453 H   0  0  0  0  0  0  0  0  0  0  0  0
   57.0558   33.6682   47.8084 H   0  0  0  0  0  0  0  0  0  0  0  0
   59.4597   34.1301   48.2942 H   0  0  0  0  0  0  0  0  0  0  0  0
   60.8841   31.6448   45.8967 H   0  0  0  0  0  0  0  0  0  0  0  0
  1  2  2  0
  2  3  1  0
  3  4  1  0
  4  5  2  0
  5  6  1  0
  6  7  2  0
  7  8  1  0
  8  9  1  0
  9 10  2  0
  9 11  1  0
 11 12  1  0
 12 13  2  0
 13 14  1  0
 14 15  2  0
 15 16  1  0
 16 17  2  0
  8 18  2  0
  2 19  1  0
 19 20  2  0
 19 21  1  0
 21 22  2  0
 21 23  1  0
 23 24  2  0
 24 25  1  0
 24 26  1  0
 26 27  1  0
 27 28  2  0
 27 29  1  0
 29 30  1  0
 30 31  2  0
 18  4  1  0
 30 23  1  0
 17 12  1  0
  3 32  1  0
  5 33  1  0
  6 34  1  0
  7 35  1  0
 13 36  1  0
 14 37  1  0
 15 38  1  0
 16 39  1  0
 17 40  1  0
 18 41  1  0
M  CHG  4  11  -1  25  -1  26  -1  29  -1
M  END
>  <UniqueID>  (19) 
18

>  <SMILES>  (19) 
O=C(Nc1cccc(C(=O)[N-]c2ccccc2)c1)C(=O)C(=O)c1c([O-])[n-]c(=O)[n-]c1=O

>  <Energy>  (19) 
63.206477597881296

>  <Genealogy>  (19) 
O=C(Nc1cccc(C(=O)[N-]c2ccccc2)c1)C(=O)C(=O)c1c([O-])[n-]c(=O)[n-]c1=O (protonated)
O=C(Nc1cccc(C(=O)[N-]c2ccccc2)c1)C(=O)C(=O)c1c([O-])[n-]c(=O)[n-]c1=O (3D coordinates assigned)
O=C(Nc1cccc(C(=O)[N-]c2ccccc2)c1)C(=O)C(=O)c1c([O-])[n-]c(=O)[n-]c1=O (optimized conformer: 63.206477597881296 kcal/mol)

>  <smiles>  (19) 
O=C(Nc1cccc(C(=O)Nc2ccccc2)c1)C(=O)C(=O)c1c(O)[nH]c(=O)[nH]c1=O

>  <score_type>  (19) 
oracle

>  <origin>  (19) 
adg

>  <m_score__min__energy>  (19) 
-17.43

>  <m_primary>  (19) 
energy

$$$$
19:0
     RDKit          3D

 55 58  0  0  0  0  0  0  0  0999 V2000
   59.5770   29.2800   53.0410 O   0  0  0  0  0  0  0  0  0  0  0  0
   58.6410   29.4610   52.2160 C   0  0  0  0  0  0  0  0  0  0  0  0
   57.2410   29.4510   52.7050 C   0  0  0  0  0  0  0  0  0  0  0  0
   56.7600   28.4000   53.5090 C   0  0  0  0  0  0  0  0  0  0  0  0
   55.4300   28.3890   53.9410 C   0  0  0  0  0  0  0  0  0  0  0  0
   54.5640   29.4210   53.5670 C   0  0  0  0  0  0  0  0  0  0  0  0
   53.2730   29.4060   53.9820 F   0  0  0  0  0  0  0  0  0  0  0  0
   55.0260   30.4610   52.7570 C   0  0  0  0  0  0  0  0  0  0  0  0
   56.3560   30.4750   52.3240 C   0  0  0  0  0  0  0  0  0  0  0  0
   58.9800   29.6830   50.7910 C   0  0  0  0  0  0  0  0  0  0  0  0
   59.6370   28.6930   50.0410 C   0  0  0  0  0  0  0  0  0  0  0  0
   59.9570   28.9150   48.6990 C   0  0  0  0  0  0  0  0  0  0  0  0
   59.6210   30.1300   48.0810 C   0  0  0  0  0  0  0  0  0  0  0  0
   59.9480   30.3590   46.6550 C   0  0  0  0  0  0  0  0  0  0  0  0
   61.0320   30.9330   46.3620 O   0  0  0  0  0  0  0  0  0  0  0  0
   59.0540   29.9520   45.6010 N   0  0  0  0  0  0  0  0  0  0  0  0
   57.9320   30.8300   45.2310 C   0  0  0  0  0  0  0  0  0  0  0  0
   58.2570   32.2820   45.4800 C   0  0  0  0  0  0  0  0  0  0  0  0
   57.9360   32.8830   46.7090 C   0  0  0  0  0  0  0  0  0  0  0  0
   58.2740   34.2180   46.9500 C   0  0  0  0  0  0  0  0  0  0  0  0
   58.9240   34.9660   45.9650 C   0  0  0  0  0  0  0  0  0  0  0  0
   59.2320   34.3810   44.7340 C   0  0  0  0  0  0  0  0  0  0  0  0
   58.8950   33.0470   44.4890 C   0  0  0  0  0  0  0  0  0  0  0  0
   59.2180   28.6400   44.9470 C   0  0  0  0  0  0  0  0  0  0  0  0
   58.3530   27.5860   45.5950 C   0  0  0  0  0  0  0  0  0  0  0  0
   58.9500   26.5590   46.3470 C   0  0  0  0  0  0  0  0  0  0  0  0
   58.1620   25.5960   46.9810 C   0  0  0  0  0  0  0  0  0  0  0  0
   56.7720   25.6420   46.8650 C   0  0  0  0  0  0  0  0  0  0  0  0
   56.1630   26.6460   46.1090 C   0  0  0  0  0  0  0  0  0  0  0  0
   54.7770   26.6740   46.0040 O   0  0  0  0  0  0  0  0  0  0  0  0
   56.9490   27.6170   45.4610 C   0  0  0  0  0  0  0  0  0  0  0  0
   56.3470   28.6120   44.6910 O   0  0  0  0  0  0  0  0  0  0  0  0
   58.9920   31.1320   48.8370 C   0  0  0  0  0  0  0  0  0  0  0  0
   58.6790   30.9130   50.1810 C   0  0  0  0  0  0  0  0  0  0  0  0
   57.4352   27.5816   53.7994 H   0  0  0  0  0  0  0  0  0  0  0  0
   55.0649   27.5679   54.5755 H   0  0  0  0  0  0  0  0  0  0  0  0
   54.3429   31.2702   52.4592 H   0  0  0  0  0  0  0  0  0  0  0  0
   56.7122   31.2931   51.6807 H   0  0  0  0  0  0  0  0  0  0  0  0
   59.9015   27.7357   50.5139 H   0  0  0  0  0  0  0  0  0  0  0  0
   60.4750   28.1335   48.1237 H   0  0  0  0  0  0  0  0  0  0  0  0
   57.7084   30.6924   44.1628 H   0  0  0  0  0  0  0  0  0  0  0  0
   57.0650   30.5603   45.8520 H   0  0  0  0  0  0  0  0  0  0  0  0
   57.4167   32.3008   47.4845 H   0  0  0  0  0  0  0  0  0  0  0  0
   58.0277   34.6805   47.9172 H   0  0  0  0  0  0  0  0  0  0  0  0
   59.1931   36.0149   46.1585 H   0  0  0  0  0  0  0  0  0  0  0  0
   59.7402   34.9710   43.9570 H   0  0  0  0  0  0  0  0  0  0  0  0
   59.1305   32.5934   43.5150 H   0  0  0  0  0  0  0  0  0  0  0  0
   58.9367   28.7313   43.8875 H   0  0  0  0  0  0  0  0  0  0  0  0
   60.2695   28.3332   45.0483 H   0  0  0  0  0  0  0  0  0  0  0  0
   60.0454   26.5137   46.4366 H   0  0  0  0  0  0  0  0  0  0  0  0
   58.6376   24.8000   47.5727 H   0  0  0  0  0  0  0  0  0  0  0  0
   56.1542   24.8852   47.3706 H   0  0  0  0  0  0  0  0  0  0  0  0
   55.9220   28.4170   43.7930 H   0  0  0  0  0  0  0  0  0  0  0  0
   58.7440   32.0957   48.3682 H   0  0  0  0  0  0  0  0  0  0  0  0
   58.1938   31.7085   50.7656 H   0  0  0  0  0  0  0  0  0  0  0  0
  1  2  2  0
  2  3  1  0
  3  4  2  0
  4  5  1  0
  5  6  2  0
  6  7  1  0
  6  8  1  0
  8  9  2  0
  2 10  1  0
 10 11  2  0
 11 12  1  0
 12 13  2  0
 13 14  1  0
 14 15  2  0
 14 16  1  0
 16 17  1  0
 17 18  1  0
 18 19  2  0
 19 20  1  0
 20 21  2  0
 21 22  1  0
 22 23  2  0
 16 24  1  0
 24 25  1  0
 25 26  2  0
 26 27  1  0
 27 28  2  0
 28 29  1  0
 29 30  1  0
 29 31  2  0
 31 32  1  0
 13 33  1  0
 33 34  2  0
  9  3  1  0
 34 10  1  0
 23 18  1  0
 31 25  1  0
  4 35  1  0
  5 36  1  0
  8 37  1  0
  9 38  1  0
 11 39  1  0
 12 40  1  0
 17 41  1  0
 17 42  1  0
 19 43  1  0
 20 44  1  0
 21 45  1  0
 22 46  1  0
 23 47  1  0
 24 48  1  0
 24 49  1  0
 26 50  1  0
 27 51  1  0
 28 52  1  0
 32 53  1  0
 33 54  1  0
 34 55  1  0
M  CHG  1  30  -1
M  END
>  <UniqueID>  (20) 
19

>  <SMILES>  (20) 
O=C(c1ccc(F)cc1)c1ccc(C(=O)N(Cc2ccccc2)Cc2cccc([O-])c2O)cc1

>  <Energy>  (20) 
68.89917359391116

>  <Genealogy>  (20) 
O=C(c1ccc(F)cc1)c1ccc(C(=O)N(Cc2ccccc2)Cc2cccc([O-])c2O)cc1 (protonated)
O=C(c1ccc(F)cc1)c1ccc(C(=O)N(Cc2ccccc2)Cc2cccc([O-])c2O)cc1 (3D coordinates assigned)
O=C(c1ccc(F)cc1)c1ccc(C(=O)N(Cc2ccccc2)Cc2cccc([O-])c2O)cc1 (optimized conformer: 68.89917359391116 kcal/mol)

>  <smiles>  (20) 
O=C(c1ccc(F)cc1)c1ccc(C(=O)N(Cc2ccccc2)Cc2cccc(O)c2O)cc1

>  <score_type>  (20) 
oracle

>  <origin>  (20) 
adg

>  <m_score__min__energy>  (20) 
-14.09

>  <m_primary>  (20) 
energy

$$$$
20:0
     RDKit          3D

 43 45  0  0  0  0  0  0  0  0999 V2000
   55.2580   29.2300   44.7800 N   0  0  0  0  0  0  0  0  0  0  0  0
   56.5680   29.8010   44.8590 C   0  0  0  0  0  0  0  0  0  0  0  0
   56.7250   31.1040   44.5060 N   0  0  0  0  0  0  0  0  0  0  0  0
   57.9200   31.7360   44.6300 C   0  0  0  0  0  0  0  0  0  0  0  0
   58.0740   33.4520   44.1490 S   0  0  0  0  0  0  0  0  0  0  0  0
   57.7930   34.1120   45.8290 C   0  0  0  0  0  0  0  0  0  0  0  0
   59.0670   34.0710   46.6230 C   0  0  0  0  0  0  0  0  0  0  0  0
   60.3050   33.9110   45.9810 C   0  0  0  0  0  0  0  0  0  0  0  0
   61.4850   33.8470   46.7300 C   0  0  0  0  0  0  0  0  0  0  0  0
   61.4390   33.9330   48.1290 C   0  0  0  0  0  0  0  0  0  0  0  0
   62.6690   33.8370   48.9340 C   0  0  0  0  0  0  0  0  0  0  0  0
   62.9960   34.8040   49.6690 O   0  0  0  0  0  0  0  0  0  0  0  0
   63.4730   32.6480   48.9570 N   0  0  0  0  0  0  0  0  0  0  0  0
   63.1570   31.4150   49.6780 C   0  0  0  0  0  0  0  0  0  0  0  0
   61.6690   31.1590   49.7040 C   0  0  0  0  0  0  0  0  0  0  0  0
   60.9400   31.3610   50.8890 C   0  0  0  0  0  0  0  0  0  0  0  0
   59.5560   31.1670   50.9080 C   0  0  0  0  0  0  0  0  0  0  0  0
   58.8890   30.7580   49.7510 C   0  0  0  0  0  0  0  0  0  0  0  0
   59.6070   30.5310   48.5750 C   0  0  0  0  0  0  0  0  0  0  0  0
   60.9920   30.7200   48.5480 C   0  0  0  0  0  0  0  0  0  0  0  0
   61.6680   30.4800   47.3980 F   0  0  0  0  0  0  0  0  0  0  0  0
   60.2030   34.1030   48.7710 C   0  0  0  0  0  0  0  0  0  0  0  0
   59.0240   34.1580   48.0230 C   0  0  0  0  0  0  0  0  0  0  0  0
   58.9870   31.0730   45.1380 N   0  0  0  0  0  0  0  0  0  0  0  0
   58.8940   29.7680   45.4990 C   0  0  0  0  0  0  0  0  0  0  0  0
   59.9090   29.1780   45.9560 O   0  0  0  0  0  0  0  0  0  0  0  0
   57.6830   29.0770   45.3470 C   0  0  0  0  0  0  0  0  0  0  0  0
   57.6440   27.6770   45.6570 N   0  0  0  0  0  0  0  0  0  0  0  0
   56.6030   27.0880   46.0080 O   0  0  0  0  0  0  0  0  0  0  0  0
   55.1430   28.1960   44.8710 H   0  0  0  0  0  0  0  0  0  0  0  0
   54.4300   29.7750   44.4590 H   0  0  0  0  0  0  0  0  0  0  0  0
   57.4434   35.1525   45.7567 H   0  0  0  0  0  0  0  0  0  0  0  0
   57.0354   33.4951   46.3345 H   0  0  0  0  0  0  0  0  0  0  0  0
   60.3476   33.8356   44.8844 H   0  0  0  0  0  0  0  0  0  0  0  0
   62.4523   33.7288   46.2197 H   0  0  0  0  0  0  0  0  0  0  0  0
   63.6569   30.5710   49.1802 H   0  0  0  0  0  0  0  0  0  0  0  0
   63.5088   31.5200   50.7149 H   0  0  0  0  0  0  0  0  0  0  0  0
   61.4615   31.6733   51.8058 H   0  0  0  0  0  0  0  0  0  0  0  0
   58.9908   31.3368   51.8363 H   0  0  0  0  0  0  0  0  0  0  0  0
   57.7985   30.6147   49.7661 H   0  0  0  0  0  0  0  0  0  0  0  0
   59.0810   30.2023   47.6666 H   0  0  0  0  0  0  0  0  0  0  0  0
   60.1620   34.1933   49.8665 H   0  0  0  0  0  0  0  0  0  0  0  0
   58.0566   34.2701   48.5345 H   0  0  0  0  0  0  0  0  0  0  0  0
  1  2  1  0
  2  3  1  0
  3  4  1  0
  4  5  1  0
  5  6  1  0
  6  7  1  0
  7  8  2  0
  8  9  1  0
  9 10  2  0
 10 11  1  0
 11 12  2  0
 11 13  1  0
 13 14  1  0
 14 15  1  0
 15 16  2  0
 16 17  1  0
 17 18  2  0
 18 19  1  0
 19 20  2  0
 20 21  1  0
 10 22  1  0
 22 23  2  0
  4 24  2  0
 24 25  1  0
 25 26  2  0
 25 27  1  0
 27 28  1  0
 28 29  2  0
 27  2  2  0
 23  7  1  0
 20 15  1  0
  1 30  1  0
  1 31  1  0
  6 32  1  0
  6 33  1  0
  8 34  1  0
  9 35  1  0
 14 36  1  0
 14 37  1  0
 16 38  1  0
 17 39  1  0
 18 40  1  0
 19 41  1  0
 22 42  1  0
 23 43  1  0
M  CHG  2   3  -1  13  -1
M  END
>  <UniqueID>  (21) 
20

>  <SMILES>  (21) 
Nc1[n-]c(SCc2ccc(C(=O)[N-]Cc3ccccc3F)cc2)nc(=O)c1N=O

>  <Energy>  (21) 
49.320325803192176

>  <Genealogy>  (21) 
Nc1[n-]c(SCc2ccc(C(=O)[N-]Cc3ccccc3F)cc2)nc(=O)c1N=O (protonated)
Nc1[n-]c(SCc2ccc(C(=O)[N-]Cc3ccccc3F)cc2)nc(=O)c1N=O (3D coordinates assigned)
Nc1[n-]c(SCc2ccc(C(=O)[N-]Cc3ccccc3F)cc2)nc(=O)c1N=O (optimized conformer: 49.320325803192176 kcal/mol)

>  <smiles>  (21) 
Nc1[nH]c(SCc2ccc(C(=O)NCc3ccccc3F)cc2)nc(=O)c1N=O

>  <score_type>  (21) 
oracle

>  <origin>  (21) 
adg

>  <m_score__min__energy>  (21) 
-11.449999999999999

>  <m_primary>  (21) 
energy

$$$$
21:0
     RDKit          3D

 63 67  0  0  0  0  0  0  0  0999 V2000
   58.4320   30.6910   53.8280 C   0  0  0  0  0  0  0  0  0  0  0  0
   58.1070   29.3180   52.7480 S   0  0  0  0  0  0  0  0  0  0  0  0
   57.4350   28.2190   53.5240 O   0  0  0  0  0  0  0  0  0  0  0  0
   57.1950   29.7380   51.6300 O   0  0  0  0  0  0  0  0  0  0  0  0
   59.6020   28.7190   52.1060 N   0  0  0  0  0  0  0  0  0  0  0  0
   60.5300   29.4640   51.3080 C   0  0  0  0  0  0  0  0  0  0  0  0
   60.0700   30.0580   50.1290 C   0  0  0  0  0  0  0  0  0  0  0  0
   60.9410   30.7880   49.3130 C   0  0  0  0  0  0  0  0  0  0  0  0
   62.2740   30.9710   49.6900 C   0  0  0  0  0  0  0  0  0  0  0  0
   63.2230   31.7250   48.8000 C   0  0  0  0  0  0  0  0  0  0  0  0
   62.4770   32.4030   47.7390 N   0  0  0  0  0  0  0  0  0  0  0  0
   62.1510   33.7970   47.8030 C   0  0  0  0  0  0  0  0  0  0  0  0
   62.5720   34.5000   48.7560 O   0  0  0  0  0  0  0  0  0  0  0  0
   61.4080   34.4260   46.7540 N   0  0  0  0  0  0  0  0  0  0  0  0
   60.2190   33.9180   46.1320 C   0  0  0  0  0  0  0  0  0  0  0  0
   59.4540   34.7830   45.3410 C   0  0  0  0  0  0  0  0  0  0  0  0
   58.2950   34.3250   44.7150 C   0  0  0  0  0  0  0  0  0  0  0  0
   57.8830   33.0000   44.8800 C   0  0  0  0  0  0  0  0  0  0  0  0
   58.6180   32.1200   45.6950 C   0  0  0  0  0  0  0  0  0  0  0  0
   58.1840   30.7120   45.8660 C   0  0  0  0  0  0  0  0  0  0  0  0
   57.0220   30.2770   45.3110 N   0  0  0  0  0  0  0  0  0  0  0  0
   56.6090   28.9900   45.4260 C   0  0  0  0  0  0  0  0  0  0  0  0
   55.5340   28.6440   44.8700 O   0  0  0  0  0  0  0  0  0  0  0  0
   57.3900   28.0650   46.1480 C   0  0  0  0  0  0  0  0  0  0  0  0
   57.0370   26.7030   46.3220 C   0  0  0  0  0  0  0  0  0  0  0  0
   55.8460   26.1840   45.8080 O   0  0  0  0  0  0  0  0  0  0  0  0
   55.6900   24.7950   45.5130 C   0  0  2  0  0  0  0  0  0  0  0  0
   56.3540   24.4060   44.2260 C   0  0  0  0  0  0  0  0  0  0  0  0
   55.4440   23.3150   43.7010 C   0  0  0  0  0  0  0  0  0  0  0  0
   54.1530   23.4730   44.2500 O   0  0  0  0  0  0  0  0  0  0  0  0
   54.2330   24.4630   45.2500 C   0  0  0  0  0  0  0  0  0  0  0  0
   57.9050   25.8420   47.0080 C   0  0  0  0  0  0  0  0  0  0  0  0
   59.0950   26.3230   47.5510 C   0  0  0  0  0  0  0  0  0  0  0  0
   59.4300   27.6710   47.4180 C   0  0  0  0  0  0  0  0  0  0  0  0
   58.5970   28.5380   46.7090 C   0  0  0  0  0  0  0  0  0  0  0  0
   58.9610   29.8360   46.5520 N   0  0  0  0  0  0  0  0  0  0  0  0
   59.7800   32.5980   46.3350 C   0  0  0  0  0  0  0  0  0  0  0  0
   62.7400   30.3750   50.8700 C   0  0  0  0  0  0  0  0  0  0  0  0
   61.8770   29.6220   51.6710 C   0  0  0  0  0  0  0  0  0  0  0  0
   58.3539   30.3609   54.8744 H   0  0  0  0  0  0  0  0  0  0  0  0
   59.4457   31.0742   53.6391 H   0  0  0  0  0  0  0  0  0  0  0  0
   57.6977   31.4879   53.6391 H   0  0  0  0  0  0  0  0  0  0  0  0
   59.0140   29.9505   49.8404 H   0  0  0  0  0  0  0  0  0  0  0  0
   60.5747   31.2200   48.3700 H   0  0  0  0  0  0  0  0  0  0  0  0
   63.7682   32.4711   49.3968 H   0  0  0  0  0  0  0  0  0  0  0  0
   63.9350   31.0187   48.3482 H   0  0  0  0  0  0  0  0  0  0  0  0
   62.4050   31.9260   46.8070 H   0  0  0  0  0  0  0  0  0  0  0  0
   59.7685   35.8292   45.2125 H   0  0  0  0  0  0  0  0  0  0  0  0
   57.7031   35.0091   44.0892 H   0  0  0  0  0  0  0  0  0  0  0  0
   56.9771   32.6424   44.3687 H   0  0  0  0  0  0  0  0  0  0  0  0
   56.1198   24.2748   46.3817 H   0  0  0  0  0  0  0  0  0  0  0  0
   56.3979   25.2560   43.5291 H   0  0  0  0  0  0  0  0  0  0  0  0
   57.3975   24.0819   44.3527 H   0  0  0  0  0  0  0  0  0  0  0  0
   55.3866   23.3817   42.6045 H   0  0  0  0  0  0  0  0  0  0  0  0
   55.8465   22.3325   43.9885 H   0  0  0  0  0  0  0  0  0  0  0  0
   53.7050   25.3677   44.9142 H   0  0  0  0  0  0  0  0  0  0  0  0
   53.7677   24.0907   46.1746 H   0  0  0  0  0  0  0  0  0  0  0  0
   57.6449   24.7789   47.1185 H   0  0  0  0  0  0  0  0  0  0  0  0
   59.7710   25.6391   48.0851 H   0  0  0  0  0  0  0  0  0  0  0  0
   60.3554   28.0524   47.8743 H   0  0  0  0  0  0  0  0  0  0  0  0
   60.3487   31.9313   46.9998 H   0  0  0  0  0  0  0  0  0  0  0  0
   63.7915   30.5007   51.1675 H   0  0  0  0  0  0  0  0  0  0  0  0
   62.2550   29.1508   52.5903 H   0  0  0  0  0  0  0  0  0  0  0  0
  1  2  1  0
  2  3  2  0
  2  4  2  0
  2  5  1  0
  5  6  1  0
  6  7  2  0
  7  8  1  0
  8  9  2  0
  9 10  1  0
 10 11  1  0
 11 12  1  0
 12 13  2  0
 12 14  1  0
 14 15  1  0
 15 16  2  0
 16 17  1  0
 17 18  2  0
 18 19  1  0
 19 20  1  0
 20 21  2  0
 21 22  1  0
 22 23  2  0
 22 24  1  0
 24 25  2  0
 25 26  1  0
 26 27  1  0
 27 28  1  0
 28 29  1  0
 29 30  1  0
 30 31  1  0
 25 32  1  0
 32 33  2  0
 33 34  1  0
 34 35  2  0
 35 36  1  0
 19 37  2  0
  9 38  1  0
 38 39  2  0
 39  6  1  0
 37 15  1  0
 36 20  1  0
 35 24  1  0
 31 27  1  0
  1 40  1  0
  1 41  1  0
  1 42  1  0
  7 43  1  0
  8 44  1  0
 10 45  1  0
 10 46  1  0
 11 47  1  0
 16 48  1  0
 17 49  1  0
 18 50  1  0
 27 51  1  1
 28 52  1  0
 28 53  1  0
 29 54  1  0
 29 55  1  0
 31 56  1  0
 31 57  1  0
 32 58  1  0
 33 59  1  0
 34 60  1  0
 37 61  1  0
 38 62  1  0
 39 63  1  0
M  CHG  3   5  -1  14  -1  36  -1
M  END
>  <UniqueID>  (22) 
21

>  <SMILES>  (22) 
CS(=O)(=O)[N-]c1ccc(CNC(=O)[N-]c2cccc(-c3nc(=O)c4c(O[C@@H]5CCOC5)cccc4[n-]3)c2)cc1

>  <Energy>  (22) 
80.79186316083724

>  <Genealogy>  (22) 
CS(=O)(=O)[N-]c1ccc(CNC(=O)[N-]c2cccc(-c3nc(=O)c4c(OC5CCOC5)cccc4[n-]3)c2)cc1 (protonated)
CS(=O)(=O)[N-]c1ccc(CNC(=O)[N-]c2cccc(-c3nc(=O)c4c(O[C@@H]5CCOC5)cccc4[n-]3)c2)cc1 (chirality)
CS(=O)(=O)[N-]c1ccc(CNC(=O)[N-]c2cccc(-c3nc(=O)c4c(O[C@@H]5CCOC5)cccc4[n-]3)c2)cc1 (3D coordinates assigned)
CS(=O)(=O)[N-]c1ccc(CNC(=O)[N-]c2cccc(-c3nc(=O)c4c(O[C@@H]5CCOC5)cccc4[n-]3)c2)cc1 (nonaromatic ring conformer: 80.79186316083724 kcal/mol)

>  <smiles>  (22) 
CS(=O)(=O)Nc1ccc(CNC(=O)Nc2cccc(-c3nc(=O)c4c(OC5CCOC5)cccc4[nH]3)c2)cc1

>  <score_type>  (22) 
oracle

>  <origin>  (22) 
adg

>  <m_score__min__energy>  (22) 
-13.56

>  <m_primary>  (22) 
energy

$$$$
22:0
     RDKit          3D

 40 42  0  0  0  0  0  0  0  0999 V2000
   62.0414   34.8002   50.5225 H   0  0  0  0  0  0  0  0  0  0  0  0
   62.2820   34.2130   49.6240 C   0  0  0  0  0  0  0  0  0  0  0  0
   61.2920   33.8490   48.7640 N   0  0  0  0  0  0  0  0  0  0  0  0
   61.5480   33.1190   47.6420 C   0  0  0  0  0  0  0  0  0  0  0  0
   60.4220   32.7620   46.7140 C   0  0  0  0  0  0  0  0  0  0  0  0
   59.7939   31.9960   47.1923 H   0  0  0  0  0  0  0  0  0  0  0  0
   60.8546   32.3840   45.7759 H   0  0  0  0  0  0  0  0  0  0  0  0
   59.5840   33.9430   46.3970 N   0  0  0  0  0  0  0  0  0  0  0  0
   59.5850   34.2440   44.9420 C   0  0  0  0  0  0  0  0  0  0  0  0
   60.4422   33.7278   44.4852 H   0  0  0  0  0  0  0  0  0  0  0  0
   59.6421   35.3386   44.8496 H   0  0  0  0  0  0  0  0  0  0  0  0
   58.3050   33.8070   44.1950 C   0  0  0  0  0  0  0  0  0  0  0  0
   58.5722   33.5180   43.1678 H   0  0  0  0  0  0  0  0  0  0  0  0
   57.6012   34.6523   44.1947 H   0  0  0  0  0  0  0  0  0  0  0  0
   57.6550   32.6680   44.8570 N   0  0  0  0  0  0  0  0  0  0  0  0
   57.0790   31.5920   44.0900 C   0  0  0  0  0  0  0  0  0  0  0  0
   57.1820   31.5900   42.8320 O   0  0  0  0  0  0  0  0  0  0  0  0
   56.3900   30.5250   44.7670 N   0  0  0  0  0  0  0  0  0  0  0  0
   56.8910   29.3900   45.1620 C   0  0  0  0  0  0  0  0  0  0  0  0
   56.1220   28.2680   45.2540 N   0  0  0  0  0  0  0  0  0  0  0  0
   56.6330   27.0760   45.6650 C   0  0  0  0  0  0  0  0  0  0  0  0
   55.9824   26.1912   45.7272 H   0  0  0  0  0  0  0  0  0  0  0  0
   57.9830   26.9750   46.0080 C   0  0  0  0  0  0  0  0  0  0  0  0
   58.4026   26.0142   46.3410 H   0  0  0  0  0  0  0  0  0  0  0  0
   58.7930   28.1080   45.9230 C   0  0  0  0  0  0  0  0  0  0  0  0
   59.8582   28.0451   46.1903 H   0  0  0  0  0  0  0  0  0  0  0  0
   58.2490   29.3220   45.4980 C   0  0  0  0  0  0  0  0  0  0  0  0
   58.8826   30.2185   45.4276 H   0  0  0  0  0  0  0  0  0  0  0  0
   57.4070   32.7310   46.3020 C   0  0  0  0  0  0  0  0  0  0  0  0
   57.6978   31.7734   46.7585 H   0  0  0  0  0  0  0  0  0  0  0  0
   56.3370   32.9278   46.4645 H   0  0  0  0  0  0  0  0  0  0  0  0
   58.2140   33.8610   46.9520 C   0  0  0  0  0  0  0  0  0  0  0  0
   58.2781   33.6765   48.0345 H   0  0  0  0  0  0  0  0  0  0  0  0
   57.7019   34.8121   46.7445 H   0  0  0  0  0  0  0  0  0  0  0  0
   62.8640   32.7320   47.3510 C   0  0  0  0  0  0  0  0  0  0  0  0
   63.0837   32.1468   46.4458 H   0  0  0  0  0  0  0  0  0  0  0  0
   63.8930   33.0970   48.2220 C   0  0  0  0  0  0  0  0  0  0  0  0
   64.9295   32.7983   48.0062 H   0  0  0  0  0  0  0  0  0  0  0  0
   63.6040   33.8410   49.3660 C   0  0  0  0  0  0  0  0  0  0  0  0
   64.4083   34.1318   50.0578 H   0  0  0  0  0  0  0  0  0  0  0  0
  1  2  1  0
  2  3  2  0
  3  4  1  0
  4  5  1  0
  5  6  1  0
  5  7  1  0
  5  8  1  0
  8  9  1  0
  9 10  1  0
  9 11  1  0
  9 12  1  0
 12 13  1  0
 12 14  1  0
 12 15  1  0
 15 16  1  0
 16 17  2  0
 16 18  1  0
 18 19  2  0
 19 20  1  0
 20 21  1  0
 21 22  1  0
 21 23  2  0
 23 24  1  0
 23 25  1  0
 25 26  1  0
 25 27  2  0
 27 28  1  0
 15 29  1  0
 29 30  1  0
 29 31  1  0
 29 32  1  0
 32 33  1  0
 32 34  1  0
  4 35  2  0
 35 36  1  0
 35 37  1  0
 37 38  1  0
 37 39  2  0
 39 40  1  0
 39  2  1  0
 32  8  1  0
 27 19  1  0
M  CHG  1  20  -1
M  END
>  <UniqueID>  (23) 
22

>  <SMILES>  (23) 
O=C(/N=c1/cccc[n-]1)N1CCN(Cc2ccccn2)CC1

>  <Energy>  (23) 
53.8110268373462

>  <Genealogy>  (23) 
O=C(N=c1cccc[n-]1)N1CCN(Cc2ccccn2)CC1 (protonated)
O=C(/N=c1/cccc[n-]1)N1CCN(Cc2ccccn2)CC1 (cis-trans isomerization)
O=C(/N=c1/cccc[n-]1)N1CCN(Cc2ccccn2)CC1 (3D coordinates assigned)
O=C(/N=c1/cccc[n-]1)N1CCN(Cc2ccccn2)CC1 (nonaromatic ring conformer: 53.8110268373462 kcal/mol)

>  <smiles>  (23) 
O=C(N=c1cccc[nH]1)N1CCN(Cc2ccccn2)CC1

>  <score_type>  (23) 
oracle

>  <origin>  (23) 
adg

>  <m_score__min__energy>  (23) 
-9.0700000000000003

>  <m_primary>  (23) 
energy

$$$$
23:0
     RDKit          3D

 49 52  0  0  0  0  0  0  0  0999 V2000
   57.7750   25.6980   44.8730 C   0  0  0  0  0  0  0  0  0  0  0  0
   56.9460   25.4850   46.1540 C   0  0  0  0  0  0  0  0  0  0  0  0
   55.4860   25.1360   45.8050 C   0  0  0  0  0  0  0  0  0  0  0  0
   57.5560   24.3230   46.9520 C   0  0  0  0  0  0  0  0  0  0  0  0
   57.0010   26.6490   46.9910 O   0  0  0  0  0  0  0  0  0  0  0  0
   58.1170   27.4750   47.1960 C   0  0  0  0  0  0  0  0  0  0  0  0
   59.1200   27.0600   47.8370 O   0  0  0  0  0  0  0  0  0  0  0  0
   58.1330   28.8240   46.5900 C   0  0  0  0  0  0  0  0  0  0  0  0
   57.7240   28.9560   45.2620 C   0  0  0  0  0  0  0  0  0  0  0  0
   57.7900   30.1910   44.6040 C   0  0  0  0  0  0  0  0  0  0  0  0
   58.3290   31.3290   45.2620 C   0  0  0  0  0  0  0  0  0  0  0  0
   58.6560   31.2160   46.6360 C   0  0  0  0  0  0  0  0  0  0  0  0
   58.5500   29.9710   47.2990 C   0  0  0  0  0  0  0  0  0  0  0  0
   58.8430   29.9110   48.6670 O   0  0  0  0  0  0  0  0  0  0  0  0
   59.0710   32.3850   47.4260 C   0  0  0  0  0  0  0  0  0  0  0  0
   58.5090   32.6330   48.5270 O   0  0  0  0  0  0  0  0  0  0  0  0
   60.2200   33.1880   47.0130 C   0  0  0  0  0  0  0  0  0  0  0  0
   61.3530   33.3650   47.9600 C   0  0  0  0  0  0  0  0  0  0  0  0
   61.1550   34.0530   49.1720 C   0  0  0  0  0  0  0  0  0  0  0  0
   62.2150   34.2330   50.0660 C   0  0  0  0  0  0  0  0  0  0  0  0
   63.4830   33.7350   49.7620 C   0  0  0  0  0  0  0  0  0  0  0  0
   63.6950   33.0570   48.5590 C   0  0  0  0  0  0  0  0  0  0  0  0
   62.6390   32.8730   47.6610 C   0  0  0  0  0  0  0  0  0  0  0  0
   60.2180   33.7950   45.8250 C   0  0  0  0  0  0  0  0  0  0  0  0
   59.1350   33.7610   44.9430 O   0  0  0  0  0  0  0  0  0  0  0  0
   58.4240   32.6330   44.5040 C   0  0  0  0  0  0  0  0  0  0  0  0
   57.8380   32.7670   43.3040 C   0  0  0  0  0  0  0  0  0  0  0  0
   57.2130   31.6370   42.6140 C   0  0  0  0  0  0  0  0  0  0  0  0
   56.6760   31.8030   41.4860 O   0  0  0  0  0  0  0  0  0  0  0  0
   57.2480   30.3160   43.2360 C   0  0  0  0  0  0  0  0  0  0  0  0
   56.7990   29.3140   42.6140 O   0  0  0  0  0  0  0  0  0  0  0  0
   58.8075   25.9633   45.1443 H   0  0  0  0  0  0  0  0  0  0  0  0
   57.7782   24.7715   44.2800 H   0  0  0  0  0  0  0  0  0  0  0  0
   57.3312   26.5113   44.2800 H   0  0  0  0  0  0  0  0  0  0  0  0
   54.9102   24.9984   46.7321 H   0  0  0  0  0  0  0  0  0  0  0  0
   55.0440   25.9538   45.2169 H   0  0  0  0  0  0  0  0  0  0  0  0
   55.4617   24.2067   45.2169 H   0  0  0  0  0  0  0  0  0  0  0  0
   57.4512   24.5227   48.0286 H   0  0  0  0  0  0  0  0  0  0  0  0
   57.0316   23.3896   46.6994 H   0  0  0  0  0  0  0  0  0  0  0  0
   58.6221   24.2245   46.6994 H   0  0  0  0  0  0  0  0  0  0  0  0
   57.3435   28.0757   44.7232 H   0  0  0  0  0  0  0  0  0  0  0  0
   58.9640   30.7260   49.2510 H   0  0  0  0  0  0  0  0  0  0  0  0
   60.1596   34.4517   49.4175 H   0  0  0  0  0  0  0  0  0  0  0  0
   62.0490   34.7689   51.0122 H   0  0  0  0  0  0  0  0  0  0  0  0
   64.3142   33.8762   50.4686 H   0  0  0  0  0  0  0  0  0  0  0  0
   64.6948   32.6670   48.3177 H   0  0  0  0  0  0  0  0  0  0  0  0
   62.8135   32.3404   46.7145 H   0  0  0  0  0  0  0  0  0  0  0  0
   61.1173   34.3522   45.5237 H   0  0  0  0  0  0  0  0  0  0  0  0
   57.8269   33.7567   42.8239 H   0  0  0  0  0  0  0  0  0  0  0  0
  1  2  1  0
  2  3  1  0
  2  4  1  0
  2  5  1  0
  5  6  1  0
  6  7  2  0
  6  8  1  0
  8  9  2  0
  9 10  1  0
 10 11  2  0
 11 12  1  0
 12 13  2  0
 13 14  1  0
 12 15  1  0
 15 16  2  0
 15 17  1  0
 17 18  1  0
 18 19  2  0
 19 20  1  0
 20 21  2  0
 21 22  1  0
 22 23  2  0
 17 24  2  0
 24 25  1  0
 25 26  1  0
 26 27  2  0
 27 28  1  0
 28 29  2  0
 28 30  1  0
 30 31  2  0
 13  8  1  0
 23 18  1  0
 30 10  1  0
 26 11  1  0
  1 32  1  0
  1 33  1  0
  1 34  1  0
  3 35  1  0
  3 36  1  0
  3 37  1  0
  4 38  1  0
  4 39  1  0
  4 40  1  0
  9 41  1  0
 14 42  1  0
 19 43  1  0
 20 44  1  0
 21 45  1  0
 22 46  1  0
 23 47  1  0
 24 48  1  0
 27 49  1  0
M  END
>  <UniqueID>  (24) 
23

>  <SMILES>  (24) 
CC(C)(C)OC(=O)c1cc2c3c(c1O)C(=O)C(c1ccccc1)=COC3=CC(=O)C2=O

>  <Energy>  (24) 
86.90682213115025

>  <Genealogy>  (24) 
CC(C)(C)OC(=O)c1cc2c3c(c1O)C(=O)C(c1ccccc1)=COC3=CC(=O)C2=O (3D coordinates assigned)
CC(C)(C)OC(=O)c1cc2c3c(c1O)C(=O)C(c1ccccc1)=COC3=CC(=O)C2=O (nonaromatic ring conformer: 86.90682213115025 kcal/mol)

>  <smiles>  (24) 
CC(C)(C)OC(=O)c1cc2c3c(c1O)C(=O)C(c1ccccc1)=COC3=CC(=O)C2=O

>  <score_type>  (24) 
oracle

>  <origin>  (24) 
adg

>  <m_score__min__energy>  (24) 
-7.5899999999999999

>  <m_primary>  (24) 
energy

$$$$
24:0
     RDKit          3D

 38 40  0  0  0  0  0  0  0  0999 V2000
   60.0870   26.8457   44.7750 H   0  0  0  0  0  0  0  0  0  0  0  0
   60.2900   27.7930   45.2960 C   0  0  0  0  0  0  0  0  0  0  0  0
   61.3083   28.0226   45.6431 H   0  0  0  0  0  0  0  0  0  0  0  0
   59.2870   28.6760   45.5100 C   0  0  0  0  0  0  0  0  0  0  0  0
   59.5990   29.8850   46.1870 C   0  0  0  0  0  0  0  0  0  0  0  0
   60.7920   30.1400   46.5180 O   0  0  0  0  0  0  0  0  0  0  0  0
   58.5700   30.8130   46.4510 C   0  0  0  0  0  0  0  0  0  0  0  0
   58.7390   31.9720   47.1220 C   0  0  0  0  0  0  0  0  0  0  0  0
   58.7197   31.9226   48.2207 H   0  0  0  0  0  0  0  0  0  0  0  0
   58.9470   33.2970   46.5130 C   0  0  0  0  0  0  0  0  0  0  0  0
   59.7280   34.5720   47.2780 S   0  0  0  0  0  0  0  0  0  0  0  0
   59.6730   35.6360   45.9760 C   0  0  0  0  0  0  0  0  0  0  0  0
   60.0563   36.6671   45.9701 H   0  0  0  0  0  0  0  0  0  0  0  0
   59.0610   34.9900   44.9100 C   0  0  0  0  0  0  0  0  0  0  0  0
   58.8942   35.4675   43.9332 H   0  0  0  0  0  0  0  0  0  0  0  0
   58.6750   33.6710   45.1950 C   0  0  0  0  0  0  0  0  0  0  0  0
   58.0250   32.7830   44.1760 C   0  0  0  0  0  0  0  0  0  0  0  0
   57.4499   31.9973   44.6878 H   0  0  0  0  0  0  0  0  0  0  0  0
   57.3494   33.3807   43.5464 H   0  0  0  0  0  0  0  0  0  0  0  0
   58.7989   32.3197   43.5464 H   0  0  0  0  0  0  0  0  0  0  0  0
   57.3310   30.5460   45.9830 N   0  0  0  0  0  0  0  0  0  0  0  0
   57.0260   29.4090   45.3170 C   0  0  0  0  0  0  0  0  0  0  0  0
   55.8410   29.2540   44.9150 O   0  0  0  0  0  0  0  0  0  0  0  0
   57.9830   28.4460   45.0880 N   0  0  0  0  0  0  0  0  0  0  0  0
   57.5410   27.2160   44.3780 C   0  0  0  0  0  0  0  0  0  0  0  0
   56.5679   27.4073   43.9020 H   0  0  0  0  0  0  0  0  0  0  0  0
   58.2998   26.9592   43.6241 H   0  0  0  0  0  0  0  0  0  0  0  0
   57.4020   26.0490   45.3320 C   0  0  0  0  0  0  0  0  0  0  0  0
   58.4680   25.1430   45.4860 C   0  0  0  0  0  0  0  0  0  0  0  0
   59.3982   25.2948   44.9188 H   0  0  0  0  0  0  0  0  0  0  0  0
   58.3560   24.0520   46.3530 C   0  0  0  0  0  0  0  0  0  0  0  0
   59.1946   23.3486   46.4628 H   0  0  0  0  0  0  0  0  0  0  0  0
   57.1810   23.8550   47.0790 C   0  0  0  0  0  0  0  0  0  0  0  0
   57.0928   22.9949   47.7591 H   0  0  0  0  0  0  0  0  0  0  0  0
   56.1180   24.7480   46.9430 C   0  0  0  0  0  0  0  0  0  0  0  0
   55.1942   24.5909   47.5191 H   0  0  0  0  0  0  0  0  0  0  0  0
   56.2210   25.8430   46.0770 C   0  0  0  0  0  0  0  0  0  0  0  0
   55.1480   26.7190   45.9720 O   0  0  0  0  0  0  0  0  0  0  0  0
  1  2  1  0
  2  3  1  0
  2  4  2  0
  4  5  1  0
  5  6  2  0
  5  7  1  0
  7  8  2  0
  8  9  1  0
  8 10  1  0
 10 11  1  0
 11 12  1  0
 12 13  1  0
 12 14  2  0
 14 15  1  0
 14 16  1  0
 16 17  1  0
 17 18  1  0
 17 19  1  0
 17 20  1  0
  7 21  1  0
 21 22  1  0
 22 23  2  0
 22 24  1  0
 24 25  1  0
 25 26  1  0
 25 27  1  0
 25 28  1  0
 28 29  2  0
 29 30  1  0
 29 31  1  0
 31 32  1  0
 31 33  2  0
 33 34  1  0
 33 35  1  0
 35 36  1  0
 35 37  2  0
 37 38  1  0
 24  4  1  0
 37 28  1  0
 16 10  2  0
M  CHG  2  21  -1  38  -1
M  END
>  <UniqueID>  (25) 
24

>  <SMILES>  (25) 
C=c1c(=O)/c(=C\c2sccc2C)[n-]c(=O)n1Cc1ccccc1[O-]

>  <Energy>  (25) 
92.76725684708467

>  <Genealogy>  (25) 
C=c1c(=O)c(=Cc2sccc2C)[n-]c(=O)n1Cc1ccccc1[O-] (protonated)
C=c1c(=O)/c(=C\c2sccc2C)[n-]c(=O)n1Cc1ccccc1[O-] (cis-trans isomerization)
C=c1c(=O)/c(=C\c2sccc2C)[n-]c(=O)n1Cc1ccccc1[O-] (3D coordinates assigned)
C=c1c(=O)/c(=C\c2sccc2C)[n-]c(=O)n1Cc1ccccc1[O-] (optimized conformer: 92.76725684708467 kcal/mol)

>  <smiles>  (25) 
C=c1c(=O)c(=Cc2sccc2C)[nH]c(=O)n1Cc1ccccc1O

>  <score_type>  (25) 
oracle

>  <origin>  (25) 
adg

>  <m_score__min__energy>  (25) 
-13.359999999999999

>  <m_primary>  (25) 
energy

$$$$
25:0
     RDKit          3D

 47 50  0  0  1  0  0  0  0  0999 V2000
   55.4710   29.6680   44.9030 O   0  0  0  0  0  0  0  0  0  0  0  0
   56.5690   29.0400   44.8130 C   0  0  0  0  0  0  0  0  0  0  0  0
   57.6800   29.5520   44.0860 N   0  0  0  0  0  0  0  0  0  0  0  0
   57.9270   30.8220   44.1040 C   0  0  0  0  0  0  0  0  0  0  0  0
   58.2890   31.3940   45.3200 C   0  0  0  0  0  0  0  0  0  0  0  0
   58.5650   32.7450   45.4040 C   0  0  0  0  0  0  0  0  0  0  0  0
   58.9300   33.2780   46.6740 N   0  0  0  0  0  0  0  0  0  0  0  0
   59.3050   34.5570   46.8740 C   0  0  0  0  0  0  0  0  0  0  0  0
   59.5770   34.7300   48.1640 N   0  0  0  0  0  0  0  0  0  0  0  0
   59.3830   33.5560   48.8240 C   0  0  0  0  0  0  0  0  0  0  0  0
   59.6060   33.4380   50.2820 C   0  0  0  0  0  0  0  0  0  0  0  0
   60.4240   32.2940   50.5800 N   0  0  0  0  0  0  0  0  0  0  0  0
   61.8300   32.5800   50.6780 C   0  0  0  0  0  0  0  0  0  0  0  0
   62.4510   32.8510   49.3600 C   0  0  0  0  0  0  0  0  0  0  0  0
   62.8840   34.0410   48.8990 C   0  0  0  0  0  0  0  0  0  0  0  0
   63.4510   34.1760   47.6440 C   0  0  0  0  0  0  0  0  0  0  0  0
   63.6000   33.1050   46.8080 C   0  0  0  0  0  0  0  0  0  0  0  0
   63.1630   31.8720   47.2590 C   0  0  0  0  0  0  0  0  0  0  0  0
   62.5970   31.7420   48.5170 C   0  0  0  0  0  0  0  0  0  0  0  0
   58.9800   32.6720   47.8740 C   0  0  0  0  0  0  0  0  0  0  0  0
   58.4750   33.4890   44.2900 N   0  0  0  0  0  0  0  0  0  0  0  0
   58.1220   32.9060   43.1220 C   0  0  0  0  0  0  0  0  0  0  0  0
   57.8480   31.5930   43.0140 N   0  0  0  0  0  0  0  0  0  0  0  0
   56.7660   27.7350   45.4600 C   0  0  0  0  0  0  0  0  0  0  0  0
   57.9740   27.0900   45.6540 C   0  0  0  0  0  0  0  0  0  0  0  0
   57.7250   25.8860   46.3000 C   0  0  0  0  0  0  0  0  0  0  0  0
   56.3550   25.8290   46.4860 C   0  0  0  0  0  0  0  0  0  0  0  0
   55.7980   26.9440   45.9780 N   0  0  0  0  0  0  0  0  0  0  0  0
   58.3558   30.7659   46.2206 H   0  0  0  0  0  0  0  0  0  0  0  0
   59.3747   35.3319   46.0964 H   0  0  0  0  0  0  0  0  0  0  0  0
   60.1094   34.3462   50.6450 H   0  0  0  0  0  0  0  0  0  0  0  0
   58.6327   33.3162   50.7799 H   0  0  0  0  0  0  0  0  0  0  0  0
   60.0870   31.7130   51.3620 H   0  0  0  0  0  0  0  0  0  0  0  0
   61.9657   33.4633   51.3194 H   0  0  0  0  0  0  0  0  0  0  0  0
   62.3215   31.6913   51.1008 H   0  0  0  0  0  0  0  0  0  0  0  0
   62.7838   34.9303   49.5386 H   0  0  0  0  0  0  0  0  0  0  0  0
   63.7897   35.1683   47.3114 H   0  0  0  0  0  0  0  0  0  0  0  0
   64.0515   33.2193   45.8115 H   0  0  0  0  0  0  0  0  0  0  0  0
   63.2658   30.9874   46.6133 H   0  0  0  0  0  0  0  0  0  0  0  0
   62.2573   30.7532   48.8587 H   0  0  0  0  0  0  0  0  0  0  0  0
   58.7313   31.6166   48.0589 H   0  0  0  0  0  0  0  0  0  0  0  0
   58.6870   34.5030   44.3770 H   0  0  0  0  0  0  0  0  0  0  0  0
   58.0559   33.5327   42.2204 H   0  0  0  0  0  0  0  0  0  0  0  0
   58.9618   27.4659   45.3492 H   0  0  0  0  0  0  0  0  0  0  0  0
   58.4660   25.1313   46.6023 H   0  0  0  0  0  0  0  0  0  0  0  0
   55.8095   25.0058   46.9705 H   0  0  0  0  0  0  0  0  0  0  0  0
   54.7650   27.1250   46.0030 H   0  0  0  0  0  0  0  0  0  0  0  0
  1  2  2  0
  2  3  1  0
  3  4  2  0
  4  5  1  0
  5  6  2  0
  6  7  1  0
  7  8  1  0
  8  9  2  0
  9 10  1  0
 10 11  1  0
 11 12  1  0
 12 13  1  0
 13 14  1  0
 14 15  2  0
 15 16  1  0
 16 17  2  0
 17 18  1  0
 18 19  2  0
 10 20  2  0
  6 21  1  0
 21 22  1  0
 22 23  2  0
  2 24  1  0
 24 25  2  0
 25 26  1  0
 26 27  2  0
 27 28  1  0
 23  4  1  0
 28 24  1  0
 20  7  1  0
 19 14  1  0
  5 29  1  0
  8 30  1  0
 11 31  1  0
 11 32  1  0
 12 33  1  0
 13 34  1  0
 13 35  1  0
 15 36  1  0
 16 37  1  0
 17 38  1  0
 18 39  1  0
 19 40  1  0
 20 41  1  0
 21 42  1  0
 22 43  1  0
 25 44  1  0
 26 45  1  0
 27 46  1  0
 28 47  1  0
M  END
>  <smiles>  (26) 
O=C(N=c1cc(-n2cnc(CNCc3ccccc3)c2)[nH]cn1)c1ccc[nH]1

>  <score_type>  (26) 
oracle

>  <origin>  (26) 
adg

>  <m_score__min__energy>  (26) 
-8.4399999999999995

>  <m_primary>  (26) 
energy

$$$$
26:0
     RDKit          3D

 48 50  0  0  0  0  0  0  0  0999 V2000
   55.1020   31.2254   44.2343 H   0  0  0  0  0  0  0  0  0  0  0  0
   55.8980   30.4700   44.3100 C   0  0  0  0  0  0  0  0  0  0  0  0
   55.6620   29.3000   44.9590 N   0  0  0  0  0  0  0  0  0  0  0  0
   56.6090   28.3310   45.0870 C   0  0  0  0  0  0  0  0  0  0  0  0
   56.3000   27.2430   45.7340 N   0  0  0  0  0  0  0  0  0  0  0  0
   57.0510   26.0220   45.7990 C   0  0  0  0  0  0  0  0  0  0  0  0
   57.6370   25.6090   44.7630 O   0  0  0  0  0  0  0  0  0  0  0  0
   57.2540   25.2930   47.0960 C   0  0  0  0  0  0  0  0  0  0  0  0
   56.3260   25.3346   47.6852 H   0  0  0  0  0  0  0  0  0  0  0  0
   57.5167   24.2465   46.8819 H   0  0  0  0  0  0  0  0  0  0  0  0
   58.3360   25.9090   47.8570 N   0  0  0  0  0  0  0  0  0  0  0  0
   59.4670   26.5450   47.2490 C   0  0  0  0  0  0  0  0  0  0  0  0
   60.3820   25.8400   46.7420 O   0  0  0  0  0  0  0  0  0  0  0  0
   59.5640   28.0230   47.2150 C   0  0  0  0  0  0  0  0  0  0  0  0
   60.4090   28.6650   46.2910 C   0  0  0  0  0  0  0  0  0  0  0  0
   61.0038   28.0651   45.5865 H   0  0  0  0  0  0  0  0  0  0  0  0
   60.4980   30.0600   46.2620 C   0  0  0  0  0  0  0  0  0  0  0  0
   61.1650   30.5513   45.5383 H   0  0  0  0  0  0  0  0  0  0  0  0
   59.7410   30.8350   47.1510 C   0  0  0  0  0  0  0  0  0  0  0  0
   59.8710   32.5910   47.1340 S   0  0  0  0  0  0  0  0  0  0  0  0
   59.6950   33.0990   45.7290 O   0  0  0  0  0  0  0  0  0  0  0  0
   58.7830   33.1740   47.9930 O   0  0  0  0  0  0  0  0  0  0  0  0
   61.4270   33.0610   47.7670 N   0  0  0  0  0  0  0  0  0  0  0  0
   62.1600   31.9080   48.2880 C   0  0  0  0  0  0  0  0  0  0  0  0
   61.8922   31.7316   49.3402 H   0  0  0  0  0  0  0  0  0  0  0  0
   61.9160   30.9948   47.7254 H   0  0  0  0  0  0  0  0  0  0  0  0
   63.6380   32.2460   48.1720 C   0  0  0  0  0  0  0  0  0  0  0  0
   64.0331   32.5839   49.1414 H   0  0  0  0  0  0  0  0  0  0  0  0
   64.2357   31.3729   47.8713 H   0  0  0  0  0  0  0  0  0  0  0  0
   63.7150   33.3670   47.1450 C   0  0  0  0  0  0  0  0  0  0  0  0
   64.1530   34.2708   47.5938 H   0  0  0  0  0  0  0  0  0  0  0  0
   64.3507   33.0952   46.2894 H   0  0  0  0  0  0  0  0  0  0  0  0
   62.2780   33.6260   46.7220 C   0  0  0  0  0  0  0  0  0  0  0  0
   62.0985   34.7073   46.6297 H   0  0  0  0  0  0  0  0  0  0  0  0
   62.0634   33.1684   45.7450 H   0  0  0  0  0  0  0  0  0  0  0  0
   58.9040   30.2030   48.0770 C   0  0  0  0  0  0  0  0  0  0  0  0
   58.3147   30.8063   48.7832 H   0  0  0  0  0  0  0  0  0  0  0  0
   58.8130   28.8080   48.1090 C   0  0  0  0  0  0  0  0  0  0  0  0
   58.1494   28.3208   48.8385 H   0  0  0  0  0  0  0  0  0  0  0  0
   57.8950   28.5620   44.5570 C   0  0  0  0  0  0  0  0  0  0  0  0
   58.6853   27.8056   44.6726 H   0  0  0  0  0  0  0  0  0  0  0  0
   58.1590   29.7560   43.8850 C   0  0  0  0  0  0  0  0  0  0  0  0
   59.1607   29.9425   43.4706 H   0  0  0  0  0  0  0  0  0  0  0  0
   57.1520   30.7170   43.7370 C   0  0  0  0  0  0  0  0  0  0  0  0
   57.4360   32.0220   43.0560 C   0  0  0  0  0  0  0  0  0  0  0  0
   57.6056   32.8015   43.8134 H   0  0  0  0  0  0  0  0  0  0  0  0
   58.3330   31.9200   42.4275 H   0  0  0  0  0  0  0  0  0  0  0  0
   56.5778   32.3020   42.4275 H   0  0  0  0  0  0  0  0  0  0  0  0
  1  2  1  0
  2  3  1  0
  3  4  1  0
  4  5  2  0
  5  6  1  0
  6  7  2  0
  6  8  1  0
  8  9  1  0
  8 10  1  0
  8 11  1  0
 11 12  1  0
 12 13  2  0
 12 14  1  0
 14 15  2  0
 15 16  1  0
 15 17  1  0
 17 18  1  0
 17 19  2  0
 19 20  1  0
 20 21  2  0
 20 22  2  0
 20 23  1  0
 23 24  1  0
 24 25  1  0
 24 26  1  0
 24 27  1  0
 27 28  1  0
 27 29  1  0
 27 30  1  0
 30 31  1  0
 30 32  1  0
 30 33  1  0
 33 34  1  0
 33 35  1  0
 19 36  1  0
 36 37  1  0
 36 38  2  0
 38 39  1  0
  4 40  1  0
 40 41  1  0
 40 42  2  0
 42 43  1  0
 42 44  1  0
 44 45  1  0
 45 46  1  0
 45 47  1  0
 45 48  1  0
 44  2  2  0
 38 14  1  0
 33 23  1  0
M  CHG  2   3  -1  11  -1
M  END
>  <UniqueID>  (27) 
25

>  <SMILES>  (27) 
Cc1cc/c(=N\C(=O)C[N-]C(=O)c2ccc(S(=O)(=O)N3CCCC3)cc2)[n-]c1

>  <Energy>  (27) 
56.820070563636136

>  <Genealogy>  (27) 
Cc1ccc(=NC(=O)C[N-]C(=O)c2ccc(S(=O)(=O)N3CCCC3)cc2)[n-]c1 (protonated)
Cc1cc/c(=N\C(=O)C[N-]C(=O)c2ccc(S(=O)(=O)N3CCCC3)cc2)[n-]c1 (cis-trans isomerization)
Cc1cc/c(=N\C(=O)C[N-]C(=O)c2ccc(S(=O)(=O)N3CCCC3)cc2)[n-]c1 (3D coordinates assigned)
Cc1cc/c(=N\C(=O)C[N-]C(=O)c2ccc(S(=O)(=O)N3CCCC3)cc2)[n-]c1 (nonaromatic ring conformer: 56.820070563636136 kcal/mol)

>  <smiles>  (27) 
Cc1ccc(=NC(=O)CNC(=O)c2ccc(S(=O)(=O)N3CCCC3)cc2)[nH]c1

>  <score_type>  (27) 
oracle

>  <origin>  (27) 
adg

>  <m_score__min__energy>  (27) 
-12.390000000000001

>  <m_primary>  (27) 
energy

$$$$
27:0
     RDKit          3D

 47 49  0  0  1  0  0  0  0  0999 V2000
   57.3960   32.3690   40.8100 C   0  0  0  0  0  0  0  0  0  0  0  0
   56.7260   28.7570   45.3810 N   0  0  0  0  0  0  0  0  0  0  0  0
   57.0000   29.8360   44.7620 C   0  0  0  0  0  0  0  0  0  0  0  0
   57.6020   32.1290   43.5210 N   0  0  0  0  0  0  0  0  0  0  0  0
   57.8600   32.0320   44.8370 C   0  0  0  0  0  0  0  0  0  0  0  0
   58.4480   33.1070   45.6180 C   0  0  0  0  0  0  0  0  0  0  0  0
   58.4760   33.1050   46.9940 C   0  0  0  0  0  0  0  0  0  0  0  0
   59.0550   34.1690   47.6530 C   0  0  0  0  0  0  0  0  0  0  0  0
   59.6160   35.2490   47.0140 C   0  0  0  0  0  0  0  0  0  0  0  0
   59.5880   35.2500   45.6320 C   0  0  0  0  0  0  0  0  0  0  0  0
   59.0090   34.1880   44.9810 C   0  0  0  0  0  0  0  0  0  0  0  0
   57.5470   30.8680   45.4310 N   0  0  0  0  0  0  0  0  0  0  0  0
   57.0500   31.1030   42.8190 C   0  0  0  0  0  0  0  0  0  0  0  0
   56.8230   31.2510   41.5550 N   0  0  0  0  0  0  0  0  0  0  0  0
   57.6310   28.1600   46.3720 C   0  0  0  0  0  0  0  0  0  0  0  0
   58.6610   27.3540   45.6210 C   0  0  0  0  0  0  0  0  0  0  0  0
   58.1940   26.0370   45.1700 C   0  0  0  0  0  0  0  0  0  0  0  0
   57.7250   25.9250   43.8690 C   0  0  0  0  0  0  0  0  0  0  0  0
   57.2640   24.7330   43.3460 C   0  0  0  0  0  0  0  0  0  0  0  0
   57.2620   23.6020   44.1320 C   0  0  0  0  0  0  0  0  0  0  0  0
   56.6920   22.0550   43.5390 S   0  0  0  0  0  0  0  0  0  0  0  0
   58.0770   21.0720   43.2300 N   0  0  0  0  0  0  0  0  0  0  0  0
   55.9120   22.2520   42.2880 O   0  0  0  0  0  0  0  0  0  0  0  0
   55.8220   21.3970   44.5740 O   0  0  0  0  0  0  0  0  0  0  0  0
   57.7250   23.6790   45.4420 C   0  0  0  0  0  0  0  0  0  0  0  0
   58.1840   24.8990   45.9390 C   0  0  0  0  0  0  0  0  0  0  0  0
   56.7430   29.9430   43.4320 N   0  0  0  0  0  0  0  0  0  0  0  0
   57.7811   33.1204   41.5150 H   0  0  0  0  0  0  0  0  0  0  0  0
   58.2185   32.0046   40.1770 H   0  0  0  0  0  0  0  0  0  0  0  0
   56.6199   32.8239   40.1770 H   0  0  0  0  0  0  0  0  0  0  0  0
   57.8190   33.0010   43.0010 H   0  0  0  0  0  0  0  0  0  0  0  0
   58.0429   32.2670   47.5598 H   0  0  0  0  0  0  0  0  0  0  0  0
   59.0687   34.1525   48.7528 H   0  0  0  0  0  0  0  0  0  0  0  0
   60.0682   36.0776   47.5787 H   0  0  0  0  0  0  0  0  0  0  0  0
   60.0216   36.0862   45.0638 H   0  0  0  0  0  0  0  0  0  0  0  0
   58.9933   34.2037   43.8812 H   0  0  0  0  0  0  0  0  0  0  0  0
   58.1255   28.9520   46.9536 H   0  0  0  0  0  0  0  0  0  0  0  0
   57.0718   27.5189   47.0693 H   0  0  0  0  0  0  0  0  0  0  0  0
   58.9699   27.9303   44.7364 H   0  0  0  0  0  0  0  0  0  0  0  0
   59.4865   27.1690   46.3241 H   0  0  0  0  0  0  0  0  0  0  0  0
   57.7202   26.8201   43.2296 H   0  0  0  0  0  0  0  0  0  0  0  0
   56.9008   24.6871   42.3087 H   0  0  0  0  0  0  0  0  0  0  0  0
   58.5290   20.7610   44.1060 H   0  0  0  0  0  0  0  0  0  0  0  0
   57.8260   20.2370   42.6710 H   0  0  0  0  0  0  0  0  0  0  0  0
   57.7290   22.7839   46.0814 H   0  0  0  0  0  0  0  0  0  0  0  0
   58.5481   24.9511   46.9757 H   0  0  0  0  0  0  0  0  0  0  0  0
   56.3190   29.1620   42.8830 H   0  0  0  0  0  0  0  0  0  0  0  0
  1  2  1  0
  2  3  2  0
  3  4  1  0
  4  5  1  0
  5  6  1  0
  6  7  2  0
  7  8  1  0
  8  9  2  0
  9 10  1  0
 10 11  2  0
  5 12  2  0
 12 13  1  0
 13 14  2  0
 14 15  1  0
 15 16  1  0
 16 17  1  0
 17 18  2  0
 18 19  1  0
 19 20  2  0
 20 21  1  0
 21 22  1  0
 21 23  2  0
 21 24  2  0
 20 25  1  0
 25 26  2  0
 13 27  1  0
 27  3  1  0
 11  6  1  0
 26 17  1  0
  1 28  1  0
  1 29  1  0
  1 30  1  0
  4 31  1  0
  7 32  1  0
  8 33  1  0
  9 34  1  0
 10 35  1  0
 11 36  1  0
 15 37  1  0
 15 38  1  0
 16 39  1  0
 16 40  1  0
 18 41  1  0
 19 42  1  0
 22 43  1  0
 22 44  1  0
 25 45  1  0
 26 46  1  0
 27 47  1  0
M  END
>  <smiles>  (28) 
CN=c1[nH]c(-c2ccccc2)nc(=NCCc2ccc(S(N)(=O)=O)cc2)[nH]1

>  <score_type>  (28) 
oracle

>  <origin>  (28) 
adg

>  <m_score__min__energy>  (28) 
-9.2300000000000004

>  <m_primary>  (28) 
energy

$$$$
28:0
     RDKit          3D

 46 48  0  0  1  0  0  0  0  0999 V2000
   55.9900   27.4750   45.5670 N   0  0  0  0  0  0  0  0  0  0  0  0
   56.6690   26.5370   46.3950 C   0  0  0  0  0  0  0  0  0  0  0  0
   55.9590   25.6000   46.8860 O   0  0  0  0  0  0  0  0  0  0  0  0
   58.0970   26.6530   46.6560 C   0  0  0  0  0  0  0  0  0  0  0  0
   59.0690   26.2620   45.7600 C   0  0  0  0  0  0  0  0  0  0  0  0
   60.4140   26.3980   46.0660 C   0  0  0  0  0  0  0  0  0  0  0  0
   60.7610   26.9380   47.2970 C   0  0  0  0  0  0  0  0  0  0  0  0
   59.8290   27.3380   48.2140 C   0  0  0  0  0  0  0  0  0  0  0  0
   60.1390   27.8950   49.4840 N   0  0  0  0  0  0  0  0  0  0  0  0
   60.7710   29.0200   49.5000 C   0  0  0  0  0  0  0  0  0  0  0  0
   61.6690   29.1980   50.5460 C   0  0  0  0  0  0  0  0  0  0  0  0
   62.3560   30.3950   50.5820 C   0  0  0  0  0  0  0  0  0  0  0  0
   62.1860   31.3640   49.6610 N   0  0  0  0  0  0  0  0  0  0  0  0
   61.3040   31.1290   48.6750 C   0  0  0  0  0  0  0  0  0  0  0  0
   61.1430   32.0600   47.7950 N   0  0  0  0  0  0  0  0  0  0  0  0
   59.9250   32.8550   47.7070 C   0  0  0  0  0  0  0  0  0  0  0  0
   59.0900   32.1400   46.6760 C   0  0  0  0  0  0  0  0  0  0  0  0
   58.5090   30.9200   47.0010 C   0  0  0  0  0  0  0  0  0  0  0  0
   57.7340   30.2510   46.0560 C   0  0  0  0  0  0  0  0  0  0  0  0
   57.5480   30.8110   44.7910 C   0  0  0  0  0  0  0  0  0  0  0  0
   56.5590   29.9020   43.6640 S   0  0  0  0  0  0  0  0  0  0  0  0
   57.3990   28.4540   43.2560 N   0  0  0  0  0  0  0  0  0  0  0  0
   55.2440   29.5550   44.3220 O   0  0  0  0  0  0  0  0  0  0  0  0
   56.3000   30.6960   42.4100 O   0  0  0  0  0  0  0  0  0  0  0  0
   58.1240   32.0210   44.4710 C   0  0  0  0  0  0  0  0  0  0  0  0
   58.9000   32.7000   45.4070 C   0  0  0  0  0  0  0  0  0  0  0  0
   60.5970   29.9830   48.5770 N   0  0  0  0  0  0  0  0  0  0  0  0
   58.4930   27.1870   47.8730 C   0  0  0  0  0  0  0  0  0  0  0  0
   56.2980   27.7000   44.5870 H   0  0  0  0  0  0  0  0  0  0  0  0
   55.1550   27.9490   45.9670 H   0  0  0  0  0  0  0  0  0  0  0  0
   58.7733   25.8366   44.7896 H   0  0  0  0  0  0  0  0  0  0  0  0
   61.1885   26.0853   45.3501 H   0  0  0  0  0  0  0  0  0  0  0  0
   61.8272   27.0483   47.5442 H   0  0  0  0  0  0  0  0  0  0  0  0
   61.8250   28.4215   51.3093 H   0  0  0  0  0  0  0  0  0  0  0  0
   63.0735   30.5652   51.3982 H   0  0  0  0  0  0  0  0  0  0  0  0
   62.7110   32.2660   49.6990 H   0  0  0  0  0  0  0  0  0  0  0  0
   59.4069   32.8836   48.6769 H   0  0  0  0  0  0  0  0  0  0  0  0
   60.1242   33.9021   47.4352 H   0  0  0  0  0  0  0  0  0  0  0  0
   58.6603   30.4846   47.9998 H   0  0  0  0  0  0  0  0  0  0  0  0
   57.2705   29.2852   46.3058 H   0  0  0  0  0  0  0  0  0  0  0  0
   56.7780   27.8140   42.7040 H   0  0  0  0  0  0  0  0  0  0  0  0
   58.2570   28.6840   42.7080 H   0  0  0  0  0  0  0  0  0  0  0  0
   57.9701   32.4529   43.4711 H   0  0  0  0  0  0  0  0  0  0  0  0
   59.3590   33.6665   45.1519 H   0  0  0  0  0  0  0  0  0  0  0  0
   59.9210   29.8370   47.7970 H   0  0  0  0  0  0  0  0  0  0  0  0
   57.7220   27.5013   48.5918 H   0  0  0  0  0  0  0  0  0  0  0  0
  1  2  1  0
  2  3  2  0
  2  4  1  0
  4  5  2  0
  5  6  1  0
  6  7  2  0
  7  8  1  0
  8  9  1  0
  9 10  2  0
 10 11  1  0
 11 12  2  0
 12 13  1  0
 13 14  1  0
 14 15  2  0
 15 16  1  0
 16 17  1  0
 17 18  2  0
 18 19  1  0
 19 20  2  0
 20 21  1  0
 21 22  1  0
 21 23  2  0
 21 24  2  0
 20 25  1  0
 25 26  2  0
 14 27  1  0
  8 28  2  0
 28  4  1  0
 27 10  1  0
 26 17  1  0
  1 29  1  0
  1 30  1  0
  5 31  1  0
  6 32  1  0
  7 33  1  0
 11 34  1  0
 12 35  1  0
 13 36  1  0
 16 37  1  0
 16 38  1  0
 18 39  1  0
 19 40  1  0
 22 41  1  0
 22 42  1  0
 25 43  1  0
 26 44  1  0
 27 45  1  0
 28 46  1  0
M  END
>  <smiles>  (29) 
NC(=O)c1cccc(N=c2cc[nH]c(=NCc3ccc(S(N)(=O)=O)cc3)[nH]2)c1

>  <score_type>  (29) 
oracle

>  <origin>  (29) 
adg

>  <m_score__min__energy>  (29) 
-8.9100000000000001

>  <m_primary>  (29) 
energy

$$$$
29:0
     RDKit          3D

 44 47  0  0  1  0  0  0  0  0999 V2000
   56.2360   30.3130   44.8380 O   0  0  0  0  0  0  0  0  0  0  0  0
   57.4700   30.4980   44.7650 C   0  0  0  0  0  0  0  0  0  0  0  0
   58.4290   29.4890   44.4880 N   0  0  0  0  0  0  0  0  0  0  0  0
   58.3790   28.3140   44.9530 C   0  0  0  0  0  0  0  0  0  0  0  0
   59.5660   27.7590   45.4350 C   0  0  0  0  0  0  0  0  0  0  0  0
   59.5940   26.4810   45.9620 C   0  0  0  0  0  0  0  0  0  0  0  0
   58.4170   25.7950   45.9890 C   0  0  0  0  0  0  0  0  0  0  0  0
   58.3590   24.4320   46.5170 C   0  0  0  0  0  0  0  0  0  0  0  0
   58.0850   23.3950   45.5180 C   0  0  0  0  0  0  0  0  0  0  0  0
   56.5050   23.3190   44.6150 S   0  0  0  0  0  0  0  0  0  0  0  0
   57.0550   21.8140   43.6890 C   0  0  0  0  0  0  0  0  0  0  0  0
   56.3290   21.2260   42.8340 O   0  0  0  0  0  0  0  0  0  0  0  0
   58.3070   21.5570   44.1460 N   0  0  0  0  0  0  0  0  0  0  0  0
   58.8040   22.3470   45.0510 C   0  0  0  0  0  0  0  0  0  0  0  0
   60.1270   22.1300   45.5770 O   0  0  0  0  0  0  0  0  0  0  0  0
   57.2370   26.3700   45.5010 C   0  0  0  0  0  0  0  0  0  0  0  0
   57.2440   27.6250   44.9900 N   0  0  0  0  0  0  0  0  0  0  0  0
   58.0050   31.8450   44.9810 C   0  0  0  0  0  0  0  0  0  0  0  0
   58.4960   32.4040   46.1360 C   0  0  0  0  0  0  0  0  0  0  0  0
   58.9170   33.6930   46.0750 C   0  0  0  0  0  0  0  0  0  0  0  0
   59.5680   34.3040   47.2660 C   0  0  0  0  0  0  0  0  0  0  0  0
   60.3620   33.6740   48.0730 C   0  0  0  0  0  0  0  0  0  0  0  0
   61.7510   33.3550   47.8840 C   0  0  0  0  0  0  0  0  0  0  0  0
   62.5030   32.9450   46.8650 N   0  0  0  0  0  0  0  0  0  0  0  0
   63.7690   32.7740   47.1880 N   0  0  0  0  0  0  0  0  0  0  0  0
   63.8680   33.0860   48.4800 C   0  0  0  0  0  0  0  0  0  0  0  0
   64.9050   33.0550   49.1600 O   0  0  0  0  0  0  0  0  0  0  0  0
   62.6470   33.4370   48.9140 N   0  0  0  0  0  0  0  0  0  0  0  0
   58.8270   34.3250   44.8970 C   0  0  0  0  0  0  0  0  0  0  0  0
   58.1100   33.1280   43.7150 S   0  0  0  0  0  0  0  0  0  0  0  0
   60.4941   28.3481   45.3948 H   0  0  0  0  0  0  0  0  0  0  0  0
   60.5258   26.0374   46.3428 H   0  0  0  0  0  0  0  0  0  0  0  0
   59.3274   24.2061   46.9874 H   0  0  0  0  0  0  0  0  0  0  0  0
   57.5164   24.4102   47.2238 H   0  0  0  0  0  0  0  0  0  0  0  0
   58.8250   20.7160   43.7330 H   0  0  0  0  0  0  0  0  0  0  0  0
   60.8150   21.9120   44.8960 H   0  0  0  0  0  0  0  0  0  0  0  0
   56.2975   25.7987   45.5327 H   0  0  0  0  0  0  0  0  0  0  0  0
   56.3660   28.0530   44.6250 H   0  0  0  0  0  0  0  0  0  0  0  0
   58.5460   31.8298   47.0729 H   0  0  0  0  0  0  0  0  0  0  0  0
   59.3606   35.3638   47.4755 H   0  0  0  0  0  0  0  0  0  0  0  0
   59.9173   33.3412   49.0225 H   0  0  0  0  0  0  0  0  0  0  0  0
   64.5180   32.4640   46.5430 H   0  0  0  0  0  0  0  0  0  0  0  0
   62.4700   33.7220   49.9000 H   0  0  0  0  0  0  0  0  0  0  0  0
   59.1261   35.3616   44.6827 H   0  0  0  0  0  0  0  0  0  0  0  0
  1  2  2  0
  2  3  1  0
  3  4  2  0
  4  5  1  0
  5  6  2  0
  6  7  1  0
  7  8  1  0
  8  9  1  0
  9 10  1  0
 10 11  1  0
 11 12  2  0
 11 13  1  0
 13 14  1  0
 14 15  1  0
  7 16  2  0
 16 17  1  0
  2 18  1  0
 18 19  2  0
 19 20  1  0
 20 21  1  0
 21 22  2  0
 22 23  1  0
 23 24  2  0
 24 25  1  0
 25 26  1  0
 26 27  2  0
 26 28  1  0
 20 29  2  0
 29 30  1  0
 17  4  1  0
 30 18  1  0
 14  9  2  0
 28 23  1  0
  5 31  1  0
  6 32  1  0
  8 33  1  0
  8 34  1  0
 13 35  1  0
 15 36  1  0
 16 37  1  0
 17 38  1  0
 19 39  1  0
 21 40  1  0
 22 41  1  0
 25 42  1  0
 28 43  1  0
 29 44  1  0
M  END
>  <smiles>  (30) 
O=C(N=c1ccc(Cc2sc(=O)[nH]c2O)c[nH]1)c1cc(C=Cc2n[nH]c(=O)[nH]2)cs1

>  <score_type>  (30) 
oracle

>  <origin>  (30) 
adg

>  <m_score__min__energy>  (30) 
-11.460000000000001

>  <m_primary>  (30) 
energy

$$$$
30:0
     RDKit          3D

 47 49  0  0  0  0  0  0  0  0999 V2000
   56.9960   23.6990   47.8600 O   0  0  0  0  0  0  0  0  0  0  0  0
   56.9020   24.4130   46.8250 C   0  0  0  0  0  0  0  0  0  0  0  0
   56.4920   23.7920   45.5290 C   0  0  0  0  0  0  0  0  0  0  0  0
   55.0030   23.8620   45.3790 C   0  0  0  0  0  0  0  0  0  0  0  0
   54.2330   22.8030   45.0690 N   0  0  0  0  0  0  0  0  0  0  0  0
   52.9790   23.3050   45.1170 C   0  0  0  0  0  0  0  0  0  0  0  0
   51.9610   22.6070   44.8740 O   0  0  0  0  0  0  0  0  0  0  0  0
   52.9030   24.6110   45.4500 N   0  0  0  0  0  0  0  0  0  0  0  0
   54.1910   24.9500   45.6200 C   0  0  0  0  0  0  0  0  0  0  0  0
   54.6030   26.2260   45.9960 O   0  0  0  0  0  0  0  0  0  0  0  0
   57.2410   25.8030   46.8690 N   0  0  0  0  0  0  0  0  0  0  0  0
   58.4410   26.3590   46.2540 C   0  0  0  0  0  0  0  0  0  0  0  0
   58.2000   27.7770   45.8160 C   0  0  0  0  0  0  0  0  0  0  0  0
   59.1330   28.7770   46.1270 C   0  0  0  0  0  0  0  0  0  0  0  0
   58.9240   30.0940   45.7060 C   0  0  0  0  0  0  0  0  0  0  0  0
   57.7810   30.4270   44.9620 C   0  0  0  0  0  0  0  0  0  0  0  0
   57.5360   31.8530   44.5390 C   0  0  0  0  0  0  0  0  0  0  0  0
   57.5070   32.7940   45.7450 C   0  0  0  0  0  0  0  0  0  0  0  0
   58.5840   33.7710   45.6480 N   0  0  0  0  0  0  0  0  0  0  0  0
   59.3700   34.1810   46.7700 C   0  0  0  0  0  0  0  0  0  0  0  0
   59.0020   35.1750   47.4520 O   0  0  0  0  0  0  0  0  0  0  0  0
   60.6200   33.4480   47.1050 C   0  0  0  0  0  0  0  0  0  0  0  0
   61.8290   33.8590   46.5060 C   0  0  0  0  0  0  0  0  0  0  0  0
   63.0280   33.2050   46.7970 C   0  0  0  0  0  0  0  0  0  0  0  0
   63.0450   32.1340   47.6870 C   0  0  0  0  0  0  0  0  0  0  0  0
   61.8590   31.7060   48.2850 C   0  0  0  0  0  0  0  0  0  0  0  0
   60.6470   32.3500   48.0050 C   0  0  0  0  0  0  0  0  0  0  0  0
   59.1990   31.6960   48.7660 Cl  0  0  0  0  0  0  0  0  0  0  0  0
   56.8420   29.4290   44.6600 C   0  0  0  0  0  0  0  0  0  0  0  0
   57.0530   28.1110   45.0780 C   0  0  0  0  0  0  0  0  0  0  0  0
   56.9682   24.3334   44.6983 H   0  0  0  0  0  0  0  0  0  0  0  0
   56.8084   22.7386   45.5159 H   0  0  0  0  0  0  0  0  0  0  0  0
   55.1480   26.3820   46.8340 H   0  0  0  0  0  0  0  0  0  0  0  0
   59.2636   26.3406   46.9841 H   0  0  0  0  0  0  0  0  0  0  0  0
   58.7020   25.7542   45.3730 H   0  0  0  0  0  0  0  0  0  0  0  0
   60.0339   28.5239   46.7052 H   0  0  0  0  0  0  0  0  0  0  0  0
   59.6586   30.8727   45.9590 H   0  0  0  0  0  0  0  0  0  0  0  0
   58.3405   32.1679   43.8582 H   0  0  0  0  0  0  0  0  0  0  0  0
   56.5588   31.9028   44.0365 H   0  0  0  0  0  0  0  0  0  0  0  0
   56.5411   33.3197   45.7724 H   0  0  0  0  0  0  0  0  0  0  0  0
   57.6399   32.2038   46.6637 H   0  0  0  0  0  0  0  0  0  0  0  0
   61.8274   34.7041   45.8018 H   0  0  0  0  0  0  0  0  0  0  0  0
   63.9626   33.5371   46.3214 H   0  0  0  0  0  0  0  0  0  0  0  0
   63.9927   31.6257   47.9185 H   0  0  0  0  0  0  0  0  0  0  0  0
   61.8761   30.8555   48.9824 H   0  0  0  0  0  0  0  0  0  0  0  0
   55.9355   29.6844   44.0917 H   0  0  0  0  0  0  0  0  0  0  0  0
   56.3172   27.3327   44.8275 H   0  0  0  0  0  0  0  0  0  0  0  0
  1  2  2  0
  2  3  1  0
  3  4  1  0
  4  5  1  0
  5  6  1  0
  6  7  2  0
  6  8  1  0
  8  9  1  0
  9 10  1  0
  2 11  1  0
 11 12  1  0
 12 13  1  0
 13 14  2  0
 14 15  1  0
 15 16  2  0
 16 17  1  0
 17 18  1  0
 18 19  1  0
 19 20  1  0
 20 21  2  0
 20 22  1  0
 22 23  2  0
 23 24  1  0
 24 25  2  0
 25 26  1  0
 26 27  2  0
 27 28  1  0
 16 29  1  0
 29 30  2  0
  9  4  2  0
 30 13  1  0
 27 22  1  0
  3 31  1  0
  3 32  1  0
 10 33  1  0
 12 34  1  0
 12 35  1  0
 14 36  1  0
 15 37  1  0
 17 38  1  0
 17 39  1  0
 18 40  1  0
 18 41  1  0
 23 42  1  0
 24 43  1  0
 25 44  1  0
 26 45  1  0
 29 46  1  0
 30 47  1  0
M  CHG  4   5  -1   8  -1  11  -1  19  -1
M  END
>  <UniqueID>  (31) 
26

>  <SMILES>  (31) 
O=C(Cc1[n-]c(=O)[n-]c1O)[N-]Cc1ccc(CC[N-]C(=O)c2ccccc2Cl)cc1

>  <Energy>  (31) 
72.69176524487088

>  <Genealogy>  (31) 
O=C(Cc1[n-]c(=O)[n-]c1O)[N-]Cc1ccc(CC[N-]C(=O)c2ccccc2Cl)cc1 (protonated)
O=C(Cc1[n-]c(=O)[n-]c1O)[N-]Cc1ccc(CC[N-]C(=O)c2ccccc2Cl)cc1 (3D coordinates assigned)
O=C(Cc1[n-]c(=O)[n-]c1O)[N-]Cc1ccc(CC[N-]C(=O)c2ccccc2Cl)cc1 (optimized conformer: 72.69176524487088 kcal/mol)

>  <smiles>  (31) 
O=C(Cc1[nH]c(=O)[nH]c1O)NCc1ccc(CCNC(=O)c2ccccc2Cl)cc1

>  <score_type>  (31) 
oracle

>  <origin>  (31) 
adg

>  <m_score__min__energy>  (31) 
-15.85

>  <m_primary>  (31) 
energy

$$$$
31:0
     RDKit          3D

 42 44  0  0  0  0  0  0  0  0999 V2000
   59.8390   29.0990   44.6650 C   0  0  0  0  0  0  0  0  0  0  0  0
   58.5100   29.1350   44.8410 C   0  0  0  0  0  0  0  0  0  0  0  0
   57.6060   28.0640   44.8080 C   0  0  0  0  0  0  0  0  0  0  0  0
   57.8310   26.7380   44.8320 C   0  0  0  0  0  0  0  0  0  0  0  0
   57.2680   25.7890   45.8080 C   0  0  0  0  0  0  0  0  0  0  0  0
   57.9780   24.8380   46.4420 N   0  0  0  0  0  0  0  0  0  0  0  0
   57.0960   24.3240   47.3250 C   0  0  0  0  0  0  0  0  0  0  0  0
   57.3910   23.3830   48.1070 O   0  0  0  0  0  0  0  0  0  0  0  0
   55.8770   24.9020   47.3100 N   0  0  0  0  0  0  0  0  0  0  0  0
   56.0040   25.8380   46.3540 C   0  0  0  0  0  0  0  0  0  0  0  0
   54.9820   26.7120   45.9960 O   0  0  0  0  0  0  0  0  0  0  0  0
   56.3480   28.5530   44.7710 N   0  0  0  0  0  0  0  0  0  0  0  0
   56.5030   29.8880   44.8380 C   0  0  0  0  0  0  0  0  0  0  0  0
   55.5290   30.6870   44.8250 O   0  0  0  0  0  0  0  0  0  0  0  0
   57.7920   30.2820   44.9100 N   0  0  0  0  0  0  0  0  0  0  0  0
   58.2800   31.6680   44.9820 C   0  0  0  0  0  0  0  0  0  0  0  0
   58.0540   32.2500   46.3530 C   0  0  0  0  0  0  0  0  0  0  0  0
   57.0470   32.9820   46.5490 O   0  0  0  0  0  0  0  0  0  0  0  0
   58.9760   32.0400   47.4310 N   0  0  0  0  0  0  0  0  0  0  0  0
   60.3780   32.3290   47.3820 C   0  0  0  0  0  0  0  0  0  0  0  0
   60.8150   33.5330   46.8020 C   0  0  0  0  0  0  0  0  0  0  0  0
   62.1740   33.8270   46.7190 C   0  0  0  0  0  0  0  0  0  0  0  0
   63.1150   32.9200   47.2020 C   0  0  0  0  0  0  0  0  0  0  0  0
   62.7000   31.7110   47.7640 C   0  0  0  0  0  0  0  0  0  0  0  0
   61.3300   31.3920   47.8580 C   0  0  0  0  0  0  0  0  0  0  0  0
   60.9370   30.1000   48.4790 C   0  0  0  0  0  0  0  0  0  0  0  0
   61.2290   29.8460   49.6790 O   0  0  0  0  0  0  0  0  0  0  0  0
   60.2380   29.1530   47.7210 O   0  0  0  0  0  0  0  0  0  0  0  0
   58.9570   28.6600   48.0940 C   0  0  0  0  0  0  0  0  0  0  0  0
   60.4263   30.0275   44.7189 H   0  0  0  0  0  0  0  0  0  0  0  0
   60.3418   28.1409   44.4668 H   0  0  0  0  0  0  0  0  0  0  0  0
   58.4927   26.3266   44.0555 H   0  0  0  0  0  0  0  0  0  0  0  0
   55.1500   27.4980   45.3810 H   0  0  0  0  0  0  0  0  0  0  0  0
   59.3569   31.6821   44.7584 H   0  0  0  0  0  0  0  0  0  0  0  0
   57.7259   32.2729   44.2491 H   0  0  0  0  0  0  0  0  0  0  0  0
   60.0773   34.2489   46.4104 H   0  0  0  0  0  0  0  0  0  0  0  0
   62.5046   34.7760   46.2718 H   0  0  0  0  0  0  0  0  0  0  0  0
   64.1874   33.1569   47.1404 H   0  0  0  0  0  0  0  0  0  0  0  0
   63.4508   30.9992   48.1377 H   0  0  0  0  0  0  0  0  0  0  0  0
   58.8806   28.6306   49.1910 H   0  0  0  0  0  0  0  0  0  0  0  0
   58.1773   29.3223   47.6898 H   0  0  0  0  0  0  0  0  0  0  0  0
   58.8225   27.6459   47.6898 H   0  0  0  0  0  0  0  0  0  0  0  0
  1  2  2  0
  2  3  1  0
  3  4  2  3
  4  5  1  0
  5  6  1  0
  6  7  1  0
  7  8  2  0
  7  9  1  0
  9 10  1  0
 10 11  1  0
  3 12  1  0
 12 13  1  0
 13 14  2  0
 13 15  1  0
 15 16  1  0
 16 17  1  0
 17 18  2  0
 17 19  1  0
 19 20  1  0
 20 21  2  0
 21 22  1  0
 22 23  2  0
 23 24  1  0
 24 25  2  0
 25 26  1  0
 26 27  2  0
 26 28  1  0
 28 29  1  0
 15  2  1  0
 25 20  1  0
 10  5  2  0
  1 30  1  0
  1 31  1  0
  4 32  1  0
 11 33  1  0
 16 34  1  0
 16 35  1  0
 21 36  1  0
 22 37  1  0
 23 38  1  0
 24 39  1  0
 29 40  1  0
 29 41  1  0
 29 42  1  0
M  CHG  4   6  -1   9  -1  12  -1  19  -1
M  END
>  <UniqueID>  (32) 
27

>  <SMILES>  (32) 
C=c1c(=Cc2[n-]c(=O)[n-]c2O)[n-]c(=O)n1CC(=O)[N-]c1ccccc1C(=O)OC

>  <Energy>  (32) 
118.57561273305429

>  <Genealogy>  (32) 
C=c1c(=Cc2[n-]c(=O)[n-]c2O)[n-]c(=O)n1CC(=O)[N-]c1ccccc1C(=O)OC (protonated)
C=c1c(=Cc2[n-]c(=O)[n-]c2O)[n-]c(=O)n1CC(=O)[N-]c1ccccc1C(=O)OC (3D coordinates assigned)
C=c1c(=Cc2[n-]c(=O)[n-]c2O)[n-]c(=O)n1CC(=O)[N-]c1ccccc1C(=O)OC (optimized conformer: 118.57561273305429 kcal/mol)

>  <smiles>  (32) 
C=c1c(=Cc2[nH]c(=O)[nH]c2O)[nH]c(=O)n1CC(=O)Nc1ccccc1C(=O)OC

>  <score_type>  (32) 
oracle

>  <origin>  (32) 
adg

>  <m_score__min__energy>  (32) 
-15.33

>  <m_primary>  (32) 
energy

$$$$
32:0
     RDKit          3D

 56 59  0  0  0  0  0  0  0  0999 V2000
   55.1288   30.1704   54.0987 H   0  0  0  0  0  0  0  0  0  0  0  0
   55.1540   30.1040   53.0010 C   0  0  0  0  0  0  0  0  0  0  0  0
   54.1070   29.5230   52.3950 C   0  0  0  0  0  0  0  0  0  0  0  0
   53.9980   28.4342   52.5077 H   0  0  0  0  0  0  0  0  0  0  0  0
   53.0880   30.2280   51.5880 C   0  0  0  0  0  0  0  0  0  0  0  0
   52.7180   29.7660   50.3130 C   0  0  0  0  0  0  0  0  0  0  0  0
   53.1737   28.8500   49.9089 H   0  0  0  0  0  0  0  0  0  0  0  0
   51.7730   30.4660   49.5560 C   0  0  0  0  0  0  0  0  0  0  0  0
   51.4734   30.0896   48.5668 H   0  0  0  0  0  0  0  0  0  0  0  0
   51.2090   31.6430   50.0550 C   0  0  0  0  0  0  0  0  0  0  0  0
   50.2680   32.3330   49.2990 O   0  0  0  0  0  0  0  0  0  0  0  0
   51.5950   32.1260   51.3110 C   0  0  0  0  0  0  0  0  0  0  0  0
   51.0440   33.3030   51.8070 O   0  0  0  0  0  0  0  0  0  0  0  0
   52.5400   31.4260   52.0700 C   0  0  0  0  0  0  0  0  0  0  0  0
   52.8544   31.8171   53.0489 H   0  0  0  0  0  0  0  0  0  0  0  0
   56.3360   30.6610   52.3160 C   0  0  0  0  0  0  0  0  0  0  0  0
   57.1990   29.9020   51.6160 N   0  0  0  0  0  0  0  0  0  0  0  0
   58.1040   30.7040   51.0720 N   0  0  0  0  0  0  0  0  0  0  0  0
   59.1830   30.2200   50.1980 C   0  0  0  0  0  0  0  0  0  0  0  0
   59.5535   31.0487   49.5767 H   0  0  0  0  0  0  0  0  0  0  0  0
   58.6480   29.1420   49.2210 C   0  0  0  0  0  0  0  0  0  0  0  0
   57.9165   28.5111   49.7472 H   0  0  0  0  0  0  0  0  0  0  0  0
   58.1765   29.6479   48.3656 H   0  0  0  0  0  0  0  0  0  0  0  0
   59.7860   28.2600   48.6990 C   0  0  0  0  0  0  0  0  0  0  0  0
   59.3751   27.5366   47.9794 H   0  0  0  0  0  0  0  0  0  0  0  0
   60.5327   28.9108   48.2206 H   0  0  0  0  0  0  0  0  0  0  0  0
   60.4800   27.4900   49.8410 C   0  0  0  0  0  0  0  0  0  0  0  0
   60.0068   26.5012   49.9321 H   0  0  0  0  0  0  0  0  0  0  0  0
   61.5468   27.4195   49.5824 H   0  0  0  0  0  0  0  0  0  0  0  0
   60.3900   28.2020   51.2060 C   0  0  0  0  0  0  0  0  0  0  0  0
   59.4638   27.8899   51.7108 H   0  0  0  0  0  0  0  0  0  0  0  0
   61.2741   27.9228   51.7980 H   0  0  0  0  0  0  0  0  0  0  0  0
   60.3810   29.7270   51.0490 C   0  0  0  0  0  0  0  0  0  0  0  0
   60.3194   30.1857   52.0469 H   0  0  0  0  0  0  0  0  0  0  0  0
   61.3065   30.0190   50.5311 H   0  0  0  0  0  0  0  0  0  0  0  0
   57.8270   31.9820   51.4270 C   0  0  0  0  0  0  0  0  0  0  0  0
   58.5870   33.1910   51.0600 C   0  0  0  0  0  0  0  0  0  0  0  0
   58.6846   34.0040   51.7945 H   0  0  0  0  0  0  0  0  0  0  0  0
   59.1620   33.3280   49.8580 C   0  0  0  0  0  0  0  0  0  0  0  0
   58.5059   33.4116   48.9791 H   0  0  0  0  0  0  0  0  0  0  0  0
   60.6280   33.3740   49.6380 C   0  0  0  0  0  0  0  0  0  0  0  0
   61.4710   33.3950   50.7620 C   0  0  0  0  0  0  0  0  0  0  0  0
   61.0345   33.3782   51.7715 H   0  0  0  0  0  0  0  0  0  0  0  0
   62.8590   33.4370   50.6080 C   0  0  0  0  0  0  0  0  0  0  0  0
   63.5092   33.4417   51.4952 H   0  0  0  0  0  0  0  0  0  0  0  0
   63.4230   33.4730   49.3320 C   0  0  0  0  0  0  0  0  0  0  0  0
   64.5167   33.4896   49.2158 H   0  0  0  0  0  0  0  0  0  0  0  0
   62.5990   33.4880   48.1980 C   0  0  0  0  0  0  0  0  0  0  0  0
   63.2050   33.5040   46.8250 C   0  0  0  0  0  0  0  0  0  0  0  0
   64.3014   33.5330   46.9085 H   0  0  0  0  0  0  0  0  0  0  0  0
   62.9026   32.5976   46.2801 H   0  0  0  0  0  0  0  0  0  0  0  0
   62.8551   34.3932   46.2801 H   0  0  0  0  0  0  0  0  0  0  0  0
   61.2040   33.4270   48.3520 C   0  0  0  0  0  0  0  0  0  0  0  0
   60.5563   33.4205   47.4629 H   0  0  0  0  0  0  0  0  0  0  0  0
   56.6820   31.9960   52.1920 C   0  0  0  0  0  0  0  0  0  0  0  0
   56.1605   32.8697   52.6099 H   0  0  0  0  0  0  0  0  0  0  0  0
  1  2  1  0
  2  3  2  0
  3  4  1  0
  3  5  1  0
  5  6  2  0
  6  7  1  0
  6  8  1  0
  8  9  1  0
  8 10  2  0
 10 11  1  0
 10 12  1  0
 12 13  1  0
 12 14  2  0
 14 15  1  0
  2 16  1  0
 16 17  2  0
 17 18  1  0
 18 19  1  0
 19 20  1  0
 19 21  1  0
 21 22  1  0
 21 23  1  0
 21 24  1  0
 24 25  1  0
 24 26  1  0
 24 27  1  0
 27 28  1  0
 27 29  1  0
 27 30  1  0
 30 31  1  0
 30 32  1  0
 30 33  1  0
 33 34  1  0
 33 35  1  0
 18 36  1  0
 36 37  1  0
 37 38  1  0
 37 39  2  0
 39 40  1  0
 39 41  1  0
 41 42  2  0
 42 43  1  0
 42 44  1  0
 44 45  1  0
 44 46  2  0
 46 47  1  0
 46 48  1  0
 48 49  1  0
 49 50  1  0
 49 51  1  0
 49 52  1  0
 48 53  2  0
 53 54  1  0
 36 55  2  0
 55 56  1  0
 14  5  1  0
 55 16  1  0
 33 19  1  0
 53 41  1  0
M  CHG  2  11  -1  13  -1
M  END
>  <UniqueID>  (33) 
28

>  <SMILES>  (33) 
Cc1cccc(/C=C/c2cc(/C=C\c3ccc([O-])c([O-])c3)nn2C2CCCCC2)c1

>  <Energy>  (33) 
104.90273760673576

>  <Genealogy>  (33) 
Cc1cccc(C=Cc2cc(C=Cc3ccc([O-])c([O-])c3)nn2C2CCCCC2)c1 (protonated)
Cc1cccc(/C=C/c2cc(/C=C\c3ccc([O-])c([O-])c3)nn2C2CCCCC2)c1 (cis-trans isomerization)
Cc1cccc(/C=C/c2cc(/C=C\c3ccc([O-])c([O-])c3)nn2C2CCCCC2)c1 (3D coordinates assigned)
Cc1cccc(/C=C/c2cc(/C=C\c3ccc([O-])c([O-])c3)nn2C2CCCCC2)c1 (nonaromatic ring conformer: 104.90273760673576 kcal/mol)

>  <smiles>  (33) 
Cc1cccc(C=Cc2cc(C=Cc3ccc(O)c(O)c3)nn2C2CCCCC2)c1

>  <score_type>  (33) 
oracle

>  <origin>  (33) 
adg

>  <m_score__min__energy>  (33) 
-18.280000000000001

>  <m_primary>  (33) 
energy

$$$$
33:0
     RDKit          3D

 51 53  0  0  0  0  0  0  0  0999 V2000
   55.5280   29.1840   45.1890 O   0  0  0  0  0  0  0  0  0  0  0  0
   56.2440   29.4010   44.1730 C   0  0  0  0  0  0  0  0  0  0  0  0
   57.4050   28.5030   43.8750 C   0  0  0  0  0  0  0  0  0  0  0  0
   58.3990   28.5660   45.0060 C   0  0  0  0  0  0  0  0  0  0  0  0
   59.5100   29.4210   44.8920 C   0  0  0  0  0  0  0  0  0  0  0  0
   60.4710   29.4780   45.9050 C   0  0  0  0  0  0  0  0  0  0  0  0
   60.3430   28.6710   47.0360 C   0  0  0  0  0  0  0  0  0  0  0  0
   59.2520   27.8060   47.1580 C   0  0  0  0  0  0  0  0  0  0  0  0
   58.2810   27.7450   46.1500 C   0  0  0  0  0  0  0  0  0  0  0  0
   56.9430   26.6160   46.3540 Cl  0  0  0  0  0  0  0  0  0  0  0  0
   55.9170   30.4580   43.2650 N   0  0  0  0  0  0  0  0  0  0  0  0
   56.9160   31.2080   42.5180 C   0  0  0  0  0  0  0  0  0  0  0  0
   57.6470   32.1330   43.4360 C   0  0  0  0  0  0  0  0  0  0  0  0
   58.5220   32.9100   42.9640 O   0  0  0  0  0  0  0  0  0  0  0  0
   57.2700   32.2010   44.7840 O   0  0  0  0  0  0  0  0  0  0  0  0
   58.1270   32.4950   45.8530 C   0  0  0  0  0  0  0  0  0  0  0  0
   58.1740   31.7100   47.0210 C   0  0  0  0  0  0  0  0  0  0  0  0
   59.0400   32.0500   48.0650 C   0  0  0  0  0  0  0  0  0  0  0  0
   59.8570   33.1820   47.9640 C   0  0  0  0  0  0  0  0  0  0  0  0
   60.9470   33.5940   49.2840 S   0  0  0  0  0  0  0  0  0  0  0  0
   61.5980   34.9180   49.0020 O   0  0  0  0  0  0  0  0  0  0  0  0
   60.1380   33.7220   50.5460 O   0  0  0  0  0  0  0  0  0  0  0  0
   62.1510   32.3310   49.4640 N   0  0  0  0  0  0  0  0  0  0  0  0
   62.0710   31.3360   48.3680 C   0  0  0  0  0  0  0  0  0  0  0  0
   63.0910   31.6040   47.2460 C   0  0  0  0  0  0  0  0  0  0  0  0
   63.3410   32.9840   47.1270 O   0  0  0  0  0  0  0  0  0  0  0  0
   64.0460   33.4560   48.2620 C   0  0  0  0  0  0  0  0  0  0  0  0
   63.5080   32.8940   49.6010 C   0  0  0  0  0  0  0  0  0  0  0  0
   59.8020   33.9730   46.8090 C   0  0  0  0  0  0  0  0  0  0  0  0
   58.9380   33.6340   45.7650 C   0  0  0  0  0  0  0  0  0  0  0  0
   57.0475   27.4692   43.7596 H   0  0  0  0  0  0  0  0  0  0  0  0
   57.8906   28.8319   42.9444 H   0  0  0  0  0  0  0  0  0  0  0  0
   59.6235   30.0506   43.9972 H   0  0  0  0  0  0  0  0  0  0  0  0
   61.3291   30.1597   45.8106 H   0  0  0  0  0  0  0  0  0  0  0  0
   61.1010   28.7156   47.8319 H   0  0  0  0  0  0  0  0  0  0  0  0
   59.1553   27.1698   48.0501 H   0  0  0  0  0  0  0  0  0  0  0  0
   57.6306   30.5083   42.0600 H   0  0  0  0  0  0  0  0  0  0  0  0
   56.4168   31.7954   41.7333 H   0  0  0  0  0  0  0  0  0  0  0  0
   57.5266   30.8254   47.1126 H   0  0  0  0  0  0  0  0  0  0  0  0
   59.0793   31.4252   48.9694 H   0  0  0  0  0  0  0  0  0  0  0  0
   61.9240   31.8420   50.3620 H   0  0  0  0  0  0  0  0  0  0  0  0
   62.2619   30.3364   48.7856 H   0  0  0  0  0  0  0  0  0  0  0  0
   61.0658   31.4077   47.9271 H   0  0  0  0  0  0  0  0  0  0  0  0
   64.0318   31.0845   47.4803 H   0  0  0  0  0  0  0  0  0  0  0  0
   62.6800   31.2334   46.2953 H   0  0  0  0  0  0  0  0  0  0  0  0
   65.1021   33.1653   48.1616 H   0  0  0  0  0  0  0  0  0  0  0  0
   63.9150   34.5477   48.2933 H   0  0  0  0  0  0  0  0  0  0  0  0
   64.1865   32.1020   49.9509 H   0  0  0  0  0  0  0  0  0  0  0  0
   63.4579   33.7248   50.3202 H   0  0  0  0  0  0  0  0  0  0  0  0
   60.4414   34.8641   46.7239 H   0  0  0  0  0  0  0  0  0  0  0  0
   58.8940   34.2667   44.8662 H   0  0  0  0  0  0  0  0  0  0  0  0
  1  2  2  0
  2  3  1  0
  3  4  1  0
  4  5  2  0
  5  6  1  0
  6  7  2  0
  7  8  1  0
  8  9  2  0
  9 10  1  0
  2 11  1  0
 11 12  1  0
 12 13  1  0
 13 14  2  0
 13 15  1  0
 15 16  1  0
 16 17  2  0
 17 18  1  0
 18 19  2  0
 19 20  1  0
 20 21  2  0
 20 22  2  0
 20 23  1  0
 23 24  1  0
 24 25  1  0
 25 26  1  0
 26 27  1  0
 27 28  1  0
 19 29  1  0
 29 30  2  0
  9  4  1  0
 30 16  1  0
 28 23  1  0
  3 31  1  0
  3 32  1  0
  5 33  1  0
  6 34  1  0
  7 35  1  0
  8 36  1  0
 12 37  1  0
 12 38  1  0
 17 39  1  0
 18 40  1  0
 23 41  1  0
 24 42  1  0
 24 43  1  0
 25 44  1  0
 25 45  1  0
 27 46  1  0
 27 47  1  0
 28 48  1  0
 28 49  1  0
 29 50  1  0
 30 51  1  0
M  CHG  2  11  -1  23   1
M  END
>  <UniqueID>  (34) 
29

>  <SMILES>  (34) 
O=C(Cc1ccccc1Cl)[N-]CC(=O)Oc1ccc(S(=O)(=O)[NH+]2CCOCC2)cc1

>  <Energy>  (34) 
62.9092977342155

>  <Genealogy>  (34) 
O=C(Cc1ccccc1Cl)[N-]CC(=O)Oc1ccc(S(=O)(=O)[NH+]2CCOCC2)cc1 (protonated)
O=C(Cc1ccccc1Cl)[N-]CC(=O)Oc1ccc(S(=O)(=O)[NH+]2CCOCC2)cc1 (3D coordinates assigned)
O=C(Cc1ccccc1Cl)[N-]CC(=O)Oc1ccc(S(=O)(=O)[NH+]2CCOCC2)cc1 (nonaromatic ring conformer: 62.9092977342155 kcal/mol)

>  <smiles>  (34) 
O=C(Cc1ccccc1Cl)NCC(=O)Oc1ccc(S(=O)(=O)N2CCOCC2)cc1

>  <score_type>  (34) 
oracle

>  <origin>  (34) 
adg

>  <m_score__min__energy>  (34) 
-9.5600000000000005

>  <m_primary>  (34) 
energy

$$$$
34:0
     RDKit          3D

 39 41  0  0  0  0  0  0  0  0999 V2000
   53.2345   24.7786   45.8389 H   0  0  0  0  0  0  0  0  0  0  0  0
   54.3080   24.8600   45.6130 C   0  0  0  0  0  0  0  0  0  0  0  0
   55.0010   25.9650   45.9940 N   0  0  0  0  0  0  0  0  0  0  0  0
   56.3280   26.0880   45.7270 C   0  0  0  0  0  0  0  0  0  0  0  0
   56.9570   27.1570   46.1060 N   0  0  0  0  0  0  0  0  0  0  0  0
   58.0800   28.0200   45.1040 S   0  0  0  0  0  0  0  0  0  0  0  0
   57.9810   27.5420   43.6820 O   0  0  0  0  0  0  0  0  0  0  0  0
   59.4750   27.7990   45.6140 O   0  0  0  0  0  0  0  0  0  0  0  0
   57.7040   29.7350   45.1640 C   0  0  0  0  0  0  0  0  0  0  0  0
   58.4550   30.8440   46.1840 S   0  0  0  0  0  0  0  0  0  0  0  0
   57.5350   32.1260   45.6090 C   0  0  0  0  0  0  0  0  0  0  0  0
   57.6560   33.3440   46.0430 N   0  0  0  0  0  0  0  0  0  0  0  0
   58.8060   34.1940   45.8830 C   0  0  0  0  0  0  0  0  0  0  0  0
   58.8580   35.0260   44.9360 O   0  0  0  0  0  0  0  0  0  0  0  0
   59.9360   34.0920   46.8370 C   0  0  0  0  0  0  0  0  0  0  0  0
   59.7310   34.2840   48.2170 C   0  0  0  0  0  0  0  0  0  0  0  0
   58.7227   34.5119   48.5930 H   0  0  0  0  0  0  0  0  0  0  0  0
   60.8000   34.1870   49.1120 C   0  0  0  0  0  0  0  0  0  0  0  0
   60.6298   34.3387   50.1881 H   0  0  0  0  0  0  0  0  0  0  0  0
   62.0840   33.8980   48.6440 C   0  0  0  0  0  0  0  0  0  0  0  0
   62.9234   33.8218   49.3509 H   0  0  0  0  0  0  0  0  0  0  0  0
   62.3010   33.7060   47.2790 C   0  0  0  0  0  0  0  0  0  0  0  0
   63.3125   33.4793   46.9109 H   0  0  0  0  0  0  0  0  0  0  0  0
   61.2360   33.8010   46.3780 C   0  0  0  0  0  0  0  0  0  0  0  0
   61.4143   33.6475   45.3034 H   0  0  0  0  0  0  0  0  0  0  0  0
   56.6580   31.7400   44.6520 N   0  0  0  0  0  0  0  0  0  0  0  0
   56.7520   30.4070   44.3950 C   0  0  0  0  0  0  0  0  0  0  0  0
   55.8700   29.7410   43.3880 C   0  0  0  0  0  0  0  0  0  0  0  0
   55.0963   29.1568   43.9077 H   0  0  0  0  0  0  0  0  0  0  0  0
   55.3912   30.5049   42.7577 H   0  0  0  0  0  0  0  0  0  0  0  0
   56.4736   29.0714   42.7577 H   0  0  0  0  0  0  0  0  0  0  0  0
   56.9770   25.0890   45.0660 N   0  0  0  0  0  0  0  0  0  0  0  0
   56.3240   23.9650   44.6670 C   0  0  0  0  0  0  0  0  0  0  0  0
   57.0640   22.8910   43.9380 C   0  0  0  0  0  0  0  0  0  0  0  0
   57.5327   22.2108   44.6644 H   0  0  0  0  0  0  0  0  0  0  0  0
   56.3625   22.3262   43.3065 H   0  0  0  0  0  0  0  0  0  0  0  0
   57.8416   23.3454   43.3065 H   0  0  0  0  0  0  0  0  0  0  0  0
   54.9580   23.8300   44.9360 C   0  0  0  0  0  0  0  0  0  0  0  0
   54.4090   22.9306   44.6201 H   0  0  0  0  0  0  0  0  0  0  0  0
  1  2  1  0
  2  3  1  0
  3  4  1  0
  4  5  2  3
  5  6  1  0
  6  7  2  0
  6  8  2  0
  6  9  1  0
  9 10  1  0
 10 11  1  0
 11 12  2  0
 12 13  1  0
 13 14  2  0
 13 15  1  0
 15 16  2  0
 16 17  1  0
 16 18  1  0
 18 19  1  0
 18 20  2  0
 20 21  1  0
 20 22  1  0
 22 23  1  0
 22 24  2  0
 24 25  1  0
 11 26  1  0
 26 27  1  0
 27 28  1  0
 28 29  1  0
 28 30  1  0
 28 31  1  0
  4 32  1  0
 32 33  2  0
 33 34  1  0
 34 35  1  0
 34 36  1  0
 34 37  1  0
 33 38  1  0
 38 39  1  0
 38  2  2  0
 27  9  2  0
 24 15  1  0
M  CHG  2   3  -1  26  -1
M  END
>  <UniqueID>  (35) 
30

>  <SMILES>  (35) 
Cc1cc[n-]c(=NS(=O)(=O)c2s/c(=N/C(=O)c3ccccc3)[n-]c2C)n1

>  <Energy>  (35) 
76.5268345463655

>  <Genealogy>  (35) 
Cc1cc[n-]c(=NS(=O)(=O)c2sc(=NC(=O)c3ccccc3)[n-]c2C)n1 (protonated)
Cc1cc[n-]c(=NS(=O)(=O)c2s/c(=N/C(=O)c3ccccc3)[n-]c2C)n1 (cis-trans isomerization)
Cc1cc[n-]c(=NS(=O)(=O)c2s/c(=N/C(=O)c3ccccc3)[n-]c2C)n1 (3D coordinates assigned)
Cc1cc[n-]c(=NS(=O)(=O)c2s/c(=N/C(=O)c3ccccc3)[n-]c2C)n1 (optimized conformer: 76.5268345463655 kcal/mol)

>  <smiles>  (35) 
Cc1cc[nH]c(=NS(=O)(=O)c2sc(=NC(=O)c3ccccc3)[nH]c2C)n1

>  <score_type>  (35) 
oracle

>  <origin>  (35) 
adg

>  <m_score__min__energy>  (35) 
-11.460000000000001

>  <m_primary>  (35) 
energy

$$$$
35:0
     RDKit          3D

 45 47  0  0  0  0  0  0  0  0999 V2000
   55.5200   27.2990   45.2480 H   0  0  0  0  0  0  0  0  0  0  0  0
   55.1610   26.7250   46.0430 N   0  0  0  0  0  0  0  0  0  0  0  0
   56.0090   25.2210   46.0010 S   0  0  0  0  0  0  0  0  0  0  0  0
   55.7630   24.5450   44.6800 O   0  0  0  0  0  0  0  0  0  0  0  0
   55.5060   24.3270   47.1000 O   0  0  0  0  0  0  0  0  0  0  0  0
   57.7330   25.5120   46.2120 C   0  0  0  0  0  0  0  0  0  0  0  0
   58.6660   24.5370   45.8370 C   0  0  0  0  0  0  0  0  0  0  0  0
   58.3214   23.5787   45.4211 H   0  0  0  0  0  0  0  0  0  0  0  0
   60.0330   24.7790   45.9900 C   0  0  0  0  0  0  0  0  0  0  0  0
   60.7626   24.0106   45.6946 H   0  0  0  0  0  0  0  0  0  0  0  0
   60.4760   25.9940   46.5170 C   0  0  0  0  0  0  0  0  0  0  0  0
   61.5541   26.1839   46.6246 H   0  0  0  0  0  0  0  0  0  0  0  0
   59.5510   26.9740   46.9100 C   0  0  0  0  0  0  0  0  0  0  0  0
   60.0310   28.2880   47.4750 C   0  0  0  0  0  0  0  0  0  0  0  0
   61.0180   28.1401   47.9375 H   0  0  0  0  0  0  0  0  0  0  0  0
   59.2998   28.6333   48.2207 H   0  0  0  0  0  0  0  0  0  0  0  0
   60.1420   29.3080   46.4290 N   0  0  0  0  0  0  0  0  0  0  0  0
   59.2280   30.1640   46.0600 C   0  0  0  0  0  0  0  0  0  0  0  0
   58.1670   29.7060   45.2740 C   0  0  0  0  0  0  0  0  0  0  0  0
   58.1139   28.6467   44.9825 H   0  0  0  0  0  0  0  0  0  0  0  0
   57.1730   30.5980   44.8590 C   0  0  0  0  0  0  0  0  0  0  0  0
   56.0810   30.1250   44.0470 C   0  0  0  0  0  0  0  0  0  0  0  0
   55.2050   29.7470   43.3940 N   0  0  0  0  0  0  0  0  0  0  0  0
   57.2370   31.9090   45.2220 N   0  0  0  0  0  0  0  0  0  0  0  0
   56.4880   32.5660   44.9070 H   0  0  0  0  0  0  0  0  0  0  0  0
   58.2510   32.3950   45.9910 C   0  0  0  0  0  0  0  0  0  0  0  0
   58.2380   33.7600   46.3280 O   0  0  0  0  0  0  0  0  0  0  0  0
   58.8560   34.3380   47.4790 C   0  0  0  0  0  0  0  0  0  0  0  0
   58.7378   35.4309   47.4385 H   0  0  0  0  0  0  0  0  0  0  0  0
   58.3709   33.9272   48.3768 H   0  0  0  0  0  0  0  0  0  0  0  0
   60.3240   34.0050   47.5370 C   0  0  0  0  0  0  0  0  0  0  0  0
   60.9090   33.5930   48.7460 C   0  0  0  0  0  0  0  0  0  0  0  0
   60.2909   33.5061   49.6518 H   0  0  0  0  0  0  0  0  0  0  0  0
   62.2730   33.2930   48.8030 C   0  0  0  0  0  0  0  0  0  0  0  0
   62.7226   32.9595   49.7499 H   0  0  0  0  0  0  0  0  0  0  0  0
   63.0670   33.4160   47.6590 C   0  0  0  0  0  0  0  0  0  0  0  0
   64.3900   33.1240   47.7160 F   0  0  0  0  0  0  0  0  0  0  0  0
   62.4970   33.8460   46.4580 C   0  0  0  0  0  0  0  0  0  0  0  0
   63.1228   33.9480   45.5591 H   0  0  0  0  0  0  0  0  0  0  0  0
   61.1330   34.1470   46.3960 C   0  0  0  0  0  0  0  0  0  0  0  0
   60.6913   34.4962   45.4510 H   0  0  0  0  0  0  0  0  0  0  0  0
   59.2690   31.5240   46.4220 C   0  0  0  0  0  0  0  0  0  0  0  0
   60.0950   31.9050   47.0405 H   0  0  0  0  0  0  0  0  0  0  0  0
   58.1790   26.7340   46.7350 C   0  0  0  0  0  0  0  0  0  0  0  0
   57.4491   27.5097   47.0100 H   0  0  0  0  0  0  0  0  0  0  0  0
  1  2  1  0
  2  3  1  0
  3  4  2  0
  3  5  2  0
  3  6  1  0
  6  7  2  0
  7  8  1  0
  7  9  1  0
  9 10  1  0
  9 11  2  0
 11 12  1  0
 11 13  1  0
 13 14  1  0
 14 15  1  0
 14 16  1  0
 14 17  1  0
 17 18  2  0
 18 19  1  0
 19 20  1  0
 19 21  2  0
 21 22  1  0
 22 23  3  0
 21 24  1  0
 24 25  1  0
 24 26  1  0
 26 27  1  0
 27 28  1  0
 28 29  1  0
 28 30  1  0
 28 31  1  0
 31 32  2  0
 32 33  1  0
 32 34  1  0
 34 35  1  0
 34 36  2  0
 36 37  1  0
 36 38  1  0
 38 39  1  0
 38 40  2  0
 40 41  1  0
 26 42  2  0
 42 43  1  0
 13 44  2  0
 44 45  1  0
 44  6  1  0
 42 18  1  0
 40 31  1  0
M  CHG  1   2  -1
M  END
>  <UniqueID>  (36) 
31

>  <SMILES>  (36) 
N#Cc1c/c(=N/Cc2cccc(S([NH-])(=O)=O)c2)cc(OCc2ccc(F)cc2)[nH]1

>  <Energy>  (36) 
46.725300045503786

>  <Genealogy>  (36) 
N#Cc1cc(=NCc2cccc(S([NH-])(=O)=O)c2)cc(OCc2ccc(F)cc2)[nH]1 (protonated)
N#Cc1c/c(=N/Cc2cccc(S([NH-])(=O)=O)c2)cc(OCc2ccc(F)cc2)[nH]1 (cis-trans isomerization)
N#Cc1c/c(=N/Cc2cccc(S([NH-])(=O)=O)c2)cc(OCc2ccc(F)cc2)[nH]1 (3D coordinates assigned)
N#Cc1c/c(=N/Cc2cccc(S([NH-])(=O)=O)c2)cc(OCc2ccc(F)cc2)[nH]1 (optimized conformer: 46.725300045503786 kcal/mol)

>  <smiles>  (36) 
N#Cc1cc(=NCc2cccc(S(N)(=O)=O)c2)cc(OCc2ccc(F)cc2)[nH]1

>  <score_type>  (36) 
oracle

>  <origin>  (36) 
adg

>  <m_score__min__energy>  (36) 
-11.16

>  <m_primary>  (36) 
energy

$$$$
36:0
     RDKit          3D

 55 58  0  0  0  0  0  0  0  0999 V2000
   56.1481   29.5360   53.0000 H   0  0  0  0  0  0  0  0  0  0  0  0
   56.7470   30.2230   52.3840 C   0  0  0  0  0  0  0  0  0  0  0  0
   57.4270   29.7520   51.3040 N   0  0  0  0  0  0  0  0  0  0  0  0
   58.1800   30.5670   50.5120 C   0  0  0  0  0  0  0  0  0  0  0  0
   58.8280   30.1040   49.4820 N   0  0  0  0  0  0  0  0  0  0  0  0
   60.0920   30.5660   48.9730 C   0  0  0  0  0  0  0  0  0  0  0  0
   61.0820   29.7910   48.8980 O   0  0  0  0  0  0  0  0  0  0  0  0
   60.2600   31.9330   48.5860 N   0  0  0  0  0  0  0  0  0  0  0  0
   59.6290   32.5920   47.4780 C   0  0  0  0  0  0  0  0  0  0  0  0
   59.5030   33.9910   47.4170 C   0  0  0  0  0  0  0  0  0  0  0  0
   59.9317   34.6155   48.2146 H   0  0  0  0  0  0  0  0  0  0  0  0
   58.8340   34.5910   46.3450 C   0  0  0  0  0  0  0  0  0  0  0  0
   58.7503   35.6867   46.2949 H   0  0  0  0  0  0  0  0  0  0  0  0
   58.2720   33.8030   45.3380 C   0  0  0  0  0  0  0  0  0  0  0  0
   57.7488   34.2788   44.4955 H   0  0  0  0  0  0  0  0  0  0  0  0
   58.3740   32.4070   45.4000 C   0  0  0  0  0  0  0  0  0  0  0  0
   57.5580   31.4060   44.2020 S   0  0  0  0  0  0  0  0  0  0  0  0
   56.1900   31.0130   44.6870 O   0  0  0  0  0  0  0  0  0  0  0  0
   57.4090   32.1700   42.9150 O   0  0  0  0  0  0  0  0  0  0  0  0
   58.5200   29.9940   43.9330 N   0  0  0  0  0  0  0  0  0  0  0  0
   59.3910   30.1160   43.3710 H   0  0  0  0  0  0  0  0  0  0  0  0
   58.4720   28.9320   44.8890 C   0  0  0  0  0  0  0  0  0  0  0  0
   59.5340   28.7310   45.7800 C   0  0  0  0  0  0  0  0  0  0  0  0
   60.3885   29.4237   45.7808 H   0  0  0  0  0  0  0  0  0  0  0  0
   59.5100   27.6520   46.6680 C   0  0  0  0  0  0  0  0  0  0  0  0
   60.3341   27.5102   47.3826 H   0  0  0  0  0  0  0  0  0  0  0  0
   58.4400   26.7530   46.6490 C   0  0  0  0  0  0  0  0  0  0  0  0
   58.4260   25.9038   47.3480 H   0  0  0  0  0  0  0  0  0  0  0  0
   57.3820   26.9290   45.7410 C   0  0  0  0  0  0  0  0  0  0  0  0
   56.2780   25.9450   45.6810 C   0  0  0  0  0  0  0  0  0  0  0  0
   55.1210   26.2930   46.0490 O   0  0  0  0  0  0  0  0  0  0  0  0
   56.4930   24.6080   45.1920 N   0  0  0  0  0  0  0  0  0  0  0  0
   57.6530   23.8190   45.6280 C   0  0  0  0  0  0  0  0  0  0  0  0
   58.4595   24.5013   45.9345 H   0  0  0  0  0  0  0  0  0  0  0  0
   57.3511   23.1823   46.4727 H   0  0  0  0  0  0  0  0  0  0  0  0
   58.1610   22.9150   44.4790 C   0  0  0  0  0  0  0  0  0  0  0  0
   59.0923   23.3481   44.0851 H   0  0  0  0  0  0  0  0  0  0  0  0
   58.3053   21.9116   44.9060 H   0  0  0  0  0  0  0  0  0  0  0  0
   57.2450   22.7730   43.4020 O   0  0  0  0  0  0  0  0  0  0  0  0
   55.9290   22.6040   43.8850 C   0  0  0  0  0  0  0  0  0  0  0  0
   55.2740   22.2836   43.0614 H   0  0  0  0  0  0  0  0  0  0  0  0
   55.9230   21.8392   44.6756 H   0  0  0  0  0  0  0  0  0  0  0  0
   55.4220   23.9320   44.4540 C   0  0  0  0  0  0  0  0  0  0  0  0
   55.0867   24.5768   43.6283 H   0  0  0  0  0  0  0  0  0  0  0  0
   54.5845   23.7328   45.1387 H   0  0  0  0  0  0  0  0  0  0  0  0
   57.3890   28.0460   44.8890 C   0  0  0  0  0  0  0  0  0  0  0  0
   56.5368   28.2254   44.2170 H   0  0  0  0  0  0  0  0  0  0  0  0
   59.0400   31.8070   46.4780 C   0  0  0  0  0  0  0  0  0  0  0  0
   59.1006   30.7104   46.5392 H   0  0  0  0  0  0  0  0  0  0  0  0
   58.2620   31.9340   50.8110 C   0  0  0  0  0  0  0  0  0  0  0  0
   58.8666   32.6037   50.1818 H   0  0  0  0  0  0  0  0  0  0  0  0
   57.5700   32.4390   51.9140 C   0  0  0  0  0  0  0  0  0  0  0  0
   57.6236   33.5109   52.1550 H   0  0  0  0  0  0  0  0  0  0  0  0
   56.8100   31.5800   52.7100 C   0  0  0  0  0  0  0  0  0  0  0  0
   56.2667   31.9675   53.5844 H   0  0  0  0  0  0  0  0  0  0  0  0
  1  2  1  0
  2  3  1  0
  3  4  1  0
  4  5  2  0
  5  6  1  0
  6  7  2  0
  6  8  1  0
  8  9  1  0
  9 10  2  0
 10 11  1  0
 10 12  1  0
 12 13  1  0
 12 14  2  0
 14 15  1  0
 14 16  1  0
 16 17  1  0
 17 18  2  0
 17 19  2  0
 17 20  1  0
 20 21  1  0
 20 22  1  0
 22 23  2  0
 23 24  1  0
 23 25  1  0
 25 26  1  0
 25 27  2  0
 27 28  1  0
 27 29  1  0
 29 30  1  0
 30 31  2  0
 30 32  1  0
 32 33  1  0
 33 34  1  0
 33 35  1  0
 33 36  1  0
 36 37  1  0
 36 38  1  0
 36 39  1  0
 39 40  1  0
 40 41  1  0
 40 42  1  0
 40 43  1  0
 43 44  1  0
 43 45  1  0
 29 46  2  0
 46 47  1  0
 16 48  2  0
 48 49  1  0
  4 50  1  0
 50 51  1  0
 50 52  2  0
 52 53  1  0
 52 54  1  0
 54 55  1  0
 54  2  2  0
 48  9  1  0
 46 22  1  0
 43 32  1  0
M  CHG  2   3  -1   8  -1
M  END
>  <UniqueID>  (37) 
32

>  <SMILES>  (37) 
O=C(/N=c1/cccc[n-]1)[N-]c1cccc(S(=O)(=O)Nc2cccc(C(=O)N3CCOCC3)c2)c1

>  <Energy>  (37) 
78.97054937070948

>  <Genealogy>  (37) 
O=C(N=c1cccc[n-]1)[N-]c1cccc(S(=O)(=O)Nc2cccc(C(=O)N3CCOCC3)c2)c1 (protonated)
O=C(/N=c1/cccc[n-]1)[N-]c1cccc(S(=O)(=O)Nc2cccc(C(=O)N3CCOCC3)c2)c1 (cis-trans isomerization)
O=C(/N=c1/cccc[n-]1)[N-]c1cccc(S(=O)(=O)Nc2cccc(C(=O)N3CCOCC3)c2)c1 (3D coordinates assigned)
O=C(/N=c1/cccc[n-]1)[N-]c1cccc(S(=O)(=O)Nc2cccc(C(=O)N3CCOCC3)c2)c1 (nonaromatic ring conformer: 78.97054937070948 kcal/mol)

>  <smiles>  (37) 
O=C(N=c1cccc[nH]1)Nc1cccc(S(=O)(=O)Nc2cccc(C(=O)N3CCOCC3)c2)c1

>  <score_type>  (37) 
oracle

>  <origin>  (37) 
adg

>  <m_score__min__energy>  (37) 
-13.890000000000001

>  <m_primary>  (37) 
energy

$$$$
37:0
     RDKit          3D

 55 57  0  0  0  0  0  0  0  0999 V2000
   58.3037   34.3790   43.6275 H   0  0  0  0  0  0  0  0  0  0  0  0
   58.3310   33.4180   44.1620 C   0  0  0  0  0  0  0  0  0  0  0  0
   58.8320   33.4310   45.5500 C   0  0  0  0  0  0  0  0  0  0  0  0
   58.0840   33.0270   46.4770 O   0  0  0  0  0  0  0  0  0  0  0  0
   60.1350   33.8140   45.8490 O   0  0  0  0  0  0  0  0  0  0  0  0
   57.9060   32.3330   43.4970 C   0  0  0  0  0  0  0  0  0  0  0  0
   57.9084   32.3802   42.3980 H   0  0  0  0  0  0  0  0  0  0  0  0
   57.4350   31.0800   44.1220 C   0  0  0  0  0  0  0  0  0  0  0  0
   58.2860   30.3010   44.9210 C   0  0  0  0  0  0  0  0  0  0  0  0
   59.3142   30.6396   45.1162 H   0  0  0  0  0  0  0  0  0  0  0  0
   57.8350   29.0980   45.4700 C   0  0  0  0  0  0  0  0  0  0  0  0
   58.5051   28.5017   46.1067 H   0  0  0  0  0  0  0  0  0  0  0  0
   56.5260   28.6450   45.2120 C   0  0  0  0  0  0  0  0  0  0  0  0
   56.0200   27.4520   45.7540 O   0  0  0  0  0  0  0  0  0  0  0  0
   56.6210   26.1640   45.6160 C   0  0  0  0  0  0  0  0  0  0  0  0
   56.6438   25.8890   44.5512 H   0  0  0  0  0  0  0  0  0  0  0  0
   56.0274   25.4351   46.1873 H   0  0  0  0  0  0  0  0  0  0  0  0
   58.0280   26.1690   46.1550 C   0  0  0  0  0  0  0  0  0  0  0  0
   58.9920   25.2930   45.6350 C   0  0  0  0  0  0  0  0  0  0  0  0
   58.7207   24.5933   44.8308 H   0  0  0  0  0  0  0  0  0  0  0  0
   60.2960   25.3070   46.1360 C   0  0  0  0  0  0  0  0  0  0  0  0
   61.0516   24.6265   45.7164 H   0  0  0  0  0  0  0  0  0  0  0  0
   60.6440   26.1820   47.1680 C   0  0  0  0  0  0  0  0  0  0  0  0
   61.6761   26.1970   47.5482 H   0  0  0  0  0  0  0  0  0  0  0  0
   59.6830   27.0420   47.7220 C   0  0  0  0  0  0  0  0  0  0  0  0
   60.0440   27.9800   48.8080 C   0  0  0  0  0  0  0  0  0  0  0  0
   60.3910   27.5130   49.9270 O   0  0  0  0  0  0  0  0  0  0  0  0
   60.0130   29.4060   48.6140 N   0  0  0  0  0  0  0  0  0  0  0  0
   60.4300   29.9910   47.3320 C   0  0  0  0  0  0  0  0  0  0  0  0
   59.5602   30.0540   46.6616 H   0  0  0  0  0  0  0  0  0  0  0  0
   61.2058   29.3536   46.8828 H   0  0  0  0  0  0  0  0  0  0  0  0
   61.0030   31.3960   47.5510 C   0  0  0  0  0  0  0  0  0  0  0  0
   61.2656   31.8298   46.5748 H   0  0  0  0  0  0  0  0  0  0  0  0
   61.8902   31.3073   48.1952 H   0  0  0  0  0  0  0  0  0  0  0  0
   60.0300   32.2870   48.2260 N   0  0  0  0  0  0  0  0  0  0  0  0
   59.3600   32.6320   47.4980 H   0  0  0  0  0  0  0  0  0  0  0  0
   60.8660   33.6990   48.8320 S   0  0  0  0  0  0  0  0  0  0  0  0
   61.0090   33.6040   50.3260 O   0  0  0  0  0  0  0  0  0  0  0  0
   60.0910   34.9420   48.4900 O   0  0  0  0  0  0  0  0  0  0  0  0
   62.4950   33.8040   48.1170 C   0  0  0  0  0  0  0  0  0  0  0  0
   63.2454   33.8524   48.9199 H   0  0  0  0  0  0  0  0  0  0  0  0
   62.6803   32.9159   47.4949 H   0  0  0  0  0  0  0  0  0  0  0  0
   62.5648   34.7085   47.4949 H   0  0  0  0  0  0  0  0  0  0  0  0
   59.2370   31.6330   49.3060 C   0  0  0  0  0  0  0  0  0  0  0  0
   58.2171   31.4594   48.9323 H   0  0  0  0  0  0  0  0  0  0  0  0
   59.2547   32.3085   50.1740 H   0  0  0  0  0  0  0  0  0  0  0  0
   59.8200   30.2900   49.7680 C   0  0  0  0  0  0  0  0  0  0  0  0
   59.1263   29.8163   50.4783 H   0  0  0  0  0  0  0  0  0  0  0  0
   60.7901   30.4652   50.2561 H   0  0  0  0  0  0  0  0  0  0  0  0
   58.3770   27.0360   47.2040 C   0  0  0  0  0  0  0  0  0  0  0  0
   57.6211   27.7161   47.6235 H   0  0  0  0  0  0  0  0  0  0  0  0
   55.6920   29.4070   44.3810 C   0  0  0  0  0  0  0  0  0  0  0  0
   54.4030   28.9690   44.1010 O   0  0  0  0  0  0  0  0  0  0  0  0
   56.1470   30.6100   43.8320 C   0  0  0  0  0  0  0  0  0  0  0  0
   55.4898   31.1910   43.1683 H   0  0  0  0  0  0  0  0  0  0  0  0
  1  2  1  0
  2  3  1  0
  3  4  2  0
  3  5  1  0
  2  6  2  0
  6  7  1  0
  6  8  1  0
  8  9  2  0
  9 10  1  0
  9 11  1  0
 11 12  1  0
 11 13  2  0
 13 14  1  0
 14 15  1  0
 15 16  1  0
 15 17  1  0
 15 18  1  0
 18 19  2  0
 19 20  1  0
 19 21  1  0
 21 22  1  0
 21 23  2  0
 23 24  1  0
 23 25  1  0
 25 26  1  0
 26 27  2  0
 26 28  1  0
 28 29  1  0
 29 30  1  0
 29 31  1  0
 29 32  1  0
 32 33  1  0
 32 34  1  0
 32 35  1  0
 35 36  1  0
 35 37  1  0
 37 38  2  0
 37 39  2  0
 37 40  1  0
 40 41  1  0
 40 42  1  0
 40 43  1  0
 35 44  1  0
 44 45  1  0
 44 46  1  0
 44 47  1  0
 47 48  1  0
 47 49  1  0
 25 50  2  0
 50 51  1  0
 13 52  1  0
 52 53  1  0
 52 54  2  0
 54 55  1  0
 54  8  1  0
 50 18  1  0
 47 28  1  0
M  CHG  3   5  -1  35   1  53  -1
M  END
>  <UniqueID>  (38) 
33

>  <SMILES>  (38) 
CS(=O)(=O)[NH+]1CCN(C(=O)c2cccc(COc3ccc(/C=C\C(=O)[O-])cc3[O-])c2)CC1

>  <Energy>  (38) 
68.90196319380419

>  <Genealogy>  (38) 
CS(=O)(=O)[NH+]1CCN(C(=O)c2cccc(COc3ccc(C=CC(=O)[O-])cc3[O-])c2)CC1 (protonated)
CS(=O)(=O)[NH+]1CCN(C(=O)c2cccc(COc3ccc(/C=C\C(=O)[O-])cc3[O-])c2)CC1 (cis-trans isomerization)
CS(=O)(=O)[NH+]1CCN(C(=O)c2cccc(COc3ccc(/C=C\C(=O)[O-])cc3[O-])c2)CC1 (3D coordinates assigned)
CS(=O)(=O)[NH+]1CCN(C(=O)c2cccc(COc3ccc(/C=C\C(=O)[O-])cc3[O-])c2)CC1 (nonaromatic ring conformer: 68.90196319380419 kcal/mol)

>  <smiles>  (38) 
CS(=O)(=O)N1CCN(C(=O)c2cccc(COc3ccc(C=CC(=O)O)cc3O)c2)CC1

>  <score_type>  (38) 
oracle

>  <origin>  (38) 
adg

>  <m_score__min__energy>  (38) 
-14.380000000000001

>  <m_primary>  (38) 
energy

$$$$
38:0
     RDKit          3D

 48 50  0  0  0  0  0  0  0  0999 V2000
   55.2000   30.1840   51.9350 O   0  0  0  0  0  0  0  0  0  0  0  0
   56.0740   29.4940   52.5200 C   0  0  0  0  0  0  0  0  0  0  0  0
   57.4040   29.4540   51.9990 N   0  0  0  0  0  0  0  0  0  0  0  0
   58.0260   30.4420   51.1640 C   0  0  0  0  0  0  0  0  0  0  0  0
   58.1460   31.7480   51.6570 C   0  0  0  0  0  0  0  0  0  0  0  0
   58.7470   32.7460   50.8850 C   0  0  0  0  0  0  0  0  0  0  0  0
   59.2280   32.4520   49.6040 C   0  0  0  0  0  0  0  0  0  0  0  0
   59.9860   33.7190   48.6420 S   0  0  0  0  0  0  0  0  0  0  0  0
   60.9330   34.5200   49.4960 O   0  0  0  0  0  0  0  0  0  0  0  0
   58.8970   34.6300   48.1490 O   0  0  0  0  0  0  0  0  0  0  0  0
   60.8480   33.0310   47.2780 N   0  0  0  0  0  0  0  0  0  0  0  0
   62.3140   33.2340   47.3600 C   0  0  0  0  0  0  0  0  0  0  0  0
   62.9730   32.5650   48.5500 C   0  0  0  0  0  0  0  0  0  0  0  0
   64.2080   33.0240   49.0410 C   0  0  0  0  0  0  0  0  0  0  0  0
   64.8060   32.4040   50.1430 C   0  0  0  0  0  0  0  0  0  0  0  0
   64.1860   31.3110   50.7540 C   0  0  0  0  0  0  0  0  0  0  0  0
   64.7810   30.6980   51.8510 O   0  0  0  0  0  0  0  0  0  0  0  0
   62.9710   30.8310   50.2590 C   0  0  0  0  0  0  0  0  0  0  0  0
   62.3710   31.4480   49.1570 C   0  0  0  0  0  0  0  0  0  0  0  0
   60.2750   33.4790   45.9950 C   0  0  0  0  0  0  0  0  0  0  0  0
   59.1670   32.5560   45.5610 C   0  0  0  0  0  0  0  0  0  0  0  0
   59.2480   31.1760   45.8050 C   0  0  0  0  0  0  0  0  0  0  0  0
   58.2210   30.3240   45.3900 C   0  0  0  0  0  0  0  0  0  0  0  0
   57.0930   30.8360   44.7270 C   0  0  0  0  0  0  0  0  0  0  0  0
   56.0090   29.9300   44.2870 C   0  0  0  0  0  0  0  0  0  0  0  0
   55.8330   29.6890   43.0630 O   0  0  0  0  0  0  0  0  0  0  0  0
   55.1670   29.3330   45.2190 O   0  0  0  0  0  0  0  0  0  0  0  0
   57.0100   32.2210   44.4940 C   0  0  0  0  0  0  0  0  0  0  0  0
   58.0370   33.0720   44.9080 C   0  0  0  0  0  0  0  0  0  0  0  0
   59.1300   31.1440   49.1120 C   0  0  0  0  0  0  0  0  0  0  0  0
   58.5310   30.1440   49.8830 C   0  0  0  0  0  0  0  0  0  0  0  0
   55.8164   28.9256   53.4259 H   0  0  0  0  0  0  0  0  0  0  0  0
   57.7641   31.9898   52.6598 H   0  0  0  0  0  0  0  0  0  0  0  0
   58.8423   33.7660   51.2855 H   0  0  0  0  0  0  0  0  0  0  0  0
   62.7690   32.8310   46.4432 H   0  0  0  0  0  0  0  0  0  0  0  0
   62.4751   34.3156   47.4788 H   0  0  0  0  0  0  0  0  0  0  0  0
   64.7069   33.8758   48.5556 H   0  0  0  0  0  0  0  0  0  0  0  0
   65.7659   32.7774   50.5292 H   0  0  0  0  0  0  0  0  0  0  0  0
   62.4859   29.9669   50.7366 H   0  0  0  0  0  0  0  0  0  0  0  0
   61.4217   31.0572   48.7620 H   0  0  0  0  0  0  0  0  0  0  0  0
   59.8732   34.4961   46.1135 H   0  0  0  0  0  0  0  0  0  0  0  0
   61.0654   33.4701   45.2301 H   0  0  0  0  0  0  0  0  0  0  0  0
   60.1246   30.7630   46.3257 H   0  0  0  0  0  0  0  0  0  0  0  0
   58.2963   29.2439   45.5839 H   0  0  0  0  0  0  0  0  0  0  0  0
   56.1296   32.6367   43.9819 H   0  0  0  0  0  0  0  0  0  0  0  0
   57.9598   34.1533   44.7211 H   0  0  0  0  0  0  0  0  0  0  0  0
   59.5262   30.9030   48.1145 H   0  0  0  0  0  0  0  0  0  0  0  0
   58.4535   29.1203   49.4881 H   0  0  0  0  0  0  0  0  0  0  0  0
  1  2  2  0
  2  3  1  0
  3  4  1  0
  4  5  2  0
  5  6  1  0
  6  7  2  0
  7  8  1  0
  8  9  2  0
  8 10  2  0
  8 11  1  0
 11 12  1  0
 12 13  1  0
 13 14  2  0
 14 15  1  0
 15 16  2  0
 16 17  1  0
 16 18  1  0
 18 19  2  0
 11 20  1  0
 20 21  1  0
 21 22  2  0
 22 23  1  0
 23 24  2  0
 24 25  1  0
 25 26  2  0
 25 27  1  0
 24 28  1  0
 28 29  2  0
  7 30  1  0
 30 31  2  0
 31  4  1  0
 19 13  1  0
 29 21  1  0
  2 32  1  0
  5 33  1  0
  6 34  1  0
 12 35  1  0
 12 36  1  0
 14 37  1  0
 15 38  1  0
 18 39  1  0
 19 40  1  0
 20 41  1  0
 20 42  1  0
 22 43  1  0
 23 44  1  0
 28 45  1  0
 29 46  1  0
 30 47  1  0
 31 48  1  0
M  CHG  3   3  -1  17  -1  27  -1
M  END
>  <UniqueID>  (39) 
34

>  <SMILES>  (39) 
O=C[N-]c1ccc(S(=O)(=O)N(Cc2ccc([O-])cc2)Cc2ccc(C(=O)[O-])cc2)cc1

>  <Energy>  (39) 
54.210600304638774

>  <Genealogy>  (39) 
O=C[N-]c1ccc(S(=O)(=O)N(Cc2ccc([O-])cc2)Cc2ccc(C(=O)[O-])cc2)cc1 (protonated)
O=C[N-]c1ccc(S(=O)(=O)N(Cc2ccc([O-])cc2)Cc2ccc(C(=O)[O-])cc2)cc1 (3D coordinates assigned)
O=C[N-]c1ccc(S(=O)(=O)N(Cc2ccc([O-])cc2)Cc2ccc(C(=O)[O-])cc2)cc1 (optimized conformer: 54.210600304638774 kcal/mol)

>  <smiles>  (39) 
O=CNc1ccc(S(=O)(=O)N(Cc2ccc(O)cc2)Cc2ccc(C(=O)O)cc2)cc1

>  <score_type>  (39) 
oracle

>  <origin>  (39) 
adg

>  <m_score__min__energy>  (39) 
-12.369999999999999

>  <m_primary>  (39) 
energy

$$$$
39:0
     RDKit          3D

 42 43  0  0  0  0  0  0  0  0999 V2000
   59.8210   34.0100   49.9330 C   0  0  0  0  0  0  0  0  0  0  0  0
   58.9070   33.4530   48.9920 O   0  0  0  0  0  0  0  0  0  0  0  0
   58.8840   33.7690   47.6240 C   0  0  0  0  0  0  0  0  0  0  0  0
   59.5560   34.8870   47.0930 C   0  0  0  0  0  0  0  0  0  0  0  0
   59.5260   35.1400   45.7190 C   0  0  0  0  0  0  0  0  0  0  0  0
   58.8260   34.2880   44.8620 C   0  0  0  0  0  0  0  0  0  0  0  0
   58.1360   33.1810   45.3760 C   0  0  0  0  0  0  0  0  0  0  0  0
   57.3900   32.2460   44.4600 C   0  0  0  0  0  0  0  0  0  0  0  0
   56.9180   31.1090   45.1810 O   0  0  0  0  0  0  0  0  0  0  0  0
   57.5650   29.8620   45.2290 C   0  0  0  0  0  0  0  0  0  0  0  0
   57.5470   28.9530   44.1500 C   0  0  0  0  0  0  0  0  0  0  0  0
   58.2170   27.7290   44.2470 C   0  0  0  0  0  0  0  0  0  0  0  0
   58.9000   27.3930   45.4160 C   0  0  0  0  0  0  0  0  0  0  0  0
   58.9030   28.2720   46.5090 C   0  0  0  0  0  0  0  0  0  0  0  0
   59.6570   27.8980   47.7220 C   0  0  0  0  0  0  0  0  0  0  0  0
   59.5570   28.4840   48.9270 C   0  0  0  0  0  0  0  0  0  0  0  0
   60.0380   29.8370   49.2950 C   0  0  0  0  0  0  0  0  0  0  0  0
   61.2850   30.0150   49.3840 O   0  0  0  0  0  0  0  0  0  0  0  0
   59.1550   30.9130   49.6450 N   0  0  0  0  0  0  0  0  0  0  0  0
   58.0420   30.7660   50.5420 C   0  0  0  0  0  0  0  0  0  0  0  0
   57.1190   31.8400   50.7070 N   0  0  0  0  0  0  0  0  0  0  0  0
   57.8750   29.6960   51.1890 O   0  0  0  0  0  0  0  0  0  0  0  0
   58.2580   29.5180   46.3960 C   0  0  0  0  0  0  0  0  0  0  0  0
   58.1680   32.9290   46.7590 C   0  0  0  0  0  0  0  0  0  0  0  0
   59.4714   33.7970   50.9540 H   0  0  0  0  0  0  0  0  0  0  0  0
   60.8159   33.5645   49.7857 H   0  0  0  0  0  0  0  0  0  0  0  0
   59.8811   35.0984   49.7857 H   0  0  0  0  0  0  0  0  0  0  0  0
   60.1068   35.5639   47.7626 H   0  0  0  0  0  0  0  0  0  0  0  0
   60.0557   36.0135   45.3110 H   0  0  0  0  0  0  0  0  0  0  0  0
   58.8160   34.4861   43.7800 H   0  0  0  0  0  0  0  0  0  0  0  0
   56.5327   32.7773   44.0209 H   0  0  0  0  0  0  0  0  0  0  0  0
   58.0726   31.9057   43.6674 H   0  0  0  0  0  0  0  0  0  0  0  0
   57.0036   29.2081   43.2283 H   0  0  0  0  0  0  0  0  0  0  0  0
   58.2053   27.0290   43.3986 H   0  0  0  0  0  0  0  0  0  0  0  0
   59.4379   26.4357   45.4808 H   0  0  0  0  0  0  0  0  0  0  0  0
   60.3663   27.0622   47.6308 H   0  0  0  0  0  0  0  0  0  0  0  0
   59.0685   27.9004   49.7212 H   0  0  0  0  0  0  0  0  0  0  0  0
   59.3870   31.8780   49.3080 H   0  0  0  0  0  0  0  0  0  0  0  0
   56.3290   31.7550   51.3840 H   0  0  0  0  0  0  0  0  0  0  0  0
   57.2070   32.7130   50.1410 H   0  0  0  0  0  0  0  0  0  0  0  0
   58.2988   30.2295   47.2339 H   0  0  0  0  0  0  0  0  0  0  0  0
   57.6254   32.0634   47.1669 H   0  0  0  0  0  0  0  0  0  0  0  0
  1  2  1  0
  2  3  1  0
  3  4  2  0
  4  5  1  0
  5  6  2  0
  6  7  1  0
  7  8  1  0
  8  9  1  0
  9 10  1  0
 10 11  2  0
 11 12  1  0
 12 13  2  0
 13 14  1  0
 14 15  1  0
 15 16  2  3
 16 17  1  0
 17 18  2  0
 17 19  1  0
 19 20  1  0
 20 21  1  0
 20 22  2  0
 14 23  2  0
  7 24  2  0
 24  3  1  0
 23 10  1  0
  1 25  1  0
  1 26  1  0
  1 27  1  0
  4 28  1  0
  5 29  1  0
  6 30  1  0
  8 31  1  0
  8 32  1  0
 11 33  1  0
 12 34  1  0
 13 35  1  0
 15 36  1  0
 16 37  1  0
 19 38  1  0
 21 39  1  0
 21 40  1  0
 23 41  1  0
 24 42  1  0
M  END
>  <UniqueID>  (40) 
35

>  <SMILES>  (40) 
COc1cccc(COc2cccc(C=CC(=O)NC(N)=O)c2)c1

>  <Energy>  (40) 
49.20882477205392

>  <Genealogy>  (40) 
COc1cccc(COc2cccc(C=CC(=O)NC(N)=O)c2)c1 (3D coordinates assigned)
COc1cccc(COc2cccc(C=CC(=O)NC(N)=O)c2)c1 (optimized conformer: 49.20882477205392 kcal/mol)

>  <smiles>  (40) 
COc1cccc(COc2cccc(C=CC(=O)NC(N)=O)c2)c1

>  <score_type>  (40) 
oracle

>  <origin>  (40) 
adg

>  <m_score__min__energy>  (40) 
-8.5299999999999994

>  <m_primary>  (40) 
energy

$$$$
40:0
     RDKit          3D

 44 46  0  0  0  0  0  0  0  0999 V2000
   51.0030   28.0690   52.6450 C   0  0  0  0  0  0  0  0  0  0  0  0
   52.3300   28.2280   52.7620 C   0  0  0  0  0  0  0  0  0  0  0  0
   53.0540   29.4270   52.6550 C   0  0  0  0  0  0  0  0  0  0  0  0
   52.6880   30.6440   52.2080 C   0  0  0  0  0  0  0  0  0  0  0  0
   51.8740   30.9080   51.0110 C   0  0  0  0  0  0  0  0  0  0  0  0
   51.8450   30.1260   49.9150 N   0  0  0  0  0  0  0  0  0  0  0  0
   51.0870   30.8320   49.0480 C   0  0  0  0  0  0  0  0  0  0  0  0
   50.8110   30.4160   47.8930 O   0  0  0  0  0  0  0  0  0  0  0  0
   50.6580   32.0260   49.5120 N   0  0  0  0  0  0  0  0  0  0  0  0
   51.1770   32.0620   50.7500 C   0  0  0  0  0  0  0  0  0  0  0  0
   51.0220   33.1320   51.6220 O   0  0  0  0  0  0  0  0  0  0  0  0
   54.3350   29.1480   53.1040 C   0  0  0  0  0  0  0  0  0  0  0  0
   54.3740   27.7980   53.3890 C   0  0  0  0  0  0  0  0  0  0  0  0
   55.5840   27.0690   53.8890 C   0  0  0  0  0  0  0  0  0  0  0  0
   53.1600   27.2410   53.1860 N   0  0  0  0  0  0  0  0  0  0  0  0
   52.8180   25.8640   53.4220 C   0  0  0  0  0  0  0  0  0  0  0  0
   52.6550   24.9900   52.3410 C   0  0  0  0  0  0  0  0  0  0  0  0
   52.3270   23.6500   52.5600 C   0  0  0  0  0  0  0  0  0  0  0  0
   52.1590   23.1580   53.8680 C   0  0  0  0  0  0  0  0  0  0  0  0
   51.8050   21.7290   54.0770 C   0  0  0  0  0  0  0  0  0  0  0  0
   50.6500   21.3360   53.7460 O   0  0  0  0  0  0  0  0  0  0  0  0
   52.7340   20.7930   54.6780 N   0  0  0  0  0  0  0  0  0  0  0  0
   54.1130   21.0770   54.2480 C   0  0  0  0  0  0  0  0  0  0  0  0
   52.3550   19.4160   54.3240 C   0  0  0  0  0  0  0  0  0  0  0  0
   52.3090   24.0460   54.9500 C   0  0  0  0  0  0  0  0  0  0  0  0
   52.6370   25.3880   54.7280 C   0  0  0  0  0  0  0  0  0  0  0  0
   52.7470   26.2310   55.7860 F   0  0  0  0  0  0  0  0  0  0  0  0
   50.5574   27.0689   52.7511 H   0  0  0  0  0  0  0  0  0  0  0  0
   50.3606   28.9387   52.4429 H   0  0  0  0  0  0  0  0  0  0  0  0
   53.0268   31.5153   52.7877 H   0  0  0  0  0  0  0  0  0  0  0  0
   55.1622   29.8649   53.2125 H   0  0  0  0  0  0  0  0  0  0  0  0
   55.5837   27.0692   54.9890 H   0  0  0  0  0  0  0  0  0  0  0  0
   55.5648   26.0320   53.5225 H   0  0  0  0  0  0  0  0  0  0  0  0
   56.4918   27.5706   53.5225 H   0  0  0  0  0  0  0  0  0  0  0  0
   52.7859   25.3603   51.3135 H   0  0  0  0  0  0  0  0  0  0  0  0
   52.1988   22.9731   51.7025 H   0  0  0  0  0  0  0  0  0  0  0  0
   52.7180   20.8890   55.7210 H   0  0  0  0  0  0  0  0  0  0  0  0
   54.7532   21.2088   55.1328 H   0  0  0  0  0  0  0  0  0  0  0  0
   54.4893   20.2375   53.6450 H   0  0  0  0  0  0  0  0  0  0  0  0
   54.1270   21.9969   53.6450 H   0  0  0  0  0  0  0  0  0  0  0  0
   52.1943   18.8323   55.2424 H   0  0  0  0  0  0  0  0  0  0  0  0
   51.4277   19.4315   53.7325 H   0  0  0  0  0  0  0  0  0  0  0  0
   53.1596   18.9548   53.7325 H   0  0  0  0  0  0  0  0  0  0  0  0
   52.1672   23.6819   55.9783 H   0  0  0  0  0  0  0  0  0  0  0  0
  1  2  2  0
  2  3  1  0
  3  4  2  3
  4  5  1  0
  5  6  1  0
  6  7  1  0
  7  8  2  0
  7  9  1  0
  9 10  1  0
 10 11  1  0
  3 12  1  0
 12 13  2  0
 13 14  1  0
 13 15  1  0
 15 16  1  0
 16 17  2  0
 17 18  1  0
 18 19  2  0
 19 20  1  0
 20 21  2  0
 20 22  1  0
 22 23  1  0
 22 24  1  0
 19 25  1  0
 25 26  2  0
 26 27  1  0
 15  2  1  0
 26 16  1  0
 10  5  2  0
  1 28  1  0
  1 29  1  0
  4 30  1  0
 12 31  1  0
 14 32  1  0
 14 33  1  0
 14 34  1  0
 17 35  1  0
 18 36  1  0
 22 37  1  0
 23 38  1  0
 23 39  1  0
 23 40  1  0
 24 41  1  0
 24 42  1  0
 24 43  1  0
 25 44  1  0
M  CHG  4   6  -1   9  -1  11  -1  22   1
M  END
>  <UniqueID>  (41) 
36

>  <SMILES>  (41) 
C=c1c(=Cc2[n-]c(=O)[n-]c2[O-])cc(C)n1-c1ccc(C(=O)[NH+](C)C)cc1F

>  <Energy>  (41) 
124.74740174151597

>  <Genealogy>  (41) 
C=c1c(=Cc2[n-]c(=O)[n-]c2[O-])cc(C)n1-c1ccc(C(=O)[NH+](C)C)cc1F (protonated)
C=c1c(=Cc2[n-]c(=O)[n-]c2[O-])cc(C)n1-c1ccc(C(=O)[NH+](C)C)cc1F (3D coordinates assigned)
C=c1c(=Cc2[n-]c(=O)[n-]c2[O-])cc(C)n1-c1ccc(C(=O)[NH+](C)C)cc1F (optimized conformer: 124.74740174151597 kcal/mol)

>  <smiles>  (41) 
C=c1c(=Cc2[nH]c(=O)[nH]c2O)cc(C)n1-c1ccc(C(=O)N(C)C)cc1F

>  <score_type>  (41) 
oracle

>  <origin>  (41) 
adg

>  <m_score__min__energy>  (41) 
-13.970000000000001

>  <m_primary>  (41) 
energy

$$$$
41:0
     RDKit          3D

 50 52  0  0  0  0  0  0  0  0999 V2000
   61.1000   28.1100   50.2440 C   0  0  0  0  0  0  0  0  0  0  0  0
   60.1600   27.9490   49.1280 N   0  0  0  0  0  0  0  0  0  0  0  0
   60.0070   26.6390   48.4980 C   0  0  0  0  0  0  0  0  0  0  0  0
   59.2640   29.0220   48.7590 C   0  0  0  0  0  0  0  0  0  0  0  0
   58.2000   28.7560   48.1290 O   0  0  0  0  0  0  0  0  0  0  0  0
   59.5480   30.4310   49.1030 C   0  0  0  0  0  0  0  0  0  0  0  0
   58.8420   31.0760   50.1310 C   0  0  0  0  0  0  0  0  0  0  0  0
   59.1090   32.4170   50.4340 C   0  0  0  0  0  0  0  0  0  0  0  0
   60.0690   33.1240   49.7080 C   0  0  0  0  0  0  0  0  0  0  0  0
   60.7920   32.4860   48.6910 C   0  0  0  0  0  0  0  0  0  0  0  0
   61.9410   33.4090   47.7250 S   0  0  0  0  0  0  0  0  0  0  0  0
   63.1210   32.5600   47.3430 O   0  0  0  0  0  0  0  0  0  0  0  0
   62.4290   34.5750   48.5400 O   0  0  0  0  0  0  0  0  0  0  0  0
   61.1590   34.0000   46.2920 N   0  0  0  0  0  0  0  0  0  0  0  0
   59.7940   33.7360   45.9320 C   0  0  0  0  0  0  0  0  0  0  0  0
   58.8800   34.7920   45.9070 C   0  0  0  0  0  0  0  0  0  0  0  0
   57.5350   34.5550   45.6130 C   0  0  0  0  0  0  0  0  0  0  0  0
   57.0910   33.2580   45.3380 C   0  0  0  0  0  0  0  0  0  0  0  0
   57.9980   32.1810   45.3450 C   0  0  0  0  0  0  0  0  0  0  0  0
   57.5510   30.7880   45.0750 C   0  0  0  0  0  0  0  0  0  0  0  0
   56.4550   30.5960   44.4870 O   0  0  0  0  0  0  0  0  0  0  0  0
   58.3220   29.6570   45.5190 N   0  0  0  0  0  0  0  0  0  0  0  0
   58.0860   28.3170   45.0680 C   0  0  0  0  0  0  0  0  0  0  0  0
   58.3790   27.9690   43.7400 C   0  0  0  0  0  0  0  0  0  0  0  0
   58.1400   26.6670   43.2770 C   0  0  0  0  0  0  0  0  0  0  0  0
   57.5960   25.7100   44.1320 C   0  0  0  0  0  0  0  0  0  0  0  0
   57.3790   24.4560   43.6720 F   0  0  0  0  0  0  0  0  0  0  0  0
   57.2870   26.0500   45.4580 C   0  0  0  0  0  0  0  0  0  0  0  0
   56.5910   24.8580   46.5400 Cl  0  0  0  0  0  0  0  0  0  0  0  0
   57.5250   27.3500   45.9220 C   0  0  0  0  0  0  0  0  0  0  0  0
   59.3500   32.4370   45.6270 C   0  0  0  0  0  0  0  0  0  0  0  0
   60.5500   31.1300   48.4140 C   0  0  0  0  0  0  0  0  0  0  0  0
   60.5577   28.0171   51.1965 H   0  0  0  0  0  0  0  0  0  0  0  0
   61.8750   27.3315   50.1859 H   0  0  0  0  0  0  0  0  0  0  0  0
   61.5717   29.1020   50.1859 H   0  0  0  0  0  0  0  0  0  0  0  0
   59.9168   25.8664   49.2758 H   0  0  0  0  0  0  0  0  0  0  0  0
   59.1025   26.6366   47.8721 H   0  0  0  0  0  0  0  0  0  0  0  0
   60.8866   26.4282   47.8721 H   0  0  0  0  0  0  0  0  0  0  0  0
   58.0773   30.5267   50.6998 H   0  0  0  0  0  0  0  0  0  0  0  0
   58.5603   32.9149   51.2470 H   0  0  0  0  0  0  0  0  0  0  0  0
   60.2583   34.1836   49.9345 H   0  0  0  0  0  0  0  0  0  0  0  0
   59.2212   35.8158   46.1200 H   0  0  0  0  0  0  0  0  0  0  0  0
   56.8220   35.3925   45.5978 H   0  0  0  0  0  0  0  0  0  0  0  0
   56.0289   33.0783   45.1153 H   0  0  0  0  0  0  0  0  0  0  0  0
   58.9600   29.7880   46.3370 H   0  0  0  0  0  0  0  0  0  0  0  0
   58.7990   28.7228   43.0578 H   0  0  0  0  0  0  0  0  0  0  0  0
   58.3822   26.4006   42.2376 H   0  0  0  0  0  0  0  0  0  0  0  0
   57.2721   27.6160   46.9589 H   0  0  0  0  0  0  0  0  0  0  0  0
   60.0730   31.6082   45.6090 H   0  0  0  0  0  0  0  0  0  0  0  0
   61.1507   30.6128   47.6513 H   0  0  0  0  0  0  0  0  0  0  0  0
  1  2  1  0
  2  3  1  0
  2  4  1  0
  4  5  2  0
  4  6  1  0
  6  7  2  0
  7  8  1  0
  8  9  2  0
  9 10  1  0
 10 11  1  0
 11 12  2  0
 11 13  2  0
 11 14  1  0
 14 15  1  0
 15 16  2  0
 16 17  1  0
 17 18  2  0
 18 19  1  0
 19 20  1  0
 20 21  2  0
 20 22  1  0
 22 23  1  0
 23 24  2  0
 24 25  1  0
 25 26  2  0
 26 27  1  0
 26 28  1  0
 28 29  1  0
 28 30  2  0
 19 31  2  0
 10 32  2  0
 32  6  1  0
 31 15  1  0
 30 23  1  0
  1 33  1  0
  1 34  1  0
  1 35  1  0
  3 36  1  0
  3 37  1  0
  3 38  1  0
  7 39  1  0
  8 40  1  0
  9 41  1  0
 16 42  1  0
 17 43  1  0
 18 44  1  0
 22 45  1  0
 24 46  1  0
 25 47  1  0
 30 48  1  0
 31 49  1  0
 32 50  1  0
M  CHG  1  14  -1
M  END
>  <UniqueID>  (42) 
37

>  <SMILES>  (42) 
CN(C)C(=O)c1cccc(S(=O)(=O)[N-]c2cccc(C(=O)Nc3ccc(F)c(Cl)c3)c2)c1

>  <Energy>  (42) 
62.554130375777135

>  <Genealogy>  (42) 
CN(C)C(=O)c1cccc(S(=O)(=O)[N-]c2cccc(C(=O)Nc3ccc(F)c(Cl)c3)c2)c1 (protonated)
CN(C)C(=O)c1cccc(S(=O)(=O)[N-]c2cccc(C(=O)Nc3ccc(F)c(Cl)c3)c2)c1 (3D coordinates assigned)
CN(C)C(=O)c1cccc(S(=O)(=O)[N-]c2cccc(C(=O)Nc3ccc(F)c(Cl)c3)c2)c1 (optimized conformer: 62.554130375777135 kcal/mol)

>  <smiles>  (42) 
CN(C)C(=O)c1cccc(S(=O)(=O)Nc2cccc(C(=O)Nc3ccc(F)c(Cl)c3)c2)c1

>  <score_type>  (42) 
oracle

>  <origin>  (42) 
adg

>  <m_score__min__energy>  (42) 
-10.91

>  <m_primary>  (42) 
energy

$$$$
42:0
     RDKit          3D

 55 57  0  0  0  0  0  0  0  0999 V2000
   56.6620   31.1540   42.6390 O   0  0  0  0  0  0  0  0  0  0  0  0
   56.5870   30.8100   43.8500 C   0  0  0  0  0  0  0  0  0  0  0  0
   56.3300   29.3770   44.1940 C   0  0  0  0  0  0  0  0  0  0  0  0
   57.0050   29.0380   45.4440 N   0  0  0  0  0  0  0  0  0  0  0  0
   58.4140   29.0740   45.7140 C   0  0  0  0  0  0  0  0  0  0  0  0
   59.1940   29.3430   44.7630 O   0  0  0  0  0  0  0  0  0  0  0  0
   58.9870   28.8820   47.0650 C   0  0  0  0  0  0  0  0  0  0  0  0
   59.9240   27.8600   47.2760 C   0  0  0  0  0  0  0  0  0  0  0  0
   60.4780   27.6540   48.5410 C   0  0  0  0  0  0  0  0  0  0  0  0
   60.1030   28.4630   49.6240 C   0  0  0  0  0  0  0  0  0  0  0  0
   60.9120   28.2380   51.1820 S   0  0  0  0  0  0  0  0  0  0  0  0
   60.0010   28.6830   52.2920 O   0  0  0  0  0  0  0  0  0  0  0  0
   61.2570   26.7910   51.3970 O   0  0  0  0  0  0  0  0  0  0  0  0
   62.3970   29.1740   51.2240 C   0  0  0  0  0  0  0  0  0  0  0  0
   62.3560   30.5040   51.3570 C   0  0  0  0  0  0  0  0  0  0  0  0
   63.3140   31.4130   50.6920 C   0  0  0  0  0  0  0  0  0  0  0  0
   64.3670   31.7250   51.3160 O   0  0  0  0  0  0  0  0  0  0  0  0
   63.0990   31.9680   49.3340 C   0  0  0  0  0  0  0  0  0  0  0  0
   62.1490   31.4050   48.4600 C   0  0  0  0  0  0  0  0  0  0  0  0
   61.9520   31.9470   47.1850 C   0  0  0  0  0  0  0  0  0  0  0  0
   62.6920   33.0620   46.7770 C   0  0  0  0  0  0  0  0  0  0  0  0
   63.6230   33.6420   47.6460 C   0  0  0  0  0  0  0  0  0  0  0  0
   63.8210   33.1030   48.9220 C   0  0  0  0  0  0  0  0  0  0  0  0
   59.1320   29.4740   49.4290 C   0  0  0  0  0  0  0  0  0  0  0  0
   58.7210   30.3330   50.4970 N   0  0  0  0  0  0  0  0  0  0  0  0
   57.6880   30.0810   51.1500 O   0  0  0  0  0  0  0  0  0  0  0  0
   59.3790   31.5230   50.7070 O   0  0  0  0  0  0  0  0  0  0  0  0
   58.5740   29.6640   48.1550 C   0  0  0  0  0  0  0  0  0  0  0  0
   56.7890   31.7740   44.8900 N   0  0  0  0  0  0  0  0  0  0  0  0
   57.3980   33.0810   44.6680 C   0  0  0  0  0  0  0  0  0  0  0  0
   58.1720   33.5080   45.8870 C   0  0  0  0  0  0  0  0  0  0  0  0
   58.0400   32.8080   47.0970 C   0  0  0  0  0  0  0  0  0  0  0  0
   58.7930   33.1850   48.2160 C   0  0  0  0  0  0  0  0  0  0  0  0
   59.6840   34.2620   48.1330 C   0  0  0  0  0  0  0  0  0  0  0  0
   59.8220   34.9620   46.9320 C   0  0  0  0  0  0  0  0  0  0  0  0
   59.0700   34.5890   45.8130 C   0  0  0  0  0  0  0  0  0  0  0  0
   55.2477   29.2178   44.3089 H   0  0  0  0  0  0  0  0  0  0  0  0
   56.7162   28.7358   43.3880 H   0  0  0  0  0  0  0  0  0  0  0  0
   60.2252   27.2150   46.4374 H   0  0  0  0  0  0  0  0  0  0  0  0
   61.2146   26.8507   48.6896 H   0  0  0  0  0  0  0  0  0  0  0  0
   63.3675   28.6630   51.1404 H   0  0  0  0  0  0  0  0  0  0  0  0
   61.5719   30.9428   51.9916 H   0  0  0  0  0  0  0  0  0  0  0  0
   61.5585   30.5343   48.7814 H   0  0  0  0  0  0  0  0  0  0  0  0
   61.2154   31.4964   46.5036 H   0  0  0  0  0  0  0  0  0  0  0  0
   62.5419   33.4832   45.7720 H   0  0  0  0  0  0  0  0  0  0  0  0
   64.1996   34.5223   47.3257 H   0  0  0  0  0  0  0  0  0  0  0  0
   64.5449   33.5691   49.6065 H   0  0  0  0  0  0  0  0  0  0  0  0
   57.8035   30.4354   48.0091 H   0  0  0  0  0  0  0  0  0  0  0  0
   58.0798   33.0226   43.8068 H   0  0  0  0  0  0  0  0  0  0  0  0
   56.6052   33.8174   44.4702 H   0  0  0  0  0  0  0  0  0  0  0  0
   57.3425   31.9603   47.1663 H   0  0  0  0  0  0  0  0  0  0  0  0
   58.6843   32.6341   49.1619 H   0  0  0  0  0  0  0  0  0  0  0  0
   60.2748   34.5566   49.0128 H   0  0  0  0  0  0  0  0  0  0  0  0
   60.5227   35.8074   46.8662 H   0  0  0  0  0  0  0  0  0  0  0  0
   59.1812   35.1439   44.8697 H   0  0  0  0  0  0  0  0  0  0  0  0
  1  2  2  0
  2  3  1  0
  3  4  1  0
  4  5  1  0
  5  6  2  0
  5  7  1  0
  7  8  2  0
  8  9  1  0
  9 10  2  0
 10 11  1  0
 11 12  2  0
 11 13  2  0
 11 14  1  0
 14 15  2  3
 15 16  1  0
 16 17  2  0
 16 18  1  0
 18 19  2  0
 19 20  1  0
 20 21  2  0
 21 22  1  0
 22 23  2  0
 10 24  1  0
 24 25  1  0
 25 26  2  0
 25 27  1  0
 24 28  2  0
  2 29  1  0
 29 30  1  0
 30 31  1  0
 31 32  2  0
 32 33  1  0
 33 34  2  0
 34 35  1  0
 35 36  2  0
 28  7  1  0
 36 31  1  0
 23 18  1  0
  3 37  1  0
  3 38  1  0
  8 39  1  0
  9 40  1  0
 14 41  1  0
 15 42  1  0
 19 43  1  0
 20 44  1  0
 21 45  1  0
 22 46  1  0
 23 47  1  0
 28 48  1  0
 30 49  1  0
 30 50  1  0
 32 51  1  0
 33 52  1  0
 34 53  1  0
 35 54  1  0
 36 55  1  0
M  CHG  4   4  -1  25   1  27  -1  29  -1
M  END
>  <UniqueID>  (43) 
38

>  <SMILES>  (43) 
O=C(C[N-]C(=O)c1ccc(S(=O)(=O)C=CC(=O)c2ccccc2)c([N+](=O)[O-])c1)[N-]Cc1ccccc1

>  <Energy>  (43) 
70.53280084442316

>  <Genealogy>  (43) 
O=C(C[N-]C(=O)c1ccc(S(=O)(=O)C=CC(=O)c2ccccc2)c([N+](=O)[O-])c1)[N-]Cc1ccccc1 (protonated)
O=C(C[N-]C(=O)c1ccc(S(=O)(=O)C=CC(=O)c2ccccc2)c([N+](=O)[O-])c1)[N-]Cc1ccccc1 (3D coordinates assigned)
O=C(C[N-]C(=O)c1ccc(S(=O)(=O)C=CC(=O)c2ccccc2)c([N+](=O)[O-])c1)[N-]Cc1ccccc1 (optimized conformer: 70.53280084442316 kcal/mol)

>  <smiles>  (43) 
O=C(CNC(=O)c1ccc(S(=O)(=O)C=CC(=O)c2ccccc2)c([N+](=O)[O-])c1)NCc1ccccc1

>  <score_type>  (43) 
oracle

>  <origin>  (43) 
adg

>  <m_score__min__energy>  (43) 
-14.359999999999999

>  <m_primary>  (43) 
energy

$$$$
43:0
     RDKit          3D

 60 63  0  0  0  0  0  0  0  0999 V2000
   54.1660   26.3120   46.3720 H   0  0  0  0  0  0  0  0  0  0  0  0
   55.0750   26.7020   46.1520 O   0  0  0  0  0  0  0  0  0  0  0  0
   56.1830   25.9270   45.8010 C   0  0  0  0  0  0  0  0  0  0  0  0
   56.0640   24.5150   45.7790 C   0  0  0  0  0  0  0  0  0  0  0  0
   54.7710   23.8170   46.0190 C   0  0  0  0  0  0  0  0  0  0  0  0
   53.6920   24.4620   45.9210 O   0  0  0  0  0  0  0  0  0  0  0  0
   54.6920   22.3740   46.4010 C   0  0  0  0  0  0  0  0  0  0  0  0
   54.6871   22.2847   47.4974 H   0  0  0  0  0  0  0  0  0  0  0  0
   53.7686   21.9368   45.9934 H   0  0  0  0  0  0  0  0  0  0  0  0
   55.5622   21.8386   45.9934 H   0  0  0  0  0  0  0  0  0  0  0  0
   57.2120   23.7360   45.5430 C   0  0  0  0  0  0  0  0  0  0  0  0
   57.1350   22.6387   45.5514 H   0  0  0  0  0  0  0  0  0  0  0  0
   58.4440   24.3370   45.2990 C   0  0  0  0  0  0  0  0  0  0  0  0
   59.3329   23.7136   45.1223 H   0  0  0  0  0  0  0  0  0  0  0  0
   58.5540   25.7240   45.2780 C   0  0  0  0  0  0  0  0  0  0  0  0
   59.5288   26.1903   45.0723 H   0  0  0  0  0  0  0  0  0  0  0  0
   57.4320   26.5340   45.5170 C   0  0  0  0  0  0  0  0  0  0  0  0
   57.5790   28.0040   45.4220 C   0  0  0  0  0  0  0  0  0  0  0  0
   57.9840   28.7110   46.5070 N   0  0  0  0  0  0  0  0  0  0  0  0
   58.1080   30.0630   46.4900 C   0  0  0  0  0  0  0  0  0  0  0  0
   58.5180   30.6470   47.5830 N   0  0  0  0  0  0  0  0  0  0  0  0
   59.8070   31.2180   47.8340 C   0  0  0  0  0  0  0  0  0  0  0  0
   59.9950   32.6050   47.7540 C   0  0  0  0  0  0  0  0  0  0  0  0
   59.1518   33.2591   47.4872 H   0  0  0  0  0  0  0  0  0  0  0  0
   61.2530   33.1580   48.0130 C   0  0  0  0  0  0  0  0  0  0  0  0
   61.3936   34.2475   47.9558 H   0  0  0  0  0  0  0  0  0  0  0  0
   62.3390   32.3300   48.3460 C   0  0  0  0  0  0  0  0  0  0  0  0
   63.6790   32.9020   48.6010 C   0  0  0  0  0  0  0  0  0  0  0  0
   64.1270   33.7740   47.8080 O   0  0  0  0  0  0  0  0  0  0  0  0
   64.4660   32.5130   49.7470 N   0  0  0  0  0  0  0  0  0  0  0  0
   65.9180   32.7140   49.7530 C   0  0  0  0  0  0  0  0  0  0  0  0
   66.4157   31.7649   50.0012 H   0  0  0  0  0  0  0  0  0  0  0  0
   66.2384   33.0554   48.7576 H   0  0  0  0  0  0  0  0  0  0  0  0
   66.3010   33.7800   50.8000 C   0  0  0  0  0  0  0  0  0  0  0  0
   67.3306   33.5831   51.1334 H   0  0  0  0  0  0  0  0  0  0  0  0
   66.1941   34.7594   50.3107 H   0  0  0  0  0  0  0  0  0  0  0  0
   65.4170   33.7980   51.9970 N   0  0  0  0  0  0  0  0  0  0  0  0
   64.4890   34.9430   51.9770 C   0  0  0  0  0  0  0  0  0  0  0  0
   64.2493   35.2388   53.0090 H   0  0  0  0  0  0  0  0  0  0  0  0
   64.9603   35.7879   51.4535 H   0  0  0  0  0  0  0  0  0  0  0  0
   63.5648   34.6569   51.4535 H   0  0  0  0  0  0  0  0  0  0  0  0
   64.7050   32.5190   52.2150 C   0  0  0  0  0  0  0  0  0  0  0  0
   65.4463   31.7213   52.3704 H   0  0  0  0  0  0  0  0  0  0  0  0
   64.0571   32.6354   53.0963 H   0  0  0  0  0  0  0  0  0  0  0  0
   63.8150   32.1450   51.0140 C   0  0  0  0  0  0  0  0  0  0  0  0
   63.6327   31.0603   51.0241 H   0  0  0  0  0  0  0  0  0  0  0  0
   62.8649   32.6935   51.0947 H   0  0  0  0  0  0  0  0  0  0  0  0
   62.1330   30.9440   48.4650 C   0  0  0  0  0  0  0  0  0  0  0  0
   62.9678   30.2899   48.7571 H   0  0  0  0  0  0  0  0  0  0  0  0
   60.8730   30.3930   48.2140 C   0  0  0  0  0  0  0  0  0  0  0  0
   60.7184   29.3086   48.3152 H   0  0  0  0  0  0  0  0  0  0  0  0
   57.8060   30.7530   45.2870 C   0  0  0  0  0  0  0  0  0  0  0  0
   57.9360   32.0060   45.2070 O   0  0  0  0  0  0  0  0  0  0  0  0
   57.3860   30.0470   44.1880 N   0  0  0  0  0  0  0  0  0  0  0  0
   57.0870   30.7480   42.9330 C   0  0  0  0  0  0  0  0  0  0  0  0
   56.6645   31.7384   43.1579 H   0  0  0  0  0  0  0  0  0  0  0  0
   58.0124   30.8677   42.3504 H   0  0  0  0  0  0  0  0  0  0  0  0
   56.3601   30.1630   42.3504 H   0  0  0  0  0  0  0  0  0  0  0  0
   57.2680   28.6880   44.2430 C   0  0  0  0  0  0  0  0  0  0  0  0
   56.9276   28.1302   43.3581 H   0  0  0  0  0  0  0  0  0  0  0  0
  1  2  1  0
  2  3  1  0
  3  4  2  0
  4  5  1  0
  5  6  2  0
  5  7  1  0
  7  8  1  0
  7  9  1  0
  7 10  1  0
  4 11  1  0
 11 12  1  0
 11 13  2  0
 13 14  1  0
 13 15  1  0
 15 16  1  0
 15 17  2  0
 17 18  1  0
 18 19  1  0
 19 20  1  0
 20 21  2  0
 21 22  1  0
 22 23  2  0
 23 24  1  0
 23 25  1  0
 25 26  1  0
 25 27  2  0
 27 28  1  0
 28 29  2  0
 28 30  1  0
 30 31  1  0
 31 32  1  0
 31 33  1  0
 31 34  1  0
 34 35  1  0
 34 36  1  0
 34 37  1  0
 37 38  1  0
 38 39  1  0
 38 40  1  0
 38 41  1  0
 37 42  1  0
 42 43  1  0
 42 44  1  0
 42 45  1  0
 45 46  1  0
 45 47  1  0
 27 48  1  0
 48 49  1  0
 48 50  2  0
 50 51  1  0
 20 52  1  0
 52 53  2  0
 52 54  1  0
 54 55  1  0
 55 56  1  0
 55 57  1  0
 55 58  1  0
 54 59  1  0
 59 60  1  0
 17  3  1  0
 59 18  2  0
 50 22  1  0
 45 30  1  0
M  CHG  1  19  -1
M  END
>  <UniqueID>  (44) 
39

>  <SMILES>  (44) 
CC(=O)c1cccc(-c2cn(C)c(=O)/c(=N\c3ccc(C(=O)N4CCN(C)CC4)cc3)[n-]2)c1O

>  <Energy>  (44) 
103.15766640903003

>  <Genealogy>  (44) 
CC(=O)c1cccc(-c2cn(C)c(=O)c(=Nc3ccc(C(=O)N4CCN(C)CC4)cc3)[n-]2)c1O (protonated)
CC(=O)c1cccc(-c2cn(C)c(=O)/c(=N\c3ccc(C(=O)N4CCN(C)CC4)cc3)[n-]2)c1O (cis-trans isomerization)
CC(=O)c1cccc(-c2cn(C)c(=O)/c(=N\c3ccc(C(=O)N4CCN(C)CC4)cc3)[n-]2)c1O (3D coordinates assigned)
CC(=O)c1cccc(-c2cn(C)c(=O)/c(=N\c3ccc(C(=O)N4CCN(C)CC4)cc3)[n-]2)c1O (nonaromatic ring conformer: 103.15766640903003 kcal/mol)

>  <smiles>  (44) 
CC(=O)c1cccc(-c2cn(C)c(=O)c(=Nc3ccc(C(=O)N4CCN(C)CC4)cc3)[nH]2)c1O

>  <score_type>  (44) 
oracle

>  <origin>  (44) 
adg

>  <m_score__min__energy>  (44) 
-11.800000000000001

>  <m_primary>  (44) 
energy

$$$$
44:0
     RDKit          3D

 48 51  0  0  0  0  0  0  0  0999 V2000
   59.3920   33.6600   48.1170 C   0  0  0  0  0  0  0  0  0  0  0  0
   58.7110   33.2390   46.8400 C   0  0  0  0  0  0  0  0  0  0  0  0
   58.1140   34.2250   46.0370 C   0  0  0  0  0  0  0  0  0  0  0  0
   57.4840   33.8820   44.8420 C   0  0  0  0  0  0  0  0  0  0  0  0
   57.4200   32.5500   44.4430 C   0  0  0  0  0  0  0  0  0  0  0  0
   57.9860   31.5440   45.2320 C   0  0  0  0  0  0  0  0  0  0  0  0
   57.8550   30.1870   44.7900 N   0  0  0  0  0  0  0  0  0  0  0  0
   56.9120   29.2620   45.3420 C   0  0  0  0  0  0  0  0  0  0  0  0
   55.6910   29.3350   45.0370 O   0  0  0  0  0  0  0  0  0  0  0  0
   57.3750   28.2310   46.3190 C   0  0  0  0  0  0  0  0  0  0  0  0
   57.1780   26.8980   45.7540 N   0  0  0  0  0  0  0  0  0  0  0  0
   56.0280   26.2130   45.6610 C   0  0  0  0  0  0  0  0  0  0  0  0
   54.7790   26.7140   46.0080 O   0  0  0  0  0  0  0  0  0  0  0  0
   56.2950   24.9500   45.1800 C   0  0  0  0  0  0  0  0  0  0  0  0
   55.2910   23.8860   44.8680 C   0  0  0  0  0  0  0  0  0  0  0  0
   55.8980   22.5330   45.0770 C   0  0  0  0  0  0  0  0  0  0  0  0
   56.3400   21.6610   44.0870 C   0  0  0  0  0  0  0  0  0  0  0  0
   56.9080   20.5660   44.6420 N   0  0  0  0  0  0  0  0  0  0  0  0
   56.8400   20.7470   45.9720 C   0  0  0  0  0  0  0  0  0  0  0  0
   57.3200   19.8950   46.9660 C   0  0  0  0  0  0  0  0  0  0  0  0
   57.1650   20.2950   48.3060 C   0  0  0  0  0  0  0  0  0  0  0  0
   56.5450   21.5250   48.6190 C   0  0  0  0  0  0  0  0  0  0  0  0
   56.0730   22.3660   47.5950 C   0  0  0  0  0  0  0  0  0  0  0  0
   56.2350   21.9400   46.2770 C   0  0  0  0  0  0  0  0  0  0  0  0
   57.6230   24.8250   44.9630 N   0  0  0  0  0  0  0  0  0  0  0  0
   58.1200   26.0240   45.3380 C   0  0  0  0  0  0  0  0  0  0  0  0
   59.3510   26.2920   45.3090 O   0  0  0  0  0  0  0  0  0  0  0  0
   58.6950   31.8840   46.4140 C   0  0  0  0  0  0  0  0  0  0  0  0
   59.4230   30.8210   47.2060 C   0  0  0  0  0  0  0  0  0  0  0  0
   58.8103   33.3004   48.9786 H   0  0  0  0  0  0  0  0  0  0  0  0
   60.4036   33.2295   48.1522 H   0  0  0  0  0  0  0  0  0  0  0  0
   59.4591   34.7574   48.1522 H   0  0  0  0  0  0  0  0  0  0  0  0
   58.1440   35.2778   46.3544 H   0  0  0  0  0  0  0  0  0  0  0  0
   57.0364   34.6655   44.2129 H   0  0  0  0  0  0  0  0  0  0  0  0
   56.9200   32.2867   43.4992 H   0  0  0  0  0  0  0  0  0  0  0  0
   58.4430   28.3835   46.5339 H   0  0  0  0  0  0  0  0  0  0  0  0
   56.7958   28.3229   47.2496 H   0  0  0  0  0  0  0  0  0  0  0  0
   54.4203   24.0011   45.5303 H   0  0  0  0  0  0  0  0  0  0  0  0
   54.9762   23.9827   43.8184 H   0  0  0  0  0  0  0  0  0  0  0  0
   56.2415   21.8372   43.0057 H   0  0  0  0  0  0  0  0  0  0  0  0
   57.3290   19.7570   44.1350 H   0  0  0  0  0  0  0  0  0  0  0  0
   57.8042   18.9409   46.7107 H   0  0  0  0  0  0  0  0  0  0  0  0
   57.5292   19.6453   49.1155 H   0  0  0  0  0  0  0  0  0  0  0  0
   56.4305   21.8272   49.6705 H   0  0  0  0  0  0  0  0  0  0  0  0
   55.5920   23.3279   47.8262 H   0  0  0  0  0  0  0  0  0  0  0  0
   59.2926   31.0114   48.2815 H   0  0  0  0  0  0  0  0  0  0  0  0
   59.0119   29.8317   46.9563 H   0  0  0  0  0  0  0  0  0  0  0  0
   60.4940   30.8467   46.9563 H   0  0  0  0  0  0  0  0  0  0  0  0
  1  2  1  0
  2  3  2  0
  3  4  1  0
  4  5  2  0
  5  6  1  0
  6  7  1  0
  7  8  1  0
  8  9  2  0
  8 10  1  0
 10 11  1  0
 11 12  1  0
 12 13  1  0
 12 14  2  0
 14 15  1  0
 15 16  1  0
 16 17  2  0
 17 18  1  0
 18 19  1  0
 19 20  2  0
 20 21  1  0
 21 22  2  0
 22 23  1  0
 23 24  2  0
 14 25  1  0
 25 26  1  0
 26 27  2  0
  6 28  2  0
 28 29  1  0
 28  2  1  0
 26 11  1  0
 24 16  1  0
 24 19  1  0
  1 30  1  0
  1 31  1  0
  1 32  1  0
  3 33  1  0
  4 34  1  0
  5 35  1  0
 10 36  1  0
 10 37  1  0
 15 38  1  0
 15 39  1  0
 17 40  1  0
 18 41  1  0
 20 42  1  0
 21 43  1  0
 22 44  1  0
 23 45  1  0
 29 46  1  0
 29 47  1  0
 29 48  1  0
M  CHG  3   7  -1  13  -1  25  -1
M  END
>  <UniqueID>  (45) 
40

>  <SMILES>  (45) 
Cc1cccc([N-]C(=O)Cn2c([O-])c(Cc3c[nH]c4ccccc34)[n-]c2=O)c1C

>  <Energy>  (45) 
120.19678578591365

>  <Genealogy>  (45) 
Cc1cccc([N-]C(=O)Cn2c([O-])c(Cc3c[nH]c4ccccc34)[n-]c2=O)c1C (protonated)
Cc1cccc([N-]C(=O)Cn2c([O-])c(Cc3c[nH]c4ccccc34)[n-]c2=O)c1C (3D coordinates assigned)
Cc1cccc([N-]C(=O)Cn2c([O-])c(Cc3c[nH]c4ccccc34)[n-]c2=O)c1C (optimized conformer: 120.19678578591365 kcal/mol)

>  <smiles>  (45) 
Cc1cccc(NC(=O)Cn2c(O)c(Cc3c[nH]c4ccccc34)[nH]c2=O)c1C

>  <score_type>  (45) 
oracle

>  <origin>  (45) 
adg

>  <m_score__min__energy>  (45) 
-15.119999999999999

>  <m_primary>  (45) 
energy

$$$$
45:0
     RDKit          3D

 41 43  0  0  0  0  0  0  0  0999 V2000
   61.1608   27.3077   47.1726 H   0  0  0  0  0  0  0  0  0  0  0  0
   60.2910   27.9550   47.3580 C   0  0  0  0  0  0  0  0  0  0  0  0
   60.5060   29.1470   47.9380 C   0  0  0  0  0  0  0  0  0  0  0  0
   60.9700   29.3820   49.6630 S   0  0  0  0  0  0  0  0  0  0  0  0
   61.0380   31.1500   49.3530 C   0  0  0  0  0  0  0  0  0  0  0  0
   60.9840   32.2100   50.6000 S   0  0  0  0  0  0  0  0  0  0  0  0
   60.8040   31.5430   47.9960 N   0  0  0  0  0  0  0  0  0  0  0  0
   60.7370   32.9250   47.5100 C   0  0  0  0  0  0  0  0  0  0  0  0
   60.7420   32.9193   46.4100 H   0  0  0  0  0  0  0  0  0  0  0  0
   61.6075   33.4739   47.8986 H   0  0  0  0  0  0  0  0  0  0  0  0
   59.4840   33.6120   47.9930 C   0  0  0  0  0  0  0  0  0  0  0  0
   59.5330   34.3380   49.0200 O   0  0  0  0  0  0  0  0  0  0  0  0
   58.2790   33.5980   47.2180 N   0  0  0  0  0  0  0  0  0  0  0  0
   58.1380   33.0960   45.8840 C   0  0  0  0  0  0  0  0  0  0  0  0
   58.6820   33.8240   44.8210 C   0  0  0  0  0  0  0  0  0  0  0  0
   59.2218   34.7617   45.0191 H   0  0  0  0  0  0  0  0  0  0  0  0
   58.5430   33.3660   43.5100 C   0  0  0  0  0  0  0  0  0  0  0  0
   58.9898   33.9334   42.6803 H   0  0  0  0  0  0  0  0  0  0  0  0
   57.8380   32.1890   43.2490 C   0  0  0  0  0  0  0  0  0  0  0  0
   57.7471   31.8251   42.2149 H   0  0  0  0  0  0  0  0  0  0  0  0
   57.2430   31.4650   44.2990 C   0  0  0  0  0  0  0  0  0  0  0  0
   56.4840   30.2230   44.0060 C   0  0  0  0  0  0  0  0  0  0  0  0
   55.4030   29.9960   44.6150 O   0  0  0  0  0  0  0  0  0  0  0  0
   56.9540   29.2630   43.0570 N   0  0  0  0  0  0  0  0  0  0  0  0
   56.3670   28.4320   42.8240 H   0  0  0  0  0  0  0  0  0  0  0  0
   57.9130   29.3140   42.6490 H   0  0  0  0  0  0  0  0  0  0  0  0
   57.3970   31.9330   45.6180 C   0  0  0  0  0  0  0  0  0  0  0  0
   56.9321   31.3820   46.4488 H   0  0  0  0  0  0  0  0  0  0  0  0
   60.5000   30.4070   47.1990 C   0  0  0  0  0  0  0  0  0  0  0  0
   60.2450   30.4910   45.9670 O   0  0  0  0  0  0  0  0  0  0  0  0
   58.9590   27.4580   46.9530 C   0  0  0  0  0  0  0  0  0  0  0  0
   58.1530   28.1680   46.0460 C   0  0  0  0  0  0  0  0  0  0  0  0
   58.4998   29.1312   45.6436 H   0  0  0  0  0  0  0  0  0  0  0  0
   56.9130   27.6560   45.6530 C   0  0  0  0  0  0  0  0  0  0  0  0
   56.2810   28.2232   44.9538 H   0  0  0  0  0  0  0  0  0  0  0  0
   56.4750   26.4230   46.1480 C   0  0  0  0  0  0  0  0  0  0  0  0
   54.8770   25.7620   45.6400 S   0  0  0  0  0  0  0  0  0  0  0  0
   57.2840   25.6980   47.0290 C   0  0  0  0  0  0  0  0  0  0  0  0
   56.9433   24.7255   47.4138 H   0  0  0  0  0  0  0  0  0  0  0  0
   58.5250   26.2080   47.4210 C   0  0  0  0  0  0  0  0  0  0  0  0
   59.1653   25.6262   48.1003 H   0  0  0  0  0  0  0  0  0  0  0  0
  1  2  1  0
  2  3  2  0
  3  4  1  0
  4  5  1  0
  5  6  2  0
  5  7  1  0
  7  8  1  0
  8  9  1  0
  8 10  1  0
  8 11  1  0
 11 12  2  0
 11 13  1  0
 13 14  1  0
 14 15  2  0
 15 16  1  0
 15 17  1  0
 17 18  1  0
 17 19  2  0
 19 20  1  0
 19 21  1  0
 21 22  1  0
 22 23  2  0
 22 24  1  0
 24 25  1  0
 24 26  1  0
 21 27  2  0
 27 28  1  0
  7 29  1  0
 29 30  2  0
  2 31  1  0
 31 32  2  0
 32 33  1  0
 32 34  1  0
 34 35  1  0
 34 36  2  0
 36 37  1  0
 36 38  1  0
 38 39  1  0
 38 40  2  0
 40 41  1  0
 29  3  1  0
 40 31  1  0
 27 14  1  0
M  CHG  2  13  -1  37  -1
M  END
>  <UniqueID>  (46) 
41

>  <SMILES>  (46) 
NC(=O)c1cccc([N-]C(=O)CN2C(=O)/C(=C/c3ccc([S-])cc3)SC2=S)c1

>  <Energy>  (46) 
74.65626121316515

>  <Genealogy>  (46) 
NC(=O)c1cccc([N-]C(=O)CN2C(=O)C(=Cc3ccc([S-])cc3)SC2=S)c1 (protonated)
NC(=O)c1cccc([N-]C(=O)CN2C(=O)/C(=C/c3ccc([S-])cc3)SC2=S)c1 (cis-trans isomerization)
NC(=O)c1cccc([N-]C(=O)CN2C(=O)/C(=C/c3ccc([S-])cc3)SC2=S)c1 (3D coordinates assigned)
NC(=O)c1cccc([N-]C(=O)CN2C(=O)/C(=C/c3ccc([S-])cc3)SC2=S)c1 (nonaromatic ring conformer: 74.65626121316515 kcal/mol)

>  <smiles>  (46) 
NC(=O)c1cccc(NC(=O)CN2C(=O)C(=Cc3ccc(S)cc3)SC2=S)c1

>  <score_type>  (46) 
oracle

>  <origin>  (46) 
adg

>  <m_score__min__energy>  (46) 
-12.1

>  <m_primary>  (46) 
energy

$$$$
46:0
     RDKit          3D

 41 44  0  0  0  0  0  0  0  0999 V2000
   59.8170   28.7460   45.0940 O   0  0  0  0  0  0  0  0  0  0  0  0
   58.5860   28.8380   45.3440 C   0  0  0  0  0  0  0  0  0  0  0  0
   57.8520   27.6420   45.8120 C   0  0  0  0  0  0  0  0  0  0  0  0
   58.5380   26.6120   46.4770 C   0  0  0  0  0  0  0  0  0  0  0  0
   57.8500   25.4860   46.9350 C   0  0  0  0  0  0  0  0  0  0  0  0
   56.4680   25.3770   46.7480 C   0  0  0  0  0  0  0  0  0  0  0  0
   55.8070   24.2400   47.2120 O   0  0  0  0  0  0  0  0  0  0  0  0
   55.7710   26.4110   46.1020 C   0  0  0  0  0  0  0  0  0  0  0  0
   54.3970   26.3260   45.9150 O   0  0  0  0  0  0  0  0  0  0  0  0
   56.4600   27.5390   45.6440 C   0  0  0  0  0  0  0  0  0  0  0  0
   57.9280   30.1450   45.1730 C   0  0  0  0  0  0  0  0  0  0  0  0
   56.6490   30.3120   44.7280 N   0  0  0  0  0  0  0  0  0  0  0  0
   56.3400   31.6120   44.7230 N   0  0  0  0  0  0  0  0  0  0  0  0
   57.4390   32.2300   45.1740 C   0  0  0  0  0  0  0  0  0  0  0  0
   57.8230   33.5100   45.4700 C   0  0  0  0  0  0  0  0  0  0  0  0
   57.0720   34.6660   45.2950 O   0  0  0  0  0  0  0  0  0  0  0  0
   59.0830   33.4610   45.9810 N   0  0  0  0  0  0  0  0  0  0  0  0
   59.9090   34.5980   46.3810 C   0  0  0  0  0  0  0  0  0  0  0  0
   60.2210   34.5190   47.8760 C   0  0  0  0  0  0  0  0  0  0  0  0
   61.5790   33.9120   48.1030 C   0  0  0  0  0  0  0  0  0  0  0  0
   62.5090   33.8420   47.0510 C   0  0  0  0  0  0  0  0  0  0  0  0
   63.7820   33.3060   47.2710 C   0  0  0  0  0  0  0  0  0  0  0  0
   64.1390   32.8470   48.5420 C   0  0  0  0  0  0  0  0  0  0  0  0
   63.2240   32.9250   49.5960 C   0  0  0  0  0  0  0  0  0  0  0  0
   61.9500   33.4600   49.3800 C   0  0  0  0  0  0  0  0  0  0  0  0
   59.4540   32.1470   45.9820 C   0  0  0  0  0  0  0  0  0  0  0  0
   60.6720   31.6700   46.4510 O   0  0  0  0  0  0  0  0  0  0  0  0
   58.4200   31.3940   45.4710 C   0  0  0  0  0  0  0  0  0  0  0  0
   59.6232   26.6928   46.6379 H   0  0  0  0  0  0  0  0  0  0  0  0
   58.3980   24.6804   47.4456 H   0  0  0  0  0  0  0  0  0  0  0  0
   54.8060   24.2270   47.3670 H   0  0  0  0  0  0  0  0  0  0  0  0
   55.9084   28.3516   45.1486 H   0  0  0  0  0  0  0  0  0  0  0  0
   60.8499   34.5827   45.8114 H   0  0  0  0  0  0  0  0  0  0  0  0
   59.3629   35.5305   46.1754 H   0  0  0  0  0  0  0  0  0  0  0  0
   60.2022   35.5325   48.3031 H   0  0  0  0  0  0  0  0  0  0  0  0
   59.4642   33.8864   48.3629 H   0  0  0  0  0  0  0  0  0  0  0  0
   62.2345   34.2101   46.0514 H   0  0  0  0  0  0  0  0  0  0  0  0
   64.5032   33.2456   46.4426 H   0  0  0  0  0  0  0  0  0  0  0  0
   65.1401   32.4243   48.7129 H   0  0  0  0  0  0  0  0  0  0  0  0
   63.5064   32.5652   50.5964 H   0  0  0  0  0  0  0  0  0  0  0  0
   61.2356   33.5271   50.2137 H   0  0  0  0  0  0  0  0  0  0  0  0
  1  2  2  0
  2  3  1  0
  3  4  2  0
  4  5  1  0
  5  6  2  0
  6  7  1  0
  6  8  1  0
  8  9  1  0
  8 10  2  0
  2 11  1  0
 11 12  2  0
 12 13  1  0
 13 14  1  0
 14 15  2  0
 15 16  1  0
 15 17  1  0
 17 18  1  0
 18 19  1  0
 19 20  1  0
 20 21  2  0
 21 22  1  0
 22 23  2  0
 23 24  1  0
 24 25  2  0
 17 26  1  0
 26 27  1  0
 26 28  2  0
 10  3  1  0
 28 11  1  0
 28 14  1  0
 25 20  1  0
  4 29  1  0
  5 30  1  0
  7 31  1  0
 10 32  1  0
 18 33  1  0
 18 34  1  0
 19 35  1  0
 19 36  1  0
 21 37  1  0
 22 38  1  0
 23 39  1  0
 24 40  1  0
 25 41  1  0
M  CHG  4   9  -1  13  -1  16  -1  27  -1
M  END
>  <UniqueID>  (47) 
42

>  <SMILES>  (47) 
O=C(c1ccc(O)c([O-])c1)c1n[n-]c2c([O-])n(CCc3ccccc3)c([O-])c12

>  <Energy>  (47) 
141.04865194089788

>  <Genealogy>  (47) 
O=C(c1ccc(O)c([O-])c1)c1n[n-]c2c([O-])n(CCc3ccccc3)c([O-])c12 (protonated)
O=C(c1ccc(O)c([O-])c1)c1n[n-]c2c([O-])n(CCc3ccccc3)c([O-])c12 (3D coordinates assigned)
O=C(c1ccc(O)c([O-])c1)c1n[n-]c2c([O-])n(CCc3ccccc3)c([O-])c12 (optimized conformer: 141.04865194089788 kcal/mol)

>  <smiles>  (47) 
O=C(c1ccc(O)c(O)c1)c1n[nH]c2c(O)n(CCc3ccccc3)c(O)c12

>  <score_type>  (47) 
oracle

>  <origin>  (47) 
adg

>  <m_score__min__energy>  (47) 
-16.329999999999998

>  <m_primary>  (47) 
energy

$$$$
47:0
     RDKit          3D

 47 49  0  0  0  0  0  0  0  0999 V2000
   57.6900   31.9030   43.9170 C   0  0  0  0  0  0  0  0  0  0  0  0
   57.5510   30.5920   44.5770 N   0  0  0  0  0  0  0  0  0  0  0  0
   56.3840   29.8840   44.4670 C   0  0  0  0  0  0  0  0  0  0  0  0
   55.4260   30.3210   43.7700 O   0  0  0  0  0  0  0  0  0  0  0  0
   56.2400   28.7050   45.1160 N   0  0  0  0  0  0  0  0  0  0  0  0
   57.2280   28.2030   45.8970 C   0  0  0  0  0  0  0  0  0  0  0  0
   57.0060   27.0690   46.4980 N   0  0  0  0  0  0  0  0  0  0  0  0
   56.9060   25.7600   45.9230 C   0  0  0  0  0  0  0  0  0  0  0  0
   55.6500   25.2040   45.6310 C   0  0  0  0  0  0  0  0  0  0  0  0
   55.5610   23.9650   44.9880 C   0  0  0  0  0  0  0  0  0  0  0  0
   56.7270   23.2750   44.6200 C   0  0  0  0  0  0  0  0  0  0  0  0
   56.6130   21.7480   43.7480 S   0  0  0  0  0  0  0  0  0  0  0  0
   58.1900   21.1160   43.4450 N   0  0  0  0  0  0  0  0  0  0  0  0
   55.9260   21.9690   42.4280 O   0  0  0  0  0  0  0  0  0  0  0  0
   55.8240   20.7600   44.5640 O   0  0  0  0  0  0  0  0  0  0  0  0
   57.9820   23.8390   44.9030 C   0  0  0  0  0  0  0  0  0  0  0  0
   58.0710   25.0810   45.5400 C   0  0  0  0  0  0  0  0  0  0  0  0
   58.4140   28.8910   46.0020 N   0  0  0  0  0  0  0  0  0  0  0  0
   59.4840   28.3830   46.7190 O   0  0  0  0  0  0  0  0  0  0  0  0
   59.5640   28.5290   48.1330 C   0  0  0  0  0  0  0  0  0  0  0  0
   60.1620   29.8570   48.4490 C   0  0  0  0  0  0  0  0  0  0  0  0
   61.4150   29.9680   48.5150 O   0  0  0  0  0  0  0  0  0  0  0  0
   59.3070   30.9790   48.7140 N   0  0  0  0  0  0  0  0  0  0  0  0
   59.3040   32.2370   48.0180 C   0  0  0  0  0  0  0  0  0  0  0  0
   60.4400   33.0680   47.9650 C   0  0  0  0  0  0  0  0  0  0  0  0
   60.3950   34.2780   47.2620 C   0  0  0  0  0  0  0  0  0  0  0  0
   59.2260   34.6620   46.5970 C   0  0  0  0  0  0  0  0  0  0  0  0
   58.1010   33.8320   46.6290 C   0  0  0  0  0  0  0  0  0  0  0  0
   56.9660   34.2010   45.9830 F   0  0  0  0  0  0  0  0  0  0  0  0
   58.1450   32.6200   47.3280 C   0  0  0  0  0  0  0  0  0  0  0  0
   58.5560   30.0960   45.3690 C   0  0  0  0  0  0  0  0  0  0  0  0
   59.6230   30.7570   45.5260 O   0  0  0  0  0  0  0  0  0  0  0  0
   57.7735   32.6907   44.6802 H   0  0  0  0  0  0  0  0  0  0  0  0
   58.5932   31.9035   43.2892 H   0  0  0  0  0  0  0  0  0  0  0  0
   56.8070   32.0929   43.2892 H   0  0  0  0  0  0  0  0  0  0  0  0
   54.7332   25.7446   45.9088 H   0  0  0  0  0  0  0  0  0  0  0  0
   54.5745   23.5299   44.7700 H   0  0  0  0  0  0  0  0  0  0  0  0
   58.0790   20.3040   42.7950 H   0  0  0  0  0  0  0  0  0  0  0  0
   58.5480   20.7230   44.3460 H   0  0  0  0  0  0  0  0  0  0  0  0
   58.8995   23.3011   44.6222 H   0  0  0  0  0  0  0  0  0  0  0  0
   59.0569   25.5257   45.7408 H   0  0  0  0  0  0  0  0  0  0  0  0
   58.5558   28.4652   48.5683 H   0  0  0  0  0  0  0  0  0  0  0  0
   60.1899   27.7289   48.5551 H   0  0  0  0  0  0  0  0  0  0  0  0
   61.3652   32.7655   48.4774 H   0  0  0  0  0  0  0  0  0  0  0  0
   61.2816   34.9285   47.2326 H   0  0  0  0  0  0  0  0  0  0  0  0
   59.1916   35.6155   46.0496 H   0  0  0  0  0  0  0  0  0  0  0  0
   57.2631   31.9626   47.3360 H   0  0  0  0  0  0  0  0  0  0  0  0
  1  2  1  0
  2  3  1  0
  3  4  2  0
  3  5  1  0
  5  6  1  0
  6  7  2  3
  7  8  1  0
  8  9  2  0
  9 10  1  0
 10 11  2  0
 11 12  1  0
 12 13  1  0
 12 14  2  0
 12 15  2  0
 11 16  1  0
 16 17  2  0
  6 18  1  0
 18 19  1  0
 19 20  1  0
 20 21  1  0
 21 22  2  0
 21 23  1  0
 23 24  1  0
 24 25  2  0
 25 26  1  0
 26 27  2  0
 27 28  1  0
 28 29  1  0
 28 30  2  0
 18 31  1  0
 31 32  2  0
 31  2  1  0
 17  8  1  0
 30 24  1  0
  1 33  1  0
  1 34  1  0
  1 35  1  0
  9 36  1  0
 10 37  1  0
 13 38  1  0
 13 39  1  0
 16 40  1  0
 17 41  1  0
 20 42  1  0
 20 43  1  0
 25 44  1  0
 26 45  1  0
 27 46  1  0
 30 47  1  0
M  CHG  2   5  -1  23  -1
M  END
>  <UniqueID>  (48) 
43

>  <SMILES>  (48) 
Cn1c(=O)[n-]c(=Nc2ccc(S(N)(=O)=O)cc2)n(OCC(=O)[N-]c2cccc(F)c2)c1=O

>  <Energy>  (48) 
68.69534892196738

>  <Genealogy>  (48) 
Cn1c(=O)[n-]c(=Nc2ccc(S(N)(=O)=O)cc2)n(OCC(=O)[N-]c2cccc(F)c2)c1=O (protonated)
Cn1c(=O)[n-]c(=Nc2ccc(S(N)(=O)=O)cc2)n(OCC(=O)[N-]c2cccc(F)c2)c1=O (3D coordinates assigned)
Cn1c(=O)[n-]c(=Nc2ccc(S(N)(=O)=O)cc2)n(OCC(=O)[N-]c2cccc(F)c2)c1=O (optimized conformer: 68.69534892196738 kcal/mol)

>  <smiles>  (48) 
Cn1c(=O)[nH]c(=Nc2ccc(S(N)(=O)=O)cc2)n(OCC(=O)Nc2cccc(F)c2)c1=O

>  <score_type>  (48) 
oracle

>  <origin>  (48) 
adg

>  <m_score__min__energy>  (48) 
-11.69

>  <m_primary>  (48) 
energy

$$$$
48:0
     RDKit          3D

 48 50  0  0  0  0  0  0  0  0999 V2000
   57.4010   21.4220   43.4120 C   0  0  0  0  0  0  0  0  0  0  0  0
   56.0960   21.8520   43.7850 O   0  0  0  0  0  0  0  0  0  0  0  0
   55.8120   23.0790   44.4040 C   0  0  0  0  0  0  0  0  0  0  0  0
   54.5180   23.2930   44.8910 C   0  0  0  0  0  0  0  0  0  0  0  0
   54.1820   24.5020   45.5020 C   0  0  0  0  0  0  0  0  0  0  0  0
   55.1400   25.5090   45.6430 C   0  0  0  0  0  0  0  0  0  0  0  0
   54.7860   26.7080   46.2540 O   0  0  0  0  0  0  0  0  0  0  0  0
   56.4520   25.3070   45.1810 C   0  0  0  0  0  0  0  0  0  0  0  0
   57.4220   26.3620   45.3080 N   0  0  0  0  0  0  0  0  0  0  0  0
   58.8040   26.1400   45.6370 C   0  0  0  0  0  0  0  0  0  0  0  0
   59.2420   24.9710   45.8070 O   0  0  0  0  0  0  0  0  0  0  0  0
   59.7160   27.2390   45.7470 N   0  0  0  0  0  0  0  0  0  0  0  0
   59.3610   28.5920   46.0630 C   0  0  0  0  0  0  0  0  0  0  0  0
   58.6300   29.3340   45.1300 C   0  0  0  0  0  0  0  0  0  0  0  0
   58.2800   30.6630   45.3900 C   0  0  0  0  0  0  0  0  0  0  0  0
   57.3560   31.5360   44.1710 Cl  0  0  0  0  0  0  0  0  0  0  0  0
   58.6750   31.2720   46.6000 C   0  0  0  0  0  0  0  0  0  0  0  0
   58.3380   32.7110   46.9040 C   0  0  0  0  0  0  0  0  0  0  0  0
   59.4730   33.6150   46.4960 C   0  0  0  0  0  0  0  0  0  0  0  0
   59.3700   34.2580   45.4150 O   0  0  0  0  0  0  0  0  0  0  0  0
   60.6600   33.7690   47.3040 N   0  0  0  0  0  0  0  0  0  0  0  0
   61.9260   33.2150   46.7860 C   0  0  0  0  0  0  0  0  0  0  0  0
   63.1420   33.8460   47.4680 C   0  0  0  0  0  0  0  0  0  0  0  0
   62.9980   33.7440   48.9100 N   0  0  0  0  0  0  0  0  0  0  0  0
   61.7410   34.0410   49.5090 C   0  0  0  0  0  0  0  0  0  0  0  0
   61.6310   34.0450   50.7630 O   0  0  0  0  0  0  0  0  0  0  0  0
   60.5640   34.3840   48.6430 C   0  0  0  0  0  0  0  0  0  0  0  0
   59.4490   30.5380   47.5140 C   0  0  0  0  0  0  0  0  0  0  0  0
   59.7950   29.2100   47.2490 C   0  0  0  0  0  0  0  0  0  0  0  0
   60.5910   28.5490   48.1270 F   0  0  0  0  0  0  0  0  0  0  0  0
   56.7770   24.0950   44.5460 C   0  0  0  0  0  0  0  0  0  0  0  0
   57.9951   21.2262   44.3168 H   0  0  0  0  0  0  0  0  0  0  0  0
   57.3270   20.5007   42.8155 H   0  0  0  0  0  0  0  0  0  0  0  0
   57.8891   22.2068   42.8155 H   0  0  0  0  0  0  0  0  0  0  0  0
   53.7597   22.5024   44.7916 H   0  0  0  0  0  0  0  0  0  0  0  0
   53.1593   24.6625   45.8738 H   0  0  0  0  0  0  0  0  0  0  0  0
   57.0800   27.3440   45.2170 H   0  0  0  0  0  0  0  0  0  0  0  0
   58.3269   28.8673   44.1811 H   0  0  0  0  0  0  0  0  0  0  0  0
   57.4312   32.9955   46.3501 H   0  0  0  0  0  0  0  0  0  0  0  0
   58.1695   32.8167   47.9859 H   0  0  0  0  0  0  0  0  0  0  0  0
   61.9400   32.1298   46.9655 H   0  0  0  0  0  0  0  0  0  0  0  0
   61.9826   33.4378   45.7103 H   0  0  0  0  0  0  0  0  0  0  0  0
   64.0539   33.3178   47.1527 H   0  0  0  0  0  0  0  0  0  0  0  0
   63.2132   34.9056   47.1815 H   0  0  0  0  0  0  0  0  0  0  0  0
   59.6469   34.0251   49.1330 H   0  0  0  0  0  0  0  0  0  0  0  0
   60.5466   35.4762   48.5130 H   0  0  0  0  0  0  0  0  0  0  0  0
   59.7860   31.0129   48.4472 H   0  0  0  0  0  0  0  0  0  0  0  0
   57.7940   23.9391   44.1568 H   0  0  0  0  0  0  0  0  0  0  0  0
  1  2  1  0
  2  3  1  0
  3  4  2  0
  4  5  1  0
  5  6  2  0
  6  7  1  0
  6  8  1  0
  8  9  1  0
  9 10  1  0
 10 11  2  0
 10 12  1  0
 12 13  1  0
 13 14  2  0
 14 15  1  0
 15 16  1  0
 15 17  2  0
 17 18  1  0
 18 19  1  0
 19 20  2  0
 19 21  1  0
 21 22  1  0
 22 23  1  0
 23 24  1  0
 24 25  1  0
 25 26  2  0
 25 27  1  0
 17 28  1  0
 28 29  2  0
 29 30  1  0
  8 31  2  0
 31  3  1  0
 29 13  1  0
 27 21  1  0
  1 32  1  0
  1 33  1  0
  1 34  1  0
  4 35  1  0
  5 36  1  0
  9 37  1  0
 14 38  1  0
 18 39  1  0
 18 40  1  0
 22 41  1  0
 22 42  1  0
 23 43  1  0
 23 44  1  0
 27 45  1  0
 27 46  1  0
 28 47  1  0
 31 48  1  0
M  CHG  3   7  -1  12  -1  24  -1
M  END
>  <UniqueID>  (49) 
44

>  <SMILES>  (49) 
COc1ccc([O-])c(NC(=O)[N-]c2cc(Cl)c(CC(=O)N3CC[N-]C(=O)C3)cc2F)c1

>  <Energy>  (49) 
59.39684054803425

>  <Genealogy>  (49) 
COc1ccc([O-])c(NC(=O)[N-]c2cc(Cl)c(CC(=O)N3CC[N-]C(=O)C3)cc2F)c1 (protonated)
COc1ccc([O-])c(NC(=O)[N-]c2cc(Cl)c(CC(=O)N3CC[N-]C(=O)C3)cc2F)c1 (3D coordinates assigned)
COc1ccc([O-])c(NC(=O)[N-]c2cc(Cl)c(CC(=O)N3CC[N-]C(=O)C3)cc2F)c1 (nonaromatic ring conformer: 59.39684054803425 kcal/mol)

>  <smiles>  (49) 
COc1ccc(O)c(NC(=O)Nc2cc(Cl)c(CC(=O)N3CCNC(=O)C3)cc2F)c1

>  <score_type>  (49) 
oracle

>  <origin>  (49) 
adg

>  <m_score__min__energy>  (49) 
-14.640000000000001

>  <m_primary>  (49) 
energy

$$$$
49:0
     RDKit          3D

 52 54  0  0  0  0  0  0  0  0999 V2000
   54.5990   30.2330   55.0540 C   0  0  0  0  0  0  0  0  0  0  0  0
   54.9730   30.2320   53.7620 C   0  0  0  0  0  0  0  0  0  0  0  0
   54.2810   30.8080   52.6900 C   0  0  0  0  0  0  0  0  0  0  0  0
   53.0110   31.2460   52.5990 C   0  0  0  0  0  0  0  0  0  0  0  0
   52.1660   31.2220   51.3950 C   0  0  0  0  0  0  0  0  0  0  0  0
   52.2450   30.3050   50.4140 N   0  0  0  0  0  0  0  0  0  0  0  0
   51.3870   30.7690   49.4850 C   0  0  0  0  0  0  0  0  0  0  0  0
   51.1600   30.1550   48.4120 O   0  0  0  0  0  0  0  0  0  0  0  0
   50.7980   31.9400   49.7930 N   0  0  0  0  0  0  0  0  0  0  0  0
   51.3140   32.2200   50.9960 C   0  0  0  0  0  0  0  0  0  0  0  0
   51.0200   33.3700   51.7150 O   0  0  0  0  0  0  0  0  0  0  0  0
   55.1060   30.8650   51.6270 N   0  0  0  0  0  0  0  0  0  0  0  0
   56.2400   30.2680   52.0380 C   0  0  0  0  0  0  0  0  0  0  0  0
   57.2440   30.1670   51.2870 O   0  0  0  0  0  0  0  0  0  0  0  0
   56.1960   29.8220   53.3230 N   0  0  0  0  0  0  0  0  0  0  0  0
   57.1960   29.0350   54.0990 C   0  0  1  0  0  0  0  0  0  0  0  0
   57.2270   27.5480   53.6580 C   0  0  0  0  0  0  0  0  0  0  0  0
   58.5680   26.8490   53.8900 C   0  0  0  0  0  0  0  0  0  0  0  0
   58.5980   29.6090   54.0900 C   0  0  0  0  0  0  0  0  0  0  0  0
   59.1400   29.9650   55.1720 O   0  0  0  0  0  0  0  0  0  0  0  0
   59.2560   29.8930   52.8460 N   0  0  0  0  0  0  0  0  0  0  0  0
   60.5460   30.5180   52.7960 C   0  0  0  0  0  0  0  0  0  0  0  0
   60.7660   31.7160   53.4920 C   0  0  0  0  0  0  0  0  0  0  0  0
   62.0240   32.3290   53.4610 C   0  0  0  0  0  0  0  0  0  0  0  0
   63.0700   31.7480   52.7350 C   0  0  0  0  0  0  0  0  0  0  0  0
   62.8610   30.5540   52.0390 C   0  0  0  0  0  0  0  0  0  0  0  0
   61.6040   29.9320   52.0640 C   0  0  0  0  0  0  0  0  0  0  0  0
   61.4050   28.6900   51.2910 C   0  0  0  0  0  0  0  0  0  0  0  0
   61.9470   27.6310   51.7020 O   0  0  0  0  0  0  0  0  0  0  0  0
   60.6310   28.6810   50.0730 N   0  0  0  0  0  0  0  0  0  0  0  0
   60.4100   27.4130   49.3680 C   0  0  0  0  0  0  0  0  0  0  0  0
   60.1100   29.9350   49.5130 C   0  0  0  0  0  0  0  0  0  0  0  0
   55.2310   29.7439   55.8099 H   0  0  0  0  0  0  0  0  0  0  0  0
   53.6611   30.7229   55.3547 H   0  0  0  0  0  0  0  0  0  0  0  0
   52.5620   31.6619   53.5130 H   0  0  0  0  0  0  0  0  0  0  0  0
   56.8439   29.1012   55.1390 H   0  0  0  0  0  0  0  0  0  0  0  0
   56.4539   27.0055   54.2219 H   0  0  0  0  0  0  0  0  0  0  0  0
   57.0511   27.5383   52.5722 H   0  0  0  0  0  0  0  0  0  0  0  0
   58.7499   26.7542   54.9707 H   0  0  0  0  0  0  0  0  0  0  0  0
   58.5440   25.8487   53.4331 H   0  0  0  0  0  0  0  0  0  0  0  0
   59.3743   27.4416   53.4331 H   0  0  0  0  0  0  0  0  0  0  0  0
   58.7140   29.8120   51.9530 H   0  0  0  0  0  0  0  0  0  0  0  0
   59.9467   32.1754   54.0644 H   0  0  0  0  0  0  0  0  0  0  0  0
   62.1907   33.2687   54.0080 H   0  0  0  0  0  0  0  0  0  0  0  0
   64.0577   32.2316   52.7121 H   0  0  0  0  0  0  0  0  0  0  0  0
   63.6855   30.1004   51.4694 H   0  0  0  0  0  0  0  0  0  0  0  0
   60.2692   26.6054   50.1014 H   0  0  0  0  0  0  0  0  0  0  0  0
   59.5127   27.4958   48.7371 H   0  0  0  0  0  0  0  0  0  0  0  0
   61.2824   27.1874   48.7371 H   0  0  0  0  0  0  0  0  0  0  0  0
   59.8282   30.6132   50.3320 H   0  0  0  0  0  0  0  0  0  0  0  0
   60.8852   30.4101   48.8938 H   0  0  0  0  0  0  0  0  0  0  0  0
   59.2264   29.7209   48.8938 H   0  0  0  0  0  0  0  0  0  0  0  0
  1  2  2  0
  2  3  1  0
  3  4  2  3
  4  5  1  0
  5  6  1  0
  6  7  1  0
  7  8  2  0
  7  9  1  0
  9 10  1  0
 10 11  1  0
  3 12  1  0
 12 13  1  0
 13 14  2  0
 13 15  1  0
 15 16  1  0
 16 17  1  0
 17 18  1  0
 16 19  1  0
 19 20  2  0
 19 21  1  0
 21 22  1  0
 22 23  2  0
 23 24  1  0
 24 25  2  0
 25 26  1  0
 26 27  2  0
 27 28  1  0
 28 29  2  0
 28 30  1  0
 30 31  1  0
 30 32  1  0
 15  2  1  0
 27 22  1  0
 10  5  2  0
  1 33  1  0
  1 34  1  0
  4 35  1  0
 16 36  1  1
 17 37  1  0
 17 38  1  0
 18 39  1  0
 18 40  1  0
 18 41  1  0
 21 42  1  0
 23 43  1  0
 24 44  1  0
 25 45  1  0
 26 46  1  0
 31 47  1  0
 31 48  1  0
 31 49  1  0
 32 50  1  0
 32 51  1  0
 32 52  1  0
M  CHG  4   6  -1   9  -1  11  -1  12  -1
M  END
>  <UniqueID>  (50) 
45

>  <SMILES>  (50) 
C=c1c(=Cc2[n-]c(=O)[n-]c2[O-])[n-]c(=O)n1[C@@H](CC)C(=O)Nc1ccccc1C(=O)N(C)C

>  <Energy>  (50) 
140.66144727684951

>  <Genealogy>  (50) 
C=c1c(=Cc2[n-]c(=O)[n-]c2[O-])[n-]c(=O)n1C(CC)C(=O)Nc1ccccc1C(=O)N(C)C (protonated)
C=c1c(=Cc2[n-]c(=O)[n-]c2[O-])[n-]c(=O)n1[C@@H](CC)C(=O)Nc1ccccc1C(=O)N(C)C (chirality)
C=c1c(=Cc2[n-]c(=O)[n-]c2[O-])[n-]c(=O)n1[C@@H](CC)C(=O)Nc1ccccc1C(=O)N(C)C (3D coordinates assigned)
C=c1c(=Cc2[n-]c(=O)[n-]c2[O-])[n-]c(=O)n1[C@@H](CC)C(=O)Nc1ccccc1C(=O)N(C)C (optimized conformer: 140.66144727684951 kcal/mol)

>  <smiles>  (50) 
C=c1c(=Cc2[nH]c(=O)[nH]c2O)[nH]c(=O)n1C(CC)C(=O)Nc1ccccc1C(=O)N(C)C

>  <score_type>  (50) 
oracle

>  <origin>  (50) 
adg

>  <m_score__min__energy>  (50) 
-18.5

>  <m_primary>  (50) 
energy

$$$$
50:0
     RDKit          3D

 49 51  0  0  1  0  0  0  0  0999 V2000
   58.5440   31.2450   47.3030 C   0  0  0  0  0  0  0  0  0  0  0  0
   58.5160   32.4500   46.4890 C   0  0  0  0  0  0  0  0  0  0  0  0
   59.3000   33.5900   46.7490 C   0  0  0  0  0  0  0  0  0  0  0  0
   60.1250   33.5290   47.8330 O   0  0  0  0  0  0  0  0  0  0  0  0
   61.4740   33.2740   47.9320 C   0  0  0  0  0  0  0  0  0  0  0  0
   62.2420   33.7960   46.7190 C   0  0  0  0  0  0  0  0  0  0  0  0
   63.6110   33.1930   46.7610 C   0  0  0  0  0  0  0  0  0  0  0  0
   64.0170   32.7940   48.0850 N   0  0  0  0  0  0  0  0  0  0  0  0
   63.6300   33.7860   49.0510 C   0  0  0  0  0  0  0  0  0  0  0  0
   62.1300   33.8930   49.1460 C   0  0  0  0  0  0  0  0  0  0  0  0
   59.2480   34.6860   45.9810 N   0  0  0  0  0  0  0  0  0  0  0  0
   58.4260   34.7210   44.9200 C   0  0  0  0  0  0  0  0  0  0  0  0
   57.6530   33.6780   44.6110 N   0  0  0  0  0  0  0  0  0  0  0  0
   57.6940   32.5550   45.3810 C   0  0  0  0  0  0  0  0  0  0  0  0
   56.9100   31.6180   44.9970 N   0  0  0  0  0  0  0  0  0  0  0  0
   57.1460   30.9200   43.7690 C   0  0  0  0  0  0  0  0  0  0  0  0
   57.7820   29.6590   44.3720 C   0  0  0  0  0  0  0  0  0  0  0  0
   59.1500   29.5520   44.5020 C   0  0  0  0  0  0  0  0  0  0  0  0
   59.7660   28.4290   45.0480 C   0  0  0  0  0  0  0  0  0  0  0  0
   58.9180   27.4220   45.4560 C   0  0  0  0  0  0  0  0  0  0  0  0
   59.6250   25.9920   46.1470 Cl  0  0  0  0  0  0  0  0  0  0  0  0
   57.5560   27.4890   45.3450 C   0  0  0  0  0  0  0  0  0  0  0  0
   56.5730   26.1550   45.8940 S   0  0  0  0  0  0  0  0  0  0  0  0
   56.7920   24.8410   44.7960 N   0  0  0  0  0  0  0  0  0  0  0  0
   55.1290   26.5310   45.9840 O   0  0  0  0  0  0  0  0  0  0  0  0
   57.1180   25.7700   47.2610 O   0  0  0  0  0  0  0  0  0  0  0  0
   57.0090   28.6210   44.7990 C   0  0  0  0  0  0  0  0  0  0  0  0
   58.5376   31.5215   48.3677 H   0  0  0  0  0  0  0  0  0  0  0  0
   57.6599   30.6302   47.0785 H   0  0  0  0  0  0  0  0  0  0  0  0
   59.4557   30.6719   47.0785 H   0  0  0  0  0  0  0  0  0  0  0  0
   61.5250   32.1777   48.0061 H   0  0  0  0  0  0  0  0  0  0  0  0
   61.7286   33.4985   45.7927 H   0  0  0  0  0  0  0  0  0  0  0  0
   62.3011   34.8942   46.7406 H   0  0  0  0  0  0  0  0  0  0  0  0
   63.6222   32.3063   46.1101 H   0  0  0  0  0  0  0  0  0  0  0  0
   64.3178   33.9646   46.4218 H   0  0  0  0  0  0  0  0  0  0  0  0
   65.0670   32.7260   48.1320 H   0  0  0  0  0  0  0  0  0  0  0  0
   64.0334   33.5059   50.0353 H   0  0  0  0  0  0  0  0  0  0  0  0
   64.0307   34.7596   48.7324 H   0  0  0  0  0  0  0  0  0  0  0  0
   61.7867   33.3679   50.0496 H   0  0  0  0  0  0  0  0  0  0  0  0
   61.8528   34.9564   49.1952 H   0  0  0  0  0  0  0  0  0  0  0  0
   59.8160   35.5470   46.1480 H   0  0  0  0  0  0  0  0  0  0  0  0
   58.3891   35.6251   44.2946 H   0  0  0  0  0  0  0  0  0  0  0  0
   56.2144   30.7005   43.2268 H   0  0  0  0  0  0  0  0  0  0  0  0
   57.7423   31.4523   43.0133 H   0  0  0  0  0  0  0  0  0  0  0  0
   59.7800   30.3867   44.1609 H   0  0  0  0  0  0  0  0  0  0  0  0
   60.8587   28.3506   45.1473 H   0  0  0  0  0  0  0  0  0  0  0  0
   56.5880   25.1140   43.8190 H   0  0  0  0  0  0  0  0  0  0  0  0
   56.2850   24.0080   45.1380 H   0  0  0  0  0  0  0  0  0  0  0  0
   55.9156   28.6937   44.7028 H   0  0  0  0  0  0  0  0  0  0  0  0
  1  2  1  0
  2  3  2  0
  3  4  1  0
  4  5  1  0
  5  6  1  0
  6  7  1  0
  7  8  1  0
  8  9  1  0
  9 10  1  0
  3 11  1  0
 11 12  1  0
 12 13  2  0
 13 14  1  0
 14 15  2  0
 15 16  1  0
 16 17  1  0
 17 18  2  0
 18 19  1  0
 19 20  2  0
 20 21  1  0
 20 22  1  0
 22 23  1  0
 23 24  1  0
 23 25  2  0
 23 26  2  0
 22 27  2  0
 14  2  1  0
 27 17  1  0
 10  5  1  0
  1 28  1  0
  1 29  1  0
  1 30  1  0
  5 31  1  0
  6 32  1  0
  6 33  1  0
  7 34  1  0
  7 35  1  0
  8 36  1  0
  9 37  1  0
  9 38  1  0
 10 39  1  0
 10 40  1  0
 11 41  1  0
 12 42  1  0
 16 43  1  0
 16 44  1  0
 18 45  1  0
 19 46  1  0
 24 47  1  0
 24 48  1  0
 27 49  1  0
M  END
>  <smiles>  (51) 
Cc1c(OC2CCNCC2)[nH]cnc1=NCc1ccc(Cl)c(S(N)(=O)=O)c1

>  <score_type>  (51) 
oracle

>  <origin>  (51) 
adg

>  <m_score__min__energy>  (51) 
-9.3300000000000001

>  <m_primary>  (51) 
energy

$$$$
51:0
     RDKit          3D

 45 47  0  0  0  0  0  0  0  0999 V2000
   55.5190   28.9420   45.2210 O   0  0  0  0  0  0  0  0  0  0  0  0
   56.5240   29.6100   44.8610 C   0  0  0  0  0  0  0  0  0  0  0  0
   57.8590   28.9440   44.7740 C   0  0  0  0  0  0  0  0  0  0  0  0
   58.7080   29.3380   45.9460 C   0  0  0  0  0  0  0  0  0  0  0  0
   60.0090   29.8190   45.7580 C   0  0  0  0  0  0  0  0  0  0  0  0
   60.7710   30.1400   46.8830 C   0  0  0  0  0  0  0  0  0  0  0  0
   61.9430   30.5790   46.7510 O   0  0  0  0  0  0  0  0  0  0  0  0
   60.2460   29.9730   48.1240 N   0  0  0  0  0  0  0  0  0  0  0  0
   58.9850   29.4960   48.2910 C   0  0  0  0  0  0  0  0  0  0  0  0
   58.5180   29.3490   49.4500 O   0  0  0  0  0  0  0  0  0  0  0  0
   58.2290   29.1770   47.2080 N   0  0  0  0  0  0  0  0  0  0  0  0
   56.4250   31.0210   44.6210 N   0  0  0  0  0  0  0  0  0  0  0  0
   57.4040   32.0230   44.9370 C   0  0  0  0  0  0  0  0  0  0  0  0
   57.8540   32.8620   43.9120 C   0  0  0  0  0  0  0  0  0  0  0  0
   58.7840   33.8710   44.1780 C   0  0  0  0  0  0  0  0  0  0  0  0
   59.2640   34.0570   45.4740 C   0  0  0  0  0  0  0  0  0  0  0  0
   58.8110   33.2350   46.5150 C   0  0  0  0  0  0  0  0  0  0  0  0
   59.3950   33.4940   48.1580 S   0  0  0  0  0  0  0  0  0  0  0  0
   58.5380   32.7030   49.1070 O   0  0  0  0  0  0  0  0  0  0  0  0
   59.2770   34.9520   48.5130 O   0  0  0  0  0  0  0  0  0  0  0  0
   61.0580   32.9760   48.2950 N   0  0  0  0  0  0  0  0  0  0  0  0
   61.5560   33.2490   49.6650 C   0  0  0  0  0  0  0  0  0  0  0  0
   63.0990   33.2650   49.7640 C   0  0  0  0  0  0  0  0  0  0  0  0
   63.7480   32.5010   48.6100 C   0  0  0  0  0  0  0  0  0  0  0  0
   63.3220   33.0810   47.2520 C   0  0  0  0  0  0  0  0  0  0  0  0
   61.8840   33.6450   47.2700 C   0  0  0  0  0  0  0  0  0  0  0  0
   57.8730   32.2280   46.2480 C   0  0  0  0  0  0  0  0  0  0  0  0
   57.7220   27.8526   44.7744 H   0  0  0  0  0  0  0  0  0  0  0  0
   58.3585   29.2578   43.8455 H   0  0  0  0  0  0  0  0  0  0  0  0
   60.4221   29.9414   44.7459 H   0  0  0  0  0  0  0  0  0  0  0  0
   57.4731   32.7266   42.8890 H   0  0  0  0  0  0  0  0  0  0  0  0
   59.1380   34.5197   43.3633 H   0  0  0  0  0  0  0  0  0  0  0  0
   59.9987   34.8494   45.6795 H   0  0  0  0  0  0  0  0  0  0  0  0
   61.0710   31.9410   48.1220 H   0  0  0  0  0  0  0  0  0  0  0  0
   61.1756   34.2301   49.9856 H   0  0  0  0  0  0  0  0  0  0  0  0
   61.1970   32.4337   50.3102 H   0  0  0  0  0  0  0  0  0  0  0  0
   63.4468   34.3083   49.7410 H   0  0  0  0  0  0  0  0  0  0  0  0
   63.3871   32.7739   50.7051 H   0  0  0  0  0  0  0  0  0  0  0  0
   64.8418   32.5711   48.7032 H   0  0  0  0  0  0  0  0  0  0  0  0
   63.4217   31.4517   48.6590 H   0  0  0  0  0  0  0  0  0  0  0  0
   64.0148   33.8918   46.9826 H   0  0  0  0  0  0  0  0  0  0  0  0
   63.3490   32.2625   46.5176 H   0  0  0  0  0  0  0  0  0  0  0  0
   61.9243   34.7222   47.4893 H   0  0  0  0  0  0  0  0  0  0  0  0
   61.4282   33.4651   46.2852 H   0  0  0  0  0  0  0  0  0  0  0  0
   57.5017   31.5949   47.0673 H   0  0  0  0  0  0  0  0  0  0  0  0
  1  2  2  0
  2  3  1  0
  3  4  1  0
  4  5  2  0
  5  6  1  0
  6  7  2  0
  6  8  1  0
  8  9  1  0
  9 10  2  0
  9 11  1  0
  2 12  1  0
 12 13  1  0
 13 14  2  0
 14 15  1  0
 15 16  2  0
 16 17  1  0
 17 18  1  0
 18 19  2  0
 18 20  2  0
 18 21  1  0
 21 22  1  0
 22 23  1  0
 23 24  1  0
 24 25  1  0
 25 26  1  0
 17 27  2  0
 11  4  1  0
 27 13  1  0
 26 21  1  0
  3 28  1  0
  3 29  1  0
  5 30  1  0
 14 31  1  0
 15 32  1  0
 16 33  1  0
 21 34  1  0
 22 35  1  0
 22 36  1  0
 23 37  1  0
 23 38  1  0
 24 39  1  0
 24 40  1  0
 25 41  1  0
 25 42  1  0
 26 43  1  0
 26 44  1  0
 27 45  1  0
M  CHG  4   8  -1  11  -1  12  -1  21   1
M  END
>  <UniqueID>  (52) 
46

>  <SMILES>  (52) 
O=C(Cc1cc(=O)[n-]c(=O)[n-]1)[N-]c1cccc(S(=O)(=O)[NH+]2CCCCC2)c1

>  <Energy>  (52) 
51.571175971767374

>  <Genealogy>  (52) 
O=C(Cc1cc(=O)[n-]c(=O)[n-]1)[N-]c1cccc(S(=O)(=O)[NH+]2CCCCC2)c1 (protonated)
O=C(Cc1cc(=O)[n-]c(=O)[n-]1)[N-]c1cccc(S(=O)(=O)[NH+]2CCCCC2)c1 (3D coordinates assigned)
O=C(Cc1cc(=O)[n-]c(=O)[n-]1)[N-]c1cccc(S(=O)(=O)[NH+]2CCCCC2)c1 (nonaromatic ring conformer: 51.571175971767374 kcal/mol)

>  <smiles>  (52) 
O=C(Cc1cc(=O)[nH]c(=O)[nH]1)Nc1cccc(S(=O)(=O)N2CCCCC2)c1

>  <score_type>  (52) 
oracle

>  <origin>  (52) 
adg

>  <m_score__min__energy>  (52) 
-13.130000000000001

>  <m_primary>  (52) 
energy

$$$$
52:0
     RDKit          3D

 60 64  0  0  0  0  0  0  0  0999 V2000
   63.3170   35.2400   50.4520 O   0  0  0  0  0  0  0  0  0  0  0  0
   62.8080   34.2940   49.7910 C   0  0  0  0  0  0  0  0  0  0  0  0
   63.4100   33.9660   48.4520 C   0  0  0  0  0  0  0  0  0  0  0  0
   63.2730   32.1790   48.0870 S   0  0  0  0  0  0  0  0  0  0  0  0
   61.5790   32.2760   47.5030 C   0  0  0  0  0  0  0  0  0  0  0  0
   61.1610   33.3770   46.8250 N   0  0  0  0  0  0  0  0  0  0  0  0
   59.8770   33.5010   46.3820 C   0  0  0  0  0  0  0  0  0  0  0  0
   59.5470   34.5500   45.7640 O   0  0  0  0  0  0  0  0  0  0  0  0
   58.9610   32.4980   46.6100 N   0  0  0  0  0  0  0  0  0  0  0  0
   57.5610   32.6270   46.1630 C   0  0  0  0  0  0  0  0  0  0  0  0
   57.3970   32.1250   44.7500 C   0  0  0  0  0  0  0  0  0  0  0  0
   56.6810   30.9430   44.4940 C   0  0  0  0  0  0  0  0  0  0  0  0
   56.5250   30.4830   43.1830 C   0  0  0  0  0  0  0  0  0  0  0  0
   57.0710   31.2040   42.1180 C   0  0  0  0  0  0  0  0  0  0  0  0
   57.7740   32.3870   42.3620 C   0  0  0  0  0  0  0  0  0  0  0  0
   57.9350   32.8500   43.6720 C   0  0  0  0  0  0  0  0  0  0  0  0
   59.3800   31.3800   47.2870 C   0  0  0  0  0  0  0  0  0  0  0  0
   60.6670   31.2500   47.7320 C   0  0  0  0  0  0  0  0  0  0  0  0
   60.9010   29.9660   48.4320 C   0  0  0  0  0  0  0  0  0  0  0  0
   59.5450   29.2410   48.3430 C   0  0  0  0  0  0  0  0  0  0  0  0
   58.5570   30.1900   47.6390 C   0  0  0  0  0  0  0  0  0  0  0  0
   61.6650   33.5300   50.3660 C   0  0  0  0  0  0  0  0  0  0  0  0
   61.8690   32.4260   51.2180 C   0  0  0  0  0  0  0  0  0  0  0  0
   60.7810   31.7280   51.7490 C   0  0  0  0  0  0  0  0  0  0  0  0
   59.4680   32.1140   51.4450 C   0  0  0  0  0  0  0  0  0  0  0  0
   58.3530   31.3830   51.9880 N   0  0  0  0  0  0  0  0  0  0  0  0
   58.5820   30.3780   53.0380 C   0  0  0  0  0  0  0  0  0  0  0  0
   57.5030   29.2650   53.0270 C   0  0  0  0  0  0  0  0  0  0  0  0
   56.5370   29.4340   52.0070 O   0  0  0  0  0  0  0  0  0  0  0  0
   55.9770   30.7250   52.0960 C   0  0  0  0  0  0  0  0  0  0  0  0
   56.9880   31.7530   51.5900 C   0  0  0  0  0  0  0  0  0  0  0  0
   59.2580   33.2100   50.5950 C   0  0  0  0  0  0  0  0  0  0  0  0
   60.3430   33.9100   50.0620 C   0  0  0  0  0  0  0  0  0  0  0  0
   62.8813   34.5334   47.6719 H   0  0  0  0  0  0  0  0  0  0  0  0
   64.4758   34.2372   48.4728 H   0  0  0  0  0  0  0  0  0  0  0  0
   56.9143   32.0392   46.8311 H   0  0  0  0  0  0  0  0  0  0  0  0
   57.2799   33.6901   46.1924 H   0  0  0  0  0  0  0  0  0  0  0  0
   56.2414   30.3773   45.3288 H   0  0  0  0  0  0  0  0  0  0  0  0
   55.9717   29.5522   42.9897 H   0  0  0  0  0  0  0  0  0  0  0  0
   56.9475   30.8404   41.0872 H   0  0  0  0  0  0  0  0  0  0  0  0
   58.2014   32.9549   41.5225 H   0  0  0  0  0  0  0  0  0  0  0  0
   58.4843   33.7844   43.8595 H   0  0  0  0  0  0  0  0  0  0  0  0
   61.6888   29.3850   47.9302 H   0  0  0  0  0  0  0  0  0  0  0  0
   61.2398   30.1047   49.4693 H   0  0  0  0  0  0  0  0  0  0  0  0
   59.6528   28.3131   47.7622 H   0  0  0  0  0  0  0  0  0  0  0  0
   59.1802   28.9776   49.3468 H   0  0  0  0  0  0  0  0  0  0  0  0
   58.1430   29.7208   46.7343 H   0  0  0  0  0  0  0  0  0  0  0  0
   57.6955   30.4466   48.2730 H   0  0  0  0  0  0  0  0  0  0  0  0
   62.8931   32.1111   51.4671 H   0  0  0  0  0  0  0  0  0  0  0  0
   60.9565   30.8677   52.4117 H   0  0  0  0  0  0  0  0  0  0  0  0
   59.5681   29.9173   52.8787 H   0  0  0  0  0  0  0  0  0  0  0  0
   58.5317   30.8882   54.0112 H   0  0  0  0  0  0  0  0  0  0  0  0
   58.0020   28.2960   52.8786 H   0  0  0  0  0  0  0  0  0  0  0  0
   56.9732   29.3143   53.9898 H   0  0  0  0  0  0  0  0  0  0  0  0
   55.0660   30.7730   51.4814 H   0  0  0  0  0  0  0  0  0  0  0  0
   55.7235   30.9440   53.1437 H   0  0  0  0  0  0  0  0  0  0  0  0
   56.9334   31.8024   50.4925 H   0  0  0  0  0  0  0  0  0  0  0  0
   56.7457   32.7315   52.0302 H   0  0  0  0  0  0  0  0  0  0  0  0
   58.2323   33.5202   50.3466 H   0  0  0  0  0  0  0  0  0  0  0  0
   60.1630   34.7678   49.3973 H   0  0  0  0  0  0  0  0  0  0  0  0
  1  2  2  0
  2  3  1  0
  3  4  1  0
  4  5  1  0
  5  6  2  0
  6  7  1  0
  7  8  2  0
  7  9  1  0
  9 10  1  0
 10 11  1  0
 11 12  2  0
 12 13  1  0
 13 14  2  0
 14 15  1  0
 15 16  2  0
  9 17  1  0
 17 18  2  0
 18 19  1  0
 19 20  1  0
 20 21  1  0
  2 22  1  0
 22 23  2  0
 23 24  1  0
 24 25  2  0
 25 26  1  0
 26 27  1  0
 27 28  1  0
 28 29  1  0
 29 30  1  0
 30 31  1  0
 25 32  1  0
 32 33  2  0
 18  5  1  0
 33 22  1  0
 16 11  1  0
 21 17  1  0
 31 26  1  0
  3 34  1  0
  3 35  1  0
 10 36  1  0
 10 37  1  0
 12 38  1  0
 13 39  1  0
 14 40  1  0
 15 41  1  0
 16 42  1  0
 19 43  1  0
 19 44  1  0
 20 45  1  0
 20 46  1  0
 21 47  1  0
 21 48  1  0
 23 49  1  0
 24 50  1  0
 27 51  1  0
 27 52  1  0
 28 53  1  0
 28 54  1  0
 30 55  1  0
 30 56  1  0
 31 57  1  0
 31 58  1  0
 32 59  1  0
 33 60  1  0
M  END
>  <UniqueID>  (53) 
47

>  <SMILES>  (53) 
O=C(CSc1nc(=O)n(Cc2ccccc2)c2c1CCC2)c1ccc(N2CCOCC2)cc1

>  <Energy>  (53) 
82.94080408008537

>  <Genealogy>  (53) 
O=C(CSc1nc(=O)n(Cc2ccccc2)c2c1CCC2)c1ccc(N2CCOCC2)cc1 (3D coordinates assigned)
O=C(CSc1nc(=O)n(Cc2ccccc2)c2c1CCC2)c1ccc(N2CCOCC2)cc1 (nonaromatic ring conformer: 82.94080408008537 kcal/mol)

>  <smiles>  (53) 
O=C(CSc1nc(=O)n(Cc2ccccc2)c2c1CCC2)c1ccc(N2CCOCC2)cc1

>  <score_type>  (53) 
oracle

>  <origin>  (53) 
adg

>  <m_score__min__energy>  (53) 
-10.08

>  <m_primary>  (53) 
energy

$$$$
53:0
     RDKit          3D

 43 45  0  0  0  0  0  0  0  0999 V2000
   55.1910   26.6170   45.9970 N   0  0  0  0  0  0  0  0  0  0  0  0
   56.5290   27.0180   45.7070 C   0  0  0  0  0  0  0  0  0  0  0  0
   57.4630   26.1810   45.8360 O   0  0  0  0  0  0  0  0  0  0  0  0
   56.8200   28.4010   45.2610 C   0  0  0  0  0  0  0  0  0  0  0  0
   58.0630   28.9970   45.5370 C   0  0  0  0  0  0  0  0  0  0  0  0
   58.3360   30.3000   45.1110 C   0  0  0  0  0  0  0  0  0  0  0  0
   57.3770   31.0230   44.3840 C   0  0  0  0  0  0  0  0  0  0  0  0
   57.6210   32.3700   43.9560 N   0  0  0  0  0  0  0  0  0  0  0  0
   57.9940   33.4730   44.7910 C   0  0  0  0  0  0  0  0  0  0  0  0
   57.4550   34.5940   44.5880 O   0  0  0  0  0  0  0  0  0  0  0  0
   59.1000   33.3600   45.8170 C   0  0  0  0  0  0  0  0  0  0  0  0
   58.5630   32.8180   47.1480 C   0  0  0  0  0  0  0  0  0  0  0  0
   59.7200   32.6290   48.1450 C   0  0  0  0  0  0  0  0  0  0  0  0
   60.6780   33.7620   48.1810 N   0  0  0  0  0  0  0  0  0  0  0  0
   62.2900   33.2850   47.6940 S   0  0  0  0  0  0  0  0  0  0  0  0
   62.8050   34.2070   46.6240 O   0  0  0  0  0  0  0  0  0  0  0  0
   62.2870   31.8780   47.1660 O   0  0  0  0  0  0  0  0  0  0  0  0
   63.3650   33.3800   49.0770 C   0  0  0  0  0  0  0  0  0  0  0  0
   64.6050   32.7720   49.1760 C   0  0  0  0  0  0  0  0  0  0  0  0
   65.2520   33.0470   50.3880 C   0  0  0  0  0  0  0  0  0  0  0  0
   64.5210   33.8710   51.2340 C   0  0  0  0  0  0  0  0  0  0  0  0
   63.0690   34.2600   50.4770 S   0  0  0  0  0  0  0  0  0  0  0  0
   60.2280   34.9790   47.4780 C   0  0  0  0  0  0  0  0  0  0  0  0
   59.8140   34.7190   46.0150 C   0  0  0  0  0  0  0  0  0  0  0  0
   56.1280   30.4470   44.1350 C   0  0  0  0  0  0  0  0  0  0  0  0
   55.8520   29.1430   44.5600 C   0  0  0  0  0  0  0  0  0  0  0  0
   54.6410   27.0890   46.7500 H   0  0  0  0  0  0  0  0  0  0  0  0
   58.8269   28.4334   46.0927 H   0  0  0  0  0  0  0  0  0  0  0  0
   59.3066   30.7610   45.3464 H   0  0  0  0  0  0  0  0  0  0  0  0
   59.8421   32.6424   45.4371 H   0  0  0  0  0  0  0  0  0  0  0  0
   57.8360   33.5306   47.5646 H   0  0  0  0  0  0  0  0  0  0  0  0
   58.0759   31.8475   46.9723 H   0  0  0  0  0  0  0  0  0  0  0  0
   59.2928   32.5054   49.1511 H   0  0  0  0  0  0  0  0  0  0  0  0
   60.2849   31.7455   47.8127 H   0  0  0  0  0  0  0  0  0  0  0  0
   65.0368   32.1396   48.3863 H   0  0  0  0  0  0  0  0  0  0  0  0
   66.2444   32.6482   50.6450 H   0  0  0  0  0  0  0  0  0  0  0  0
   64.8377   34.2119   52.2308 H   0  0  0  0  0  0  0  0  0  0  0  0
   59.3639   35.3946   48.0171 H   0  0  0  0  0  0  0  0  0  0  0  0
   61.0778   35.6772   47.4576 H   0  0  0  0  0  0  0  0  0  0  0  0
   59.1329   35.5218   45.6962 H   0  0  0  0  0  0  0  0  0  0  0  0
   60.7346   34.6959   45.4134 H   0  0  0  0  0  0  0  0  0  0  0  0
   55.3572   31.0226   43.6015 H   0  0  0  0  0  0  0  0  0  0  0  0
   54.8709   28.6946   44.3445 H   0  0  0  0  0  0  0  0  0  0  0  0
  1  2  1  0
  2  3  2  0
  2  4  1  0
  4  5  2  0
  5  6  1  0
  6  7  2  0
  7  8  1  0
  8  9  1  0
  9 10  2  0
  9 11  1  0
 11 12  1  0
 12 13  1  0
 13 14  1  0
 14 15  1  0
 15 16  2  0
 15 17  2  0
 15 18  1  0
 18 19  2  0
 19 20  1  0
 20 21  2  0
 21 22  1  0
 14 23  1  0
 23 24  1  0
  7 25  1  0
 25 26  2  0
 26  4  1  0
 24 11  1  0
 22 18  1  0
  1 27  1  0
  5 28  1  0
  6 29  1  0
 11 30  1  0
 12 31  1  0
 12 32  1  0
 13 33  1  0
 13 34  1  0
 19 35  1  0
 20 36  1  0
 21 37  1  0
 23 38  1  0
 23 39  1  0
 24 40  1  0
 24 41  1  0
 25 42  1  0
 26 43  1  0
M  CHG  2   1  -1   8  -1
M  END
>  <UniqueID>  (54) 
48

>  <SMILES>  (54) 
[NH-]C(=O)c1ccc([N-]C(=O)C2CCN(S(=O)(=O)c3cccs3)CC2)cc1

>  <Energy>  (54) 
83.4576079024043

>  <Genealogy>  (54) 
[NH-]C(=O)c1ccc([N-]C(=O)C2CCN(S(=O)(=O)c3cccs3)CC2)cc1 (protonated)
[NH-]C(=O)c1ccc([N-]C(=O)C2CCN(S(=O)(=O)c3cccs3)CC2)cc1 (3D coordinates assigned)
[NH-]C(=O)c1ccc([N-]C(=O)C2CCN(S(=O)(=O)c3cccs3)CC2)cc1 (nonaromatic ring conformer: 83.4576079024043 kcal/mol)

>  <smiles>  (54) 
NC(=O)c1ccc(NC(=O)C2CCN(S(=O)(=O)c3cccs3)CC2)cc1

>  <score_type>  (54) 
oracle

>  <origin>  (54) 
adg

>  <m_score__min__energy>  (54) 
-12.68

>  <m_primary>  (54) 
energy

$$$$
54:0
     RDKit          3D

 47 49  0  0  0  0  0  0  0  0999 V2000
   55.8190   26.3810   46.3460 O   0  0  0  0  0  0  0  0  0  0  0  0
   56.9680   26.8930   46.2740 C   0  0  0  0  0  0  0  0  0  0  0  0
   57.5250   27.2410   44.9200 C   0  0  0  0  0  0  0  0  0  0  0  0
   57.3460   28.7060   44.6230 C   0  0  0  0  0  0  0  0  0  0  0  0
   58.4230   29.4740   44.1520 C   0  0  0  0  0  0  0  0  0  0  0  0
   58.2480   30.8320   43.8790 C   0  0  0  0  0  0  0  0  0  0  0  0
   56.9930   31.4120   44.0750 C   0  0  0  0  0  0  0  0  0  0  0  0
   55.9570   30.6560   44.5270 N   0  0  0  0  0  0  0  0  0  0  0  0
   56.1030   29.3310   44.7990 C   0  0  0  0  0  0  0  0  0  0  0  0
   57.7120   27.0830   47.4860 N   0  0  0  0  0  0  0  0  0  0  0  0
   59.0190   27.7260   47.5980 C   0  0  0  0  0  0  0  0  0  0  0  0
   58.8810   29.1440   48.0860 C   0  0  0  0  0  0  0  0  0  0  0  0
   58.9930   30.2190   47.1890 C   0  0  0  0  0  0  0  0  0  0  0  0
   58.8510   31.5320   47.6420 C   0  0  0  0  0  0  0  0  0  0  0  0
   58.6110   31.7860   48.9940 C   0  0  0  0  0  0  0  0  0  0  0  0
   58.5310   30.7260   49.9100 C   0  0  0  0  0  0  0  0  0  0  0  0
   58.2330   30.9870   51.3610 C   0  0  0  0  0  0  0  0  0  0  0  0
   56.9110   31.5950   51.5120 N   0  0  0  0  0  0  0  0  0  0  0  0
   55.7770   30.8340   51.9370 C   0  0  0  0  0  0  0  0  0  0  0  0
   55.9100   29.6200   52.2550 O   0  0  0  0  0  0  0  0  0  0  0  0
   54.4920   31.4590   51.9910 N   0  0  0  0  0  0  0  0  0  0  0  0
   53.3650   31.0550   51.1600 C   0  0  0  0  0  0  0  0  0  0  0  0
   52.0820   31.5420   51.7560 C   0  0  0  0  0  0  0  0  0  0  0  0
   51.5170   31.1080   52.9340 C   0  0  0  0  0  0  0  0  0  0  0  0
   50.3740   31.8670   53.0530 C   0  0  0  0  0  0  0  0  0  0  0  0
   50.2780   32.7050   52.0030 N   0  0  0  0  0  0  0  0  0  0  0  0
   51.3220   32.5100   51.2130 N   0  0  0  0  0  0  0  0  0  0  0  0
   58.6690   29.4060   49.4500 C   0  0  0  0  0  0  0  0  0  0  0  0
   58.5977   26.9982   44.8991 H   0  0  0  0  0  0  0  0  0  0  0  0
   56.9835   26.6604   44.1586 H   0  0  0  0  0  0  0  0  0  0  0  0
   59.4060   29.0051   43.9979 H   0  0  0  0  0  0  0  0  0  0  0  0
   59.0897   31.4385   43.5134 H   0  0  0  0  0  0  0  0  0  0  0  0
   56.8423   32.4809   43.8637 H   0  0  0  0  0  0  0  0  0  0  0  0
   55.2425   28.7475   45.1584 H   0  0  0  0  0  0  0  0  0  0  0  0
   59.6392   27.1596   48.3083 H   0  0  0  0  0  0  0  0  0  0  0  0
   59.4893   27.7410   46.6037 H   0  0  0  0  0  0  0  0  0  0  0  0
   59.1935   30.0256   46.1249 H   0  0  0  0  0  0  0  0  0  0  0  0
   58.9284   32.3686   46.9320 H   0  0  0  0  0  0  0  0  0  0  0  0
   58.4841   32.8216   49.3425 H   0  0  0  0  0  0  0  0  0  0  0  0
   58.2589   30.0356   51.9125 H   0  0  0  0  0  0  0  0  0  0  0  0
   58.9898   31.6781   51.7606 H   0  0  0  0  0  0  0  0  0  0  0  0
   56.7700   32.6080   51.2890 H   0  0  0  0  0  0  0  0  0  0  0  0
   53.4837   31.4833   50.1538 H   0  0  0  0  0  0  0  0  0  0  0  0
   53.3388   29.9569   51.1004 H   0  0  0  0  0  0  0  0  0  0  0  0
   51.8915   30.3346   53.6207 H   0  0  0  0  0  0  0  0  0  0  0  0
   49.6505   31.7992   53.8788 H   0  0  0  0  0  0  0  0  0  0  0  0
   58.6106   28.5707   50.1634 H   0  0  0  0  0  0  0  0  0  0  0  0
  1  2  2  0
  2  3  1  0
  3  4  1  0
  4  5  2  0
  5  6  1  0
  6  7  2  0
  7  8  1  0
  8  9  2  0
  2 10  1  0
 10 11  1  0
 11 12  1  0
 12 13  2  0
 13 14  1  0
 14 15  2  0
 15 16  1  0
 16 17  1  0
 17 18  1  0
 18 19  1  0
 19 20  2  0
 19 21  1  0
 21 22  1  0
 22 23  1  0
 23 24  1  0
 24 25  2  0
 25 26  1  0
 26 27  1  0
 16 28  2  0
  9  4  1  0
 28 12  1  0
 27 23  2  0
  3 29  1  0
  3 30  1  0
  5 31  1  0
  6 32  1  0
  7 33  1  0
  9 34  1  0
 11 35  1  0
 11 36  1  0
 13 37  1  0
 14 38  1  0
 15 39  1  0
 17 40  1  0
 17 41  1  0
 18 42  1  0
 22 43  1  0
 22 44  1  0
 24 45  1  0
 25 46  1  0
 28 47  1  0
M  CHG  3  10  -1  21  -1  26  -1
M  END
>  <UniqueID>  (55) 
49

>  <SMILES>  (55) 
O=C(Cc1cccnc1)[N-]Cc1cccc(CNC(=O)[N-]Cc2cc[n-]n2)c1

>  <Energy>  (55) 
70.1975219621583

>  <Genealogy>  (55) 
O=C(Cc1cccnc1)[N-]Cc1cccc(CNC(=O)[N-]Cc2cc[n-]n2)c1 (protonated)
O=C(Cc1cccnc1)[N-]Cc1cccc(CNC(=O)[N-]Cc2cc[n-]n2)c1 (3D coordinates assigned)
O=C(Cc1cccnc1)[N-]Cc1cccc(CNC(=O)[N-]Cc2cc[n-]n2)c1 (optimized conformer: 70.1975219621583 kcal/mol)

>  <smiles>  (55) 
O=C(Cc1cccnc1)NCc1cccc(CNC(=O)NCc2cc[nH]n2)c1

>  <score_type>  (55) 
oracle

>  <origin>  (55) 
adg

>  <m_score__min__energy>  (55) 
-14.56

>  <m_primary>  (55) 
energy

$$$$
55:0
     RDKit          3D

 60 63  0  0  0  0  0  0  0  0999 V2000
   59.6320   27.8540   48.7410 C   0  0  0  0  0  0  0  0  0  0  0  0
   59.4260   28.8630   47.8810 C   0  0  0  0  0  0  0  0  0  0  0  0
   58.7420   28.7900   46.6590 C   0  0  0  0  0  0  0  0  0  0  0  0
   58.3810   27.7290   45.9080 C   0  0  0  0  0  0  0  0  0  0  0  0
   57.1630   26.9220   46.0910 C   0  0  0  0  0  0  0  0  0  0  0  0
   57.1430   25.6260   46.4550 N   0  0  0  0  0  0  0  0  0  0  0  0
   55.8440   25.2840   46.3300 C   0  0  0  0  0  0  0  0  0  0  0  0
   55.4190   24.1300   46.5970 O   0  0  0  0  0  0  0  0  0  0  0  0
   55.0400   26.2710   45.8790 N   0  0  0  0  0  0  0  0  0  0  0  0
   55.8940   27.2940   45.7190 C   0  0  0  0  0  0  0  0  0  0  0  0
   55.5230   28.5390   45.2260 O   0  0  0  0  0  0  0  0  0  0  0  0
   58.5090   30.0940   46.2670 C   0  0  0  0  0  0  0  0  0  0  0  0
   59.1310   30.9070   47.1890 C   0  0  0  0  0  0  0  0  0  0  0  0
   59.1450   32.3800   47.0840 C   0  0  0  0  0  0  0  0  0  0  0  0
   58.1180   33.0020   46.7060 O   0  0  0  0  0  0  0  0  0  0  0  0
   60.3110   33.1160   47.4720 N   0  0  0  0  0  0  0  0  0  0  0  0
   60.2780   33.8990   48.7120 C   0  0  0  0  0  0  0  0  0  0  0  0
   61.6270   34.5850   48.9780 C   0  0  0  0  0  0  0  0  0  0  0  0
   62.8350   33.6210   48.8420 C   0  0  0  0  0  0  0  0  0  0  0  0
   63.1250   32.9440   50.1710 C   0  0  0  0  0  0  0  0  0  0  0  0
   62.1940   32.8600   51.0190 O   0  0  0  0  0  0  0  0  0  0  0  0
   64.4400   32.4480   50.5150 N   0  0  0  0  0  0  0  0  0  0  0  0
   65.6110   32.7360   49.6800 C   0  0  0  0  0  0  0  0  0  0  0  0
   64.6040   31.6860   51.7560 C   0  0  0  0  0  0  0  0  0  0  0  0
   62.6770   32.5760   47.7000 C   0  0  0  0  0  0  0  0  0  0  0  0
   61.5620   32.9500   46.7270 C   0  0  0  0  0  0  0  0  0  0  0  0
   59.7000   30.1640   48.1710 N   0  0  0  0  0  0  0  0  0  0  0  0
   60.3150   30.6740   49.4100 C   0  0  0  0  0  0  0  0  0  0  0  0
   59.2960   31.0150   50.4760 C   0  0  0  0  0  0  0  0  0  0  0  0
   58.2390   30.1480   50.8200 C   0  0  0  0  0  0  0  0  0  0  0  0
   57.2980   30.5270   51.7810 C   0  0  0  0  0  0  0  0  0  0  0  0
   57.3920   31.7730   52.4030 C   0  0  0  0  0  0  0  0  0  0  0  0
   58.4280   32.6450   52.0630 C   0  0  0  0  0  0  0  0  0  0  0  0
   59.3740   32.2710   51.1040 C   0  0  0  0  0  0  0  0  0  0  0  0
   60.1861   28.0315   49.6745 H   0  0  0  0  0  0  0  0  0  0  0  0
   59.2468   26.8493   48.5126 H   0  0  0  0  0  0  0  0  0  0  0  0
   59.0552   27.4418   45.0876 H   0  0  0  0  0  0  0  0  0  0  0  0
   57.9361   30.4208   45.3867 H   0  0  0  0  0  0  0  0  0  0  0  0
   59.4957   34.6679   48.6291 H   0  0  0  0  0  0  0  0  0  0  0  0
   60.0665   33.2155   49.5475 H   0  0  0  0  0  0  0  0  0  0  0  0
   61.7509   35.4061   48.2566 H   0  0  0  0  0  0  0  0  0  0  0  0
   61.6119   34.9489   50.0160 H   0  0  0  0  0  0  0  0  0  0  0  0
   63.6973   34.2413   48.5563 H   0  0  0  0  0  0  0  0  0  0  0  0
   66.4770   32.9490   50.3239 H   0  0  0  0  0  0  0  0  0  0  0  0
   65.8316   31.8653   49.0449 H   0  0  0  0  0  0  0  0  0  0  0  0
   65.4026   33.6096   49.0449 H   0  0  0  0  0  0  0  0  0  0  0  0
   64.4602   32.3539   52.6181 H   0  0  0  0  0  0  0  0  0  0  0  0
   63.8594   30.8771   51.7907 H   0  0  0  0  0  0  0  0  0  0  0  0
   65.6155   31.2550   51.7907 H   0  0  0  0  0  0  0  0  0  0  0  0
   63.6246   32.5115   47.1451 H   0  0  0  0  0  0  0  0  0  0  0  0
   62.4155   31.6111   48.1588 H   0  0  0  0  0  0  0  0  0  0  0  0
   61.8165   33.8923   46.2198 H   0  0  0  0  0  0  0  0  0  0  0  0
   61.4434   32.1550   45.9761 H   0  0  0  0  0  0  0  0  0  0  0  0
   60.9944   29.9053   49.8069 H   0  0  0  0  0  0  0  0  0  0  0  0
   60.8498   31.6010   49.1558 H   0  0  0  0  0  0  0  0  0  0  0  0
   58.1545   29.1673   50.3290 H   0  0  0  0  0  0  0  0  0  0  0  0
   56.4805   29.8412   52.0482 H   0  0  0  0  0  0  0  0  0  0  0  0
   56.6506   32.0676   53.1603 H   0  0  0  0  0  0  0  0  0  0  0  0
   58.5001   33.6283   52.5507 H   0  0  0  0  0  0  0  0  0  0  0  0
   60.1856   32.9644   50.8386 H   0  0  0  0  0  0  0  0  0  0  0  0
  1  2  2  0
  2  3  1  0
  3  4  2  3
  4  5  1  0
  5  6  1  0
  6  7  1  0
  7  8  2  0
  7  9  1  0
  9 10  1  0
 10 11  1  0
  3 12  1  0
 12 13  2  0
 13 14  1  0
 14 15  2  0
 14 16  1  0
 16 17  1  0
 17 18  1  0
 18 19  1  0
 19 20  1  0
 20 21  2  0
 20 22  1  0
 22 23  1  0
 22 24  1  0
 19 25  1  0
 25 26  1  0
 13 27  1  0
 27 28  1  0
 28 29  1  0
 29 30  2  0
 30 31  1  0
 31 32  2  0
 32 33  1  0
 33 34  2  0
 27  2  1  0
 34 29  1  0
 10  5  2  0
 26 16  1  0
  1 35  1  0
  1 36  1  0
  4 37  1  0
 12 38  1  0
 17 39  1  0
 17 40  1  0
 18 41  1  0
 18 42  1  0
 19 43  1  0
 23 44  1  0
 23 45  1  0
 23 46  1  0
 24 47  1  0
 24 48  1  0
 24 49  1  0
 25 50  1  0
 25 51  1  0
 26 52  1  0
 26 53  1  0
 28 54  1  0
 28 55  1  0
 30 56  1  0
 31 57  1  0
 32 58  1  0
 33 59  1  0
 34 60  1  0
M  CHG  3   6  -1   9  -1  11  -1
M  END
>  <UniqueID>  (56) 
50

>  <SMILES>  (56) 
C=c1c(=Cc2[n-]c(=O)[n-]c2[O-])cc(C(=O)N2CCC(C(=O)N(C)C)CC2)n1Cc1ccccc1

>  <Energy>  (56) 
142.14800417284175

>  <Genealogy>  (56) 
C=c1c(=Cc2[n-]c(=O)[n-]c2[O-])cc(C(=O)N2CCC(C(=O)N(C)C)CC2)n1Cc1ccccc1 (protonated)
C=c1c(=Cc2[n-]c(=O)[n-]c2[O-])cc(C(=O)N2CCC(C(=O)N(C)C)CC2)n1Cc1ccccc1 (3D coordinates assigned)
C=c1c(=Cc2[n-]c(=O)[n-]c2[O-])cc(C(=O)N2CCC(C(=O)N(C)C)CC2)n1Cc1ccccc1 (nonaromatic ring conformer: 142.14800417284175 kcal/mol)

>  <smiles>  (56) 
C=c1c(=Cc2[nH]c(=O)[nH]c2O)cc(C(=O)N2CCC(C(=O)N(C)C)CC2)n1Cc1ccccc1

>  <score_type>  (56) 
oracle

>  <origin>  (56) 
adg

>  <m_score__min__energy>  (56) 
-16.390000000000001

>  <m_primary>  (56) 
energy

$$$$
56:0
     RDKit          3D

 60 63  0  0  0  0  0  0  0  0999 V2000
   54.7020   31.5030   52.0120 C   0  0  0  0  0  0  0  0  0  0  0  0
   54.4810   30.2800   52.5220 C   0  0  0  0  0  0  0  0  0  0  0  0
   55.4320   29.4730   53.1550 C   0  0  0  0  0  0  0  0  0  0  0  0
   56.7180   29.7770   53.4200 C   0  0  0  0  0  0  0  0  0  0  0  0
   57.7800   29.8220   52.3980 C   0  0  0  0  0  0  0  0  0  0  0  0
   58.7280   28.8720   52.2630 N   0  0  0  0  0  0  0  0  0  0  0  0
   59.5490   29.3300   51.2970 C   0  0  0  0  0  0  0  0  0  0  0  0
   60.5580   28.6950   50.8910 O   0  0  0  0  0  0  0  0  0  0  0  0
   59.1790   30.5390   50.8200 N   0  0  0  0  0  0  0  0  0  0  0  0
   59.8630   31.3640   49.8240 C   0  0  0  0  0  0  0  0  0  0  0  0
   59.2710   31.1320   48.4550 C   0  0  0  0  0  0  0  0  0  0  0  0
   59.2260   29.8290   47.9290 C   0  0  0  0  0  0  0  0  0  0  0  0
   58.6630   29.5920   46.6740 C   0  0  0  0  0  0  0  0  0  0  0  0
   58.1350   30.6490   45.9340 C   0  0  0  0  0  0  0  0  0  0  0  0
   58.1640   31.9480   46.4480 C   0  0  0  0  0  0  0  0  0  0  0  0
   58.7310   32.2040   47.7120 C   0  0  0  0  0  0  0  0  0  0  0  0
   58.7750   33.4970   48.2600 O   0  0  0  0  0  0  0  0  0  0  0  0
   59.6340   34.5530   47.8300 C   0  0  0  0  0  0  0  0  0  0  0  0
   61.0790   34.1210   47.8760 C   0  0  0  0  0  0  0  0  0  0  0  0
   61.7580   33.8340   46.6800 C   0  0  0  0  0  0  0  0  0  0  0  0
   63.0930   33.4210   46.7070 C   0  0  0  0  0  0  0  0  0  0  0  0
   63.7580   33.2790   47.9280 C   0  0  0  0  0  0  0  0  0  0  0  0
   63.0860   33.5460   49.1240 C   0  0  0  0  0  0  0  0  0  0  0  0
   61.7500   33.9600   49.1040 C   0  0  0  0  0  0  0  0  0  0  0  0
   61.1170   34.2040   50.2800 F   0  0  0  0  0  0  0  0  0  0  0  0
   58.0770   30.8560   51.5280 C   0  0  0  0  0  0  0  0  0  0  0  0
   57.3970   32.0640   51.4220 O   0  0  0  0  0  0  0  0  0  0  0  0
   54.7760   28.3040   53.5110 C   0  0  0  0  0  0  0  0  0  0  0  0
   53.4710   28.4370   53.0880 C   0  0  0  0  0  0  0  0  0  0  0  0
   52.4210   27.3760   53.2430 C   0  0  0  0  0  0  0  0  0  0  0  0
   53.2850   29.6320   52.4790 N   0  0  0  0  0  0  0  0  0  0  0  0
   52.0080   30.1200   51.9300 C   0  0  0  0  0  0  0  0  0  0  0  0
   51.4480   31.2840   52.7570 C   0  0  0  0  0  0  0  0  0  0  0  0
   50.9480   32.3970   51.8910 C   0  0  0  0  0  0  0  0  0  0  0  0
   50.4240   33.4170   52.4110 O   0  0  0  0  0  0  0  0  0  0  0  0
   51.0250   32.2910   50.5080 O   0  0  0  0  0  0  0  0  0  0  0  0
   53.8806   32.0556   51.5325 H   0  0  0  0  0  0  0  0  0  0  0  0
   55.7044   31.9518   52.0739 H   0  0  0  0  0  0  0  0  0  0  0  0
   56.9917   30.0051   54.4607 H   0  0  0  0  0  0  0  0  0  0  0  0
   58.8120   27.9780   52.7960 H   0  0  0  0  0  0  0  0  0  0  0  0
   59.7509   32.4248   50.0927 H   0  0  0  0  0  0  0  0  0  0  0  0
   60.9283   31.0907   49.8039 H   0  0  0  0  0  0  0  0  0  0  0  0
   59.6373   28.9906   48.5104 H   0  0  0  0  0  0  0  0  0  0  0  0
   58.6359   28.5699   46.2683 H   0  0  0  0  0  0  0  0  0  0  0  0
   57.6948   30.4600   44.9438 H   0  0  0  0  0  0  0  0  0  0  0  0
   57.7410   32.7768   45.8614 H   0  0  0  0  0  0  0  0  0  0  0  0
   59.3737   34.8321   46.7983 H   0  0  0  0  0  0  0  0  0  0  0  0
   59.5013   35.4120   48.5042 H   0  0  0  0  0  0  0  0  0  0  0  0
   61.2361   33.9349   45.7170 H   0  0  0  0  0  0  0  0  0  0  0  0
   63.6210   33.2074   45.7659 H   0  0  0  0  0  0  0  0  0  0  0  0
   64.8097   32.9573   47.9477 H   0  0  0  0  0  0  0  0  0  0  0  0
   63.6095   33.4302   50.0845 H   0  0  0  0  0  0  0  0  0  0  0  0
   55.2127   27.4383   54.0304 H   0  0  0  0  0  0  0  0  0  0  0  0
   52.2398   27.1929   54.3124 H   0  0  0  0  0  0  0  0  0  0  0  0
   51.4884   27.7105   52.7651 H   0  0  0  0  0  0  0  0  0  0  0  0
   52.7652   26.4469   52.7651 H   0  0  0  0  0  0  0  0  0  0  0  0
   52.1703   30.4613   50.8970 H   0  0  0  0  0  0  0  0  0  0  0  0
   51.2816   29.2945   51.9605 H   0  0  0  0  0  0  0  0  0  0  0  0
   50.6165   30.9133   53.3744 H   0  0  0  0  0  0  0  0  0  0  0  0
   52.2622   31.6793   53.3822 H   0  0  0  0  0  0  0  0  0  0  0  0
  1  2  2  0
  2  3  1  0
  3  4  2  3
  4  5  1  0
  5  6  1  0
  6  7  1  0
  7  8  2  0
  7  9  1  0
  9 10  1  0
 10 11  1  0
 11 12  2  0
 12 13  1  0
 13 14  2  0
 14 15  1  0
 15 16  2  0
 16 17  1  0
 17 18  1  0
 18 19  1  0
 19 20  2  0
 20 21  1  0
 21 22  2  0
 22 23  1  0
 23 24  2  0
 24 25  1  0
  9 26  1  0
 26 27  1  0
  3 28  1  0
 28 29  2  0
 29 30  1  0
 29 31  1  0
 31 32  1  0
 32 33  1  0
 33 34  1  0
 34 35  2  0
 34 36  1  0
 31  2  1  0
 26  5  2  0
 16 11  1  0
 24 19  1  0
  1 37  1  0
  1 38  1  0
  4 39  1  0
  6 40  1  0
 10 41  1  0
 10 42  1  0
 12 43  1  0
 13 44  1  0
 14 45  1  0
 15 46  1  0
 18 47  1  0
 18 48  1  0
 20 49  1  0
 21 50  1  0
 22 51  1  0
 23 52  1  0
 28 53  1  0
 30 54  1  0
 30 55  1  0
 30 56  1  0
 32 57  1  0
 32 58  1  0
 33 59  1  0
 33 60  1  0
M  CHG  2  27  -1  36  -1
M  END
>  <UniqueID>  (57) 
51

>  <SMILES>  (57) 
C=c1c(=Cc2[nH]c(=O)n(Cc3ccccc3OCc3ccccc3F)c2[O-])cc(C)n1CCC(=O)[O-]

>  <Energy>  (57) 
129.10067104391553

>  <Genealogy>  (57) 
C=c1c(=Cc2[nH]c(=O)n(Cc3ccccc3OCc3ccccc3F)c2[O-])cc(C)n1CCC(=O)[O-] (protonated)
C=c1c(=Cc2[nH]c(=O)n(Cc3ccccc3OCc3ccccc3F)c2[O-])cc(C)n1CCC(=O)[O-] (3D coordinates assigned)
C=c1c(=Cc2[nH]c(=O)n(Cc3ccccc3OCc3ccccc3F)c2[O-])cc(C)n1CCC(=O)[O-] (optimized conformer: 129.10067104391553 kcal/mol)

>  <smiles>  (57) 
C=c1c(=Cc2[nH]c(=O)n(Cc3ccccc3OCc3ccccc3F)c2O)cc(C)n1CCC(=O)O

>  <score_type>  (57) 
oracle

>  <origin>  (57) 
adg

>  <m_score__min__energy>  (57) 
-13.140000000000001

>  <m_primary>  (57) 
energy

$$$$
57:0
     RDKit          3D

 53 55  0  0  0  0  0  0  0  0999 V2000
   51.0270   32.3720   49.7410 N   0  0  0  0  0  0  0  0  0  0  0  0
   51.7930   32.0380   50.8950 C   0  0  0  0  0  0  0  0  0  0  0  0
   51.6590   32.7080   51.9530 O   0  0  0  0  0  0  0  0  0  0  0  0
   52.7670   30.9050   50.8410 C   0  0  0  0  0  0  0  0  0  0  0  0
   53.8870   31.1630   51.7370 N   0  0  0  0  0  0  0  0  0  0  0  0
   54.6540   30.1090   52.3370 C   0  0  0  0  0  0  0  0  0  0  0  0
   54.3910   28.9060   52.0710 O   0  0  0  0  0  0  0  0  0  0  0  0
   55.7570   30.4290   53.2650 C   0  0  0  0  0  0  0  0  0  0  0  0
   55.6870   29.9660   54.5880 C   0  0  0  0  0  0  0  0  0  0  0  0
   56.7180   30.2360   55.4890 C   0  0  0  0  0  0  0  0  0  0  0  0
   57.8320   30.9690   55.0790 C   0  0  0  0  0  0  0  0  0  0  0  0
   57.9110   31.4460   53.7690 C   0  0  0  0  0  0  0  0  0  0  0  0
   56.8780   31.1910   52.8590 C   0  0  0  0  0  0  0  0  0  0  0  0
   56.9900   31.9220   51.2170 S   0  0  0  0  0  0  0  0  0  0  0  0
   58.7000   31.4240   51.0180 C   0  0  0  0  0  0  0  0  0  0  0  0
   59.0340   30.3770   50.1530 C   0  0  0  0  0  0  0  0  0  0  0  0
   60.3760   30.0310   49.9630 C   0  0  0  0  0  0  0  0  0  0  0  0
   60.6580   29.0950   49.1030 N   0  0  0  0  0  0  0  0  0  0  0  0
   60.8890   27.6810   49.3940 C   0  0  0  0  0  0  0  0  0  0  0  0
   60.5300   26.8250   48.1780 C   0  0  0  0  0  0  0  0  0  0  0  0
   59.6070   27.5500   47.2340 C   0  0  0  0  0  0  0  0  0  0  0  0
   58.2720   27.1430   47.0910 C   0  0  0  0  0  0  0  0  0  0  0  0
   57.4090   27.8400   46.2380 C   0  0  0  0  0  0  0  0  0  0  0  0
   57.8690   28.9570   45.5290 C   0  0  0  0  0  0  0  0  0  0  0  0
   56.7690   29.8320   44.4720 S   0  0  0  0  0  0  0  0  0  0  0  0
   55.1460   29.3410   44.8010 N   0  0  0  0  0  0  0  0  0  0  0  0
   56.8940   31.3130   44.6980 O   0  0  0  0  0  0  0  0  0  0  0  0
   57.1070   29.5290   43.0400 O   0  0  0  0  0  0  0  0  0  0  0  0
   59.1970   29.3780   45.6860 C   0  0  0  0  0  0  0  0  0  0  0  0
   60.0610   28.6760   46.5310 C   0  0  0  0  0  0  0  0  0  0  0  0
   61.3650   30.7170   50.6960 C   0  0  0  0  0  0  0  0  0  0  0  0
   60.9870   31.7420   51.5650 C   0  0  0  0  0  0  0  0  0  0  0  0
   59.6780   32.0790   51.6980 N   0  0  0  0  0  0  0  0  0  0  0  0
   51.4260   32.9780   48.9900 H   0  0  0  0  0  0  0  0  0  0  0  0
   52.2625   29.9768   51.1475 H   0  0  0  0  0  0  0  0  0  0  0  0
   53.1448   30.8043   49.8128 H   0  0  0  0  0  0  0  0  0  0  0  0
   54.1740   32.1540   51.8940 H   0  0  0  0  0  0  0  0  0  0  0  0
   54.8125   29.3857   54.9174 H   0  0  0  0  0  0  0  0  0  0  0  0
   56.6522   29.8702   56.5243 H   0  0  0  0  0  0  0  0  0  0  0  0
   58.6484   31.1713   55.7879 H   0  0  0  0  0  0  0  0  0  0  0  0
   58.7899   32.0255   53.4502 H   0  0  0  0  0  0  0  0  0  0  0  0
   58.2428   29.8265   49.6230 H   0  0  0  0  0  0  0  0  0  0  0  0
   61.9495   27.5302   49.6440 H   0  0  0  0  0  0  0  0  0  0  0  0
   60.2564   27.3816   50.2426 H   0  0  0  0  0  0  0  0  0  0  0  0
   61.4541   26.5639   47.6415 H   0  0  0  0  0  0  0  0  0  0  0  0
   60.0117   25.9235   48.5366 H   0  0  0  0  0  0  0  0  0  0  0  0
   57.9020   26.2721   47.6519 H   0  0  0  0  0  0  0  0  0  0  0  0
   56.3660   27.5096   46.1239 H   0  0  0  0  0  0  0  0  0  0  0  0
   54.6710   30.1540   45.2520 H   0  0  0  0  0  0  0  0  0  0  0  0
   59.5598   30.2630   45.1428 H   0  0  0  0  0  0  0  0  0  0  0  0
   61.1033   29.0084   46.6455 H   0  0  0  0  0  0  0  0  0  0  0  0
   62.4255   30.4471   50.5844 H   0  0  0  0  0  0  0  0  0  0  0  0
   61.7524   32.2790   52.1444 H   0  0  0  0  0  0  0  0  0  0  0  0
  1  2  1  0
  2  3  2  0
  2  4  1  0
  4  5  1  0
  5  6  1  0
  6  7  2  0
  6  8  1  0
  8  9  2  0
  9 10  1  0
 10 11  2  0
 11 12  1  0
 12 13  2  0
 13 14  1  0
 14 15  1  0
 15 16  2  0
 16 17  1  0
 17 18  2  3
 18 19  1  0
 19 20  1  0
 20 21  1  0
 21 22  2  0
 22 23  1  0
 23 24  2  0
 24 25  1  0
 25 26  1  0
 25 27  2  0
 25 28  2  0
 24 29  1  0
 29 30  2  0
 17 31  1  0
 31 32  2  0
 32 33  1  0
 13  8  1  0
 33 15  1  0
 30 21  1  0
  1 34  1  0
  4 35  1  0
  4 36  1  0
  5 37  1  0
  9 38  1  0
 10 39  1  0
 11 40  1  0
 12 41  1  0
 16 42  1  0
 19 43  1  0
 19 44  1  0
 20 45  1  0
 20 46  1  0
 22 47  1  0
 23 48  1  0
 26 49  1  0
 29 50  1  0
 30 51  1  0
 31 52  1  0
 32 53  1  0
M  CHG  3   1  -1  26  -1  33  -1
M  END
>  <UniqueID>  (58) 
52

>  <SMILES>  (58) 
[NH-]C(=O)CNC(=O)c1ccccc1Sc1cc(=NCCc2ccc(S([NH-])(=O)=O)cc2)cc[n-]1

>  <Energy>  (58) 
50.00195941541153

>  <Genealogy>  (58) 
[NH-]C(=O)CNC(=O)c1ccccc1Sc1cc(=NCCc2ccc(S([NH-])(=O)=O)cc2)cc[n-]1 (protonated)
[NH-]C(=O)CNC(=O)c1ccccc1Sc1cc(=NCCc2ccc(S([NH-])(=O)=O)cc2)cc[n-]1 (3D coordinates assigned)
[NH-]C(=O)CNC(=O)c1ccccc1Sc1cc(=NCCc2ccc(S([NH-])(=O)=O)cc2)cc[n-]1 (optimized conformer: 50.00195941541153 kcal/mol)

>  <smiles>  (58) 
NC(=O)CNC(=O)c1ccccc1Sc1cc(=NCCc2ccc(S(N)(=O)=O)cc2)cc[nH]1

>  <score_type>  (58) 
oracle

>  <origin>  (58) 
adg

>  <m_score__min__energy>  (58) 
-15.859999999999999

>  <m_primary>  (58) 
energy

$$$$
58:0
     RDKit          3D

 52 55  0  0  0  0  0  0  0  0999 V2000
   58.1389   31.8664   44.6503 H   0  0  0  0  0  0  0  0  0  0  0  0
   58.1640   30.8130   44.9660 C   0  0  0  0  0  0  0  0  0  0  0  0
   58.0467   30.0125   44.2207 H   0  0  0  0  0  0  0  0  0  0  0  0
   58.3380   30.5040   46.2620 C   0  0  0  0  0  0  0  0  0  0  0  0
   58.3910   29.2150   46.8090 C   0  0  0  0  0  0  0  0  0  0  0  0
   58.3370   28.0460   46.1340 C   0  0  0  0  0  0  0  0  0  0  0  0
   59.2210   27.7665   45.5420 H   0  0  0  0  0  0  0  0  0  0  0  0
   57.1920   27.1090   46.1220 C   0  0  0  0  0  0  0  0  0  0  0  0
   57.1960   25.8490   46.5920 N   0  0  0  0  0  0  0  0  0  0  0  0
   55.9270   25.4320   46.3940 C   0  0  0  0  0  0  0  0  0  0  0  0
   55.5350   24.2790   46.7090 O   0  0  0  0  0  0  0  0  0  0  0  0
   55.1110   26.3500   45.8340 N   0  0  0  0  0  0  0  0  0  0  0  0
   55.9260   27.4040   45.6720 C   0  0  0  0  0  0  0  0  0  0  0  0
   55.5200   28.6160   45.1240 O   0  0  0  0  0  0  0  0  0  0  0  0
   58.5490   29.3870   48.1790 C   0  0  0  0  0  0  0  0  0  0  0  0
   58.6138   28.5916   48.9361 H   0  0  0  0  0  0  0  0  0  0  0  0
   58.6090   30.7470   48.4080 C   0  0  0  0  0  0  0  0  0  0  0  0
   58.7880   31.3790   49.7300 C   0  0  0  0  0  0  0  0  0  0  0  0
   57.8810   32.1440   50.1570 O   0  0  0  0  0  0  0  0  0  0  0  0
   60.0030   31.2130   50.4920 N   0  0  0  0  0  0  0  0  0  0  0  0
   60.8120   29.9920   50.3820 C   0  0  0  0  0  0  0  0  0  0  0  0
   60.2640   29.1584   50.8455 H   0  0  0  0  0  0  0  0  0  0  0  0
   60.9964   29.7981   49.3150 H   0  0  0  0  0  0  0  0  0  0  0  0
   62.1720   30.1450   51.0830 C   0  0  0  0  0  0  0  0  0  0  0  0
   62.0241   30.0402   52.1680 H   0  0  0  0  0  0  0  0  0  0  0  0
   62.8415   29.3653   50.6907 H   0  0  0  0  0  0  0  0  0  0  0  0
   62.8010   31.4590   50.8130 N   0  0  0  0  0  0  0  0  0  0  0  0
   63.7320   31.4980   49.6600 C   0  0  0  0  0  0  0  0  0  0  0  0
   64.6803   31.9435   49.9951 H   0  0  0  0  0  0  0  0  0  0  0  0
   63.8532   30.4618   49.3113 H   0  0  0  0  0  0  0  0  0  0  0  0
   63.2160   32.3020   48.4830 C   0  0  0  0  0  0  0  0  0  0  0  0
   63.8950   33.4510   48.0390 C   0  0  0  0  0  0  0  0  0  0  0  0
   64.8337   33.7545   48.5256 H   0  0  0  0  0  0  0  0  0  0  0  0
   63.3820   34.2100   46.9810 C   0  0  0  0  0  0  0  0  0  0  0  0
   63.9168   35.1090   46.6407 H   0  0  0  0  0  0  0  0  0  0  0  0
   62.1940   33.8290   46.3570 C   0  0  0  0  0  0  0  0  0  0  0  0
   61.7844   34.4374   45.5372 H   0  0  0  0  0  0  0  0  0  0  0  0
   61.5240   32.6760   46.7720 C   0  0  0  0  0  0  0  0  0  0  0  0
   60.5920   32.3718   46.2731 H   0  0  0  0  0  0  0  0  0  0  0  0
   62.0380   31.9080   47.8220 C   0  0  0  0  0  0  0  0  0  0  0  0
   61.5179   30.9900   48.1330 H   0  0  0  0  0  0  0  0  0  0  0  0
   61.9250   32.6490   50.9490 C   0  0  0  0  0  0  0  0  0  0  0  0
   62.3503   33.3099   51.7187 H   0  0  0  0  0  0  0  0  0  0  0  0
   61.8809   33.1363   49.9638 H   0  0  0  0  0  0  0  0  0  0  0  0
   60.4880   32.2990   51.3480 C   0  0  0  0  0  0  0  0  0  0  0  0
   60.4659   31.9769   52.3996 H   0  0  0  0  0  0  0  0  0  0  0  0
   59.8441   33.1825   51.2259 H   0  0  0  0  0  0  0  0  0  0  0  0
   58.4810   31.4270   47.2450 N   0  0  0  0  0  0  0  0  0  0  0  0
   58.4910   32.8860   47.0860 C   0  0  0  0  0  0  0  0  0  0  0  0
   58.4943   33.3628   48.0773 H   0  0  0  0  0  0  0  0  0  0  0  0
   59.3912   33.1882   46.5308 H   0  0  0  0  0  0  0  0  0  0  0  0
   57.5950   33.2005   46.5308 H   0  0  0  0  0  0  0  0  0  0  0  0
  1  2  1  0
  2  3  1  0
  2  4  2  0
  4  5  1  0
  5  6  2  0
  6  7  1  0
  6  8  1  0
  8  9  1  0
  9 10  1  0
 10 11  2  0
 10 12  1  0
 12 13  1  0
 13 14  1  0
  5 15  1  0
 15 16  1  0
 15 17  2  0
 17 18  1  0
 18 19  2  0
 18 20  1  0
 20 21  1  0
 21 22  1  0
 21 23  1  0
 21 24  1  0
 24 25  1  0
 24 26  1  0
 24 27  1  0
 27 28  1  0
 28 29  1  0
 28 30  1  0
 28 31  1  0
 31 32  2  0
 32 33  1  0
 32 34  1  0
 34 35  1  0
 34 36  2  0
 36 37  1  0
 36 38  1  0
 38 39  1  0
 38 40  2  0
 40 41  1  0
 27 42  1  0
 42 43  1  0
 42 44  1  0
 42 45  1  0
 45 46  1  0
 45 47  1  0
 17 48  1  0
 48 49  1  0
 49 50  1  0
 49 51  1  0
 49 52  1  0
 48  4  1  0
 13  8  2  0
 45 20  1  0
 40 31  1  0
M  CHG  3   9  -1  12  -1  14  -1
M  END
>  <UniqueID>  (59) 
53

>  <SMILES>  (59) 
C=c1/c(=C/c2[n-]c(=O)[n-]c2[O-])cc(C(=O)N2CCN(Cc3ccccc3)CC2)n1C

>  <Energy>  (59) 
132.63472741818026

>  <Genealogy>  (59) 
C=c1c(=Cc2[n-]c(=O)[n-]c2[O-])cc(C(=O)N2CCN(Cc3ccccc3)CC2)n1C (protonated)
C=c1/c(=C/c2[n-]c(=O)[n-]c2[O-])cc(C(=O)N2CCN(Cc3ccccc3)CC2)n1C (cis-trans isomerization)
C=c1/c(=C/c2[n-]c(=O)[n-]c2[O-])cc(C(=O)N2CCN(Cc3ccccc3)CC2)n1C (3D coordinates assigned)
C=c1/c(=C/c2[n-]c(=O)[n-]c2[O-])cc(C(=O)N2CCN(Cc3ccccc3)CC2)n1C (nonaromatic ring conformer: 132.63472741818026 kcal/mol)

>  <smiles>  (59) 
C=c1c(=Cc2[nH]c(=O)[nH]c2O)cc(C(=O)N2CCN(Cc3ccccc3)CC2)n1C

>  <score_type>  (59) 
oracle

>  <origin>  (59) 
adg

>  <m_score__min__energy>  (59) 
-18.120000000000001

>  <m_primary>  (59) 
energy

$$$$
59:0
     RDKit          3D

 61 64  0  0  0  0  0  0  0  0999 V2000
   50.6310   29.9930   52.8260 C   0  0  0  0  0  0  0  0  0  0  0  0
   52.1170   30.1330   52.6790 C   0  0  0  0  0  0  0  0  0  0  0  0
   52.6560   30.7520   51.5410 C   0  0  0  0  0  0  0  0  0  0  0  0
   54.0410   30.8480   51.3740 C   0  0  0  0  0  0  0  0  0  0  0  0
   54.9120   30.3340   52.3530 C   0  0  0  0  0  0  0  0  0  0  0  0
   56.3870   30.4090   52.1940 C   0  0  0  0  0  0  0  0  0  0  0  0
   57.0400   29.3440   52.0270 O   0  0  0  0  0  0  0  0  0  0  0  0
   57.0820   31.6650   52.2360 N   0  0  0  0  0  0  0  0  0  0  0  0
   58.5230   31.7700   52.0050 C   0  0  0  0  0  0  0  0  0  0  0  0
   58.8510   31.4100   50.5740 C   0  0  0  0  0  0  0  0  0  0  0  0
   58.5510   32.3250   49.5510 C   0  0  0  0  0  0  0  0  0  0  0  0
   58.7950   31.9980   48.2170 C   0  0  0  0  0  0  0  0  0  0  0  0
   59.3210   30.7520   47.8700 C   0  0  0  0  0  0  0  0  0  0  0  0
   59.4870   30.4620   46.5050 O   0  0  0  0  0  0  0  0  0  0  0  0
   58.8220   31.1260   45.4570 C   0  0  0  0  0  0  0  0  0  0  0  0
   59.0090   32.5080   45.3250 C   0  0  0  0  0  0  0  0  0  0  0  0
   58.4180   33.2150   44.2780 C   0  0  0  0  0  0  0  0  0  0  0  0
   57.6250   32.5460   43.3480 C   0  0  0  0  0  0  0  0  0  0  0  0
   57.4080   31.1690   43.4760 C   0  0  0  0  0  0  0  0  0  0  0  0
   57.9820   30.4540   44.5410 C   0  0  0  0  0  0  0  0  0  0  0  0
   57.6080   29.0370   44.7210 C   0  0  0  0  0  0  0  0  0  0  0  0
   58.4820   28.1340   44.5430 O   0  0  0  0  0  0  0  0  0  0  0  0
   56.2250   28.6750   45.0940 C   0  0  0  0  0  0  0  0  0  0  0  0
   55.2860   29.5020   44.9130 O   0  0  0  0  0  0  0  0  0  0  0  0
   55.9520   27.3750   45.6300 N   0  0  0  0  0  0  0  0  0  0  0  0
   56.9300   26.6710   46.4560 C   0  0  0  0  0  0  0  0  0  0  0  0
   57.3370   25.3890   45.7940 C   0  0  0  0  0  0  0  0  0  0  0  0
   56.5200   24.8020   44.8170 C   0  0  0  0  0  0  0  0  0  0  0  0
   56.9090   23.6150   44.1930 C   0  0  0  0  0  0  0  0  0  0  0  0
   58.1120   23.0050   44.5430 C   0  0  0  0  0  0  0  0  0  0  0  0
   58.9270   23.5760   45.5280 C   0  0  0  0  0  0  0  0  0  0  0  0
   58.5380   24.7620   46.1550 C   0  0  0  0  0  0  0  0  0  0  0  0
   59.6780   29.8450   48.8920 C   0  0  0  0  0  0  0  0  0  0  0  0
   60.4930   28.3380   48.5060 Cl  0  0  0  0  0  0  0  0  0  0  0  0
   59.4280   30.1650   50.2410 C   0  0  0  0  0  0  0  0  0  0  0  0
   59.8350   29.0030   51.5050 Cl  0  0  0  0  0  0  0  0  0  0  0  0
   54.3640   29.7090   53.4860 C   0  0  0  0  0  0  0  0  0  0  0  0
   52.9810   29.6000   53.6430 C   0  0  0  0  0  0  0  0  0  0  0  0
   50.3689   29.9683   53.8940 H   0  0  0  0  0  0  0  0  0  0  0  0
   50.1329   30.8482   52.3459 H   0  0  0  0  0  0  0  0  0  0  0  0
   50.3013   29.0598   52.3459 H   0  0  0  0  0  0  0  0  0  0  0  0
   51.9839   31.1649   50.7743 H   0  0  0  0  0  0  0  0  0  0  0  0
   54.4518   31.3275   50.4733 H   0  0  0  0  0  0  0  0  0  0  0  0
   56.5660   32.5340   52.4980 H   0  0  0  0  0  0  0  0  0  0  0  0
   58.8484   32.8018   52.2036 H   0  0  0  0  0  0  0  0  0  0  0  0
   59.0456   31.0747   52.6784 H   0  0  0  0  0  0  0  0  0  0  0  0
   58.1210   33.3055   49.8035 H   0  0  0  0  0  0  0  0  0  0  0  0
   58.5701   32.7311   47.4284 H   0  0  0  0  0  0  0  0  0  0  0  0
   59.6309   33.0433   46.0576 H   0  0  0  0  0  0  0  0  0  0  0  0
   58.5778   34.2995   44.1866 H   0  0  0  0  0  0  0  0  0  0  0  0
   57.1697   33.0996   42.5136 H   0  0  0  0  0  0  0  0  0  0  0  0
   56.7842   30.6432   42.7382 H   0  0  0  0  0  0  0  0  0  0  0  0
   57.8167   27.3076   46.5919 H   0  0  0  0  0  0  0  0  0  0  0  0
   56.4786   26.4438   47.4330 H   0  0  0  0  0  0  0  0  0  0  0  0
   55.5680   25.2790   44.5409 H   0  0  0  0  0  0  0  0  0  0  0  0
   56.2656   23.1612   43.4248 H   0  0  0  0  0  0  0  0  0  0  0  0
   58.4216   22.0743   44.0451 H   0  0  0  0  0  0  0  0  0  0  0  0
   59.8736   23.0906   45.8080 H   0  0  0  0  0  0  0  0  0  0  0  0
   59.1756   25.2053   46.9341 H   0  0  0  0  0  0  0  0  0  0  0  0
   55.0325   29.3008   54.2583 H   0  0  0  0  0  0  0  0  0  0  0  0
   52.5685   29.0932   54.5279 H   0  0  0  0  0  0  0  0  0  0  0  0
  1  2  1  0
  2  3  2  0
  3  4  1  0
  4  5  2  0
  5  6  1  0
  6  7  2  0
  6  8  1  0
  8  9  1  0
  9 10  1  0
 10 11  2  0
 11 12  1  0
 12 13  2  0
 13 14  1  0
 14 15  1  0
 15 16  2  0
 16 17  1  0
 17 18  2  0
 18 19  1  0
 19 20  2  0
 20 21  1  0
 21 22  2  0
 21 23  1  0
 23 24  2  0
 23 25  1  0
 25 26  1  0
 26 27  1  0
 27 28  2  0
 28 29  1  0
 29 30  2  0
 30 31  1  0
 31 32  2  0
 13 33  1  0
 33 34  1  0
 33 35  2  0
 35 36  1  0
  5 37  1  0
 37 38  2  0
 38  2  1  0
 35 10  1  0
 20 15  1  0
 32 27  1  0
  1 39  1  0
  1 40  1  0
  1 41  1  0
  3 42  1  0
  4 43  1  0
  8 44  1  0
  9 45  1  0
  9 46  1  0
 11 47  1  0
 12 48  1  0
 16 49  1  0
 17 50  1  0
 18 51  1  0
 19 52  1  0
 26 53  1  0
 26 54  1  0
 28 55  1  0
 29 56  1  0
 30 57  1  0
 31 58  1  0
 32 59  1  0
 37 60  1  0
 38 61  1  0
M  CHG  1  25  -1
M  END
>  <UniqueID>  (60) 
54

>  <SMILES>  (60) 
Cc1ccc(C(=O)NCc2ccc(Oc3ccccc3C(=O)C(=O)[N-]Cc3ccccc3)c(Cl)c2Cl)cc1

>  <Energy>  (60) 
77.31176437223206

>  <Genealogy>  (60) 
Cc1ccc(C(=O)NCc2ccc(Oc3ccccc3C(=O)C(=O)[N-]Cc3ccccc3)c(Cl)c2Cl)cc1 (protonated)
Cc1ccc(C(=O)NCc2ccc(Oc3ccccc3C(=O)C(=O)[N-]Cc3ccccc3)c(Cl)c2Cl)cc1 (3D coordinates assigned)
Cc1ccc(C(=O)NCc2ccc(Oc3ccccc3C(=O)C(=O)[N-]Cc3ccccc3)c(Cl)c2Cl)cc1 (optimized conformer: 77.31176437223206 kcal/mol)

>  <smiles>  (60) 
Cc1ccc(C(=O)NCc2ccc(Oc3ccccc3C(=O)C(=O)NCc3ccccc3)c(Cl)c2Cl)cc1

>  <score_type>  (60) 
oracle

>  <origin>  (60) 
adg

>  <m_score__min__energy>  (60) 
-12.029999999999999

>  <m_primary>  (60) 
energy

$$$$
60:0
     RDKit          3D

 49 51  0  0  0  0  0  0  0  0999 V2000
   56.2760   29.7820   42.4510 C   0  0  0  0  0  0  0  0  0  0  0  0
   55.8130   30.0700   43.8760 C   0  0  0  0  0  0  0  0  0  0  0  0
   56.9120   29.8510   44.8370 N   0  0  0  0  0  0  0  0  0  0  0  0
   57.1050   28.5690   45.2770 C   0  0  0  0  0  0  0  0  0  0  0  0
   58.1260   28.2410   46.1800 C   0  0  0  0  0  0  0  0  0  0  0  0
   58.2890   26.8240   46.6080 C   0  0  0  0  0  0  0  0  0  0  0  0
   59.3920   26.2290   46.4560 O   0  0  0  0  0  0  0  0  0  0  0  0
   57.2100   26.1450   47.1910 O   0  0  0  0  0  0  0  0  0  0  0  0
   56.7280   24.8870   46.7250 C   0  0  0  0  0  0  0  0  0  0  0  0
   55.4450   25.0650   45.9750 C   0  0  0  0  0  0  0  0  0  0  0  0
   54.7830   26.3270   45.9800 N   0  0  0  0  0  0  0  0  0  0  0  0
   54.9400   24.0920   45.3550 O   0  0  0  0  0  0  0  0  0  0  0  0
   58.9620   29.2680   46.6510 C   0  0  0  0  0  0  0  0  0  0  0  0
   59.8970   29.0060   47.4570 O   0  0  0  0  0  0  0  0  0  0  0  0
   58.7570   30.5920   46.2250 C   0  0  0  0  0  0  0  0  0  0  0  0
   59.5770   31.6350   46.7010 C   0  0  0  0  0  0  0  0  0  0  0  0
   59.3630   32.9550   46.2930 C   0  0  0  0  0  0  0  0  0  0  0  0
   60.3720   34.2630   46.9080 S   0  0  0  0  0  0  0  0  0  0  0  0
   61.8220   33.9700   46.6320 O   0  0  0  0  0  0  0  0  0  0  0  0
   59.9960   35.5310   46.1940 O   0  0  0  0  0  0  0  0  0  0  0  0
   60.1120   34.4540   48.6280 N   0  0  0  0  0  0  0  0  0  0  0  0
   61.3760   34.3520   49.3670 C   0  0  0  0  0  0  0  0  0  0  0  0
   61.5380   32.9040   49.8080 C   0  0  0  0  0  0  0  0  0  0  0  0
   60.1610   32.2760   49.6700 C   0  0  0  0  0  0  0  0  0  0  0  0
   59.2540   33.3860   49.1580 C   0  0  0  0  0  0  0  0  0  0  0  0
   58.3200   33.2440   45.4150 C   0  0  0  0  0  0  0  0  0  0  0  0
   57.5000   32.2260   44.9290 C   0  0  0  0  0  0  0  0  0  0  0  0
   57.7050   30.8780   45.3130 C   0  0  0  0  0  0  0  0  0  0  0  0
   57.2097   29.2012   42.4792 H   0  0  0  0  0  0  0  0  0  0  0  0
   55.5016   29.2059   41.9232 H   0  0  0  0  0  0  0  0  0  0  0  0
   56.4504   30.7312   41.9232 H   0  0  0  0  0  0  0  0  0  0  0  0
   55.4785   31.1158   43.9424 H   0  0  0  0  0  0  0  0  0  0  0  0
   54.9862   29.3880   44.1234 H   0  0  0  0  0  0  0  0  0  0  0  0
   56.4395   27.7731   44.9113 H   0  0  0  0  0  0  0  0  0  0  0  0
   57.4778   24.4359   46.0585 H   0  0  0  0  0  0  0  0  0  0  0  0
   56.5477   24.2315   47.5898 H   0  0  0  0  0  0  0  0  0  0  0  0
   55.2400   27.1700   46.3920 H   0  0  0  0  0  0  0  0  0  0  0  0
   60.3944   31.4079   47.4012 H   0  0  0  0  0  0  0  0  0  0  0  0
   59.6700   35.3890   48.7930 H   0  0  0  0  0  0  0  0  0  0  0  0
   62.2146   34.6418   48.7169 H   0  0  0  0  0  0  0  0  0  0  0  0
   61.3677   35.0221   50.2393 H   0  0  0  0  0  0  0  0  0  0  0  0
   62.2625   32.3853   49.1630 H   0  0  0  0  0  0  0  0  0  0  0  0
   61.9152   32.8332   50.8389 H   0  0  0  0  0  0  0  0  0  0  0  0
   60.1894   31.4421   48.9532 H   0  0  0  0  0  0  0  0  0  0  0  0
   59.8029   31.8664   50.6260 H   0  0  0  0  0  0  0  0  0  0  0  0
   58.6016   32.9993   48.3613 H   0  0  0  0  0  0  0  0  0  0  0  0
   58.6180   33.7693   49.9695 H   0  0  0  0  0  0  0  0  0  0  0  0
   58.1421   34.2836   45.1028 H   0  0  0  0  0  0  0  0  0  0  0  0
   56.6816   32.4736   44.2370 H   0  0  0  0  0  0  0  0  0  0  0  0
  1  2  1  0
  2  3  1  0
  3  4  1  0
  4  5  2  0
  5  6  1  0
  6  7  2  0
  6  8  1  0
  8  9  1  0
  9 10  1  0
 10 11  1  0
 10 12  2  0
  5 13  1  0
 13 14  2  0
 13 15  1  0
 15 16  2  0
 16 17  1  0
 17 18  1  0
 18 19  2  0
 18 20  2  0
 18 21  1  0
 21 22  1  0
 22 23  1  0
 23 24  1  0
 24 25  1  0
 17 26  2  0
 26 27  1  0
 27 28  2  0
 28  3  1  0
 28 15  1  0
 25 21  1  0
  1 29  1  0
  1 30  1  0
  1 31  1  0
  2 32  1  0
  2 33  1  0
  4 34  1  0
  9 35  1  0
  9 36  1  0
 11 37  1  0
 16 38  1  0
 21 39  1  0
 22 40  1  0
 22 41  1  0
 23 42  1  0
 23 43  1  0
 24 44  1  0
 24 45  1  0
 25 46  1  0
 25 47  1  0
 26 48  1  0
 27 49  1  0
M  CHG  2  11  -1  21   1
M  END
>  <UniqueID>  (61) 
55

>  <SMILES>  (61) 
CCn1cc(C(=O)OCC([NH-])=O)c(=O)c2cc(S(=O)(=O)[NH+]3CCCC3)ccc21

>  <Energy>  (61) 
57.647491917407564

>  <Genealogy>  (61) 
CCn1cc(C(=O)OCC([NH-])=O)c(=O)c2cc(S(=O)(=O)[NH+]3CCCC3)ccc21 (protonated)
CCn1cc(C(=O)OCC([NH-])=O)c(=O)c2cc(S(=O)(=O)[NH+]3CCCC3)ccc21 (3D coordinates assigned)
CCn1cc(C(=O)OCC([NH-])=O)c(=O)c2cc(S(=O)(=O)[NH+]3CCCC3)ccc21 (nonaromatic ring conformer: 57.647491917407564 kcal/mol)

>  <smiles>  (61) 
CCn1cc(C(=O)OCC(N)=O)c(=O)c2cc(S(=O)(=O)N3CCCC3)ccc21

>  <score_type>  (61) 
oracle

>  <origin>  (61) 
adg

>  <m_score__min__energy>  (61) 
-10.67

>  <m_primary>  (61) 
energy

$$$$
61:0
     RDKit          3D

 62 66  0  0  0  0  0  0  0  0999 V2000
   58.7540   25.3080   45.9680 C   0  0  0  0  0  0  0  0  0  0  0  0
   57.2900   25.6210   45.9840 C   0  0  0  0  0  0  0  0  0  0  0  0
   56.3390   24.6700   45.9410 N   0  0  0  0  0  0  0  0  0  0  0  0
   55.1910   25.3780   45.9500 C   0  0  0  0  0  0  0  0  0  0  0  0
   54.0580   24.8330   45.9150 O   0  0  0  0  0  0  0  0  0  0  0  0
   55.3540   26.7150   46.0010 N   0  0  0  0  0  0  0  0  0  0  0  0
   56.6910   26.8700   46.0340 C   0  0  0  0  0  0  0  0  0  0  0  0
   57.3510   28.1940   46.0970 C   0  0  0  0  0  0  0  0  0  0  0  0
   58.3130   28.4710   47.0810 C   0  0  0  0  0  0  0  0  0  0  0  0
   58.9180   29.7290   47.1470 C   0  0  0  0  0  0  0  0  0  0  0  0
   58.5550   30.7390   46.2390 C   0  0  0  0  0  0  0  0  0  0  0  0
   59.1530   32.0070   46.2640 O   0  0  0  0  0  0  0  0  0  0  0  0
   60.4220   32.2950   46.7870 C   0  0  0  0  0  0  0  0  0  0  0  0
   60.6980   33.6000   47.2060 C   0  0  0  0  0  0  0  0  0  0  0  0
   61.9490   33.9230   47.7430 C   0  0  0  0  0  0  0  0  0  0  0  0
   62.9380   32.9370   47.8770 C   0  0  0  0  0  0  0  0  0  0  0  0
   64.2740   33.2700   48.4860 C   0  0  0  0  0  0  0  0  0  0  0  0
   64.1930   33.2350   49.9520 N   0  0  0  0  0  0  0  0  0  0  0  0
   63.2290   34.1270   50.6130 C   0  0  0  0  0  0  0  0  0  0  0  0
   63.2230   34.0170   52.1500 C   0  0  0  0  0  0  0  0  0  0  0  0
   63.5540   32.6730   52.6500 N   0  0  0  0  0  0  0  0  0  0  0  0
   62.4500   31.6870   52.6990 C   0  0  0  0  0  0  0  0  0  0  0  0
   61.2230   32.0840   51.9050 C   0  0  0  0  0  0  0  0  0  0  0  0
   60.9110   31.4040   50.7140 C   0  0  0  0  0  0  0  0  0  0  0  0
   59.7920   31.7680   49.9600 C   0  0  0  0  0  0  0  0  0  0  0  0
   58.9580   32.7970   50.3990 C   0  0  0  0  0  0  0  0  0  0  0  0
   59.2350   33.4570   51.5980 C   0  0  0  0  0  0  0  0  0  0  0  0
   60.3580   33.1020   52.3590 C   0  0  0  0  0  0  0  0  0  0  0  0
   60.6200   33.7660   53.5580 O   0  0  0  0  0  0  0  0  0  0  0  0
   64.8560   32.1750   52.1820 C   0  0  0  0  0  0  0  0  0  0  0  0
   65.0040   32.3080   50.6980 C   0  0  0  0  0  0  0  0  0  0  0  0
   65.8740   31.6070   50.1140 O   0  0  0  0  0  0  0  0  0  0  0  0
   62.6520   31.6200   47.4800 C   0  0  0  0  0  0  0  0  0  0  0  0
   61.4040   31.3000   46.9420 C   0  0  0  0  0  0  0  0  0  0  0  0
   57.6020   30.4630   45.2540 C   0  0  0  0  0  0  0  0  0  0  0  0
   56.9930   29.2050   45.1870 C   0  0  0  0  0  0  0  0  0  0  0  0
   56.0710   28.9720   44.2180 F   0  0  0  0  0  0  0  0  0  0  0  0
   59.1234   25.2290   47.0011 H   0  0  0  0  0  0  0  0  0  0  0  0
   58.9193   24.3542   45.4456 H   0  0  0  0  0  0  0  0  0  0  0  0
   59.2949   26.1108   45.4456 H   0  0  0  0  0  0  0  0  0  0  0  0
   58.5927   27.6920   47.8056 H   0  0  0  0  0  0  0  0  0  0  0  0
   59.6817   29.9298   47.9128 H   0  0  0  0  0  0  0  0  0  0  0  0
   59.9262   34.3783   47.1128 H   0  0  0  0  0  0  0  0  0  0  0  0
   62.1581   34.9549   48.0616 H   0  0  0  0  0  0  0  0  0  0  0  0
   65.0197   32.5359   48.1468 H   0  0  0  0  0  0  0  0  0  0  0  0
   64.5675   34.2818   48.1695 H   0  0  0  0  0  0  0  0  0  0  0  0
   63.4755   35.1641   50.3417 H   0  0  0  0  0  0  0  0  0  0  0  0
   62.2289   33.8246   50.2690 H   0  0  0  0  0  0  0  0  0  0  0  0
   63.9602   34.7278   52.5516 H   0  0  0  0  0  0  0  0  0  0  0  0
   62.1987   34.2399   52.4834 H   0  0  0  0  0  0  0  0  0  0  0  0
   62.8234   30.7319   52.3011 H   0  0  0  0  0  0  0  0  0  0  0  0
   62.1356   31.6188   53.7509 H   0  0  0  0  0  0  0  0  0  0  0  0
   61.5532   30.5786   50.3731 H   0  0  0  0  0  0  0  0  0  0  0  0
   59.5685   31.2429   49.0196 H   0  0  0  0  0  0  0  0  0  0  0  0
   58.0822   33.0883   49.8005 H   0  0  0  0  0  0  0  0  0  0  0  0
   58.5688   34.2596   51.9473 H   0  0  0  0  0  0  0  0  0  0  0  0
   61.5460   33.7730   53.9700 H   0  0  0  0  0  0  0  0  0  0  0  0
   65.6543   32.7516   52.6721 H   0  0  0  0  0  0  0  0  0  0  0  0
   64.9243   31.1072   52.4371 H   0  0  0  0  0  0  0  0  0  0  0  0
   63.4157   30.8365   47.5937 H   0  0  0  0  0  0  0  0  0  0  0  0
   61.1878   30.2652   46.6380 H   0  0  0  0  0  0  0  0  0  0  0  0
   57.3288   31.2410   44.5259 H   0  0  0  0  0  0  0  0  0  0  0  0
  1  2  1  0
  2  3  1  0
  3  4  1  0
  4  5  2  0
  4  6  1  0
  6  7  1  0
  7  8  1  0
  8  9  2  0
  9 10  1  0
 10 11  2  0
 11 12  1  0
 12 13  1  0
 13 14  2  0
 14 15  1  0
 15 16  2  0
 16 17  1  0
 17 18  1  0
 18 19  1  0
 19 20  1  0
 20 21  1  0
 21 22  1  0
 22 23  1  0
 23 24  2  0
 24 25  1  0
 25 26  2  0
 26 27  1  0
 27 28  2  0
 28 29  1  0
 21 30  1  0
 30 31  1  0
 31 32  2  0
 16 33  1  0
 33 34  2  0
 11 35  1  0
 35 36  2  0
 36 37  1  0
  7  2  2  0
 36  8  1  0
 34 13  1  0
 31 18  1  0
 28 23  1  0
  1 38  1  0
  1 39  1  0
  1 40  1  0
  9 41  1  0
 10 42  1  0
 14 43  1  0
 15 44  1  0
 17 45  1  0
 17 46  1  0
 19 47  1  0
 19 48  1  0
 20 49  1  0
 20 50  1  0
 22 51  1  0
 22 52  1  0
 24 53  1  0
 25 54  1  0
 26 55  1  0
 27 56  1  0
 29 57  1  0
 30 58  1  0
 30 59  1  0
 33 60  1  0
 34 61  1  0
 35 62  1  0
M  CHG  2   3  -1   6  -1
M  END
>  <UniqueID>  (62) 
56

>  <SMILES>  (62) 
Cc1[n-]c(=O)[n-]c1-c1ccc(Oc2ccc(CN3CCN(Cc4ccccc4O)CC3=O)cc2)cc1F

>  <Energy>  (62) 
114.55895861122598

>  <Genealogy>  (62) 
Cc1[n-]c(=O)[n-]c1-c1ccc(Oc2ccc(CN3CCN(Cc4ccccc4O)CC3=O)cc2)cc1F (protonated)
Cc1[n-]c(=O)[n-]c1-c1ccc(Oc2ccc(CN3CCN(Cc4ccccc4O)CC3=O)cc2)cc1F (3D coordinates assigned)
Cc1[n-]c(=O)[n-]c1-c1ccc(Oc2ccc(CN3CCN(Cc4ccccc4O)CC3=O)cc2)cc1F (nonaromatic ring conformer: 114.55895861122598 kcal/mol)

>  <smiles>  (62) 
Cc1[nH]c(=O)[nH]c1-c1ccc(Oc2ccc(CN3CCN(Cc4ccccc4O)CC3=O)cc2)cc1F

>  <score_type>  (62) 
oracle

>  <origin>  (62) 
adg

>  <m_score__min__energy>  (62) 
-12.23

>  <m_primary>  (62) 
energy

$$$$
62:0
     RDKit          3D

 59 59  0  0  0  0  0  0  0  0999 V2000
   53.7020   25.9510   46.3670 H   0  0  0  0  0  0  0  0  0  0  0  0
   54.5380   26.2880   45.9090 O   0  0  0  0  0  0  0  0  0  0  0  0
   55.8190   25.8640   46.2670 C   0  0  0  0  0  0  0  0  0  0  0  0
   55.9870   24.5750   46.6670 N   0  0  0  0  0  0  0  0  0  0  0  0
   57.1980   24.1120   47.0780 C   0  0  0  0  0  0  0  0  0  0  0  0
   57.3300   22.9110   47.4290 O   0  0  0  0  0  0  0  0  0  0  0  0
   58.2640   24.9470   47.1150 N   0  0  0  0  0  0  0  0  0  0  0  0
   58.1580   26.2470   46.7240 C   0  0  0  0  0  0  0  0  0  0  0  0
   59.1720   26.9930   46.7760 O   0  0  0  0  0  0  0  0  0  0  0  0
   56.9300   26.7390   46.2470 C   0  0  0  0  0  0  0  0  0  0  0  0
   56.8410   28.1330   45.7490 C   0  0  0  0  0  0  0  0  0  0  0  0
   56.3687   28.8792   46.4049 H   0  0  0  0  0  0  0  0  0  0  0  0
   57.2950   28.5520   44.5550 C   0  0  0  0  0  0  0  0  0  0  0  0
   58.0275   27.9150   44.0376 H   0  0  0  0  0  0  0  0  0  0  0  0
   56.8820   29.8110   43.8810 C   0  0  0  0  0  0  0  0  0  0  0  0
   56.3180   29.7250   42.6730 C   0  0  0  0  0  0  0  0  0  0  0  0
   56.2014   28.7441   42.1890 H   0  0  0  0  0  0  0  0  0  0  0  0
   55.9703   30.6351   42.1623 H   0  0  0  0  0  0  0  0  0  0  0  0
   57.0250   31.1480   44.5070 C   0  0  0  0  0  0  0  0  0  0  0  0
   56.1252   31.7672   44.6372 H   0  0  0  0  0  0  0  0  0  0  0  0
   58.2010   31.6330   44.9200 C   0  0  0  0  0  0  0  0  0  0  0  0
   59.0837   30.9768   44.9367 H   0  0  0  0  0  0  0  0  0  0  0  0
   58.3290   33.0390   45.3540 C   0  0  0  0  0  0  0  0  0  0  0  0
   57.6364   33.7725   44.9154 H   0  0  0  0  0  0  0  0  0  0  0  0
   59.2320   33.4900   46.2480 C   0  0  0  0  0  0  0  0  0  0  0  0
   58.8750   34.7030   47.0620 C   0  0  0  0  0  0  0  0  0  0  0  0
   58.9465   34.4602   48.1325 H   0  0  0  0  0  0  0  0  0  0  0  0
   59.5703   35.5216   46.8245 H   0  0  0  0  0  0  0  0  0  0  0  0
   57.8471   35.0144   46.8245 H   0  0  0  0  0  0  0  0  0  0  0  0
   60.5670   32.8150   46.5050 C   0  0  0  0  0  0  0  0  0  0  0  0
   60.5473   32.3585   47.5056 H   0  0  0  0  0  0  0  0  0  0  0  0
   60.7195   32.0556   45.7239 H   0  0  0  0  0  0  0  0  0  0  0  0
   61.7370   33.8080   46.4360 C   0  0  0  0  0  0  0  0  0  0  0  0
   61.9904   33.9907   45.3813 H   0  0  0  0  0  0  0  0  0  0  0  0
   61.4298   34.7419   46.9294 H   0  0  0  0  0  0  0  0  0  0  0  0
   62.9570   33.2690   47.1500 C   0  0  0  0  0  0  0  0  0  0  0  0
   63.6661   32.6676   46.5623 H   0  0  0  0  0  0  0  0  0  0  0  0
   63.2410   33.4710   48.4560 C   0  0  0  0  0  0  0  0  0  0  0  0
   64.5330   32.9900   49.0710 C   0  0  0  0  0  0  0  0  0  0  0  0
   64.4509   33.0206   50.1675 H   0  0  0  0  0  0  0  0  0  0  0  0
   64.7314   31.9578   48.7468 H   0  0  0  0  0  0  0  0  0  0  0  0
   65.3582   33.6412   48.7468 H   0  0  0  0  0  0  0  0  0  0  0  0
   62.2310   34.1800   49.3330 C   0  0  0  0  0  0  0  0  0  0  0  0
   62.7686   34.7909   50.0732 H   0  0  0  0  0  0  0  0  0  0  0  0
   61.5982   34.8073   48.6880 H   0  0  0  0  0  0  0  0  0  0  0  0
   61.3230   33.1870   50.0730 C   0  0  0  0  0  0  0  0  0  0  0  0
   61.2284   32.2718   49.4702 H   0  0  0  0  0  0  0  0  0  0  0  0
   61.7769   32.9673   51.0506 H   0  0  0  0  0  0  0  0  0  0  0  0
   59.9460   33.7640   50.3090 C   0  0  0  0  0  0  0  0  0  0  0  0
   59.7434   34.7753   49.9267 H   0  0  0  0  0  0  0  0  0  0  0  0
   58.9420   33.1230   50.9590 C   0  0  0  0  0  0  0  0  0  0  0  0
   58.4330   33.5790   52.3030 C   0  0  0  0  0  0  0  0  0  0  0  0
   58.9978   33.0730   53.0999 H   0  0  0  0  0  0  0  0  0  0  0  0
   58.5642   34.6673   52.3948 H   0  0  0  0  0  0  0  0  0  0  0  0
   57.3656   33.3294   52.3948 H   0  0  0  0  0  0  0  0  0  0  0  0
   58.3070   31.9080   50.3340 C   0  0  0  0  0  0  0  0  0  0  0  0
   57.9532   31.2310   51.1256 H   0  0  0  0  0  0  0  0  0  0  0  0
   57.4561   32.2190   49.7101 H   0  0  0  0  0  0  0  0  0  0  0  0
   59.0481   31.3869   49.7101 H   0  0  0  0  0  0  0  0  0  0  0  0
  1  2  1  0
  2  3  1  0
  3  4  1  0
  4  5  1  0
  5  6  2  0
  5  7  1  0
  7  8  1  0
  8  9  2  0
  8 10  1  0
 10 11  1  0
 11 12  1  0
 11 13  2  3
 13 14  1  0
 13 15  1  0
 15 16  2  0
 16 17  1  0
 16 18  1  0
 15 19  1  0
 19 20  1  0
 19 21  2  3
 21 22  1  0
 21 23  1  0
 23 24  1  0
 23 25  2  3
 25 26  1  0
 26 27  1  0
 26 28  1  0
 26 29  1  0
 25 30  1  0
 30 31  1  0
 30 32  1  0
 30 33  1  0
 33 34  1  0
 33 35  1  0
 33 36  1  0
 36 37  1  0
 36 38  2  0
 38 39  1  0
 39 40  1  0
 39 41  1  0
 39 42  1  0
 38 43  1  0
 43 44  1  0
 43 45  1  0
 43 46  1  0
 46 47  1  0
 46 48  1  0
 46 49  1  0
 49 50  1  0
 49 51  2  3
 51 52  1  0
 52 53  1  0
 52 54  1  0
 52 55  1  0
 51 56  1  0
 56 57  1  0
 56 58  1  0
 56 59  1  0
 10  3  2  0
M  CHG  2   4  -1   7  -1
M  END
>  <UniqueID>  (63) 
57

>  <SMILES>  (63) 
C=C(C=CC=C(C)CC/C=C(\C)CCC=C(C)C)C=Cc1c(O)[n-]c(=O)[n-]c1=O

>  <Energy>  (63) 
53.62956866407305

>  <Genealogy>  (63) 
C=C(C=CC=C(C)CCC=C(C)CCC=C(C)C)C=Cc1c(O)[n-]c(=O)[n-]c1=O (protonated)
C=C(C=CC=C(C)CC/C=C(\C)CCC=C(C)C)C=Cc1c(O)[n-]c(=O)[n-]c1=O (cis-trans isomerization)
C=C(C=CC=C(C)CC/C=C(\C)CCC=C(C)C)C=Cc1c(O)[n-]c(=O)[n-]c1=O (3D coordinates assigned)
C=C(C=CC=C(C)CC/C=C(\C)CCC=C(C)C)C=Cc1c(O)[n-]c(=O)[n-]c1=O (optimized conformer: 53.62956866407305 kcal/mol)

>  <smiles>  (63) 
C=C(C=CC=C(C)CCC=C(C)CCC=C(C)C)C=Cc1c(O)[nH]c(=O)[nH]c1=O

>  <score_type>  (63) 
oracle

>  <origin>  (63) 
adg

>  <m_score__min__energy>  (63) 
-13.23

>  <m_primary>  (63) 
energy

$$$$
63:0
     RDKit          3D

 51 54  0  0  0  0  0  0  0  0999 V2000
   54.2092   28.8370   55.7132 H   0  0  0  0  0  0  0  0  0  0  0  0
   53.6530   29.3550   54.9180 C   0  0  0  0  0  0  0  0  0  0  0  0
   52.5559   29.4190   54.9662 H   0  0  0  0  0  0  0  0  0  0  0  0
   54.3130   29.9090   53.8890 C   0  0  0  0  0  0  0  0  0  0  0  0
   53.7310   30.5950   52.8140 C   0  0  0  0  0  0  0  0  0  0  0  0
   52.4170   30.8350   52.6150 C   0  0  0  0  0  0  0  0  0  0  0  0
   51.7640   30.8635   53.4998 H   0  0  0  0  0  0  0  0  0  0  0  0
   51.7930   31.0620   51.2960 C   0  0  0  0  0  0  0  0  0  0  0  0
   51.7840   30.1890   50.2740 N   0  0  0  0  0  0  0  0  0  0  0  0
   51.1490   30.8630   49.2910 C   0  0  0  0  0  0  0  0  0  0  0  0
   50.9320   30.3630   48.1590 O   0  0  0  0  0  0  0  0  0  0  0  0
   50.7630   32.1140   49.6190 N   0  0  0  0  0  0  0  0  0  0  0  0
   51.1870   32.2270   50.8860 C   0  0  0  0  0  0  0  0  0  0  0  0
   51.0240   33.3730   51.6530 O   0  0  0  0  0  0  0  0  0  0  0  0
   54.7720   30.9210   51.9580 C   0  0  0  0  0  0  0  0  0  0  0  0
   54.6926   31.4721   51.0093 H   0  0  0  0  0  0  0  0  0  0  0  0
   55.9250   30.4220   52.5240 C   0  0  0  0  0  0  0  0  0  0  0  0
   57.2440   30.4930   51.8670 C   0  0  0  0  0  0  0  0  0  0  0  0
   57.8330   29.4180   51.5840 O   0  0  0  0  0  0  0  0  0  0  0  0
   57.8890   31.7560   51.5990 N   0  0  0  0  0  0  0  0  0  0  0  0
   58.7100   31.9180   50.3940 C   0  0  0  0  0  0  0  0  0  0  0  0
   59.1341   30.9440   50.1084 H   0  0  0  0  0  0  0  0  0  0  0  0
   58.0817   32.3048   49.5782 H   0  0  0  0  0  0  0  0  0  0  0  0
   59.8490   32.9080   50.6650 C   0  0  0  0  0  0  0  0  0  0  0  0
   60.5628   32.4526   51.3672 H   0  0  0  0  0  0  0  0  0  0  0  0
   60.3452   33.1429   49.7118 H   0  0  0  0  0  0  0  0  0  0  0  0
   59.3510   34.1090   51.2240 O   0  0  0  0  0  0  0  0  0  0  0  0
   58.8030   33.8480   52.5020 C   0  0  0  0  0  0  0  0  0  0  0  0
   59.5582   33.3438   53.1228 H   0  0  0  0  0  0  0  0  0  0  0  0
   58.5069   34.8024   52.9619 H   0  0  0  0  0  0  0  0  0  0  0  0
   57.5670   32.9520   52.3870 C   0  0  0  0  0  0  0  0  0  0  0  0
   57.2410   32.6492   53.3930 H   0  0  0  0  0  0  0  0  0  0  0  0
   56.7609   33.5091   51.8871 H   0  0  0  0  0  0  0  0  0  0  0  0
   55.6630   29.8440   53.7230 N   0  0  0  0  0  0  0  0  0  0  0  0
   56.6550   29.2790   54.6580 C   0  0  0  0  0  0  0  0  0  0  0  0
   57.5983   29.8348   54.5516 H   0  0  0  0  0  0  0  0  0  0  0  0
   56.2483   29.3699   55.6760 H   0  0  0  0  0  0  0  0  0  0  0  0
   56.9230   27.8040   54.3930 C   0  0  0  0  0  0  0  0  0  0  0  0
   55.8380   26.9160   54.4650 C   0  0  0  0  0  0  0  0  0  0  0  0
   54.8273   27.2911   54.6837 H   0  0  0  0  0  0  0  0  0  0  0  0
   56.0520   25.5630   54.2580 C   0  0  0  0  0  0  0  0  0  0  0  0
   55.0160   24.6910   54.3430 F   0  0  0  0  0  0  0  0  0  0  0  0
   57.2980   25.1110   53.9770 N   0  0  0  0  0  0  0  0  0  0  0  0
   57.4460   24.0870   53.8350 H   0  0  0  0  0  0  0  0  0  0  0  0
   58.3500   25.9670   53.8730 C   0  0  0  0  0  0  0  0  0  0  0  0
   59.4920   25.4960   53.6100 O   0  0  0  0  0  0  0  0  0  0  0  0
   58.1690   27.3200   54.0460 N   0  0  0  0  0  0  0  0  0  0  0  0
   59.3190   28.2300   53.8930 C   0  0  0  0  0  0  0  0  0  0  0  0
   59.6894   28.5231   54.8864 H   0  0  0  0  0  0  0  0  0  0  0  0
   60.1201   27.7186   53.3392 H   0  0  0  0  0  0  0  0  0  0  0  0
   59.0055   29.1272   53.3392 H   0  0  0  0  0  0  0  0  0  0  0  0
  1  2  1  0
  2  3  1  0
  2  4  2  0
  4  5  1  0
  5  6  2  0
  6  7  1  0
  6  8  1  0
  8  9  1  0
  9 10  1  0
 10 11  2  0
 10 12  1  0
 12 13  1  0
 13 14  1  0
  5 15  1  0
 15 16  1  0
 15 17  2  0
 17 18  1  0
 18 19  2  0
 18 20  1  0
 20 21  1  0
 21 22  1  0
 21 23  1  0
 21 24  1  0
 24 25  1  0
 24 26  1  0
 24 27  1  0
 27 28  1  0
 28 29  1  0
 28 30  1  0
 28 31  1  0
 31 32  1  0
 31 33  1  0
 17 34  1  0
 34 35  1  0
 35 36  1  0
 35 37  1  0
 35 38  1  0
 38 39  2  0
 39 40  1  0
 39 41  1  0
 41 42  1  0
 41 43  2  0
 43 44  1  0
 43 45  1  0
 45 46  2  0
 45 47  1  0
 47 48  1  0
 48 49  1  0
 48 50  1  0
 48 51  1  0
 34  4  1  0
 47 38  1  0
 13  8  2  0
 31 20  1  0
M  CHG  4   9  -1  12  -1  14  -1  43   1
M  END
>  <UniqueID>  (64) 
58

>  <SMILES>  (64) 
C=c1/c(=C/c2[n-]c(=O)[n-]c2[O-])cc(C(=O)N2CCOCC2)n1Cc1cc(F)[nH+]c(=O)n1C

>  <Energy>  (64) 
130.06630869957885

>  <Genealogy>  (64) 
C=c1c(=Cc2[n-]c(=O)[n-]c2[O-])cc(C(=O)N2CCOCC2)n1Cc1cc(F)[nH+]c(=O)n1C (protonated)
C=c1/c(=C/c2[n-]c(=O)[n-]c2[O-])cc(C(=O)N2CCOCC2)n1Cc1cc(F)[nH+]c(=O)n1C (cis-trans isomerization)
C=c1/c(=C/c2[n-]c(=O)[n-]c2[O-])cc(C(=O)N2CCOCC2)n1Cc1cc(F)[nH+]c(=O)n1C (3D coordinates assigned)
C=c1/c(=C/c2[n-]c(=O)[n-]c2[O-])cc(C(=O)N2CCOCC2)n1Cc1cc(F)[nH+]c(=O)n1C (nonaromatic ring conformer: 130.06630869957885 kcal/mol)

>  <smiles>  (64) 
C=c1c(=Cc2[nH]c(=O)[nH]c2O)cc(C(=O)N2CCOCC2)n1Cc1cc(F)nc(=O)n1C

>  <score_type>  (64) 
oracle

>  <origin>  (64) 
adg

>  <m_score__min__energy>  (64) 
-15.9

>  <m_primary>  (64) 
energy

$$$$
64:0
     RDKit          3D

 57 61  0  0  0  0  0  0  0  0999 V2000
   61.2280   30.4270   46.4040 C   0  0  0  0  0  0  0  0  0  0  0  0
   60.3560   30.1350   47.3810 C   0  0  0  0  0  0  0  0  0  0  0  0
   59.2710   29.2430   47.3140 C   0  0  0  0  0  0  0  0  0  0  0  0
   58.7410   28.5600   46.2820 C   0  0  0  0  0  0  0  0  0  0  0  0
   57.5730   27.6690   46.3470 C   0  0  0  0  0  0  0  0  0  0  0  0
   57.5530   26.4900   46.9970 N   0  0  0  0  0  0  0  0  0  0  0  0
   56.3500   25.9730   46.6650 C   0  0  0  0  0  0  0  0  0  0  0  0
   55.9490   24.8620   47.0990 O   0  0  0  0  0  0  0  0  0  0  0  0
   55.6190   26.7330   45.8240 N   0  0  0  0  0  0  0  0  0  0  0  0
   56.4120   27.7980   45.6200 C   0  0  0  0  0  0  0  0  0  0  0  0
   56.0730   28.8590   44.7840 O   0  0  0  0  0  0  0  0  0  0  0  0
   58.7440   29.1810   48.5930 C   0  0  0  0  0  0  0  0  0  0  0  0
   59.4690   30.0550   49.3720 C   0  0  0  0  0  0  0  0  0  0  0  0
   59.1300   30.3770   50.7980 C   0  0  0  0  0  0  0  0  0  0  0  0
   60.4580   30.6260   48.6450 N   0  0  0  0  0  0  0  0  0  0  0  0
   61.4080   31.5960   49.1320 C   0  0  0  0  0  0  0  0  0  0  0  0
   62.7310   31.1880   49.3600 C   0  0  0  0  0  0  0  0  0  0  0  0
   63.6830   32.0790   49.8830 C   0  0  0  0  0  0  0  0  0  0  0  0
   65.0750   31.6340   50.1140 C   0  0  0  0  0  0  0  0  0  0  0  0
   66.0440   32.3030   49.6680 O   0  0  0  0  0  0  0  0  0  0  0  0
   65.3330   30.4670   50.8270 O   0  0  0  0  0  0  0  0  0  0  0  0
   63.2910   33.3910   50.1880 C   0  0  0  0  0  0  0  0  0  0  0  0
   61.9770   33.8090   49.9680 C   0  0  0  0  0  0  0  0  0  0  0  0
   61.0290   32.9290   49.4240 C   0  0  0  0  0  0  0  0  0  0  0  0
   59.6510   33.4200   49.2040 C   0  0  0  0  0  0  0  0  0  0  0  0
   58.9010   33.6150   50.1980 O   0  0  0  0  0  0  0  0  0  0  0  0
   59.1550   33.6850   47.8820 N   0  0  0  0  0  0  0  0  0  0  0  0
   59.8110   34.7310   47.0730 C   0  0  0  0  0  0  0  0  0  0  0  0
   59.1160   34.9720   45.7220 C   0  0  0  0  0  0  0  0  0  0  0  0
   58.6160   33.6840   45.1280 C   0  0  0  0  0  0  0  0  0  0  0  0
   58.7020   33.4360   43.7500 C   0  0  0  0  0  0  0  0  0  0  0  0
   58.1670   32.2600   43.2160 C   0  0  0  0  0  0  0  0  0  0  0  0
   57.5240   31.3400   44.0500 C   0  0  0  0  0  0  0  0  0  0  0  0
   57.4220   31.5890   45.4220 C   0  0  0  0  0  0  0  0  0  0  0  0
   57.9830   32.7540   45.9660 C   0  0  0  0  0  0  0  0  0  0  0  0
   57.9100   33.0410   47.4380 C   0  0  0  0  0  0  0  0  0  0  0  0
   62.0382   31.1481   46.5873 H   0  0  0  0  0  0  0  0  0  0  0  0
   61.1327   29.9453   45.4197 H   0  0  0  0  0  0  0  0  0  0  0  0
   59.2254   28.6792   45.3016 H   0  0  0  0  0  0  0  0  0  0  0  0
   55.9650   28.7290   43.7860 H   0  0  0  0  0  0  0  0  0  0  0  0
   57.9045   28.5521   48.9243 H   0  0  0  0  0  0  0  0  0  0  0  0
   59.7617   29.7770   51.4695 H   0  0  0  0  0  0  0  0  0  0  0  0
   59.3085   31.4462   50.9849 H   0  0  0  0  0  0  0  0  0  0  0  0
   58.0714   30.1438   50.9849 H   0  0  0  0  0  0  0  0  0  0  0  0
   63.0273   30.1549   49.1257 H   0  0  0  0  0  0  0  0  0  0  0  0
   64.0252   34.0966   50.6041 H   0  0  0  0  0  0  0  0  0  0  0  0
   61.6823   34.8375   50.2235 H   0  0  0  0  0  0  0  0  0  0  0  0
   59.8033   35.6714   47.6436 H   0  0  0  0  0  0  0  0  0  0  0  0
   60.8341   34.3878   46.8595 H   0  0  0  0  0  0  0  0  0  0  0  0
   58.2642   35.6514   45.8732 H   0  0  0  0  0  0  0  0  0  0  0  0
   59.8473   35.4135   45.0289 H   0  0  0  0  0  0  0  0  0  0  0  0
   59.1906   34.1672   43.0893 H   0  0  0  0  0  0  0  0  0  0  0  0
   58.2520   32.0580   42.1380 H   0  0  0  0  0  0  0  0  0  0  0  0
   57.0977   30.4189   43.6259 H   0  0  0  0  0  0  0  0  0  0  0  0
   56.9022   30.8719   46.0744 H   0  0  0  0  0  0  0  0  0  0  0  0
   57.0608   33.7111   47.6378 H   0  0  0  0  0  0  0  0  0  0  0  0
   57.7739   32.0969   47.9859 H   0  0  0  0  0  0  0  0  0  0  0  0
  1  2  2  0
  2  3  1  0
  3  4  2  3
  4  5  1  0
  5  6  1  0
  6  7  1  0
  7  8  2  0
  7  9  1  0
  9 10  1  0
 10 11  1  0
  3 12  1  0
 12 13  2  0
 13 14  1  0
 13 15  1  0
 15 16  1  0
 16 17  2  0
 17 18  1  0
 18 19  1  0
 19 20  2  0
 19 21  1  0
 18 22  2  0
 22 23  1  0
 23 24  2  0
 24 25  1  0
 25 26  2  0
 25 27  1  0
 27 28  1  0
 28 29  1  0
 29 30  1  0
 30 31  2  0
 31 32  1  0
 32 33  2  0
 33 34  1  0
 34 35  2  0
 35 36  1  0
 15  2  1  0
 24 16  1  0
 36 27  1  0
 10  5  2  0
 35 30  1  0
  1 37  1  0
  1 38  1  0
  4 39  1  0
 11 40  1  0
 12 41  1  0
 14 42  1  0
 14 43  1  0
 14 44  1  0
 17 45  1  0
 22 46  1  0
 23 47  1  0
 28 48  1  0
 28 49  1  0
 29 50  1  0
 29 51  1  0
 31 52  1  0
 32 53  1  0
 33 54  1  0
 34 55  1  0
 36 56  1  0
 36 57  1  0
M  CHG  3   6  -1   9  -1  21  -1
M  END
>  <UniqueID>  (65) 
59

>  <SMILES>  (65) 
C=c1c(=Cc2[n-]c(=O)[n-]c2O)cc(C)n1-c1cc(C(=O)[O-])ccc1C(=O)N1CCc2ccccc2C1

>  <Energy>  (65) 
140.70900200282549

>  <Genealogy>  (65) 
C=c1c(=Cc2[n-]c(=O)[n-]c2O)cc(C)n1-c1cc(C(=O)[O-])ccc1C(=O)N1CCc2ccccc2C1 (protonated)
C=c1c(=Cc2[n-]c(=O)[n-]c2O)cc(C)n1-c1cc(C(=O)[O-])ccc1C(=O)N1CCc2ccccc2C1 (3D coordinates assigned)
C=c1c(=Cc2[n-]c(=O)[n-]c2O)cc(C)n1-c1cc(C(=O)[O-])ccc1C(=O)N1CCc2ccccc2C1 (nonaromatic ring conformer: 140.70900200282549 kcal/mol)

>  <smiles>  (65) 
C=c1c(=Cc2[nH]c(=O)[nH]c2O)cc(C)n1-c1cc(C(=O)O)ccc1C(=O)N1CCc2ccccc2C1

>  <score_type>  (65) 
oracle

>  <origin>  (65) 
adg

>  <m_score__min__energy>  (65) 
-14.789999999999999

>  <m_primary>  (65) 
energy

$$$$
65:0
     RDKit          3D

 50 53  0  0  0  0  0  0  0  0999 V2000
   54.3810   27.0880   46.3320 H   0  0  0  0  0  0  0  0  0  0  0  0
   55.3130   26.9480   45.9600 O   0  0  0  0  0  0  0  0  0  0  0  0
   56.1540   25.9570   46.4580 C   0  0  0  0  0  0  0  0  0  0  0  0
   55.7590   24.6910   46.6670 N   0  0  0  0  0  0  0  0  0  0  0  0
   56.8910   24.0910   47.0950 C   0  0  0  0  0  0  0  0  0  0  0  0
   56.9380   22.8700   47.3980 O   0  0  0  0  0  0  0  0  0  0  0  0
   57.9700   24.8990   47.1650 N   0  0  0  0  0  0  0  0  0  0  0  0
   57.4870   26.0950   46.7840 C   0  0  0  0  0  0  0  0  0  0  0  0
   58.3270   27.2870   46.6040 C   0  0  0  0  0  0  0  0  0  0  0  0
   59.3049   27.2905   47.1077 H   0  0  0  0  0  0  0  0  0  0  0  0
   58.0080   28.3760   45.8780 C   0  0  0  0  0  0  0  0  0  0  0  0
   57.8410   29.6260   46.4480 C   0  0  0  0  0  0  0  0  0  0  0  0
   57.8909   29.8682   47.5198 H   0  0  0  0  0  0  0  0  0  0  0  0
   57.6000   30.5110   45.4170 C   0  0  0  0  0  0  0  0  0  0  0  0
   57.4850   31.9740   45.5940 C   0  0  0  0  0  0  0  0  0  0  0  0
   56.4770   32.5680   45.1250 O   0  0  0  0  0  0  0  0  0  0  0  0
   58.5160   32.7300   46.2620 N   0  0  0  0  0  0  0  0  0  0  0  0
   58.6130   34.1790   46.0460 C   0  0  0  0  0  0  0  0  0  0  0  0
   58.1924   34.4267   45.0603 H   0  0  0  0  0  0  0  0  0  0  0  0
   58.0516   34.6947   46.8391 H   0  0  0  0  0  0  0  0  0  0  0  0
   60.0810   34.6360   46.0990 C   0  0  0  0  0  0  0  0  0  0  0  0
   60.5566   34.3828   45.1400 H   0  0  0  0  0  0  0  0  0  0  0  0
   60.0697   35.7184   46.2946 H   0  0  0  0  0  0  0  0  0  0  0  0
   60.8740   34.0090   47.1950 N   0  0  0  0  0  0  0  0  0  0  0  0
   62.1780   33.3900   46.8270 C   0  0  0  0  0  0  0  0  0  0  0  0
   62.0541   33.4350   45.7349 H   0  0  0  0  0  0  0  0  0  0  0  0
   63.4280   34.0070   47.4630 C   0  0  0  0  0  0  0  0  0  0  0  0
   64.1982   34.3114   46.7390 H   0  0  0  0  0  0  0  0  0  0  0  0
   63.3593   34.9406   48.0407 H   0  0  0  0  0  0  0  0  0  0  0  0
   63.7160   32.6820   48.1610 C   0  0  0  0  0  0  0  0  0  0  0  0
   64.6542   32.2039   47.8430 H   0  0  0  0  0  0  0  0  0  0  0  0
   63.8630   32.6526   49.2507 H   0  0  0  0  0  0  0  0  0  0  0  0
   62.4650   32.0670   47.5400 C   0  0  0  0  0  0  0  0  0  0  0  0
   62.6665   31.2246   46.8619 H   0  0  0  0  0  0  0  0  0  0  0  0
   61.6996   31.5959   48.1741 H   0  0  0  0  0  0  0  0  0  0  0  0
   60.0910   33.1670   48.1230 C   0  0  0  0  0  0  0  0  0  0  0  0
   60.7820   32.6509   48.8058 H   0  0  0  0  0  0  0  0  0  0  0  0
   59.4015   33.8188   48.6795 H   0  0  0  0  0  0  0  0  0  0  0  0
   59.2600   32.1210   47.3730 C   0  0  0  0  0  0  0  0  0  0  0  0
   59.9326   31.3479   46.9732 H   0  0  0  0  0  0  0  0  0  0  0  0
   58.5375   31.6809   48.0761 H   0  0  0  0  0  0  0  0  0  0  0  0
   57.5750   29.8580   44.2320 N   0  0  0  0  0  0  0  0  0  0  0  0
   57.2850   30.4470   42.9190 C   0  0  0  0  0  0  0  0  0  0  0  0
   56.8028   31.4263   43.0549 H   0  0  0  0  0  0  0  0  0  0  0  0
   58.2232   30.5748   42.3591 H   0  0  0  0  0  0  0  0  0  0  0  0
   56.6117   29.7813   42.3591 H   0  0  0  0  0  0  0  0  0  0  0  0
   57.8090   28.5460   44.4970 C   0  0  0  0  0  0  0  0  0  0  0  0
   57.7590   27.5850   43.5600 C   0  0  0  0  0  0  0  0  0  0  0  0
   57.5962   27.8528   42.5056 H   0  0  0  0  0  0  0  0  0  0  0  0
   57.8809   26.5301   43.8470 H   0  0  0  0  0  0  0  0  0  0  0  0
  1  2  1  0
  2  3  1  0
  3  4  1  0
  4  5  1  0
  5  6  2  0
  5  7  1  0
  7  8  1  0
  8  9  1  0
  9 10  1  0
  9 11  2  0
 11 12  1  0
 12 13  1  0
 12 14  2  0
 14 15  1  0
 15 16  2  0
 15 17  1  0
 17 18  1  0
 18 19  1  0
 18 20  1  0
 18 21  1  0
 21 22  1  0
 21 23  1  0
 21 24  1  0
 24 25  1  0
 25 26  1  0
 25 27  1  0
 27 28  1  0
 27 29  1  0
 27 30  1  0
 30 31  1  0
 30 32  1  0
 30 33  1  0
 33 34  1  0
 33 35  1  0
 24 36  1  0
 36 37  1  0
 36 38  1  0
 36 39  1  0
 39 40  1  0
 39 41  1  0
 14 42  1  0
 42 43  1  0
 43 44  1  0
 43 45  1  0
 43 46  1  0
 42 47  1  0
 47 48  2  0
 48 49  1  0
 48 50  1  0
  8  3  2  0
 47 11  1  0
 39 17  1  0
 33 25  1  0
M  CHG  2   4  -1   7  -1
M  END
>  <UniqueID>  (66) 
60

>  <SMILES>  (66) 
C=c1/c(=C\c2[n-]c(=O)[n-]c2O)cc(C(=O)N2CCN(C3CCC3)CC2)n1C

>  <Energy>  (66) 
199.86429631952788

>  <Genealogy>  (66) 
C=c1c(=Cc2[n-]c(=O)[n-]c2O)cc(C(=O)N2CCN(C3CCC3)CC2)n1C (protonated)
C=c1/c(=C\c2[n-]c(=O)[n-]c2O)cc(C(=O)N2CCN(C3CCC3)CC2)n1C (cis-trans isomerization)
C=c1/c(=C\c2[n-]c(=O)[n-]c2O)cc(C(=O)N2CCN(C3CCC3)CC2)n1C (3D coordinates assigned)
C=c1/c(=C\c2[n-]c(=O)[n-]c2O)cc(C(=O)N2CCN(C3CCC3)CC2)n1C (nonaromatic ring conformer: 199.86429631952788 kcal/mol)

>  <smiles>  (66) 
C=c1c(=Cc2[nH]c(=O)[nH]c2O)cc(C(=O)N2CCN(C3CCC3)CC2)n1C

>  <score_type>  (66) 
oracle

>  <origin>  (66) 
adg

>  <m_score__min__energy>  (66) 
-13.48

>  <m_primary>  (66) 
energy

$$$$
66:0
     RDKit          3D

 53 57  0  0  1  0  0  0  0  0999 V2000
   58.0290   32.7100   43.1500 C   0  0  0  0  0  0  0  0  0  0  0  0
   57.6910   32.6570   44.4250 C   0  0  0  0  0  0  0  0  0  0  0  0
   58.1760   31.6210   45.3260 C   0  0  0  0  0  0  0  0  0  0  0  0
   57.4450   30.6480   45.6980 O   0  0  0  0  0  0  0  0  0  0  0  0
   59.5040   31.6200   45.8600 N   0  0  0  0  0  0  0  0  0  0  0  0
   59.8290   30.5360   46.7290 C   0  0  0  0  0  0  0  0  0  0  0  0
   60.3010   30.7250   48.0100 C   0  0  0  0  0  0  0  0  0  0  0  0
   60.6140   29.6730   48.8450 C   0  0  0  0  0  0  0  0  0  0  0  0
   60.4560   28.3600   48.4030 C   0  0  0  0  0  0  0  0  0  0  0  0
   59.9840   28.1440   47.1240 C   0  0  0  0  0  0  0  0  0  0  0  0
   59.7870   26.8920   46.5780 O   0  0  0  0  0  0  0  0  0  0  0  0
   58.5400   26.3470   46.3110 C   0  0  0  0  0  0  0  0  0  0  0  0
   57.4630   26.9320   46.9800 C   0  0  0  0  0  0  0  0  0  0  0  0
   56.2550   26.4310   46.7440 N   0  0  0  0  0  0  0  0  0  0  0  0
   56.0100   25.4040   45.9070 C   0  0  0  0  0  0  0  0  0  0  0  0
   54.7980   24.9900   45.7460 N   0  0  0  0  0  0  0  0  0  0  0  0
   54.3370   23.7680   46.3420 C   0  0  0  0  0  0  0  0  0  0  0  0
   54.9960   23.1720   47.3960 C   0  0  0  0  0  0  0  0  0  0  0  0
   54.4870   21.9820   47.9230 C   0  0  0  0  0  0  0  0  0  0  0  0
   53.3470   21.4380   47.3790 C   0  0  0  0  0  0  0  0  0  0  0  0
   52.6790   22.0320   46.3180 C   0  0  0  0  0  0  0  0  0  0  0  0
   51.5700   21.7300   45.6060 N   0  0  0  0  0  0  0  0  0  0  0  0
   51.3860   22.6540   44.6950 N   0  0  0  0  0  0  0  0  0  0  0  0
   52.3520   23.6050   44.7580 C   0  0  0  0  0  0  0  0  0  0  0  0
   53.1900   23.2180   45.7960 C   0  0  0  0  0  0  0  0  0  0  0  0
   57.0750   24.8270   45.2470 C   0  0  0  0  0  0  0  0  0  0  0  0
   56.8650   23.7110   44.3280 C   0  0  0  0  0  0  0  0  0  0  0  0
   56.6540   22.4230   44.6630 N   0  0  0  0  0  0  0  0  0  0  0  0
   56.5020   21.6780   43.5440 C   0  0  0  0  0  0  0  0  0  0  0  0
   56.2860   20.4040   43.5070 N   0  0  0  0  0  0  0  0  0  0  0  0
   56.6290   22.5510   42.5300 N   0  0  0  0  0  0  0  0  0  0  0  0
   56.8460   23.7730   42.9790 N   0  0  0  0  0  0  0  0  0  0  0  0
   58.3520   25.3020   45.4500 C   0  0  0  0  0  0  0  0  0  0  0  0
   59.6770   29.2310   46.3040 C   0  0  0  0  0  0  0  0  0  0  0  0
   57.6357   33.5133   42.5097 H   0  0  0  0  0  0  0  0  0  0  0  0
   58.7039   31.9508   42.7279 H   0  0  0  0  0  0  0  0  0  0  0  0
   57.0147   33.4277   44.8234 H   0  0  0  0  0  0  0  0  0  0  0  0
   60.1690   32.3760   45.6100 H   0  0  0  0  0  0  0  0  0  0  0  0
   60.4329   31.7525   48.3799 H   0  0  0  0  0  0  0  0  0  0  0  0
   60.9885   29.8698   49.8604 H   0  0  0  0  0  0  0  0  0  0  0  0
   60.7026   27.5133   49.0604 H   0  0  0  0  0  0  0  0  0  0  0  0
   57.6085   27.7730   47.6739 H   0  0  0  0  0  0  0  0  0  0  0  0
   55.4250   26.8600   47.2410 H   0  0  0  0  0  0  0  0  0  0  0  0
   55.9066   23.6252   47.8149 H   0  0  0  0  0  0  0  0  0  0  0  0
   54.9929   21.4856   48.7642 H   0  0  0  0  0  0  0  0  0  0  0  0
   52.9519   20.5012   47.7989 H   0  0  0  0  0  0  0  0  0  0  0  0
   50.9580   20.8900   45.7590 H   0  0  0  0  0  0  0  0  0  0  0  0
   52.4508   24.4959   44.1205 H   0  0  0  0  0  0  0  0  0  0  0  0
   57.1150   19.8120   43.7400 H   0  0  0  0  0  0  0  0  0  0  0  0
   56.5590   22.2740   41.5140 H   0  0  0  0  0  0  0  0  0  0  0  0
   56.9860   24.6650   42.4620 H   0  0  0  0  0  0  0  0  0  0  0  0
   59.2068   24.8477   44.9276 H   0  0  0  0  0  0  0  0  0  0  0  0
   59.3022   29.0421   45.2872 H   0  0  0  0  0  0  0  0  0  0  0  0
  1  2  2  0
  2  3  1  0
  3  4  2  0
  3  5  1  0
  5  6  1  0
  6  7  2  0
  7  8  1  0
  8  9  2  0
  9 10  1  0
 10 11  1  0
 11 12  1  0
 12 13  2  0
 13 14  1  0
 14 15  1  0
 15 16  2  0
 16 17  1  0
 17 18  2  0
 18 19  1  0
 19 20  2  0
 20 21  1  0
 21 22  1  0
 22 23  1  0
 23 24  2  0
 24 25  1  0
 15 26  1  0
 26 27  1  0
 27 28  2  0
 28 29  1  0
 29 30  2  3
 29 31  1  0
 31 32  1  0
 26 33  2  0
 10 34  2  0
 34  6  1  0
 33 12  1  0
 25 17  1  0
 32 27  1  0
 25 21  2  0
  1 35  1  0
  1 36  1  0
  2 37  1  0
  5 38  1  0
  7 39  1  0
  8 40  1  0
  9 41  1  0
 13 42  1  0
 14 43  1  0
 18 44  1  0
 19 45  1  0
 20 46  1  0
 22 47  1  0
 24 48  1  0
 30 49  1  0
 31 50  1  0
 32 51  1  0
 33 52  1  0
 34 53  1  0
M  END
>  <smiles>  (67) 
C=CC(=O)Nc1cccc(Oc2c[nH]c(=Nc3cccc4[nH]ncc34)c(-c3nc(=N)[nH][nH]3)c2)c1

>  <score_type>  (67) 
oracle

>  <origin>  (67) 
adg

>  <m_score__min__energy>  (67) 
-8.7400000000000002

>  <m_primary>  (67) 
energy

$$$$
67:0
     RDKit          3D

 57 60  0  0  0  0  0  0  0  0999 V2000
   61.9710   31.1150   47.0900 C   0  0  0  0  0  0  0  0  0  0  0  0
   62.7240   32.2630   47.5850 N   0  0  0  0  0  0  0  0  0  0  0  0
   63.1270   33.3380   46.8850 C   0  0  0  0  0  0  0  0  0  0  0  0
   63.7540   34.2260   47.6810 N   0  0  0  0  0  0  0  0  0  0  0  0
   63.7470   33.7260   48.9090 N   0  0  0  0  0  0  0  0  0  0  0  0
   63.1060   32.5420   48.8470 C   0  0  0  0  0  0  0  0  0  0  0  0
   62.9280   31.6340   50.0280 C   0  0  0  0  0  0  0  0  0  0  0  0
   61.4750   31.6480   50.4930 C   0  0  0  0  0  0  0  0  0  0  0  0
   60.9840   30.2800   50.6200 N   0  0  0  0  0  0  0  0  0  0  0  0
   60.3570   29.5340   49.5670 C   0  0  0  0  0  0  0  0  0  0  0  0
   60.6790   28.3260   49.4080 O   0  0  0  0  0  0  0  0  0  0  0  0
   59.3300   30.1380   48.6530 C   0  0  0  0  0  0  0  0  0  0  0  0
   58.5980   31.1810   49.3640 N   0  0  0  0  0  0  0  0  0  0  0  0
   58.7780   32.5820   49.1290 C   0  0  0  0  0  0  0  0  0  0  0  0
   58.9160   33.3530   50.1160 O   0  0  0  0  0  0  0  0  0  0  0  0
   58.8500   33.1330   47.7600 C   0  0  0  0  0  0  0  0  0  0  0  0
   59.4520   34.3810   47.5310 C   0  0  0  0  0  0  0  0  0  0  0  0
   59.5190   34.9050   46.2390 C   0  0  0  0  0  0  0  0  0  0  0  0
   58.9620   34.2020   45.1670 C   0  0  0  0  0  0  0  0  0  0  0  0
   58.3170   32.9730   45.3840 C   0  0  0  0  0  0  0  0  0  0  0  0
   57.7180   32.2110   44.2260 C   0  0  0  0  0  0  0  0  0  0  0  0
   57.2770   30.8310   44.6430 C   0  0  0  0  0  0  0  0  0  0  0  0
   55.9600   30.5140   44.5100 N   0  0  0  0  0  0  0  0  0  0  0  0
   55.4850   29.3130   44.8370 N   0  0  0  0  0  0  0  0  0  0  0  0
   56.2910   28.3340   45.3160 C   0  0  0  0  0  0  0  0  0  0  0  0
   55.7950   27.2170   45.6230 O   0  0  0  0  0  0  0  0  0  0  0  0
   57.6630   28.5810   45.4620 C   0  0  0  0  0  0  0  0  0  0  0  0
   58.1700   29.8460   45.1240 C   0  0  0  0  0  0  0  0  0  0  0  0
   59.6430   30.0930   45.3620 C   0  0  0  0  0  0  0  0  0  0  0  0
   60.4870   28.9130   44.8490 C   0  0  0  0  0  0  0  0  0  0  0  0
   59.9140   27.5140   45.1950 C   0  0  0  0  0  0  0  0  0  0  0  0
   58.6150   27.5480   46.0150 C   0  0  0  0  0  0  0  0  0  0  0  0
   58.2750   32.4380   46.6840 C   0  0  0  0  0  0  0  0  0  0  0  0
   61.5889   30.5325   47.9413 H   0  0  0  0  0  0  0  0  0  0  0  0
   61.1273   31.4662   46.4778 H   0  0  0  0  0  0  0  0  0  0  0  0
   62.6293   30.4810   46.4778 H   0  0  0  0  0  0  0  0  0  0  0  0
   62.9661   33.4744   45.8054 H   0  0  0  0  0  0  0  0  0  0  0  0
   63.2079   30.6091   49.7431 H   0  0  0  0  0  0  0  0  0  0  0  0
   63.5697   31.9856   50.8493 H   0  0  0  0  0  0  0  0  0  0  0  0
   61.4085   32.1520   51.4685 H   0  0  0  0  0  0  0  0  0  0  0  0
   60.8625   32.1869   49.7551 H   0  0  0  0  0  0  0  0  0  0  0  0
   59.8310   30.5745   47.7764 H   0  0  0  0  0  0  0  0  0  0  0  0
   58.6283   29.3574   48.3240 H   0  0  0  0  0  0  0  0  0  0  0  0
   59.8729   34.9485   48.3741 H   0  0  0  0  0  0  0  0  0  0  0  0
   60.0111   35.8731   46.0641 H   0  0  0  0  0  0  0  0  0  0  0  0
   59.0290   34.6129   44.1488 H   0  0  0  0  0  0  0  0  0  0  0  0
   56.8472   32.7650   43.8455 H   0  0  0  0  0  0  0  0  0  0  0  0
   58.4867   32.1072   43.4461 H   0  0  0  0  0  0  0  0  0  0  0  0
   59.9448   31.0088   44.8327 H   0  0  0  0  0  0  0  0  0  0  0  0
   59.8111   30.2016   46.4436 H   0  0  0  0  0  0  0  0  0  0  0  0
   60.5601   28.9932   43.7544 H   0  0  0  0  0  0  0  0  0  0  0  0
   61.4628   28.9845   45.3517 H   0  0  0  0  0  0  0  0  0  0  0  0
   59.7134   26.9814   44.2537 H   0  0  0  0  0  0  0  0  0  0  0  0
   60.6673   27.0105   45.8188 H   0  0  0  0  0  0  0  0  0  0  0  0
   58.1368   26.5582   45.9755 H   0  0  0  0  0  0  0  0  0  0  0  0
   58.8593   27.8121   47.0545 H   0  0  0  0  0  0  0  0  0  0  0  0
   57.7878   31.4674   46.8592 H   0  0  0  0  0  0  0  0  0  0  0  0
  1  2  1  0
  2  3  1  0
  3  4  2  0
  4  5  1  0
  5  6  2  0
  6  7  1  0
  7  8  1  0
  8  9  1  0
  9 10  1  0
 10 11  2  0
 10 12  1  0
 12 13  1  0
 13 14  1  0
 14 15  2  0
 14 16  1  0
 16 17  2  0
 17 18  1  0
 18 19  2  0
 19 20  1  0
 20 21  1  0
 21 22  1  0
 22 23  2  0
 23 24  1  0
 24 25  1  0
 25 26  2  0
 25 27  1  0
 27 28  2  0
 28 29  1  0
 29 30  1  0
 30 31  1  0
 31 32  1  0
 20 33  2  0
  6  2  1  0
 33 16  1  0
 28 22  1  0
 32 27  1  0
  1 34  1  0
  1 35  1  0
  1 36  1  0
  3 37  1  0
  7 38  1  0
  7 39  1  0
  8 40  1  0
  8 41  1  0
 12 42  1  0
 12 43  1  0
 17 44  1  0
 18 45  1  0
 19 46  1  0
 21 47  1  0
 21 48  1  0
 29 49  1  0
 29 50  1  0
 30 51  1  0
 30 52  1  0
 31 53  1  0
 31 54  1  0
 32 55  1  0
 32 56  1  0
 33 57  1  0
M  CHG  3   9  -1  13  -1  24  -1
M  END
>  <UniqueID>  (68) 
61

>  <SMILES>  (68) 
Cn1cnnc1CC[N-]C(=O)C[N-]C(=O)c1cccc(Cc2n[n-]c(=O)c3c2CCCC3)c1

>  <Energy>  (68) 
99.90596500290691

>  <Genealogy>  (68) 
Cn1cnnc1CC[N-]C(=O)C[N-]C(=O)c1cccc(Cc2n[n-]c(=O)c3c2CCCC3)c1 (protonated)
Cn1cnnc1CC[N-]C(=O)C[N-]C(=O)c1cccc(Cc2n[n-]c(=O)c3c2CCCC3)c1 (3D coordinates assigned)
Cn1cnnc1CC[N-]C(=O)C[N-]C(=O)c1cccc(Cc2n[n-]c(=O)c3c2CCCC3)c1 (nonaromatic ring conformer: 99.90596500290691 kcal/mol)

>  <smiles>  (68) 
Cn1cnnc1CCNC(=O)CNC(=O)c1cccc(Cc2n[nH]c(=O)c3c2CCCC3)c1

>  <score_type>  (68) 
oracle

>  <origin>  (68) 
adg

>  <m_score__min__energy>  (68) 
-15.49

>  <m_primary>  (68) 
energy

$$$$
68:0
     RDKit          3D

 41 43  0  0  0  0  0  0  0  0999 V2000
   56.4560   27.8690   44.7240 H   0  0  0  0  0  0  0  0  0  0  0  0
   56.1240   27.6910   45.6620 O   0  0  0  0  0  0  0  0  0  0  0  0
   55.9390   26.3880   46.1130 C   0  0  0  0  0  0  0  0  0  0  0  0
   54.9040   25.6100   45.7550 N   0  0  0  0  0  0  0  0  0  0  0  0
   55.1760   24.4460   46.3850 C   0  0  0  0  0  0  0  0  0  0  0  0
   54.4300   23.4370   46.2960 O   0  0  0  0  0  0  0  0  0  0  0  0
   56.3170   24.4470   47.1070 N   0  0  0  0  0  0  0  0  0  0  0  0
   56.7830   25.6980   46.9530 C   0  0  0  0  0  0  0  0  0  0  0  0
   58.0870   26.1480   47.4610 C   0  0  0  0  0  0  0  0  0  0  0  0
   58.5204   25.5839   48.3000 H   0  0  0  0  0  0  0  0  0  0  0  0
   58.7980   27.1910   46.9890 C   0  0  0  0  0  0  0  0  0  0  0  0
   59.5890   27.1070   45.8550 C   0  0  0  0  0  0  0  0  0  0  0  0
   59.7697   26.2077   45.2479 H   0  0  0  0  0  0  0  0  0  0  0  0
   60.1070   28.3660   45.6320 C   0  0  0  0  0  0  0  0  0  0  0  0
   61.0390   28.7210   44.5150 C   0  0  0  0  0  0  0  0  0  0  0  0
   61.9901   29.0833   44.9322 H   0  0  0  0  0  0  0  0  0  0  0  0
   61.2254   27.8309   43.8961 H   0  0  0  0  0  0  0  0  0  0  0  0
   60.5860   29.5096   43.8961 H   0  0  0  0  0  0  0  0  0  0  0  0
   59.7060   29.2140   46.6040 N   0  0  0  0  0  0  0  0  0  0  0  0
   60.1210   30.5820   46.7460 C   0  0  0  0  0  0  0  0  0  0  0  0
   61.4630   30.8760   47.0250 C   0  0  0  0  0  0  0  0  0  0  0  0
   62.1878   30.0586   47.1538 H   0  0  0  0  0  0  0  0  0  0  0  0
   61.8830   32.2030   47.1400 C   0  0  0  0  0  0  0  0  0  0  0  0
   63.5640   32.5620   47.4930 Cl  0  0  0  0  0  0  0  0  0  0  0  0
   60.9670   33.2450   46.9730 C   0  0  0  0  0  0  0  0  0  0  0  0
   61.3005   34.2890   47.0675 H   0  0  0  0  0  0  0  0  0  0  0  0
   59.6270   32.9640   46.6860 C   0  0  0  0  0  0  0  0  0  0  0  0
   58.4970   34.2970   46.4890 Cl  0  0  0  0  0  0  0  0  0  0  0  0
   59.1990   31.6300   46.5680 C   0  0  0  0  0  0  0  0  0  0  0  0
   57.8400   31.3290   46.2540 N   0  0  0  0  0  0  0  0  0  0  0  0
   57.3690   30.8440   44.6610 S   0  0  0  0  0  0  0  0  0  0  0  0
   57.8790   29.4570   44.3910 O   0  0  0  0  0  0  0  0  0  0  0  0
   55.8710   30.8520   44.5440 O   0  0  0  0  0  0  0  0  0  0  0  0
   58.0520   31.9810   43.4780 C   0  0  0  0  0  0  0  0  0  0  0  0
   58.5484   32.8073   44.0079 H   0  0  0  0  0  0  0  0  0  0  0  0
   58.7851   31.4572   42.8470 H   0  0  0  0  0  0  0  0  0  0  0  0
   57.2453   32.3822   42.8470 H   0  0  0  0  0  0  0  0  0  0  0  0
   58.9240   28.5080   47.4590 C   0  0  0  0  0  0  0  0  0  0  0  0
   58.4960   28.9980   48.6340 C   0  0  0  0  0  0  0  0  0  0  0  0
   58.6598   30.0574   48.8805 H   0  0  0  0  0  0  0  0  0  0  0  0
   57.9817   28.3399   49.3498 H   0  0  0  0  0  0  0  0  0  0  0  0
  1  2  1  0
  2  3  1  0
  3  4  1  0
  4  5  1  0
  5  6  2  0
  5  7  1  0
  7  8  1  0
  8  9  1  0
  9 10  1  0
  9 11  2  0
 11 12  1  0
 12 13  1  0
 12 14  2  0
 14 15  1  0
 15 16  1  0
 15 17  1  0
 15 18  1  0
 14 19  1  0
 19 20  1  0
 20 21  2  0
 21 22  1  0
 21 23  1  0
 23 24  1  0
 23 25  2  0
 25 26  1  0
 25 27  1  0
 27 28  1  0
 27 29  2  0
 29 30  1  0
 30 31  1  0
 31 32  2  0
 31 33  2  0
 31 34  1  0
 34 35  1  0
 34 36  1  0
 34 37  1  0
 19 38  1  0
 38 39  2  0
 39 40  1  0
 39 41  1  0
  8  3  2  0
 38 11  1  0
 29 20  1  0
M  CHG  3   4  -1   7  -1  30  -1
M  END
>  <UniqueID>  (69) 
62

>  <SMILES>  (69) 
C=c1/c(=C\c2[n-]c(=O)[n-]c2O)cc(C)n1-c1cc(Cl)cc(Cl)c1[N-]S(C)(=O)=O

>  <Energy>  (69) 
121.528456358368

>  <Genealogy>  (69) 
C=c1c(=Cc2[n-]c(=O)[n-]c2O)cc(C)n1-c1cc(Cl)cc(Cl)c1[N-]S(C)(=O)=O (protonated)
C=c1/c(=C\c2[n-]c(=O)[n-]c2O)cc(C)n1-c1cc(Cl)cc(Cl)c1[N-]S(C)(=O)=O (cis-trans isomerization)
C=c1/c(=C\c2[n-]c(=O)[n-]c2O)cc(C)n1-c1cc(Cl)cc(Cl)c1[N-]S(C)(=O)=O (3D coordinates assigned)
C=c1/c(=C\c2[n-]c(=O)[n-]c2O)cc(C)n1-c1cc(Cl)cc(Cl)c1[N-]S(C)(=O)=O (optimized conformer: 121.528456358368 kcal/mol)

>  <smiles>  (69) 
C=c1c(=Cc2[nH]c(=O)[nH]c2O)cc(C)n1-c1cc(Cl)cc(Cl)c1NS(C)(=O)=O

>  <score_type>  (69) 
oracle

>  <origin>  (69) 
adg

>  <m_score__min__energy>  (69) 
-15.16

>  <m_primary>  (69) 
energy

$$$$
69:0
     RDKit          3D

 33 35  0  0  0  0  0  0  0  0999 V2000
   57.8650   31.8520   43.1710 O   0  0  0  0  0  0  0  0  0  0  0  0
   57.2360   31.8390   44.2620 C   0  0  0  0  0  0  0  0  0  0  0  0
   57.0050   33.1240   44.9580 C   0  0  0  0  0  0  0  0  0  0  0  0
   57.5660   33.5000   46.1200 C   0  0  0  0  0  0  0  0  0  0  0  0
   58.9920   33.3320   46.4640 C   0  0  0  0  0  0  0  0  0  0  0  0
   59.9040   34.3870   46.2900 C   0  0  0  0  0  0  0  0  0  0  0  0
   61.2470   34.2190   46.6410 C   0  0  0  0  0  0  0  0  0  0  0  0
   61.6920   32.9930   47.1460 C   0  0  0  0  0  0  0  0  0  0  0  0
   63.5200   32.7730   47.6480 Br  0  0  0  0  0  0  0  0  0  0  0  0
   60.7940   31.9280   47.2830 C   0  0  0  0  0  0  0  0  0  0  0  0
   59.4500   32.0930   46.9340 C   0  0  0  0  0  0  0  0  0  0  0  0
   56.8000   30.6020   44.8470 N   0  0  0  0  0  0  0  0  0  0  0  0
   57.5160   29.5640   45.1650 C   0  0  0  0  0  0  0  0  0  0  0  0
   56.9780   28.4990   45.7920 N   0  0  0  0  0  0  0  0  0  0  0  0
   57.8990   27.5230   46.0210 C   0  0  0  0  0  0  0  0  0  0  0  0
   57.5320   26.2030   46.6350 C   0  0  0  0  0  0  0  0  0  0  0  0
   56.1420   25.7950   46.2550 C   0  0  0  0  0  0  0  0  0  0  0  0
   55.1480   26.6700   46.0090 N   0  0  0  0  0  0  0  0  0  0  0  0
   54.1000   25.9580   45.6360 N   0  0  0  0  0  0  0  0  0  0  0  0
   54.4960   24.6740   45.6570 C   0  0  0  0  0  0  0  0  0  0  0  0
   53.7420   23.7140   45.3500 O   0  0  0  0  0  0  0  0  0  0  0  0
   55.7770   24.5150   46.0350 N   0  0  0  0  0  0  0  0  0  0  0  0
   59.1800   27.8020   45.5480 C   0  0  0  0  0  0  0  0  0  0  0  0
   59.1550   29.3300   44.8430 S   0  0  0  0  0  0  0  0  0  0  0  0
   56.3129   33.8345   44.4824 H   0  0  0  0  0  0  0  0  0  0  0  0
   56.9134   33.9683   46.8716 H   0  0  0  0  0  0  0  0  0  0  0  0
   59.5606   35.3469   45.8768 H   0  0  0  0  0  0  0  0  0  0  0  0
   61.9547   35.0524   46.5198 H   0  0  0  0  0  0  0  0  0  0  0  0
   61.1464   30.9590   47.6661 H   0  0  0  0  0  0  0  0  0  0  0  0
   58.7507   31.2491   47.0284 H   0  0  0  0  0  0  0  0  0  0  0  0
   58.2389   25.4361   46.2855 H   0  0  0  0  0  0  0  0  0  0  0  0
   57.5778   26.3039   47.7294 H   0  0  0  0  0  0  0  0  0  0  0  0
   60.0547   27.1392   45.6225 H   0  0  0  0  0  0  0  0  0  0  0  0
  1  2  2  0
  2  3  1  0
  3  4  2  3
  4  5  1  0
  5  6  2  0
  6  7  1  0
  7  8  2  0
  8  9  1  0
  8 10  1  0
 10 11  2  0
  2 12  1  0
 12 13  2  3
 13 14  1  0
 14 15  1  0
 15 16  1  0
 16 17  1  0
 17 18  2  0
 18 19  1  0
 19 20  1  0
 20 21  2  0
 20 22  1  0
 15 23  2  0
 23 24  1  0
 11  5  1  0
 24 13  1  0
 22 17  1  0
  3 25  1  0
  4 26  1  0
  6 27  1  0
  7 28  1  0
 10 29  1  0
 11 30  1  0
 16 31  1  0
 16 32  1  0
 23 33  1  0
M  CHG  3  14  -1  19  -1  22  -1
M  END
>  <UniqueID>  (70) 
63

>  <SMILES>  (70) 
O=C(C=Cc1ccc(Br)cc1)N=c1[n-]c(Cc2n[n-]c(=O)[n-]2)cs1

>  <Energy>  (70) 
106.00724931949762

>  <Genealogy>  (70) 
O=C(C=Cc1ccc(Br)cc1)N=c1[n-]c(Cc2n[n-]c(=O)[n-]2)cs1 (protonated)
O=C(C=Cc1ccc(Br)cc1)N=c1[n-]c(Cc2n[n-]c(=O)[n-]2)cs1 (3D coordinates assigned)
O=C(C=Cc1ccc(Br)cc1)N=c1[n-]c(Cc2n[n-]c(=O)[n-]2)cs1 (optimized conformer: 106.00724931949762 kcal/mol)

>  <smiles>  (70) 
O=C(C=Cc1ccc(Br)cc1)N=c1[nH]c(Cc2n[nH]c(=O)[nH]2)cs1

>  <score_type>  (70) 
oracle

>  <origin>  (70) 
adg

>  <m_score__min__energy>  (70) 
-14.85

>  <m_primary>  (70) 
energy

$$$$
70:0
     RDKit          3D

 52 56  0  0  0  0  0  0  0  0999 V2000
   56.2970   29.1920   44.9670 C   0  0  0  0  0  0  0  0  0  0  0  0
   57.6000   28.8790   45.0310 C   0  0  0  0  0  0  0  0  0  0  0  0
   58.1660   27.5960   44.9930 C   0  0  0  0  0  0  0  0  0  0  0  0
   57.6330   26.4090   44.6480 C   0  0  0  0  0  0  0  0  0  0  0  0
   57.1290   25.3970   45.5900 C   0  0  0  0  0  0  0  0  0  0  0  0
   57.8660   24.3930   46.1040 N   0  0  0  0  0  0  0  0  0  0  0  0
   57.0320   23.8220   47.0000 C   0  0  0  0  0  0  0  0  0  0  0  0
   57.3600   22.8200   47.6870 O   0  0  0  0  0  0  0  0  0  0  0  0
   55.8240   24.4150   47.1100 N   0  0  0  0  0  0  0  0  0  0  0  0
   55.9090   25.4200   46.2210 C   0  0  0  0  0  0  0  0  0  0  0  0
   54.8940   26.3420   45.9890 O   0  0  0  0  0  0  0  0  0  0  0  0
   59.4910   27.7460   45.3720 C   0  0  0  0  0  0  0  0  0  0  0  0
   59.7080   29.0980   45.5410 C   0  0  0  0  0  0  0  0  0  0  0  0
   61.0170   29.7150   45.9300 C   0  0  0  0  0  0  0  0  0  0  0  0
   58.5660   29.7860   45.3260 N   0  0  0  0  0  0  0  0  0  0  0  0
   58.4140   31.2130   45.4280 C   0  0  0  0  0  0  0  0  0  0  0  0
   58.0800   31.9500   44.2830 C   0  0  0  0  0  0  0  0  0  0  0  0
   57.9670   33.3400   44.3450 C   0  0  0  0  0  0  0  0  0  0  0  0
   58.1860   34.0060   45.5500 C   0  0  0  0  0  0  0  0  0  0  0  0
   58.5140   33.2840   46.7010 C   0  0  0  0  0  0  0  0  0  0  0  0
   58.6340   31.8850   46.6560 C   0  0  0  0  0  0  0  0  0  0  0  0
   58.9370   31.1400   47.9040 C   0  0  0  0  0  0  0  0  0  0  0  0
   58.5570   29.9430   48.0180 O   0  0  0  0  0  0  0  0  0  0  0  0
   59.6550   31.7600   48.9900 N   0  0  0  0  0  0  0  0  0  0  0  0
   59.0670   31.7770   50.3390 C   0  0  0  0  0  0  0  0  0  0  0  0
   59.2820   33.1060   51.0030 C   0  0  0  0  0  0  0  0  0  0  0  0
   58.4960   33.4990   51.9030 O   0  0  0  0  0  0  0  0  0  0  0  0
   60.4250   33.8930   50.6670 N   0  0  0  0  0  0  0  0  0  0  0  0
   61.2830   33.5050   49.5930 C   0  0  0  0  0  0  0  0  0  0  0  0
   62.4800   34.1940   49.3710 C   0  0  0  0  0  0  0  0  0  0  0  0
   63.3260   33.8090   48.3280 C   0  0  0  0  0  0  0  0  0  0  0  0
   62.9780   32.7340   47.5060 C   0  0  0  0  0  0  0  0  0  0  0  0
   61.7790   32.0470   47.7180 C   0  0  0  0  0  0  0  0  0  0  0  0
   60.9120   32.4360   48.7570 C   0  0  0  0  0  0  0  0  0  0  0  0
   55.9817   30.2451   45.0076 H   0  0  0  0  0  0  0  0  0  0  0  0
   55.5440   28.3956   44.8740 H   0  0  0  0  0  0  0  0  0  0  0  0
   57.5690   26.1766   43.5747 H   0  0  0  0  0  0  0  0  0  0  0  0
   54.3620   26.7270   46.7590 H   0  0  0  0  0  0  0  0  0  0  0  0
   60.2280   26.9414   45.5113 H   0  0  0  0  0  0  0  0  0  0  0  0
   61.0938   29.7512   47.0267 H   0  0  0  0  0  0  0  0  0  0  0  0
   61.8420   29.1109   45.5244 H   0  0  0  0  0  0  0  0  0  0  0  0
   61.0761   30.7358   45.5244 H   0  0  0  0  0  0  0  0  0  0  0  0
   57.9059   31.4296   43.3297 H   0  0  0  0  0  0  0  0  0  0  0  0
   57.7048   33.9106   43.4418 H   0  0  0  0  0  0  0  0  0  0  0  0
   58.1005   35.1017   45.5950 H   0  0  0  0  0  0  0  0  0  0  0  0
   58.6795   33.8155   47.6497 H   0  0  0  0  0  0  0  0  0  0  0  0
   57.9868   31.5834   50.2630 H   0  0  0  0  0  0  0  0  0  0  0  0
   59.5562   30.9997   50.9443 H   0  0  0  0  0  0  0  0  0  0  0  0
   62.7554   35.0397   50.0182 H   0  0  0  0  0  0  0  0  0  0  0  0
   64.2664   34.3524   48.1538 H   0  0  0  0  0  0  0  0  0  0  0  0
   63.6491   32.4275   46.6901 H   0  0  0  0  0  0  0  0  0  0  0  0
   61.5118   31.1990   47.0704 H   0  0  0  0  0  0  0  0  0  0  0  0
  1  2  2  0
  2  3  1  0
  3  4  2  3
  4  5  1  0
  5  6  1  0
  6  7  1  0
  7  8  2  0
  7  9  1  0
  9 10  1  0
 10 11  1  0
  3 12  1  0
 12 13  2  0
 13 14  1  0
 13 15  1  0
 15 16  1  0
 16 17  2  0
 17 18  1  0
 18 19  2  0
 19 20  1  0
 20 21  2  0
 21 22  1  0
 22 23  2  0
 22 24  1  0
 24 25  1  0
 25 26  1  0
 26 27  2  0
 26 28  1  0
 28 29  1  0
 29 30  2  0
 30 31  1  0
 31 32  2  0
 32 33  1  0
 33 34  2  0
 15  2  1  0
 21 16  1  0
 34 24  1  0
 10  5  2  0
 34 29  1  0
  1 35  1  0
  1 36  1  0
  4 37  1  0
 11 38  1  0
 12 39  1  0
 14 40  1  0
 14 41  1  0
 14 42  1  0
 17 43  1  0
 18 44  1  0
 19 45  1  0
 20 46  1  0
 25 47  1  0
 25 48  1  0
 30 49  1  0
 31 50  1  0
 32 51  1  0
 33 52  1  0
M  CHG  3   6  -1   9  -1  28  -1
M  END
>  <UniqueID>  (71) 
64

>  <SMILES>  (71) 
C=c1c(=Cc2[n-]c(=O)[n-]c2O)cc(C)n1-c1ccccc1C(=O)N1CC(=O)[N-]c2ccccc21

>  <Energy>  (71) 
141.21749376077204

>  <Genealogy>  (71) 
C=c1c(=Cc2[n-]c(=O)[n-]c2O)cc(C)n1-c1ccccc1C(=O)N1CC(=O)[N-]c2ccccc21 (protonated)
C=c1c(=Cc2[n-]c(=O)[n-]c2O)cc(C)n1-c1ccccc1C(=O)N1CC(=O)[N-]c2ccccc21 (3D coordinates assigned)
C=c1c(=Cc2[n-]c(=O)[n-]c2O)cc(C)n1-c1ccccc1C(=O)N1CC(=O)[N-]c2ccccc21 (nonaromatic ring conformer: 141.21749376077204 kcal/mol)

>  <smiles>  (71) 
C=c1c(=Cc2[nH]c(=O)[nH]c2O)cc(C)n1-c1ccccc1C(=O)N1CC(=O)Nc2ccccc21

>  <score_type>  (71) 
oracle

>  <origin>  (71) 
adg

>  <m_score__min__energy>  (71) 
-15.710000000000001

>  <m_primary>  (71) 
energy

$$$$
71:0
     RDKit          3D

 58 61  0  0  0  0  0  0  0  0999 V2000
   67.5200   32.4830   51.2850 C   0  0  0  0  0  0  0  0  0  0  0  0
   66.1310   32.2220   50.7790 C   0  0  0  0  0  0  0  0  0  0  0  0
   65.3640   31.1920   51.3430 C   0  0  0  0  0  0  0  0  0  0  0  0
   64.0810   30.9230   50.8570 C   0  0  0  0  0  0  0  0  0  0  0  0
   63.5580   31.6720   49.7980 C   0  0  0  0  0  0  0  0  0  0  0  0
   64.3140   32.7090   49.2250 C   0  0  0  0  0  0  0  0  0  0  0  0
   63.7750   33.4820   48.0580 C   0  0  0  0  0  0  0  0  0  0  0  0
   62.2910   33.3260   47.9900 C   0  0  0  0  0  0  0  0  0  0  0  0
   61.8080   32.4010   47.2840 O   0  0  0  0  0  0  0  0  0  0  0  0
   61.4370   34.1790   48.7720 N   0  0  0  0  0  0  0  0  0  0  0  0
   59.9790   34.1050   48.7170 C   0  0  0  0  0  0  0  0  0  0  0  0
   59.5150   34.0990   47.2830 C   0  0  0  0  0  0  0  0  0  0  0  0
   59.7050   35.2220   46.4650 C   0  0  0  0  0  0  0  0  0  0  0  0
   59.2750   35.2040   45.1350 C   0  0  0  0  0  0  0  0  0  0  0  0
   58.6670   34.0640   44.6040 C   0  0  0  0  0  0  0  0  0  0  0  0
   58.4860   32.9170   45.4020 C   0  0  0  0  0  0  0  0  0  0  0  0
   57.8730   31.6780   44.8400 C   0  0  0  0  0  0  0  0  0  0  0  0
   57.3880   31.6470   43.5200 C   0  0  0  0  0  0  0  0  0  0  0  0
   56.8890   30.4610   42.9770 C   0  0  0  0  0  0  0  0  0  0  0  0
   56.8930   29.2830   43.7280 C   0  0  0  0  0  0  0  0  0  0  0  0
   57.3730   29.2860   45.0490 C   0  0  0  0  0  0  0  0  0  0  0  0
   57.4830   28.0260   45.8190 C   0  0  0  0  0  0  0  0  0  0  0  0
   57.7380   28.0570   47.0540 O   0  0  0  0  0  0  0  0  0  0  0  0
   57.2580   26.7730   45.1690 N   0  0  0  0  0  0  0  0  0  0  0  0
   56.2040   25.5390   45.7730 S   0  0  0  0  0  0  0  0  0  0  0  0
   56.4990   25.2870   47.2250 O   0  0  0  0  0  0  0  0  0  0  0  0
   54.7680   25.9620   45.6210 O   0  0  0  0  0  0  0  0  0  0  0  0
   56.4870   24.0840   44.8370 C   0  0  0  0  0  0  0  0  0  0  0  0
   55.9550   23.7910   43.5910 C   0  0  0  0  0  0  0  0  0  0  0  0
   56.3960   22.5620   43.0840 C   0  0  0  0  0  0  0  0  0  0  0  0
   57.2750   21.8930   43.9280 C   0  0  0  0  0  0  0  0  0  0  0  0
   57.5070   22.8300   45.3050 S   0  0  0  0  0  0  0  0  0  0  0  0
   57.8300   30.4950   45.6040 C   0  0  0  0  0  0  0  0  0  0  0  0
   58.9210   32.9480   46.7440 C   0  0  0  0  0  0  0  0  0  0  0  0
   65.6060   32.9720   49.7100 C   0  0  0  0  0  0  0  0  0  0  0  0
   67.5157   32.4822   52.3850 H   0  0  0  0  0  0  0  0  0  0  0  0
   68.1969   31.6963   50.9204 H   0  0  0  0  0  0  0  0  0  0  0  0
   67.8652   33.4617   50.9204 H   0  0  0  0  0  0  0  0  0  0  0  0
   65.7733   30.5939   52.1705 H   0  0  0  0  0  0  0  0  0  0  0  0
   63.4809   30.1196   51.3091 H   0  0  0  0  0  0  0  0  0  0  0  0
   62.5522   31.4489   49.4125 H   0  0  0  0  0  0  0  0  0  0  0  0
   64.0252   34.5464   48.1781 H   0  0  0  0  0  0  0  0  0  0  0  0
   64.2235   33.0983   47.1298 H   0  0  0  0  0  0  0  0  0  0  0  0
   61.8690   34.9350   49.3490 H   0  0  0  0  0  0  0  0  0  0  0  0
   59.6425   33.1822   49.2123 H   0  0  0  0  0  0  0  0  0  0  0  0
   59.5542   34.9808   49.2294 H   0  0  0  0  0  0  0  0  0  0  0  0
   60.1939   36.1198   46.8711 H   0  0  0  0  0  0  0  0  0  0  0  0
   59.4163   36.0930   44.5027 H   0  0  0  0  0  0  0  0  0  0  0  0
   58.3278   34.0617   43.5576 H   0  0  0  0  0  0  0  0  0  0  0  0
   57.4018   32.5631   42.9113 H   0  0  0  0  0  0  0  0  0  0  0  0
   56.4904   30.4544   41.9518 H   0  0  0  0  0  0  0  0  0  0  0  0
   56.5188   28.3490   43.2835 H   0  0  0  0  0  0  0  0  0  0  0  0
   55.2592   24.4543   43.0563 H   0  0  0  0  0  0  0  0  0  0  0  0
   56.0768   22.1637   42.1096 H   0  0  0  0  0  0  0  0  0  0  0  0
   57.7400   20.9162   43.7289 H   0  0  0  0  0  0  0  0  0  0  0  0
   58.1597   30.5172   46.6532 H   0  0  0  0  0  0  0  0  0  0  0  0
   58.7926   32.0572   47.3764 H   0  0  0  0  0  0  0  0  0  0  0  0
   66.2106   33.7685   49.2517 H   0  0  0  0  0  0  0  0  0  0  0  0
  1  2  1  0
  2  3  2  0
  3  4  1  0
  4  5  2  0
  5  6  1  0
  6  7  1  0
  7  8  1  0
  8  9  2  0
  8 10  1  0
 10 11  1  0
 11 12  1  0
 12 13  2  0
 13 14  1  0
 14 15  2  0
 15 16  1  0
 16 17  1  0
 17 18  2  0
 18 19  1  0
 19 20  2  0
 20 21  1  0
 21 22  1  0
 22 23  2  0
 22 24  1  0
 24 25  1  0
 25 26  2  0
 25 27  2  0
 25 28  1  0
 28 29  2  0
 29 30  1  0
 30 31  2  0
 31 32  1  0
 21 33  2  0
 16 34  2  0
  6 35  2  0
 35  2  1  0
 34 12  1  0
 33 17  1  0
 32 28  1  0
  1 36  1  0
  1 37  1  0
  1 38  1  0
  3 39  1  0
  4 40  1  0
  5 41  1  0
  7 42  1  0
  7 43  1  0
 10 44  1  0
 11 45  1  0
 11 46  1  0
 13 47  1  0
 14 48  1  0
 15 49  1  0
 18 50  1  0
 19 51  1  0
 20 52  1  0
 29 53  1  0
 30 54  1  0
 31 55  1  0
 33 56  1  0
 34 57  1  0
 35 58  1  0
M  CHG  1  24  -1
M  END
>  <UniqueID>  (72) 
65

>  <SMILES>  (72) 
Cc1cccc(CC(=O)NCc2cccc(-c3cccc(C(=O)[N-]S(=O)(=O)c4cccs4)c3)c2)c1

>  <Energy>  (72) 
93.10778939821058

>  <Genealogy>  (72) 
Cc1cccc(CC(=O)NCc2cccc(-c3cccc(C(=O)[N-]S(=O)(=O)c4cccs4)c3)c2)c1 (protonated)
Cc1cccc(CC(=O)NCc2cccc(-c3cccc(C(=O)[N-]S(=O)(=O)c4cccs4)c3)c2)c1 (3D coordinates assigned)
Cc1cccc(CC(=O)NCc2cccc(-c3cccc(C(=O)[N-]S(=O)(=O)c4cccs4)c3)c2)c1 (optimized conformer: 93.10778939821058 kcal/mol)

>  <smiles>  (72) 
Cc1cccc(CC(=O)NCc2cccc(-c3cccc(C(=O)NS(=O)(=O)c4cccs4)c3)c2)c1

>  <score_type>  (72) 
oracle

>  <origin>  (72) 
adg

>  <m_score__min__energy>  (72) 
-12.880000000000001

>  <m_primary>  (72) 
energy

$$$$
72:0
     RDKit          3D

 57 61  0  0  0  0  0  0  0  0999 V2000
   55.1390   27.4750   45.5840 H   0  0  0  0  0  0  0  0  0  0  0  0
   54.8930   26.5770   45.9850 O   0  0  0  0  0  0  0  0  0  0  0  0
   55.8770   25.7090   46.4460 C   0  0  0  0  0  0  0  0  0  0  0  0
   55.6210   24.6370   47.2140 N   0  0  0  0  0  0  0  0  0  0  0  0
   56.8390   24.0700   47.3520 C   0  0  0  0  0  0  0  0  0  0  0  0
   57.0260   23.0160   48.0120 O   0  0  0  0  0  0  0  0  0  0  0  0
   57.8400   24.7150   46.7170 N   0  0  0  0  0  0  0  0  0  0  0  0
   57.2300   25.7730   46.1550 C   0  0  0  0  0  0  0  0  0  0  0  0
   57.9460   26.7350   45.2950 C   0  0  0  0  0  0  0  0  0  0  0  0
   58.8289   26.3745   44.7469 H   0  0  0  0  0  0  0  0  0  0  0  0
   57.5920   28.0230   45.1360 C   0  0  0  0  0  0  0  0  0  0  0  0
   56.3350   28.4260   44.8430 N   0  0  0  0  0  0  0  0  0  0  0  0
   56.4170   29.7690   44.8120 C   0  0  0  0  0  0  0  0  0  0  0  0
   55.4220   30.5070   44.5790 O   0  0  0  0  0  0  0  0  0  0  0  0
   57.6530   30.2440   45.0780 N   0  0  0  0  0  0  0  0  0  0  0  0
   58.0290   31.6310   45.1850 C   0  0  0  0  0  0  0  0  0  0  0  0
   57.9700   32.4690   44.0620 C   0  0  0  0  0  0  0  0  0  0  0  0
   57.6476   32.0639   43.0915 H   0  0  0  0  0  0  0  0  0  0  0  0
   58.3200   33.8180   44.1730 C   0  0  0  0  0  0  0  0  0  0  0  0
   58.2886   34.4676   43.2858 H   0  0  0  0  0  0  0  0  0  0  0  0
   58.7100   34.3440   45.4090 C   0  0  0  0  0  0  0  0  0  0  0  0
   58.9960   35.4033   45.4878 H   0  0  0  0  0  0  0  0  0  0  0  0
   58.7380   33.5260   46.5490 C   0  0  0  0  0  0  0  0  0  0  0  0
   59.1440   34.0860   47.8590 C   0  0  0  0  0  0  0  0  0  0  0  0
   59.0590   35.3310   48.0430 O   0  0  0  0  0  0  0  0  0  0  0  0
   59.6630   33.2470   48.9130 N   0  0  0  0  0  0  0  0  0  0  0  0
   60.6810   33.7980   49.8240 C   0  0  0  0  0  0  0  0  0  0  0  0
   61.5407   34.1428   49.2307 H   0  0  0  0  0  0  0  0  0  0  0  0
   60.2267   34.6302   50.3817 H   0  0  0  0  0  0  0  0  0  0  0  0
   61.1640   32.7520   50.8370 C   0  0  0  0  0  0  0  0  0  0  0  0
   62.1286   33.0711   51.2586 H   0  0  0  0  0  0  0  0  0  0  0  0
   60.4193   32.6565   51.6410 H   0  0  0  0  0  0  0  0  0  0  0  0
   61.3290   31.4500   50.1740 N   0  0  0  0  0  0  0  0  0  0  0  0
   62.4760   30.6210   50.4410 C   0  0  0  0  0  0  0  0  0  0  0  0
   62.3190   29.3780   50.6010 O   0  0  0  0  0  0  0  0  0  0  0  0
   63.8450   31.1700   50.5060 C   0  0  0  0  0  0  0  0  0  0  0  0
   64.7700   30.5580   51.3000 N   0  0  0  0  0  0  0  0  0  0  0  0
   66.0500   31.0080   51.3930 C   0  0  0  0  0  0  0  0  0  0  0  0
   66.7680   30.4907   52.0464 H   0  0  0  0  0  0  0  0  0  0  0  0
   66.4540   32.1260   50.6600 C   0  0  0  0  0  0  0  0  0  0  0  0
   67.4843   32.5025   50.7424 H   0  0  0  0  0  0  0  0  0  0  0  0
   65.5360   32.7600   49.8220 C   0  0  0  0  0  0  0  0  0  0  0  0
   65.8421   33.6373   49.2332 H   0  0  0  0  0  0  0  0  0  0  0  0
   64.2280   32.2790   49.7320 C   0  0  0  0  0  0  0  0  0  0  0  0
   63.5036   32.7639   49.0611 H   0  0  0  0  0  0  0  0  0  0  0  0
   60.2190   30.8940   49.3850 C   0  0  0  0  0  0  0  0  0  0  0  0
   60.6005   30.5877   48.3998 H   0  0  0  0  0  0  0  0  0  0  0  0
   59.8062   30.0341   49.9329 H   0  0  0  0  0  0  0  0  0  0  0  0
   59.0940   31.9190   49.1860 C   0  0  0  0  0  0  0  0  0  0  0  0
   58.4666   31.6104   48.3368 H   0  0  0  0  0  0  0  0  0  0  0  0
   58.4863   31.9689   50.1015 H   0  0  0  0  0  0  0  0  0  0  0  0
   58.4150   32.1640   46.4250 C   0  0  0  0  0  0  0  0  0  0  0  0
   58.4651   31.5095   47.3077 H   0  0  0  0  0  0  0  0  0  0  0  0
   58.4110   29.1440   45.2850 C   0  0  0  0  0  0  0  0  0  0  0  0
   59.7300   29.1590   45.5340 C   0  0  0  0  0  0  0  0  0  0  0  0
   60.2608   30.1177   45.6294 H   0  0  0  0  0  0  0  0  0  0  0  0
   60.2800   28.2126   45.6426 H   0  0  0  0  0  0  0  0  0  0  0  0
  1  2  1  0
  2  3  1  0
  3  4  1  0
  4  5  1  0
  5  6  2  0
  5  7  1  0
  7  8  1  0
  8  9  1  0
  9 10  1  0
  9 11  2  0
 11 12  1  0
 12 13  1  0
 13 14  2  0
 13 15  1  0
 15 16  1  0
 16 17  2  0
 17 18  1  0
 17 19  1  0
 19 20  1  0
 19 21  2  0
 21 22  1  0
 21 23  1  0
 23 24  1  0
 24 25  2  0
 24 26  1  0
 26 27  1  0
 27 28  1  0
 27 29  1  0
 27 30  1  0
 30 31  1  0
 30 32  1  0
 30 33  1  0
 33 34  1  0
 34 35  2  0
 34 36  1  0
 36 37  2  0
 37 38  1  0
 38 39  1  0
 38 40  2  0
 40 41  1  0
 40 42  1  0
 42 43  1  0
 42 44  2  0
 44 45  1  0
 33 46  1  0
 46 47  1  0
 46 48  1  0
 46 49  1  0
 49 50  1  0
 49 51  1  0
 23 52  2  0
 52 53  1  0
 15 54  1  0
 54 55  2  0
 55 56  1  0
 55 57  1  0
  8  3  2  0
 54 11  1  0
 52 16  1  0
 49 26  1  0
 44 36  1  0
M  CHG  3   4  -1   7  -1  12  -1
M  END
>  <UniqueID>  (73) 
66

>  <SMILES>  (73) 
C=c1/c(=C/c2[n-]c(=O)[n-]c2O)[n-]c(=O)n1-c1cccc(C(=O)N2CCN(C(=O)c3ccccn3)CC2)c1

>  <Energy>  (73) 
145.90092291802904

>  <Genealogy>  (73) 
C=c1c(=Cc2[n-]c(=O)[n-]c2O)[n-]c(=O)n1-c1cccc(C(=O)N2CCN(C(=O)c3ccccn3)CC2)c1 (protonated)
C=c1/c(=C/c2[n-]c(=O)[n-]c2O)[n-]c(=O)n1-c1cccc(C(=O)N2CCN(C(=O)c3ccccn3)CC2)c1 (cis-trans isomerization)
C=c1/c(=C/c2[n-]c(=O)[n-]c2O)[n-]c(=O)n1-c1cccc(C(=O)N2CCN(C(=O)c3ccccn3)CC2)c1 (3D coordinates assigned)
C=c1/c(=C/c2[n-]c(=O)[n-]c2O)[n-]c(=O)n1-c1cccc(C(=O)N2CCN(C(=O)c3ccccn3)CC2)c1 (nonaromatic ring conformer: 145.90092291802904 kcal/mol)

>  <smiles>  (73) 
C=c1c(=Cc2[nH]c(=O)[nH]c2O)[nH]c(=O)n1-c1cccc(C(=O)N2CCN(C(=O)c3ccccn3)CC2)c1

>  <score_type>  (73) 
oracle

>  <origin>  (73) 
adg

>  <m_score__min__energy>  (73) 
-16.84

>  <m_primary>  (73) 
energy

$$$$
73:0
     RDKit          3D

 50 52  0  0  0  0  0  0  0  0999 V2000
   59.6230   27.5560   47.3760 C   0  0  0  0  0  0  0  0  0  0  0  0
   58.9940   28.3530   46.4960 C   0  0  0  0  0  0  0  0  0  0  0  0
   58.2400   27.9390   45.3840 C   0  0  0  0  0  0  0  0  0  0  0  0
   57.8080   26.7190   45.0080 C   0  0  0  0  0  0  0  0  0  0  0  0
   57.1530   25.7310   45.8780 C   0  0  0  0  0  0  0  0  0  0  0  0
   57.7330   24.5830   46.2670 N   0  0  0  0  0  0  0  0  0  0  0  0
   56.7440   23.9430   46.9300 C   0  0  0  0  0  0  0  0  0  0  0  0
   56.9070   22.8180   47.4680 O   0  0  0  0  0  0  0  0  0  0  0  0
   55.5640   24.5990   46.9590 N   0  0  0  0  0  0  0  0  0  0  0  0
   55.8350   25.7220   46.2760 C   0  0  0  0  0  0  0  0  0  0  0  0
   54.8920   26.7040   46.0000 O   0  0  0  0  0  0  0  0  0  0  0  0
   57.9650   29.0820   44.6570 C   0  0  0  0  0  0  0  0  0  0  0  0
   58.4870   30.1440   45.3630 C   0  0  0  0  0  0  0  0  0  0  0  0
   58.4000   31.5730   44.9120 C   0  0  0  0  0  0  0  0  0  0  0  0
   59.1150   29.7100   46.4810 N   0  0  0  0  0  0  0  0  0  0  0  0
   59.8660   30.5610   47.4220 C   0  0  0  0  0  0  0  0  0  0  0  0
   60.9130   31.4290   46.7020 C   0  0  0  0  0  0  0  0  0  0  0  0
   61.6000   32.4050   47.6320 C   0  0  0  0  0  0  0  0  0  0  0  0
   62.9800   32.2450   47.8600 C   0  0  0  0  0  0  0  0  0  0  0  0
   63.6620   33.0900   48.7350 C   0  0  0  0  0  0  0  0  0  0  0  0
   62.9810   34.1120   49.3920 C   0  0  0  0  0  0  0  0  0  0  0  0
   61.6140   34.2910   49.1800 C   0  0  0  0  0  0  0  0  0  0  0  0
   60.9020   33.4380   48.3170 C   0  0  0  0  0  0  0  0  0  0  0  0
   59.4290   33.7030   48.1120 C   0  0  0  0  0  0  0  0  0  0  0  0
   59.2410   35.0430   47.5500 N   0  0  0  0  0  0  0  0  0  0  0  0
   59.2920   34.9730   45.8130 S   0  0  0  0  0  0  0  0  0  0  0  0
   57.6900   34.5560   45.1580 C   0  0  0  0  0  0  0  0  0  0  0  0
   59.6930   36.3220   45.2840 O   0  0  0  0  0  0  0  0  0  0  0  0
   60.3000   33.9530   45.3650 O   0  0  0  0  0  0  0  0  0  0  0  0
   60.1862   27.9963   48.2120 H   0  0  0  0  0  0  0  0  0  0  0  0
   59.5748   26.4632   47.2604 H   0  0  0  0  0  0  0  0  0  0  0  0
   57.9590   26.4370   43.9555 H   0  0  0  0  0  0  0  0  0  0  0  0
   57.4307   29.1340   43.6969 H   0  0  0  0  0  0  0  0  0  0  0  0
   58.3598   32.2331   45.7910 H   0  0  0  0  0  0  0  0  0  0  0  0
   59.2847   31.8211   44.3072 H   0  0  0  0  0  0  0  0  0  0  0  0
   57.4917   31.7120   44.3072 H   0  0  0  0  0  0  0  0  0  0  0  0
   59.1589   31.2197   47.9475 H   0  0  0  0  0  0  0  0  0  0  0  0
   60.3956   29.9037   48.1273 H   0  0  0  0  0  0  0  0  0  0  0  0
   61.6738   30.7689   46.2599 H   0  0  0  0  0  0  0  0  0  0  0  0
   60.3877   32.0151   45.9336 H   0  0  0  0  0  0  0  0  0  0  0  0
   63.5270   31.4437   47.3416 H   0  0  0  0  0  0  0  0  0  0  0  0
   64.7394   32.9492   48.9066 H   0  0  0  0  0  0  0  0  0  0  0  0
   63.5221   34.7791   50.0792 H   0  0  0  0  0  0  0  0  0  0  0  0
   61.0866   35.1085   49.6935 H   0  0  0  0  0  0  0  0  0  0  0  0
   59.0160   32.9549   47.4193 H   0  0  0  0  0  0  0  0  0  0  0  0
   58.9094   33.6379   49.0794 H   0  0  0  0  0  0  0  0  0  0  0  0
   60.0460   35.6420   47.8480 H   0  0  0  0  0  0  0  0  0  0  0  0
   56.9908   34.3740   45.9874 H   0  0  0  0  0  0  0  0  0  0  0  0
   57.3184   35.3874   44.5409 H   0  0  0  0  0  0  0  0  0  0  0  0
   57.7709   33.6490   44.5409 H   0  0  0  0  0  0  0  0  0  0  0  0
  1  2  2  0
  2  3  1  0
  3  4  2  3
  4  5  1  0
  5  6  1  0
  6  7  1  0
  7  8  2  0
  7  9  1  0
  9 10  1  0
 10 11  1  0
  3 12  1  0
 12 13  2  0
 13 14  1  0
 13 15  1  0
 15 16  1  0
 16 17  1  0
 17 18  1  0
 18 19  2  0
 19 20  1  0
 20 21  2  0
 21 22  1  0
 22 23  2  0
 23 24  1  0
 24 25  1  0
 25 26  1  0
 26 27  1  0
 26 28  2  0
 26 29  2  0
 15  2  1  0
 23 18  1  0
 10  5  2  0
  1 30  1  0
  1 31  1  0
  4 32  1  0
 12 33  1  0
 14 34  1  0
 14 35  1  0
 14 36  1  0
 16 37  1  0
 16 38  1  0
 17 39  1  0
 17 40  1  0
 19 41  1  0
 20 42  1  0
 21 43  1  0
 22 44  1  0
 24 45  1  0
 24 46  1  0
 25 47  1  0
 27 48  1  0
 27 49  1  0
 27 50  1  0
M  CHG  3   6  -1   9  -1  11  -1
M  END
>  <UniqueID>  (74) 
67

>  <SMILES>  (74) 
C=c1c(=Cc2[n-]c(=O)[n-]c2[O-])cc(C)n1CCc1ccccc1CNS(C)(=O)=O

>  <Energy>  (74) 
111.9832790445242

>  <Genealogy>  (74) 
C=c1c(=Cc2[n-]c(=O)[n-]c2[O-])cc(C)n1CCc1ccccc1CNS(C)(=O)=O (protonated)
C=c1c(=Cc2[n-]c(=O)[n-]c2[O-])cc(C)n1CCc1ccccc1CNS(C)(=O)=O (3D coordinates assigned)
C=c1c(=Cc2[n-]c(=O)[n-]c2[O-])cc(C)n1CCc1ccccc1CNS(C)(=O)=O (optimized conformer: 111.9832790445242 kcal/mol)

>  <smiles>  (74) 
C=c1c(=Cc2[nH]c(=O)[nH]c2O)cc(C)n1CCc1ccccc1CNS(C)(=O)=O

>  <score_type>  (74) 
oracle

>  <origin>  (74) 
adg

>  <m_score__min__energy>  (74) 
-16.309999999999999

>  <m_primary>  (74) 
energy

$$$$
74:0
     RDKit          3D

 64 68  0  0  0  0  0  0  0  0999 V2000
   55.9790   28.7651   44.8474 H   0  0  0  0  0  0  0  0  0  0  0  0
   56.9390   28.4700   45.2960 C   0  0  0  0  0  0  0  0  0  0  0  0
   57.8550   29.4340   45.5260 C   0  0  0  0  0  0  0  0  0  0  0  0
   58.9750   29.2310   46.4730 C   0  0  0  0  0  0  0  0  0  0  0  0
   60.1440   29.0850   46.0310 O   0  0  0  0  0  0  0  0  0  0  0  0
   58.7300   29.2380   47.8860 N   0  0  0  0  0  0  0  0  0  0  0  0
   59.5870   29.8320   48.8670 C   0  0  0  0  0  0  0  0  0  0  0  0
   60.9590   29.5410   48.9100 C   0  0  0  0  0  0  0  0  0  0  0  0
   61.4028   28.8747   48.1556 H   0  0  0  0  0  0  0  0  0  0  0  0
   61.7640   30.0970   49.9110 C   0  0  0  0  0  0  0  0  0  0  0  0
   62.8359   29.8534   49.9522 H   0  0  0  0  0  0  0  0  0  0  0  0
   61.2080   30.9610   50.8580 C   0  0  0  0  0  0  0  0  0  0  0  0
   61.8453   31.4032   51.6379 H   0  0  0  0  0  0  0  0  0  0  0  0
   59.8400   31.2660   50.8170 C   0  0  0  0  0  0  0  0  0  0  0  0
   59.1510   32.4350   51.9490 S   0  0  0  0  0  0  0  0  0  0  0  0
   58.5940   33.6020   51.1790 O   0  0  0  0  0  0  0  0  0  0  0  0
   60.2330   32.9480   52.8580 O   0  0  0  0  0  0  0  0  0  0  0  0
   57.8780   31.7140   52.9120 N   0  0  0  0  0  0  0  0  0  0  0  0
   58.1000   30.2610   53.0590 C   0  0  0  0  0  0  0  0  0  0  0  0
   58.5167   29.8637   52.1217 H   0  0  0  0  0  0  0  0  0  0  0  0
   58.7996   30.0948   53.8914 H   0  0  0  0  0  0  0  0  0  0  0  0
   56.7830   29.5340   53.3720 C   0  0  0  0  0  0  0  0  0  0  0  0
   56.9994   28.4627   53.4967 H   0  0  0  0  0  0  0  0  0  0  0  0
   56.3746   29.9902   54.2858 H   0  0  0  0  0  0  0  0  0  0  0  0
   55.7930   29.6770   52.3590 O   0  0  0  0  0  0  0  0  0  0  0  0
   55.9170   30.8720   51.6000 C   0  0  0  0  0  0  0  0  0  0  0  0
   56.5525   30.6634   50.7267 H   0  0  0  0  0  0  0  0  0  0  0  0
   54.8990   31.1783   51.3176 H   0  0  0  0  0  0  0  0  0  0  0  0
   56.5370   32.0460   52.3820 C   0  0  0  0  0  0  0  0  0  0  0  0
   56.6255   32.9125   51.7102 H   0  0  0  0  0  0  0  0  0  0  0  0
   55.8805   32.2691   53.2359 H   0  0  0  0  0  0  0  0  0  0  0  0
   59.0290   30.6700   49.8390 C   0  0  0  0  0  0  0  0  0  0  0  0
   57.9461   30.8631   49.8364 H   0  0  0  0  0  0  0  0  0  0  0  0
   57.7070   30.7570   44.8760 C   0  0  0  0  0  0  0  0  0  0  0  0
   57.7520   30.8400   43.6190 O   0  0  0  0  0  0  0  0  0  0  0  0
   57.5580   31.9600   45.6410 N   0  0  0  0  0  0  0  0  0  0  0  0
   58.5820   32.5520   46.4570 C   0  0  0  0  0  0  0  0  0  0  0  0
   58.2270   33.5330   47.3900 C   0  0  0  0  0  0  0  0  0  0  0  0
   57.1749   33.8403   47.4835 H   0  0  0  0  0  0  0  0  0  0  0  0
   59.1960   34.1260   48.2040 C   0  0  0  0  0  0  0  0  0  0  0  0
   58.9093   34.9175   48.9120 H   0  0  0  0  0  0  0  0  0  0  0  0
   60.5330   33.7130   48.1190 C   0  0  0  0  0  0  0  0  0  0  0  0
   61.5130   34.2730   48.9570 C   0  0  0  0  0  0  0  0  0  0  0  0
   61.2409   35.0724   49.6619 H   0  0  0  0  0  0  0  0  0  0  0  0
   62.8350   33.8150   48.8960 C   0  0  0  0  0  0  0  0  0  0  0  0
   63.5951   34.2455   49.5646 H   0  0  0  0  0  0  0  0  0  0  0  0
   63.1930   32.8130   47.9890 C   0  0  0  0  0  0  0  0  0  0  0  0
   64.2337   32.4594   47.9442 H   0  0  0  0  0  0  0  0  0  0  0  0
   62.2300   32.2590   47.1380 C   0  0  0  0  0  0  0  0  0  0  0  0
   62.5175   31.4768   46.4200 H   0  0  0  0  0  0  0  0  0  0  0  0
   60.8970   32.6990   47.1980 C   0  0  0  0  0  0  0  0  0  0  0  0
   59.9200   32.1280   46.3710 C   0  0  0  0  0  0  0  0  0  0  0  0
   60.2011   31.3448   45.6516 H   0  0  0  0  0  0  0  0  0  0  0  0
   57.1490   27.0410   45.6110 C   0  0  0  0  0  0  0  0  0  0  0  0
   58.4570   26.5290   45.6200 C   0  0  0  0  0  0  0  0  0  0  0  0
   59.3082   27.1949   45.4149 H   0  0  0  0  0  0  0  0  0  0  0  0
   58.6800   25.1750   45.8890 C   0  0  0  0  0  0  0  0  0  0  0  0
   59.7049   24.7756   45.8857 H   0  0  0  0  0  0  0  0  0  0  0  0
   57.6020   24.3290   46.1620 C   0  0  0  0  0  0  0  0  0  0  0  0
   57.7776   23.2602   46.3536 H   0  0  0  0  0  0  0  0  0  0  0  0
   56.3000   24.8390   46.1920 C   0  0  0  0  0  0  0  0  0  0  0  0
   55.4552   24.1727   46.4207 H   0  0  0  0  0  0  0  0  0  0  0  0
   56.0690   26.1940   45.9320 C   0  0  0  0  0  0  0  0  0  0  0  0
   54.7720   26.6900   46.0040 O   0  0  0  0  0  0  0  0  0  0  0  0
  1  2  1  0
  2  3  2  0
  3  4  1  0
  4  5  2  0
  4  6  1  0
  6  7  1  0
  7  8  2  0
  8  9  1  0
  8 10  1  0
 10 11  1  0
 10 12  2  0
 12 13  1  0
 12 14  1  0
 14 15  1  0
 15 16  2  0
 15 17  2  0
 15 18  1  0
 18 19  1  0
 19 20  1  0
 19 21  1  0
 19 22  1  0
 22 23  1  0
 22 24  1  0
 22 25  1  0
 25 26  1  0
 26 27  1  0
 26 28  1  0
 26 29  1  0
 29 30  1  0
 29 31  1  0
 14 32  2  0
 32 33  1  0
  3 34  1  0
 34 35  2  0
 34 36  1  0
 36 37  1  0
 37 38  2  0
 38 39  1  0
 38 40  1  0
 40 41  1  0
 40 42  2  0
 42 43  1  0
 43 44  1  0
 43 45  2  0
 45 46  1  0
 45 47  1  0
 47 48  1  0
 47 49  2  0
 49 50  1  0
 49 51  1  0
 51 52  2  0
 52 53  1  0
  2 54  1  0
 54 55  2  0
 55 56  1  0
 55 57  1  0
 57 58  1  0
 57 59  2  0
 59 60  1  0
 59 61  1  0
 61 62  1  0
 61 63  2  0
 63 64  1  0
 32  7  1  0
 52 37  1  0
 63 54  1  0
 29 18  1  0
 51 42  1  0
M  CHG  3   6  -1  36  -1  64  -1
M  END
>  <UniqueID>  (75) 
68

>  <SMILES>  (75) 
O=C([N-]c1cccc(S(=O)(=O)N2CCOCC2)c1)/C(=C\c1ccccc1[O-])C(=O)[N-]c1ccc2ccccc2c1

>  <Energy>  (75) 
103.82465396910531

>  <Genealogy>  (75) 
O=C([N-]c1cccc(S(=O)(=O)N2CCOCC2)c1)C(=Cc1ccccc1[O-])C(=O)[N-]c1ccc2ccccc2c1 (protonated)
O=C([N-]c1cccc(S(=O)(=O)N2CCOCC2)c1)/C(=C\c1ccccc1[O-])C(=O)[N-]c1ccc2ccccc2c1 (cis-trans isomerization)
O=C([N-]c1cccc(S(=O)(=O)N2CCOCC2)c1)/C(=C\c1ccccc1[O-])C(=O)[N-]c1ccc2ccccc2c1 (3D coordinates assigned)
O=C([N-]c1cccc(S(=O)(=O)N2CCOCC2)c1)/C(=C\c1ccccc1[O-])C(=O)[N-]c1ccc2ccccc2c1 (nonaromatic ring conformer: 103.82465396910531 kcal/mol)

>  <smiles>  (75) 
O=C(Nc1cccc(S(=O)(=O)N2CCOCC2)c1)C(=Cc1ccccc1O)C(=O)Nc1ccc2ccccc2c1

>  <score_type>  (75) 
oracle

>  <origin>  (75) 
adg

>  <m_score__min__energy>  (75) 
-17.280000000000001

>  <m_primary>  (75) 
energy

$$$$
75:0
     RDKit          3D

 40 42  0  0  0  0  0  0  0  0999 V2000
   56.8419   25.3331   46.1174 H   0  0  0  0  0  0  0  0  0  0  0  0
   56.2930   26.2830   46.0380 C   0  0  0  0  0  0  0  0  0  0  0  0
   55.0330   26.2680   45.9950 O   0  0  0  0  0  0  0  0  0  0  0  0
   57.0420   27.5470   45.9840 C   0  0  0  0  0  0  0  0  0  0  0  0
   56.5300   28.5850   45.2730 N   0  0  0  0  0  0  0  0  0  0  0  0
   57.1650   29.7880   45.1780 C   0  0  0  0  0  0  0  0  0  0  0  0
   56.6530   30.7720   44.4950 N   0  0  0  0  0  0  0  0  0  0  0  0
   57.3210   31.5850   43.5180 C   0  0  0  0  0  0  0  0  0  0  0  0
   57.0730   31.4640   42.2870 O   0  0  0  0  0  0  0  0  0  0  0  0
   58.2620   32.5200   43.9560 O   0  0  0  0  0  0  0  0  0  0  0  0
   57.8990   33.7220   44.6340 C   0  0  0  0  0  0  0  0  0  0  0  0
   57.0606   34.0829   44.0201 H   0  0  0  0  0  0  0  0  0  0  0  0
   57.7340   33.4930   46.1300 C   0  0  0  0  0  0  0  0  0  0  0  0
   56.7867   33.8723   46.5408 H   0  0  0  0  0  0  0  0  0  0  0  0
   57.7015   32.4717   46.5372 H   0  0  0  0  0  0  0  0  0  0  0  0
   58.9320   34.3920   46.3980 C   0  0  0  0  0  0  0  0  0  0  0  0
   58.6915   35.3015   46.9681 H   0  0  0  0  0  0  0  0  0  0  0  0
   59.7763   34.0268   47.0011 H   0  0  0  0  0  0  0  0  0  0  0  0
   59.0990   34.6230   44.9020 C   0  0  0  0  0  0  0  0  0  0  0  0
   58.9557   35.6679   44.5894 H   0  0  0  0  0  0  0  0  0  0  0  0
   60.0640   34.4284   44.4112 H   0  0  0  0  0  0  0  0  0  0  0  0
   58.3890   29.9730   45.8280 C   0  0  0  0  0  0  0  0  0  0  0  0
   58.9040   30.9431   45.7671 H   0  0  0  0  0  0  0  0  0  0  0  0
   58.9600   28.9180   46.5590 C   0  0  0  0  0  0  0  0  0  0  0  0
   60.2580   29.0910   47.2520 C   0  0  0  0  0  0  0  0  0  0  0  0
   60.7340   28.1330   47.9190 O   0  0  0  0  0  0  0  0  0  0  0  0
   60.9730   30.3340   47.2330 N   0  0  0  0  0  0  0  0  0  0  0  0
   60.6590   31.5040   48.0040 C   0  0  0  0  0  0  0  0  0  0  0  0
   59.4450   31.6100   48.7080 C   0  0  0  0  0  0  0  0  0  0  0  0
   58.7223   30.7812   48.6804 H   0  0  0  0  0  0  0  0  0  0  0  0
   59.1530   32.7630   49.4420 C   0  0  0  0  0  0  0  0  0  0  0  0
   58.2071   32.8353   49.9988 H   0  0  0  0  0  0  0  0  0  0  0  0
   60.0620   33.8240   49.4690 C   0  0  0  0  0  0  0  0  0  0  0  0
   59.8351   34.7281   50.0530 H   0  0  0  0  0  0  0  0  0  0  0  0
   61.2590   33.7360   48.7540 C   0  0  0  0  0  0  0  0  0  0  0  0
   61.9700   34.5752   48.7707 H   0  0  0  0  0  0  0  0  0  0  0  0
   61.5570   32.5850   48.0170 C   0  0  0  0  0  0  0  0  0  0  0  0
   63.0730   32.5060   47.1310 Cl  0  0  0  0  0  0  0  0  0  0  0  0
   58.2700   27.6990   46.6460 C   0  0  0  0  0  0  0  0  0  0  0  0
   58.6897   26.8668   47.2302 H   0  0  0  0  0  0  0  0  0  0  0  0
  1  2  1  0
  2  3  2  0
  2  4  1  0
  4  5  1  0
  5  6  1  0
  6  7  2  0
  7  8  1  0
  8  9  2  0
  8 10  1  0
 10 11  1  0
 11 12  1  0
 11 13  1  0
 13 14  1  0
 13 15  1  0
 13 16  1  0
 16 17  1  0
 16 18  1  0
 16 19  1  0
 19 20  1  0
 19 21  1  0
  6 22  1  0
 22 23  1  0
 22 24  2  0
 24 25  1  0
 25 26  2  0
 25 27  1  0
 27 28  1  0
 28 29  2  0
 29 30  1  0
 29 31  1  0
 31 32  1  0
 31 33  2  0
 33 34  1  0
 33 35  1  0
 35 36  1  0
 35 37  2  0
 37 38  1  0
 24 39  1  0
 39 40  1  0
 39  4  2  0
 19 11  1  0
 37 28  1  0
M  CHG  2   5  -1  27  -1
M  END
>  <UniqueID>  (76) 
69

>  <SMILES>  (76) 
O=Cc1cc(C(=O)[N-]c2ccccc2Cl)c/c(=N/C(=O)OC2CCC2)[n-]1

>  <Energy>  (76) 
108.67524148166135

>  <Genealogy>  (76) 
O=Cc1cc(C(=O)[N-]c2ccccc2Cl)cc(=NC(=O)OC2CCC2)[n-]1 (protonated)
O=Cc1cc(C(=O)[N-]c2ccccc2Cl)c/c(=N/C(=O)OC2CCC2)[n-]1 (cis-trans isomerization)
O=Cc1cc(C(=O)[N-]c2ccccc2Cl)c/c(=N/C(=O)OC2CCC2)[n-]1 (3D coordinates assigned)
O=Cc1cc(C(=O)[N-]c2ccccc2Cl)c/c(=N/C(=O)OC2CCC2)[n-]1 (nonaromatic ring conformer: 108.67524148166135 kcal/mol)

>  <smiles>  (76) 
O=Cc1cc(C(=O)Nc2ccccc2Cl)cc(=NC(=O)OC2CCC2)[nH]1

>  <score_type>  (76) 
oracle

>  <origin>  (76) 
adg

>  <m_score__min__energy>  (76) 
-10.699999999999999

>  <m_primary>  (76) 
energy

$$$$
76:0
     RDKit          3D

 44 45  0  0  0  0  0  0  0  0999 V2000
   54.5010   27.0880   45.9950 H   0  0  0  0  0  0  0  0  0  0  0  0
   55.3570   26.5580   46.1070 O   0  0  0  0  0  0  0  0  0  0  0  0
   56.6080   27.1420   45.9100 C   0  0  0  0  0  0  0  0  0  0  0  0
   57.7650   26.5070   46.3770 C   0  0  0  0  0  0  0  0  0  0  0  0
   57.6869   25.5445   46.9038 H   0  0  0  0  0  0  0  0  0  0  0  0
   59.0170   27.0900   46.1770 C   0  0  0  0  0  0  0  0  0  0  0  0
   59.9197   26.5921   46.5606 H   0  0  0  0  0  0  0  0  0  0  0  0
   59.1310   28.3100   45.4880 C   0  0  0  0  0  0  0  0  0  0  0  0
   60.4120   30.6990   47.0540 C   0  0  0  0  0  0  0  0  0  0  0  0
   60.3743   30.4655   48.1283 H   0  0  0  0  0  0  0  0  0  0  0  0
   61.0870   29.7160   46.1870 C   0  0  0  0  0  0  0  0  0  0  0  0
   62.1743   29.5861   46.2914 H   0  0  0  0  0  0  0  0  0  0  0  0
   60.4410   28.9730   45.2780 C   0  0  0  0  0  0  0  0  0  0  0  0
   60.9211   28.8444   44.2967 H   0  0  0  0  0  0  0  0  0  0  0  0
   59.8320   31.8630   46.6630 C   0  0  0  0  0  0  0  0  0  0  0  0
   58.8280   31.7430   45.5280 C   0  0  0  0  0  0  0  0  0  0  0  0
   58.3851   30.7365   45.5545 H   0  0  0  0  0  0  0  0  0  0  0  0
   59.3667   31.9248   44.5863 H   0  0  0  0  0  0  0  0  0  0  0  0
   57.7260   32.7550   45.6230 C   0  0  0  0  0  0  0  0  0  0  0  0
   56.6980   32.5850   44.9850 O   0  0  0  0  0  0  0  0  0  0  0  0
   57.8620   33.9640   46.4920 C   0  0  0  0  0  0  0  0  0  0  0  0
   57.4571   33.7430   47.4906 H   0  0  0  0  0  0  0  0  0  0  0  0
   57.3048   34.7987   46.0416 H   0  0  0  0  0  0  0  0  0  0  0  0
   59.3160   34.3460   46.6150 C   0  0  0  0  0  0  0  0  0  0  0  0
   59.6450   35.6510   46.5150 C   0  0  0  0  0  0  0  0  0  0  0  0
   60.6969   35.9611   46.6004 H   0  0  0  0  0  0  0  0  0  0  0  0
   58.8613   36.4046   46.3480 H   0  0  0  0  0  0  0  0  0  0  0  0
   60.3340   33.2770   47.0660 C   0  0  0  0  0  0  0  0  0  0  0  0
   61.7000   33.5010   46.3700 C   0  0  0  0  0  0  0  0  0  0  0  0
   62.4830   33.6294   47.1318 H   0  0  0  0  0  0  0  0  0  0  0  0
   61.9387   32.6300   45.7420 H   0  0  0  0  0  0  0  0  0  0  0  0
   61.6481   34.4026   45.7420 H   0  0  0  0  0  0  0  0  0  0  0  0
   60.4880   33.4380   48.5990 C   0  0  0  0  0  0  0  0  0  0  0  0
   59.8150   32.7345   49.1110 H   0  0  0  0  0  0  0  0  0  0  0  0
   61.5282   33.2261   48.8873 H   0  0  0  0  0  0  0  0  0  0  0  0
   60.2301   34.4678   48.8873 H   0  0  0  0  0  0  0  0  0  0  0  0
   57.9660   28.9560   45.0460 C   0  0  0  0  0  0  0  0  0  0  0  0
   58.0430   29.9285   44.5377 H   0  0  0  0  0  0  0  0  0  0  0  0
   56.6990   28.3730   45.2460 C   0  0  0  0  0  0  0  0  0  0  0  0
   55.5160   28.9830   44.8020 O   0  0  0  0  0  0  0  0  0  0  0  0
   55.4430   29.9090   43.7220 C   0  0  0  0  0  0  0  0  0  0  0  0
   55.3624   30.9312   44.1203 H   0  0  0  0  0  0  0  0  0  0  0  0
   56.3505   29.8260   43.1059 H   0  0  0  0  0  0  0  0  0  0  0  0
   54.5597   29.6848   43.1059 H   0  0  0  0  0  0  0  0  0  0  0  0
  1  2  1  0
  2  3  1  0
  3  4  2  0
  4  5  1  0
  4  6  1  0
  6  7  1  0
  6  8  2  0
  8  9  1  0
  9 10  1  0
  9 11  2  0
 11 12  1  0
 11 13  1  0
 13 14  1  0
 13 15  2  0
 15 16  1  0
 16 17  1  0
 16 18  1  0
 16 19  1  0
 19 20  2  0
 19 21  1  0
 21 22  1  0
 21 23  1  0
 21 24  1  0
 24 25  2  0
 25 26  1  0
 25 27  1  0
 24 28  1  0
 28 29  1  0
 29 30  1  0
 29 31  1  0
 29 32  1  0
 28 33  1  0
 33 34  1  0
 33 35  1  0
 33 36  1  0
  8 37  1  0
 37 38  1  0
 37 39  2  0
 39 40  1  0
 40 41  1  0
 41 42  1  0
 41 43  1  0
 41 44  1  0
 39  3  1  0
 28 15  1  0
M  END
>  <UniqueID>  (77) 
70

>  <SMILES>  (77) 
C=C1CC(=O)C/C(=C/C=C\c2ccc(O)c(OC)c2)C1(C)C

>  <Energy>  (77) 
60.80132791563495

>  <Genealogy>  (77) 
C=C1CC(=O)C/C(=C/C=C\c2ccc(O)c(OC)c2)C1(C)C (cis-trans isomerization)
C=C1CC(=O)C/C(=C/C=C\c2ccc(O)c(OC)c2)C1(C)C (3D coordinates assigned)
C=C1CC(=O)C/C(=C/C=C\c2ccc(O)c(OC)c2)C1(C)C (nonaromatic ring conformer: 60.80132791563495 kcal/mol)

>  <smiles>  (77) 
C=C1CC(=O)CC(=CC=Cc2ccc(O)c(OC)c2)C1(C)C

>  <score_type>  (77) 
oracle

>  <origin>  (77) 
adg

>  <m_score__min__energy>  (77) 
-9.8399999999999999

>  <m_primary>  (77) 
energy

$$$$
77:0
     RDKit          3D

 45 47  0  0  0  0  0  0  0  0999 V2000
   55.1450   27.4780   45.3680 H   0  0  0  0  0  0  0  0  0  0  0  0
   54.9570   26.7040   45.9920 O   0  0  0  0  0  0  0  0  0  0  0  0
   55.9290   25.7400   46.2430 C   0  0  0  0  0  0  0  0  0  0  0  0
   55.7530   24.6950   47.0680 N   0  0  0  0  0  0  0  0  0  0  0  0
   56.9580   24.0850   47.0330 C   0  0  0  0  0  0  0  0  0  0  0  0
   57.2100   23.0440   47.6940 O   0  0  0  0  0  0  0  0  0  0  0  0
   57.8750   24.6850   46.2430 N   0  0  0  0  0  0  0  0  0  0  0  0
   57.2030   25.7250   45.7200 C   0  0  0  0  0  0  0  0  0  0  0  0
   57.8260   26.7570   44.8760 C   0  0  0  0  0  0  0  0  0  0  0  0
   58.5574   26.4197   44.1268 H   0  0  0  0  0  0  0  0  0  0  0  0
   57.5780   28.0770   44.9420 C   0  0  0  0  0  0  0  0  0  0  0  0
   56.3240   28.5570   44.7840 N   0  0  0  0  0  0  0  0  0  0  0  0
   56.4670   29.8940   44.8320 C   0  0  0  0  0  0  0  0  0  0  0  0
   55.4960   30.6900   44.7220 O   0  0  0  0  0  0  0  0  0  0  0  0
   57.7390   30.2940   45.0210 N   0  0  0  0  0  0  0  0  0  0  0  0
   58.1780   31.6500   45.2020 C   0  0  0  0  0  0  0  0  0  0  0  0
   58.0070   32.5670   44.1530 C   0  0  0  0  0  0  0  0  0  0  0  0
   57.4684   32.2615   43.2439 H   0  0  0  0  0  0  0  0  0  0  0  0
   58.5150   33.8640   44.2540 C   0  0  0  0  0  0  0  0  0  0  0  0
   58.3617   34.5806   43.4337 H   0  0  0  0  0  0  0  0  0  0  0  0
   59.2170   34.2500   45.3960 C   0  0  0  0  0  0  0  0  0  0  0  0
   59.6291   35.2672   45.4702 H   0  0  0  0  0  0  0  0  0  0  0  0
   59.3970   33.3460   46.4450 C   0  0  0  0  0  0  0  0  0  0  0  0
   59.9633   33.6530   47.3367 H   0  0  0  0  0  0  0  0  0  0  0  0
   58.8640   32.0520   46.3740 C   0  0  0  0  0  0  0  0  0  0  0  0
   59.0390   31.2140   47.4860 O   0  0  0  0  0  0  0  0  0  0  0  0
   60.1720   31.2300   48.3590 C   0  0  0  0  0  0  0  0  0  0  0  0
   60.1429   32.1480   48.9644 H   0  0  0  0  0  0  0  0  0  0  0  0
   60.1260   30.3356   48.9977 H   0  0  0  0  0  0  0  0  0  0  0  0
   61.4910   31.1920   47.5760 C   0  0  0  0  0  0  0  0  0  0  0  0
   61.9081   30.1752   47.6215 H   0  0  0  0  0  0  0  0  0  0  0  0
   61.2898   31.4774   46.5329 H   0  0  0  0  0  0  0  0  0  0  0  0
   62.4690   32.1430   48.1470 N   0  0  0  0  0  0  0  0  0  0  0  0
   61.7890   33.2530   48.8350 C   0  0  0  0  0  0  0  0  0  0  0  0
   61.8728   33.1162   49.9232 H   0  0  0  0  0  0  0  0  0  0  0  0
   62.2589   34.2052   48.5479 H   0  0  0  0  0  0  0  0  0  0  0  0
   60.7272   33.2669   48.5479 H   0  0  0  0  0  0  0  0  0  0  0  0
   63.3410   32.6780   47.0900 C   0  0  0  0  0  0  0  0  0  0  0  0
   64.1935   33.2011   47.5478 H   0  0  0  0  0  0  0  0  0  0  0  0
   63.7105   31.8510   46.4659 H   0  0  0  0  0  0  0  0  0  0  0  0
   62.7711   33.3820   46.4659 H   0  0  0  0  0  0  0  0  0  0  0  0
   58.4560   29.1540   45.1390 C   0  0  0  0  0  0  0  0  0  0  0  0
   59.7500   29.1190   45.4910 C   0  0  0  0  0  0  0  0  0  0  0  0
   60.3137   30.0563   45.6081 H   0  0  0  0  0  0  0  0  0  0  0  0
   60.2474   28.1530   45.6625 H   0  0  0  0  0  0  0  0  0  0  0  0
  1  2  1  0
  2  3  1  0
  3  4  1  0
  4  5  1  0
  5  6  2  0
  5  7  1  0
  7  8  1  0
  8  9  1  0
  9 10  1  0
  9 11  2  0
 11 12  1  0
 12 13  1  0
 13 14  2  0
 13 15  1  0
 15 16  1  0
 16 17  2  0
 17 18  1  0
 17 19  1  0
 19 20  1  0
 19 21  2  0
 21 22  1  0
 21 23  1  0
 23 24  1  0
 23 25  2  0
 25 26  1  0
 26 27  1  0
 27 28  1  0
 27 29  1  0
 27 30  1  0
 30 31  1  0
 30 32  1  0
 30 33  1  0
 33 34  1  0
 34 35  1  0
 34 36  1  0
 34 37  1  0
 33 38  1  0
 38 39  1  0
 38 40  1  0
 38 41  1  0
 15 42  1  0
 42 43  2  0
 43 44  1  0
 43 45  1  0
  8  3  2  0
 42 11  1  0
 25 16  1  0
M  CHG  3   4  -1   7  -1  12  -1
M  END
>  <UniqueID>  (78) 
71

>  <SMILES>  (78) 
C=c1/c(=C\c2[n-]c(=O)[n-]c2O)[n-]c(=O)n1-c1ccccc1OCCN(C)C

>  <Energy>  (78) 
129.0305697116885

>  <Genealogy>  (78) 
C=c1c(=Cc2[n-]c(=O)[n-]c2O)[n-]c(=O)n1-c1ccccc1OCCN(C)C (protonated)
C=c1/c(=C\c2[n-]c(=O)[n-]c2O)[n-]c(=O)n1-c1ccccc1OCCN(C)C (cis-trans isomerization)
C=c1/c(=C\c2[n-]c(=O)[n-]c2O)[n-]c(=O)n1-c1ccccc1OCCN(C)C (3D coordinates assigned)
C=c1/c(=C\c2[n-]c(=O)[n-]c2O)[n-]c(=O)n1-c1ccccc1OCCN(C)C (optimized conformer: 129.0305697116885 kcal/mol)

>  <smiles>  (78) 
C=c1c(=Cc2[nH]c(=O)[nH]c2O)[nH]c(=O)n1-c1ccccc1OCCN(C)C

>  <score_type>  (78) 
oracle

>  <origin>  (78) 
adg

>  <m_score__min__energy>  (78) 
-14.25

>  <m_primary>  (78) 
energy

$$$$
78:0
     RDKit          3D

 53 55  0  0  0  0  0  0  0  0999 V2000
   58.1340   33.9400   52.7900 C   0  0  0  0  0  0  0  0  0  0  0  0
   58.3950   32.6010   52.1450 C   0  0  0  0  0  0  0  0  0  0  0  0
   59.6210   32.2430   51.7080 C   0  0  0  0  0  0  0  0  0  0  0  0
   60.0810   32.2620   50.3010 C   0  0  0  0  0  0  0  0  0  0  0  0
   59.9410   33.5290   49.1910 S   0  0  0  0  0  0  0  0  0  0  0  0
   60.5590   32.6240   47.9100 C   0  0  0  0  0  0  0  0  0  0  0  0
   60.7370   33.0590   46.6980 N   0  0  0  0  0  0  0  0  0  0  0  0
   60.6770   34.4640   46.3070 C   0  0  0  0  0  0  0  0  0  0  0  0
   59.2790   34.8030   45.7860 C   0  0  0  0  0  0  0  0  0  0  0  0
   58.5820   33.5760   45.2570 C   0  0  0  0  0  0  0  0  0  0  0  0
   58.5310   33.3280   43.8750 C   0  0  0  0  0  0  0  0  0  0  0  0
   57.9220   32.1670   43.3890 C   0  0  0  0  0  0  0  0  0  0  0  0
   57.3580   31.2400   44.2780 C   0  0  0  0  0  0  0  0  0  0  0  0
   56.6080   29.7710   43.6650 S   0  0  0  0  0  0  0  0  0  0  0  0
   55.4830   29.1730   44.8310 N   0  0  0  0  0  0  0  0  0  0  0  0
   57.6620   28.7320   43.4030 O   0  0  0  0  0  0  0  0  0  0  0  0
   55.8900   30.0660   42.3770 O   0  0  0  0  0  0  0  0  0  0  0  0
   57.4210   31.4790   45.6570 C   0  0  0  0  0  0  0  0  0  0  0  0
   58.0310   32.6380   46.1450 C   0  0  0  0  0  0  0  0  0  0  0  0
   60.8510   31.3560   48.2930 N   0  0  0  0  0  0  0  0  0  0  0  0
   61.4380   30.3400   47.4110 C   0  0  0  0  0  0  0  0  0  0  0  0
   60.3620   29.4290   46.8830 C   0  0  0  0  0  0  0  0  0  0  0  0
   59.1360   29.3110   47.5590 C   0  0  0  0  0  0  0  0  0  0  0  0
   58.1240   28.4950   47.0450 C   0  0  0  0  0  0  0  0  0  0  0  0
   58.3220   27.7960   45.8500 C   0  0  0  0  0  0  0  0  0  0  0  0
   57.3040   26.9870   45.3510 O   0  0  0  0  0  0  0  0  0  0  0  0
   59.5390   27.9170   45.1670 C   0  0  0  0  0  0  0  0  0  0  0  0
   60.5530   28.7330   45.6790 C   0  0  0  0  0  0  0  0  0  0  0  0
   60.5800   31.1530   49.6170 C   0  0  0  0  0  0  0  0  0  0  0  0
   60.7880   29.9260   50.2380 O   0  0  0  0  0  0  0  0  0  0  0  0
   57.2620   31.6520   51.9840 C   0  0  0  0  0  0  0  0  0  0  0  0
   56.1420   31.9010   52.5060 O   0  0  0  0  0  0  0  0  0  0  0  0
   57.4110   30.4810   51.2490 O   0  0  0  0  0  0  0  0  0  0  0  0
   58.1554   33.8303   53.8843 H   0  0  0  0  0  0  0  0  0  0  0  0
   58.9097   34.6547   52.4779 H   0  0  0  0  0  0  0  0  0  0  0  0
   57.1466   34.3111   52.4779 H   0  0  0  0  0  0  0  0  0  0  0  0
   60.3437   31.9067   52.4660 H   0  0  0  0  0  0  0  0  0  0  0  0
   60.9036   35.0948   47.1792 H   0  0  0  0  0  0  0  0  0  0  0  0
   61.4136   34.6491   45.5112 H   0  0  0  0  0  0  0  0  0  0  0  0
   58.6833   35.2279   46.6073 H   0  0  0  0  0  0  0  0  0  0  0  0
   59.3797   35.5277   44.9646 H   0  0  0  0  0  0  0  0  0  0  0  0
   58.9721   34.0503   43.1723 H   0  0  0  0  0  0  0  0  0  0  0  0
   57.8850   31.9799   42.3057 H   0  0  0  0  0  0  0  0  0  0  0  0
   55.5750   28.1320   44.8380 H   0  0  0  0  0  0  0  0  0  0  0  0
   56.9883   30.7510   46.3590 H   0  0  0  0  0  0  0  0  0  0  0  0
   58.0797   32.8162   47.2294 H   0  0  0  0  0  0  0  0  0  0  0  0
   61.9403   30.8366   46.5678 H   0  0  0  0  0  0  0  0  0  0  0  0
   62.1656   29.7445   47.9821 H   0  0  0  0  0  0  0  0  0  0  0  0
   58.9718   29.8628   48.4963 H   0  0  0  0  0  0  0  0  0  0  0  0
   57.1686   28.4024   47.5823 H   0  0  0  0  0  0  0  0  0  0  0  0
   56.6340   27.3360   44.6740 H   0  0  0  0  0  0  0  0  0  0  0  0
   59.6975   27.3693   44.2263 H   0  0  0  0  0  0  0  0  0  0  0  0
   61.5046   28.8298   45.1357 H   0  0  0  0  0  0  0  0  0  0  0  0
  1  2  1  0
  2  3  2  3
  3  4  1  0
  4  5  1  0
  5  6  1  0
  6  7  2  3
  7  8  1  0
  8  9  1  0
  9 10  1  0
 10 11  2  0
 11 12  1  0
 12 13  2  0
 13 14  1  0
 14 15  1  0
 14 16  2  0
 14 17  2  0
 13 18  1  0
 18 19  2  0
  6 20  1  0
 20 21  1  0
 21 22  1  0
 22 23  2  0
 23 24  1  0
 24 25  2  0
 25 26  1  0
 25 27  1  0
 27 28  2  0
 20 29  1  0
 29 30  1  0
  2 31  1  0
 31 32  2  0
 31 33  1  0
 29  4  2  0
 19 10  1  0
 28 22  1  0
  1 34  1  0
  1 35  1  0
  1 36  1  0
  3 37  1  0
  8 38  1  0
  8 39  1  0
  9 40  1  0
  9 41  1  0
 11 42  1  0
 12 43  1  0
 15 44  1  0
 18 45  1  0
 19 46  1  0
 21 47  1  0
 21 48  1  0
 23 49  1  0
 24 50  1  0
 26 51  1  0
 27 52  1  0
 28 53  1  0
M  CHG  3  15  -1  30  -1  33  -1
M  END
>  <UniqueID>  (79) 
72

>  <SMILES>  (79) 
CC(=Cc1sc(=NCCc2ccc(S([NH-])(=O)=O)cc2)n(Cc2ccc(O)cc2)c1[O-])C(=O)[O-]

>  <Energy>  (79) 
84.7523846148199

>  <Genealogy>  (79) 
CC(=Cc1sc(=NCCc2ccc(S([NH-])(=O)=O)cc2)n(Cc2ccc(O)cc2)c1[O-])C(=O)[O-] (protonated)
CC(=Cc1sc(=NCCc2ccc(S([NH-])(=O)=O)cc2)n(Cc2ccc(O)cc2)c1[O-])C(=O)[O-] (3D coordinates assigned)
CC(=Cc1sc(=NCCc2ccc(S([NH-])(=O)=O)cc2)n(Cc2ccc(O)cc2)c1[O-])C(=O)[O-] (optimized conformer: 84.7523846148199 kcal/mol)

>  <smiles>  (79) 
CC(=Cc1sc(=NCCc2ccc(S(N)(=O)=O)cc2)n(Cc2ccc(O)cc2)c1O)C(=O)O

>  <score_type>  (79) 
oracle

>  <origin>  (79) 
adg

>  <m_score__min__energy>  (79) 
-14.68

>  <m_primary>  (79) 
energy

$$$$
79:0
     RDKit          3D

 42 44  0  0  0  0  0  0  0  0999 V2000
   56.2480   30.8290   43.1090 O   0  0  0  0  0  0  0  0  0  0  0  0
   57.4010   31.0630   43.5600 C   0  0  0  0  0  0  0  0  0  0  0  0
   58.0720   32.3580   43.2290 C   0  0  0  0  0  0  0  0  0  0  0  0
   58.2770   33.1640   44.4820 C   0  0  0  0  0  0  0  0  0  0  0  0
   57.5810   32.8320   45.6570 C   0  0  0  0  0  0  0  0  0  0  0  0
   57.7890   33.5600   46.8320 C   0  0  0  0  0  0  0  0  0  0  0  0
   58.7010   34.6200   46.8460 C   0  0  0  0  0  0  0  0  0  0  0  0
   59.4080   34.9480   45.6860 C   0  0  0  0  0  0  0  0  0  0  0  0
   59.2030   34.2210   44.5080 C   0  0  0  0  0  0  0  0  0  0  0  0
   58.0850   30.1200   44.3960 N   0  0  0  0  0  0  0  0  0  0  0  0
   57.5950   29.0770   45.0050 C   0  0  0  0  0  0  0  0  0  0  0  0
   56.3130   28.6510   44.9060 N   0  0  0  0  0  0  0  0  0  0  0  0
   56.2790   27.5270   45.6430 C   0  0  0  0  0  0  0  0  0  0  0  0
   55.1460   26.7420   45.8150 O   0  0  0  0  0  0  0  0  0  0  0  0
   57.5210   27.2720   46.1780 C   0  0  0  0  0  0  0  0  0  0  0  0
   58.3510   28.2530   45.7710 N   0  0  0  0  0  0  0  0  0  0  0  0
   59.7490   28.3640   46.0840 C   0  0  0  0  0  0  0  0  0  0  0  0
   60.4770   27.3350   46.0650 O   0  0  0  0  0  0  0  0  0  0  0  0
   60.2950   29.6100   46.4240 O   0  0  0  0  0  0  0  0  0  0  0  0
   60.6040   29.9940   47.7620 C   0  0  0  0  0  0  0  0  0  0  0  0
   61.3800   31.2820   47.7660 C   0  0  0  0  0  0  0  0  0  0  0  0
   60.8300   32.4320   48.3580 C   0  0  0  0  0  0  0  0  0  0  0  0
   61.5220   33.6450   48.3190 C   0  0  0  0  0  0  0  0  0  0  0  0
   62.7690   33.7200   47.6890 C   0  0  0  0  0  0  0  0  0  0  0  0
   63.3230   32.5820   47.0990 C   0  0  0  0  0  0  0  0  0  0  0  0
   62.6310   31.3660   47.1320 C   0  0  0  0  0  0  0  0  0  0  0  0
   59.0473   32.1546   42.7627 H   0  0  0  0  0  0  0  0  0  0  0  0
   57.4379   32.9265   42.5328 H   0  0  0  0  0  0  0  0  0  0  0  0
   56.8683   31.9942   45.6520 H   0  0  0  0  0  0  0  0  0  0  0  0
   57.2352   33.2990   47.7459 H   0  0  0  0  0  0  0  0  0  0  0  0
   58.8618   35.1954   47.7696 H   0  0  0  0  0  0  0  0  0  0  0  0
   60.1276   35.7799   45.6990 H   0  0  0  0  0  0  0  0  0  0  0  0
   59.7682   34.4775   43.5998 H   0  0  0  0  0  0  0  0  0  0  0  0
   55.5170   29.0470   44.3620 H   0  0  0  0  0  0  0  0  0  0  0  0
   57.7883   26.4210   46.8217 H   0  0  0  0  0  0  0  0  0  0  0  0
   59.6695   30.1310   48.3258 H   0  0  0  0  0  0  0  0  0  0  0  0
   61.2128   29.2065   48.2302 H   0  0  0  0  0  0  0  0  0  0  0  0
   59.8500   32.3767   48.8544 H   0  0  0  0  0  0  0  0  0  0  0  0
   61.0862   34.5416   48.7839 H   0  0  0  0  0  0  0  0  0  0  0  0
   63.3131   34.6755   47.6584 H   0  0  0  0  0  0  0  0  0  0  0  0
   64.3052   32.6415   46.6074 H   0  0  0  0  0  0  0  0  0  0  0  0
   63.0678   30.4734   46.6602 H   0  0  0  0  0  0  0  0  0  0  0  0
  1  2  2  0
  2  3  1  0
  3  4  1  0
  4  5  2  0
  5  6  1  0
  6  7  2  0
  7  8  1  0
  8  9  2  0
  2 10  1  0
 10 11  2  3
 11 12  1  0
 12 13  1  0
 13 14  1  0
 13 15  2  0
 15 16  1  0
 16 17  1  0
 17 18  2  0
 17 19  1  0
 19 20  1  0
 20 21  1  0
 21 22  2  0
 22 23  1  0
 23 24  2  0
 24 25  1  0
 25 26  2  0
  9  4  1  0
 16 11  1  0
 26 21  1  0
  3 27  1  0
  3 28  1  0
  5 29  1  0
  6 30  1  0
  7 31  1  0
  8 32  1  0
  9 33  1  0
 12 34  1  0
 15 35  1  0
 20 36  1  0
 20 37  1  0
 22 38  1  0
 23 39  1  0
 24 40  1  0
 25 41  1  0
 26 42  1  0
M  CHG  1  14  -1
M  END
>  <UniqueID>  (80) 
73

>  <SMILES>  (80) 
O=C(Cc1ccccc1)N=c1[nH]c([O-])cn1C(=O)OCc1ccccc1

>  <Energy>  (80) 
76.65342833331925

>  <Genealogy>  (80) 
O=C(Cc1ccccc1)N=c1[nH]c([O-])cn1C(=O)OCc1ccccc1 (protonated)
O=C(Cc1ccccc1)N=c1[nH]c([O-])cn1C(=O)OCc1ccccc1 (3D coordinates assigned)
O=C(Cc1ccccc1)N=c1[nH]c([O-])cn1C(=O)OCc1ccccc1 (optimized conformer: 76.65342833331925 kcal/mol)

>  <smiles>  (80) 
O=C(Cc1ccccc1)N=c1[nH]c(O)cn1C(=O)OCc1ccccc1

>  <score_type>  (80) 
oracle

>  <origin>  (80) 
adg

>  <m_score__min__energy>  (80) 
-11.300000000000001

>  <m_primary>  (80) 
energy

$$$$
80:0
     RDKit          3D

 52 55  0  0  0  0  0  0  0  0999 V2000
   51.4166   28.7458   53.4566 H   0  0  0  0  0  0  0  0  0  0  0  0
   52.3040   28.1920   53.7970 C   0  0  0  0  0  0  0  0  0  0  0  0
   52.1871   27.2169   54.2926 H   0  0  0  0  0  0  0  0  0  0  0  0
   53.5270   28.7050   53.6080 C   0  0  0  0  0  0  0  0  0  0  0  0
   54.5770   27.9620   54.0560 N   0  0  0  0  0  0  0  0  0  0  0  0
   55.8670   28.2490   53.7520 C   0  0  0  0  0  0  0  0  0  0  0  0
   56.6798   27.6477   54.1855 H   0  0  0  0  0  0  0  0  0  0  0  0
   56.1660   29.3060   52.8900 C   0  0  0  0  0  0  0  0  0  0  0  0
   57.5700   29.6030   52.5250 C   0  0  0  0  0  0  0  0  0  0  0  0
   58.4310   28.6820   52.6020 O   0  0  0  0  0  0  0  0  0  0  0  0
   57.9800   30.9160   52.0970 N   0  0  0  0  0  0  0  0  0  0  0  0
   57.1030   31.7390   51.2490 C   0  0  0  0  0  0  0  0  0  0  0  0
   56.2947   31.1113   50.8458 H   0  0  0  0  0  0  0  0  0  0  0  0
   56.6802   32.5536   51.8553 H   0  0  0  0  0  0  0  0  0  0  0  0
   57.9020   32.3440   50.0870 C   0  0  0  0  0  0  0  0  0  0  0  0
   58.0789   31.5644   49.3313 H   0  0  0  0  0  0  0  0  0  0  0  0
   57.3188   33.1755   49.6646 H   0  0  0  0  0  0  0  0  0  0  0  0
   59.1960   32.8730   50.5380 N   0  0  0  0  0  0  0  0  0  0  0  0
   60.0290   33.5480   49.5870 C   0  0  0  0  0  0  0  0  0  0  0  0
   59.6490   34.6450   49.0960 O   0  0  0  0  0  0  0  0  0  0  0  0
   61.2150   32.9210   49.0830 N   0  0  0  0  0  0  0  0  0  0  0  0
   62.3100   32.5910   49.9970 C   0  0  0  0  0  0  0  0  0  0  0  0
   62.4470   33.4152   50.7125 H   0  0  0  0  0  0  0  0  0  0  0  0
   62.0617   31.6642   50.5349 H   0  0  0  0  0  0  0  0  0  0  0  0
   63.6090   32.3810   49.2120 C   0  0  0  0  0  0  0  0  0  0  0  0
   63.9447   33.3465   48.8056 H   0  0  0  0  0  0  0  0  0  0  0  0
   64.3682   31.9665   49.8915 H   0  0  0  0  0  0  0  0  0  0  0  0
   63.4110   31.4730   48.1460 O   0  0  0  0  0  0  0  0  0  0  0  0
   62.5200   32.0370   47.2020 C   0  0  0  0  0  0  0  0  0  0  0  0
   62.8994   33.0215   46.8907 H   0  0  0  0  0  0  0  0  0  0  0  0
   62.4502   31.3633   46.3352 H   0  0  0  0  0  0  0  0  0  0  0  0
   61.1250   32.2050   47.8080 C   0  0  0  0  0  0  0  0  0  0  0  0
   60.4925   32.7768   47.1131 H   0  0  0  0  0  0  0  0  0  0  0  0
   60.6851   31.2119   47.9821 H   0  0  0  0  0  0  0  0  0  0  0  0
   59.5610   32.8210   51.9560 C   0  0  0  0  0  0  0  0  0  0  0  0
   60.6265   33.0696   52.0700 H   0  0  0  0  0  0  0  0  0  0  0  0
   58.9538   33.5457   52.5183 H   0  0  0  0  0  0  0  0  0  0  0  0
   59.3050   31.4120   52.4960 C   0  0  0  0  0  0  0  0  0  0  0  0
   60.0749   30.7325   52.1017 H   0  0  0  0  0  0  0  0  0  0  0  0
   59.3432   31.4506   53.5947 H   0  0  0  0  0  0  0  0  0  0  0  0
   55.1180   30.1220   52.4440 C   0  0  0  0  0  0  0  0  0  0  0  0
   55.3367   30.9573   51.7625 H   0  0  0  0  0  0  0  0  0  0  0  0
   53.7870   29.8920   52.8530 C   0  0  0  0  0  0  0  0  0  0  0  0
   52.8690   30.8380   52.5290 C   0  0  0  0  0  0  0  0  0  0  0  0
   52.5955   31.5575   53.3148 H   0  0  0  0  0  0  0  0  0  0  0  0
   52.2040   30.9910   51.2210 C   0  0  0  0  0  0  0  0  0  0  0  0
   52.2270   30.0760   50.2340 N   0  0  0  0  0  0  0  0  0  0  0  0
   51.3910   30.5950   49.3090 C   0  0  0  0  0  0  0  0  0  0  0  0
   51.1570   30.0240   48.2120 O   0  0  0  0  0  0  0  0  0  0  0  0
   50.8200   31.7670   49.6540 N   0  0  0  0  0  0  0  0  0  0  0  0
   51.3360   31.9960   50.8730 C   0  0  0  0  0  0  0  0  0  0  0  0
   51.0170   33.1020   51.6510 O   0  0  0  0  0  0  0  0  0  0  0  0
  1  2  1  0
  2  3  1  0
  2  4  2  0
  4  5  1  0
  5  6  2  0
  6  7  1  0
  6  8  1  0
  8  9  1  0
  9 10  2  0
  9 11  1  0
 11 12  1  0
 12 13  1  0
 12 14  1  0
 12 15  1  0
 15 16  1  0
 15 17  1  0
 15 18  1  0
 18 19  1  0
 19 20  2  0
 19 21  1  0
 21 22  1  0
 22 23  1  0
 22 24  1  0
 22 25  1  0
 25 26  1  0
 25 27  1  0
 25 28  1  0
 28 29  1  0
 29 30  1  0
 29 31  1  0
 29 32  1  0
 32 33  1  0
 32 34  1  0
 18 35  1  0
 35 36  1  0
 35 37  1  0
 35 38  1  0
 38 39  1  0
 38 40  1  0
  8 41  2  0
 41 42  1  0
 41 43  1  0
 43 44  2  0
 44 45  1  0
 44 46  1  0
 46 47  1  0
 47 48  1  0
 48 49  2  0
 48 50  1  0
 50 51  1  0
 51 52  1  0
 43  4  1  0
 51 46  2  0
 38 11  1  0
 32 21  1  0
M  CHG  3  47  -1  50  -1  52  -1
M  END
>  <UniqueID>  (81) 
74

>  <SMILES>  (81) 
C=c1ncc(C(=O)N2CCN(C(=O)N3CCOCC3)CC2)c/c1=C/c1[n-]c(=O)[n-]c1[O-]

>  <Energy>  (81) 
119.503882620165

>  <Genealogy>  (81) 
C=c1ncc(C(=O)N2CCN(C(=O)N3CCOCC3)CC2)cc1=Cc1[n-]c(=O)[n-]c1[O-] (protonated)
C=c1ncc(C(=O)N2CCN(C(=O)N3CCOCC3)CC2)c/c1=C/c1[n-]c(=O)[n-]c1[O-] (cis-trans isomerization)
C=c1ncc(C(=O)N2CCN(C(=O)N3CCOCC3)CC2)c/c1=C/c1[n-]c(=O)[n-]c1[O-] (3D coordinates assigned)
C=c1ncc(C(=O)N2CCN(C(=O)N3CCOCC3)CC2)c/c1=C/c1[n-]c(=O)[n-]c1[O-] (nonaromatic ring conformer: 119.503882620165 kcal/mol)

>  <smiles>  (81) 
C=c1ncc(C(=O)N2CCN(C(=O)N3CCOCC3)CC2)cc1=Cc1[nH]c(=O)[nH]c1O

>  <score_type>  (81) 
oracle

>  <origin>  (81) 
adg

>  <m_score__min__energy>  (81) 
-17.879999999999999

>  <m_primary>  (81) 
energy

$$$$
81:0
     RDKit          3D

 48 50  0  0  0  0  0  0  0  0999 V2000
   62.7150   33.8520   46.4090 C   0  0  0  0  0  0  0  0  0  0  0  0
   61.2630   33.7130   46.4340 N   0  0  0  0  0  0  0  0  0  0  0  0
   60.5770   32.7090   47.2140 C   0  0  0  0  0  0  0  0  0  0  0  0
   61.2630   31.5580   47.6530 C   0  0  0  0  0  0  0  0  0  0  0  0
   60.6120   30.5790   48.4050 C   0  0  0  0  0  0  0  0  0  0  0  0
   59.2660   30.7260   48.7290 C   0  0  0  0  0  0  0  0  0  0  0  0
   58.5650   31.8530   48.3050 C   0  0  0  0  0  0  0  0  0  0  0  0
   59.2030   32.8560   47.5500 C   0  0  0  0  0  0  0  0  0  0  0  0
   58.3920   34.0430   47.0940 C   0  0  0  0  0  0  0  0  0  0  0  0
   57.8670   33.7930   45.7590 N   0  0  0  0  0  0  0  0  0  0  0  0
   58.6710   33.8780   44.5800 C   0  0  0  0  0  0  0  0  0  0  0  0
   59.6250   34.6990   44.5140 O   0  0  0  0  0  0  0  0  0  0  0  0
   58.4250   32.9260   43.4540 C   0  0  0  0  0  0  0  0  0  0  0  0
   57.7140   31.7080   43.9760 C   0  0  0  0  0  0  0  0  0  0  0  0
   56.6560   31.1380   43.2480 C   0  0  0  0  0  0  0  0  0  0  0  0
   56.0500   29.9590   43.6940 C   0  0  0  0  0  0  0  0  0  0  0  0
   56.5120   29.3200   44.8500 C   0  0  0  0  0  0  0  0  0  0  0  0
   55.8930   28.0950   45.2640 N   0  0  0  0  0  0  0  0  0  0  0  0
   56.5270   27.0570   46.0240 C   0  0  0  0  0  0  0  0  0  0  0  0
   55.8400   26.0590   46.3700 O   0  0  0  0  0  0  0  0  0  0  0  0
   57.9700   27.1010   46.3630 C   0  0  0  0  0  0  0  0  0  0  0  0
   58.9360   27.0720   45.3430 C   0  0  0  0  0  0  0  0  0  0  0  0
   60.2920   27.1340   45.6740 C   0  0  0  0  0  0  0  0  0  0  0  0
   60.6750   27.2290   46.9740 N   0  0  0  0  0  0  0  0  0  0  0  0
   59.7640   27.2680   47.9820 C   0  0  0  0  0  0  0  0  0  0  0  0
   58.3980   27.2110   47.6960 C   0  0  0  0  0  0  0  0  0  0  0  0
   57.5540   29.9020   45.5920 C   0  0  0  0  0  0  0  0  0  0  0  0
   58.1560   31.0830   45.1520 C   0  0  0  0  0  0  0  0  0  0  0  0
   63.0976   33.8886   47.4397 H   0  0  0  0  0  0  0  0  0  0  0  0
   63.1567   32.9920   45.8842 H   0  0  0  0  0  0  0  0  0  0  0  0
   62.9855   34.7801   45.8842 H   0  0  0  0  0  0  0  0  0  0  0  0
   60.7250   34.3560   45.8120 H   0  0  0  0  0  0  0  0  0  0  0  0
   62.3257   31.4300   47.3993 H   0  0  0  0  0  0  0  0  0  0  0  0
   61.1636   29.6892   48.7425 H   0  0  0  0  0  0  0  0  0  0  0  0
   58.7554   29.9516   49.3203 H   0  0  0  0  0  0  0  0  0  0  0  0
   57.5011   31.9605   48.5629 H   0  0  0  0  0  0  0  0  0  0  0  0
   57.5568   34.2052   47.7912 H   0  0  0  0  0  0  0  0  0  0  0  0
   59.0331   34.9366   47.0726 H   0  0  0  0  0  0  0  0  0  0  0  0
   57.8030   33.4146   42.6896 H   0  0  0  0  0  0  0  0  0  0  0  0
   59.3855   32.6280   43.0083 H   0  0  0  0  0  0  0  0  0  0  0  0
   56.3033   31.6205   42.3245 H   0  0  0  0  0  0  0  0  0  0  0  0
   55.2057   29.5318   43.1331 H   0  0  0  0  0  0  0  0  0  0  0  0
   58.6264   27.0009   44.2899 H   0  0  0  0  0  0  0  0  0  0  0  0
   61.0521   27.1058   44.8793 H   0  0  0  0  0  0  0  0  0  0  0  0
   60.1033   27.3446   49.0255 H   0  0  0  0  0  0  0  0  0  0  0  0
   57.6607   27.2521   48.5113 H   0  0  0  0  0  0  0  0  0  0  0  0
   57.8966   29.4258   46.5225 H   0  0  0  0  0  0  0  0  0  0  0  0
   58.9806   31.5253   45.7302 H   0  0  0  0  0  0  0  0  0  0  0  0
  1  2  1  0
  2  3  1  0
  3  4  2  0
  4  5  1  0
  5  6  2  0
  6  7  1  0
  7  8  2  0
  8  9  1  0
  9 10  1  0
 10 11  1  0
 11 12  2  0
 11 13  1  0
 13 14  1  0
 14 15  2  0
 15 16  1  0
 16 17  2  0
 17 18  1  0
 18 19  1  0
 19 20  2  0
 19 21  1  0
 21 22  2  0
 22 23  1  0
 23 24  2  0
 24 25  1  0
 25 26  2  0
 17 27  1  0
 27 28  2  0
  8  3  1  0
 28 14  1  0
 26 21  1  0
  1 29  1  0
  1 30  1  0
  1 31  1  0
  2 32  1  0
  4 33  1  0
  5 34  1  0
  6 35  1  0
  7 36  1  0
  9 37  1  0
  9 38  1  0
 13 39  1  0
 13 40  1  0
 15 41  1  0
 16 42  1  0
 22 43  1  0
 23 44  1  0
 25 45  1  0
 26 46  1  0
 27 47  1  0
 28 48  1  0
M  CHG  2  10  -1  18  -1
M  END
>  <UniqueID>  (82) 
75

>  <SMILES>  (82) 
CNc1ccccc1C[N-]C(=O)Cc1ccc([N-]C(=O)c2ccncc2)cc1

>  <Energy>  (82) 
50.999560959592955

>  <Genealogy>  (82) 
CNc1ccccc1C[N-]C(=O)Cc1ccc([N-]C(=O)c2ccncc2)cc1 (protonated)
CNc1ccccc1C[N-]C(=O)Cc1ccc([N-]C(=O)c2ccncc2)cc1 (3D coordinates assigned)
CNc1ccccc1C[N-]C(=O)Cc1ccc([N-]C(=O)c2ccncc2)cc1 (optimized conformer: 50.999560959592955 kcal/mol)

>  <smiles>  (82) 
CNc1ccccc1CNC(=O)Cc1ccc(NC(=O)c2ccncc2)cc1

>  <score_type>  (82) 
oracle

>  <origin>  (82) 
adg

>  <m_score__min__energy>  (82) 
-11.85

>  <m_primary>  (82) 
energy

$$$$
82:0
     RDKit          3D

 33 35  0  0  0  0  0  0  0  0999 V2000
   57.4990   26.5800   43.6570 O   0  0  0  0  0  0  0  0  0  0  0  0
   57.3820   26.9070   44.8690 C   0  0  0  0  0  0  0  0  0  0  0  0
   56.9600   25.8790   45.8430 C   0  0  0  0  0  0  0  0  0  0  0  0
   57.7740   24.9200   46.4080 C   0  0  0  0  0  0  0  0  0  0  0  0
   56.9510   24.1670   47.2190 C   0  0  0  0  0  0  0  0  0  0  0  0
   57.3750   23.0910   47.9870 O   0  0  0  0  0  0  0  0  0  0  0  0
   55.6720   24.5880   47.1820 N   0  0  0  0  0  0  0  0  0  0  0  0
   55.6860   25.6330   46.3320 C   0  0  0  0  0  0  0  0  0  0  0  0
   54.5390   26.3330   45.9810 O   0  0  0  0  0  0  0  0  0  0  0  0
   57.6920   28.2970   45.2730 C   0  0  0  0  0  0  0  0  0  0  0  0
   58.9990   28.6550   45.6390 C   0  0  0  0  0  0  0  0  0  0  0  0
   59.3040   29.9740   46.0020 C   0  0  0  0  0  0  0  0  0  0  0  0
   60.7230   30.3430   46.3620 C   0  0  0  0  0  0  0  0  0  0  0  0
   60.7360   31.3230   47.5040 C   0  0  0  0  0  0  0  0  0  0  0  0
   61.3310   32.5860   47.3460 C   0  0  0  0  0  0  0  0  0  0  0  0
   61.3120   33.5100   48.3950 C   0  0  0  0  0  0  0  0  0  0  0  0
   60.6930   33.1840   49.6060 C   0  0  0  0  0  0  0  0  0  0  0  0
   60.6760   34.0810   50.6220 F   0  0  0  0  0  0  0  0  0  0  0  0
   60.0910   31.9330   49.7670 C   0  0  0  0  0  0  0  0  0  0  0  0
   60.1080   31.0060   48.7200 C   0  0  0  0  0  0  0  0  0  0  0  0
   58.2800   30.9370   45.9600 C   0  0  0  0  0  0  0  0  0  0  0  0
   58.5110   32.1380   46.2610 O   0  0  0  0  0  0  0  0  0  0  0  0
   57.0230   30.5750   45.5920 N   0  0  0  0  0  0  0  0  0  0  0  0
   56.7060   29.2980   45.2510 C   0  0  0  0  0  0  0  0  0  0  0  0
   55.3960   28.9990   44.8930 O   0  0  0  0  0  0  0  0  0  0  0  0
   58.8535   24.7841   46.2459 H   0  0  0  0  0  0  0  0  0  0  0  0
   59.7919   27.8926   45.6410 H   0  0  0  0  0  0  0  0  0  0  0  0
   61.2699   29.4353   46.6569 H   0  0  0  0  0  0  0  0  0  0  0  0
   61.2040   30.8067   45.4881 H   0  0  0  0  0  0  0  0  0  0  0  0
   61.8137   32.8488   46.3931 H   0  0  0  0  0  0  0  0  0  0  0  0
   61.7847   34.4951   48.2677 H   0  0  0  0  0  0  0  0  0  0  0  0
   59.6029   31.6771   50.7190 H   0  0  0  0  0  0  0  0  0  0  0  0
   59.6278   30.0248   48.8491 H   0  0  0  0  0  0  0  0  0  0  0  0
  1  2  2  0
  2  3  1  0
  3  4  1  0
  4  5  2  0
  5  6  1  0
  5  7  1  0
  7  8  1  0
  8  9  1  0
  2 10  1  0
 10 11  1  0
 11 12  2  0
 12 13  1  0
 13 14  1  0
 14 15  2  0
 15 16  1  0
 16 17  2  0
 17 18  1  0
 17 19  1  0
 19 20  2  0
 12 21  1  0
 21 22  2  0
 21 23  1  0
 23 24  1  0
 24 25  1  0
  8  3  2  0
 24 10  2  0
 20 14  1  0
  4 26  1  0
 11 27  1  0
 13 28  1  0
 13 29  1  0
 15 30  1  0
 16 31  1  0
 19 32  1  0
 20 33  1  0
M  CHG  5   6  -1   7  -1   9  -1  23  -1  25  -1
M  END
>  <UniqueID>  (83) 
76

>  <SMILES>  (83) 
O=C(c1cc([O-])[n-]c1[O-])c1cc(Cc2ccc(F)cc2)c(=O)[n-]c1[O-]

>  <Energy>  (83) 
68.98562304450952

>  <Genealogy>  (83) 
O=C(c1cc([O-])[n-]c1[O-])c1cc(Cc2ccc(F)cc2)c(=O)[n-]c1[O-] (protonated)
O=C(c1cc([O-])[n-]c1[O-])c1cc(Cc2ccc(F)cc2)c(=O)[n-]c1[O-] (3D coordinates assigned)
O=C(c1cc([O-])[n-]c1[O-])c1cc(Cc2ccc(F)cc2)c(=O)[n-]c1[O-] (optimized conformer: 68.98562304450952 kcal/mol)

>  <smiles>  (83) 
O=C(c1cc(O)[nH]c1O)c1cc(Cc2ccc(F)cc2)c(=O)[nH]c1O

>  <score_type>  (83) 
oracle

>  <origin>  (83) 
adg

>  <m_score__min__energy>  (83) 
-19.510000000000002

>  <m_primary>  (83) 
energy

$$$$
83:0
     RDKit          3D

 40 42  0  0  0  0  0  0  0  0999 V2000
   57.9148   26.1865   44.0227 H   0  0  0  0  0  0  0  0  0  0  0  0
   58.0970   27.2200   43.6930 C   0  0  0  0  0  0  0  0  0  0  0  0
   58.0614   27.4702   42.6224 H   0  0  0  0  0  0  0  0  0  0  0  0
   58.3640   28.1800   44.6010 C   0  0  0  0  0  0  0  0  0  0  0  0
   58.4660   27.9300   46.0110 C   0  0  0  0  0  0  0  0  0  0  0  0
   58.2070   26.7130   46.5630 C   0  0  0  0  0  0  0  0  0  0  0  0
   59.0289   26.2187   47.1016 H   0  0  0  0  0  0  0  0  0  0  0  0
   56.9100   25.9980   46.4990 C   0  0  0  0  0  0  0  0  0  0  0  0
   56.7330   24.6900   46.7650 N   0  0  0  0  0  0  0  0  0  0  0  0
   55.4380   24.4760   46.4450 C   0  0  0  0  0  0  0  0  0  0  0  0
   54.8840   23.3490   46.5650 O   0  0  0  0  0  0  0  0  0  0  0  0
   54.7840   25.5590   45.9730 N   0  0  0  0  0  0  0  0  0  0  0  0
   55.7330   26.5080   46.0060 C   0  0  0  0  0  0  0  0  0  0  0  0
   55.5240   27.8220   45.6000 O   0  0  0  0  0  0  0  0  0  0  0  0
   58.7950   29.0270   46.8420 C   0  0  0  0  0  0  0  0  0  0  0  0
   58.8894   28.8687   47.9265 H   0  0  0  0  0  0  0  0  0  0  0  0
   59.0030   30.3060   46.3200 C   0  0  0  0  0  0  0  0  0  0  0  0
   59.3480   31.4440   47.2060 C   0  0  0  0  0  0  0  0  0  0  0  0
   58.4480   31.9980   47.8990 O   0  0  0  0  0  0  0  0  0  0  0  0
   60.6890   31.9450   47.2740 N   0  0  0  0  0  0  0  0  0  0  0  0
   60.9540   33.3580   46.9690 C   0  0  0  0  0  0  0  0  0  0  0  0
   61.2134   33.4576   45.9047 H   0  0  0  0  0  0  0  0  0  0  0  0
   60.0534   33.9487   47.1927 H   0  0  0  0  0  0  0  0  0  0  0  0
   62.1150   33.8740   47.8230 C   0  0  0  0  0  0  0  0  0  0  0  0
   62.3261   34.9160   47.5409 H   0  0  0  0  0  0  0  0  0  0  0  0
   61.8168   33.7967   48.8790 H   0  0  0  0  0  0  0  0  0  0  0  0
   63.4030   33.0350   47.6310 C   0  0  0  0  0  0  0  0  0  0  0  0
   63.9572   33.4927   46.7983 H   0  0  0  0  0  0  0  0  0  0  0  0
   64.2160   33.0740   48.8590 C   0  0  0  0  0  0  0  0  0  0  0  0
   64.8610   33.1060   49.8190 N   0  0  0  0  0  0  0  0  0  0  0  0
   63.1270   31.5720   47.2150 C   0  0  0  0  0  0  0  0  0  0  0  0
   63.1344   31.5094   46.1168 H   0  0  0  0  0  0  0  0  0  0  0  0
   63.9122   30.9427   47.6593 H   0  0  0  0  0  0  0  0  0  0  0  0
   61.7750   31.0650   47.7280 C   0  0  0  0  0  0  0  0  0  0  0  0
   61.6009   30.0484   47.3456 H   0  0  0  0  0  0  0  0  0  0  0  0
   61.7915   31.0589   48.8279 H   0  0  0  0  0  0  0  0  0  0  0  0
   58.8990   30.4870   44.9420 C   0  0  0  0  0  0  0  0  0  0  0  0
   59.0756   31.4824   44.5085 H   0  0  0  0  0  0  0  0  0  0  0  0
   58.5820   29.4470   44.1300 N   0  0  0  0  0  0  0  0  0  0  0  0
   58.5150   29.6510   43.1060 H   0  0  0  0  0  0  0  0  0  0  0  0
  1  2  1  0
  2  3  1  0
  2  4  2  0
  4  5  1  0
  5  6  2  0
  6  7  1  0
  6  8  1  0
  8  9  1  0
  9 10  1  0
 10 11  2  0
 10 12  1  0
 12 13  1  0
 13 14  1  0
  5 15  1  0
 15 16  1  0
 15 17  2  0
 17 18  1  0
 18 19  2  0
 18 20  1  0
 20 21  1  0
 21 22  1  0
 21 23  1  0
 21 24  1  0
 24 25  1  0
 24 26  1  0
 24 27  1  0
 27 28  1  0
 27 29  1  0
 29 30  3  0
 27 31  1  0
 31 32  1  0
 31 33  1  0
 31 34  1  0
 34 35  1  0
 34 36  1  0
 17 37  1  0
 37 38  1  0
 37 39  2  0
 39 40  1  0
 39  4  1  0
 13  8  2  0
 34 20  1  0
M  CHG  4   9  -1  12  -1  14  -1  39   1
M  END
>  <UniqueID>  (84) 
77

>  <SMILES>  (84) 
C=c1[nH+]cc(C(=O)N2CCC(C#N)CC2)c/c1=C\c1[n-]c(=O)[n-]c1[O-]

>  <Energy>  (84) 
92.91497153167323

>  <Genealogy>  (84) 
C=c1[nH+]cc(C(=O)N2CCC(C#N)CC2)cc1=Cc1[n-]c(=O)[n-]c1[O-] (protonated)
C=c1[nH+]cc(C(=O)N2CCC(C#N)CC2)c/c1=C\c1[n-]c(=O)[n-]c1[O-] (cis-trans isomerization)
C=c1[nH+]cc(C(=O)N2CCC(C#N)CC2)c/c1=C\c1[n-]c(=O)[n-]c1[O-] (3D coordinates assigned)
C=c1[nH+]cc(C(=O)N2CCC(C#N)CC2)c/c1=C\c1[n-]c(=O)[n-]c1[O-] (nonaromatic ring conformer: 92.91497153167323 kcal/mol)

>  <smiles>  (84) 
C=c1ncc(C(=O)N2CCC(C#N)CC2)cc1=Cc1[nH]c(=O)[nH]c1O

>  <score_type>  (84) 
oracle

>  <origin>  (84) 
adg

>  <m_score__min__energy>  (84) 
-15.289999999999999

>  <m_primary>  (84) 
energy

$$$$
84:0
     RDKit          3D

 65 69  0  0  0  0  0  0  0  0999 V2000
   58.9925   29.4280   50.8696 H   0  0  0  0  0  0  0  0  0  0  0  0
   59.5020   29.6530   49.9210 C   0  0  0  0  0  0  0  0  0  0  0  0
   59.5620   28.7110   48.9430 N   0  0  0  0  0  0  0  0  0  0  0  0
   60.1920   28.9290   47.7550 C   0  0  0  0  0  0  0  0  0  0  0  0
   60.1810   27.9750   46.8670 N   0  0  0  0  0  0  0  0  0  0  0  0
   59.2710   27.8030   45.7690 C   0  0  0  0  0  0  0  0  0  0  0  0
   59.2660   26.7290   45.1070 O   0  0  0  0  0  0  0  0  0  0  0  0
   58.2990   28.8670   45.4600 C   0  0  0  0  0  0  0  0  0  0  0  0
   58.6320   30.1650   45.6980 N   0  0  0  0  0  0  0  0  0  0  0  0
   57.7870   31.1880   45.3900 C   0  0  0  0  0  0  0  0  0  0  0  0
   58.1760   32.5570   45.6390 N   0  0  0  0  0  0  0  0  0  0  0  0
   58.0780   33.1170   46.9950 C   0  0  0  0  0  0  0  0  0  0  0  0
   57.0520   33.4749   47.1659 H   0  0  0  0  0  0  0  0  0  0  0  0
   58.3315   32.3330   47.7237 H   0  0  0  0  0  0  0  0  0  0  0  0
   59.0550   34.2860   47.1630 C   0  0  0  0  0  0  0  0  0  0  0  0
   58.8590   34.7838   48.1241 H   0  0  0  0  0  0  0  0  0  0  0  0
   60.0818   33.8923   47.1364 H   0  0  0  0  0  0  0  0  0  0  0  0
   58.9040   35.2240   46.1170 O   0  0  0  0  0  0  0  0  0  0  0  0
   59.2830   34.6280   44.8920 C   0  0  0  0  0  0  0  0  0  0  0  0
   59.2624   35.3906   44.0996 H   0  0  0  0  0  0  0  0  0  0  0  0
   60.2961   34.2140   45.0028 H   0  0  0  0  0  0  0  0  0  0  0  0
   58.3290   33.4890   44.5160 C   0  0  0  0  0  0  0  0  0  0  0  0
   57.3460   33.9100   44.2581 H   0  0  0  0  0  0  0  0  0  0  0  0
   58.7452   32.9449   43.6554 H   0  0  0  0  0  0  0  0  0  0  0  0
   56.5800   30.9060   44.8270 N   0  0  0  0  0  0  0  0  0  0  0  0
   56.1980   29.6280   44.5740 C   0  0  0  0  0  0  0  0  0  0  0  0
   55.0770   29.4020   44.0490 O   0  0  0  0  0  0  0  0  0  0  0  0
   57.0530   28.5730   44.8870 C   0  0  0  0  0  0  0  0  0  0  0  0
   56.7571   27.5322   44.6890 H   0  0  0  0  0  0  0  0  0  0  0  0
   60.7830   30.1900   47.5180 C   0  0  0  0  0  0  0  0  0  0  0  0
   61.2877   30.3942   46.5622 H   0  0  0  0  0  0  0  0  0  0  0  0
   60.7220   31.1760   48.5060 C   0  0  0  0  0  0  0  0  0  0  0  0
   61.1734   32.1628   48.3259 H   0  0  0  0  0  0  0  0  0  0  0  0
   60.0880   30.9100   49.7230 C   0  0  0  0  0  0  0  0  0  0  0  0
   59.9990   31.9520   50.7650 C   0  0  0  0  0  0  0  0  0  0  0  0
   58.7540   32.5620   50.9900 C   0  0  0  0  0  0  0  0  0  0  0  0
   57.8933   32.2938   50.3598 H   0  0  0  0  0  0  0  0  0  0  0  0
   58.6000   33.5060   52.0070 C   0  0  0  0  0  0  0  0  0  0  0  0
   57.6220   33.9816   52.1725 H   0  0  0  0  0  0  0  0  0  0  0  0
   59.6860   33.8460   52.8130 C   0  0  0  0  0  0  0  0  0  0  0  0
   59.5597   34.5787   53.6237 H   0  0  0  0  0  0  0  0  0  0  0  0
   60.9340   33.2580   52.5930 C   0  0  0  0  0  0  0  0  0  0  0  0
   61.7841   33.5273   53.2371 H   0  0  0  0  0  0  0  0  0  0  0  0
   61.1140   32.3260   51.5570 C   0  0  0  0  0  0  0  0  0  0  0  0
   62.7410   31.6700   51.2810 S   0  0  0  0  0  0  0  0  0  0  0  0
   63.3070   31.2510   52.6090 O   0  0  0  0  0  0  0  0  0  0  0  0
   62.6750   30.4710   50.3770 O   0  0  0  0  0  0  0  0  0  0  0  0
   63.7640   32.9020   50.5650 N   0  0  0  0  0  0  0  0  0  0  0  0
   63.0460   34.1650   50.2980 C   0  0  0  0  0  0  0  0  0  0  0  0
   63.7812   34.9816   50.2469 H   0  0  0  0  0  0  0  0  0  0  0  0
   62.3243   34.3111   51.1152 H   0  0  0  0  0  0  0  0  0  0  0  0
   62.2510   34.1400   48.9840 C   0  0  0  0  0  0  0  0  0  0  0  0
   61.8440   35.1428   48.7874 H   0  0  0  0  0  0  0  0  0  0  0  0
   61.4321   33.4113   49.0760 H   0  0  0  0  0  0  0  0  0  0  0  0
   63.1210   33.7420   47.8660 N   0  0  0  0  0  0  0  0  0  0  0  0
   62.3590   33.7510   46.6070 C   0  0  0  0  0  0  0  0  0  0  0  0
   61.2820   33.7637   46.8303 H   0  0  0  0  0  0  0  0  0  0  0  0
   62.6233   34.6461   46.0248 H   0  0  0  0  0  0  0  0  0  0  0  0
   62.6021   32.8499   46.0248 H   0  0  0  0  0  0  0  0  0  0  0  0
   63.6730   32.3990   48.1150 C   0  0  0  0  0  0  0  0  0  0  0  0
   64.3040   32.1008   47.2648 H   0  0  0  0  0  0  0  0  0  0  0  0
   62.8456   31.6839   48.2333 H   0  0  0  0  0  0  0  0  0  0  0  0
   64.5170   32.4100   49.3950 C   0  0  0  0  0  0  0  0  0  0  0  0
   65.3887   33.0620   49.2370 H   0  0  0  0  0  0  0  0  0  0  0  0
   64.8196   31.3734   49.6044 H   0  0  0  0  0  0  0  0  0  0  0  0
  1  2  1  0
  2  3  1  0
  3  4  1  0
  4  5  2  0
  5  6  1  0
  6  7  2  0
  6  8  1  0
  8  9  1  0
  9 10  1  0
 10 11  1  0
 11 12  1  0
 12 13  1  0
 12 14  1  0
 12 15  1  0
 15 16  1  0
 15 17  1  0
 15 18  1  0
 18 19  1  0
 19 20  1  0
 19 21  1  0
 19 22  1  0
 22 23  1  0
 22 24  1  0
 10 25  2  0
 25 26  1  0
 26 27  2  0
 26 28  1  0
 28 29  1  0
  4 30  1  0
 30 31  1  0
 30 32  2  0
 32 33  1  0
 32 34  1  0
 34 35  1  0
 35 36  2  0
 36 37  1  0
 36 38  1  0
 38 39  1  0
 38 40  2  0
 40 41  1  0
 40 42  1  0
 42 43  1  0
 42 44  2  0
 44 45  1  0
 45 46  2  0
 45 47  2  0
 45 48  1  0
 48 49  1  0
 49 50  1  0
 49 51  1  0
 49 52  1  0
 52 53  1  0
 52 54  1  0
 52 55  1  0
 55 56  1  0
 56 57  1  0
 56 58  1  0
 56 59  1  0
 55 60  1  0
 60 61  1  0
 60 62  1  0
 60 63  1  0
 63 64  1  0
 63 65  1  0
 34  2  2  0
 44 35  1  0
 63 48  1  0
 28  8  2  0
 22 11  1  0
M  CHG  2   3  -1   9  -1
M  END
>  <UniqueID>  (85) 
78

>  <SMILES>  (85) 
CN1CCN(S(=O)(=O)c2ccccc2-c2cc/c(=N\C(=O)c3cc(=O)nc(N4CCOCC4)[n-]3)[n-]c2)CC1

>  <Energy>  (85) 
92.05648669891974

>  <Genealogy>  (85) 
CN1CCN(S(=O)(=O)c2ccccc2-c2ccc(=NC(=O)c3cc(=O)nc(N4CCOCC4)[n-]3)[n-]c2)CC1 (protonated)
CN1CCN(S(=O)(=O)c2ccccc2-c2cc/c(=N\C(=O)c3cc(=O)nc(N4CCOCC4)[n-]3)[n-]c2)CC1 (cis-trans isomerization)
CN1CCN(S(=O)(=O)c2ccccc2-c2cc/c(=N\C(=O)c3cc(=O)nc(N4CCOCC4)[n-]3)[n-]c2)CC1 (3D coordinates assigned)
CN1CCN(S(=O)(=O)c2ccccc2-c2cc/c(=N\C(=O)c3cc(=O)nc(N4CCOCC4)[n-]3)[n-]c2)CC1 (nonaromatic ring conformer: 92.05648669891974 kcal/mol)

>  <smiles>  (85) 
CN1CCN(S(=O)(=O)c2ccccc2-c2ccc(=NC(=O)c3cc(=O)nc(N4CCOCC4)[nH]3)[nH]c2)CC1

>  <score_type>  (85) 
oracle

>  <origin>  (85) 
adg

>  <m_score__min__energy>  (85) 
-12.76

>  <m_primary>  (85) 
energy

$$$$
85:0
     RDKit          3D

 75 79  0  0  0  0  0  0  0  0999 V2000
   50.7990   33.2630   52.0030 N   0  0  0  0  0  0  0  0  0  0  0  0
   51.4800   32.2600   51.2500 C   0  0  0  0  0  0  0  0  0  0  0  0
   51.3550   32.2440   49.9940 O   0  0  0  0  0  0  0  0  0  0  0  0
   52.3230   31.2490   51.9340 C   0  0  0  0  0  0  0  0  0  0  0  0
   51.7970   30.4750   52.9840 C   0  0  0  0  0  0  0  0  0  0  0  0
   52.5890   29.5180   53.6220 C   0  0  0  0  0  0  0  0  0  0  0  0
   53.9170   29.3330   53.2340 C   0  0  0  0  0  0  0  0  0  0  0  0
   54.4680   30.1100   52.2090 C   0  0  0  0  0  0  0  0  0  0  0  0
   55.8360   29.8870   51.8330 N   0  0  0  0  0  0  0  0  0  0  0  0
   56.8420   30.8930   51.6440 C   0  0  0  0  0  0  0  0  0  0  0  0
   56.5090   32.1050   51.7430 O   0  0  0  0  0  0  0  0  0  0  0  0
   58.2430   30.5510   51.2950 C   0  0  0  0  0  0  0  0  0  0  0  0
   59.2830   30.7230   52.2250 C   0  0  0  0  0  0  0  0  0  0  0  0
   60.6010   30.4290   51.8720 C   0  0  0  0  0  0  0  0  0  0  0  0
   60.8950   29.9380   50.5970 C   0  0  0  0  0  0  0  0  0  0  0  0
   59.8610   29.7130   49.6700 C   0  0  0  0  0  0  0  0  0  0  0  0
   60.1080   29.2240   48.3440 N   0  0  0  0  0  0  0  0  0  0  0  0
   59.9020   27.8940   47.8480 C   0  0  0  0  0  0  0  0  0  0  0  0
   59.7580   26.9220   48.6370 O   0  0  0  0  0  0  0  0  0  0  0  0
   59.7570   27.6810   46.3750 C   0  0  0  0  0  0  0  0  0  0  0  0
   58.8160   28.6980   45.7850 C   0  0  0  0  0  0  0  0  0  0  0  0
   57.5230   28.3210   45.3880 C   0  0  0  0  0  0  0  0  0  0  0  0
   56.6560   29.2600   44.8240 C   0  0  0  0  0  0  0  0  0  0  0  0
   57.0650   30.5870   44.6660 C   0  0  0  0  0  0  0  0  0  0  0  0
   58.3350   30.9860   45.0930 C   0  0  0  0  0  0  0  0  0  0  0  0
   58.7270   32.3550   44.9640 N   0  0  0  0  0  0  0  0  0  0  0  0
   57.9890   33.4700   45.4870 C   0  0  0  0  0  0  0  0  0  0  0  0
   57.1900   34.0700   44.7180 O   0  0  0  0  0  0  0  0  0  0  0  0
   58.0630   33.8430   46.9620 C   0  0  0  0  0  0  0  0  0  0  0  0
   58.4380   32.6500   47.8790 C   0  0  0  0  0  0  0  0  0  0  0  0
   59.9600   32.4850   48.0620 C   0  0  0  0  0  0  0  0  0  0  0  0
   60.6870   33.1050   46.9420 N   0  0  0  0  0  0  0  0  0  0  0  0
   62.3800   32.6980   47.0310 S   0  0  0  0  0  0  0  0  0  0  0  0
   62.5700   31.2330   46.7480 O   0  0  0  0  0  0  0  0  0  0  0  0
   63.1530   33.4940   46.0160 O   0  0  0  0  0  0  0  0  0  0  0  0
   62.9650   33.0400   48.6550 C   0  0  0  0  0  0  0  0  0  0  0  0
   62.2900   33.9460   49.4890 C   0  0  0  0  0  0  0  0  0  0  0  0
   62.7480   34.1750   50.7900 C   0  0  0  0  0  0  0  0  0  0  0  0
   63.8770   33.5010   51.2650 C   0  0  0  0  0  0  0  0  0  0  0  0
   64.5500   32.5930   50.4400 C   0  0  0  0  0  0  0  0  0  0  0  0
   65.9470   31.7260   51.0470 Cl  0  0  0  0  0  0  0  0  0  0  0  0
   64.0940   32.3630   49.1380 C   0  0  0  0  0  0  0  0  0  0  0  0
   60.5230   34.5730   46.9510 C   0  0  0  0  0  0  0  0  0  0  0  0
   59.0540   35.0020   47.1780 C   0  0  0  0  0  0  0  0  0  0  0  0
   59.2180   30.0360   45.6260 C   0  0  0  0  0  0  0  0  0  0  0  0
   58.5440   30.0340   50.0230 C   0  0  0  0  0  0  0  0  0  0  0  0
   53.6610   31.0500   51.5430 C   0  0  0  0  0  0  0  0  0  0  0  0
   50.6700   34.2260   51.6210 H   0  0  0  0  0  0  0  0  0  0  0  0
   50.7554   30.6244   53.3046 H   0  0  0  0  0  0  0  0  0  0  0  0
   52.1649   28.9079   54.4331 H   0  0  0  0  0  0  0  0  0  0  0  0
   54.5333   28.5728   53.7364 H   0  0  0  0  0  0  0  0  0  0  0  0
   59.0568   31.0913   53.2365 H   0  0  0  0  0  0  0  0  0  0  0  0
   61.4111   30.5843   52.5998 H   0  0  0  0  0  0  0  0  0  0  0  0
   61.9378   29.7269   50.3175 H   0  0  0  0  0  0  0  0  0  0  0  0
   60.7425   27.7792   45.8963 H   0  0  0  0  0  0  0  0  0  0  0  0
   59.3487   26.6748   46.1996 H   0  0  0  0  0  0  0  0  0  0  0  0
   57.1910   27.2809   45.5218 H   0  0  0  0  0  0  0  0  0  0  0  0
   55.6491   28.9542   44.5035 H   0  0  0  0  0  0  0  0  0  0  0  0
   56.3861   31.3192   44.2046 H   0  0  0  0  0  0  0  0  0  0  0  0
   57.0495   34.1600   47.2488 H   0  0  0  0  0  0  0  0  0  0  0  0
   57.9817   32.8105   48.8669 H   0  0  0  0  0  0  0  0  0  0  0  0
   58.0637   31.7347   47.3971 H   0  0  0  0  0  0  0  0  0  0  0  0
   60.2654   32.9672   49.0023 H   0  0  0  0  0  0  0  0  0  0  0  0
   60.1995   31.4117   48.0894 H   0  0  0  0  0  0  0  0  0  0  0  0
   61.4002   34.4760   49.1184 H   0  0  0  0  0  0  0  0  0  0  0  0
   62.2191   34.8867   51.4410 H   0  0  0  0  0  0  0  0  0  0  0  0
   64.2366   33.6846   52.2882 H   0  0  0  0  0  0  0  0  0  0  0  0
   64.6230   31.6483   48.4904 H   0  0  0  0  0  0  0  0  0  0  0  0
   61.1420   34.9925   47.7578 H   0  0  0  0  0  0  0  0  0  0  0  0
   60.8338   34.9508   45.9658 H   0  0  0  0  0  0  0  0  0  0  0  0
   58.9487   35.3690   48.2096 H   0  0  0  0  0  0  0  0  0  0  0  0
   58.8169   35.7867   46.4444 H   0  0  0  0  0  0  0  0  0  0  0  0
   60.2329   30.3398   45.9220 H   0  0  0  0  0  0  0  0  0  0  0  0
   57.7342   29.8794   49.2948 H   0  0  0  0  0  0  0  0  0  0  0  0
   54.0785   31.6344   50.7099 H   0  0  0  0  0  0  0  0  0  0  0  0
  1  2  1  0
  2  3  2  0
  2  4  1  0
  4  5  2  0
  5  6  1  0
  6  7  2  0
  7  8  1  0
  8  9  1  0
  9 10  1  0
 10 11  2  0
 10 12  1  0
 12 13  2  0
 13 14  1  0
 14 15  2  0
 15 16  1  0
 16 17  1  0
 17 18  1  0
 18 19  2  0
 18 20  1  0
 20 21  1  0
 21 22  2  0
 22 23  1  0
 23 24  2  0
 24 25  1  0
 25 26  1  0
 26 27  1  0
 27 28  2  0
 27 29  1  0
 29 30  1  0
 30 31  1  0
 31 32  1  0
 32 33  1  0
 33 34  2  0
 33 35  2  0
 33 36  1  0
 36 37  2  0
 37 38  1  0
 38 39  2  0
 39 40  1  0
 40 41  1  0
 40 42  2  0
 32 43  1  0
 43 44  1  0
 25 45  2  0
 16 46  2  0
  8 47  2  0
 47  4  1  0
 46 12  1  0
 45 21  1  0
 44 29  1  0
 42 36  1  0
  1 48  1  0
  5 49  1  0
  6 50  1  0
  7 51  1  0
 13 52  1  0
 14 53  1  0
 15 54  1  0
 20 55  1  0
 20 56  1  0
 22 57  1  0
 23 58  1  0
 24 59  1  0
 29 60  1  0
 30 61  1  0
 30 62  1  0
 31 63  1  0
 31 64  1  0
 37 65  1  0
 38 66  1  0
 39 67  1  0
 42 68  1  0
 43 69  1  0
 43 70  1  0
 44 71  1  0
 44 72  1  0
 45 73  1  0
 46 74  1  0
 47 75  1  0
M  CHG  4   1  -1   9  -1  17  -1  26  -1
M  END
>  <UniqueID>  (86) 
79

>  <SMILES>  (86) 
[NH-]C(=O)c1cccc([N-]C(=O)c2cccc([N-]C(=O)Cc3cccc([N-]C(=O)C4CCN(S(=O)(=O)c5cccc(Cl)c5)CC4)c3)c2)c1

>  <Energy>  (86) 
100.72436126977854

>  <Genealogy>  (86) 
[NH-]C(=O)c1cccc([N-]C(=O)c2cccc([N-]C(=O)Cc3cccc([N-]C(=O)C4CCN(S(=O)(=O)c5cccc(Cl)c5)CC4)c3)c2)c1 (protonated)
[NH-]C(=O)c1cccc([N-]C(=O)c2cccc([N-]C(=O)Cc3cccc([N-]C(=O)C4CCN(S(=O)(=O)c5cccc(Cl)c5)CC4)c3)c2)c1 (3D coordinates assigned)
[NH-]C(=O)c1cccc([N-]C(=O)c2cccc([N-]C(=O)Cc3cccc([N-]C(=O)C4CCN(S(=O)(=O)c5cccc(Cl)c5)CC4)c3)c2)c1 (nonaromatic ring conformer: 100.72436126977854 kcal/mol)

>  <smiles>  (86) 
NC(=O)c1cccc(NC(=O)c2cccc(NC(=O)Cc3cccc(NC(=O)C4CCN(S(=O)(=O)c5cccc(Cl)c5)CC4)c3)c2)c1

>  <score_type>  (86) 
oracle

>  <origin>  (86) 
adg

>  <m_score__min__energy>  (86) 
-19.260000000000002

>  <m_primary>  (86) 
energy

$$$$
86:0
     RDKit          3D

 33 35  0  0  0  0  0  0  0  0999 V2000
   57.2210   20.6880   45.0630 C   0  0  0  0  0  0  0  0  0  0  0  0
   56.2750   21.4150   44.1660 C   0  0  0  0  0  0  0  0  0  0  0  0
   56.2420   21.1340   42.9380 O   0  0  0  0  0  0  0  0  0  0  0  0
   55.4940   22.4940   44.6900 N   0  0  0  0  0  0  0  0  0  0  0  0
   55.9720   23.8240   44.9380 C   0  0  0  0  0  0  0  0  0  0  0  0
   57.2190   24.1940   44.4210 C   0  0  0  0  0  0  0  0  0  0  0  0
   57.7260   25.4760   44.6420 C   0  0  0  0  0  0  0  0  0  0  0  0
   57.0070   26.4030   45.4140 C   0  0  0  0  0  0  0  0  0  0  0  0
   57.5470   27.7650   45.6190 C   0  0  0  0  0  0  0  0  0  0  0  0
   58.7980   27.8980   46.1340 N   0  0  0  0  0  0  0  0  0  0  0  0
   59.3580   29.1160   46.3400 C   0  0  0  0  0  0  0  0  0  0  0  0
   60.6510   29.2140   46.8660 C   0  0  0  0  0  0  0  0  0  0  0  0
   61.2280   30.4700   47.0730 C   0  0  0  0  0  0  0  0  0  0  0  0
   60.5160   31.6310   46.7550 C   0  0  0  0  0  0  0  0  0  0  0  0
   59.2230   31.5420   46.2310 C   0  0  0  0  0  0  0  0  0  0  0  0
   58.6340   30.2810   46.0180 C   0  0  0  0  0  0  0  0  0  0  0  0
   57.3370   30.1310   45.5020 C   0  0  0  0  0  0  0  0  0  0  0  0
   56.6450   31.1470   45.2140 O   0  0  0  0  0  0  0  0  0  0  0  0
   56.8150   28.8840   45.3170 N   0  0  0  0  0  0  0  0  0  0  0  0
   55.5150   28.7660   44.8740 O   0  0  0  0  0  0  0  0  0  0  0  0
   55.7610   26.0280   45.9440 C   0  0  0  0  0  0  0  0  0  0  0  0
   55.2520   24.7430   45.7280 C   0  0  0  0  0  0  0  0  0  0  0  0
   54.0510   24.3850   46.3280 O   0  0  0  0  0  0  0  0  0  0  0  0
   56.9592   20.8892   46.1123 H   0  0  0  0  0  0  0  0  0  0  0  0
   57.1532   19.6074   44.8689 H   0  0  0  0  0  0  0  0  0  0  0  0
   58.2477   21.0317   44.8689 H   0  0  0  0  0  0  0  0  0  0  0  0
   57.8041   23.4691   43.8360 H   0  0  0  0  0  0  0  0  0  0  0  0
   58.6956   25.7620   44.2083 H   0  0  0  0  0  0  0  0  0  0  0  0
   61.2133   28.3024   47.1166 H   0  0  0  0  0  0  0  0  0  0  0  0
   62.2443   30.5456   47.4869 H   0  0  0  0  0  0  0  0  0  0  0  0
   60.9749   32.6174   46.9177 H   0  0  0  0  0  0  0  0  0  0  0  0
   58.6654   32.4577   45.9849 H   0  0  0  0  0  0  0  0  0  0  0  0
   55.1801   26.7518   46.5345 H   0  0  0  0  0  0  0  0  0  0  0  0
  1  2  1  0
  2  3  2  0
  2  4  1  0
  4  5  1  0
  5  6  2  0
  6  7  1  0
  7  8  2  0
  8  9  1  0
  9 10  2  0
 10 11  1  0
 11 12  2  0
 12 13  1  0
 13 14  2  0
 14 15  1  0
 15 16  2  0
 16 17  1  0
 17 18  2  0
 17 19  1  0
 19 20  1  0
  8 21  1  0
 21 22  2  0
 22 23  1  0
 22  5  1  0
 19  9  1  0
 16 11  1  0
  1 24  1  0
  1 25  1  0
  1 26  1  0
  6 27  1  0
  7 28  1  0
 12 29  1  0
 13 30  1  0
 14 31  1  0
 15 32  1  0
 21 33  1  0
M  CHG  3   4  -1  20  -1  23  -1
M  END
>  <UniqueID>  (87) 
80

>  <SMILES>  (87) 
CC(=O)[N-]c1ccc(-c2nc3ccccc3c(=O)n2[O-])cc1[O-]

>  <Energy>  (87) 
50.67596462987132

>  <Genealogy>  (87) 
CC(=O)[N-]c1ccc(-c2nc3ccccc3c(=O)n2[O-])cc1[O-] (protonated)
CC(=O)[N-]c1ccc(-c2nc3ccccc3c(=O)n2[O-])cc1[O-] (3D coordinates assigned)
CC(=O)[N-]c1ccc(-c2nc3ccccc3c(=O)n2[O-])cc1[O-] (optimized conformer: 50.67596462987132 kcal/mol)

>  <smiles>  (87) 
CC(=O)Nc1ccc(-c2nc3ccccc3c(=O)n2O)cc1O

>  <score_type>  (87) 
oracle

>  <origin>  (87) 
adg

>  <m_score__min__energy>  (87) 
-13.369999999999999

>  <m_primary>  (87) 
energy

$$$$
87:0
     RDKit          3D

 34 35  0  0  0  0  0  0  0  0999 V2000
   57.1360   25.1810   46.3680 C   0  0  0  0  0  0  0  0  0  0  0  0
   58.1880   25.8890   45.6270 N   0  0  0  0  0  0  0  0  0  0  0  0
   57.7890   26.0660   44.2250 C   0  0  0  0  0  0  0  0  0  0  0  0
   58.4880   27.4450   46.3630 S   0  0  0  0  0  0  0  0  0  0  0  0
   59.9650   27.7230   46.3620 O   0  0  0  0  0  0  0  0  0  0  0  0
   58.0310   27.4090   47.7960 O   0  0  0  0  0  0  0  0  0  0  0  0
   57.6330   28.7440   45.5170 C   0  0  0  0  0  0  0  0  0  0  0  0
   58.3400   29.8890   45.1210 C   0  0  0  0  0  0  0  0  0  0  0  0
   57.6940   30.9390   44.4580 C   0  0  0  0  0  0  0  0  0  0  0  0
   58.4630   32.0880   44.0800 N   0  0  0  0  0  0  0  0  0  0  0  0
   58.3680   33.6460   44.8350 S   0  0  0  0  0  0  0  0  0  0  0  0
   56.9680   34.1820   44.7380 O   0  0  0  0  0  0  0  0  0  0  0  0
   59.3300   34.5850   44.1620 O   0  0  0  0  0  0  0  0  0  0  0  0
   58.8070   33.4870   46.5240 C   0  0  0  0  0  0  0  0  0  0  0  0
   58.5490   32.3870   47.3270 C   0  0  0  0  0  0  0  0  0  0  0  0
   59.0050   32.5520   48.6400 C   0  0  0  0  0  0  0  0  0  0  0  0
   59.6160   33.7790   48.8670 C   0  0  0  0  0  0  0  0  0  0  0  0
   59.5910   34.6620   47.4350 S   0  0  0  0  0  0  0  0  0  0  0  0
   56.3190   30.8380   44.1860 C   0  0  0  0  0  0  0  0  0  0  0  0
   55.6080   29.7010   44.5790 C   0  0  0  0  0  0  0  0  0  0  0  0
   56.2560   28.6550   45.2430 C   0  0  0  0  0  0  0  0  0  0  0  0
   55.5200   27.5400   45.6260 O   0  0  0  0  0  0  0  0  0  0  0  0
   57.3075   25.2964   47.4484 H   0  0  0  0  0  0  0  0  0  0  0  0
   56.1549   25.6033   46.1053 H   0  0  0  0  0  0  0  0  0  0  0  0
   57.1578   24.1131   46.1053 H   0  0  0  0  0  0  0  0  0  0  0  0
   56.7842   26.5117   44.1832 H   0  0  0  0  0  0  0  0  0  0  0  0
   58.5061   26.7304   43.7208 H   0  0  0  0  0  0  0  0  0  0  0  0
   57.7777   25.0884   43.7208 H   0  0  0  0  0  0  0  0  0  0  0  0
   59.4166   29.9627   45.3344 H   0  0  0  0  0  0  0  0  0  0  0  0
   58.0395   31.4799   46.9699 H   0  0  0  0  0  0  0  0  0  0  0  0
   58.8905   31.7832   49.4183 H   0  0  0  0  0  0  0  0  0  0  0  0
   60.0442   34.1165   49.8224 H   0  0  0  0  0  0  0  0  0  0  0  0
   55.8014   31.6555   43.6627 H   0  0  0  0  0  0  0  0  0  0  0  0
   54.5315   29.6284   44.3646 H   0  0  0  0  0  0  0  0  0  0  0  0
  1  2  1  0
  2  3  1  0
  2  4  1  0
  4  5  2  0
  4  6  2  0
  4  7  1  0
  7  8  2  0
  8  9  1  0
  9 10  1  0
 10 11  1  0
 11 12  2  0
 11 13  2  0
 11 14  1  0
 14 15  2  0
 15 16  1  0
 16 17  2  0
 17 18  1  0
  9 19  2  0
 19 20  1  0
 20 21  2  0
 21 22  1  0
 21  7  1  0
 18 14  1  0
  1 23  1  0
  1 24  1  0
  1 25  1  0
  3 26  1  0
  3 27  1  0
  3 28  1  0
  8 29  1  0
 15 30  1  0
 16 31  1  0
 17 32  1  0
 19 33  1  0
 20 34  1  0
M  CHG  2  10  -1  22  -1
M  END
>  <UniqueID>  (88) 
81

>  <SMILES>  (88) 
CN(C)S(=O)(=O)c1cc([N-]S(=O)(=O)c2cccs2)ccc1[O-]

>  <Energy>  (88) 
62.77412975440013

>  <Genealogy>  (88) 
CN(C)S(=O)(=O)c1cc([N-]S(=O)(=O)c2cccs2)ccc1[O-] (protonated)
CN(C)S(=O)(=O)c1cc([N-]S(=O)(=O)c2cccs2)ccc1[O-] (3D coordinates assigned)
CN(C)S(=O)(=O)c1cc([N-]S(=O)(=O)c2cccs2)ccc1[O-] (optimized conformer: 62.77412975440013 kcal/mol)

>  <smiles>  (88) 
CN(C)S(=O)(=O)c1cc(NS(=O)(=O)c2cccs2)ccc1O

>  <score_type>  (88) 
oracle

>  <origin>  (88) 
adg

>  <m_score__min__energy>  (88) 
-11.789999999999999

>  <m_primary>  (88) 
energy

$$$$
88:0
     RDKit          3D

 60 63  0  0  0  0  0  0  0  0999 V2000
   55.0950   31.5940   52.3280 C   0  0  0  0  0  0  0  0  0  0  0  0
   55.2320   30.2880   52.6030 C   0  0  0  0  0  0  0  0  0  0  0  0
   54.2250   29.3090   52.6070 C   0  0  0  0  0  0  0  0  0  0  0  0
   52.9570   29.3470   52.1570 C   0  0  0  0  0  0  0  0  0  0  0  0
   52.2350   30.5570   51.7330 C   0  0  0  0  0  0  0  0  0  0  0  0
   51.8740   31.5390   52.5770 N   0  0  0  0  0  0  0  0  0  0  0  0
   51.1440   32.3670   51.7980 C   0  0  0  0  0  0  0  0  0  0  0  0
   50.6350   33.4330   52.2330 O   0  0  0  0  0  0  0  0  0  0  0  0
   50.9940   31.9590   50.5200 N   0  0  0  0  0  0  0  0  0  0  0  0
   51.6770   30.8020   50.4990 C   0  0  0  0  0  0  0  0  0  0  0  0
   51.7700   29.9750   49.3840 O   0  0  0  0  0  0  0  0  0  0  0  0
   54.7850   28.1780   53.1810 C   0  0  0  0  0  0  0  0  0  0  0  0
   56.1100   28.4730   53.4330 C   0  0  0  0  0  0  0  0  0  0  0  0
   57.0970   27.5280   54.0480 C   0  0  0  0  0  0  0  0  0  0  0  0
   56.3820   29.7470   53.0780 N   0  0  0  0  0  0  0  0  0  0  0  0
   57.6520   30.4050   53.2310 C   0  0  0  0  0  0  0  0  0  0  0  0
   58.1300   30.6740   54.5210 C   0  0  0  0  0  0  0  0  0  0  0  0
   59.3460   31.3320   54.7000 C   0  0  0  0  0  0  0  0  0  0  0  0
   60.0900   31.7380   53.5940 C   0  0  0  0  0  0  0  0  0  0  0  0
   59.6300   31.4820   52.2960 C   0  0  0  0  0  0  0  0  0  0  0  0
   60.4060   31.9350   51.1770 N   0  0  0  0  0  0  0  0  0  0  0  0
   61.4910   31.1010   50.6640 C   0  0  0  0  0  0  0  0  0  0  0  0
   61.5130   31.1170   49.1260 C   0  0  0  0  0  0  0  0  0  0  0  0
   61.0380   32.4520   48.4720 C   0  0  0  0  0  0  0  0  0  0  0  0
   61.8140   32.7140   47.2220 N   0  0  0  0  0  0  0  0  0  0  0  0
   63.2240   33.0640   47.4900 C   0  0  0  0  0  0  0  0  0  0  0  0
   61.2030   33.8180   46.4520 C   0  0  0  0  0  0  0  0  0  0  0  0
   61.1420   33.6100   49.5010 C   0  0  0  0  0  0  0  0  0  0  0  0
   60.2650   33.3220   50.7280 C   0  0  0  0  0  0  0  0  0  0  0  0
   58.4150   30.7840   52.1020 C   0  0  0  0  0  0  0  0  0  0  0  0
   57.9230   30.4680   50.7110 C   0  0  0  0  0  0  0  0  0  0  0  0
   55.9715   32.2578   52.3606 H   0  0  0  0  0  0  0  0  0  0  0  0
   54.1062   32.0010   52.0700 H   0  0  0  0  0  0  0  0  0  0  0  0
   52.4141   28.3919   52.1015 H   0  0  0  0  0  0  0  0  0  0  0  0
   52.0750   29.0130   49.4790 H   0  0  0  0  0  0  0  0  0  0  0  0
   54.2723   27.2285   53.3945 H   0  0  0  0  0  0  0  0  0  0  0  0
   57.0311   27.5911   55.1442 H   0  0  0  0  0  0  0  0  0  0  0  0
   56.8711   26.5008   53.7256 H   0  0  0  0  0  0  0  0  0  0  0  0
   58.1134   27.7983   53.7256 H   0  0  0  0  0  0  0  0  0  0  0  0
   57.5420   30.3640   55.3975 H   0  0  0  0  0  0  0  0  0  0  0  0
   59.7186   31.5309   55.7157 H   0  0  0  0  0  0  0  0  0  0  0  0
   61.0452   32.2632   53.7413 H   0  0  0  0  0  0  0  0  0  0  0  0
   62.4501   31.4844   51.0422 H   0  0  0  0  0  0  0  0  0  0  0  0
   61.3310   30.0669   51.0032 H   0  0  0  0  0  0  0  0  0  0  0  0
   62.5452   30.9249   48.7978 H   0  0  0  0  0  0  0  0  0  0  0  0
   60.7997   30.3453   48.8009 H   0  0  0  0  0  0  0  0  0  0  0  0
   59.9802   32.3739   48.1806 H   0  0  0  0  0  0  0  0  0  0  0  0
   63.3914   33.1055   48.5764 H   0  0  0  0  0  0  0  0  0  0  0  0
   63.8816   32.3018   47.0466 H   0  0  0  0  0  0  0  0  0  0  0  0
   63.4489   34.0452   47.0466 H   0  0  0  0  0  0  0  0  0  0  0  0
   60.7898   34.5645   47.1463 H   0  0  0  0  0  0  0  0  0  0  0  0
   61.9681   34.2904   45.8184 H   0  0  0  0  0  0  0  0  0  0  0  0
   60.3964   33.4206   45.8184 H   0  0  0  0  0  0  0  0  0  0  0  0
   62.1889   33.7160   49.8216 H   0  0  0  0  0  0  0  0  0  0  0  0
   60.7939   34.5392   49.0261 H   0  0  0  0  0  0  0  0  0  0  0  0
   60.5634   33.9942   51.5460 H   0  0  0  0  0  0  0  0  0  0  0  0
   59.2145   33.4879   50.4471 H   0  0  0  0  0  0  0  0  0  0  0  0
   56.9990   29.8746   50.7749 H   0  0  0  0  0  0  0  0  0  0  0  0
   57.7203   31.4052   50.1720 H   0  0  0  0  0  0  0  0  0  0  0  0
   58.6910   29.8938   50.1720 H   0  0  0  0  0  0  0  0  0  0  0  0
  1  2  2  0
  2  3  1  0
  3  4  2  3
  4  5  1  0
  5  6  1  0
  6  7  1  0
  7  8  2  0
  7  9  1  0
  9 10  1  0
 10 11  1  0
  3 12  1  0
 12 13  2  0
 13 14  1  0
 13 15  1  0
 15 16  1  0
 16 17  2  0
 17 18  1  0
 18 19  2  0
 19 20  1  0
 20 21  1  0
 21 22  1  0
 22 23  1  0
 23 24  1  0
 24 25  1  0
 25 26  1  0
 25 27  1  0
 24 28  1  0
 28 29  1  0
 20 30  2  0
 30 31  1  0
 15  2  1  0
 30 16  1  0
 10  5  2  0
 29 21  1  0
  1 32  1  0
  1 33  1  0
  4 34  1  0
 11 35  1  0
 12 36  1  0
 14 37  1  0
 14 38  1  0
 14 39  1  0
 17 40  1  0
 18 41  1  0
 19 42  1  0
 22 43  1  0
 22 44  1  0
 23 45  1  0
 23 46  1  0
 24 47  1  0
 26 48  1  0
 26 49  1  0
 26 50  1  0
 27 51  1  0
 27 52  1  0
 27 53  1  0
 28 54  1  0
 28 55  1  0
 29 56  1  0
 29 57  1  0
 31 58  1  0
 31 59  1  0
 31 60  1  0
M  CHG  2   6  -1   9  -1
M  END
>  <UniqueID>  (89) 
82

>  <SMILES>  (89) 
C=c1c(=Cc2[n-]c(=O)[n-]c2O)cc(C)n1-c1cccc(N2CCC(N(C)C)CC2)c1C

>  <Energy>  (89) 
149.7507502196954

>  <Genealogy>  (89) 
C=c1c(=Cc2[n-]c(=O)[n-]c2O)cc(C)n1-c1cccc(N2CCC(N(C)C)CC2)c1C (protonated)
C=c1c(=Cc2[n-]c(=O)[n-]c2O)cc(C)n1-c1cccc(N2CCC(N(C)C)CC2)c1C (3D coordinates assigned)
C=c1c(=Cc2[n-]c(=O)[n-]c2O)cc(C)n1-c1cccc(N2CCC(N(C)C)CC2)c1C (nonaromatic ring conformer: 149.7507502196954 kcal/mol)

>  <smiles>  (89) 
C=c1c(=Cc2[nH]c(=O)[nH]c2O)cc(C)n1-c1cccc(N2CCC(N(C)C)CC2)c1C

>  <score_type>  (89) 
oracle

>  <origin>  (89) 
adg

>  <m_score__min__energy>  (89) 
-14.08

>  <m_primary>  (89) 
energy

$$$$
89:0
     RDKit          3D

 37 39  0  0  1  0  0  0  0  0999 V2000
   64.7060   32.6280   50.0100 C   0  0  0  0  0  0  0  0  0  0  0  0
   63.7930   32.8530   49.0980 C   0  0  0  0  0  0  0  0  0  0  0  0
   62.7320   33.9000   49.2250 C   0  0  0  0  0  0  0  0  0  0  0  0
   61.7910   33.6820   48.1130 N   0  0  2  0  0  0  0  0  0  0  0  0
   60.7060   34.5740   48.3380 C   0  0  0  0  0  0  0  0  0  0  0  0
   59.3660   33.9000   48.4870 C   0  0  0  0  0  0  0  0  0  0  0  0
   58.7550   33.8750   47.1120 C   0  0  0  0  0  0  0  0  0  0  0  0
   57.6410   33.1090   46.8350 C   0  0  0  0  0  0  0  0  0  0  0  0
   57.1650   33.1650   45.5310 C   0  0  0  0  0  0  0  0  0  0  0  0
   57.7670   33.9410   44.5630 C   0  0  0  0  0  0  0  0  0  0  0  0
   58.8810   34.6970   44.8680 C   0  0  0  0  0  0  0  0  0  0  0  0
   59.3720   34.6570   46.1570 C   0  0  0  0  0  0  0  0  0  0  0  0
   61.3820   32.2900   48.1330 C   0  0  0  0  0  0  0  0  0  0  0  0
   62.3720   31.4240   47.8580 C   0  0  0  0  0  0  0  0  0  0  0  0
   63.7490   32.0450   47.8210 C   0  0  1  0  0  0  0  0  0  0  0  0
   63.7190   33.0870   46.7320 C   0  0  0  0  0  0  0  0  0  0  0  0
   62.4220   33.8550   46.8260 C   0  0  0  0  0  0  0  0  0  0  0  0
   65.4583   31.8411   49.8527 H   0  0  0  0  0  0  0  0  0  0  0  0
   64.7203   33.2260   50.9332 H   0  0  0  0  0  0  0  0  0  0  0  0
   62.2113   33.7978   50.1885 H   0  0  0  0  0  0  0  0  0  0  0  0
   63.1649   34.9105   49.1862 H   0  0  0  0  0  0  0  0  0  0  0  0
   60.9109   35.1395   49.2590 H   0  0  0  0  0  0  0  0  0  0  0  0
   60.6372   35.2155   47.4471 H   0  0  0  0  0  0  0  0  0  0  0  0
   59.4943   32.8754   48.8662 H   0  0  0  0  0  0  0  0  0  0  0  0
   58.7243   34.4361   49.2017 H   0  0  0  0  0  0  0  0  0  0  0  0
   57.1570   32.4887   47.6037 H   0  0  0  0  0  0  0  0  0  0  0  0
   56.2791   32.5710   45.2619 H   0  0  0  0  0  0  0  0  0  0  0  0
   57.3573   33.9577   43.5423 H   0  0  0  0  0  0  0  0  0  0  0  0
   59.3666   35.3176   44.1005 H   0  0  0  0  0  0  0  0  0  0  0  0
   60.2586   35.2507   46.4243 H   0  0  0  0  0  0  0  0  0  0  0  0
   60.3525   31.9717   48.3538 H   0  0  0  0  0  0  0  0  0  0  0  0
   62.1950   30.3538   47.6753 H   0  0  0  0  0  0  0  0  0  0  0  0
   64.5595   31.3131   47.6891 H   0  0  0  0  0  0  0  0  0  0  0  0
   64.5666   33.7768   46.8574 H   0  0  0  0  0  0  0  0  0  0  0  0
   63.7938   32.6005   45.7483 H   0  0  0  0  0  0  0  0  0  0  0  0
   62.6288   34.9242   46.6712 H   0  0  0  0  0  0  0  0  0  0  0  0
   61.7388   33.4699   46.0546 H   0  0  0  0  0  0  0  0  0  0  0  0
  1  2  2  0
  2  3  1  0
  3  4  1  0
  4  5  1  1
  5  6  1  0
  6  7  1  0
  7  8  2  0
  8  9  1  0
  9 10  2  0
 10 11  1  0
 11 12  2  0
  4 13  1  0
 13 14  2  0
 14 15  1  0
 15 16  1  0
 16 17  1  0
 15  2  1  0
 17  4  1  0
 12  7  1  0
  1 18  1  0
  1 19  1  0
  3 20  1  0
  3 21  1  0
  5 22  1  0
  5 23  1  0
  6 24  1  0
  6 25  1  0
  8 26  1  0
  9 27  1  0
 10 28  1  0
 11 29  1  0
 12 30  1  0
 13 31  1  0
 14 32  1  0
 15 33  1  6
 16 34  1  0
 16 35  1  0
 17 36  1  0
 17 37  1  0
M  CHG  1   4   1
M  END
>  <smiles>  (90) 
C=C1C[N+]2(CCc3ccccc3)C=CC1CC2

>  <score_type>  (90) 
oracle

>  <origin>  (90) 
adg

>  <m_score__min__energy>  (90) 
-5.5599999999999996

>  <m_primary>  (90) 
energy

$$$$
