0:0
     RDKit          3D

 34 35  0  0  0  0  0  0  0  0999 V2000
   54.4060   26.3230   45.9560 O   0  0  0  0  0  0  0  0  0  0  0  0
   55.6440   26.1940   46.1490 C   0  0  0  0  0  0  0  0  0  0  0  0
   56.1150   25.1200   46.8930 O   0  0  0  0  0  0  0  0  0  0  0  0
   56.5980   27.2170   45.6210 C   0  0  0  0  0  0  0  0  0  0  0  0
   55.9080   28.4080   45.2450 O   0  0  0  0  0  0  0  0  0  0  0  0
   56.4650   29.4800   44.5270 C   0  0  0  0  0  0  0  0  0  0  0  0
   56.1280   29.7460   43.1850 C   0  0  0  0  0  0  0  0  0  0  0  0
   56.7330   30.8050   42.5030 C   0  0  0  0  0  0  0  0  0  0  0  0
   57.6740   31.6090   43.1490 C   0  0  0  0  0  0  0  0  0  0  0  0
   58.0160   31.3540   44.4780 C   0  0  0  0  0  0  0  0  0  0  0  0
   57.4160   30.2910   45.1690 C   0  0  0  0  0  0  0  0  0  0  0  0
   57.7820   30.0150   46.5240 N   0  0  0  0  0  0  0  0  0  0  0  0
   59.1200   30.0920   47.0310 C   0  0  0  0  0  0  0  0  0  0  0  0
   59.9770   29.2710   46.6100 O   0  0  0  0  0  0  0  0  0  0  0  0
   59.5410   31.1560   48.0130 C   0  0  0  0  0  0  0  0  0  0  0  0
   59.6510   32.5030   47.3430 C   0  0  0  0  0  0  0  0  0  0  0  0
   58.5080   33.3030   47.1700 C   0  0  0  0  0  0  0  0  0  0  0  0
   58.6180   34.5770   46.6050 C   0  0  0  0  0  0  0  0  0  0  0  0
   59.8660   35.0610   46.2020 C   0  0  0  0  0  0  0  0  0  0  0  0
   59.9750   36.3310   45.6500 O   0  0  0  0  0  0  0  0  0  0  0  0
   61.0050   34.2630   46.3520 C   0  0  0  0  0  0  0  0  0  0  0  0
   60.8990   32.9890   46.9150 C   0  0  0  0  0  0  0  0  0  0  0  0
   57.3355   27.4585   46.4006 H   0  0  0  0  0  0  0  0  0  0  0  0
   57.0999   26.8054   44.7329 H   0  0  0  0  0  0  0  0  0  0  0  0
   55.3854   29.1173   42.6719 H   0  0  0  0  0  0  0  0  0  0  0  0
   56.4672   31.0057   41.4546 H   0  0  0  0  0  0  0  0  0  0  0  0
   58.1461   32.4438   42.6103 H   0  0  0  0  0  0  0  0  0  0  0  0
   58.7581   31.9884   44.9848 H   0  0  0  0  0  0  0  0  0  0  0  0
   58.7949   31.2159   48.8191 H   0  0  0  0  0  0  0  0  0  0  0  0
   60.5277   30.8863   48.4175 H   0  0  0  0  0  0  0  0  0  0  0  0
   57.5228   32.9249   47.4805 H   0  0  0  0  0  0  0  0  0  0  0  0
   57.7205   35.2000   46.4773 H   0  0  0  0  0  0  0  0  0  0  0  0
   61.9859   34.6393   46.0261 H   0  0  0  0  0  0  0  0  0  0  0  0
   61.7967   32.3627   47.0241 H   0  0  0  0  0  0  0  0  0  0  0  0
  1  2  2  0
  2  3  1  0
  2  4  1  0
  4  5  1  0
  5  6  1  0
  6  7  2  0
  7  8  1  0
  8  9  2  0
  9 10  1  0
 10 11  2  0
 11 12  1  0
 12 13  1  0
 13 14  2  0
 13 15  1  0
 15 16  1  0
 16 17  2  0
 17 18  1  0
 18 19  2  0
 19 20  1  0
 19 21  1  0
 21 22  2  0
 11  6  1  0
 22 16  1  0
  4 23  1  0
  4 24  1  0
  7 25  1  0
  8 26  1  0
  9 27  1  0
 10 28  1  0
 15 29  1  0
 15 30  1  0
 17 31  1  0
 18 32  1  0
 21 33  1  0
 22 34  1  0
M  CHG  3   3  -1  12  -1  20  -1
M  END
>  <UniqueID>  (1) 
1

>  <SMILES>  (1) 
O=C([O-])COc1ccccc1[N-]C(=O)Cc1ccc([O-])cc1

>  <Energy>  (1) 
36.71874966493318

>  <Genealogy>  (1) 
O=C([O-])COc1ccccc1[N-]C(=O)Cc1ccc([O-])cc1 (protonated)
O=C([O-])COc1ccccc1[N-]C(=O)Cc1ccc([O-])cc1 (3D coordinates assigned)
O=C([O-])COc1ccccc1[N-]C(=O)Cc1ccc([O-])cc1 (optimized conformer: 36.71874966493318 kcal/mol)

>  <smiles>  (1) 
O=C(O)COc1ccccc1NC(=O)Cc1ccc(O)cc1

>  <score_type>  (1) 
oracle

>  <origin>  (1) 
adg

>  <m_score__min__energy>  (1) 
-12.85

>  <m_primary>  (1) 
energy

$$$$
1:0
     RDKit          3D

 27 28  0  0  0  0  0  0  0  0999 V2000
   58.5120   33.2730   44.7810 C   0  0  0  0  0  0  0  0  0  0  0  0
   58.0420   31.8570   44.8070 C   0  0  0  0  0  0  0  0  0  0  0  0
   58.8780   30.8090   44.9650 N   0  0  0  0  0  0  0  0  0  0  0  0
   58.0780   29.7310   44.8760 C   0  0  0  0  0  0  0  0  0  0  0  0
   58.5970   28.3480   44.9120 C   0  0  0  0  0  0  0  0  0  0  0  0
   59.7830   28.1260   45.2720 O   0  0  0  0  0  0  0  0  0  0  0  0
   57.7330   27.2500   44.5840 N   0  0  0  0  0  0  0  0  0  0  0  0
   58.2030   25.8680   44.6490 C   0  0  0  0  0  0  0  0  0  0  0  0
   57.0660   24.9150   44.4560 C   0  0  0  0  0  0  0  0  0  0  0  0
   56.9070   24.0450   43.3860 C   0  0  0  0  0  0  0  0  0  0  0  0
   55.7030   23.3320   43.4300 C   0  0  0  0  0  0  0  0  0  0  0  0
   54.9070   23.6510   44.5230 C   0  0  0  0  0  0  0  0  0  0  0  0
   55.7000   24.8220   45.4340 S   0  0  0  0  0  0  0  0  0  0  0  0
   56.7790   30.1650   44.6580 C   0  0  0  0  0  0  0  0  0  0  0  0
   55.5920   29.3670   44.5590 N   0  0  0  0  0  0  0  0  0  0  0  0
   54.7220   29.6200   43.7010 O   0  0  0  0  0  0  0  0  0  0  0  0
   55.5190   28.1810   45.2490 O   0  0  0  0  0  0  0  0  0  0  0  0
   56.7550   31.5070   44.6030 N   0  0  0  0  0  0  0  0  0  0  0  0
   58.6332   33.6381   45.8115 H   0  0  0  0  0  0  0  0  0  0  0  0
   59.4771   33.3294   44.2561 H   0  0  0  0  0  0  0  0  0  0  0  0
   57.7722   33.8953   44.2561 H   0  0  0  0  0  0  0  0  0  0  0  0
   56.7520   27.4510   44.2810 H   0  0  0  0  0  0  0  0  0  0  0  0
   58.9508   25.7031   43.8594 H   0  0  0  0  0  0  0  0  0  0  0  0
   58.6492   25.6916   45.6388 H   0  0  0  0  0  0  0  0  0  0  0  0
   57.6515   23.9277   42.5848 H   0  0  0  0  0  0  0  0  0  0  0  0
   55.4146   22.5897   42.6712 H   0  0  0  0  0  0  0  0  0  0  0  0
   53.9250   23.2124   44.7536 H   0  0  0  0  0  0  0  0  0  0  0  0
  1  2  1  0
  2  3  2  0
  3  4  1  0
  4  5  1  0
  5  6  2  0
  5  7  1  0
  7  8  1  0
  8  9  1  0
  9 10  2  0
 10 11  1  0
 11 12  2  0
 12 13  1  0
  4 14  2  0
 14 15  1  0
 15 16  2  0
 15 17  1  0
 14 18  1  0
 18  2  1  0
 13  9  1  0
  1 19  1  0
  1 20  1  0
  1 21  1  0
  7 22  1  0
  8 23  1  0
  8 24  1  0
 10 25  1  0
 11 26  1  0
 12 27  1  0
M  CHG  3  15   1  17  -1  18  -1
M  END
>  <UniqueID>  (2) 
2

>  <SMILES>  (2) 
Cc1nc(C(=O)NCc2cccs2)c([N+](=O)[O-])[n-]1

>  <Energy>  (2) 
80.26042978260286

>  <Genealogy>  (2) 
Cc1nc(C(=O)NCc2cccs2)c([N+](=O)[O-])[n-]1 (protonated)
Cc1nc(C(=O)NCc2cccs2)c([N+](=O)[O-])[n-]1 (3D coordinates assigned)
Cc1nc(C(=O)NCc2cccs2)c([N+](=O)[O-])[n-]1 (optimized conformer: 80.26042978260286 kcal/mol)

>  <smiles>  (2) 
Cc1nc(C(=O)NCc2cccs2)c([N+](=O)[O-])[nH]1

>  <score_type>  (2) 
oracle

>  <origin>  (2) 
adg

>  <m_score__min__energy>  (2) 
-9.2400000000000002

>  <m_primary>  (2) 
energy

$$$$
2:0
     RDKit          3D

 55 58  0  0  0  0  0  0  0  0999 V2000
   57.1000   29.9493   42.4137 H   0  0  0  0  0  0  0  0  0  0  0  0
   57.4730   30.7700   43.0440 C   0  0  0  0  0  0  0  0  0  0  0  0
   58.0120   30.5020   44.3110 C   0  0  0  0  0  0  0  0  0  0  0  0
   58.1110   29.1640   44.8230 N   0  0  0  0  0  0  0  0  0  0  0  0
   59.0730   28.7840   44.9610 H   0  0  0  0  0  0  0  0  0  0  0  0
   56.9870   28.3640   45.2340 C   0  0  0  0  0  0  0  0  0  0  0  0
   55.8160   28.8270   45.1690 O   0  0  0  0  0  0  0  0  0  0  0  0
   57.1830   26.9860   45.7340 C   0  0  0  0  0  0  0  0  0  0  0  0
   58.4810   26.4520   45.7790 C   0  0  0  0  0  0  0  0  0  0  0  0
   59.3337   27.0586   45.4401 H   0  0  0  0  0  0  0  0  0  0  0  0
   58.6960   25.1540   46.2520 C   0  0  0  0  0  0  0  0  0  0  0  0
   59.7171   24.7469   46.2931 H   0  0  0  0  0  0  0  0  0  0  0  0
   57.6180   24.3740   46.6720 C   0  0  0  0  0  0  0  0  0  0  0  0
   57.7904   23.3556   47.0504 H   0  0  0  0  0  0  0  0  0  0  0  0
   56.3210   24.8860   46.6120 C   0  0  0  0  0  0  0  0  0  0  0  0
   55.4726   24.2680   46.9411 H   0  0  0  0  0  0  0  0  0  0  0  0
   56.0950   26.1820   46.1350 C   0  0  0  0  0  0  0  0  0  0  0  0
   54.7870   26.6460   46.0360 O   0  0  0  0  0  0  0  0  0  0  0  0
   58.5140   31.5280   45.0500 N   0  0  0  0  0  0  0  0  0  0  0  0
   58.4920   32.8240   44.6320 C   0  0  0  0  0  0  0  0  0  0  0  0
   58.9860   33.7310   45.4290 N   0  0  0  0  0  0  0  0  0  0  0  0
   58.9220   33.8230   46.8630 C   0  0  0  0  0  0  0  0  0  0  0  0
   57.8230   34.0420   47.4410 O   0  0  0  0  0  0  0  0  0  0  0  0
   60.1680   33.7510   47.6620 C   0  0  0  0  0  0  0  0  0  0  0  0
   61.4150   33.5990   47.0290 C   0  0  0  0  0  0  0  0  0  0  0  0
   61.4652   33.5307   45.9323 H   0  0  0  0  0  0  0  0  0  0  0  0
   62.5910   33.5340   47.7820 C   0  0  0  0  0  0  0  0  0  0  0  0
   63.5589   33.4161   47.2728 H   0  0  0  0  0  0  0  0  0  0  0  0
   62.5470   33.6180   49.1840 C   0  0  0  0  0  0  0  0  0  0  0  0
   63.7580   33.5460   49.9610 N   0  0  0  0  0  0  0  0  0  0  0  0
   64.9660   32.9660   49.3630 C   0  0  0  0  0  0  0  0  0  0  0  0
   65.2212   33.5272   48.4520 H   0  0  0  0  0  0  0  0  0  0  0  0
   64.7660   31.9113   49.1232 H   0  0  0  0  0  0  0  0  0  0  0  0
   66.1490   33.0290   50.3390 C   0  0  0  0  0  0  0  0  0  0  0  0
   66.5296   34.0605   50.3720 H   0  0  0  0  0  0  0  0  0  0  0  0
   66.9245   32.3344   49.9838 H   0  0  0  0  0  0  0  0  0  0  0  0
   65.7540   32.6210   51.7010 N   0  0  0  0  0  0  0  0  0  0  0  0
   65.4690   31.1770   51.7790 C   0  0  0  0  0  0  0  0  0  0  0  0
   65.4087   30.8716   52.8340 H   0  0  0  0  0  0  0  0  0  0  0  0
   64.5116   30.9648   51.2806 H   0  0  0  0  0  0  0  0  0  0  0  0
   66.2739   30.6169   51.2806 H   0  0  0  0  0  0  0  0  0  0  0  0
   64.6480   33.4340   52.2730 C   0  0  0  0  0  0  0  0  0  0  0  0
   65.0767   34.1257   53.0131 H   0  0  0  0  0  0  0  0  0  0  0  0
   63.9321   32.7243   52.7133 H   0  0  0  0  0  0  0  0  0  0  0  0
   63.8650   34.2620   51.2370 C   0  0  0  0  0  0  0  0  0  0  0  0
   64.3867   35.2161   51.0710 H   0  0  0  0  0  0  0  0  0  0  0  0
   62.8509   34.4385   51.6249 H   0  0  0  0  0  0  0  0  0  0  0  0
   61.3020   33.7730   49.8160 C   0  0  0  0  0  0  0  0  0  0  0  0
   61.2525   33.8422   50.9127 H   0  0  0  0  0  0  0  0  0  0  0  0
   60.1270   33.8400   49.0650 C   0  0  0  0  0  0  0  0  0  0  0  0
   59.1604   33.9635   49.5752 H   0  0  0  0  0  0  0  0  0  0  0  0
   57.9110   33.1240   43.3830 C   0  0  0  0  0  0  0  0  0  0  0  0
   57.8494   34.1658   43.0355 H   0  0  0  0  0  0  0  0  0  0  0  0
   57.4150   32.0880   42.5920 C   0  0  0  0  0  0  0  0  0  0  0  0
   56.9765   32.3113   41.6082 H   0  0  0  0  0  0  0  0  0  0  0  0
  1  2  1  0
  2  3  2  0
  3  4  1  0
  4  5  1  0
  4  6  1  0
  6  7  2  0
  6  8  1  0
  8  9  2  0
  9 10  1  0
  9 11  1  0
 11 12  1  0
 11 13  2  0
 13 14  1  0
 13 15  1  0
 15 16  1  0
 15 17  2  0
 17 18  1  0
  3 19  1  0
 19 20  1  0
 20 21  2  0
 21 22  1  0
 22 23  2  0
 22 24  1  0
 24 25  2  0
 25 26  1  0
 25 27  1  0
 27 28  1  0
 27 29  2  0
 29 30  1  0
 30 31  1  0
 31 32  1  0
 31 33  1  0
 31 34  1  0
 34 35  1  0
 34 36  1  0
 34 37  1  0
 37 38  1  0
 38 39  1  0
 38 40  1  0
 38 41  1  0
 37 42  1  0
 42 43  1  0
 42 44  1  0
 42 45  1  0
 45 46  1  0
 45 47  1  0
 29 48  1  0
 48 49  1  0
 48 50  2  0
 50 51  1  0
 20 52  1  0
 52 53  1  0
 52 54  2  0
 54 55  1  0
 54  2  1  0
 17  8  1  0
 50 24  1  0
 45 30  1  0
M  CHG  2  18  -1  19  -1
M  END
>  <UniqueID>  (3) 
3

>  <SMILES>  (3) 
CN1CCN(c2ccc(C(=O)/N=c3\cccc(NC(=O)c4ccccc4[O-])[n-]3)cc2)CC1

>  <Energy>  (3) 
87.99251486215665

>  <Genealogy>  (3) 
CN1CCN(c2ccc(C(=O)N=c3cccc(NC(=O)c4ccccc4[O-])[n-]3)cc2)CC1 (protonated)
CN1CCN(c2ccc(C(=O)/N=c3\cccc(NC(=O)c4ccccc4[O-])[n-]3)cc2)CC1 (cis-trans isomerization)
CN1CCN(c2ccc(C(=O)/N=c3\cccc(NC(=O)c4ccccc4[O-])[n-]3)cc2)CC1 (3D coordinates assigned)
CN1CCN(c2ccc(C(=O)/N=c3\cccc(NC(=O)c4ccccc4[O-])[n-]3)cc2)CC1 (nonaromatic ring conformer: 87.99251486215665 kcal/mol)

>  <smiles>  (3) 
CN1CCN(c2ccc(C(=O)N=c3cccc(NC(=O)c4ccccc4O)[nH]3)cc2)CC1

>  <score_type>  (3) 
oracle

>  <origin>  (3) 
adg

>  <m_score__min__energy>  (3) 
-15.57

>  <m_primary>  (3) 
energy

$$$$
3:0
     RDKit          3D

 47 49  0  0  0  0  0  0  0  0999 V2000
   58.6410   30.5450   43.7490 N   0  0  0  0  0  0  0  0  0  0  0  0
   57.6830   31.1770   42.8310 C   0  0  1  0  0  0  0  0  0  0  0  0
   56.3190   30.4500   42.8930 C   0  0  0  0  0  0  0  0  0  0  0  0
   56.1620   29.6550   44.1540 C   0  0  0  0  0  0  0  0  0  0  0  0
   55.1470   29.8310   44.8780 O   0  0  0  0  0  0  0  0  0  0  0  0
   57.1560   28.6820   44.5000 N   0  0  0  0  0  0  0  0  0  0  0  0
   57.8540   28.5640   45.7460 C   0  0  0  0  0  0  0  0  0  0  0  0
   58.2680   27.3930   46.3780 C   0  0  0  0  0  0  0  0  0  0  0  0
   58.9060   27.6320   47.6010 C   0  0  0  0  0  0  0  0  0  0  0  0
   58.9780   28.9820   47.9300 C   0  0  0  0  0  0  0  0  0  0  0  0
   59.6200   29.5540   49.1560 C   0  0  0  0  0  0  0  0  0  0  0  0
   60.5940   30.6420   48.7800 C   0  0  0  0  0  0  0  0  0  0  0  0
   61.4710   30.4340   47.7000 C   0  0  0  0  0  0  0  0  0  0  0  0
   62.4040   31.4100   47.3430 C   0  0  0  0  0  0  0  0  0  0  0  0
   62.4800   32.6030   48.0660 C   0  0  0  0  0  0  0  0  0  0  0  0
   63.6520   33.8280   47.6170 Cl  0  0  0  0  0  0  0  0  0  0  0  0
   61.6240   32.8180   49.1500 C   0  0  0  0  0  0  0  0  0  0  0  0
   60.6860   31.8450   49.5160 C   0  0  0  0  0  0  0  0  0  0  0  0
   59.6460   32.1720   50.8980 Cl  0  0  0  0  0  0  0  0  0  0  0  0
   58.2590   29.8830   46.7030 S   0  0  0  0  0  0  0  0  0  0  0  0
   57.5730   32.7030   43.0890 C   0  0  0  0  0  0  0  0  0  0  0  0
   58.0290   33.1290   44.4660 C   0  0  0  0  0  0  0  0  0  0  0  0
   57.2790   32.7810   45.6030 C   0  0  0  0  0  0  0  0  0  0  0  0
   57.6970   33.1820   46.8740 C   0  0  0  0  0  0  0  0  0  0  0  0
   58.8700   33.9270   47.0250 C   0  0  0  0  0  0  0  0  0  0  0  0
   59.2730   34.3160   48.2590 F   0  0  0  0  0  0  0  0  0  0  0  0
   59.6270   34.2690   45.9010 C   0  0  0  0  0  0  0  0  0  0  0  0
   59.2130   33.8700   44.6280 C   0  0  0  0  0  0  0  0  0  0  0  0
   58.2390   30.5220   44.7140 H   0  0  0  0  0  0  0  0  0  0  0  0
   59.5390   31.0790   43.7750 H   0  0  0  0  0  0  0  0  0  0  0  0
   58.8270   29.5600   43.4540 H   0  0  0  0  0  0  0  0  0  0  0  0
   58.0558   31.0735   41.8013 H   0  0  0  0  0  0  0  0  0  0  0  0
   55.5150   31.1991   42.8432 H   0  0  0  0  0  0  0  0  0  0  0  0
   56.2672   29.7528   42.0437 H   0  0  0  0  0  0  0  0  0  0  0  0
   58.1103   26.3877   45.9603 H   0  0  0  0  0  0  0  0  0  0  0  0
   59.3102   26.8319   48.2386 H   0  0  0  0  0  0  0  0  0  0  0  0
   58.8419   29.9742   49.8102 H   0  0  0  0  0  0  0  0  0  0  0  0
   60.1633   28.7542   49.6806 H   0  0  0  0  0  0  0  0  0  0  0  0
   61.4215   29.4937   47.1313 H   0  0  0  0  0  0  0  0  0  0  0  0
   63.0796   31.2392   46.4918 H   0  0  0  0  0  0  0  0  0  0  0  0
   61.6877   33.7573   49.7189 H   0  0  0  0  0  0  0  0  0  0  0  0
   58.1906   33.2251   42.3434 H   0  0  0  0  0  0  0  0  0  0  0  0
   56.5067   32.9623   43.0129 H   0  0  0  0  0  0  0  0  0  0  0  0
   56.3581   32.1898   45.4911 H   0  0  0  0  0  0  0  0  0  0  0  0
   57.1016   32.9108   47.7583 H   0  0  0  0  0  0  0  0  0  0  0  0
   60.5511   34.8538   46.0191 H   0  0  0  0  0  0  0  0  0  0  0  0
   59.8163   34.1368   43.7477 H   0  0  0  0  0  0  0  0  0  0  0  0
  1  2  1  0
  2  3  1  0
  3  4  1  0
  4  5  2  0
  4  6  1  0
  6  7  1  0
  7  8  2  0
  8  9  1  0
  9 10  2  0
 10 11  1  0
 11 12  1  0
 12 13  2  0
 13 14  1  0
 14 15  2  0
 15 16  1  0
 15 17  1  0
 17 18  2  0
 18 19  1  0
 10 20  1  0
  2 21  1  0
 21 22  1  0
 22 23  2  0
 23 24  1  0
 24 25  2  0
 25 26  1  0
 25 27  1  0
 27 28  2  0
 20  7  1  0
 28 22  1  0
 18 12  1  0
  1 29  1  0
  1 30  1  0
  1 31  1  0
  2 32  1  6
  3 33  1  0
  3 34  1  0
  8 35  1  0
  9 36  1  0
 11 37  1  0
 11 38  1  0
 13 39  1  0
 14 40  1  0
 17 41  1  0
 21 42  1  0
 21 43  1  0
 23 44  1  0
 24 45  1  0
 27 46  1  0
 28 47  1  0
M  CHG  2   1   1   6  -1
M  END
>  <UniqueID>  (4) 
4

>  <SMILES>  (4) 
[NH3+][C@@H](CC(=O)[N-]c1ccc(Cc2ccc(Cl)cc2Cl)s1)Cc1ccc(F)cc1

>  <Energy>  (4) 
73.65428366265202

>  <Genealogy>  (4) 
[NH3+]C(CC(=O)[N-]c1ccc(Cc2ccc(Cl)cc2Cl)s1)Cc1ccc(F)cc1 (protonated)
[NH3+][C@@H](CC(=O)[N-]c1ccc(Cc2ccc(Cl)cc2Cl)s1)Cc1ccc(F)cc1 (chirality)
[NH3+][C@@H](CC(=O)[N-]c1ccc(Cc2ccc(Cl)cc2Cl)s1)Cc1ccc(F)cc1 (3D coordinates assigned)
[NH3+][C@@H](CC(=O)[N-]c1ccc(Cc2ccc(Cl)cc2Cl)s1)Cc1ccc(F)cc1 (optimized conformer: 73.65428366265202 kcal/mol)

>  <smiles>  (4) 
NC(CC(=O)Nc1ccc(Cc2ccc(Cl)cc2Cl)s1)Cc1ccc(F)cc1

>  <score_type>  (4) 
oracle

>  <origin>  (4) 
adg

>  <m_score__min__energy>  (4) 
-10.23

>  <m_primary>  (4) 
energy

$$$$
4:0
     RDKit          3D

 34 35  0  0  0  0  0  0  0  0999 V2000
   60.3809   31.9099   46.9441 H   0  0  0  0  0  0  0  0  0  0  0  0
   59.5410   32.3240   46.3670 C   0  0  0  0  0  0  0  0  0  0  0  0
   58.5830   31.4950   45.8720 N   0  0  0  0  0  0  0  0  0  0  0  0
   57.5180   31.9560   45.1600 C   0  0  0  0  0  0  0  0  0  0  0  0
   56.6520   31.0890   44.7130 N   0  0  0  0  0  0  0  0  0  0  0  0
   56.5850   29.6870   45.0060 C   0  0  0  0  0  0  0  0  0  0  0  0
   55.5170   29.0660   44.7580 O   0  0  0  0  0  0  0  0  0  0  0  0
   57.7520   28.9690   45.4370 N   0  0  0  0  0  0  0  0  0  0  0  0
   58.6840   29.4040   45.2470 H   0  0  0  0  0  0  0  0  0  0  0  0
   57.7120   27.6570   46.0280 C   0  0  0  0  0  0  0  0  0  0  0  0
   56.6240   26.8000   45.7940 C   0  0  0  0  0  0  0  0  0  0  0  0
   55.8051   27.1257   45.1357 H   0  0  0  0  0  0  0  0  0  0  0  0
   56.5730   25.5400   46.3890 C   0  0  0  0  0  0  0  0  0  0  0  0
   55.7183   24.8771   46.1888 H   0  0  0  0  0  0  0  0  0  0  0  0
   57.5960   25.1120   47.2360 C   0  0  0  0  0  0  0  0  0  0  0  0
   57.4960   23.8340   47.8070 O   0  0  0  0  0  0  0  0  0  0  0  0
   56.2910   23.0810   47.8940 C   0  0  0  0  0  0  0  0  0  0  0  0
   56.0344   22.9206   48.9516 H   0  0  0  0  0  0  0  0  0  0  0  0
   55.4778   23.6319   47.3988 H   0  0  0  0  0  0  0  0  0  0  0  0
   56.4297   22.1086   47.3988 H   0  0  0  0  0  0  0  0  0  0  0  0
   58.6830   25.9700   47.4900 C   0  0  0  0  0  0  0  0  0  0  0  0
   59.4910   25.6417   48.1603 H   0  0  0  0  0  0  0  0  0  0  0  0
   58.7460   27.2470   46.8930 C   0  0  0  0  0  0  0  0  0  0  0  0
   59.8160   28.1290   47.1240 O   0  0  0  0  0  0  0  0  0  0  0  0
   59.8720   29.1160   48.1520 C   0  0  0  0  0  0  0  0  0  0  0  0
   60.1350   28.4930   49.3560 F   0  0  0  0  0  0  0  0  0  0  0  0
   58.6600   29.7760   48.2470 F   0  0  0  0  0  0  0  0  0  0  0  0
   60.8840   30.0220   47.8890 F   0  0  0  0  0  0  0  0  0  0  0  0
   57.4190   33.3410   44.8990 C   0  0  0  0  0  0  0  0  0  0  0  0
   56.5814   33.7352   44.3049 H   0  0  0  0  0  0  0  0  0  0  0  0
   58.3940   34.2050   45.4020 C   0  0  0  0  0  0  0  0  0  0  0  0
   58.3210   35.2861   45.2127 H   0  0  0  0  0  0  0  0  0  0  0  0
   59.4600   33.6980   46.1440 C   0  0  0  0  0  0  0  0  0  0  0  0
   60.2278   34.3738   46.5486 H   0  0  0  0  0  0  0  0  0  0  0  0
  1  2  1  0
  2  3  1  0
  3  4  1  0
  4  5  2  0
  5  6  1  0
  6  7  2  0
  6  8  1  0
  8  9  1  0
  8 10  1  0
 10 11  2  0
 11 12  1  0
 11 13  1  0
 13 14  1  0
 13 15  2  0
 15 16  1  0
 16 17  1  0
 17 18  1  0
 17 19  1  0
 17 20  1  0
 15 21  1  0
 21 22  1  0
 21 23  2  0
 23 24  1  0
 24 25  1  0
 25 26  1  0
 25 27  1  0
 25 28  1  0
  4 29  1  0
 29 30  1  0
 29 31  2  0
 31 32  1  0
 31 33  1  0
 33 34  1  0
 33  2  2  0
 23 10  1  0
M  CHG  1   3  -1
M  END
>  <UniqueID>  (5) 
5

>  <SMILES>  (5) 
COc1ccc(NC(=O)/N=c2\cccc[n-]2)c(OC(F)(F)F)c1

>  <Energy>  (5) 
46.41572573102509

>  <Genealogy>  (5) 
COc1ccc(NC(=O)N=c2cccc[n-]2)c(OC(F)(F)F)c1 (protonated)
COc1ccc(NC(=O)/N=c2\cccc[n-]2)c(OC(F)(F)F)c1 (cis-trans isomerization)
COc1ccc(NC(=O)/N=c2\cccc[n-]2)c(OC(F)(F)F)c1 (3D coordinates assigned)
COc1ccc(NC(=O)/N=c2\cccc[n-]2)c(OC(F)(F)F)c1 (optimized conformer: 46.41572573102509 kcal/mol)

>  <smiles>  (5) 
COc1ccc(NC(=O)N=c2cccc[nH]2)c(OC(F)(F)F)c1

>  <score_type>  (5) 
oracle

>  <origin>  (5) 
adg

>  <m_score__min__energy>  (5) 
-7.3799999999999999

>  <m_primary>  (5) 
energy

$$$$
5:0
     RDKit          3D

 55 58  0  0  0  0  0  0  0  0999 V2000
   56.7310   21.8900   42.6350 C   0  0  0  0  0  0  0  0  0  0  0  0
   56.9720   22.8150   43.7960 C   0  0  0  0  0  0  0  0  0  0  0  0
   58.1230   22.6770   44.5820 C   0  0  0  0  0  0  0  0  0  0  0  0
   58.3000   23.5070   45.6920 C   0  0  0  0  0  0  0  0  0  0  0  0
   57.3460   24.4210   46.0200 N   0  0  0  0  0  0  0  0  0  0  0  0
   56.2090   24.5720   45.2880 C   0  0  0  0  0  0  0  0  0  0  0  0
   55.2070   25.5620   45.7130 C   0  0  0  0  0  0  0  0  0  0  0  0
   54.0420   25.1700   45.9790 O   0  0  0  0  0  0  0  0  0  0  0  0
   55.5350   26.9590   45.7590 N   0  0  0  0  0  0  0  0  0  0  0  0
   56.8250   27.5250   46.0310 C   0  0  0  0  0  0  0  0  0  0  0  0
   57.7460   26.9110   46.9030 C   0  0  0  0  0  0  0  0  0  0  0  0
   58.9660   27.5300   47.1910 C   0  0  0  0  0  0  0  0  0  0  0  0
   59.2860   28.7550   46.6030 C   0  0  0  0  0  0  0  0  0  0  0  0
   58.3970   29.3540   45.6950 C   0  0  0  0  0  0  0  0  0  0  0  0
   58.7390   30.6400   45.0620 C   0  0  0  0  0  0  0  0  0  0  0  0
   59.1010   30.6430   43.8530 O   0  0  0  0  0  0  0  0  0  0  0  0
   58.6940   31.8800   45.8000 N   0  0  0  0  0  0  0  0  0  0  0  0
   59.4580   33.0340   45.3000 C   0  0  0  0  0  0  0  0  0  0  0  0
   59.2870   34.2700   46.1980 C   0  0  0  0  0  0  0  0  0  0  0  0
   59.3710   33.9290   47.7000 C   0  0  0  0  0  0  0  0  0  0  0  0
   60.8150   33.7710   48.1480 C   0  0  0  0  0  0  0  0  0  0  0  0
   61.2630   34.2600   49.3910 C   0  0  0  0  0  0  0  0  0  0  0  0
   62.5920   34.0890   49.7870 C   0  0  0  0  0  0  0  0  0  0  0  0
   63.4860   33.3940   48.9650 C   0  0  0  0  0  0  0  0  0  0  0  0
   64.8590   33.2250   49.3720 C   0  0  0  0  0  0  0  0  0  0  0  0
   65.9610   33.0990   49.6990 N   0  0  0  0  0  0  0  0  0  0  0  0
   63.0450   32.8800   47.7410 C   0  0  0  0  0  0  0  0  0  0  0  0
   61.7210   33.0700   47.3340 C   0  0  0  0  0  0  0  0  0  0  0  0
   58.4820   32.7180   48.1100 C   0  0  0  0  0  0  0  0  0  0  0  0
   57.7640   32.0640   46.9230 C   0  0  0  0  0  0  0  0  0  0  0  0
   57.1790   28.7240   45.3970 C   0  0  0  0  0  0  0  0  0  0  0  0
   56.0030   23.7640   44.1580 C   0  0  0  0  0  0  0  0  0  0  0  0
   56.4704   20.8897   43.0111 H   0  0  0  0  0  0  0  0  0  0  0  0
   55.9040   22.2783   42.0223 H   0  0  0  0  0  0  0  0  0  0  0  0
   57.6423   21.8254   42.0223 H   0  0  0  0  0  0  0  0  0  0  0  0
   58.8811   21.9217   44.3276 H   0  0  0  0  0  0  0  0  0  0  0  0
   59.2116   23.4217   46.3017 H   0  0  0  0  0  0  0  0  0  0  0  0
   57.5038   25.9399   47.3594 H   0  0  0  0  0  0  0  0  0  0  0  0
   59.6750   27.0509   47.8822 H   0  0  0  0  0  0  0  0  0  0  0  0
   60.2355   29.2519   46.8510 H   0  0  0  0  0  0  0  0  0  0  0  0
   60.5242   32.7656   45.2643 H   0  0  0  0  0  0  0  0  0  0  0  0
   59.0776   33.2857   44.2991 H   0  0  0  0  0  0  0  0  0  0  0  0
   60.0797   34.9934   45.9562 H   0  0  0  0  0  0  0  0  0  0  0  0
   58.2864   34.6849   46.0063 H   0  0  0  0  0  0  0  0  0  0  0  0
   58.9486   34.7886   48.2410 H   0  0  0  0  0  0  0  0  0  0  0  0
   60.5594   34.7817   50.0565 H   0  0  0  0  0  0  0  0  0  0  0  0
   62.9362   34.5016   50.7469 H   0  0  0  0  0  0  0  0  0  0  0  0
   63.7422   32.3245   47.0966 H   0  0  0  0  0  0  0  0  0  0  0  0
   61.3852   32.6668   46.3672 H   0  0  0  0  0  0  0  0  0  0  0  0
   59.1209   31.9627   48.5910 H   0  0  0  0  0  0  0  0  0  0  0  0
   57.7064   33.0986   48.7908 H   0  0  0  0  0  0  0  0  0  0  0  0
   57.3708   31.0843   47.2323 H   0  0  0  0  0  0  0  0  0  0  0  0
   56.9399   32.7173   46.6005 H   0  0  0  0  0  0  0  0  0  0  0  0
   56.4971   29.1743   44.6606 H   0  0  0  0  0  0  0  0  0  0  0  0
   55.0867   23.8742   43.5594 H   0  0  0  0  0  0  0  0  0  0  0  0
  1  2  1  0
  2  3  2  0
  3  4  1  0
  4  5  2  0
  5  6  1  0
  6  7  1  0
  7  8  2  0
  7  9  1  0
  9 10  1  0
 10 11  2  0
 11 12  1  0
 12 13  2  0
 13 14  1  0
 14 15  1  0
 15 16  2  0
 15 17  1  0
 17 18  1  0
 18 19  1  0
 19 20  1  0
 20 21  1  0
 21 22  2  0
 22 23  1  0
 23 24  2  0
 24 25  1  0
 25 26  3  0
 24 27  1  0
 27 28  2  0
 20 29  1  0
 29 30  1  0
 14 31  2  0
  6 32  2  0
 32  2  1  0
 31 10  1  0
 30 17  1  0
 28 21  1  0
  1 33  1  0
  1 34  1  0
  1 35  1  0
  3 36  1  0
  4 37  1  0
 11 38  1  0
 12 39  1  0
 13 40  1  0
 18 41  1  0
 18 42  1  0
 19 43  1  0
 19 44  1  0
 20 45  1  0
 22 46  1  0
 23 47  1  0
 27 48  1  0
 28 49  1  0
 29 50  1  0
 29 51  1  0
 30 52  1  0
 30 53  1  0
 31 54  1  0
 32 55  1  0
M  CHG  1   9  -1
M  END
>  <UniqueID>  (6) 
6

>  <SMILES>  (6) 
Cc1ccnc(C(=O)[N-]c2cccc(C(=O)N3CCC(c4ccc(C#N)cc4)CC3)c2)c1

>  <Energy>  (6) 
71.91026416560219

>  <Genealogy>  (6) 
Cc1ccnc(C(=O)[N-]c2cccc(C(=O)N3CCC(c4ccc(C#N)cc4)CC3)c2)c1 (protonated)
Cc1ccnc(C(=O)[N-]c2cccc(C(=O)N3CCC(c4ccc(C#N)cc4)CC3)c2)c1 (3D coordinates assigned)
Cc1ccnc(C(=O)[N-]c2cccc(C(=O)N3CCC(c4ccc(C#N)cc4)CC3)c2)c1 (nonaromatic ring conformer: 71.91026416560219 kcal/mol)

>  <smiles>  (6) 
Cc1ccnc(C(=O)Nc2cccc(C(=O)N3CCC(c4ccc(C#N)cc4)CC3)c2)c1

>  <score_type>  (6) 
oracle

>  <origin>  (6) 
adg

>  <m_score__min__energy>  (6) 
-11.08

>  <m_primary>  (6) 
energy

$$$$
6:0
     RDKit          3D

 41 43  0  0  0  0  0  0  0  0999 V2000
   55.4310   29.3810   44.8620 N   0  0  0  0  0  0  0  0  0  0  0  0
   56.0840   29.9910   43.7450 C   0  0  0  0  0  0  0  0  0  0  0  0
   55.9240   29.4840   42.6020 O   0  0  0  0  0  0  0  0  0  0  0  0
   56.9580   31.1820   43.9050 C   0  0  0  0  0  0  0  0  0  0  0  0
   57.6310   31.7530   42.8070 C   0  0  0  0  0  0  0  0  0  0  0  0
   58.4200   32.8960   42.9750 C   0  0  0  0  0  0  0  0  0  0  0  0
   58.5570   33.4770   44.2360 C   0  0  0  0  0  0  0  0  0  0  0  0
   57.9260   32.9010   45.3420 C   0  0  0  0  0  0  0  0  0  0  0  0
   58.1100   33.6340   46.9690 S   0  0  0  0  0  0  0  0  0  0  0  0
   59.8350   33.1470   47.1150 C   0  0  0  0  0  0  0  0  0  0  0  0
   60.8260   34.0070   46.6230 C   0  0  0  0  0  0  0  0  0  0  0  0
   62.1750   33.6590   46.7250 C   0  0  0  0  0  0  0  0  0  0  0  0
   62.5420   32.4540   47.3290 C   0  0  0  0  0  0  0  0  0  0  0  0
   61.5600   31.5920   47.8210 C   0  0  0  0  0  0  0  0  0  0  0  0
   60.2000   31.9210   47.6990 C   0  0  0  0  0  0  0  0  0  0  0  0
   59.1880   31.0400   48.2050 N   0  0  0  0  0  0  0  0  0  0  0  0
   58.9010   29.7260   47.7090 C   0  0  0  0  0  0  0  0  0  0  0  0
   58.7130   28.7940   48.5350 O   0  0  0  0  0  0  0  0  0  0  0  0
   58.7130   29.4520   46.2360 C   0  0  1  0  0  0  0  0  0  0  0  0
   59.9540   28.8340   45.6080 C   0  0  0  0  0  0  0  0  0  0  0  0
   59.3780   27.9340   44.5610 C   0  0  0  0  0  0  0  0  0  0  0  0
   58.0090   27.5960   45.1160 C   0  0  0  0  0  0  0  0  0  0  0  0
   57.6270   28.5730   46.0580 O   0  0  0  0  0  0  0  0  0  0  0  0
   57.1310   31.7600   45.1780 C   0  0  0  0  0  0  0  0  0  0  0  0
   55.6640   29.6330   45.8460 H   0  0  0  0  0  0  0  0  0  0  0  0
   54.7700   28.5870   44.7050 H   0  0  0  0  0  0  0  0  0  0  0  0
   57.5355   31.2969   41.8106 H   0  0  0  0  0  0  0  0  0  0  0  0
   58.9345   33.3385   42.1093 H   0  0  0  0  0  0  0  0  0  0  0  0
   59.1613   34.3878   44.3596 H   0  0  0  0  0  0  0  0  0  0  0  0
   60.5404   34.9603   46.1544 H   0  0  0  0  0  0  0  0  0  0  0  0
   62.9484   34.3339   46.3297 H   0  0  0  0  0  0  0  0  0  0  0  0
   63.6048   32.1842   47.4170 H   0  0  0  0  0  0  0  0  0  0  0  0
   61.8532   30.6497   48.3070 H   0  0  0  0  0  0  0  0  0  0  0  0
   58.5214   30.4153   45.7406 H   0  0  0  0  0  0  0  0  0  0  0  0
   60.5971   29.6049   45.1585 H   0  0  0  0  0  0  0  0  0  0  0  0
   60.5944   28.3085   46.3317 H   0  0  0  0  0  0  0  0  0  0  0  0
   59.2955   28.4537   43.5950 H   0  0  0  0  0  0  0  0  0  0  0  0
   59.9971   27.0461   44.3649 H   0  0  0  0  0  0  0  0  0  0  0  0
   57.2768   27.5724   44.2955 H   0  0  0  0  0  0  0  0  0  0  0  0
   58.0455   26.6113   45.6049 H   0  0  0  0  0  0  0  0  0  0  0  0
   56.6367   31.3105   46.0519 H   0  0  0  0  0  0  0  0  0  0  0  0
  1  2  1  0
  2  3  2  0
  2  4  1  0
  4  5  2  0
  5  6  1  0
  6  7  2  0
  7  8  1  0
  8  9  1  0
  9 10  1  0
 10 11  2  0
 11 12  1  0
 12 13  2  0
 13 14  1  0
 14 15  2  0
 15 16  1  0
 16 17  1  0
 17 18  2  0
 17 19  1  0
 19 20  1  0
 20 21  1  0
 21 22  1  0
 22 23  1  0
  8 24  2  0
 24  4  1  0
 15 10  1  0
 23 19  1  0
  1 25  1  0
  1 26  1  0
  5 27  1  0
  6 28  1  0
  7 29  1  0
 11 30  1  0
 12 31  1  0
 13 32  1  0
 14 33  1  0
 19 34  1  6
 20 35  1  0
 20 36  1  0
 21 37  1  0
 21 38  1  0
 22 39  1  0
 22 40  1  0
 24 41  1  0
M  CHG  1  16  -1
M  END
>  <UniqueID>  (7) 
7

>  <SMILES>  (7) 
NC(=O)c1cccc(Sc2ccccc2[N-]C(=O)[C@H]2CCCO2)c1

>  <Energy>  (7) 
42.47304658410998

>  <Genealogy>  (7) 
NC(=O)c1cccc(Sc2ccccc2[N-]C(=O)C2CCCO2)c1 (protonated)
NC(=O)c1cccc(Sc2ccccc2[N-]C(=O)[C@H]2CCCO2)c1 (chirality)
NC(=O)c1cccc(Sc2ccccc2[N-]C(=O)[C@H]2CCCO2)c1 (3D coordinates assigned)
NC(=O)c1cccc(Sc2ccccc2[N-]C(=O)[C@H]2CCCO2)c1 (nonaromatic ring conformer: 42.47304658410998 kcal/mol)

>  <smiles>  (7) 
NC(=O)c1cccc(Sc2ccccc2NC(=O)C2CCCO2)c1

>  <score_type>  (7) 
oracle

>  <origin>  (7) 
adg

>  <m_score__min__energy>  (7) 
-10.6

>  <m_primary>  (7) 
energy

$$$$
7:0
     RDKit          3D

 48 50  0  0  1  0  0  0  0  0999 V2000
   58.1870   23.2190   44.8790 C   0  0  0  0  0  0  0  0  0  0  0  0
   56.9030   23.8950   44.4660 C   0  0  0  0  0  0  0  0  0  0  0  0
   55.8040   23.3960   45.3750 C   0  0  0  0  0  0  0  0  0  0  0  0
   56.5460   23.3680   43.0690 C   0  0  0  0  0  0  0  0  0  0  0  0
   56.9700   25.3030   44.3560 N   0  0  0  0  0  0  0  0  0  0  0  0
   56.6660   26.2270   45.7360 S   0  0  0  0  0  0  0  0  0  0  0  0
   57.2670   25.6330   46.9850 O   0  0  0  0  0  0  0  0  0  0  0  0
   55.1620   26.1910   45.9760 O   0  0  0  0  0  0  0  0  0  0  0  0
   57.1050   27.8960   45.6350 C   0  0  0  0  0  0  0  0  0  0  0  0
   56.6470   28.7760   44.6840 C   0  0  0  0  0  0  0  0  0  0  0  0
   57.0320   30.0930   44.6570 C   0  0  0  0  0  0  0  0  0  0  0  0
   57.8990   30.5960   45.5860 C   0  0  0  0  0  0  0  0  0  0  0  0
   58.3120   31.9960   45.5610 C   0  0  0  0  0  0  0  0  0  0  0  0
   59.4100   32.5060   46.2530 C   0  0  0  0  0  0  0  0  0  0  0  0
   59.4880   33.8560   45.9920 C   0  0  0  0  0  0  0  0  0  0  0  0
   60.3670   34.6650   46.4500 N   0  0  0  0  0  0  0  0  0  0  0  0
   61.5480   34.2200   47.1080 C   0  0  0  0  0  0  0  0  0  0  0  0
   61.5110   34.1880   48.5010 C   0  0  0  0  0  0  0  0  0  0  0  0
   62.5980   33.7740   49.2440 C   0  0  0  0  0  0  0  0  0  0  0  0
   63.7410   33.3860   48.5710 C   0  0  0  0  0  0  0  0  0  0  0  0
   63.7760   33.4180   47.1780 C   0  0  0  0  0  0  0  0  0  0  0  0
   62.6840   33.8340   46.4330 C   0  0  0  0  0  0  0  0  0  0  0  0
   58.4670   34.1520   45.1680 N   0  0  0  0  0  0  0  0  0  0  0  0
   57.7640   33.0390   44.9100 N   0  0  0  0  0  0  0  0  0  0  0  0
   58.3780   29.7490   46.5530 C   0  0  0  0  0  0  0  0  0  0  0  0
   57.9900   28.4260   46.5790 C   0  0  0  0  0  0  0  0  0  0  0  0
   58.2478   23.1870   45.9769 H   0  0  0  0  0  0  0  0  0  0  0  0
   58.2063   22.1938   44.4806 H   0  0  0  0  0  0  0  0  0  0  0  0
   59.0431   23.7833   44.4806 H   0  0  0  0  0  0  0  0  0  0  0  0
   56.1054   23.5329   46.4240 H   0  0  0  0  0  0  0  0  0  0  0  0
   54.8819   23.9637   45.1814 H   0  0  0  0  0  0  0  0  0  0  0  0
   55.6246   22.3281   45.1814 H   0  0  0  0  0  0  0  0  0  0  0  0
   55.9314   22.4608   43.1654 H   0  0  0  0  0  0  0  0  0  0  0  0
   55.9818   24.1365   42.5203 H   0  0  0  0  0  0  0  0  0  0  0  0
   57.4690   23.1291   42.5203 H   0  0  0  0  0  0  0  0  0  0  0  0
   56.7020   25.7250   43.4670 H   0  0  0  0  0  0  0  0  0  0  0  0
   55.9471   28.4119   43.9174 H   0  0  0  0  0  0  0  0  0  0  0  0
   56.6356   30.7556   43.8736 H   0  0  0  0  0  0  0  0  0  0  0  0
   60.0938   31.9310   46.8947 H   0  0  0  0  0  0  0  0  0  0  0  0
   60.5932   34.5003   49.0208 H   0  0  0  0  0  0  0  0  0  0  0  0
   62.5556   33.7534   50.3430 H   0  0  0  0  0  0  0  0  0  0  0  0
   64.6240   33.0516   49.1353 H   0  0  0  0  0  0  0  0  0  0  0  0
   64.6930   33.1053   46.6571 H   0  0  0  0  0  0  0  0  0  0  0  0
   62.7238   33.8552   45.3339 H   0  0  0  0  0  0  0  0  0  0  0  0
   58.2540   35.1200   44.7830 H   0  0  0  0  0  0  0  0  0  0  0  0
   56.9140   32.9490   44.3040 H   0  0  0  0  0  0  0  0  0  0  0  0
   59.0768   30.1280   47.3133 H   0  0  0  0  0  0  0  0  0  0  0  0
   58.3884   27.7682   47.3655 H   0  0  0  0  0  0  0  0  0  0  0  0
  1  2  1  0
  2  3  1  0
  2  4  1  0
  2  5  1  0
  5  6  1  0
  6  7  2  0
  6  8  2  0
  6  9  1  0
  9 10  2  0
 10 11  1  0
 11 12  2  0
 12 13  1  0
 13 14  2  0
 14 15  1  0
 15 16  2  0
 16 17  1  0
 17 18  2  0
 18 19  1  0
 19 20  2  0
 20 21  1  0
 21 22  2  0
 15 23  1  0
 23 24  1  0
 12 25  1  0
 25 26  2  0
 26  9  1  0
 24 13  1  0
 22 17  1  0
  1 27  1  0
  1 28  1  0
  1 29  1  0
  3 30  1  0
  3 31  1  0
  3 32  1  0
  4 33  1  0
  4 34  1  0
  4 35  1  0
  5 36  1  0
 10 37  1  0
 11 38  1  0
 14 39  1  0
 18 40  1  0
 19 41  1  0
 20 42  1  0
 21 43  1  0
 22 44  1  0
 23 45  1  0
 24 46  1  0
 25 47  1  0
 26 48  1  0
M  END
>  <smiles>  (8) 
CC(C)(C)NS(=O)(=O)c1ccc(-c2cc(=Nc3ccccc3)[nH][nH]2)cc1

>  <score_type>  (8) 
oracle

>  <origin>  (8) 
adg

>  <m_score__min__energy>  (8) 
-8.7200000000000006

>  <m_primary>  (8) 
energy

$$$$
8:0
     RDKit          3D

 45 47  0  0  0  0  0  0  0  0999 V2000
   58.1123   34.7415   44.0995 H   0  0  0  0  0  0  0  0  0  0  0  0
   58.1160   33.8680   44.7680 C   0  0  0  0  0  0  0  0  0  0  0  0
   57.4030   32.7610   44.4370 N   0  0  0  0  0  0  0  0  0  0  0  0
   57.3820   31.6520   45.2260 C   0  0  0  0  0  0  0  0  0  0  0  0
   56.6820   30.6020   44.9040 N   0  0  0  0  0  0  0  0  0  0  0  0
   56.8360   29.7640   43.7460 C   0  0  0  0  0  0  0  0  0  0  0  0
   56.1910   30.0590   42.7040 O   0  0  0  0  0  0  0  0  0  0  0  0
   57.7290   28.5470   43.7460 C   0  0  0  0  0  0  0  0  0  0  0  0
   57.1010   27.6441   43.7276 H   0  0  0  0  0  0  0  0  0  0  0  0
   58.3753   28.5960   42.8572 H   0  0  0  0  0  0  0  0  0  0  0  0
   58.6140   28.5030   44.9700 C   0  0  0  0  0  0  0  0  0  0  0  0
   59.8110   29.2400   44.9840 C   0  0  0  0  0  0  0  0  0  0  0  0
   60.0842   29.8538   44.1130 H   0  0  0  0  0  0  0  0  0  0  0  0
   60.6560   29.1990   46.0950 C   0  0  0  0  0  0  0  0  0  0  0  0
   61.5867   29.7853   46.0993 H   0  0  0  0  0  0  0  0  0  0  0  0
   60.3210   28.4150   47.2000 C   0  0  0  0  0  0  0  0  0  0  0  0
   60.9867   28.3863   48.0752 H   0  0  0  0  0  0  0  0  0  0  0  0
   59.1420   27.6670   47.1960 C   0  0  0  0  0  0  0  0  0  0  0  0
   58.8835   27.0476   48.0675 H   0  0  0  0  0  0  0  0  0  0  0  0
   58.2870   27.7020   46.0870 C   0  0  0  0  0  0  0  0  0  0  0  0
   56.8230   26.7230   46.1290 Cl  0  0  0  0  0  0  0  0  0  0  0  0
   58.0960   31.6510   46.4290 C   0  0  0  0  0  0  0  0  0  0  0  0
   58.0736   30.7654   47.0811 H   0  0  0  0  0  0  0  0  0  0  0  0
   58.8410   32.7800   46.8040 C   0  0  0  0  0  0  0  0  0  0  0  0
   59.6400   32.7580   48.0870 C   0  0  0  0  0  0  0  0  0  0  0  0
   59.8802   33.7910   48.3790 H   0  0  0  0  0  0  0  0  0  0  0  0
   59.0383   32.2673   48.8662 H   0  0  0  0  0  0  0  0  0  0  0  0
   60.8980   31.9990   47.9150 N   0  0  0  0  0  0  0  0  0  0  0  0
   61.6880   31.9690   49.1710 C   0  0  0  0  0  0  0  0  0  0  0  0
   61.5999   32.9442   49.6722 H   0  0  0  0  0  0  0  0  0  0  0  0
   61.2928   31.1643   49.8084 H   0  0  0  0  0  0  0  0  0  0  0  0
   63.1690   31.6820   48.8960 C   0  0  0  0  0  0  0  0  0  0  0  0
   63.7065   31.6341   49.8545 H   0  0  0  0  0  0  0  0  0  0  0  0
   63.2380   30.7260   48.3564 H   0  0  0  0  0  0  0  0  0  0  0  0
   63.7830   32.7300   48.0550 N   0  0  0  0  0  0  0  0  0  0  0  0
   64.2270   33.4490   48.6730 H   0  0  0  0  0  0  0  0  0  0  0  0
   64.5430   32.2960   47.4810 H   0  0  0  0  0  0  0  0  0  0  0  0
   62.8290   33.4110   47.1540 C   0  0  0  0  0  0  0  0  0  0  0  0
   62.4159   34.2897   47.6710 H   0  0  0  0  0  0  0  0  0  0  0  0
   63.3701   33.7069   46.2431 H   0  0  0  0  0  0  0  0  0  0  0  0
   61.6730   32.4860   46.7440 C   0  0  0  0  0  0  0  0  0  0  0  0
   60.9959   33.0401   46.0773 H   0  0  0  0  0  0  0  0  0  0  0  0
   62.1058   31.6099   46.2389 H   0  0  0  0  0  0  0  0  0  0  0  0
   58.8540   33.9030   45.9530 C   0  0  0  0  0  0  0  0  0  0  0  0
   59.7770   35.3530   46.3370 Cl  0  0  0  0  0  0  0  0  0  0  0  0
  1  2  1  0
  2  3  1  0
  3  4  1  0
  4  5  2  0
  5  6  1  0
  6  7  2  0
  6  8  1  0
  8  9  1  0
  8 10  1  0
  8 11  1  0
 11 12  2  0
 12 13  1  0
 12 14  1  0
 14 15  1  0
 14 16  2  0
 16 17  1  0
 16 18  1  0
 18 19  1  0
 18 20  2  0
 20 21  1  0
  4 22  1  0
 22 23  1  0
 22 24  2  0
 24 25  1  0
 25 26  1  0
 25 27  1  0
 25 28  1  0
 28 29  1  0
 29 30  1  0
 29 31  1  0
 29 32  1  0
 32 33  1  0
 32 34  1  0
 32 35  1  0
 35 36  1  0
 35 37  1  0
 35 38  1  0
 38 39  1  0
 38 40  1  0
 38 41  1  0
 41 42  1  0
 41 43  1  0
 24 44  1  0
 44 45  1  0
 44  2  2  0
 20 11  1  0
 41 28  1  0
M  CHG  2   3  -1  35   1
M  END
>  <UniqueID>  (9) 
8

>  <SMILES>  (9) 
O=C(Cc1ccccc1Cl)/N=c1/cc(CN2CC[NH2+]CC2)c(Cl)c[n-]1

>  <Energy>  (9) 
63.76231721618712

>  <Genealogy>  (9) 
O=C(Cc1ccccc1Cl)N=c1cc(CN2CC[NH2+]CC2)c(Cl)c[n-]1 (protonated)
O=C(Cc1ccccc1Cl)/N=c1/cc(CN2CC[NH2+]CC2)c(Cl)c[n-]1 (cis-trans isomerization)
O=C(Cc1ccccc1Cl)/N=c1/cc(CN2CC[NH2+]CC2)c(Cl)c[n-]1 (3D coordinates assigned)
O=C(Cc1ccccc1Cl)/N=c1/cc(CN2CC[NH2+]CC2)c(Cl)c[n-]1 (nonaromatic ring conformer: 63.76231721618712 kcal/mol)

>  <smiles>  (9) 
O=C(Cc1ccccc1Cl)N=c1cc(CN2CCNCC2)c(Cl)c[nH]1

>  <score_type>  (9) 
oracle

>  <origin>  (9) 
adg

>  <m_score__min__energy>  (9) 
-9.25

>  <m_primary>  (9) 
energy

$$$$
9:0
     RDKit          3D

 30 31  0  0  0  0  0  0  0  0999 V2000
   64.5230   32.2250   47.1650 H   0  0  0  0  0  0  0  0  0  0  0  0
   64.0930   33.0370   47.6630 N   0  0  0  0  0  0  0  0  0  0  0  0
   62.8600   32.4000   48.6920 S   0  0  0  0  0  0  0  0  0  0  0  0
   63.3840   31.1870   49.4090 O   0  0  0  0  0  0  0  0  0  0  0  0
   62.4730   33.4330   49.7130 O   0  0  0  0  0  0  0  0  0  0  0  0
   61.4550   31.9630   47.7260 C   0  0  0  0  0  0  0  0  0  0  0  0
   61.4210   30.7520   47.0260 C   0  0  0  0  0  0  0  0  0  0  0  0
   62.2739   30.0598   47.0850 H   0  0  0  0  0  0  0  0  0  0  0  0
   60.3360   30.4290   46.2730 N   0  0  0  0  0  0  0  0  0  0  0  0
   59.2540   31.2510   46.1710 C   0  0  0  0  0  0  0  0  0  0  0  0
   58.1120   30.8420   45.3160 C   0  0  0  0  0  0  0  0  0  0  0  0
   57.3620   29.7120   45.6800 C   0  0  0  0  0  0  0  0  0  0  0  0
   57.6227   29.1521   46.5902 H   0  0  0  0  0  0  0  0  0  0  0  0
   56.2880   29.2960   44.8930 C   0  0  0  0  0  0  0  0  0  0  0  0
   55.5550   28.1710   45.2470 O   0  0  0  0  0  0  0  0  0  0  0  0
   55.9590   30.0190   43.7490 C   0  0  0  0  0  0  0  0  0  0  0  0
   55.1198   29.6948   43.1160 H   0  0  0  0  0  0  0  0  0  0  0  0
   56.6740   31.1240   43.4150 N   0  0  0  0  0  0  0  0  0  0  0  0
   57.7300   31.5630   44.1580 C   0  0  0  0  0  0  0  0  0  0  0  0
   58.3660   32.6520   43.8280 N   0  0  0  0  0  0  0  0  0  0  0  0
   58.2770   33.9380   44.4650 C   0  0  0  0  0  0  0  0  0  0  0  0
   59.2620   34.7250   44.4960 O   0  0  0  0  0  0  0  0  0  0  0  0
   57.0110   34.3240   45.1520 C   0  0  0  0  0  0  0  0  0  0  0  0
   57.1567   34.2796   46.2414 H   0  0  0  0  0  0  0  0  0  0  0  0
   56.7331   35.3477   44.8607 H   0  0  0  0  0  0  0  0  0  0  0  0
   56.2093   33.6295   44.8607 H   0  0  0  0  0  0  0  0  0  0  0  0
   59.2650   32.4860   46.8390 C   0  0  0  0  0  0  0  0  0  0  0  0
   58.4101   33.1723   46.7482 H   0  0  0  0  0  0  0  0  0  0  0  0
   60.3680   32.8370   47.6190 C   0  0  0  0  0  0  0  0  0  0  0  0
   60.3825   33.8006   48.1494 H   0  0  0  0  0  0  0  0  0  0  0  0
  1  2  1  0
  2  3  1  0
  3  4  2  0
  3  5  2  0
  3  6  1  0
  6  7  2  0
  7  8  1  0
  7  9  1  0
  9 10  2  0
 10 11  1  0
 11 12  2  0
 12 13  1  0
 12 14  1  0
 14 15  1  0
 14 16  2  0
 16 17  1  0
 16 18  1  0
 18 19  1  0
 19 20  2  0
 20 21  1  0
 21 22  2  0
 21 23  1  0
 23 24  1  0
 23 25  1  0
 23 26  1  0
 10 27  1  0
 27 28  1  0
 27 29  2  0
 29 30  1  0
 29  6  1  0
 19 11  1  0
M  CHG  3   2  -1  15  -1  18  -1
M  END
>  <UniqueID>  (10) 
9

>  <SMILES>  (10) 
CC(=O)/N=c1\[n-]cc([O-])cc1-c1ccc(S([NH-])(=O)=O)cn1

>  <Energy>  (10) 
39.02563989498058

>  <Genealogy>  (10) 
CC(=O)N=c1[n-]cc([O-])cc1-c1ccc(S([NH-])(=O)=O)cn1 (protonated)
CC(=O)/N=c1\[n-]cc([O-])cc1-c1ccc(S([NH-])(=O)=O)cn1 (cis-trans isomerization)
CC(=O)/N=c1\[n-]cc([O-])cc1-c1ccc(S([NH-])(=O)=O)cn1 (3D coordinates assigned)
CC(=O)/N=c1\[n-]cc([O-])cc1-c1ccc(S([NH-])(=O)=O)cn1 (optimized conformer: 39.02563989498058 kcal/mol)

>  <smiles>  (10) 
CC(=O)N=c1[nH]cc(O)cc1-c1ccc(S(N)(=O)=O)cn1

>  <score_type>  (10) 
oracle

>  <origin>  (10) 
adg

>  <m_score__min__energy>  (10) 
-11.4

>  <m_primary>  (10) 
energy

$$$$
10:0
     RDKit          3D

 40 42  0  0  0  0  0  0  0  0999 V2000
   60.8930   26.3280   47.7060 O   0  0  0  0  0  0  0  0  0  0  0  0
   60.3450   27.4590   47.8150 C   0  0  0  0  0  0  0  0  0  0  0  0
   60.9490   28.4750   48.6280 N   0  0  0  0  0  0  0  0  0  0  0  0
   60.3520   29.1440   49.7490 C   0  0  0  0  0  0  0  0  0  0  0  0
   58.9680   29.3950   49.8140 C   0  0  0  0  0  0  0  0  0  0  0  0
   58.4260   30.0700   50.9120 C   0  0  0  0  0  0  0  0  0  0  0  0
   59.2580   30.5120   51.9440 C   0  0  0  0  0  0  0  0  0  0  0  0
   60.6360   30.2880   51.8750 C   0  0  0  0  0  0  0  0  0  0  0  0
   61.4430   30.7280   52.8730 F   0  0  0  0  0  0  0  0  0  0  0  0
   61.1820   29.6120   50.7770 C   0  0  0  0  0  0  0  0  0  0  0  0
   62.5220   29.4040   50.7170 F   0  0  0  0  0  0  0  0  0  0  0  0
   59.1040   27.7530   47.0590 C   0  0  0  0  0  0  0  0  0  0  0  0
   58.7930   29.0720   46.6900 C   0  0  0  0  0  0  0  0  0  0  0  0
   57.6360   29.3590   45.9610 C   0  0  0  0  0  0  0  0  0  0  0  0
   57.3680   30.7270   45.6220 N   0  0  0  0  0  0  0  0  0  0  0  0
   58.3550   31.7570   45.4790 C   0  0  0  0  0  0  0  0  0  0  0  0
   58.4350   32.3940   44.3930 O   0  0  0  0  0  0  0  0  0  0  0  0
   59.3080   32.0340   46.5880 C   0  0  0  0  0  0  0  0  0  0  0  0
   60.6750   31.7410   46.4160 C   0  0  0  0  0  0  0  0  0  0  0  0
   61.5920   31.9900   47.4420 C   0  0  0  0  0  0  0  0  0  0  0  0
   63.2910   31.6200   47.2070 Cl  0  0  0  0  0  0  0  0  0  0  0  0
   61.1590   32.5320   48.6520 C   0  0  0  0  0  0  0  0  0  0  0  0
   59.8080   32.8280   48.8440 C   0  0  0  0  0  0  0  0  0  0  0  0
   59.2880   33.5080   50.3780 Cl  0  0  0  0  0  0  0  0  0  0  0  0
   58.8790   32.5810   47.8210 C   0  0  0  0  0  0  0  0  0  0  0  0
   57.5380   32.8820   48.0420 O   0  0  0  0  0  0  0  0  0  0  0  0
   56.7350   28.3250   45.6430 C   0  0  0  0  0  0  0  0  0  0  0  0
   55.5230   28.6310   45.0310 O   0  0  0  0  0  0  0  0  0  0  0  0
   57.0380   26.9890   45.9860 C   0  0  0  0  0  0  0  0  0  0  0  0
   56.1490   25.9060   45.6400 N   0  0  0  0  0  0  0  0  0  0  0  0
   56.5750   24.9130   45.0140 O   0  0  0  0  0  0  0  0  0  0  0  0
   54.8070   25.9680   45.9350 O   0  0  0  0  0  0  0  0  0  0  0  0
   58.2250   26.7200   46.6930 C   0  0  0  0  0  0  0  0  0  0  0  0
   58.3110   29.0589   48.9982 H   0  0  0  0  0  0  0  0  0  0  0  0
   57.3426   30.2534   50.9635 H   0  0  0  0  0  0  0  0  0  0  0  0
   58.8286   31.0361   52.8105 H   0  0  0  0  0  0  0  0  0  0  0  0
   59.4693   29.8901   46.9788 H   0  0  0  0  0  0  0  0  0  0  0  0
   61.0246   31.3121   45.4653 H   0  0  0  0  0  0  0  0  0  0  0  0
   61.8833   32.7267   49.4567 H   0  0  0  0  0  0  0  0  0  0  0  0
   58.4688   25.6821   46.9639 H   0  0  0  0  0  0  0  0  0  0  0  0
  1  2  2  0
  2  3  1  0
  3  4  1  0
  4  5  2  0
  5  6  1  0
  6  7  2  0
  7  8  1  0
  8  9  1  0
  8 10  2  0
 10 11  1  0
  2 12  1  0
 12 13  2  0
 13 14  1  0
 14 15  1  0
 15 16  1  0
 16 17  2  0
 16 18  1  0
 18 19  2  0
 19 20  1  0
 20 21  1  0
 20 22  2  0
 22 23  1  0
 23 24  1  0
 23 25  2  0
 25 26  1  0
 14 27  2  0
 27 28  1  0
 27 29  1  0
 29 30  1  0
 30 31  2  0
 30 32  1  0
 29 33  2  0
 10  4  1  0
 33 12  1  0
 25 18  1  0
  5 34  1  0
  6 35  1  0
  7 36  1  0
 13 37  1  0
 19 38  1  0
 22 39  1  0
 33 40  1  0
M  CHG  6   3  -1  15  -1  26  -1  28  -1  30   1  32  -1
M  END
>  <UniqueID>  (11) 
10

>  <SMILES>  (11) 
O=C([N-]c1cccc(F)c1F)c1cc([N-]C(=O)c2cc(Cl)cc(Cl)c2[O-])c([O-])c([N+](=O)[O-])c1

>  <Energy>  (11) 
60.03973561155973

>  <Genealogy>  (11) 
O=C([N-]c1cccc(F)c1F)c1cc([N-]C(=O)c2cc(Cl)cc(Cl)c2[O-])c([O-])c([N+](=O)[O-])c1 (protonated)
O=C([N-]c1cccc(F)c1F)c1cc([N-]C(=O)c2cc(Cl)cc(Cl)c2[O-])c([O-])c([N+](=O)[O-])c1 (3D coordinates assigned)
O=C([N-]c1cccc(F)c1F)c1cc([N-]C(=O)c2cc(Cl)cc(Cl)c2[O-])c([O-])c([N+](=O)[O-])c1 (optimized conformer: 60.03973561155973 kcal/mol)

>  <smiles>  (11) 
O=C(Nc1cccc(F)c1F)c1cc(NC(=O)c2cc(Cl)cc(Cl)c2O)c(O)c([N+](=O)[O-])c1

>  <score_type>  (11) 
oracle

>  <origin>  (11) 
adg

>  <m_score__min__energy>  (11) 
-15.44

>  <m_primary>  (11) 
energy

$$$$
11:0
     RDKit          3D

 42 44  0  0  0  0  0  0  0  0999 V2000
   60.1050   35.1480   47.9480 O   0  0  0  0  0  0  0  0  0  0  0  0
   60.3080   34.6700   46.5370 S   0  0  0  0  0  0  0  0  0  0  0  0
   59.9790   35.7900   45.5920 O   0  0  0  0  0  0  0  0  0  0  0  0
   61.9670   34.2100   46.3230 N   0  0  0  0  0  0  0  0  0  0  0  0
   62.6640   33.5660   47.2080 C   0  0  0  0  0  0  0  0  0  0  0  0
   63.5570   34.1830   48.0090 N   0  0  0  0  0  0  0  0  0  0  0  0
   64.1670   33.3050   48.8490 C   0  0  0  0  0  0  0  0  0  0  0  0
   63.7600   31.9810   48.7190 C   0  0  0  0  0  0  0  0  0  0  0  0
   62.5940   31.9080   47.5090 S   0  0  0  0  0  0  0  0  0  0  0  0
   59.2630   33.2980   46.1830 C   0  0  0  0  0  0  0  0  0  0  0  0
   59.3090   32.1400   46.9700 C   0  0  0  0  0  0  0  0  0  0  0  0
   58.4860   31.0520   46.6690 C   0  0  0  0  0  0  0  0  0  0  0  0
   57.5970   31.1100   45.5860 C   0  0  0  0  0  0  0  0  0  0  0  0
   56.7960   29.9580   45.2680 N   0  0  0  0  0  0  0  0  0  0  0  0
   56.9730   29.1790   44.0800 C   0  0  0  0  0  0  0  0  0  0  0  0
   56.6910   29.8560   42.6160 S   0  0  0  0  0  0  0  0  0  0  0  0
   57.3390   27.7940   44.1640 N   0  0  0  0  0  0  0  0  0  0  0  0
   57.7910   27.1750   45.4100 C   0  0  0  0  0  0  0  0  0  0  0  0
   57.2260   25.7810   45.5440 C   0  0  0  0  0  0  0  0  0  0  0  0
   58.0830   24.6760   45.4000 C   0  0  0  0  0  0  0  0  0  0  0  0
   57.5980   23.3760   45.5600 C   0  0  0  0  0  0  0  0  0  0  0  0
   56.2520   23.1640   45.8580 C   0  0  0  0  0  0  0  0  0  0  0  0
   55.3850   24.2510   45.9910 C   0  0  0  0  0  0  0  0  0  0  0  0
   55.8630   25.5620   45.8380 C   0  0  0  0  0  0  0  0  0  0  0  0
   54.9880   26.6370   45.9870 O   0  0  0  0  0  0  0  0  0  0  0  0
   57.5580   32.2730   44.7950 C   0  0  0  0  0  0  0  0  0  0  0  0
   58.3860   33.3580   45.0940 C   0  0  0  0  0  0  0  0  0  0  0  0
   64.9277   33.6189   49.5789 H   0  0  0  0  0  0  0  0  0  0  0  0
   64.1356   31.1297   49.3057 H   0  0  0  0  0  0  0  0  0  0  0  0
   59.9955   32.0872   47.8279 H   0  0  0  0  0  0  0  0  0  0  0  0
   58.5357   30.1429   47.2862 H   0  0  0  0  0  0  0  0  0  0  0  0
   56.1210   29.6030   45.9820 H   0  0  0  0  0  0  0  0  0  0  0  0
   57.3530   27.2200   43.2900 H   0  0  0  0  0  0  0  0  0  0  0  0
   58.8897   27.1217   45.4098 H   0  0  0  0  0  0  0  0  0  0  0  0
   57.4407   27.7835   46.2568 H   0  0  0  0  0  0  0  0  0  0  0  0
   59.1443   24.8365   45.1593 H   0  0  0  0  0  0  0  0  0  0  0  0
   58.2783   22.5185   45.4509 H   0  0  0  0  0  0  0  0  0  0  0  0
   55.8729   22.1397   45.9884 H   0  0  0  0  0  0  0  0  0  0  0  0
   54.3223   24.0789   46.2168 H   0  0  0  0  0  0  0  0  0  0  0  0
   54.3340   26.6870   46.7590 H   0  0  0  0  0  0  0  0  0  0  0  0
   56.8721   32.3283   43.9368 H   0  0  0  0  0  0  0  0  0  0  0  0
   58.3484   34.2635   44.4706 H   0  0  0  0  0  0  0  0  0  0  0  0
  1  2  2  0
  2  3  2  0
  2  4  1  0
  4  5  2  3
  5  6  1  0
  6  7  1  0
  7  8  2  0
  8  9  1  0
  2 10  1  0
 10 11  2  0
 11 12  1  0
 12 13  2  0
 13 14  1  0
 14 15  1  0
 15 16  2  0
 15 17  1  0
 17 18  1  0
 18 19  1  0
 19 20  2  0
 20 21  1  0
 21 22  2  0
 22 23  1  0
 23 24  2  0
 24 25  1  0
 13 26  1  0
 26 27  2  0
  9  5  1  0
 27 10  1  0
 24 19  1  0
  7 28  1  0
  8 29  1  0
 11 30  1  0
 12 31  1  0
 14 32  1  0
 17 33  1  0
 18 34  1  0
 18 35  1  0
 20 36  1  0
 21 37  1  0
 22 38  1  0
 23 39  1  0
 25 40  1  0
 26 41  1  0
 27 42  1  0
M  CHG  1   6  -1
M  END
>  <UniqueID>  (12) 
11

>  <SMILES>  (12) 
O=S(=O)(N=c1[n-]ccs1)c1ccc(NC(=S)NCc2ccccc2O)cc1

>  <Energy>  (12) 
76.7832886635468

>  <Genealogy>  (12) 
O=S(=O)(N=c1[n-]ccs1)c1ccc(NC(=S)NCc2ccccc2O)cc1 (protonated)
O=S(=O)(N=c1[n-]ccs1)c1ccc(NC(=S)NCc2ccccc2O)cc1 (3D coordinates assigned)
O=S(=O)(N=c1[n-]ccs1)c1ccc(NC(=S)NCc2ccccc2O)cc1 (optimized conformer: 76.7832886635468 kcal/mol)

>  <smiles>  (12) 
O=S(=O)(N=c1[nH]ccs1)c1ccc(NC(=S)NCc2ccccc2O)cc1

>  <score_type>  (12) 
oracle

>  <origin>  (12) 
adg

>  <m_score__min__energy>  (12) 
-10.869999999999999

>  <m_primary>  (12) 
energy

$$$$
12:0
     RDKit          3D

 45 47  0  0  0  0  0  0  0  0999 V2000
   55.7120   25.0820   45.6170 C   0  0  0  0  0  0  0  0  0  0  0  0
   55.7200   26.3140   46.3070 O   0  0  0  0  0  0  0  0  0  0  0  0
   57.0300   26.6220   46.7430 C   0  0  0  0  0  0  0  0  0  0  0  0
   57.5480   27.8360   46.0300 C   0  0  0  0  0  0  0  0  0  0  0  0
   58.6840   28.2900   46.3360 O   0  0  0  0  0  0  0  0  0  0  0  0
   56.7880   28.4240   44.9620 N   0  0  0  0  0  0  0  0  0  0  0  0
   57.1170   29.6760   44.3350 C   0  0  0  0  0  0  0  0  0  0  0  0
   56.6870   29.9180   43.0230 C   0  0  0  0  0  0  0  0  0  0  0  0
   56.9880   31.1270   42.3940 C   0  0  0  0  0  0  0  0  0  0  0  0
   57.7040   32.1140   43.0730 C   0  0  0  0  0  0  0  0  0  0  0  0
   58.1140   31.9110   44.4030 C   0  0  0  0  0  0  0  0  0  0  0  0
   58.8640   32.9790   45.1130 C   0  0  0  0  0  0  0  0  0  0  0  0
   58.5640   34.3390   44.9380 C   0  0  0  0  0  0  0  0  0  0  0  0
   59.3150   35.2850   45.6320 C   0  0  0  0  0  0  0  0  0  0  0  0
   60.3200   34.8860   46.4530 N   0  0  0  0  0  0  0  0  0  0  0  0
   60.6150   33.5670   46.6160 C   0  0  0  0  0  0  0  0  0  0  0  0
   61.6910   33.1570   47.4850 N   0  0  0  0  0  0  0  0  0  0  0  0
   61.4650   32.1790   48.5600 C   0  0  0  0  0  0  0  0  0  0  0  0
   62.6790   31.2390   48.7390 C   0  0  0  0  0  0  0  0  0  0  0  0
   63.9730   31.8270   48.3440 N   0  0  0  0  0  0  0  0  0  0  0  0
   63.9770   33.2910   48.4190 C   0  0  0  0  0  0  0  0  0  0  0  0
   62.9730   33.8730   47.4220 C   0  0  0  0  0  0  0  0  0  0  0  0
   59.8870   32.6350   45.9430 N   0  0  0  0  0  0  0  0  0  0  0  0
   57.8170   30.6830   45.0270 C   0  0  0  0  0  0  0  0  0  0  0  0
   55.7066   24.2553   46.3427 H   0  0  0  0  0  0  0  0  0  0  0  0
   54.8134   25.0213   44.9854 H   0  0  0  0  0  0  0  0  0  0  0  0
   56.6097   25.0096   44.9854 H   0  0  0  0  0  0  0  0  0  0  0  0
   57.0151   26.8166   47.8255 H   0  0  0  0  0  0  0  0  0  0  0  0
   57.6891   25.7699   46.5205 H   0  0  0  0  0  0  0  0  0  0  0  0
   56.0040   27.8660   44.5560 H   0  0  0  0  0  0  0  0  0  0  0  0
   56.1093   29.1510   42.4863 H   0  0  0  0  0  0  0  0  0  0  0  0
   56.6596   31.3027   41.3590 H   0  0  0  0  0  0  0  0  0  0  0  0
   57.9495   33.0578   42.5641 H   0  0  0  0  0  0  0  0  0  0  0  0
   57.7515   34.6518   44.2657 H   0  0  0  0  0  0  0  0  0  0  0  0
   59.0936   36.3561   45.5147 H   0  0  0  0  0  0  0  0  0  0  0  0
   61.2894   32.7186   49.5023 H   0  0  0  0  0  0  0  0  0  0  0  0
   60.5925   31.5662   48.2896 H   0  0  0  0  0  0  0  0  0  0  0  0
   62.7403   30.9556   49.8001 H   0  0  0  0  0  0  0  0  0  0  0  0
   62.5099   30.3802   48.0728 H   0  0  0  0  0  0  0  0  0  0  0  0
   64.1870   31.5440   47.3580 H   0  0  0  0  0  0  0  0  0  0  0  0
   63.7013   33.6036   49.4370 H   0  0  0  0  0  0  0  0  0  0  0  0
   64.9833   33.6606   48.1727 H   0  0  0  0  0  0  0  0  0  0  0  0
   62.8044   34.9338   47.6594 H   0  0  0  0  0  0  0  0  0  0  0  0
   63.3846   33.7652   46.4076 H   0  0  0  0  0  0  0  0  0  0  0  0
   58.1353   30.5092   46.0655 H   0  0  0  0  0  0  0  0  0  0  0  0
  1  2  1  0
  2  3  1  0
  3  4  1  0
  4  5  2  0
  4  6  1  0
  6  7  1  0
  7  8  2  0
  8  9  1  0
  9 10  2  0
 10 11  1  0
 11 12  1  0
 12 13  2  0
 13 14  1  0
 14 15  2  0
 15 16  1  0
 16 17  1  0
 17 18  1  0
 18 19  1  0
 19 20  1  0
 20 21  1  0
 21 22  1  0
 16 23  2  0
 11 24  2  0
 24  7  1  0
 23 12  1  0
 22 17  1  0
  1 25  1  0
  1 26  1  0
  1 27  1  0
  3 28  1  0
  3 29  1  0
  6 30  1  0
  8 31  1  0
  9 32  1  0
 10 33  1  0
 13 34  1  0
 14 35  1  0
 18 36  1  0
 18 37  1  0
 19 38  1  0
 19 39  1  0
 20 40  1  0
 21 41  1  0
 21 42  1  0
 22 43  1  0
 22 44  1  0
 24 45  1  0
M  END
>  <UniqueID>  (13) 
12

>  <SMILES>  (13) 
COCC(=O)Nc1cccc(-c2ccnc(N3CCNCC3)n2)c1

>  <Energy>  (13) 
59.21129746406997

>  <Genealogy>  (13) 
COCC(=O)Nc1cccc(-c2ccnc(N3CCNCC3)n2)c1 (3D coordinates assigned)
COCC(=O)Nc1cccc(-c2ccnc(N3CCNCC3)n2)c1 (nonaromatic ring conformer: 59.21129746406997 kcal/mol)

>  <smiles>  (13) 
COCC(=O)Nc1cccc(-c2ccnc(N3CCNCC3)n2)c1

>  <score_type>  (13) 
oracle

>  <origin>  (13) 
adg

>  <m_score__min__energy>  (13) 
-8.5600000000000005

>  <m_primary>  (13) 
energy

$$$$
13:0
     RDKit          3D

 63 65  0  0  0  0  0  0  0  0999 V2000
   60.5750   34.5900   48.9230 C   0  0  0  0  0  0  0  0  0  0  0  0
   60.2910   33.3270   48.1130 C   0  0  2  0  0  0  0  0  0  0  0  0
   61.5440   32.8190   47.5500 N   0  0  0  0  0  0  0  0  0  0  0  0
   61.8880   31.4330   47.4500 C   0  0  0  0  0  0  0  0  0  0  0  0
   62.9060   31.1000   46.7880 O   0  0  0  0  0  0  0  0  0  0  0  0
   61.0580   30.3890   48.0700 C   0  0  0  0  0  0  0  0  0  0  0  0
   60.7360   29.2360   47.3430 C   0  0  0  0  0  0  0  0  0  0  0  0
   59.9270   28.2460   47.9100 C   0  0  0  0  0  0  0  0  0  0  0  0
   59.5350   27.0690   47.1260 C   0  0  0  0  0  0  0  0  0  0  0  0
   60.3880   26.5330   46.3760 O   0  0  0  0  0  0  0  0  0  0  0  0
   58.1920   26.5510   47.1310 N   0  0  0  0  0  0  0  0  0  0  0  0
   57.0600   26.9440   46.2840 C   0  0  1  0  0  0  0  0  0  0  0  0
   57.4960   27.2520   44.8310 C   0  0  0  0  0  0  0  0  0  0  0  0
   57.5150   28.7180   44.4550 C   0  0  0  0  0  0  0  0  0  0  0  0
   58.4430   29.5980   45.0410 C   0  0  0  0  0  0  0  0  0  0  0  0
   58.4880   30.9390   44.6510 C   0  0  0  0  0  0  0  0  0  0  0  0
   57.6130   31.4170   43.6710 C   0  0  0  0  0  0  0  0  0  0  0  0
   56.6980   30.5480   43.0700 C   0  0  0  0  0  0  0  0  0  0  0  0
   56.6540   29.2030   43.4530 C   0  0  0  0  0  0  0  0  0  0  0  0
   55.8900   26.0030   46.3950 C   0  0  0  0  0  0  0  0  0  0  0  0
   54.7680   26.3470   45.9390 O   0  0  0  0  0  0  0  0  0  0  0  0
   56.0170   24.7710   47.0190 O   0  0  0  0  0  0  0  0  0  0  0  0
   59.4170   28.4230   49.2030 C   0  0  0  0  0  0  0  0  0  0  0  0
   59.7130   29.5860   49.9240 C   0  0  0  0  0  0  0  0  0  0  0  0
   59.1490   29.7860   51.2240 N   0  0  0  0  0  0  0  0  0  0  0  0
   59.6360   28.9920   52.3490 C   0  0  0  0  0  0  0  0  0  0  0  0
   57.8660   30.9390   51.4390 S   0  0  0  0  0  0  0  0  0  0  0  0
   58.1750   31.9510   52.8670 C   0  0  0  0  0  0  0  0  0  0  0  0
   57.7620   31.8080   50.2180 O   0  0  0  0  0  0  0  0  0  0  0  0
   56.5620   30.2190   51.6260 O   0  0  0  0  0  0  0  0  0  0  0  0
   60.5330   30.5670   49.3550 C   0  0  0  0  0  0  0  0  0  0  0  0
   59.2870   33.6090   47.0140 C   0  0  0  0  0  0  0  0  0  0  0  0
   57.9520   33.1810   47.1300 C   0  0  0  0  0  0  0  0  0  0  0  0
   57.0180   33.5140   46.1450 C   0  0  0  0  0  0  0  0  0  0  0  0
   57.4090   34.2630   45.0340 C   0  0  0  0  0  0  0  0  0  0  0  0
   58.7350   34.6800   44.9040 C   0  0  0  0  0  0  0  0  0  0  0  0
   59.6720   34.3540   45.8860 C   0  0  0  0  0  0  0  0  0  0  0  0
   60.5225   34.3566   49.9967 H   0  0  0  0  0  0  0  0  0  0  0  0
   61.5798   34.9646   48.6779 H   0  0  0  0  0  0  0  0  0  0  0  0
   59.8273   35.3587   48.6779 H   0  0  0  0  0  0  0  0  0  0  0  0
   59.8573   32.5641   48.7763 H   0  0  0  0  0  0  0  0  0  0  0  0
   61.1214   29.1084   46.3207 H   0  0  0  0  0  0  0  0  0  0  0  0
   56.6807   27.8978   46.6795 H   0  0  0  0  0  0  0  0  0  0  0  0
   58.5110   26.8523   44.6895 H   0  0  0  0  0  0  0  0  0  0  0  0
   56.7413   26.7829   44.1826 H   0  0  0  0  0  0  0  0  0  0  0  0
   59.1369   29.2284   45.8103 H   0  0  0  0  0  0  0  0  0  0  0  0
   59.2145   31.6211   45.1168 H   0  0  0  0  0  0  0  0  0  0  0  0
   57.6446   32.4755   43.3733 H   0  0  0  0  0  0  0  0  0  0  0  0
   56.0121   30.9217   42.2955 H   0  0  0  0  0  0  0  0  0  0  0  0
   55.9415   28.5199   42.9675 H   0  0  0  0  0  0  0  0  0  0  0  0
   58.7820   27.6457   49.6530 H   0  0  0  0  0  0  0  0  0  0  0  0
   59.3406   29.4736   53.2928 H   0  0  0  0  0  0  0  0  0  0  0  0
   59.2015   27.9826   52.3007 H   0  0  0  0  0  0  0  0  0  0  0  0
   60.7327   28.9218   52.3007 H   0  0  0  0  0  0  0  0  0  0  0  0
   57.9954   31.3628   53.7790 H   0  0  0  0  0  0  0  0  0  0  0  0
   59.2194   32.2960   52.8529 H   0  0  0  0  0  0  0  0  0  0  0  0
   57.5014   32.8205   52.8529 H   0  0  0  0  0  0  0  0  0  0  0  0
   60.7658   31.4816   49.9200 H   0  0  0  0  0  0  0  0  0  0  0  0
   57.6421   32.5821   47.9990 H   0  0  0  0  0  0  0  0  0  0  0  0
   55.9731   33.1853   46.2455 H   0  0  0  0  0  0  0  0  0  0  0  0
   56.6720   34.5248   44.2605 H   0  0  0  0  0  0  0  0  0  0  0  0
   59.0421   35.2668   44.0257 H   0  0  0  0  0  0  0  0  0  0  0  0
   60.7164   34.6816   45.7766 H   0  0  0  0  0  0  0  0  0  0  0  0
  1  2  1  0
  2  3  1  0
  3  4  1  0
  4  5  2  0
  4  6  1  0
  6  7  2  0
  7  8  1  0
  8  9  1  0
  9 10  2  0
  9 11  1  0
 11 12  1  0
 12 13  1  0
 13 14  1  0
 14 15  2  0
 15 16  1  0
 16 17  2  0
 17 18  1  0
 18 19  2  0
 12 20  1  0
 20 21  2  0
 20 22  1  0
  8 23  2  0
 23 24  1  0
 24 25  1  0
 25 26  1  0
 25 27  1  0
 27 28  1  0
 27 29  2  0
 27 30  2  0
 24 31  2  0
  2 32  1  0
 32 33  2  0
 33 34  1  0
 34 35  2  0
 35 36  1  0
 36 37  2  0
 31  6  1  0
 37 32  1  0
 19 14  1  0
  1 38  1  0
  1 39  1  0
  1 40  1  0
  2 41  1  1
  7 42  1  0
 12 43  1  1
 13 44  1  0
 13 45  1  0
 15 46  1  0
 16 47  1  0
 17 48  1  0
 18 49  1  0
 19 50  1  0
 23 51  1  0
 26 52  1  0
 26 53  1  0
 26 54  1  0
 28 55  1  0
 28 56  1  0
 28 57  1  0
 31 58  1  0
 33 59  1  0
 34 60  1  0
 35 61  1  0
 36 62  1  0
 37 63  1  0
M  CHG  3   3  -1  11  -1  22  -1
M  END
>  <UniqueID>  (14) 
13

>  <SMILES>  (14) 
C[C@H]([N-]C(=O)c1cc(C(=O)[N-][C@@H](Cc2ccccc2)C(=O)[O-])cc(N(C)S(C)(=O)=O)c1)c1ccccc1

>  <Energy>  (14) 
72.68748027697525

>  <Genealogy>  (14) 
CC([N-]C(=O)c1cc(C(=O)[N-]C(Cc2ccccc2)C(=O)[O-])cc(N(C)S(C)(=O)=O)c1)c1ccccc1 (protonated)
C[C@H]([N-]C(=O)c1cc(C(=O)[N-][C@@H](Cc2ccccc2)C(=O)[O-])cc(N(C)S(C)(=O)=O)c1)c1ccccc1 (chirality)
C[C@H]([N-]C(=O)c1cc(C(=O)[N-][C@@H](Cc2ccccc2)C(=O)[O-])cc(N(C)S(C)(=O)=O)c1)c1ccccc1 (3D coordinates assigned)
C[C@H]([N-]C(=O)c1cc(C(=O)[N-][C@@H](Cc2ccccc2)C(=O)[O-])cc(N(C)S(C)(=O)=O)c1)c1ccccc1 (optimized conformer: 72.68748027697525 kcal/mol)

>  <smiles>  (14) 
CC(NC(=O)c1cc(C(=O)NC(Cc2ccccc2)C(=O)O)cc(N(C)S(C)(=O)=O)c1)c1ccccc1

>  <score_type>  (14) 
oracle

>  <origin>  (14) 
adg

>  <m_score__min__energy>  (14) 
-15.869999999999999

>  <m_primary>  (14) 
energy

$$$$
14:0
     RDKit          3D

 44 46  0  0  0  0  0  0  0  0999 V2000
   54.8130   26.3330   46.0020 N   0  0  0  0  0  0  0  0  0  0  0  0
   56.3570   25.6180   46.3050 S   0  0  0  0  0  0  0  0  0  0  0  0
   56.2780   24.7460   47.5260 O   0  0  0  0  0  0  0  0  0  0  0  0
   56.7570   24.7690   45.1300 O   0  0  0  0  0  0  0  0  0  0  0  0
   57.5490   26.8880   46.5570 C   0  0  0  0  0  0  0  0  0  0  0  0
   57.4970   28.0650   45.7980 C   0  0  0  0  0  0  0  0  0  0  0  0
   58.4310   29.0810   46.0140 C   0  0  0  0  0  0  0  0  0  0  0  0
   59.4220   28.9300   46.9880 C   0  0  0  0  0  0  0  0  0  0  0  0
   59.4900   27.7510   47.7480 C   0  0  0  0  0  0  0  0  0  0  0  0
   60.5270   27.6030   48.8230 C   0  0  0  0  0  0  0  0  0  0  0  0
   59.9910   28.1080   50.0810 N   0  0  0  0  0  0  0  0  0  0  0  0
   59.3880   29.3950   50.2670 C   0  0  0  0  0  0  0  0  0  0  0  0
   58.2970   29.4620   50.8920 O   0  0  0  0  0  0  0  0  0  0  0  0
   60.0010   30.6390   49.7540 C   0  0  0  0  0  0  0  0  0  0  0  0
   61.5780   30.7690   49.1830 S   0  0  0  0  0  0  0  0  0  0  0  0
   61.3950   32.3590   48.6890 C   0  0  0  0  0  0  0  0  0  0  0  0
   62.6020   33.2190   47.9880 S   0  0  0  0  0  0  0  0  0  0  0  0
   60.1380   32.8240   48.9340 N   0  0  0  0  0  0  0  0  0  0  0  0
   59.6990   34.1870   48.5930 C   0  0  0  0  0  0  0  0  0  0  0  0
   59.0070   34.2060   47.2520 C   0  0  0  0  0  0  0  0  0  0  0  0
   59.5570   34.9260   46.1770 C   0  0  0  0  0  0  0  0  0  0  0  0
   58.9110   34.9450   44.9370 C   0  0  0  0  0  0  0  0  0  0  0  0
   57.7140   34.2450   44.7590 C   0  0  0  0  0  0  0  0  0  0  0  0
   57.1620   33.5250   45.8210 C   0  0  0  0  0  0  0  0  0  0  0  0
   57.8050   33.5030   47.0620 C   0  0  0  0  0  0  0  0  0  0  0  0
   59.3520   31.8590   49.5190 C   0  0  0  0  0  0  0  0  0  0  0  0
   57.9860   32.0830   49.9000 N   0  0  0  0  0  0  0  0  0  0  0  0
   58.5390   26.7390   47.5390 C   0  0  0  0  0  0  0  0  0  0  0  0
   54.6810   27.0850   46.7150 H   0  0  0  0  0  0  0  0  0  0  0  0
   56.7189   28.1890   45.0304 H   0  0  0  0  0  0  0  0  0  0  0  0
   58.3864   30.0029   45.4156 H   0  0  0  0  0  0  0  0  0  0  0  0
   60.1502   29.7364   47.1596 H   0  0  0  0  0  0  0  0  0  0  0  0
   60.7907   26.5410   48.9357 H   0  0  0  0  0  0  0  0  0  0  0  0
   61.4262   28.1744   48.5493 H   0  0  0  0  0  0  0  0  0  0  0  0
   59.0012   34.5449   49.3643 H   0  0  0  0  0  0  0  0  0  0  0  0
   60.5824   34.8406   48.5438 H   0  0  0  0  0  0  0  0  0  0  0  0
   60.4996   35.4768   46.3119 H   0  0  0  0  0  0  0  0  0  0  0  0
   59.3454   35.5117   44.1002 H   0  0  0  0  0  0  0  0  0  0  0  0
   57.2071   34.2612   43.7829 H   0  0  0  0  0  0  0  0  0  0  0  0
   56.2200   32.9746   45.6806 H   0  0  0  0  0  0  0  0  0  0  0  0
   57.3677   32.9323   47.8945 H   0  0  0  0  0  0  0  0  0  0  0  0
   57.4020   32.8360   49.4800 H   0  0  0  0  0  0  0  0  0  0  0  0
   57.5260   31.4820   50.6180 H   0  0  0  0  0  0  0  0  0  0  0  0
   58.5708   25.8242   48.1491 H   0  0  0  0  0  0  0  0  0  0  0  0
  1  2  1  0
  2  3  2  0
  2  4  2  0
  2  5  1  0
  5  6  2  0
  6  7  1  0
  7  8  2  0
  8  9  1  0
  9 10  1  0
 10 11  1  0
 11 12  1  0
 12 13  2  0
 12 14  1  0
 14 15  1  0
 15 16  1  0
 16 17  2  0
 16 18  1  0
 18 19  1  0
 19 20  1  0
 20 21  2  0
 21 22  1  0
 22 23  2  0
 23 24  1  0
 24 25  2  0
 18 26  1  0
 26 27  1  0
  9 28  2  0
 28  5  1  0
 26 14  2  0
 25 20  1  0
  1 29  1  0
  6 30  1  0
  7 31  1  0
  8 32  1  0
 10 33  1  0
 10 34  1  0
 19 35  1  0
 19 36  1  0
 21 37  1  0
 22 38  1  0
 23 39  1  0
 24 40  1  0
 25 41  1  0
 27 42  1  0
 27 43  1  0
 28 44  1  0
M  CHG  2   1  -1  11  -1
M  END
>  <UniqueID>  (15) 
14

>  <SMILES>  (15) 
[NH-]S(=O)(=O)c1cccc(C[N-]C(=O)c2sc(=S)n(Cc3ccccc3)c2N)c1

>  <Energy>  (15) 
81.27451669351947

>  <Genealogy>  (15) 
[NH-]S(=O)(=O)c1cccc(C[N-]C(=O)c2sc(=S)n(Cc3ccccc3)c2N)c1 (protonated)
[NH-]S(=O)(=O)c1cccc(C[N-]C(=O)c2sc(=S)n(Cc3ccccc3)c2N)c1 (3D coordinates assigned)
[NH-]S(=O)(=O)c1cccc(C[N-]C(=O)c2sc(=S)n(Cc3ccccc3)c2N)c1 (optimized conformer: 81.27451669351947 kcal/mol)

>  <smiles>  (15) 
Nc1c(C(=O)NCc2cccc(S(N)(=O)=O)c2)sc(=S)n1Cc1ccccc1

>  <score_type>  (15) 
oracle

>  <origin>  (15) 
adg

>  <m_score__min__energy>  (15) 
-12.81

>  <m_primary>  (15) 
energy

$$$$
15:0
     RDKit          3D

 49 50  0  0  0  0  0  0  0  0999 V2000
   59.5130   33.5980   52.3940 C   0  0  0  0  0  0  0  0  0  0  0  0
   60.2810   33.7470   51.0780 C   0  0  0  0  0  0  0  0  0  0  0  0
   60.5020   32.4370   50.2850 C   0  0  2  0  0  0  0  0  0  0  0  0
   61.5620   32.5570   49.2010 C   0  0  0  0  0  0  0  0  0  0  0  0
   62.0030   31.4360   48.4670 C   0  0  0  0  0  0  0  0  0  0  0  0
   62.9860   31.5750   47.4830 C   0  0  0  0  0  0  0  0  0  0  0  0
   63.5310   32.8310   47.2100 C   0  0  0  0  0  0  0  0  0  0  0  0
   63.0920   33.9520   47.9160 C   0  0  0  0  0  0  0  0  0  0  0  0
   62.1110   33.8180   48.9040 C   0  0  0  0  0  0  0  0  0  0  0  0
   58.9690   31.6990   49.6900 S   0  0  0  0  0  0  0  0  0  0  0  0
   57.7750   32.2660   50.4040 O   0  0  0  0  0  0  0  0  0  0  0  0
   59.0010   30.2170   49.9320 O   0  0  0  0  0  0  0  0  0  0  0  0
   58.8250   31.9980   47.9530 C   0  0  0  0  0  0  0  0  0  0  0  0
   58.8740   33.3120   47.4700 C   0  0  0  0  0  0  0  0  0  0  0  0
   58.8420   33.5680   46.0940 C   0  0  0  0  0  0  0  0  0  0  0  0
   58.9040   34.9820   45.5880 C   0  0  0  0  0  0  0  0  0  0  0  0
   58.7140   32.4990   45.1930 C   0  0  0  0  0  0  0  0  0  0  0  0
   58.6430   32.7490   43.8250 O   0  0  0  0  0  0  0  0  0  0  0  0
   58.6440   31.1770   45.6640 C   0  0  0  0  0  0  0  0  0  0  0  0
   58.4920   30.1060   44.7180 N   0  0  0  0  0  0  0  0  0  0  0  0
   57.2080   29.7020   44.2160 C   0  0  0  0  0  0  0  0  0  0  0  0
   56.1820   30.3740   44.5020 O   0  0  0  0  0  0  0  0  0  0  0  0
   57.0820   28.5820   43.3280 N   0  0  0  0  0  0  0  0  0  0  0  0
   57.9770   27.4600   43.2870 C   0  0  0  0  0  0  0  0  0  0  0  0
   58.8120   27.0620   44.4670 C   0  0  0  0  0  0  0  0  0  0  0  0
   58.0420   26.7670   42.2370 O   0  0  0  0  0  0  0  0  0  0  0  0
   58.7380   30.9220   47.0520 C   0  0  0  0  0  0  0  0  0  0  0  0
   58.7790   29.6170   47.5490 O   0  0  0  0  0  0  0  0  0  0  0  0
   60.2042   33.7321   53.2391 H   0  0  0  0  0  0  0  0  0  0  0  0
   58.7204   34.3591   52.4442 H   0  0  0  0  0  0  0  0  0  0  0  0
   59.0626   32.5957   52.4442 H   0  0  0  0  0  0  0  0  0  0  0  0
   59.7208   34.4421   50.4353 H   0  0  0  0  0  0  0  0  0  0  0  0
   61.2835   34.1075   51.3520 H   0  0  0  0  0  0  0  0  0  0  0  0
   60.9110   31.7248   51.0168 H   0  0  0  0  0  0  0  0  0  0  0  0
   61.5702   30.4454   48.6704 H   0  0  0  0  0  0  0  0  0  0  0  0
   63.3307   30.6933   46.9228 H   0  0  0  0  0  0  0  0  0  0  0  0
   64.3071   32.9372   46.4377 H   0  0  0  0  0  0  0  0  0  0  0  0
   63.5179   34.9419   47.6952 H   0  0  0  0  0  0  0  0  0  0  0  0
   61.7657   34.7061   49.4535 H   0  0  0  0  0  0  0  0  0  0  0  0
   58.9382   34.1508   48.1787 H   0  0  0  0  0  0  0  0  0  0  0  0
   58.9344   35.6757   46.4411 H   0  0  0  0  0  0  0  0  0  0  0  0
   59.8088   35.1132   44.9763 H   0  0  0  0  0  0  0  0  0  0  0  0
   58.0142   35.1919   44.9763 H   0  0  0  0  0  0  0  0  0  0  0  0
   59.3400   29.7900   44.1980 H   0  0  0  0  0  0  0  0  0  0  0  0
   56.2690   28.5740   42.6730 H   0  0  0  0  0  0  0  0  0  0  0  0
   58.2794   27.3159   45.3954 H   0  0  0  0  0  0  0  0  0  0  0  0
   58.9982   25.9783   44.4357 H   0  0  0  0  0  0  0  0  0  0  0  0
   59.7710   27.5998   44.4357 H   0  0  0  0  0  0  0  0  0  0  0  0
   58.9880   29.4020   48.5140 H   0  0  0  0  0  0  0  0  0  0  0  0
  1  2  1  0
  2  3  1  0
  3  4  1  0
  4  5  2  0
  5  6  1  0
  6  7  2  0
  7  8  1  0
  8  9  2  0
  3 10  1  0
 10 11  2  0
 10 12  2  0
 10 13  1  0
 13 14  2  0
 14 15  1  0
 15 16  1  0
 15 17  2  0
 17 18  1  0
 17 19  1  0
 19 20  1  0
 20 21  1  0
 21 22  2  0
 21 23  1  0
 23 24  1  0
 24 25  1  0
 24 26  2  0
 19 27  2  0
 27 28  1  0
  9  4  1  0
 27 13  1  0
  1 29  1  0
  1 30  1  0
  1 31  1  0
  2 32  1  0
  2 33  1  0
  3 34  1  1
  5 35  1  0
  6 36  1  0
  7 37  1  0
  8 38  1  0
  9 39  1  0
 14 40  1  0
 16 41  1  0
 16 42  1  0
 16 43  1  0
 20 44  1  0
 23 45  1  0
 25 46  1  0
 25 47  1  0
 25 48  1  0
 28 49  1  0
M  CHG  1  18  -1
M  END
>  <UniqueID>  (16) 
15

>  <SMILES>  (16) 
CC[C@H](c1ccccc1)S(=O)(=O)c1cc(C)c([O-])c(NC(=O)NC(C)=O)c1O

>  <Energy>  (16) 
53.88973349744013

>  <Genealogy>  (16) 
CCC(c1ccccc1)S(=O)(=O)c1cc(C)c([O-])c(NC(=O)NC(C)=O)c1O (protonated)
CC[C@H](c1ccccc1)S(=O)(=O)c1cc(C)c([O-])c(NC(=O)NC(C)=O)c1O (chirality)
CC[C@H](c1ccccc1)S(=O)(=O)c1cc(C)c([O-])c(NC(=O)NC(C)=O)c1O (3D coordinates assigned)
CC[C@H](c1ccccc1)S(=O)(=O)c1cc(C)c([O-])c(NC(=O)NC(C)=O)c1O (optimized conformer: 53.88973349744013 kcal/mol)

>  <smiles>  (16) 
CCC(c1ccccc1)S(=O)(=O)c1cc(C)c(O)c(NC(=O)NC(C)=O)c1O

>  <score_type>  (16) 
oracle

>  <origin>  (16) 
adg

>  <m_score__min__energy>  (16) 
-10.74

>  <m_primary>  (16) 
energy

$$$$
16:0
     RDKit          3D

 33 34  0  0  0  0  0  0  0  0999 V2000
   54.8970   26.3420   45.9910 N   0  0  0  0  0  0  0  0  0  0  0  0
   56.5920   26.0030   46.0170 S   0  0  0  0  0  0  0  0  0  0  0  0
   56.8730   24.8130   45.1430 O   0  0  0  0  0  0  0  0  0  0  0  0
   57.0190   25.6810   47.4210 O   0  0  0  0  0  0  0  0  0  0  0  0
   57.4830   27.4040   45.4320 C   0  0  0  0  0  0  0  0  0  0  0  0
   58.8000   27.2680   44.9750 C   0  0  0  0  0  0  0  0  0  0  0  0
   59.5040   28.3860   44.5200 C   0  0  0  0  0  0  0  0  0  0  0  0
   58.8900   29.6410   44.5010 C   0  0  0  0  0  0  0  0  0  0  0  0
   57.5550   29.7810   44.9140 C   0  0  0  0  0  0  0  0  0  0  0  0
   56.8940   31.0540   44.9050 N   0  0  0  0  0  0  0  0  0  0  0  0
   57.4310   32.3110   45.3400 C   0  0  0  0  0  0  0  0  0  0  0  0
   56.6530   33.1520   45.8630 O   0  0  0  0  0  0  0  0  0  0  0  0
   58.8790   32.6750   45.1700 C   0  0  0  0  0  0  0  0  0  0  0  0
   59.4420   33.0530   46.4230 O   0  0  0  0  0  0  0  0  0  0  0  0
   60.7980   32.9200   46.7600 C   0  0  0  0  0  0  0  0  0  0  0  0
   61.7500   33.9070   46.4370 C   0  0  0  0  0  0  0  0  0  0  0  0
   63.0900   33.7370   46.7970 C   0  0  0  0  0  0  0  0  0  0  0  0
   63.4930   32.5870   47.4780 C   0  0  0  0  0  0  0  0  0  0  0  0
   62.5570   31.6040   47.8010 C   0  0  0  0  0  0  0  0  0  0  0  0
   61.2130   31.7660   47.4440 C   0  0  0  0  0  0  0  0  0  0  0  0
   59.9540   30.4020   47.9060 Br  0  0  0  0  0  0  0  0  0  0  0  0
   56.8670   28.6630   45.4030 C   0  0  0  0  0  0  0  0  0  0  0  0
   54.7240   27.0830   46.7070 H   0  0  0  0  0  0  0  0  0  0  0  0
   59.2812   26.2788   44.9743 H   0  0  0  0  0  0  0  0  0  0  0  0
   60.5433   28.2779   44.1762 H   0  0  0  0  0  0  0  0  0  0  0  0
   59.4541   30.5222   44.1615 H   0  0  0  0  0  0  0  0  0  0  0  0
   59.4272   31.8083   44.7721 H   0  0  0  0  0  0  0  0  0  0  0  0
   58.9566   33.5215   44.4718 H   0  0  0  0  0  0  0  0  0  0  0  0
   61.4378   34.8146   45.8996 H   0  0  0  0  0  0  0  0  0  0  0  0
   63.8288   34.5114   46.5430 H   0  0  0  0  0  0  0  0  0  0  0  0
   64.5481   32.4558   47.7599 H   0  0  0  0  0  0  0  0  0  0  0  0
   62.8762   30.6986   48.3380 H   0  0  0  0  0  0  0  0  0  0  0  0
   55.8350   28.7739   45.7672 H   0  0  0  0  0  0  0  0  0  0  0  0
  1  2  1  0
  2  3  2  0
  2  4  2  0
  2  5  1  0
  5  6  2  0
  6  7  1  0
  7  8  2  0
  8  9  1  0
  9 10  1  0
 10 11  1  0
 11 12  2  0
 11 13  1  0
 13 14  1  0
 14 15  1  0
 15 16  2  0
 16 17  1  0
 17 18  2  0
 18 19  1  0
 19 20  2  0
 20 21  1  0
  9 22  2  0
 22  5  1  0
 20 15  1  0
  1 23  1  0
  6 24  1  0
  7 25  1  0
  8 26  1  0
 13 27  1  0
 13 28  1  0
 16 29  1  0
 17 30  1  0
 18 31  1  0
 19 32  1  0
 22 33  1  0
M  CHG  2   1  -1  10  -1
M  END
>  <UniqueID>  (17) 
16

>  <SMILES>  (17) 
[NH-]S(=O)(=O)c1cccc([N-]C(=O)COc2ccccc2Br)c1

>  <Energy>  (17) 
35.25616398023383

>  <Genealogy>  (17) 
[NH-]S(=O)(=O)c1cccc([N-]C(=O)COc2ccccc2Br)c1 (protonated)
[NH-]S(=O)(=O)c1cccc([N-]C(=O)COc2ccccc2Br)c1 (3D coordinates assigned)
[NH-]S(=O)(=O)c1cccc([N-]C(=O)COc2ccccc2Br)c1 (optimized conformer: 35.25616398023383 kcal/mol)

>  <smiles>  (17) 
NS(=O)(=O)c1cccc(NC(=O)COc2ccccc2Br)c1

>  <score_type>  (17) 
oracle

>  <origin>  (17) 
adg

>  <m_score__min__energy>  (17) 
-11.77

>  <m_primary>  (17) 
energy

$$$$
17:0
     RDKit          3D

 60 63  0  0  0  0  0  0  0  0999 V2000
   60.5883   35.9939   47.0339 H   0  0  0  0  0  0  0  0  0  0  0  0
   59.8000   35.3180   46.6710 C   0  0  0  0  0  0  0  0  0  0  0  0
   59.0400   34.5770   47.5810 C   0  0  0  0  0  0  0  0  0  0  0  0
   59.2327   34.6689   48.6601 H   0  0  0  0  0  0  0  0  0  0  0  0
   58.0350   33.7190   47.1220 C   0  0  0  0  0  0  0  0  0  0  0  0
   57.4416   33.1355   47.8414 H   0  0  0  0  0  0  0  0  0  0  0  0
   57.7810   33.6000   45.7460 C   0  0  0  0  0  0  0  0  0  0  0  0
   56.6810   32.6970   45.2470 C   0  0  0  0  0  0  0  0  0  0  0  0
   56.1666   33.1857   44.4064 H   0  0  0  0  0  0  0  0  0  0  0  0
   55.9763   32.5110   46.0709 H   0  0  0  0  0  0  0  0  0  0  0  0
   59.3490   30.0290   48.6180 N   0  0  0  0  0  0  0  0  0  0  0  0
   58.6840   29.7330   47.5400 C   0  0  0  0  0  0  0  0  0  0  0  0
   57.2850   29.1520   45.2870 N   0  0  0  0  0  0  0  0  0  0  0  0
   57.6810   28.1440   46.1070 C   0  0  0  0  0  0  0  0  0  0  0  0
   57.3560   26.7740   45.7860 N   0  0  0  0  0  0  0  0  0  0  0  0
   56.5890   25.9630   46.7410 C   0  0  0  0  0  0  0  0  0  0  0  0
   56.3233   26.5820   47.6106 H   0  0  0  0  0  0  0  0  0  0  0  0
   55.6782   25.5954   46.2457 H   0  0  0  0  0  0  0  0  0  0  0  0
   57.4190   24.7610   47.2110 C   0  0  0  0  0  0  0  0  0  0  0  0
   58.4793   25.0538   47.2200 H   0  0  0  0  0  0  0  0  0  0  0  0
   57.0495   24.4874   48.2103 H   0  0  0  0  0  0  0  0  0  0  0  0
   57.2730   23.5640   46.3550 N   0  0  0  0  0  0  0  0  0  0  0  0
   55.9330   22.9500   46.4170 C   0  0  0  0  0  0  0  0  0  0  0  0
   55.6396   22.8156   47.4686 H   0  0  0  0  0  0  0  0  0  0  0  0
   55.2060   23.6048   45.9143 H   0  0  0  0  0  0  0  0  0  0  0  0
   55.9543   21.9718   45.9143 H   0  0  0  0  0  0  0  0  0  0  0  0
   57.8260   23.6880   44.9900 C   0  0  0  0  0  0  0  0  0  0  0  0
   58.9118   23.8438   45.0722 H   0  0  0  0  0  0  0  0  0  0  0  0
   57.5631   22.7602   44.4608 H   0  0  0  0  0  0  0  0  0  0  0  0
   57.2340   24.8480   44.1620 C   0  0  0  0  0  0  0  0  0  0  0  0
   57.4179   24.6484   43.0960 H   0  0  0  0  0  0  0  0  0  0  0  0
   56.1587   24.9009   44.3878 H   0  0  0  0  0  0  0  0  0  0  0  0
   57.8480   26.2070   44.5190 C   0  0  0  0  0  0  0  0  0  0  0  0
   58.9384   26.0841   44.5957 H   0  0  0  0  0  0  0  0  0  0  0  0
   57.5547   26.9070   43.7227 H   0  0  0  0  0  0  0  0  0  0  0  0
   58.3880   28.4420   47.2300 N   0  0  0  0  0  0  0  0  0  0  0  0
   57.5860   30.4460   45.5830 C   0  0  0  0  0  0  0  0  0  0  0  0
   57.2250   31.4160   44.7970 N   0  0  0  0  0  0  0  0  0  0  0  0
   60.8070   30.0050   48.7430 C   0  0  0  0  0  0  0  0  0  0  0  0
   61.0712   29.6897   49.7632 H   0  0  0  0  0  0  0  0  0  0  0  0
   61.2014   29.3011   47.9954 H   0  0  0  0  0  0  0  0  0  0  0  0
   61.4210   31.3670   48.4760 C   0  0  0  0  0  0  0  0  0  0  0  0
   62.3370   31.4720   47.4120 C   0  0  0  0  0  0  0  0  0  0  0  0
   62.5449   30.5913   46.7866 H   0  0  0  0  0  0  0  0  0  0  0  0
   62.9840   32.6760   47.1400 C   0  0  0  0  0  0  0  0  0  0  0  0
   63.6989   32.7397   46.3064 H   0  0  0  0  0  0  0  0  0  0  0  0
   62.7260   33.7990   47.9230 C   0  0  0  0  0  0  0  0  0  0  0  0
   63.2496   34.7442   47.7168 H   0  0  0  0  0  0  0  0  0  0  0  0
   61.8050   33.7270   48.9680 C   0  0  0  0  0  0  0  0  0  0  0  0
   61.6161   34.6174   49.5857 H   0  0  0  0  0  0  0  0  0  0  0  0
   61.1120   32.5300   49.2450 C   0  0  0  0  0  0  0  0  0  0  0  0
   60.1360   32.5130   50.4090 C   0  0  0  0  0  0  0  0  0  0  0  0
   60.1630   33.7120   51.1000 F   0  0  0  0  0  0  0  0  0  0  0  0
   58.8390   32.3210   49.9720 F   0  0  0  0  0  0  0  0  0  0  0  0
   60.4800   31.5000   51.2830 F   0  0  0  0  0  0  0  0  0  0  0  0
   58.2800   30.7300   46.7140 N   0  0  0  0  0  0  0  0  0  0  0  0
   58.5530   34.3410   44.8360 C   0  0  0  0  0  0  0  0  0  0  0  0
   58.3678   34.2466   43.7558 H   0  0  0  0  0  0  0  0  0  0  0  0
   59.5570   35.1990   45.2990 C   0  0  0  0  0  0  0  0  0  0  0  0
   60.1559   35.7806   44.5827 H   0  0  0  0  0  0  0  0  0  0  0  0
  1  2  1  0
  2  3  2  0
  3  4  1  0
  3  5  1  0
  5  6  1  0
  5  7  2  0
  7  8  1  0
  8  9  1  0
  8 10  1  0
  8 11  1  0
 11 12  2  0
 12 13  1  0
 13 14  1  0
 14 15  1  0
 15 16  1  0
 16 17  1  0
 16 18  1  0
 16 19  1  0
 19 20  1  0
 19 21  1  0
 19 22  1  0
 22 23  1  0
 23 24  1  0
 23 25  1  0
 23 26  1  0
 22 27  1  0
 27 28  1  0
 27 29  1  0
 27 30  1  0
 30 31  1  0
 30 32  1  0
 30 33  1  0
 33 34  1  0
 33 35  1  0
 14 36  2  0
 36 37  1  0
 37 38  2  0
 38 39  1  0
 39 40  1  0
 39 41  1  0
 39 42  1  0
 42 43  2  0
 43 44  1  0
 43 45  1  0
 45 46  1  0
 45 47  2  0
 47 48  1  0
 47 49  1  0
 49 50  1  0
 49 51  2  0
 51 52  1  0
 52 53  1  0
 52 54  1  0
 52 55  1  0
 37 56  1  0
  7 57  1  0
 57 58  1  0
 57 59  2  0
 59 60  1  0
 59  2  1  0
 56 12  1  0
 33 15  1  0
 51 42  1  0
M  CHG  2  13  -1  56  -1
M  END
>  <UniqueID>  (18) 
17

>  <SMILES>  (18) 
CN1CCCN(c2n/c(=N\Cc3ccccc3C(F)(F)F)[n-]/c(=N/Cc3ccccc3)[n-]2)CC1

>  <Energy>  (18) 
72.83208159174401

>  <Genealogy>  (18) 
CN1CCCN(c2nc(=NCc3ccccc3C(F)(F)F)[n-]c(=NCc3ccccc3)[n-]2)CC1 (protonated)
CN1CCCN(c2n/c(=N\Cc3ccccc3C(F)(F)F)[n-]/c(=N/Cc3ccccc3)[n-]2)CC1 (cis-trans isomerization)
CN1CCCN(c2n/c(=N\Cc3ccccc3C(F)(F)F)[n-]/c(=N/Cc3ccccc3)[n-]2)CC1 (3D coordinates assigned)
CN1CCCN(c2n/c(=N\Cc3ccccc3C(F)(F)F)[n-]/c(=N/Cc3ccccc3)[n-]2)CC1 (nonaromatic ring conformer: 72.83208159174401 kcal/mol)

>  <smiles>  (18) 
CN1CCCN(c2nc(=NCc3ccccc3C(F)(F)F)[nH]c(=NCc3ccccc3)[nH]2)CC1

>  <score_type>  (18) 
oracle

>  <origin>  (18) 
adg

>  <m_score__min__energy>  (18) 
-9.0199999999999996

>  <m_primary>  (18) 
energy

$$$$
18:0
     RDKit          3D

 54 56  0  0  0  0  0  0  0  0999 V2000
   57.5270   20.0150   46.6730 C   0  0  0  0  0  0  0  0  0  0  0  0
   57.6690   21.4320   46.6610 O   0  0  0  0  0  0  0  0  0  0  0  0
   57.0580   22.2840   45.7280 C   0  0  0  0  0  0  0  0  0  0  0  0
   55.9760   23.1190   46.0690 C   0  0  0  0  0  0  0  0  0  0  0  0
   55.3910   23.9580   45.1080 C   0  0  0  0  0  0  0  0  0  0  0  0
   54.2570   24.8680   45.4940 C   0  0  0  0  0  0  0  0  0  0  0  0
   54.7720   26.1460   45.9730 N   0  0  0  0  0  0  0  0  0  0  0  0
   56.0960   26.3280   46.4830 C   0  0  0  0  0  0  0  0  0  0  0  0
   56.5530   25.5550   47.3680 O   0  0  0  0  0  0  0  0  0  0  0  0
   56.9610   27.4020   45.9140 C   0  0  0  0  0  0  0  0  0  0  0  0
   56.1330   28.3240   45.2140 O   0  0  0  0  0  0  0  0  0  0  0  0
   56.5940   29.3710   44.4020 C   0  0  0  0  0  0  0  0  0  0  0  0
   56.2470   29.4640   43.0400 C   0  0  0  0  0  0  0  0  0  0  0  0
   56.6610   30.5610   42.2810 C   0  0  0  0  0  0  0  0  0  0  0  0
   57.4170   31.5770   42.8710 C   0  0  0  0  0  0  0  0  0  0  0  0
   57.7800   31.4870   44.2160 C   0  0  0  0  0  0  0  0  0  0  0  0
   57.4030   30.3750   44.9790 C   0  0  0  0  0  0  0  0  0  0  0  0
   57.8000   30.3150   46.3570 N   0  0  0  0  0  0  0  0  0  0  0  0
   59.1550   30.1940   46.8030 C   0  0  0  0  0  0  0  0  0  0  0  0
   60.0310   29.6840   46.0510 O   0  0  0  0  0  0  0  0  0  0  0  0
   59.5120   30.6730   48.1000 N   0  0  0  0  0  0  0  0  0  0  0  0
   59.8580   32.0660   48.3530 C   0  0  0  0  0  0  0  0  0  0  0  0
   59.2990   32.9330   47.2620 C   0  0  0  0  0  0  0  0  0  0  0  0
   57.9170   33.1820   47.1840 C   0  0  0  0  0  0  0  0  0  0  0  0
   57.4040   33.9900   46.1650 C   0  0  0  0  0  0  0  0  0  0  0  0
   58.2640   34.5480   45.2130 C   0  0  0  0  0  0  0  0  0  0  0  0
   59.6380   34.2990   45.2800 C   0  0  0  0  0  0  0  0  0  0  0  0
   60.1560   33.4970   46.3010 C   0  0  0  0  0  0  0  0  0  0  0  0
   55.8980   23.9660   43.8000 C   0  0  0  0  0  0  0  0  0  0  0  0
   56.9710   23.1410   43.4560 C   0  0  0  0  0  0  0  0  0  0  0  0
   57.5510   22.2990   44.4150 C   0  0  0  0  0  0  0  0  0  0  0  0
   58.6210   21.4760   44.0700 O   0  0  0  0  0  0  0  0  0  0  0  0
   57.4913   19.6589   47.7131 H   0  0  0  0  0  0  0  0  0  0  0  0
   56.5963   19.7354   46.1576 H   0  0  0  0  0  0  0  0  0  0  0  0
   58.3837   19.5563   46.1576 H   0  0  0  0  0  0  0  0  0  0  0  0
   55.5861   23.1134   47.0976 H   0  0  0  0  0  0  0  0  0  0  0  0
   53.6163   25.0411   44.6168 H   0  0  0  0  0  0  0  0  0  0  0  0
   53.6759   24.3931   46.2982 H   0  0  0  0  0  0  0  0  0  0  0  0
   57.4907   27.9213   46.7262 H   0  0  0  0  0  0  0  0  0  0  0  0
   57.7028   26.9657   45.2290 H   0  0  0  0  0  0  0  0  0  0  0  0
   55.6474   28.6693   42.5721 H   0  0  0  0  0  0  0  0  0  0  0  0
   56.3913   30.6251   41.2165 H   0  0  0  0  0  0  0  0  0  0  0  0
   57.7264   32.4485   42.2753 H   0  0  0  0  0  0  0  0  0  0  0  0
   58.3658   32.2946   44.6793 H   0  0  0  0  0  0  0  0  0  0  0  0
   59.4361   32.3776   49.3199 H   0  0  0  0  0  0  0  0  0  0  0  0
   60.9528   32.1708   48.3764 H   0  0  0  0  0  0  0  0  0  0  0  0
   57.2375   32.7395   47.9273 H   0  0  0  0  0  0  0  0  0  0  0  0
   56.3231   34.1872   46.1117 H   0  0  0  0  0  0  0  0  0  0  0  0
   57.8589   35.1830   44.4113 H   0  0  0  0  0  0  0  0  0  0  0  0
   60.3124   34.7348   44.5282 H   0  0  0  0  0  0  0  0  0  0  0  0
   61.2382   33.3065   46.3526 H   0  0  0  0  0  0  0  0  0  0  0  0
   55.4486   24.6247   43.0423 H   0  0  0  0  0  0  0  0  0  0  0  0
   57.3627   23.1519   42.4282 H   0  0  0  0  0  0  0  0  0  0  0  0
   58.9690   20.7650   44.7030 H   0  0  0  0  0  0  0  0  0  0  0  0
  1  2  1  0
  2  3  1  0
  3  4  2  0
  4  5  1  0
  5  6  1  0
  6  7  1  0
  7  8  1  0
  8  9  2  0
  8 10  1  0
 10 11  1  0
 11 12  1  0
 12 13  2  0
 13 14  1  0
 14 15  2  0
 15 16  1  0
 16 17  2  0
 17 18  1  0
 18 19  1  0
 19 20  2  0
 19 21  1  0
 21 22  1  0
 22 23  1  0
 23 24  2  0
 24 25  1  0
 25 26  2  0
 26 27  1  0
 27 28  2  0
  5 29  2  0
 29 30  1  0
 30 31  2  0
 31 32  1  0
 31  3  1  0
 17 12  1  0
 28 23  1  0
  1 33  1  0
  1 34  1  0
  1 35  1  0
  4 36  1  0
  6 37  1  0
  6 38  1  0
 10 39  1  0
 10 40  1  0
 13 41  1  0
 14 42  1  0
 15 43  1  0
 16 44  1  0
 22 45  1  0
 22 46  1  0
 24 47  1  0
 25 48  1  0
 26 49  1  0
 27 50  1  0
 28 51  1  0
 29 52  1  0
 30 53  1  0
 32 54  1  0
M  CHG  3   7  -1  18  -1  21  -1
M  END
>  <UniqueID>  (19) 
18

>  <SMILES>  (19) 
COc1cc(C[N-]C(=O)COc2ccccc2[N-]C(=O)[N-]Cc2ccccc2)ccc1O

>  <Energy>  (19) 
52.811097357585666

>  <Genealogy>  (19) 
COc1cc(C[N-]C(=O)COc2ccccc2[N-]C(=O)[N-]Cc2ccccc2)ccc1O (protonated)
COc1cc(C[N-]C(=O)COc2ccccc2[N-]C(=O)[N-]Cc2ccccc2)ccc1O (3D coordinates assigned)
COc1cc(C[N-]C(=O)COc2ccccc2[N-]C(=O)[N-]Cc2ccccc2)ccc1O (optimized conformer: 52.811097357585666 kcal/mol)

>  <smiles>  (19) 
COc1cc(CNC(=O)COc2ccccc2NC(=O)NCc2ccccc2)ccc1O

>  <score_type>  (19) 
oracle

>  <origin>  (19) 
adg

>  <m_score__min__energy>  (19) 
-14.26

>  <m_primary>  (19) 
energy

$$$$
19:0
     RDKit          3D

 39 41  0  0  0  0  0  0  0  0999 V2000
   58.9180   31.9170   50.1400 C   0  0  0  0  0  0  0  0  0  0  0  0
   59.6370   33.4740   50.6170 S   0  0  0  0  0  0  0  0  0  0  0  0
   61.0560   33.2360   51.0510 O   0  0  0  0  0  0  0  0  0  0  0  0
   58.8750   34.0750   51.7650 O   0  0  0  0  0  0  0  0  0  0  0  0
   59.6440   34.5670   49.2710 N   0  0  0  0  0  0  0  0  0  0  0  0
   59.4410   34.2070   47.8970 C   0  0  0  0  0  0  0  0  0  0  0  0
   58.1540   33.8370   47.4870 C   0  0  0  0  0  0  0  0  0  0  0  0
   57.9070   33.4780   46.1590 C   0  0  0  0  0  0  0  0  0  0  0  0
   58.9520   33.4810   45.2160 C   0  0  0  0  0  0  0  0  0  0  0  0
   58.7620   33.1210   43.8720 O   0  0  0  0  0  0  0  0  0  0  0  0
   57.6200   32.4380   43.3560 C   0  0  0  0  0  0  0  0  0  0  0  0
   57.2850   31.2550   44.2140 C   0  0  0  0  0  0  0  0  0  0  0  0
   56.0790   31.0210   44.4990 O   0  0  0  0  0  0  0  0  0  0  0  0
   58.3320   30.4280   44.7420 N   0  0  0  0  0  0  0  0  0  0  0  0
   58.1280   29.0880   45.2200 C   0  0  0  0  0  0  0  0  0  0  0  0
   59.2140   28.3000   45.6940 C   0  0  0  0  0  0  0  0  0  0  0  0
   58.9960   27.0000   46.1850 C   0  0  0  0  0  0  0  0  0  0  0  0
   57.6890   26.5240   46.2030 C   0  0  0  0  0  0  0  0  0  0  0  0
   57.2570   25.3280   46.6300 N   0  0  0  0  0  0  0  0  0  0  0  0
   55.9180   25.4210   46.4250 C   0  0  0  0  0  0  0  0  0  0  0  0
   55.1260   24.4830   46.7040 O   0  0  0  0  0  0  0  0  0  0  0  0
   55.4920   26.5990   45.8990 N   0  0  0  0  0  0  0  0  0  0  0  0
   56.6410   27.2780   45.7680 C   0  0  0  0  0  0  0  0  0  0  0  0
   56.8160   28.5690   45.2770 C   0  0  0  0  0  0  0  0  0  0  0  0
   60.2360   33.8560   45.6270 C   0  0  0  0  0  0  0  0  0  0  0  0
   60.4840   34.2150   46.9550 C   0  0  0  0  0  0  0  0  0  0  0  0
   58.6534   31.3440   51.0409 H   0  0  0  0  0  0  0  0  0  0  0  0
   58.0127   32.0990   49.5422 H   0  0  0  0  0  0  0  0  0  0  0  0
   59.6436   31.3459   49.5422 H   0  0  0  0  0  0  0  0  0  0  0  0
   57.3306   33.8289   48.2163 H   0  0  0  0  0  0  0  0  0  0  0  0
   56.8911   33.1917   45.8493 H   0  0  0  0  0  0  0  0  0  0  0  0
   56.7629   33.1273   43.3388 H   0  0  0  0  0  0  0  0  0  0  0  0
   57.8445   32.0874   42.3378 H   0  0  0  0  0  0  0  0  0  0  0  0
   59.2910   30.8380   44.8160 H   0  0  0  0  0  0  0  0  0  0  0  0
   60.2340   28.7115   45.6763 H   0  0  0  0  0  0  0  0  0  0  0  0
   59.8314   26.3803   46.5429 H   0  0  0  0  0  0  0  0  0  0  0  0
   55.9561   29.1681   44.9428 H   0  0  0  0  0  0  0  0  0  0  0  0
   61.0590   33.8684   44.8972 H   0  0  0  0  0  0  0  0  0  0  0  0
   61.4992   34.5048   47.2639 H   0  0  0  0  0  0  0  0  0  0  0  0
  1  2  1  0
  2  3  2  0
  2  4  2  0
  2  5  1  0
  5  6  1  0
  6  7  2  0
  7  8  1  0
  8  9  2  0
  9 10  1  0
 10 11  1  0
 11 12  1  0
 12 13  2  0
 12 14  1  0
 14 15  1  0
 15 16  2  0
 16 17  1  0
 17 18  2  0
 18 19  1  0
 19 20  1  0
 20 21  2  0
 20 22  1  0
 22 23  1  0
 23 24  2  0
  9 25  1  0
 25 26  2  0
 26  6  1  0
 24 15  1  0
 23 18  1  0
  1 27  1  0
  1 28  1  0
  1 29  1  0
  7 30  1  0
  8 31  1  0
 11 32  1  0
 11 33  1  0
 14 34  1  0
 16 35  1  0
 17 36  1  0
 24 37  1  0
 25 38  1  0
 26 39  1  0
M  CHG  3   5  -1  19  -1  22  -1
M  END
>  <UniqueID>  (20) 
19

>  <SMILES>  (20) 
CS(=O)(=O)[N-]c1ccc(OCC(=O)Nc2ccc3[n-]c(=O)[n-]c3c2)cc1

>  <Energy>  (20) 
77.7423934864672

>  <Genealogy>  (20) 
CS(=O)(=O)[N-]c1ccc(OCC(=O)Nc2ccc3[n-]c(=O)[n-]c3c2)cc1 (protonated)
CS(=O)(=O)[N-]c1ccc(OCC(=O)Nc2ccc3[n-]c(=O)[n-]c3c2)cc1 (3D coordinates assigned)
CS(=O)(=O)[N-]c1ccc(OCC(=O)Nc2ccc3[n-]c(=O)[n-]c3c2)cc1 (optimized conformer: 77.7423934864672 kcal/mol)

>  <smiles>  (20) 
CS(=O)(=O)Nc1ccc(OCC(=O)Nc2ccc3[nH]c(=O)[nH]c3c2)cc1

>  <score_type>  (20) 
oracle

>  <origin>  (20) 
adg

>  <m_score__min__energy>  (20) 
-12.800000000000001

>  <m_primary>  (20) 
energy

$$$$
20:0
     RDKit          3D

 76 80  0  0  0  0  0  0  0  0999 V2000
   55.9190   21.2520   43.5190 H   0  0  0  0  0  0  0  0  0  0  0  0
   55.5750   22.2370   43.4530 N   0  0  0  0  0  0  0  0  0  0  0  0
   54.7870   22.5930   44.9520 S   0  0  0  0  0  0  0  0  0  0  0  0
   54.4580   21.3140   45.6710 O   0  0  0  0  0  0  0  0  0  0  0  0
   53.5160   23.3430   44.6590 O   0  0  0  0  0  0  0  0  0  0  0  0
   55.8410   23.5770   45.9650 C   0  0  0  0  0  0  0  0  0  0  0  0
   56.3310   23.0610   47.1710 C   0  0  0  0  0  0  0  0  0  0  0  0
   56.0626   22.0401   47.4805 H   0  0  0  0  0  0  0  0  0  0  0  0
   57.1590   23.8390   47.9810 C   0  0  0  0  0  0  0  0  0  0  0  0
   57.5369   23.4319   48.9305 H   0  0  0  0  0  0  0  0  0  0  0  0
   57.5090   25.1320   47.5900 C   0  0  0  0  0  0  0  0  0  0  0  0
   58.1667   25.7357   48.2326 H   0  0  0  0  0  0  0  0  0  0  0  0
   57.0280   25.6730   46.3790 C   0  0  0  0  0  0  0  0  0  0  0  0
   57.4480   27.0290   45.9300 C   0  0  0  0  0  0  0  0  0  0  0  0
   56.6320   28.0110   45.3840 C   0  0  0  0  0  0  0  0  0  0  0  0
   55.5347   27.9865   45.3104 H   0  0  0  0  0  0  0  0  0  0  0  0
   57.4650   29.0250   44.9510 C   0  0  0  0  0  0  0  0  0  0  0  0
   57.0110   30.1880   44.1650 C   0  0  0  0  0  0  0  0  0  0  0  0
   57.0330   30.1400   42.9060 O   0  0  0  0  0  0  0  0  0  0  0  0
   56.6300   31.4040   44.8210 N   0  0  0  0  0  0  0  0  0  0  0  0
   57.4500   32.3640   45.1450 C   0  0  0  0  0  0  0  0  0  0  0  0
   57.3250   33.5670   44.5240 N   0  0  0  0  0  0  0  0  0  0  0  0
   58.1270   34.6240   44.8250 C   0  0  0  0  0  0  0  0  0  0  0  0
   57.9984   35.5788   44.2941 H   0  0  0  0  0  0  0  0  0  0  0  0
   59.1140   34.5000   45.8070 C   0  0  0  0  0  0  0  0  0  0  0  0
   59.7664   35.3527   46.0464 H   0  0  0  0  0  0  0  0  0  0  0  0
   59.2670   33.2880   46.4820 C   0  0  0  0  0  0  0  0  0  0  0  0
   60.2650   33.1730   47.4650 O   0  0  0  0  0  0  0  0  0  0  0  0
   60.0080   33.1510   48.8430 C   0  0  0  0  0  0  0  0  0  0  0  0
   60.8520   33.8500   49.7090 C   0  0  0  0  0  0  0  0  0  0  0  0
   61.6767   34.4549   49.3041 H   0  0  0  0  0  0  0  0  0  0  0  0
   60.6490   33.7810   51.0880 C   0  0  0  0  0  0  0  0  0  0  0  0
   61.3141   34.3341   51.7676 H   0  0  0  0  0  0  0  0  0  0  0  0
   59.6040   33.0120   51.6100 C   0  0  0  0  0  0  0  0  0  0  0  0
   59.4470   32.9420   52.9570 F   0  0  0  0  0  0  0  0  0  0  0  0
   58.7240   32.3230   50.7530 C   0  0  0  0  0  0  0  0  0  0  0  0
   57.6380   31.5540   51.3180 N   0  0  0  0  0  0  0  0  0  0  0  0
   56.6710   31.9450   51.2480 H   0  0  0  0  0  0  0  0  0  0  0  0
   57.7720   30.3030   52.0170 C   0  0  0  0  0  0  0  0  0  0  0  0
   58.8630   29.9910   52.5650 O   0  0  0  0  0  0  0  0  0  0  0  0
   56.6310   29.4580   52.2320 N   0  0  0  0  0  0  0  0  0  0  0  0
   55.4860   29.7810   52.7690 C   0  0  0  0  0  0  0  0  0  0  0  0
   55.3780   29.7580   54.1640 C   0  0  0  0  0  0  0  0  0  0  0  0
   56.2419   29.4660   54.7792 H   0  0  0  0  0  0  0  0  0  0  0  0
   54.1730   30.1060   54.7720 C   0  0  0  0  0  0  0  0  0  0  0  0
   54.0867   30.0932   55.8685 H   0  0  0  0  0  0  0  0  0  0  0  0
   53.1050   30.4610   54.0110 N   0  0  0  0  0  0  0  0  0  0  0  0
   53.1510   30.4830   52.6470 C   0  0  0  0  0  0  0  0  0  0  0  0
   51.9080   30.8690   51.8420 C   0  0  0  0  0  0  0  0  0  0  0  0
   51.9990   32.3320   51.3500 C   0  0  0  0  0  0  0  0  0  0  0  0
   52.0411   33.0083   52.2165 H   0  0  0  0  0  0  0  0  0  0  0  0
   52.9067   32.4585   50.7417 H   0  0  0  0  0  0  0  0  0  0  0  0
   51.1139   32.5700   50.7417 H   0  0  0  0  0  0  0  0  0  0  0  0
   50.6540   30.7320   52.7290 C   0  0  0  0  0  0  0  0  0  0  0  0
   50.9488   30.7642   53.7883 H   0  0  0  0  0  0  0  0  0  0  0  0
   49.9618   31.5599   52.5157 H   0  0  0  0  0  0  0  0  0  0  0  0
   50.1569   29.7742   52.5157 H   0  0  0  0  0  0  0  0  0  0  0  0
   51.7750   29.9550   50.6050 C   0  0  0  0  0  0  0  0  0  0  0  0
   51.6238   28.9156   50.9317 H   0  0  0  0  0  0  0  0  0  0  0  0
   50.9145   30.2784   50.0010 H   0  0  0  0  0  0  0  0  0  0  0  0
   52.6920   30.0198   50.0010 H   0  0  0  0  0  0  0  0  0  0  0  0
   54.3470   30.1110   52.0040 C   0  0  0  0  0  0  0  0  0  0  0  0
   54.3936   30.0776   50.9055 H   0  0  0  0  0  0  0  0  0  0  0  0
   58.9120   32.4390   49.3620 C   0  0  0  0  0  0  0  0  0  0  0  0
   58.1941   31.9678   48.6745 H   0  0  0  0  0  0  0  0  0  0  0  0
   58.4420   32.2040   46.1350 C   0  0  0  0  0  0  0  0  0  0  0  0
   58.5698   31.2324   46.6347 H   0  0  0  0  0  0  0  0  0  0  0  0
   58.7490   28.7190   45.2380 N   0  0  0  0  0  0  0  0  0  0  0  0
   59.9410   29.4990   44.9210 C   0  0  0  0  0  0  0  0  0  0  0  0
   60.4290   29.8183   45.8537 H   0  0  0  0  0  0  0  0  0  0  0  0
   60.6380   28.8818   44.3352 H   0  0  0  0  0  0  0  0  0  0  0  0
   59.6545   30.3848   44.3352 H   0  0  0  0  0  0  0  0  0  0  0  0
   58.7470   27.5090   45.8280 C   0  0  0  0  0  0  0  0  0  0  0  0
   59.6441   26.9777   46.1784 H   0  0  0  0  0  0  0  0  0  0  0  0
   56.1780   24.8810   45.5770 C   0  0  0  0  0  0  0  0  0  0  0  0
   55.7764   25.2912   44.6387 H   0  0  0  0  0  0  0  0  0  0  0  0
  1  2  1  0
  2  3  1  0
  3  4  2  0
  3  5  2  0
  3  6  1  0
  6  7  2  0
  7  8  1  0
  7  9  1  0
  9 10  1  0
  9 11  2  0
 11 12  1  0
 11 13  1  0
 13 14  1  0
 14 15  1  0
 15 16  1  0
 15 17  2  0
 17 18  1  0
 18 19  2  0
 18 20  1  0
 20 21  2  0
 21 22  1  0
 22 23  1  0
 23 24  1  0
 23 25  2  0
 25 26  1  0
 25 27  1  0
 27 28  1  0
 28 29  1  0
 29 30  2  0
 30 31  1  0
 30 32  1  0
 32 33  1  0
 32 34  2  0
 34 35  1  0
 34 36  1  0
 36 37  1  0
 37 38  1  0
 37 39  1  0
 39 40  2  0
 39 41  1  0
 41 42  2  3
 42 43  1  0
 43 44  1  0
 43 45  2  0
 45 46  1  0
 45 47  1  0
 47 48  1  0
 48 49  1  0
 49 50  1  0
 50 51  1  0
 50 52  1  0
 50 53  1  0
 49 54  1  0
 54 55  1  0
 54 56  1  0
 54 57  1  0
 49 58  1  0
 58 59  1  0
 58 60  1  0
 58 61  1  0
 48 62  2  0
 62 63  1  0
 36 64  2  0
 64 65  1  0
 27 66  2  0
 66 67  1  0
 17 68  1  0
 68 69  1  0
 69 70  1  0
 69 71  1  0
 69 72  1  0
 68 73  1  0
 73 74  1  0
 13 75  2  0
 75 76  1  0
 75  6  1  0
 73 14  2  0
 66 21  1  0
 64 29  1  0
 62 42  1  0
M  CHG  3   2  -1  22  -1  47  -1
M  END
>  <UniqueID>  (21) 
20

>  <SMILES>  (21) 
Cn1cc(-c2cccc(S([NH-])(=O)=O)c2)cc1C(=O)/N=c1\cc(Oc2ccc(F)c(NC(=O)N=c3cc[n-]c(C(C)(C)C)c3)c2)cc[n-]1

>  <Energy>  (21) 
133.31743004635246

>  <Genealogy>  (21) 
Cn1cc(-c2cccc(S([NH-])(=O)=O)c2)cc1C(=O)N=c1cc(Oc2ccc(F)c(NC(=O)N=c3cc[n-]c(C(C)(C)C)c3)c2)cc[n-]1 (protonated)
Cn1cc(-c2cccc(S([NH-])(=O)=O)c2)cc1C(=O)/N=c1\cc(Oc2ccc(F)c(NC(=O)N=c3cc[n-]c(C(C)(C)C)c3)c2)cc[n-]1 (cis-trans isomerization)
Cn1cc(-c2cccc(S([NH-])(=O)=O)c2)cc1C(=O)/N=c1\cc(Oc2ccc(F)c(NC(=O)N=c3cc[n-]c(C(C)(C)C)c3)c2)cc[n-]1 (3D coordinates assigned)
Cn1cc(-c2cccc(S([NH-])(=O)=O)c2)cc1C(=O)/N=c1\cc(Oc2ccc(F)c(NC(=O)N=c3cc[n-]c(C(C)(C)C)c3)c2)cc[n-]1 (optimized conformer: 133.31743004635246 kcal/mol)

>  <smiles>  (21) 
Cn1cc(-c2cccc(S(N)(=O)=O)c2)cc1C(=O)N=c1cc(Oc2ccc(F)c(NC(=O)N=c3cc[nH]c(C(C)(C)C)c3)c2)cc[nH]1

>  <score_type>  (21) 
oracle

>  <origin>  (21) 
adg

>  <m_score__min__energy>  (21) 
-15.800000000000001

>  <m_primary>  (21) 
energy

$$$$
21:0
     RDKit          3D

 57 59  0  0  0  0  0  0  0  0999 V2000
   59.4925   23.1883   45.2662 H   0  0  0  0  0  0  0  0  0  0  0  0
   58.4310   22.9250   45.1480 C   0  0  0  0  0  0  0  0  0  0  0  0
   58.1790   21.9370   44.2600 C   0  0  0  0  0  0  0  0  0  0  0  0
   59.0501   21.5196   43.7337 H   0  0  0  0  0  0  0  0  0  0  0  0
   56.6070   21.2410   43.8500 S   0  0  0  0  0  0  0  0  0  0  0  0
   55.5800   22.3180   43.6490 O   0  0  0  0  0  0  0  0  0  0  0  0
   56.7190   20.3920   42.6150 O   0  0  0  0  0  0  0  0  0  0  0  0
   56.0800   20.2080   45.1990 C   0  0  0  0  0  0  0  0  0  0  0  0
   56.3288   20.6956   46.1531 H   0  0  0  0  0  0  0  0  0  0  0  0
   54.9926   20.0530   45.1390 H   0  0  0  0  0  0  0  0  0  0  0  0
   56.5927   19.2367   45.1390 H   0  0  0  0  0  0  0  0  0  0  0  0
   57.4680   23.7250   46.0060 C   0  0  1  0  0  0  0  0  0  0  0  0
   56.4492   23.4708   45.6782 H   0  0  0  0  0  0  0  0  0  0  0  0
   57.5260   23.3760   47.4230 N   0  0  0  0  0  0  0  0  0  0  0  0
   56.5890   22.5490   48.1270 C   0  0  0  0  0  0  0  0  0  0  0  0
   56.9940   21.4560   48.6060 O   0  0  0  0  0  0  0  0  0  0  0  0
   55.1670   22.9780   48.3690 C   0  0  0  0  0  0  0  0  0  0  0  0
   55.1620   23.8529   49.0357 H   0  0  0  0  0  0  0  0  0  0  0  0
   54.6190   22.1438   48.8313 H   0  0  0  0  0  0  0  0  0  0  0  0
   54.5140   23.3300   47.1100 N   0  0  0  0  0  0  0  0  0  0  0  0
   54.7630   24.4460   46.4420 N   0  0  0  0  0  0  0  0  0  0  0  0
   53.9610   24.4620   45.3590 C   0  0  0  0  0  0  0  0  0  0  0  0
   53.9370   25.2589   44.6011 H   0  0  0  0  0  0  0  0  0  0  0  0
   53.1730   23.3260   45.3440 C   0  0  0  0  0  0  0  0  0  0  0  0
   52.4186   23.0389   44.5967 H   0  0  0  0  0  0  0  0  0  0  0  0
   53.5460   22.6340   46.4770 C   0  0  0  0  0  0  0  0  0  0  0  0
   52.9910   21.3180   46.9270 C   0  0  0  0  0  0  0  0  0  0  0  0
   52.9762   21.2829   48.0263 H   0  0  0  0  0  0  0  0  0  0  0  0
   51.9670   21.2012   46.5426 H   0  0  0  0  0  0  0  0  0  0  0  0
   53.6221   20.5032   46.5426 H   0  0  0  0  0  0  0  0  0  0  0  0
   57.7240   25.2020   45.8040 C   0  0  0  0  0  0  0  0  0  0  0  0
   57.7430   25.7430   44.5080 C   0  0  0  0  0  0  0  0  0  0  0  0
   57.5634   25.0895   43.6416 H   0  0  0  0  0  0  0  0  0  0  0  0
   57.9880   27.1040   44.3100 C   0  0  0  0  0  0  0  0  0  0  0  0
   57.9986   27.5132   43.2890 H   0  0  0  0  0  0  0  0  0  0  0  0
   58.2210   27.9550   45.4040 C   0  0  0  0  0  0  0  0  0  0  0  0
   58.4830   29.3980   45.1840 C   0  0  0  0  0  0  0  0  0  0  0  0
   59.4640   29.7480   44.4710 O   0  0  0  0  0  0  0  0  0  0  0  0
   57.6260   30.4000   45.7520 N   0  0  0  0  0  0  0  0  0  0  0  0
   56.6390   30.1410   45.9760 H   0  0  0  0  0  0  0  0  0  0  0  0
   57.9490   31.7980   45.7100 C   0  0  0  0  0  0  0  0  0  0  0  0
   58.1780   32.4770   46.9160 C   0  0  0  0  0  0  0  0  0  0  0  0
   58.1359   31.9277   47.8681 H   0  0  0  0  0  0  0  0  0  0  0  0
   58.4590   33.8450   46.9170 C   0  0  0  0  0  0  0  0  0  0  0  0
   58.6294   34.3699   47.8686 H   0  0  0  0  0  0  0  0  0  0  0  0
   58.5240   34.5470   45.7130 C   0  0  0  0  0  0  0  0  0  0  0  0
   58.7319   35.6272   45.7166 H   0  0  0  0  0  0  0  0  0  0  0  0
   58.3250   33.8780   44.5030 C   0  0  0  0  0  0  0  0  0  0  0  0
   58.3835   34.4347   43.5561 H   0  0  0  0  0  0  0  0  0  0  0  0
   58.0510   32.5010   44.4850 C   0  0  0  0  0  0  0  0  0  0  0  0
   57.9360   31.8280   43.2260 N   0  0  0  0  0  0  0  0  0  0  0  0
   57.3880   32.2540   42.4450 H   0  0  0  0  0  0  0  0  0  0  0  0
   58.4540   30.9450   43.0250 H   0  0  0  0  0  0  0  0  0  0  0  0
   58.2270   27.4090   46.7000 C   0  0  0  0  0  0  0  0  0  0  0  0
   58.4251   28.0585   47.5654 H   0  0  0  0  0  0  0  0  0  0  0  0
   57.9830   26.0470   46.8960 C   0  0  0  0  0  0  0  0  0  0  0  0
   57.9938   25.6327   47.9149 H   0  0  0  0  0  0  0  0  0  0  0  0
  1  2  1  0
  2  3  2  0
  3  4  1  0
  3  5  1  0
  5  6  2  0
  5  7  2  0
  5  8  1  0
  8  9  1  0
  8 10  1  0
  8 11  1  0
  2 12  1  0
 12 13  1  6
 12 14  1  0
 14 15  1  0
 15 16  2  0
 15 17  1  0
 17 18  1  0
 17 19  1  0
 17 20  1  0
 20 21  1  0
 21 22  2  0
 22 23  1  0
 22 24  1  0
 24 25  1  0
 24 26  2  0
 26 27  1  0
 27 28  1  0
 27 29  1  0
 27 30  1  0
 12 31  1  0
 31 32  2  0
 32 33  1  0
 32 34  1  0
 34 35  1  0
 34 36  2  0
 36 37  1  0
 37 38  2  0
 37 39  1  0
 39 40  1  0
 39 41  1  0
 41 42  2  0
 42 43  1  0
 42 44  1  0
 44 45  1  0
 44 46  2  0
 46 47  1  0
 46 48  1  0
 48 49  1  0
 48 50  2  0
 50 51  1  0
 51 52  1  0
 51 53  1  0
 36 54  1  0
 54 55  1  0
 54 56  2  0
 56 57  1  0
 26 20  1  0
 56 31  1  0
 50 41  1  0
M  CHG  1  14  -1
M  END
>  <UniqueID>  (22) 
21

>  <SMILES>  (22) 
Cc1ccnn1CC(=O)[N-][C@H](/C=C\S(C)(=O)=O)c1ccc(C(=O)Nc2ccccc2N)cc1

>  <Energy>  (22) 
95.90779958050328

>  <Genealogy>  (22) 
Cc1ccnn1CC(=O)[N-]C(C=CS(C)(=O)=O)c1ccc(C(=O)Nc2ccccc2N)cc1 (protonated)
Cc1ccnn1CC(=O)[N-][C@H](C=CS(C)(=O)=O)c1ccc(C(=O)Nc2ccccc2N)cc1 (chirality)
Cc1ccnn1CC(=O)[N-][C@H](/C=C\S(C)(=O)=O)c1ccc(C(=O)Nc2ccccc2N)cc1 (cis-trans isomerization)
Cc1ccnn1CC(=O)[N-][C@H](/C=C\S(C)(=O)=O)c1ccc(C(=O)Nc2ccccc2N)cc1 (3D coordinates assigned)
Cc1ccnn1CC(=O)[N-][C@H](/C=C\S(C)(=O)=O)c1ccc(C(=O)Nc2ccccc2N)cc1 (optimized conformer: 95.90779958050328 kcal/mol)

>  <smiles>  (22) 
Cc1ccnn1CC(=O)NC(C=CS(C)(=O)=O)c1ccc(C(=O)Nc2ccccc2N)cc1

>  <score_type>  (22) 
oracle

>  <origin>  (22) 
adg

>  <m_score__min__energy>  (22) 
-11.4

>  <m_primary>  (22) 
energy

$$$$
22:0
     RDKit          3D

 43 45  0  0  0  0  0  0  0  0999 V2000
   56.6400   29.5690   53.8530 O   0  0  0  0  0  0  0  0  0  0  0  0
   56.0670   29.5180   52.7330 C   0  0  0  0  0  0  0  0  0  0  0  0
   54.7140   28.8590   52.6340 C   0  0  0  0  0  0  0  0  0  0  0  0
   53.6280   29.8670   52.3540 C   0  0  0  0  0  0  0  0  0  0  0  0
   52.5620   30.0270   53.2560 C   0  0  0  0  0  0  0  0  0  0  0  0
   51.5660   30.9770   53.0090 C   0  0  0  0  0  0  0  0  0  0  0  0
   51.6220   31.7690   51.8590 C   0  0  0  0  0  0  0  0  0  0  0  0
   50.6330   32.7140   51.6170 O   0  0  0  0  0  0  0  0  0  0  0  0
   52.6740   31.6090   50.9510 C   0  0  0  0  0  0  0  0  0  0  0  0
   53.6700   30.6580   51.1930 C   0  0  0  0  0  0  0  0  0  0  0  0
   56.6980   30.1450   51.6060 N   0  0  0  0  0  0  0  0  0  0  0  0
   57.5330   31.3070   51.6580 C   0  0  0  0  0  0  0  0  0  0  0  0
   57.0540   32.4630   52.2840 C   0  0  0  0  0  0  0  0  0  0  0  0
   57.8540   33.6050   52.3590 C   0  0  0  0  0  0  0  0  0  0  0  0
   59.1410   33.5960   51.8140 C   0  0  0  0  0  0  0  0  0  0  0  0
   59.6370   32.4460   51.1880 C   0  0  0  0  0  0  0  0  0  0  0  0
   60.9730   32.4680   50.6670 N   0  0  0  0  0  0  0  0  0  0  0  0
   61.5370   33.4730   49.8120 C   0  0  0  0  0  0  0  0  0  0  0  0
   62.5900   34.0780   50.1520 O   0  0  0  0  0  0  0  0  0  0  0  0
   60.8830   33.8100   48.5280 C   0  0  0  0  0  0  0  0  0  0  0  0
   59.5820   34.3470   48.5590 C   0  0  0  0  0  0  0  0  0  0  0  0
   58.8820   34.5860   47.3750 C   0  0  0  0  0  0  0  0  0  0  0  0
   59.4680   34.2930   46.1450 C   0  0  0  0  0  0  0  0  0  0  0  0
   60.7640   33.7810   46.0920 C   0  0  0  0  0  0  0  0  0  0  0  0
   61.4940   33.5530   47.2710 C   0  0  0  0  0  0  0  0  0  0  0  0
   62.8610   33.1220   47.1660 N   0  0  0  0  0  0  0  0  0  0  0  0
   63.7270   33.8920   46.6990 O   0  0  0  0  0  0  0  0  0  0  0  0
   63.1780   31.7960   47.3460 O   0  0  0  0  0  0  0  0  0  0  0  0
   58.8390   31.2890   51.1420 C   0  0  0  0  0  0  0  0  0  0  0  0
   54.7349   28.1203   51.8192 H   0  0  0  0  0  0  0  0  0  0  0  0
   54.4950   28.3738   53.5966 H   0  0  0  0  0  0  0  0  0  0  0  0
   52.5110   29.4023   54.1600 H   0  0  0  0  0  0  0  0  0  0  0  0
   50.7369   31.1011   53.7212 H   0  0  0  0  0  0  0  0  0  0  0  0
   52.7177   32.2321   50.0455 H   0  0  0  0  0  0  0  0  0  0  0  0
   54.4901   30.5283   50.4715 H   0  0  0  0  0  0  0  0  0  0  0  0
   56.0436   32.4722   52.7186 H   0  0  0  0  0  0  0  0  0  0  0  0
   57.4708   34.5129   52.8477 H   0  0  0  0  0  0  0  0  0  0  0  0
   59.7679   34.4977   51.8772 H   0  0  0  0  0  0  0  0  0  0  0  0
   59.1123   34.5806   49.5258 H   0  0  0  0  0  0  0  0  0  0  0  0
   57.8662   35.0063   47.4130 H   0  0  0  0  0  0  0  0  0  0  0  0
   58.9074   34.4659   45.2145 H   0  0  0  0  0  0  0  0  0  0  0  0
   61.2197   33.5532   45.1171 H   0  0  0  0  0  0  0  0  0  0  0  0
   59.2398   30.3651   50.6996 H   0  0  0  0  0  0  0  0  0  0  0  0
  1  2  2  0
  2  3  1  0
  3  4  1  0
  4  5  2  0
  5  6  1  0
  6  7  2  0
  7  8  1  0
  7  9  1  0
  9 10  2  0
  2 11  1  0
 11 12  1  0
 12 13  2  0
 13 14  1  0
 14 15  2  0
 15 16  1  0
 16 17  1  0
 17 18  1  0
 18 19  2  0
 18 20  1  0
 20 21  2  0
 21 22  1  0
 22 23  2  0
 23 24  1  0
 24 25  2  0
 25 26  1  0
 26 27  2  0
 26 28  1  0
 16 29  2  0
 10  4  1  0
 29 12  1  0
 25 20  1  0
  3 30  1  0
  3 31  1  0
  5 32  1  0
  6 33  1  0
  9 34  1  0
 10 35  1  0
 13 36  1  0
 14 37  1  0
 15 38  1  0
 21 39  1  0
 22 40  1  0
 23 41  1  0
 24 42  1  0
 29 43  1  0
M  CHG  5   8  -1  11  -1  17  -1  26   1  28  -1
M  END
>  <UniqueID>  (23) 
22

>  <SMILES>  (23) 
O=C(Cc1ccc([O-])cc1)[N-]c1cccc([N-]C(=O)c2ccccc2[N+](=O)[O-])c1

>  <Energy>  (23) 
60.70043588586917

>  <Genealogy>  (23) 
O=C(Cc1ccc([O-])cc1)[N-]c1cccc([N-]C(=O)c2ccccc2[N+](=O)[O-])c1 (protonated)
O=C(Cc1ccc([O-])cc1)[N-]c1cccc([N-]C(=O)c2ccccc2[N+](=O)[O-])c1 (3D coordinates assigned)
O=C(Cc1ccc([O-])cc1)[N-]c1cccc([N-]C(=O)c2ccccc2[N+](=O)[O-])c1 (optimized conformer: 60.70043588586917 kcal/mol)

>  <smiles>  (23) 
O=C(Cc1ccc(O)cc1)Nc1cccc(NC(=O)c2ccccc2[N+](=O)[O-])c1

>  <score_type>  (23) 
oracle

>  <origin>  (23) 
adg

>  <m_score__min__energy>  (23) 
-15.23

>  <m_primary>  (23) 
energy

$$$$
23:0
     RDKit          3D

 64 67  0  0  0  0  0  0  0  0999 V2000
   57.5988   33.8749   44.5091 H   0  0  0  0  0  0  0  0  0  0  0  0
   58.3910   33.2230   44.9060 C   0  0  0  0  0  0  0  0  0  0  0  0
   59.5270   33.7670   45.2440 N   0  0  0  0  0  0  0  0  0  0  0  0
   59.7000   34.9360   46.0590 C   0  0  0  0  0  0  0  0  0  0  0  0
   59.6380   36.0860   45.5470 O   0  0  0  0  0  0  0  0  0  0  0  0
   59.8840   34.7710   47.5390 C   0  0  0  0  0  0  0  0  0  0  0  0
   58.9600   35.0786   48.0505 H   0  0  0  0  0  0  0  0  0  0  0  0
   60.7325   35.3966   47.8530 H   0  0  0  0  0  0  0  0  0  0  0  0
   60.1850   33.3710   47.8940 N   0  0  0  0  0  0  0  0  0  0  0  0
   61.3110   32.7200   47.4460 C   0  0  0  0  0  0  0  0  0  0  0  0
   62.5300   33.5120   46.3780 S   0  0  0  0  0  0  0  0  0  0  0  0
   63.5510   34.1830   47.7340 C   0  0  0  0  0  0  0  0  0  0  0  0
   64.6133   34.0966   47.4619 H   0  0  0  0  0  0  0  0  0  0  0  0
   63.2794   35.2374   47.8903 H   0  0  0  0  0  0  0  0  0  0  0  0
   63.3070   33.4290   49.0120 C   0  0  0  0  0  0  0  0  0  0  0  0
   63.9330   32.1910   49.2310 C   0  0  0  0  0  0  0  0  0  0  0  0
   64.6103   31.7770   48.4695 H   0  0  0  0  0  0  0  0  0  0  0  0
   63.6980   31.4820   50.4150 C   0  0  0  0  0  0  0  0  0  0  0  0
   64.1980   30.5172   50.5860 H   0  0  0  0  0  0  0  0  0  0  0  0
   62.8280   31.9990   51.3810 C   0  0  0  0  0  0  0  0  0  0  0  0
   62.5960   31.3090   52.5250 F   0  0  0  0  0  0  0  0  0  0  0  0
   62.1940   33.2260   51.1650 C   0  0  0  0  0  0  0  0  0  0  0  0
   61.5062   33.6297   51.9226 H   0  0  0  0  0  0  0  0  0  0  0  0
   62.4330   33.9410   49.9870 C   0  0  0  0  0  0  0  0  0  0  0  0
   61.9351   34.9080   49.8226 H   0  0  0  0  0  0  0  0  0  0  0  0
   61.5180   31.4190   47.7800 N   0  0  0  0  0  0  0  0  0  0  0  0
   60.6630   30.7420   48.5840 C   0  0  0  0  0  0  0  0  0  0  0  0
   60.8990   29.5360   48.8630 O   0  0  0  0  0  0  0  0  0  0  0  0
   59.5340   31.3890   49.1000 C   0  0  0  0  0  0  0  0  0  0  0  0
   58.5470   30.6820   49.9910 C   0  0  0  0  0  0  0  0  0  0  0  0
   58.1666   29.7885   49.4743 H   0  0  0  0  0  0  0  0  0  0  0  0
   57.7168   31.3663   50.2199 H   0  0  0  0  0  0  0  0  0  0  0  0
   59.2060   30.2700   51.2700 C   0  0  0  0  0  0  0  0  0  0  0  0
   59.7200   29.0240   51.5780 C   0  0  0  0  0  0  0  0  0  0  0  0
   59.7630   28.1559   50.9039 H   0  0  0  0  0  0  0  0  0  0  0  0
   60.1590   29.0630   52.8520 N   0  0  0  0  0  0  0  0  0  0  0  0
   60.7050   27.9390   53.6010 C   0  0  0  0  0  0  0  0  0  0  0  0
   60.6094   28.1357   54.6790 H   0  0  0  0  0  0  0  0  0  0  0  0
   60.1510   27.0239   53.3447 H   0  0  0  0  0  0  0  0  0  0  0  0
   61.7668   27.8088   53.3447 H   0  0  0  0  0  0  0  0  0  0  0  0
   59.9160   30.2600   53.3650 N   0  0  0  0  0  0  0  0  0  0  0  0
   60.1220   30.5450   54.3490 H   0  0  0  0  0  0  0  0  0  0  0  0
   59.3380   31.0250   52.4230 C   0  0  0  0  0  0  0  0  0  0  0  0
   59.0236   32.0718   52.5469 H   0  0  0  0  0  0  0  0  0  0  0  0
   59.3100   32.7160   48.7160 C   0  0  0  0  0  0  0  0  0  0  0  0
   58.4151   33.2410   49.0815 H   0  0  0  0  0  0  0  0  0  0  0  0
   58.1120   31.7780   45.0280 C   0  0  0  0  0  0  0  0  0  0  0  0
   58.9230   30.9730   45.8400 C   0  0  0  0  0  0  0  0  0  0  0  0
   59.7653   31.4203   46.3881 H   0  0  0  0  0  0  0  0  0  0  0  0
   58.6650   29.6020   45.9560 C   0  0  0  0  0  0  0  0  0  0  0  0
   59.2949   28.9814   46.6102 H   0  0  0  0  0  0  0  0  0  0  0  0
   57.6060   29.0120   45.2420 C   0  0  0  0  0  0  0  0  0  0  0  0
   57.3490   27.5200   45.3590 C   0  0  0  0  0  0  0  0  0  0  0  0
   57.9338   27.1454   46.2121 H   0  0  0  0  0  0  0  0  0  0  0  0
   55.9360   27.2320   45.6320 N   0  0  0  0  0  0  0  0  0  0  0  0
   55.7980   27.0090   46.6450 H   0  0  0  0  0  0  0  0  0  0  0  0
   55.6460   26.3900   45.0780 H   0  0  0  0  0  0  0  0  0  0  0  0
   57.7860   26.8330   44.1420 N   0  0  0  0  0  0  0  0  0  0  0  0
   56.9750   26.7170   43.4910 H   0  0  0  0  0  0  0  0  0  0  0  0
   58.1040   25.8710   44.4050 H   0  0  0  0  0  0  0  0  0  0  0  0
   56.8270   29.8180   44.3920 C   0  0  0  0  0  0  0  0  0  0  0  0
   56.0133   29.3661   43.8058 H   0  0  0  0  0  0  0  0  0  0  0  0
   57.0790   31.1870   44.2870 C   0  0  0  0  0  0  0  0  0  0  0  0
   56.4629   31.8062   43.6184 H   0  0  0  0  0  0  0  0  0  0  0  0
  1  2  1  0
  2  3  2  0
  3  4  1  0
  4  5  2  0
  4  6  1  0
  6  7  1  0
  6  8  1  0
  6  9  1  0
  9 10  1  0
 10 11  1  0
 11 12  1  0
 12 13  1  0
 12 14  1  0
 12 15  1  0
 15 16  2  0
 16 17  1  0
 16 18  1  0
 18 19  1  0
 18 20  2  0
 20 21  1  0
 20 22  1  0
 22 23  1  0
 22 24  2  0
 24 25  1  0
 10 26  2  0
 26 27  1  0
 27 28  2  0
 27 29  1  0
 29 30  1  0
 30 31  1  0
 30 32  1  0
 30 33  1  0
 33 34  2  0
 34 35  1  0
 34 36  1  0
 36 37  1  0
 37 38  1  0
 37 39  1  0
 37 40  1  0
 36 41  1  0
 41 42  1  0
 41 43  2  0
 43 44  1  0
 29 45  2  0
 45 46  1  0
  2 47  1  0
 47 48  2  0
 48 49  1  0
 48 50  1  0
 50 51  1  0
 50 52  2  0
 52 53  1  0
 53 54  1  0
 53 55  1  0
 55 56  1  0
 55 57  1  0
 53 58  1  0
 58 59  1  0
 58 60  1  0
 52 61  1  0
 61 62  1  0
 61 63  2  0
 63 64  1  0
 45  9  1  0
 63 47  1  0
 24 15  1  0
 43 33  1  0
M  CHG  1  41   1
M  END
>  <UniqueID>  (24) 
23

>  <SMILES>  (24) 
Cn1cc(Cc2cn(CC(=O)/N=C\c3ccc(C(N)N)cc3)c(SCc3ccc(F)cc3)nc2=O)c[nH+]1

>  <Energy>  (24) 
101.98231521385249

>  <Genealogy>  (24) 
Cn1cc(Cc2cn(CC(=O)N=Cc3ccc(C(N)N)cc3)c(SCc3ccc(F)cc3)nc2=O)c[nH+]1 (protonated)
Cn1cc(Cc2cn(CC(=O)/N=C\c3ccc(C(N)N)cc3)c(SCc3ccc(F)cc3)nc2=O)c[nH+]1 (cis-trans isomerization)
Cn1cc(Cc2cn(CC(=O)/N=C\c3ccc(C(N)N)cc3)c(SCc3ccc(F)cc3)nc2=O)c[nH+]1 (3D coordinates assigned)
Cn1cc(Cc2cn(CC(=O)/N=C\c3ccc(C(N)N)cc3)c(SCc3ccc(F)cc3)nc2=O)c[nH+]1 (optimized conformer: 101.98231521385249 kcal/mol)

>  <smiles>  (24) 
Cn1cc(Cc2cn(CC(=O)N=Cc3ccc(C(N)N)cc3)c(SCc3ccc(F)cc3)nc2=O)cn1

>  <score_type>  (24) 
oracle

>  <origin>  (24) 
adg

>  <m_score__min__energy>  (24) 
-8.5700000000000003

>  <m_primary>  (24) 
energy

$$$$
24:0
     RDKit          3D

 39 41  0  0  0  0  0  0  0  0999 V2000
   60.6790   27.1020   47.5340 C   0  0  0  0  0  0  0  0  0  0  0  0
   59.5550   27.8310   46.8500 C   0  0  0  0  0  0  0  0  0  0  0  0
   58.4270   27.1140   46.4240 C   0  0  0  0  0  0  0  0  0  0  0  0
   57.3690   27.7640   45.7870 C   0  0  0  0  0  0  0  0  0  0  0  0
   57.4200   29.1470   45.5500 C   0  0  0  0  0  0  0  0  0  0  0  0
   56.2990   29.8330   44.8640 C   0  0  0  0  0  0  0  0  0  0  0  0
   55.1440   29.3280   44.8890 O   0  0  0  0  0  0  0  0  0  0  0  0
   56.5180   31.0940   44.2180 N   0  0  0  0  0  0  0  0  0  0  0  0
   57.2770   32.2000   44.7300 C   0  0  0  0  0  0  0  0  0  0  0  0
   58.2650   32.7700   43.9180 C   0  0  0  0  0  0  0  0  0  0  0  0
   59.0130   33.8620   44.3720 C   0  0  0  0  0  0  0  0  0  0  0  0
   58.7650   34.4010   45.6360 C   0  0  0  0  0  0  0  0  0  0  0  0
   57.7650   33.8560   46.4440 C   0  0  0  0  0  0  0  0  0  0  0  0
   57.0160   32.7630   45.9940 C   0  0  0  0  0  0  0  0  0  0  0  0
   58.5530   29.8660   45.9650 C   0  0  0  0  0  0  0  0  0  0  0  0
   59.6200   29.2240   46.6210 C   0  0  0  0  0  0  0  0  0  0  0  0
   60.7870   29.9770   47.0050 N   0  0  0  0  0  0  0  0  0  0  0  0
   60.7270   31.3340   47.4730 C   0  0  0  0  0  0  0  0  0  0  0  0
   59.6230   31.8360   47.8180 O   0  0  0  0  0  0  0  0  0  0  0  0
   61.9460   32.1510   47.5950 C   0  0  0  0  0  0  0  0  0  0  0  0
   62.1300   33.4400   47.1280 C   0  0  0  0  0  0  0  0  0  0  0  0
   63.4170   33.7830   47.4820 C   0  0  0  0  0  0  0  0  0  0  0  0
   63.9380   32.6890   48.1410 C   0  0  0  0  0  0  0  0  0  0  0  0
   63.0390   31.7350   48.1930 O   0  0  0  0  0  0  0  0  0  0  0  0
   60.5573   27.1809   48.6244 H   0  0  0  0  0  0  0  0  0  0  0  0
   60.6621   26.0425   47.2389 H   0  0  0  0  0  0  0  0  0  0  0  0
   61.6395   27.5495   47.2389 H   0  0  0  0  0  0  0  0  0  0  0  0
   58.3759   26.0284   46.5938 H   0  0  0  0  0  0  0  0  0  0  0  0
   56.4878   27.1881   45.4679 H   0  0  0  0  0  0  0  0  0  0  0  0
   58.4545   32.3566   42.9164 H   0  0  0  0  0  0  0  0  0  0  0  0
   59.7964   34.2958   43.7331 H   0  0  0  0  0  0  0  0  0  0  0  0
   59.3576   35.2552   45.9954 H   0  0  0  0  0  0  0  0  0  0  0  0
   57.5656   34.2868   47.4363 H   0  0  0  0  0  0  0  0  0  0  0  0
   56.2219   32.3429   46.6288 H   0  0  0  0  0  0  0  0  0  0  0  0
   58.6073   30.9480   45.7743 H   0  0  0  0  0  0  0  0  0  0  0  0
   61.7090   29.4870   47.0130 H   0  0  0  0  0  0  0  0  0  0  0  0
   61.4012   34.0615   46.5870 H   0  0  0  0  0  0  0  0  0  0  0  0
   63.9261   34.7369   47.2798 H   0  0  0  0  0  0  0  0  0  0  0  0
   64.9533   32.6260   48.5595 H   0  0  0  0  0  0  0  0  0  0  0  0
  1  2  1  0
  2  3  2  0
  3  4  1  0
  4  5  2  0
  5  6  1  0
  6  7  2  0
  6  8  1  0
  8  9  1  0
  9 10  2  0
 10 11  1  0
 11 12  2  0
 12 13  1  0
 13 14  2  0
  5 15  1  0
 15 16  2  0
 16 17  1  0
 17 18  1  0
 18 19  2  0
 18 20  1  0
 20 21  2  0
 21 22  1  0
 22 23  2  0
 23 24  1  0
 16  2  1  0
 24 20  1  0
 14  9  1  0
  1 25  1  0
  1 26  1  0
  1 27  1  0
  3 28  1  0
  4 29  1  0
 10 30  1  0
 11 31  1  0
 12 32  1  0
 13 33  1  0
 14 34  1  0
 15 35  1  0
 17 36  1  0
 21 37  1  0
 22 38  1  0
 23 39  1  0
M  CHG  1   8  -1
M  END
>  <UniqueID>  (25) 
24

>  <SMILES>  (25) 
Cc1ccc(C(=O)[N-]c2ccccc2)cc1NC(=O)c1ccco1

>  <Energy>  (25) 
75.4740211061795

>  <Genealogy>  (25) 
Cc1ccc(C(=O)[N-]c2ccccc2)cc1NC(=O)c1ccco1 (protonated)
Cc1ccc(C(=O)[N-]c2ccccc2)cc1NC(=O)c1ccco1 (3D coordinates assigned)
Cc1ccc(C(=O)[N-]c2ccccc2)cc1NC(=O)c1ccco1 (optimized conformer: 75.4740211061795 kcal/mol)

>  <smiles>  (25) 
Cc1ccc(C(=O)Nc2ccccc2)cc1NC(=O)c1ccco1

>  <score_type>  (25) 
oracle

>  <origin>  (25) 
adg

>  <m_score__min__energy>  (25) 
-9.8699999999999992

>  <m_primary>  (25) 
energy

$$$$
25:0
     RDKit          3D

 39 41  0  0  0  0  0  0  0  0999 V2000
   58.1230   30.3440   42.7220 H   0  0  0  0  0  0  0  0  0  0  0  0
   57.8070   31.2760   42.9610 O   0  0  0  0  0  0  0  0  0  0  0  0
   57.9780   31.8200   44.2350 C   0  0  0  0  0  0  0  0  0  0  0  0
   57.6140   33.1550   44.4540 C   0  0  0  0  0  0  0  0  0  0  0  0
   57.2156   33.7573   43.6242 H   0  0  0  0  0  0  0  0  0  0  0  0
   57.7550   33.7250   45.7230 C   0  0  0  0  0  0  0  0  0  0  0  0
   57.4758   34.7762   45.8873 H   0  0  0  0  0  0  0  0  0  0  0  0
   58.2500   32.9610   46.7820 C   0  0  0  0  0  0  0  0  0  0  0  0
   58.3528   33.4086   47.7815 H   0  0  0  0  0  0  0  0  0  0  0  0
   58.6150   31.6280   46.5730 C   0  0  0  0  0  0  0  0  0  0  0  0
   58.9868   31.0235   47.4134 H   0  0  0  0  0  0  0  0  0  0  0  0
   58.5090   31.0590   45.2970 C   0  0  0  0  0  0  0  0  0  0  0  0
   58.8430   29.6790   45.1170 N   0  0  0  0  0  0  0  0  0  0  0  0
   58.1750   28.6300   45.5110 C   0  0  0  0  0  0  0  0  0  0  0  0
   58.9320   27.3590   46.3060 S   0  0  0  0  0  0  0  0  0  0  0  0
   57.5050   26.5040   46.5420 C   0  0  0  0  0  0  0  0  0  0  0  0
   57.3840   25.2110   47.2980 C   0  0  0  0  0  0  0  0  0  0  0  0
   58.0497   25.2502   48.1728 H   0  0  0  0  0  0  0  0  0  0  0  0
   56.3314   25.0951   47.5958 H   0  0  0  0  0  0  0  0  0  0  0  0
   57.7580   24.0130   46.4580 C   0  0  0  0  0  0  0  0  0  0  0  0
   58.4750   24.1900   45.4380 O   0  0  0  0  0  0  0  0  0  0  0  0
   57.3950   22.6720   46.8240 N   0  0  0  0  0  0  0  0  0  0  0  0
   56.6530   22.2950   47.8280 C   0  0  0  0  0  0  0  0  0  0  0  0
   57.2270   21.5500   48.8130 N   0  0  0  0  0  0  0  0  0  0  0  0
   56.5320   21.1290   49.9030 C   0  0  0  0  0  0  0  0  0  0  0  0
   57.0357   20.5353   50.6801 H   0  0  0  0  0  0  0  0  0  0  0  0
   55.1810   21.4490   50.0370 C   0  0  0  0  0  0  0  0  0  0  0  0
   54.6163   21.1209   50.9221 H   0  0  0  0  0  0  0  0  0  0  0  0
   54.5550   22.1900   49.0350 C   0  0  0  0  0  0  0  0  0  0  0  0
   53.4881   22.4432   49.1227 H   0  0  0  0  0  0  0  0  0  0  0  0
   55.2830   22.6100   47.9210 C   0  0  0  0  0  0  0  0  0  0  0  0
   54.7907   23.1829   47.1213 H   0  0  0  0  0  0  0  0  0  0  0  0
   56.4650   27.2290   45.9650 C   0  0  0  0  0  0  0  0  0  0  0  0
   55.1480   26.7800   45.9850 O   0  0  0  0  0  0  0  0  0  0  0  0
   56.8290   28.4120   45.3820 N   0  0  0  0  0  0  0  0  0  0  0  0
   55.8590   29.2790   44.7040 C   0  0  0  0  0  0  0  0  0  0  0  0
   55.2592   29.8151   45.4542 H   0  0  0  0  0  0  0  0  0  0  0  0
   56.3938   30.0056   44.0747 H   0  0  0  0  0  0  0  0  0  0  0  0
   55.1967   28.6663   44.0747 H   0  0  0  0  0  0  0  0  0  0  0  0
  1  2  1  0
  2  3  1  0
  3  4  2  0
  4  5  1  0
  4  6  1  0
  6  7  1  0
  6  8  2  0
  8  9  1  0
  8 10  1  0
 10 11  1  0
 10 12  2  0
 12 13  1  0
 13 14  2  0
 14 15  1  0
 15 16  1  0
 16 17  1  0
 17 18  1  0
 17 19  1  0
 17 20  1  0
 20 21  2  0
 20 22  1  0
 22 23  2  3
 23 24  1  0
 24 25  1  0
 25 26  1  0
 25 27  2  0
 27 28  1  0
 27 29  1  0
 29 30  1  0
 29 31  2  0
 31 32  1  0
 16 33  2  0
 33 34  1  0
 33 35  1  0
 35 36  1  0
 36 37  1  0
 36 38  1  0
 36 39  1  0
 12  3  1  0
 35 14  1  0
 31 23  1  0
M  CHG  2  24  -1  34  -1
M  END
>  <UniqueID>  (26) 
25

>  <SMILES>  (26) 
Cn1c([O-])c(CC(=O)N=c2cccc[n-]2)s/c1=N/c1ccccc1O

>  <Energy>  (26) 
95.08416832801167

>  <Genealogy>  (26) 
Cn1c([O-])c(CC(=O)N=c2cccc[n-]2)sc1=Nc1ccccc1O (protonated)
Cn1c([O-])c(CC(=O)N=c2cccc[n-]2)s/c1=N/c1ccccc1O (cis-trans isomerization)
Cn1c([O-])c(CC(=O)N=c2cccc[n-]2)s/c1=N/c1ccccc1O (3D coordinates assigned)
Cn1c([O-])c(CC(=O)N=c2cccc[n-]2)s/c1=N/c1ccccc1O (optimized conformer: 95.08416832801167 kcal/mol)

>  <smiles>  (26) 
Cn1c(O)c(CC(=O)N=c2cccc[nH]2)sc1=Nc1ccccc1O

>  <score_type>  (26) 
oracle

>  <origin>  (26) 
adg

>  <m_score__min__energy>  (26) 
-12.960000000000001

>  <m_primary>  (26) 
energy

$$$$
26:0
     RDKit          3D

 42 44  0  0  0  0  0  0  0  0999 V2000
   55.9700   29.5990   43.0980 O   0  0  0  0  0  0  0  0  0  0  0  0
   56.1470   29.7580   44.3360 C   0  0  0  0  0  0  0  0  0  0  0  0
   56.8940   30.9770   44.8090 C   0  0  0  0  0  0  0  0  0  0  0  0
   58.6660   30.6170   45.0800 S   0  0  0  0  0  0  0  0  0  0  0  0
   59.0690   32.2570   45.6990 C   0  0  0  0  0  0  0  0  0  0  0  0
   58.4440   33.3270   45.1330 N   0  0  0  0  0  0  0  0  0  0  0  0
   58.7160   34.6030   45.4970 C   0  0  0  0  0  0  0  0  0  0  0  0
   59.6770   34.8590   46.4750 C   0  0  0  0  0  0  0  0  0  0  0  0
   60.3330   33.7870   47.0830 C   0  0  0  0  0  0  0  0  0  0  0  0
   60.0200   32.4690   46.7230 C   0  0  0  0  0  0  0  0  0  0  0  0
   60.7050   31.3550   47.4180 C   0  0  0  0  0  0  0  0  0  0  0  0
   61.5500   30.6700   46.7850 O   0  0  0  0  0  0  0  0  0  0  0  0
   60.4260   31.0150   48.7850 N   0  0  0  0  0  0  0  0  0  0  0  0
   59.8100   31.8540   49.7710 C   0  0  0  0  0  0  0  0  0  0  0  0
   58.5260   31.5810   50.2820 C   0  0  0  0  0  0  0  0  0  0  0  0
   57.9570   32.4260   51.2390 C   0  0  0  0  0  0  0  0  0  0  0  0
   58.6540   33.5570   51.6840 C   0  0  0  0  0  0  0  0  0  0  0  0
   58.1020   34.4020   52.6440 O   0  0  0  0  0  0  0  0  0  0  0  0
   59.9200   33.8440   51.1590 C   0  0  0  0  0  0  0  0  0  0  0  0
   60.4880   33.0020   50.2010 C   0  0  0  0  0  0  0  0  0  0  0  0
   55.7180   28.7210   45.2320 N   0  0  0  0  0  0  0  0  0  0  0  0
   56.4830   27.5810   45.6400 C   0  0  0  0  0  0  0  0  0  0  0  0
   57.8830   27.6500   45.7660 C   0  0  0  0  0  0  0  0  0  0  0  0
   58.6090   26.5300   46.1830 C   0  0  0  0  0  0  0  0  0  0  0  0
   57.9440   25.3460   46.5070 C   0  0  0  0  0  0  0  0  0  0  0  0
   56.5490   25.2860   46.4360 C   0  0  0  0  0  0  0  0  0  0  0  0
   55.8180   26.4050   46.0220 C   0  0  0  0  0  0  0  0  0  0  0  0
   54.4300   26.3410   45.9850 O   0  0  0  0  0  0  0  0  0  0  0  0
   56.8024   31.7685   44.0506 H   0  0  0  0  0  0  0  0  0  0  0  0
   56.4577   31.2981   45.7664 H   0  0  0  0  0  0  0  0  0  0  0  0
   58.1792   35.4371   45.0215 H   0  0  0  0  0  0  0  0  0  0  0  0
   59.9152   35.8933   46.7638 H   0  0  0  0  0  0  0  0  0  0  0  0
   61.0995   33.9777   47.8486 H   0  0  0  0  0  0  0  0  0  0  0  0
   57.9699   30.7008   49.9271 H   0  0  0  0  0  0  0  0  0  0  0  0
   56.9590   32.2024   51.6440 H   0  0  0  0  0  0  0  0  0  0  0  0
   57.9340   35.3820   52.4500 H   0  0  0  0  0  0  0  0  0  0  0  0
   60.4678   34.7341   51.5018 H   0  0  0  0  0  0  0  0  0  0  0  0
   61.4757   33.2420   49.7805 H   0  0  0  0  0  0  0  0  0  0  0  0
   58.4082   28.5886   45.5355 H   0  0  0  0  0  0  0  0  0  0  0  0
   59.7054   26.5819   46.2558 H   0  0  0  0  0  0  0  0  0  0  0  0
   58.5175   24.4604   46.8181 H   0  0  0  0  0  0  0  0  0  0  0  0
   56.0251   24.3573   46.7061 H   0  0  0  0  0  0  0  0  0  0  0  0
  1  2  2  0
  2  3  1  0
  3  4  1  0
  4  5  1  0
  5  6  2  0
  6  7  1  0
  7  8  2  0
  8  9  1  0
  9 10  2  0
 10 11  1  0
 11 12  2  0
 11 13  1  0
 13 14  1  0
 14 15  2  0
 15 16  1  0
 16 17  2  0
 17 18  1  0
 17 19  1  0
 19 20  2  0
  2 21  1  0
 21 22  1  0
 22 23  2  0
 23 24  1  0
 24 25  2  0
 25 26  1  0
 26 27  2  0
 27 28  1  0
 10  5  1  0
 20 14  1  0
 27 22  1  0
  3 29  1  0
  3 30  1  0
  7 31  1  0
  8 32  1  0
  9 33  1  0
 15 34  1  0
 16 35  1  0
 18 36  1  0
 19 37  1  0
 20 38  1  0
 23 39  1  0
 24 40  1  0
 25 41  1  0
 26 42  1  0
M  CHG  3  13  -1  21  -1  28  -1
M  END
>  <UniqueID>  (27) 
26

>  <SMILES>  (27) 
O=C(CSc1ncccc1C(=O)[N-]c1ccc(O)cc1)[N-]c1ccccc1[O-]

>  <Energy>  (27) 
54.0023779837686

>  <Genealogy>  (27) 
O=C(CSc1ncccc1C(=O)[N-]c1ccc(O)cc1)[N-]c1ccccc1[O-] (protonated)
O=C(CSc1ncccc1C(=O)[N-]c1ccc(O)cc1)[N-]c1ccccc1[O-] (3D coordinates assigned)
O=C(CSc1ncccc1C(=O)[N-]c1ccc(O)cc1)[N-]c1ccccc1[O-] (optimized conformer: 54.0023779837686 kcal/mol)

>  <smiles>  (27) 
O=C(CSc1ncccc1C(=O)Nc1ccc(O)cc1)Nc1ccccc1O

>  <score_type>  (27) 
oracle

>  <origin>  (27) 
adg

>  <m_score__min__energy>  (27) 
-15.34

>  <m_primary>  (27) 
energy

$$$$
27:0
     RDKit          3D

 44 46  0  0  0  0  0  0  0  0999 V2000
   55.3650   30.0140   44.5020 O   0  0  0  0  0  0  0  0  0  0  0  0
   56.5890   30.3180   44.5360 C   0  0  0  0  0  0  0  0  0  0  0  0
   57.2630   30.8630   43.3180 C   0  0  0  0  0  0  0  0  0  0  0  0
   57.6960   32.3200   43.5470 C   0  0  0  0  0  0  0  0  0  0  0  0
   57.1790   32.8760   44.8800 C   0  0  0  0  0  0  0  0  0  0  0  0
   58.2450   33.6350   45.6190 C   0  0  0  0  0  0  0  0  0  0  0  0
   59.0340   34.6650   45.1140 C   0  0  0  0  0  0  0  0  0  0  0  0
   59.8500   35.1500   46.0790 N   0  0  0  0  0  0  0  0  0  0  0  0
   59.5770   34.4430   47.1910 C   0  0  0  0  0  0  0  0  0  0  0  0
   60.1610   34.5860   48.4520 C   0  0  0  0  0  0  0  0  0  0  0  0
   59.7140   33.7400   49.4830 C   0  0  0  0  0  0  0  0  0  0  0  0
   58.7030   32.7840   49.2360 C   0  0  0  0  0  0  0  0  0  0  0  0
   58.1330   32.6630   47.9550 C   0  0  0  0  0  0  0  0  0  0  0  0
   58.5990   33.5120   46.9510 C   0  0  0  0  0  0  0  0  0  0  0  0
   57.3460   30.1610   45.7380 N   0  0  0  0  0  0  0  0  0  0  0  0
   58.7980   30.0540   45.7710 C   0  0  0  0  0  0  0  0  0  0  0  0
   59.2500   29.5310   47.1370 C   0  0  0  0  0  0  0  0  0  0  0  0
   60.4670   30.2810   47.6330 C   0  0  0  0  0  0  0  0  0  0  0  0
   61.1420   31.1500   46.7560 C   0  0  0  0  0  0  0  0  0  0  0  0
   62.2210   31.9150   47.2050 C   0  0  0  0  0  0  0  0  0  0  0  0
   62.6410   31.8240   48.5350 C   0  0  0  0  0  0  0  0  0  0  0  0
   63.9910   32.7940   49.1000 Cl  0  0  0  0  0  0  0  0  0  0  0  0
   61.9760   30.9680   49.4180 C   0  0  0  0  0  0  0  0  0  0  0  0
   60.8890   30.1990   48.9790 C   0  0  0  0  0  0  0  0  0  0  0  0
   60.0830   29.1540   50.1450 Cl  0  0  0  0  0  0  0  0  0  0  0  0
   58.1502   30.2532   43.0921 H   0  0  0  0  0  0  0  0  0  0  0  0
   56.5556   30.8309   42.4763 H   0  0  0  0  0  0  0  0  0  0  0  0
   58.7950   32.3672   43.5460 H   0  0  0  0  0  0  0  0  0  0  0  0
   57.2681   32.9303   42.7381 H   0  0  0  0  0  0  0  0  0  0  0  0
   56.3343   33.5517   44.6803 H   0  0  0  0  0  0  0  0  0  0  0  0
   56.8668   32.0274   45.5064 H   0  0  0  0  0  0  0  0  0  0  0  0
   58.9992   35.0325   44.0778 H   0  0  0  0  0  0  0  0  0  0  0  0
   60.5430   35.9270   45.9800 H   0  0  0  0  0  0  0  0  0  0  0  0
   60.9451   35.3360   48.6328 H   0  0  0  0  0  0  0  0  0  0  0  0
   60.1541   33.8231   50.4877 H   0  0  0  0  0  0  0  0  0  0  0  0
   58.3592   32.1298   50.0508 H   0  0  0  0  0  0  0  0  0  0  0  0
   57.3452   31.9226   47.7519 H   0  0  0  0  0  0  0  0  0  0  0  0
   59.1306   29.3591   44.9859 H   0  0  0  0  0  0  0  0  0  0  0  0
   59.2387   31.0471   45.5990 H   0  0  0  0  0  0  0  0  0  0  0  0
   58.4304   29.6586   47.8595 H   0  0  0  0  0  0  0  0  0  0  0  0
   59.5132   28.4679   47.0340 H   0  0  0  0  0  0  0  0  0  0  0  0
   60.8172   31.2276   45.7079 H   0  0  0  0  0  0  0  0  0  0  0  0
   62.7414   32.5906   46.5103 H   0  0  0  0  0  0  0  0  0  0  0  0
   62.3079   30.8974   50.4643 H   0  0  0  0  0  0  0  0  0  0  0  0
  1  2  2  0
  2  3  1  0
  3  4  1  0
  4  5  1  0
  5  6  1  0
  6  7  2  0
  7  8  1  0
  8  9  1  0
  9 10  2  0
 10 11  1  0
 11 12  2  0
 12 13  1  0
 13 14  2  0
  2 15  1  0
 15 16  1  0
 16 17  1  0
 17 18  1  0
 18 19  2  0
 19 20  1  0
 20 21  2  0
 21 22  1  0
 21 23  1  0
 23 24  2  0
 24 25  1  0
 14  6  1  0
 24 18  1  0
 14  9  1  0
  3 26  1  0
  3 27  1  0
  4 28  1  0
  4 29  1  0
  5 30  1  0
  5 31  1  0
  7 32  1  0
  8 33  1  0
 10 34  1  0
 11 35  1  0
 12 36  1  0
 13 37  1  0
 16 38  1  0
 16 39  1  0
 17 40  1  0
 17 41  1  0
 19 42  1  0
 20 43  1  0
 23 44  1  0
M  CHG  1  15  -1
M  END
>  <UniqueID>  (28) 
27

>  <SMILES>  (28) 
O=C(CCCc1c[nH]c2ccccc12)[N-]CCc1ccc(Cl)cc1Cl

>  <Energy>  (28) 
68.06309324691584

>  <Genealogy>  (28) 
O=C(CCCc1c[nH]c2ccccc12)[N-]CCc1ccc(Cl)cc1Cl (protonated)
O=C(CCCc1c[nH]c2ccccc12)[N-]CCc1ccc(Cl)cc1Cl (3D coordinates assigned)
O=C(CCCc1c[nH]c2ccccc12)[N-]CCc1ccc(Cl)cc1Cl (optimized conformer: 68.06309324691584 kcal/mol)

>  <smiles>  (28) 
O=C(CCCc1c[nH]c2ccccc12)NCCc1ccc(Cl)cc1Cl

>  <score_type>  (28) 
oracle

>  <origin>  (28) 
adg

>  <m_score__min__energy>  (28) 
-10.16

>  <m_primary>  (28) 
energy

$$$$
28:0
     RDKit          3D

 50 53  0  0  0  0  0  0  0  0999 V2000
   58.4720   28.3350   46.6570 C   0  0  0  0  0  0  0  0  0  0  0  0
   58.1480   28.6240   45.3870 C   0  0  0  0  0  0  0  0  0  0  0  0
   57.6260   27.7460   44.4220 C   0  0  0  0  0  0  0  0  0  0  0  0
   57.4960   26.4060   44.4260 C   0  0  0  0  0  0  0  0  0  0  0  0
   57.1070   25.5890   45.5850 C   0  0  0  0  0  0  0  0  0  0  0  0
   57.8840   24.6480   46.1560 N   0  0  0  0  0  0  0  0  0  0  0  0
   57.0720   24.0940   47.0820 C   0  0  0  0  0  0  0  0  0  0  0  0
   57.4470   23.1640   47.8430 O   0  0  0  0  0  0  0  0  0  0  0  0
   55.8220   24.6060   47.1190 N   0  0  0  0  0  0  0  0  0  0  0  0
   55.8590   25.5410   46.1540 C   0  0  0  0  0  0  0  0  0  0  0  0
   54.7720   26.3350   45.7970 O   0  0  0  0  0  0  0  0  0  0  0  0
   57.2170   28.5350   43.3590 C   0  0  0  0  0  0  0  0  0  0  0  0
   57.5590   29.8360   43.6720 C   0  0  0  0  0  0  0  0  0  0  0  0
   57.2880   31.0210   42.7970 C   0  0  0  0  0  0  0  0  0  0  0  0
   58.1220   29.8910   44.9000 N   0  0  0  0  0  0  0  0  0  0  0  0
   58.5240   31.0910   45.5850 C   0  0  0  0  0  0  0  0  0  0  0  0
   57.7320   32.2450   45.5120 C   0  0  0  0  0  0  0  0  0  0  0  0
   58.1060   33.4020   46.1990 C   0  0  0  0  0  0  0  0  0  0  0  0
   59.2780   33.4180   46.9770 C   0  0  0  0  0  0  0  0  0  0  0  0
   59.6590   34.6230   47.7480 C   0  0  0  0  0  0  0  0  0  0  0  0
   59.8720   35.7030   47.1360 O   0  0  0  0  0  0  0  0  0  0  0  0
   59.7940   34.6010   49.1770 N   0  0  0  0  0  0  0  0  0  0  0  0
   60.7090   33.7770   49.9170 C   0  0  0  0  0  0  0  0  0  0  0  0
   62.0480   34.1860   49.9950 C   0  0  0  0  0  0  0  0  0  0  0  0
   62.9620   33.4850   50.7840 C   0  0  0  0  0  0  0  0  0  0  0  0
   62.5510   32.3580   51.4950 C   0  0  0  0  0  0  0  0  0  0  0  0
   61.2310   31.9130   51.4000 C   0  0  0  0  0  0  0  0  0  0  0  0
   60.2990   32.5960   50.5930 C   0  0  0  0  0  0  0  0  0  0  0  0
   58.9470   32.0180   50.4290 C   0  0  0  0  0  0  0  0  0  0  0  0
   57.8500   32.5340   51.1800 N   0  0  0  0  0  0  0  0  0  0  0  0
   58.7580   31.0480   49.6460 O   0  0  0  0  0  0  0  0  0  0  0  0
   60.0860   32.2690   47.0230 C   0  0  0  0  0  0  0  0  0  0  0  0
   59.7040   31.1110   46.3390 C   0  0  0  0  0  0  0  0  0  0  0  0
   58.8745   29.1199   47.3142 H   0  0  0  0  0  0  0  0  0  0  0  0
   58.3351   27.3132   47.0407 H   0  0  0  0  0  0  0  0  0  0  0  0
   57.6978   25.8777   43.4825 H   0  0  0  0  0  0  0  0  0  0  0  0
   54.7690   27.3290   45.9970 H   0  0  0  0  0  0  0  0  0  0  0  0
   56.7161   28.1912   42.4420 H   0  0  0  0  0  0  0  0  0  0  0  0
   57.0866   31.9017   43.4245 H   0  0  0  0  0  0  0  0  0  0  0  0
   58.1647   31.2160   42.1619 H   0  0  0  0  0  0  0  0  0  0  0  0
   56.4136   30.8156   42.1619 H   0  0  0  0  0  0  0  0  0  0  0  0
   56.8110   32.2394   44.9105 H   0  0  0  0  0  0  0  0  0  0  0  0
   57.4813   34.3049   46.1315 H   0  0  0  0  0  0  0  0  0  0  0  0
   62.3817   35.0681   49.4288 H   0  0  0  0  0  0  0  0  0  0  0  0
   64.0073   33.8220   50.8448 H   0  0  0  0  0  0  0  0  0  0  0  0
   63.2678   31.8188   52.1317 H   0  0  0  0  0  0  0  0  0  0  0  0
   60.9154   31.0207   51.9605 H   0  0  0  0  0  0  0  0  0  0  0  0
   56.9140   32.6730   50.7370 H   0  0  0  0  0  0  0  0  0  0  0  0
   61.0228   32.2808   47.5995 H   0  0  0  0  0  0  0  0  0  0  0  0
   60.3337   30.2107   46.3934 H   0  0  0  0  0  0  0  0  0  0  0  0
  1  2  2  0
  2  3  1  0
  3  4  2  3
  4  5  1  0
  5  6  1  0
  6  7  1  0
  7  8  2  0
  7  9  1  0
  9 10  1  0
 10 11  1  0
  3 12  1  0
 12 13  2  0
 13 14  1  0
 13 15  1  0
 15 16  1  0
 16 17  2  0
 17 18  1  0
 18 19  2  0
 19 20  1  0
 20 21  2  0
 20 22  1  0
 22 23  1  0
 23 24  2  0
 24 25  1  0
 25 26  2  0
 26 27  1  0
 27 28  2  0
 28 29  1  0
 29 30  1  0
 29 31  2  0
 19 32  1  0
 32 33  2  0
 15  2  1  0
 33 16  1  0
 10  5  2  0
 28 23  1  0
  1 34  1  0
  1 35  1  0
  4 36  1  0
 11 37  1  0
 12 38  1  0
 14 39  1  0
 14 40  1  0
 14 41  1  0
 17 42  1  0
 18 43  1  0
 24 44  1  0
 25 45  1  0
 26 46  1  0
 27 47  1  0
 30 48  1  0
 32 49  1  0
 33 50  1  0
M  CHG  4   6  -1   9  -1  22  -1  30  -1
M  END
>  <UniqueID>  (29) 
28

>  <SMILES>  (29) 
C=c1c(=Cc2[n-]c(=O)[n-]c2O)cc(C)n1-c1ccc(C(=O)[N-]c2ccccc2C([NH-])=O)cc1

>  <Energy>  (29) 
140.22826592565315

>  <Genealogy>  (29) 
C=c1c(=Cc2[n-]c(=O)[n-]c2O)cc(C)n1-c1ccc(C(=O)[N-]c2ccccc2C([NH-])=O)cc1 (protonated)
C=c1c(=Cc2[n-]c(=O)[n-]c2O)cc(C)n1-c1ccc(C(=O)[N-]c2ccccc2C([NH-])=O)cc1 (3D coordinates assigned)
C=c1c(=Cc2[n-]c(=O)[n-]c2O)cc(C)n1-c1ccc(C(=O)[N-]c2ccccc2C([NH-])=O)cc1 (optimized conformer: 140.22826592565315 kcal/mol)

>  <smiles>  (29) 
C=c1c(=Cc2[nH]c(=O)[nH]c2O)cc(C)n1-c1ccc(C(=O)Nc2ccccc2C(N)=O)cc1

>  <score_type>  (29) 
oracle

>  <origin>  (29) 
adg

>  <m_score__min__energy>  (29) 
-15.550000000000001

>  <m_primary>  (29) 
energy

$$$$
29:0
     RDKit          3D

 49 52  0  0  0  0  0  0  0  0999 V2000
   59.7225   26.2871   44.5400 H   0  0  0  0  0  0  0  0  0  0  0  0
   58.6760   26.3680   44.8690 C   0  0  0  0  0  0  0  0  0  0  0  0
   58.0600   27.5790   44.8820 N   0  0  0  0  0  0  0  0  0  0  0  0
   56.7660   27.7430   45.2740 C   0  0  0  0  0  0  0  0  0  0  0  0
   56.2700   28.9490   45.2330 N   0  0  0  0  0  0  0  0  0  0  0  0
   56.9290   30.1810   44.9210 C   0  0  0  0  0  0  0  0  0  0  0  0
   56.4550   30.9160   44.0140 O   0  0  0  0  0  0  0  0  0  0  0  0
   58.0730   30.6000   45.6790 N   0  0  0  0  0  0  0  0  0  0  0  0
   58.4270   30.1820   47.0060 C   0  0  0  0  0  0  0  0  0  0  0  0
   58.6280   28.8280   47.3290 C   0  0  0  0  0  0  0  0  0  0  0  0
   58.4957   28.0560   46.5567 H   0  0  0  0  0  0  0  0  0  0  0  0
   58.9950   28.4580   48.6260 C   0  0  0  0  0  0  0  0  0  0  0  0
   59.1473   27.3962   48.8696 H   0  0  0  0  0  0  0  0  0  0  0  0
   59.1700   29.4330   49.6180 C   0  0  0  0  0  0  0  0  0  0  0  0
   59.6000   29.0370   51.0050 C   0  0  0  0  0  0  0  0  0  0  0  0
   59.0560   28.1298   51.3068 H   0  0  0  0  0  0  0  0  0  0  0  0
   60.6835   28.8472   50.9994 H   0  0  0  0  0  0  0  0  0  0  0  0
   59.3010   30.1580   52.0030 C   0  0  0  0  0  0  0  0  0  0  0  0
   60.2327   30.6952   52.2339 H   0  0  0  0  0  0  0  0  0  0  0  0
   58.5676   30.8456   51.5566 H   0  0  0  0  0  0  0  0  0  0  0  0
   58.7450   29.6100   53.2350 N   0  0  0  0  0  0  0  0  0  0  0  0
   57.4130   29.0920   53.3470 C   0  0  0  0  0  0  0  0  0  0  0  0
   57.2360   27.9400   53.8300 O   0  0  0  0  0  0  0  0  0  0  0  0
   56.2430   29.8920   52.8930 C   0  0  0  0  0  0  0  0  0  0  0  0
   55.0090   29.2560   52.6720 C   0  0  0  0  0  0  0  0  0  0  0  0
   54.9130   28.1724   52.8350 H   0  0  0  0  0  0  0  0  0  0  0  0
   53.9050   29.9970   52.2460 C   0  0  0  0  0  0  0  0  0  0  0  0
   52.6590   29.3930   52.0160 C   0  0  0  0  0  0  0  0  0  0  0  0
   52.5337   28.3112   52.1712 H   0  0  0  0  0  0  0  0  0  0  0  0
   51.5770   30.1700   51.5890 C   0  0  0  0  0  0  0  0  0  0  0  0
   50.6008   29.6970   51.4067 H   0  0  0  0  0  0  0  0  0  0  0  0
   51.7320   31.5460   51.3930 C   0  0  0  0  0  0  0  0  0  0  0  0
   50.6530   32.3120   50.9700 O   0  0  0  0  0  0  0  0  0  0  0  0
   52.9730   32.1520   51.6220 C   0  0  0  0  0  0  0  0  0  0  0  0
   53.0927   33.2344   51.4667 H   0  0  0  0  0  0  0  0  0  0  0  0
   54.0610   31.3830   52.0480 C   0  0  0  0  0  0  0  0  0  0  0  0
   55.2370   31.9600   52.2650 O   0  0  0  0  0  0  0  0  0  0  0  0
   56.3110   31.2870   52.6700 C   0  0  0  0  0  0  0  0  0  0  0  0
   57.3840   31.9210   52.8520 O   0  0  0  0  0  0  0  0  0  0  0  0
   59.0080   30.7870   49.2880 C   0  0  0  0  0  0  0  0  0  0  0  0
   59.1701   31.5601   50.0535 H   0  0  0  0  0  0  0  0  0  0  0  0
   58.6410   31.1590   47.9890 C   0  0  0  0  0  0  0  0  0  0  0  0
   58.4850   32.5060   47.6820 O   0  0  0  0  0  0  0  0  0  0  0  0
   56.0480   26.6090   45.7370 C   0  0  0  0  0  0  0  0  0  0  0  0
   54.7710   26.7020   46.2740 O   0  0  0  0  0  0  0  0  0  0  0  0
   56.6670   25.3540   45.7100 C   0  0  0  0  0  0  0  0  0  0  0  0
   56.1115   24.4624   46.0362 H   0  0  0  0  0  0  0  0  0  0  0  0
   57.9830   25.2290   45.2720 C   0  0  0  0  0  0  0  0  0  0  0  0
   58.4693   24.2427   45.2446 H   0  0  0  0  0  0  0  0  0  0  0  0
  1  2  1  0
  2  3  1  0
  3  4  1  0
  4  5  2  0
  5  6  1  0
  6  7  2  0
  6  8  1  0
  8  9  1  0
  9 10  2  0
 10 11  1  0
 10 12  1  0
 12 13  1  0
 12 14  2  0
 14 15  1  0
 15 16  1  0
 15 17  1  0
 15 18  1  0
 18 19  1  0
 18 20  1  0
 18 21  1  0
 21 22  1  0
 22 23  2  0
 22 24  1  0
 24 25  2  0
 25 26  1  0
 25 27  1  0
 27 28  2  0
 28 29  1  0
 28 30  1  0
 30 31  1  0
 30 32  2  0
 32 33  1  0
 32 34  1  0
 34 35  1  0
 34 36  2  0
 36 37  1  0
 37 38  1  0
 38 39  2  0
 14 40  1  0
 40 41  1  0
 40 42  2  0
 42 43  1  0
  4 44  1  0
 44 45  1  0
 44 46  2  0
 46 47  1  0
 46 48  1  0
 48 49  1  0
 48  2  2  0
 42  9  1  0
 38 24  1  0
 36 27  1  0
M  CHG  6   3  -1   8  -1  21  -1  33  -1  43  -1  45  -1
M  END
>  <UniqueID>  (30) 
29

>  <SMILES>  (30) 
O=C(/N=c1/[n-]cccc1[O-])[N-]c1ccc(CC[N-]C(=O)c2cc3ccc([O-])cc3oc2=O)cc1[O-]

>  <Energy>  (30) 
73.38285503158163

>  <Genealogy>  (30) 
O=C(N=c1[n-]cccc1[O-])[N-]c1ccc(CC[N-]C(=O)c2cc3ccc([O-])cc3oc2=O)cc1[O-] (protonated)
O=C(/N=c1/[n-]cccc1[O-])[N-]c1ccc(CC[N-]C(=O)c2cc3ccc([O-])cc3oc2=O)cc1[O-] (cis-trans isomerization)
O=C(/N=c1/[n-]cccc1[O-])[N-]c1ccc(CC[N-]C(=O)c2cc3ccc([O-])cc3oc2=O)cc1[O-] (3D coordinates assigned)
O=C(/N=c1/[n-]cccc1[O-])[N-]c1ccc(CC[N-]C(=O)c2cc3ccc([O-])cc3oc2=O)cc1[O-] (optimized conformer: 73.38285503158163 kcal/mol)

>  <smiles>  (30) 
O=C(N=c1[nH]cccc1O)Nc1ccc(CCNC(=O)c2cc3ccc(O)cc3oc2=O)cc1O

>  <score_type>  (30) 
oracle

>  <origin>  (30) 
adg

>  <m_score__min__energy>  (30) 
-20

>  <m_primary>  (30) 
energy

$$$$
30:0
     RDKit          3D

 48 51  0  0  0  0  0  0  0  0999 V2000
   55.9620   29.2940   45.1790 O   0  0  0  0  0  0  0  0  0  0  0  0
   56.7230   29.5500   44.2050 C   0  0  0  0  0  0  0  0  0  0  0  0
   56.2320   30.4470   43.1090 C   0  0  0  0  0  0  0  0  0  0  0  0
   57.5500   31.5870   42.5560 S   0  0  0  0  0  0  0  0  0  0  0  0
   57.7820   32.3560   44.1570 C   0  0  0  0  0  0  0  0  0  0  0  0
   57.0400   32.0600   45.2460 N   0  0  0  0  0  0  0  0  0  0  0  0
   57.3670   32.7850   46.3140 N   0  0  0  0  0  0  0  0  0  0  0  0
   58.3700   33.6580   46.0810 C   0  0  0  0  0  0  0  0  0  0  0  0
   58.7920   34.4840   46.9930 N   0  0  0  0  0  0  0  0  0  0  0  0
   59.7370   34.2120   48.0390 C   0  0  0  0  0  0  0  0  0  0  0  0
   59.3730   34.1470   49.2440 O   0  0  0  0  0  0  0  0  0  0  0  0
   61.1520   34.0280   47.6980 C   0  0  0  0  0  0  0  0  0  0  0  0
   62.1870   33.8270   48.5910 C   0  0  0  0  0  0  0  0  0  0  0  0
   63.3220   33.6970   47.8200 C   0  0  0  0  0  0  0  0  0  0  0  0
   62.9140   33.8290   46.5080 C   0  0  0  0  0  0  0  0  0  0  0  0
   61.6140   34.0240   46.4690 O   0  0  0  0  0  0  0  0  0  0  0  0
   58.9150   33.5580   44.4840 S   0  0  0  0  0  0  0  0  0  0  0  0
   58.0130   28.9290   44.1040 N   0  0  0  0  0  0  0  0  0  0  0  0
   58.3760   27.8100   44.9220 C   0  0  0  0  0  0  0  0  0  0  0  0
   58.0400   26.5190   44.4910 C   0  0  0  0  0  0  0  0  0  0  0  0
   58.3260   25.4080   45.2860 C   0  0  0  0  0  0  0  0  0  0  0  0
   58.9600   25.5780   46.5130 C   0  0  0  0  0  0  0  0  0  0  0  0
   59.3230   26.8560   46.9460 C   0  0  0  0  0  0  0  0  0  0  0  0
   59.0450   27.9810   46.1570 C   0  0  0  0  0  0  0  0  0  0  0  0
   59.5030   29.2760   46.5860 N   0  0  0  0  0  0  0  0  0  0  0  0
   60.7510   29.8290   46.0480 C   0  0  0  0  0  0  0  0  0  0  0  0
   61.3770   30.7890   47.0660 C   0  0  0  0  0  0  0  0  0  0  0  0
   61.1910   30.2770   48.3700 O   0  0  0  0  0  0  0  0  0  0  0  0
   59.8330   30.3990   48.7670 C   0  0  0  0  0  0  0  0  0  0  0  0
   58.8230   29.9870   47.6730 C   0  0  0  0  0  0  0  0  0  0  0  0
   55.9088   29.8306   42.2572 H   0  0  0  0  0  0  0  0  0  0  0  0
   55.3915   31.0432   43.4940 H   0  0  0  0  0  0  0  0  0  0  0  0
   62.1193   33.7805   49.6879 H   0  0  0  0  0  0  0  0  0  0  0  0
   64.3473   33.5230   48.1783 H   0  0  0  0  0  0  0  0  0  0  0  0
   63.5747   33.7788   45.6300 H   0  0  0  0  0  0  0  0  0  0  0  0
   58.5790   29.1080   43.2430 H   0  0  0  0  0  0  0  0  0  0  0  0
   57.5466   26.3804   43.5177 H   0  0  0  0  0  0  0  0  0  0  0  0
   58.0507   24.3997   44.9432 H   0  0  0  0  0  0  0  0  0  0  0  0
   59.1761   24.7034   47.1442 H   0  0  0  0  0  0  0  0  0  0  0  0
   59.8310   26.9804   47.9137 H   0  0  0  0  0  0  0  0  0  0  0  0
   61.4538   29.0087   45.8400 H   0  0  0  0  0  0  0  0  0  0  0  0
   60.5340   30.3768   45.1191 H   0  0  0  0  0  0  0  0  0  0  0  0
   62.4531   30.8902   46.8615 H   0  0  0  0  0  0  0  0  0  0  0  0
   60.8952   31.7746   46.9861 H   0  0  0  0  0  0  0  0  0  0  0  0
   59.6705   29.7597   49.6473 H   0  0  0  0  0  0  0  0  0  0  0  0
   59.6566   31.4635   48.9807 H   0  0  0  0  0  0  0  0  0  0  0  0
   58.0602   29.3287   48.1143 H   0  0  0  0  0  0  0  0  0  0  0  0
   58.3523   30.8935   47.2647 H   0  0  0  0  0  0  0  0  0  0  0  0
  1  2  2  0
  2  3  1  0
  3  4  1  0
  4  5  1  0
  5  6  2  0
  6  7  1  0
  7  8  1  0
  8  9  2  3
  9 10  1  0
 10 11  2  0
 10 12  1  0
 12 13  2  0
 13 14  1  0
 14 15  2  0
 15 16  1  0
  8 17  1  0
  2 18  1  0
 18 19  1  0
 19 20  2  0
 20 21  1  0
 21 22  2  0
 22 23  1  0
 23 24  2  0
 24 25  1  0
 25 26  1  0
 26 27  1  0
 27 28  1  0
 28 29  1  0
 29 30  1  0
 17  5  1  0
 24 19  1  0
 30 25  1  0
 16 12  1  0
  3 31  1  0
  3 32  1  0
 13 33  1  0
 14 34  1  0
 15 35  1  0
 18 36  1  0
 20 37  1  0
 21 38  1  0
 22 39  1  0
 23 40  1  0
 26 41  1  0
 26 42  1  0
 27 43  1  0
 27 44  1  0
 29 45  1  0
 29 46  1  0
 30 47  1  0
 30 48  1  0
M  CHG  1   7  -1
M  END
>  <UniqueID>  (31) 
30

>  <SMILES>  (31) 
O=C(CSc1n[n-]c(=NC(=O)c2ccco2)s1)Nc1ccccc1N1CCOCC1

>  <Energy>  (31) 
125.38757973285554

>  <Genealogy>  (31) 
O=C(CSc1n[n-]c(=NC(=O)c2ccco2)s1)Nc1ccccc1N1CCOCC1 (protonated)
O=C(CSc1n[n-]c(=NC(=O)c2ccco2)s1)Nc1ccccc1N1CCOCC1 (3D coordinates assigned)
O=C(CSc1n[n-]c(=NC(=O)c2ccco2)s1)Nc1ccccc1N1CCOCC1 (nonaromatic ring conformer: 125.38757973285554 kcal/mol)

>  <smiles>  (31) 
O=C(CSc1n[nH]c(=NC(=O)c2ccco2)s1)Nc1ccccc1N1CCOCC1

>  <score_type>  (31) 
oracle

>  <origin>  (31) 
adg

>  <m_score__min__energy>  (31) 
-11.140000000000001

>  <m_primary>  (31) 
energy

$$$$
31:0
     RDKit          3D

 65 69  0  0  0  0  0  0  0  0999 V2000
   57.3310   26.7300   46.5940 O   0  0  0  0  0  0  0  0  0  0  0  0
   58.0200   27.7740   46.7630 C   0  0  0  0  0  0  0  0  0  0  0  0
   59.5030   27.6560   47.0030 C   0  0  0  0  0  0  0  0  0  0  0  0
   59.9030   28.3770   48.2250 N   0  0  0  0  0  0  0  0  0  0  0  0
   59.5740   29.6970   48.3500 C   0  0  0  0  0  0  0  0  0  0  0  0
   59.9300   30.4010   49.4550 N   0  0  0  0  0  0  0  0  0  0  0  0
   60.6300   29.8180   50.4710 C   0  0  0  0  0  0  0  0  0  0  0  0
   60.9800   30.5570   51.6230 C   0  0  0  0  0  0  0  0  0  0  0  0
   60.5900   31.9030   51.7120 O   0  0  0  0  0  0  0  0  0  0  0  0
   61.4690   32.9860   52.0040 C   0  0  0  0  0  0  0  0  0  0  0  0
   62.6670   32.9010   51.1000 C   0  0  0  0  0  0  0  0  0  0  0  0
   62.5090   33.0950   49.7150 C   0  0  0  0  0  0  0  0  0  0  0  0
   63.6040   32.9810   48.8540 C   0  0  0  0  0  0  0  0  0  0  0  0
   63.3960   33.2310   47.1280 Cl  0  0  0  0  0  0  0  0  0  0  0  0
   64.8660   32.6640   49.3650 C   0  0  0  0  0  0  0  0  0  0  0  0
   65.0320   32.4540   50.7350 C   0  0  0  0  0  0  0  0  0  0  0  0
   63.9410   32.5640   51.6060 C   0  0  0  0  0  0  0  0  0  0  0  0
   64.1990   32.2500   53.3190 Cl  0  0  0  0  0  0  0  0  0  0  0  0
   61.7050   29.9260   52.6520 C   0  0  0  0  0  0  0  0  0  0  0  0
   62.0760   28.5840   52.5390 C   0  0  0  0  0  0  0  0  0  0  0  0
   61.7300   27.8530   51.4040 C   0  0  0  0  0  0  0  0  0  0  0  0
   61.0020   28.4600   50.3640 C   0  0  0  0  0  0  0  0  0  0  0  0
   60.6240   27.7520   49.2110 C   0  0  0  0  0  0  0  0  0  0  0  0
   60.9510   26.5380   49.0840 O   0  0  0  0  0  0  0  0  0  0  0  0
   57.4010   29.0500   46.5490 N   0  0  0  0  0  0  0  0  0  0  0  0
   57.1180   29.6340   45.2710 C   0  0  0  0  0  0  0  0  0  0  0  0
   55.9620   29.2590   44.5670 C   0  0  0  0  0  0  0  0  0  0  0  0
   55.7070   29.7740   43.2960 C   0  0  0  0  0  0  0  0  0  0  0  0
   56.6130   30.6560   42.7050 C   0  0  0  0  0  0  0  0  0  0  0  0
   57.7780   31.0200   43.3830 C   0  0  0  0  0  0  0  0  0  0  0  0
   58.0530   30.5050   44.6640 C   0  0  0  0  0  0  0  0  0  0  0  0
   59.2770   30.9480   45.3750 C   0  0  0  0  0  0  0  0  0  0  0  0
   60.2020   30.1200   45.5980 O   0  0  0  0  0  0  0  0  0  0  0  0
   59.4110   32.2970   45.8630 N   0  0  0  0  0  0  0  0  0  0  0  0
   60.0540   32.5240   47.1640 C   0  0  0  0  0  0  0  0  0  0  0  0
   60.0210   34.0070   47.5640 C   0  0  0  0  0  0  0  0  0  0  0  0
   58.6450   34.6050   47.2550 C   0  0  0  0  0  0  0  0  0  0  0  0
   58.2760   34.5000   45.7600 C   0  0  0  0  0  0  0  0  0  0  0  0
   59.0890   33.4400   44.9960 C   0  0  0  0  0  0  0  0  0  0  0  0
   59.7658   26.5933   47.1108 H   0  0  0  0  0  0  0  0  0  0  0  0
   60.0314   28.1006   46.1468 H   0  0  0  0  0  0  0  0  0  0  0  0
   59.0137   30.1957   47.5454 H   0  0  0  0  0  0  0  0  0  0  0  0
   59.6530   31.4070   49.5050 H   0  0  0  0  0  0  0  0  0  0  0  0
   60.9474   33.9399   51.8364 H   0  0  0  0  0  0  0  0  0  0  0  0
   61.7912   32.9305   53.0543 H   0  0  0  0  0  0  0  0  0  0  0  0
   61.5167   33.3381   49.3073 H   0  0  0  0  0  0  0  0  0  0  0  0
   65.7284   32.5800   48.6874 H   0  0  0  0  0  0  0  0  0  0  0  0
   66.0258   32.2006   51.1328 H   0  0  0  0  0  0  0  0  0  0  0  0
   61.9815   30.4945   53.5522 H   0  0  0  0  0  0  0  0  0  0  0  0
   62.6434   28.1024   53.3490 H   0  0  0  0  0  0  0  0  0  0  0  0
   62.0272   26.7972   51.3208 H   0  0  0  0  0  0  0  0  0  0  0  0
   55.2516   28.5531   45.0219 H   0  0  0  0  0  0  0  0  0  0  0  0
   54.7914   29.4849   42.7592 H   0  0  0  0  0  0  0  0  0  0  0  0
   56.4090   31.0647   41.7043 H   0  0  0  0  0  0  0  0  0  0  0  0
   58.4877   31.7158   42.9117 H   0  0  0  0  0  0  0  0  0  0  0  0
   59.5261   31.9366   47.9297 H   0  0  0  0  0  0  0  0  0  0  0  0
   61.1064   32.2139   47.0847 H   0  0  0  0  0  0  0  0  0  0  0  0
   60.2236   34.0978   48.6414 H   0  0  0  0  0  0  0  0  0  0  0  0
   60.7868   34.5513   46.9920 H   0  0  0  0  0  0  0  0  0  0  0  0
   57.8869   34.0679   47.8439 H   0  0  0  0  0  0  0  0  0  0  0  0
   58.6789   35.6730   47.5163 H   0  0  0  0  0  0  0  0  0  0  0  0
   57.2095   34.2421   45.6827 H   0  0  0  0  0  0  0  0  0  0  0  0
   58.5062   35.4735   45.3025 H   0  0  0  0  0  0  0  0  0  0  0  0
   58.5004   33.0854   44.1371 H   0  0  0  0  0  0  0  0  0  0  0  0
   60.0296   33.8978   44.6559 H   0  0  0  0  0  0  0  0  0  0  0  0
  1  2  2  0
  2  3  1  0
  3  4  1  0
  4  5  1  0
  5  6  2  0
  6  7  1  0
  7  8  2  0
  8  9  1  0
  9 10  1  0
 10 11  1  0
 11 12  2  0
 12 13  1  0
 13 14  1  0
 13 15  2  0
 15 16  1  0
 16 17  2  0
 17 18  1  0
  8 19  1  0
 19 20  2  0
 20 21  1  0
 21 22  2  0
 22 23  1  0
 23 24  2  0
  2 25  1  0
 25 26  1  0
 26 27  2  0
 27 28  1  0
 28 29  2  0
 29 30  1  0
 30 31  2  0
 31 32  1  0
 32 33  2  0
 32 34  1  0
 34 35  1  0
 35 36  1  0
 36 37  1  0
 37 38  1  0
 38 39  1  0
 23  4  1  0
 31 26  1  0
 39 34  1  0
 22  7  1  0
 17 11  1  0
  3 40  1  0
  3 41  1  0
  5 42  1  0
  6 43  1  0
 10 44  1  0
 10 45  1  0
 12 46  1  0
 15 47  1  0
 16 48  1  0
 19 49  1  0
 20 50  1  0
 21 51  1  0
 27 52  1  0
 28 53  1  0
 29 54  1  0
 30 55  1  0
 35 56  1  0
 35 57  1  0
 36 58  1  0
 36 59  1  0
 37 60  1  0
 37 61  1  0
 38 62  1  0
 38 63  1  0
 39 64  1  0
 39 65  1  0
M  CHG  2   6   1  25  -1
M  END
>  <UniqueID>  (32) 
31

>  <SMILES>  (32) 
O=C(Cn1c[nH+]c2c(OCc3cc(Cl)ccc3Cl)cccc2c1=O)[N-]c1ccccc1C(=O)N1CCCCC1

>  <Energy>  (32) 
90.13559249866316

>  <Genealogy>  (32) 
O=C(Cn1c[nH+]c2c(OCc3cc(Cl)ccc3Cl)cccc2c1=O)[N-]c1ccccc1C(=O)N1CCCCC1 (protonated)
O=C(Cn1c[nH+]c2c(OCc3cc(Cl)ccc3Cl)cccc2c1=O)[N-]c1ccccc1C(=O)N1CCCCC1 (3D coordinates assigned)
O=C(Cn1c[nH+]c2c(OCc3cc(Cl)ccc3Cl)cccc2c1=O)[N-]c1ccccc1C(=O)N1CCCCC1 (nonaromatic ring conformer: 90.13559249866316 kcal/mol)

>  <smiles>  (32) 
O=C(Cn1cnc2c(OCc3cc(Cl)ccc3Cl)cccc2c1=O)Nc1ccccc1C(=O)N1CCCCC1

>  <score_type>  (32) 
oracle

>  <origin>  (32) 
adg

>  <m_score__min__energy>  (32) 
-11.25

>  <m_primary>  (32) 
energy

$$$$
32:0
     RDKit          3D

 48 50  0  0  0  0  0  0  0  0999 V2000
   64.4130   33.0170   48.6670 C   0  0  0  0  0  0  0  0  0  0  0  0
   63.0060   33.1920   48.2000 C   0  0  0  0  0  0  0  0  0  0  0  0
   62.1020   34.1200   48.6820 C   0  0  0  0  0  0  0  0  0  0  0  0
   60.9160   33.8100   48.0380 C   0  0  0  0  0  0  0  0  0  0  0  0
   59.6040   34.4920   48.2700 C   0  0  0  0  0  0  0  0  0  0  0  0
   61.1190   32.7430   47.2320 N   0  0  0  0  0  0  0  0  0  0  0  0
   60.1210   32.0170   46.4440 C   0  0  0  0  0  0  0  0  0  0  0  0
   60.2740   30.5350   46.6550 C   0  0  0  0  0  0  0  0  0  0  0  0
   61.2360   30.1270   47.3600 O   0  0  0  0  0  0  0  0  0  0  0  0
   59.3620   29.5800   46.0820 N   0  0  0  0  0  0  0  0  0  0  0  0
   59.5520   28.9160   44.8010 C   0  0  0  0  0  0  0  0  0  0  0  0
   58.3580   27.9770   44.6280 C   0  0  0  0  0  0  0  0  0  0  0  0
   57.3660   28.3330   45.7470 C   0  0  2  0  0  0  0  0  0  0  0  0
   56.1640   29.0410   45.2460 N   0  0  0  0  0  0  0  0  0  0  0  0
   56.2720   29.7000   43.9270 C   0  0  0  0  0  0  0  0  0  0  0  0
   56.9410   31.0430   44.0050 C   0  0  0  0  0  0  0  0  0  0  0  0
   57.7620   31.5990   43.0400 C   0  0  0  0  0  0  0  0  0  0  0  0
   58.1070   32.8320   43.5540 C   0  0  0  0  0  0  0  0  0  0  0  0
   57.5050   32.9760   44.7500 N   0  0  0  0  0  0  0  0  0  0  0  0
   57.6270   34.1210   45.6420 C   0  0  0  0  0  0  0  0  0  0  0  0
   56.8030   31.8930   45.0400 N   0  0  0  0  0  0  0  0  0  0  0  0
   58.1660   29.1330   46.7760 C   0  0  0  0  0  0  0  0  0  0  0  0
   62.3830   32.3650   47.3410 N   0  0  0  0  0  0  0  0  0  0  0  0
   64.4366   33.0141   49.7667 H   0  0  0  0  0  0  0  0  0  0  0  0
   64.8087   32.0627   48.2892 H   0  0  0  0  0  0  0  0  0  0  0  0
   65.0304   33.8453   48.2892 H   0  0  0  0  0  0  0  0  0  0  0  0
   62.2836   34.9228   49.4118 H   0  0  0  0  0  0  0  0  0  0  0  0
   59.4252   34.5849   49.3514 H   0  0  0  0  0  0  0  0  0  0  0  0
   59.6255   35.4931   47.8146 H   0  0  0  0  0  0  0  0  0  0  0  0
   58.7970   33.8992   47.8146 H   0  0  0  0  0  0  0  0  0  0  0  0
   59.1135   32.3271   46.7582 H   0  0  0  0  0  0  0  0  0  0  0  0
   60.2677   32.2460   45.3781 H   0  0  0  0  0  0  0  0  0  0  0  0
   59.5765   29.6560   43.9875 H   0  0  0  0  0  0  0  0  0  0  0  0
   60.5036   28.3651   44.7715 H   0  0  0  0  0  0  0  0  0  0  0  0
   57.8925   28.1297   43.6431 H   0  0  0  0  0  0  0  0  0  0  0  0
   58.6659   26.9226   44.6861 H   0  0  0  0  0  0  0  0  0  0  0  0
   56.9453   27.4280   46.2096 H   0  0  0  0  0  0  0  0  0  0  0  0
   55.8320   29.7190   45.9720 H   0  0  0  0  0  0  0  0  0  0  0  0
   56.8574   29.0532   43.2569 H   0  0  0  0  0  0  0  0  0  0  0  0
   55.2511   29.8579   43.5489 H   0  0  0  0  0  0  0  0  0  0  0  0
   58.0699   31.1579   42.0805 H   0  0  0  0  0  0  0  0  0  0  0  0
   58.7619   33.5712   43.0696 H   0  0  0  0  0  0  0  0  0  0  0  0
   57.5904   33.7777   46.6864 H   0  0  0  0  0  0  0  0  0  0  0  0
   58.5844   34.6298   45.4566 H   0  0  0  0  0  0  0  0  0  0  0  0
   56.7983   34.8202   45.4566 H   0  0  0  0  0  0  0  0  0  0  0  0
   57.5823   29.9959   47.1292 H   0  0  0  0  0  0  0  0  0  0  0  0
   58.4120   28.5265   47.6601 H   0  0  0  0  0  0  0  0  0  0  0  0
   62.8040   31.5370   46.8610 H   0  0  0  0  0  0  0  0  0  0  0  0
  1  2  1  0
  2  3  1  0
  3  4  2  0
  4  5  1  0
  4  6  1  0
  6  7  1  0
  7  8  1  0
  8  9  2  0
  8 10  1  0
 10 11  1  0
 11 12  1  0
 12 13  1  0
 13 14  1  0
 14 15  1  0
 15 16  1  0
 16 17  1  0
 17 18  2  0
 18 19  1  0
 19 20  1  0
 19 21  1  0
 13 22  1  0
  6 23  1  0
 23  2  2  0
 22 10  1  0
 21 16  2  0
  1 24  1  0
  1 25  1  0
  1 26  1  0
  3 27  1  0
  5 28  1  0
  5 29  1  0
  5 30  1  0
  7 31  1  0
  7 32  1  0
 11 33  1  0
 11 34  1  0
 12 35  1  0
 12 36  1  0
 13 37  1  1
 14 38  1  0
 15 39  1  0
 15 40  1  0
 17 41  1  0
 18 42  1  0
 20 43  1  0
 20 44  1  0
 20 45  1  0
 22 46  1  0
 22 47  1  0
 23 48  1  0
M  CHG  1  23   1
M  END
>  <UniqueID>  (33) 
32

>  <SMILES>  (33) 
Cc1cc(C)n(CC(=O)N2CC[C@H](NCc3ccn(C)n3)C2)[nH+]1

>  <Energy>  (33) 
104.96486795040191

>  <Genealogy>  (33) 
Cc1cc(C)n(CC(=O)N2CCC(NCc3ccn(C)n3)C2)[nH+]1 (protonated)
Cc1cc(C)n(CC(=O)N2CC[C@H](NCc3ccn(C)n3)C2)[nH+]1 (chirality)
Cc1cc(C)n(CC(=O)N2CC[C@H](NCc3ccn(C)n3)C2)[nH+]1 (3D coordinates assigned)
Cc1cc(C)n(CC(=O)N2CC[C@H](NCc3ccn(C)n3)C2)[nH+]1 (nonaromatic ring conformer: 104.96486795040191 kcal/mol)

>  <smiles>  (33) 
Cc1cc(C)n(CC(=O)N2CCC(NCc3ccn(C)n3)C2)n1

>  <score_type>  (33) 
oracle

>  <origin>  (33) 
adg

>  <m_score__min__energy>  (33) 
-6.4500000000000002

>  <m_primary>  (33) 
energy

$$$$
33:0
     RDKit          3D

 32 33  0  0  0  0  0  0  0  0999 V2000
   58.8107   34.5492   43.9206 H   0  0  0  0  0  0  0  0  0  0  0  0
   58.4670   33.5210   44.1070 C   0  0  0  0  0  0  0  0  0  0  0  0
   58.1380   32.6880   43.0330 C   0  0  0  0  0  0  0  0  0  0  0  0
   58.2230   33.0609   42.0016 H   0  0  0  0  0  0  0  0  0  0  0  0
   57.7010   31.3810   43.2700 C   0  0  0  0  0  0  0  0  0  0  0  0
   57.4389   30.7285   42.4241 H   0  0  0  0  0  0  0  0  0  0  0  0
   57.5960   30.9000   44.5820 C   0  0  0  0  0  0  0  0  0  0  0  0
   57.0250   29.2570   44.8700 S   0  0  0  0  0  0  0  0  0  0  0  0
   57.4800   28.3500   43.7600 O   0  0  0  0  0  0  0  0  0  0  0  0
   55.5230   29.2640   44.8880 O   0  0  0  0  0  0  0  0  0  0  0  0
   57.6080   28.6580   46.3980 N   0  0  0  0  0  0  0  0  0  0  0  0
   58.9680   28.1290   46.2790 C   0  0  0  0  0  0  0  0  0  0  0  0
   59.5912   28.5545   47.0794 H   0  0  0  0  0  0  0  0  0  0  0  0
   59.3676   28.4060   45.2923 H   0  0  0  0  0  0  0  0  0  0  0  0
   58.9730   26.6370   46.3950 C   0  0  0  0  0  0  0  0  0  0  0  0
   59.9680   25.9900   45.9740 O   0  0  0  0  0  0  0  0  0  0  0  0
   57.8540   25.9790   47.0100 N   0  0  0  0  0  0  0  0  0  0  0  0
   56.6860   25.7290   46.4890 C   0  0  0  0  0  0  0  0  0  0  0  0
   56.1570   24.4990   46.1250 C   0  0  0  0  0  0  0  0  0  0  0  0
   56.6155   23.5032   46.2160 H   0  0  0  0  0  0  0  0  0  0  0  0
   54.9130   24.8300   45.6200 C   0  0  0  0  0  0  0  0  0  0  0  0
   53.9140   23.8800   45.0530 C   0  0  0  0  0  0  0  0  0  0  0  0
   53.3824   23.3745   45.8727 H   0  0  0  0  0  0  0  0  0  0  0  0
   53.1923   24.4331   44.4340 H   0  0  0  0  0  0  0  0  0  0  0  0
   54.4301   23.1314   44.4340 H   0  0  0  0  0  0  0  0  0  0  0  0
   54.7490   26.1330   45.6820 O   0  0  0  0  0  0  0  0  0  0  0  0
   55.7980   26.6960   46.2010 N   0  0  0  0  0  0  0  0  0  0  0  0
   55.9130   27.7230   46.3540 H   0  0  0  0  0  0  0  0  0  0  0  0
   57.9230   31.7400   45.6570 C   0  0  0  0  0  0  0  0  0  0  0  0
   57.8364   31.3704   46.6894 H   0  0  0  0  0  0  0  0  0  0  0  0
   58.3590   33.0470   45.4170 C   0  0  0  0  0  0  0  0  0  0  0  0
   58.6174   33.7032   46.2612 H   0  0  0  0  0  0  0  0  0  0  0  0
  1  2  1  0
  2  3  2  0
  3  4  1  0
  3  5  1  0
  5  6  1  0
  5  7  2  0
  7  8  1  0
  8  9  2  0
  8 10  2  0
  8 11  1  0
 11 12  1  0
 12 13  1  0
 12 14  1  0
 12 15  1  0
 15 16  2  0
 15 17  1  0
 17 18  2  0
 18 19  1  0
 19 20  1  0
 19 21  2  0
 21 22  1  0
 22 23  1  0
 22 24  1  0
 22 25  1  0
 21 26  1  0
 26 27  1  0
 27 28  1  0
  7 29  1  0
 29 30  1  0
 29 31  2  0
 31 32  1  0
 31  2  1  0
 27 18  1  0
M  CHG  1  11  -1
M  END
>  <UniqueID>  (34) 
33

>  <SMILES>  (34) 
Cc1c/c(=N\C(=O)C[N-]S(=O)(=O)c2ccccc2)[nH]o1

>  <Energy>  (34) 
64.84869161033008

>  <Genealogy>  (34) 
Cc1cc(=NC(=O)C[N-]S(=O)(=O)c2ccccc2)[nH]o1 (protonated)
Cc1c/c(=N\C(=O)C[N-]S(=O)(=O)c2ccccc2)[nH]o1 (cis-trans isomerization)
Cc1c/c(=N\C(=O)C[N-]S(=O)(=O)c2ccccc2)[nH]o1 (3D coordinates assigned)
Cc1c/c(=N\C(=O)C[N-]S(=O)(=O)c2ccccc2)[nH]o1 (optimized conformer: 64.84869161033008 kcal/mol)

>  <smiles>  (34) 
Cc1cc(=NC(=O)CNS(=O)(=O)c2ccccc2)[nH]o1

>  <score_type>  (34) 
oracle

>  <origin>  (34) 
adg

>  <m_score__min__energy>  (34) 
-8.7599999999999998

>  <m_primary>  (34) 
energy

$$$$
34:0
     RDKit          3D

 53 56  0  0  0  0  0  0  0  0999 V2000
   54.7582   23.4045   42.1023 H   0  0  0  0  0  0  0  0  0  0  0  0
   55.4790   23.0820   42.8680 C   0  0  0  0  0  0  0  0  0  0  0  0
   55.3440   23.5120   44.1510 N   0  0  0  0  0  0  0  0  0  0  0  0
   56.2100   23.1460   45.1410 C   0  0  0  0  0  0  0  0  0  0  0  0
   55.8890   23.7630   46.8020 S   0  0  0  0  0  0  0  0  0  0  0  0
   56.7180   25.3270   46.4960 C   0  0  0  0  0  0  0  0  0  0  0  0
   58.0860   25.4390   46.7750 C   0  0  0  0  0  0  0  0  0  0  0  0
   58.6376   24.5650   47.1517 H   0  0  0  0  0  0  0  0  0  0  0  0
   58.7620   26.6560   46.5790 C   0  0  0  0  0  0  0  0  0  0  0  0
   60.1990   26.7700   46.9070 C   0  0  0  0  0  0  0  0  0  0  0  0
   61.0470   26.0270   46.3440 O   0  0  0  0  0  0  0  0  0  0  0  0
   60.6470   27.7230   47.8760 N   0  0  0  0  0  0  0  0  0  0  0  0
   60.5190   29.1420   47.7380 C   0  0  0  0  0  0  0  0  0  0  0  0
   60.1460   29.8980   48.8590 C   0  0  0  0  0  0  0  0  0  0  0  0
   60.0041   29.4008   49.8299 H   0  0  0  0  0  0  0  0  0  0  0  0
   59.9530   31.2800   48.7520 C   0  0  0  0  0  0  0  0  0  0  0  0
   59.6728   31.8656   49.6400 H   0  0  0  0  0  0  0  0  0  0  0  0
   60.1160   31.9190   47.5160 C   0  0  0  0  0  0  0  0  0  0  0  0
   59.8280   33.6520   47.3690 S   0  0  0  0  0  0  0  0  0  0  0  0
   60.0730   34.1270   45.9620 O   0  0  0  0  0  0  0  0  0  0  0  0
   58.3920   33.9250   47.7210 O   0  0  0  0  0  0  0  0  0  0  0  0
   60.8370   34.5310   48.4740 N   0  0  0  0  0  0  0  0  0  0  0  0
   61.9410   34.1620   49.0680 C   0  0  0  0  0  0  0  0  0  0  0  0
   62.1270   34.3690   50.3510 O   0  0  0  0  0  0  0  0  0  0  0  0
   63.2890   33.9340   50.7430 N   0  0  0  0  0  0  0  0  0  0  0  0
   63.9020   33.4060   49.6640 C   0  0  0  0  0  0  0  0  0  0  0  0
   65.2840   32.8390   49.6990 C   0  0  0  0  0  0  0  0  0  0  0  0
   65.6007   32.7091   50.7444 H   0  0  0  0  0  0  0  0  0  0  0  0
   65.2935   31.8643   49.1892 H   0  0  0  0  0  0  0  0  0  0  0  0
   65.9753   33.5262   49.1892 H   0  0  0  0  0  0  0  0  0  0  0  0
   63.0740   33.5240   48.5540 C   0  0  0  0  0  0  0  0  0  0  0  0
   63.4520   33.1680   47.1460 C   0  0  0  0  0  0  0  0  0  0  0  0
   64.2527   32.4139   47.1608 H   0  0  0  0  0  0  0  0  0  0  0  0
   62.5744   32.7607   46.6226 H   0  0  0  0  0  0  0  0  0  0  0  0
   63.8060   34.0684   46.6226 H   0  0  0  0  0  0  0  0  0  0  0  0
   60.4950   31.1670   46.3920 C   0  0  0  0  0  0  0  0  0  0  0  0
   60.6398   31.6659   45.4224 H   0  0  0  0  0  0  0  0  0  0  0  0
   60.6890   29.7860   46.5010 C   0  0  0  0  0  0  0  0  0  0  0  0
   60.9759   29.2017   45.6143 H   0  0  0  0  0  0  0  0  0  0  0  0
   58.0450   27.7590   46.0970 C   0  0  0  0  0  0  0  0  0  0  0  0
   58.5569   28.7219   45.9528 H   0  0  0  0  0  0  0  0  0  0  0  0
   56.6800   27.6450   45.7970 C   0  0  0  0  0  0  0  0  0  0  0  0
   56.1298   28.5134   45.4056 H   0  0  0  0  0  0  0  0  0  0  0  0
   56.0170   26.4310   45.9940 C   0  0  0  0  0  0  0  0  0  0  0  0
   54.6610   26.3340   45.7060 O   0  0  0  0  0  0  0  0  0  0  0  0
   57.2910   22.2870   44.8330 C   0  0  0  0  0  0  0  0  0  0  0  0
   58.2270   21.8420   45.8300 N   0  0  0  0  0  0  0  0  0  0  0  0
   59.4590   21.8580   45.6200 O   0  0  0  0  0  0  0  0  0  0  0  0
   57.7630   21.3300   47.0190 O   0  0  0  0  0  0  0  0  0  0  0  0
   57.4270   21.8290   43.5100 C   0  0  0  0  0  0  0  0  0  0  0  0
   58.2490   21.1454   43.2513 H   0  0  0  0  0  0  0  0  0  0  0  0
   56.5270   22.2350   42.5220 C   0  0  0  0  0  0  0  0  0  0  0  0
   56.6453   21.8897   41.4843 H   0  0  0  0  0  0  0  0  0  0  0  0
  1  2  1  0
  2  3  2  0
  3  4  1  0
  4  5  1  0
  5  6  1  0
  6  7  2  0
  7  8  1  0
  7  9  1  0
  9 10  1  0
 10 11  2  0
 10 12  1  0
 12 13  1  0
 13 14  2  0
 14 15  1  0
 14 16  1  0
 16 17  1  0
 16 18  2  0
 18 19  1  0
 19 20  2  0
 19 21  2  0
 19 22  1  0
 22 23  2  0
 23 24  1  0
 24 25  1  0
 25 26  1  0
 26 27  1  0
 27 28  1  0
 27 29  1  0
 27 30  1  0
 26 31  2  0
 31 32  1  0
 32 33  1  0
 32 34  1  0
 32 35  1  0
 18 36  1  0
 36 37  1  0
 36 38  2  0
 38 39  1  0
  9 40  2  0
 40 41  1  0
 40 42  1  0
 42 43  1  0
 42 44  2  0
 44 45  1  0
  4 46  2  0
 46 47  1  0
 47 48  2  0
 47 49  1  0
 46 50  1  0
 50 51  1  0
 50 52  2  0
 52 53  1  0
 52  2  1  0
 44  6  1  0
 38 13  1  0
 31 23  1  0
M  CHG  5  12  -1  25  -1  45  -1  47   1  49  -1
M  END
>  <UniqueID>  (35) 
34

>  <SMILES>  (35) 
Cc1[n-]o/c(=N/S(=O)(=O)c2ccc([N-]C(=O)c3ccc([O-])c(Sc4ncccc4[N+](=O)[O-])c3)cc2)c1C

>  <Energy>  (35) 
104.78740553301238

>  <Genealogy>  (35) 
Cc1[n-]oc(=NS(=O)(=O)c2ccc([N-]C(=O)c3ccc([O-])c(Sc4ncccc4[N+](=O)[O-])c3)cc2)c1C (protonated)
Cc1[n-]o/c(=N/S(=O)(=O)c2ccc([N-]C(=O)c3ccc([O-])c(Sc4ncccc4[N+](=O)[O-])c3)cc2)c1C (cis-trans isomerization)
Cc1[n-]o/c(=N/S(=O)(=O)c2ccc([N-]C(=O)c3ccc([O-])c(Sc4ncccc4[N+](=O)[O-])c3)cc2)c1C (3D coordinates assigned)
Cc1[n-]o/c(=N/S(=O)(=O)c2ccc([N-]C(=O)c3ccc([O-])c(Sc4ncccc4[N+](=O)[O-])c3)cc2)c1C (optimized conformer: 104.78740553301238 kcal/mol)

>  <smiles>  (35) 
Cc1[nH]oc(=NS(=O)(=O)c2ccc(NC(=O)c3ccc(O)c(Sc4ncccc4[N+](=O)[O-])c3)cc2)c1C

>  <score_type>  (35) 
oracle

>  <origin>  (35) 
adg

>  <m_score__min__energy>  (35) 
-15.65

>  <m_primary>  (35) 
energy

$$$$
35:0
     RDKit          3D

 26 27  0  0  0  0  0  0  0  0999 V2000
   58.1086   34.6573   46.4879 H   0  0  0  0  0  0  0  0  0  0  0  0
   58.0370   33.6370   46.0830 C   0  0  0  0  0  0  0  0  0  0  0  0
   57.4160   33.4170   44.8540 C   0  0  0  0  0  0  0  0  0  0  0  0
   56.9973   34.2639   44.2906 H   0  0  0  0  0  0  0  0  0  0  0  0
   57.3250   32.1210   44.3370 C   0  0  0  0  0  0  0  0  0  0  0  0
   56.8352   31.9528   43.3665 H   0  0  0  0  0  0  0  0  0  0  0  0
   57.8550   31.0330   45.0490 C   0  0  0  0  0  0  0  0  0  0  0  0
   57.7290   29.4050   44.3710 S   0  0  0  0  0  0  0  0  0  0  0  0
   56.9550   29.4700   43.0830 O   0  0  0  0  0  0  0  0  0  0  0  0
   59.1010   28.8520   44.1030 O   0  0  0  0  0  0  0  0  0  0  0  0
   56.9120   28.3860   45.5150 N   0  0  0  0  0  0  0  0  0  0  0  0
   57.1790   27.1350   45.7650 C   0  0  0  0  0  0  0  0  0  0  0  0
   56.1150   26.2570   46.0220 C   0  0  0  0  0  0  0  0  0  0  0  0
   54.7990   26.7120   46.0120 O   0  0  0  0  0  0  0  0  0  0  0  0
   56.3780   24.9120   46.2910 C   0  0  0  0  0  0  0  0  0  0  0  0
   55.5495   24.2176   46.4943 H   0  0  0  0  0  0  0  0  0  0  0  0
   57.6930   24.4530   46.3010 C   0  0  0  0  0  0  0  0  0  0  0  0
   57.9104   23.3954   46.5112 H   0  0  0  0  0  0  0  0  0  0  0  0
   58.7310   25.3470   46.0420 C   0  0  0  0  0  0  0  0  0  0  0  0
   59.7724   24.9927   46.0486 H   0  0  0  0  0  0  0  0  0  0  0  0
   58.4630   26.6560   45.7810 N   0  0  0  0  0  0  0  0  0  0  0  0
   59.2800   27.2780   45.5960 H   0  0  0  0  0  0  0  0  0  0  0  0
   58.4830   31.2610   46.2930 C   0  0  0  0  0  0  0  0  0  0  0  0
   59.2360   29.8410   47.3410 Br  0  0  0  0  0  0  0  0  0  0  0  0
   58.5680   32.5630   46.8000 C   0  0  0  0  0  0  0  0  0  0  0  0
   59.0562   32.7412   47.7695 H   0  0  0  0  0  0  0  0  0  0  0  0
  1  2  1  0
  2  3  2  0
  3  4  1  0
  3  5  1  0
  5  6  1  0
  5  7  2  0
  7  8  1  0
  8  9  2  0
  8 10  2  0
  8 11  1  0
 11 12  2  0
 12 13  1  0
 13 14  1  0
 13 15  2  0
 15 16  1  0
 15 17  1  0
 17 18  1  0
 17 19  2  0
 19 20  1  0
 19 21  1  0
 21 22  1  0
  7 23  1  0
 23 24  1  0
 23 25  2  0
 25 26  1  0
 25  2  1  0
 21 12  1  0
M  CHG  1  14  -1
M  END
>  <UniqueID>  (36) 
35

>  <SMILES>  (36) 
O=S(=O)(/N=c1\[nH]cccc1[O-])c1ccccc1Br

>  <Energy>  (36) 
34.98512957409165

>  <Genealogy>  (36) 
O=S(=O)(N=c1[nH]cccc1[O-])c1ccccc1Br (protonated)
O=S(=O)(/N=c1\[nH]cccc1[O-])c1ccccc1Br (cis-trans isomerization)
O=S(=O)(/N=c1\[nH]cccc1[O-])c1ccccc1Br (3D coordinates assigned)
O=S(=O)(/N=c1\[nH]cccc1[O-])c1ccccc1Br (optimized conformer: 34.98512957409165 kcal/mol)

>  <smiles>  (36) 
O=S(=O)(N=c1[nH]cccc1O)c1ccccc1Br

>  <score_type>  (36) 
oracle

>  <origin>  (36) 
adg

>  <m_score__min__energy>  (36) 
-11.109999999999999

>  <m_primary>  (36) 
energy

$$$$
36:0
     RDKit          3D

 52 54  0  0  0  0  0  0  0  0999 V2000
   54.0860   23.8790   45.7840 C   0  0  0  0  0  0  0  0  0  0  0  0
   55.3480   24.5550   45.3150 C   0  0  0  0  0  0  0  0  0  0  0  0
   55.7510   25.7370   45.9630 C   0  0  0  0  0  0  0  0  0  0  0  0
   56.8920   26.4390   45.5420 C   0  0  0  0  0  0  0  0  0  0  0  0
   57.3120   27.6210   46.1720 O   0  0  0  0  0  0  0  0  0  0  0  0
   57.4790   28.8580   45.5330 C   0  0  0  0  0  0  0  0  0  0  0  0
   58.7590   29.4220   45.4890 C   0  0  0  0  0  0  0  0  0  0  0  0
   58.9680   30.6580   44.8720 C   0  0  0  0  0  0  0  0  0  0  0  0
   57.8980   31.3390   44.2710 C   0  0  0  0  0  0  0  0  0  0  0  0
   58.1070   32.7000   43.6640 C   0  0  0  0  0  0  0  0  0  0  0  0
   58.1580   33.7340   44.7420 C   0  0  0  0  0  0  0  0  0  0  0  0
   57.2540   34.6110   44.8120 O   0  0  0  0  0  0  0  0  0  0  0  0
   59.2010   33.6920   45.7170 N   0  0  0  0  0  0  0  0  0  0  0  0
   58.8790   33.4940   47.4060 S   0  0  0  0  0  0  0  0  0  0  0  0
   59.3770   34.7180   48.1250 O   0  0  0  0  0  0  0  0  0  0  0  0
   57.4000   33.3590   47.6340 O   0  0  0  0  0  0  0  0  0  0  0  0
   59.6970   32.0530   48.0370 C   0  0  0  0  0  0  0  0  0  0  0  0
   58.9000   30.9460   48.3780 C   0  0  0  0  0  0  0  0  0  0  0  0
   59.4750   29.7770   48.8790 C   0  0  0  0  0  0  0  0  0  0  0  0
   60.8530   29.6940   49.0450 C   0  0  0  0  0  0  0  0  0  0  0  0
   61.6640   30.7770   48.7040 C   0  0  0  0  0  0  0  0  0  0  0  0
   61.1090   31.9600   48.1860 C   0  0  0  0  0  0  0  0  0  0  0  0
   62.2190   33.2880   47.7990 S   0  0  0  0  0  0  0  0  0  0  0  0
   61.7070   34.0940   46.3580 N   0  0  0  0  0  0  0  0  0  0  0  0
   62.2570   34.2990   48.9100 O   0  0  0  0  0  0  0  0  0  0  0  0
   63.5950   32.7280   47.5740 O   0  0  0  0  0  0  0  0  0  0  0  0
   56.6170   30.7640   44.2940 C   0  0  0  0  0  0  0  0  0  0  0  0
   56.4080   29.5230   44.9040 C   0  0  0  0  0  0  0  0  0  0  0  0
   55.1420   28.9510   44.8630 O   0  0  0  0  0  0  0  0  0  0  0  0
   57.6570   25.9320   44.4930 C   0  0  0  0  0  0  0  0  0  0  0  0
   57.2840   24.7530   43.8500 C   0  0  0  0  0  0  0  0  0  0  0  0
   56.1370   24.0410   44.2500 C   0  0  0  0  0  0  0  0  0  0  0  0
   55.8100   22.7750   43.5400 C   0  0  0  0  0  0  0  0  0  0  0  0
   55.2140   22.8090   42.4310 O   0  0  0  0  0  0  0  0  0  0  0  0
   56.1820   21.5400   44.0550 O   0  0  0  0  0  0  0  0  0  0  0  0
   54.0635   23.8669   46.8837 H   0  0  0  0  0  0  0  0  0  0  0  0
   53.2125   24.4300   45.4054 H   0  0  0  0  0  0  0  0  0  0  0  0
   54.0606   22.8465   45.4054 H   0  0  0  0  0  0  0  0  0  0  0  0
   55.1636   26.1168   46.8120 H   0  0  0  0  0  0  0  0  0  0  0  0
   59.6067   28.8883   45.9435 H   0  0  0  0  0  0  0  0  0  0  0  0
   59.9755   31.0993   44.8572 H   0  0  0  0  0  0  0  0  0  0  0  0
   59.0542   32.7087   43.1048 H   0  0  0  0  0  0  0  0  0  0  0  0
   57.2724   32.9259   42.9840 H   0  0  0  0  0  0  0  0  0  0  0  0
   57.8091   31.0020   48.2482 H   0  0  0  0  0  0  0  0  0  0  0  0
   58.8373   28.9204   49.1428 H   0  0  0  0  0  0  0  0  0  0  0  0
   61.3040   28.7741   49.4454 H   0  0  0  0  0  0  0  0  0  0  0  0
   62.7528   30.7040   48.8425 H   0  0  0  0  0  0  0  0  0  0  0  0
   61.3310   33.3610   45.7130 H   0  0  0  0  0  0  0  0  0  0  0  0
   60.9000   34.7040   46.6190 H   0  0  0  0  0  0  0  0  0  0  0  0
   55.7722   31.2933   43.8290 H   0  0  0  0  0  0  0  0  0  0  0  0
   58.5624   26.4667   44.1700 H   0  0  0  0  0  0  0  0  0  0  0  0
   57.8947   24.3731   43.0177 H   0  0  0  0  0  0  0  0  0  0  0  0
  1  2  1  0
  2  3  2  0
  3  4  1  0
  4  5  1  0
  5  6  1  0
  6  7  2  0
  7  8  1  0
  8  9  2  0
  9 10  1  0
 10 11  1  0
 11 12  2  0
 11 13  1  0
 13 14  1  0
 14 15  2  0
 14 16  2  0
 14 17  1  0
 17 18  2  0
 18 19  1  0
 19 20  2  0
 20 21  1  0
 21 22  2  0
 22 23  1  0
 23 24  1  0
 23 25  2  0
 23 26  2  0
  9 27  1  0
 27 28  2  0
 28 29  1  0
  4 30  2  0
 30 31  1  0
 31 32  2  0
 32 33  1  0
 33 34  2  0
 33 35  1  0
 32  2  1  0
 28  6  1  0
 22 17  1  0
  1 36  1  0
  1 37  1  0
  1 38  1  0
  3 39  1  0
  7 40  1  0
  8 41  1  0
 10 42  1  0
 10 43  1  0
 18 44  1  0
 19 45  1  0
 20 46  1  0
 21 47  1  0
 24 48  1  0
 24 49  1  0
 27 50  1  0
 30 51  1  0
 31 52  1  0
M  CHG  3  13  -1  29  -1  35  -1
M  END
>  <UniqueID>  (37) 
36

>  <SMILES>  (37) 
Cc1cc(Oc2ccc(CC(=O)[N-]S(=O)(=O)c3ccccc3S(N)(=O)=O)cc2[O-])ccc1C(=O)[O-]

>  <Energy>  (37) 
69.16661605746434

>  <Genealogy>  (37) 
Cc1cc(Oc2ccc(CC(=O)[N-]S(=O)(=O)c3ccccc3S(N)(=O)=O)cc2[O-])ccc1C(=O)[O-] (protonated)
Cc1cc(Oc2ccc(CC(=O)[N-]S(=O)(=O)c3ccccc3S(N)(=O)=O)cc2[O-])ccc1C(=O)[O-] (3D coordinates assigned)
Cc1cc(Oc2ccc(CC(=O)[N-]S(=O)(=O)c3ccccc3S(N)(=O)=O)cc2[O-])ccc1C(=O)[O-] (optimized conformer: 69.16661605746434 kcal/mol)

>  <smiles>  (37) 
Cc1cc(Oc2ccc(CC(=O)NS(=O)(=O)c3ccccc3S(N)(=O)=O)cc2O)ccc1C(=O)O

>  <score_type>  (37) 
oracle

>  <origin>  (37) 
adg

>  <m_score__min__energy>  (37) 
-15.56

>  <m_primary>  (37) 
energy

$$$$
37:0
     RDKit          3D

 31 32  0  0  0  0  0  0  0  0999 V2000
   59.9659   27.3031   45.9666 H   0  0  0  0  0  0  0  0  0  0  0  0
   58.8830   27.1100   45.9760 C   0  0  0  0  0  0  0  0  0  0  0  0
   58.0150   28.0820   45.5840 N   0  0  0  0  0  0  0  0  0  0  0  0
   56.6640   27.8890   45.5820 C   0  0  0  0  0  0  0  0  0  0  0  0
   55.8490   28.8290   45.1970 N   0  0  0  0  0  0  0  0  0  0  0  0
   56.1780   29.9950   44.4240 C   0  0  0  0  0  0  0  0  0  0  0  0
   55.4960   31.0530   44.5110 O   0  0  0  0  0  0  0  0  0  0  0  0
   57.3630   29.9570   43.5130 C   0  0  0  0  0  0  0  0  0  0  0  0
   57.1663   29.2494   42.6941 H   0  0  0  0  0  0  0  0  0  0  0  0
   58.2429   29.6374   44.0906 H   0  0  0  0  0  0  0  0  0  0  0  0
   57.6910   31.6120   42.8100 S   0  0  0  0  0  0  0  0  0  0  0  0
   58.1430   32.3630   44.3800 C   0  0  0  0  0  0  0  0  0  0  0  0
   58.7810   31.5990   45.3650 C   0  0  0  0  0  0  0  0  0  0  0  0
   59.0069   30.5389   45.1775 H   0  0  0  0  0  0  0  0  0  0  0  0
   59.1310   32.1820   46.5860 C   0  0  0  0  0  0  0  0  0  0  0  0
   59.6351   31.5798   47.3562 H   0  0  0  0  0  0  0  0  0  0  0  0
   58.8420   33.5320   46.8330 C   0  0  0  0  0  0  0  0  0  0  0  0
   59.2540   34.1690   48.1280 C   0  0  0  0  0  0  0  0  0  0  0  0
   58.8687   33.5732   48.9686 H   0  0  0  0  0  0  0  0  0  0  0  0
   60.3518   34.2125   48.1823 H   0  0  0  0  0  0  0  0  0  0  0  0
   58.8435   35.1881   48.1823 H   0  0  0  0  0  0  0  0  0  0  0  0
   58.2280   34.3010   45.8320 C   0  0  0  0  0  0  0  0  0  0  0  0
   58.0238   35.3675   46.0079 H   0  0  0  0  0  0  0  0  0  0  0  0
   57.8750   33.7160   44.6120 C   0  0  0  0  0  0  0  0  0  0  0  0
   57.3860   34.3205   43.8339 H   0  0  0  0  0  0  0  0  0  0  0  0
   56.1460   26.6510   45.9920 C   0  0  0  0  0  0  0  0  0  0  0  0
   54.7750   26.4210   45.9980 O   0  0  0  0  0  0  0  0  0  0  0  0
   57.0220   25.6400   46.3970 C   0  0  0  0  0  0  0  0  0  0  0  0
   56.6267   24.6659   46.7208 H   0  0  0  0  0  0  0  0  0  0  0  0
   58.3990   25.8680   46.3900 C   0  0  0  0  0  0  0  0  0  0  0  0
   59.0951   25.0776   46.7073 H   0  0  0  0  0  0  0  0  0  0  0  0
  1  2  1  0
  2  3  1  0
  3  4  1  0
  4  5  2  0
  5  6  1  0
  6  7  2  0
  6  8  1  0
  8  9  1  0
  8 10  1  0
  8 11  1  0
 11 12  1  0
 12 13  2  0
 13 14  1  0
 13 15  1  0
 15 16  1  0
 15 17  2  0
 17 18  1  0
 18 19  1  0
 18 20  1  0
 18 21  1  0
 17 22  1  0
 22 23  1  0
 22 24  2  0
 24 25  1  0
  4 26  1  0
 26 27  1  0
 26 28  2  0
 28 29  1  0
 28 30  1  0
 30 31  1  0
 30  2  2  0
 24 12  1  0
M  CHG  2   3  -1  27  -1
M  END
>  <UniqueID>  (38) 
37

>  <SMILES>  (38) 
Cc1ccc(SCC(=O)/N=c2\[n-]cccc2[O-])cc1

>  <Energy>  (38) 
28.972333174387373

>  <Genealogy>  (38) 
Cc1ccc(SCC(=O)N=c2[n-]cccc2[O-])cc1 (protonated)
Cc1ccc(SCC(=O)/N=c2\[n-]cccc2[O-])cc1 (cis-trans isomerization)
Cc1ccc(SCC(=O)/N=c2\[n-]cccc2[O-])cc1 (3D coordinates assigned)
Cc1ccc(SCC(=O)/N=c2\[n-]cccc2[O-])cc1 (optimized conformer: 28.972333174387373 kcal/mol)

>  <smiles>  (38) 
Cc1ccc(SCC(=O)N=c2[nH]cccc2O)cc1

>  <score_type>  (38) 
oracle

>  <origin>  (38) 
adg

>  <m_score__min__energy>  (38) 
-13.01

>  <m_primary>  (38) 
energy

$$$$
38:0
     RDKit          3D

 48 50  0  0  0  0  0  0  0  0999 V2000
   54.7670   29.8170   43.7260 O   0  0  0  0  0  0  0  0  0  0  0  0
   55.9600   29.7300   44.1210 C   0  0  0  0  0  0  0  0  0  0  0  0
   57.0410   30.4630   43.3880 C   0  0  0  0  0  0  0  0  0  0  0  0
   57.6120   31.5650   44.2410 C   0  0  0  0  0  0  0  0  0  0  0  0
   57.7670   31.3860   45.6270 C   0  0  0  0  0  0  0  0  0  0  0  0
   58.2730   32.4210   46.4200 C   0  0  0  0  0  0  0  0  0  0  0  0
   58.6320   33.6400   45.8350 C   0  0  0  0  0  0  0  0  0  0  0  0
   59.2550   34.9430   46.8330 Cl  0  0  0  0  0  0  0  0  0  0  0  0
   58.4880   33.8230   44.4550 C   0  0  0  0  0  0  0  0  0  0  0  0
   57.9790   32.7910   43.6610 C   0  0  0  0  0  0  0  0  0  0  0  0
   56.2900   28.9200   45.2550 N   0  0  0  0  0  0  0  0  0  0  0  0
   57.0270   27.6650   45.1610 C   0  0  0  0  0  0  0  0  0  0  0  0
   58.2190   27.6920   46.0820 C   0  0  0  0  0  0  0  0  0  0  0  0
   59.2390   28.6330   45.8910 C   0  0  0  0  0  0  0  0  0  0  0  0
   60.3200   28.6790   46.7690 C   0  0  0  0  0  0  0  0  0  0  0  0
   60.3720   27.7820   47.8360 C   0  0  0  0  0  0  0  0  0  0  0  0
   59.3770   26.8730   48.0190 N   0  0  0  0  0  0  0  0  0  0  0  0
   58.3030   26.8060   47.1730 C   0  0  0  0  0  0  0  0  0  0  0  0
   57.2690   25.8720   47.3620 O   0  0  0  0  0  0  0  0  0  0  0  0
   57.3990   24.4510   47.2800 C   0  0  0  0  0  0  0  0  0  0  0  0
   57.9180   24.0880   45.8820 C   0  0  0  0  0  0  0  0  0  0  0  0
   56.9430   24.5270   44.7690 C   0  0  0  0  0  0  0  0  0  0  0  0
   55.4640   24.4980   45.2040 C   0  0  0  0  0  0  0  0  0  0  0  0
   55.2150   23.4570   46.2990 C   0  0  0  0  0  0  0  0  0  0  0  0
   56.0410   23.7580   47.5670 C   0  0  0  0  0  0  0  0  0  0  0  0
   57.8428   29.7566   43.1269 H   0  0  0  0  0  0  0  0  0  0  0  0
   56.6116   30.9075   42.4781 H   0  0  0  0  0  0  0  0  0  0  0  0
   57.4890   30.4276   46.0897 H   0  0  0  0  0  0  0  0  0  0  0  0
   58.3887   32.2764   47.5043 H   0  0  0  0  0  0  0  0  0  0  0  0
   58.7756   34.7797   43.9946 H   0  0  0  0  0  0  0  0  0  0  0  0
   57.8653   32.9395   42.5770 H   0  0  0  0  0  0  0  0  0  0  0  0
   56.3661   26.8332   45.4462 H   0  0  0  0  0  0  0  0  0  0  0  0
   57.3755   27.5298   44.1265 H   0  0  0  0  0  0  0  0  0  0  0  0
   59.1865   29.3364   45.0469 H   0  0  0  0  0  0  0  0  0  0  0  0
   61.1241   29.4151   46.6222 H   0  0  0  0  0  0  0  0  0  0  0  0
   61.2224   27.8100   48.5332 H   0  0  0  0  0  0  0  0  0  0  0  0
   59.4610   26.2250   48.8310 H   0  0  0  0  0  0  0  0  0  0  0  0
   58.1124   24.0978   48.0392 H   0  0  0  0  0  0  0  0  0  0  0  0
   58.8858   24.5859   45.7225 H   0  0  0  0  0  0  0  0  0  0  0  0
   58.0192   22.9938   45.8317 H   0  0  0  0  0  0  0  0  0  0  0  0
   57.1977   25.5537   44.4674 H   0  0  0  0  0  0  0  0  0  0  0  0
   57.0520   23.8112   43.9409 H   0  0  0  0  0  0  0  0  0  0  0  0
   55.1856   25.4911   45.5865 H   0  0  0  0  0  0  0  0  0  0  0  0
   54.8549   24.2271   44.3290 H   0  0  0  0  0  0  0  0  0  0  0  0
   54.1463   23.4616   46.5596 H   0  0  0  0  0  0  0  0  0  0  0  0
   55.5212   22.4730   45.9144 H   0  0  0  0  0  0  0  0  0  0  0  0
   55.4475   24.4151   48.2196 H   0  0  0  0  0  0  0  0  0  0  0  0
   56.2685   22.7904   48.0383 H   0  0  0  0  0  0  0  0  0  0  0  0
  1  2  2  0
  2  3  1  0
  3  4  1  0
  4  5  2  0
  5  6  1  0
  6  7  2  0
  7  8  1  0
  7  9  1  0
  9 10  2  0
  2 11  1  0
 11 12  1  0
 12 13  1  0
 13 14  2  0
 14 15  1  0
 15 16  2  0
 16 17  1  0
 17 18  2  0
 18 19  1  0
 19 20  1  0
 20 21  1  0
 21 22  1  0
 22 23  1  0
 23 24  1  0
 24 25  1  0
 10  4  1  0
 18 13  1  0
 25 20  1  0
  3 26  1  0
  3 27  1  0
  5 28  1  0
  6 29  1  0
  9 30  1  0
 10 31  1  0
 12 32  1  0
 12 33  1  0
 14 34  1  0
 15 35  1  0
 16 36  1  0
 17 37  1  0
 20 38  1  0
 21 39  1  0
 21 40  1  0
 22 41  1  0
 22 42  1  0
 23 43  1  0
 23 44  1  0
 24 45  1  0
 24 46  1  0
 25 47  1  0
 25 48  1  0
M  CHG  2  11  -1  17   1
M  END
>  <UniqueID>  (39) 
38

>  <SMILES>  (39) 
O=C(Cc1ccc(Cl)cc1)[N-]Cc1ccc[nH+]c1OC1CCCCC1

>  <Energy>  (39) 
44.806143905695265

>  <Genealogy>  (39) 
O=C(Cc1ccc(Cl)cc1)[N-]Cc1ccc[nH+]c1OC1CCCCC1 (protonated)
O=C(Cc1ccc(Cl)cc1)[N-]Cc1ccc[nH+]c1OC1CCCCC1 (3D coordinates assigned)
O=C(Cc1ccc(Cl)cc1)[N-]Cc1ccc[nH+]c1OC1CCCCC1 (nonaromatic ring conformer: 44.806143905695265 kcal/mol)

>  <smiles>  (39) 
O=C(Cc1ccc(Cl)cc1)NCc1cccnc1OC1CCCCC1

>  <score_type>  (39) 
oracle

>  <origin>  (39) 
adg

>  <m_score__min__energy>  (39) 
-8.6799999999999997

>  <m_primary>  (39) 
energy

$$$$
39:0
     RDKit          3D

 31 32  0  0  0  0  0  0  0  0999 V2000
   58.5481   32.4416   48.4708 H   0  0  0  0  0  0  0  0  0  0  0  0
   58.4400   32.8370   47.4500 C   0  0  0  0  0  0  0  0  0  0  0  0
   57.7600   32.1240   46.5140 N   0  0  0  0  0  0  0  0  0  0  0  0
   57.6010   32.5620   45.2330 C   0  0  0  0  0  0  0  0  0  0  0  0
   56.9240   31.8120   44.4090 N   0  0  0  0  0  0  0  0  0  0  0  0
   56.5780   30.4220   44.5240 C   0  0  0  0  0  0  0  0  0  0  0  0
   55.3750   30.0440   44.5220 O   0  0  0  0  0  0  0  0  0  0  0  0
   57.6710   29.4020   44.5760 C   0  0  0  0  0  0  0  0  0  0  0  0
   58.2272   29.4193   43.6272 H   0  0  0  0  0  0  0  0  0  0  0  0
   58.3414   29.6427   45.4142 H   0  0  0  0  0  0  0  0  0  0  0  0
   57.1170   28.0650   44.7840 N   0  0  0  0  0  0  0  0  0  0  0  0
   56.1390   27.8570   44.4750 H   0  0  0  0  0  0  0  0  0  0  0  0
   57.9120   27.0050   45.3340 C   0  0  0  0  0  0  0  0  0  0  0  0
   59.1550   27.1660   45.4790 O   0  0  0  0  0  0  0  0  0  0  0  0
   57.3020   25.7060   45.7000 C   0  0  0  0  0  0  0  0  0  0  0  0
   58.1160   24.5620   45.7880 C   0  0  0  0  0  0  0  0  0  0  0  0
   59.1952   24.6439   45.5914 H   0  0  0  0  0  0  0  0  0  0  0  0
   57.5650   23.3230   46.1230 C   0  0  0  0  0  0  0  0  0  0  0  0
   58.2094   22.4336   46.1835 H   0  0  0  0  0  0  0  0  0  0  0  0
   56.1980   23.2120   46.3810 C   0  0  0  0  0  0  0  0  0  0  0  0
   55.7644   22.2337   46.6358 H   0  0  0  0  0  0  0  0  0  0  0  0
   55.3810   24.3410   46.3160 C   0  0  0  0  0  0  0  0  0  0  0  0
   54.3047   24.2506   46.5241 H   0  0  0  0  0  0  0  0  0  0  0  0
   55.9250   25.5890   45.9870 C   0  0  0  0  0  0  0  0  0  0  0  0
   55.0930   26.7040   45.9790 O   0  0  0  0  0  0  0  0  0  0  0  0
   58.1400   33.8160   44.8720 C   0  0  0  0  0  0  0  0  0  0  0  0
   58.0069   34.2035   43.8512 H   0  0  0  0  0  0  0  0  0  0  0  0
   58.8440   34.5610   45.8220 C   0  0  0  0  0  0  0  0  0  0  0  0
   59.2744   35.5354   45.5476 H   0  0  0  0  0  0  0  0  0  0  0  0
   59.0010   34.0700   47.1170 C   0  0  0  0  0  0  0  0  0  0  0  0
   59.5605   34.6478   47.8674 H   0  0  0  0  0  0  0  0  0  0  0  0
  1  2  1  0
  2  3  1  0
  3  4  1  0
  4  5  2  0
  5  6  1  0
  6  7  2  0
  6  8  1  0
  8  9  1  0
  8 10  1  0
  8 11  1  0
 11 12  1  0
 11 13  1  0
 13 14  2  0
 13 15  1  0
 15 16  2  0
 16 17  1  0
 16 18  1  0
 18 19  1  0
 18 20  2  0
 20 21  1  0
 20 22  1  0
 22 23  1  0
 22 24  2  0
 24 25  1  0
  4 26  1  0
 26 27  1  0
 26 28  2  0
 28 29  1  0
 28 30  1  0
 30 31  1  0
 30  2  2  0
 24 15  1  0
M  CHG  2   3  -1  25  -1
M  END
>  <UniqueID>  (40) 
39

>  <SMILES>  (40) 
O=C(CNC(=O)c1ccccc1[O-])/N=c1\cccc[n-]1

>  <Energy>  (40) 
41.57163303688787

>  <Genealogy>  (40) 
O=C(CNC(=O)c1ccccc1[O-])N=c1cccc[n-]1 (protonated)
O=C(CNC(=O)c1ccccc1[O-])/N=c1\cccc[n-]1 (cis-trans isomerization)
O=C(CNC(=O)c1ccccc1[O-])/N=c1\cccc[n-]1 (3D coordinates assigned)
O=C(CNC(=O)c1ccccc1[O-])/N=c1\cccc[n-]1 (optimized conformer: 41.57163303688787 kcal/mol)

>  <smiles>  (40) 
O=C(CNC(=O)c1ccccc1O)N=c1cccc[nH]1

>  <score_type>  (40) 
oracle

>  <origin>  (40) 
adg

>  <m_score__min__energy>  (40) 
-12.119999999999999

>  <m_primary>  (40) 
energy

$$$$
40:0
     RDKit          3D

 43 45  0  0  0  0  0  0  0  0999 V2000
   53.9980   23.3790   46.0090 C   0  0  0  0  0  0  0  0  0  0  0  0
   54.8740   24.0360   46.9180 O   0  0  0  0  0  0  0  0  0  0  0  0
   56.0150   24.7630   46.5410 C   0  0  0  0  0  0  0  0  0  0  0  0
   55.9260   26.0500   45.9730 C   0  0  0  0  0  0  0  0  0  0  0  0
   57.0820   26.7510   45.6020 C   0  0  0  0  0  0  0  0  0  0  0  0
   56.9590   28.0710   45.0460 N   0  0  0  0  0  0  0  0  0  0  0  0
   57.7680   29.1880   45.4520 C   0  0  0  0  0  0  0  0  0  0  0  0
   58.8400   28.9930   46.0860 O   0  0  0  0  0  0  0  0  0  0  0  0
   57.3840   30.5640   45.0760 C   0  0  0  0  0  0  0  0  0  0  0  0
   56.2680   30.7690   44.5320 O   0  0  0  0  0  0  0  0  0  0  0  0
   58.2760   31.6710   45.2580 N   0  0  0  0  0  0  0  0  0  0  0  0
   58.6500   32.2620   46.5120 C   0  0  0  0  0  0  0  0  0  0  0  0
   58.5460   31.5410   47.7170 C   0  0  0  0  0  0  0  0  0  0  0  0
   58.8880   32.1420   48.9300 C   0  0  0  0  0  0  0  0  0  0  0  0
   59.3190   33.4700   48.9560 C   0  0  0  0  0  0  0  0  0  0  0  0
   59.4010   34.2020   47.7690 C   0  0  0  0  0  0  0  0  0  0  0  0
   59.0600   33.6060   46.5490 C   0  0  0  0  0  0  0  0  0  0  0  0
   59.1800   34.6430   44.9440 Br  0  0  0  0  0  0  0  0  0  0  0  0
   58.3390   26.1750   45.8460 C   0  0  0  0  0  0  0  0  0  0  0  0
   58.4360   24.9020   46.4080 C   0  0  0  0  0  0  0  0  0  0  0  0
   57.2770   24.1780   46.7370 C   0  0  0  0  0  0  0  0  0  0  0  0
   57.3490   22.8750   47.3360 N   0  0  0  0  0  0  0  0  0  0  0  0
   57.3760   21.6190   46.6480 C   0  0  0  0  0  0  0  0  0  0  0  0
   57.5760   20.5440   47.2750 O   0  0  0  0  0  0  0  0  0  0  0  0
   57.2250   21.5960   45.1890 C   0  0  0  0  0  0  0  0  0  0  0  0
   58.2440   21.4630   44.2660 C   0  0  0  0  0  0  0  0  0  0  0  0
   57.6320   21.4940   43.0310 C   0  0  0  0  0  0  0  0  0  0  0  0
   56.2820   21.6430   43.2760 C   0  0  0  0  0  0  0  0  0  0  0  0
   56.0700   21.7020   44.5710 O   0  0  0  0  0  0  0  0  0  0  0  0
   53.2424   22.8123   46.5728 H   0  0  0  0  0  0  0  0  0  0  0  0
   53.4984   24.1270   45.3758 H   0  0  0  0  0  0  0  0  0  0  0  0
   54.5762   22.6899   45.3758 H   0  0  0  0  0  0  0  0  0  0  0  0
   54.9385   26.5094   45.8191 H   0  0  0  0  0  0  0  0  0  0  0  0
   56.2850   28.2080   44.2590 H   0  0  0  0  0  0  0  0  0  0  0  0
   58.1936   30.4991   47.7027 H   0  0  0  0  0  0  0  0  0  0  0  0
   58.8178   31.5687   49.8662 H   0  0  0  0  0  0  0  0  0  0  0  0
   59.5941   33.9400   49.9117 H   0  0  0  0  0  0  0  0  0  0  0  0
   59.7345   35.2499   47.7930 H   0  0  0  0  0  0  0  0  0  0  0  0
   59.2534   26.7313   45.5923 H   0  0  0  0  0  0  0  0  0  0  0  0
   59.4265   24.4616   46.5950 H   0  0  0  0  0  0  0  0  0  0  0  0
   59.3189   21.3550   44.4730 H   0  0  0  0  0  0  0  0  0  0  0  0
   58.1209   21.4158   42.0487 H   0  0  0  0  0  0  0  0  0  0  0  0
   55.5013   21.7033   42.5034 H   0  0  0  0  0  0  0  0  0  0  0  0
  1  2  1  0
  2  3  1  0
  3  4  2  0
  4  5  1  0
  5  6  1  0
  6  7  1  0
  7  8  2  0
  7  9  1  0
  9 10  2  0
  9 11  1  0
 11 12  1  0
 12 13  2  0
 13 14  1  0
 14 15  2  0
 15 16  1  0
 16 17  2  0
 17 18  1  0
  5 19  2  0
 19 20  1  0
 20 21  2  0
 21 22  1  0
 22 23  1  0
 23 24  2  0
 23 25  1  0
 25 26  2  0
 26 27  1  0
 27 28  2  0
 28 29  1  0
 21  3  1  0
 29 25  1  0
 17 12  1  0
  1 30  1  0
  1 31  1  0
  1 32  1  0
  4 33  1  0
  6 34  1  0
 13 35  1  0
 14 36  1  0
 15 37  1  0
 16 38  1  0
 19 39  1  0
 20 40  1  0
 26 41  1  0
 27 42  1  0
 28 43  1  0
M  CHG  2  11  -1  22  -1
M  END
>  <UniqueID>  (41) 
40

>  <SMILES>  (41) 
COc1cc(NC(=O)C(=O)[N-]c2ccccc2Br)ccc1[N-]C(=O)c1ccco1

>  <Energy>  (41) 
82.33472051089488

>  <Genealogy>  (41) 
COc1cc(NC(=O)C(=O)[N-]c2ccccc2Br)ccc1[N-]C(=O)c1ccco1 (protonated)
COc1cc(NC(=O)C(=O)[N-]c2ccccc2Br)ccc1[N-]C(=O)c1ccco1 (3D coordinates assigned)
COc1cc(NC(=O)C(=O)[N-]c2ccccc2Br)ccc1[N-]C(=O)c1ccco1 (optimized conformer: 82.33472051089488 kcal/mol)

>  <smiles>  (41) 
COc1cc(NC(=O)C(=O)Nc2ccccc2Br)ccc1NC(=O)c1ccco1

>  <score_type>  (41) 
oracle

>  <origin>  (41) 
adg

>  <m_score__min__energy>  (41) 
-11.300000000000001

>  <m_primary>  (41) 
energy

$$$$
41:0
     RDKit          3D

 48 51  0  0  0  0  0  0  0  0999 V2000
   60.1750   34.2780   48.4050 O   0  0  0  0  0  0  0  0  0  0  0  0
   59.6170   34.0390   47.3020 C   0  0  0  0  0  0  0  0  0  0  0  0
   59.6120   35.0850   46.2230 C   0  0  0  0  0  0  0  0  0  0  0  0
   59.3690   34.5140   44.9330 O   0  0  0  0  0  0  0  0  0  0  0  0
   58.6300   33.3400   44.7400 C   0  0  0  0  0  0  0  0  0  0  0  0
   58.1560   33.0130   43.4680 C   0  0  0  0  0  0  0  0  0  0  0  0
   57.4380   31.8290   43.2710 C   0  0  0  0  0  0  0  0  0  0  0  0
   57.2130   30.9510   44.3410 C   0  0  0  0  0  0  0  0  0  0  0  0
   56.4060   29.4070   44.0680 S   0  0  0  0  0  0  0  0  0  0  0  0
   54.9630   29.6620   43.7080 O   0  0  0  0  0  0  0  0  0  0  0  0
   57.0740   28.6800   42.9280 O   0  0  0  0  0  0  0  0  0  0  0  0
   56.4620   28.4270   45.5020 N   0  0  0  0  0  0  0  0  0  0  0  0
   57.5670   27.5580   45.7730 C   0  0  0  0  0  0  0  0  0  0  0  0
   58.8790   28.0330   45.6300 C   0  0  0  0  0  0  0  0  0  0  0  0
   59.9650   27.2010   45.9230 C   0  0  0  0  0  0  0  0  0  0  0  0
   59.7450   25.8860   46.3470 C   0  0  0  0  0  0  0  0  0  0  0  0
   58.4400   25.4000   46.4800 C   0  0  0  0  0  0  0  0  0  0  0  0
   57.3410   26.2310   46.2010 C   0  0  0  0  0  0  0  0  0  0  0  0
   55.9620   25.7070   46.3410 C   0  0  0  0  0  0  0  0  0  0  0  0
   55.0040   26.3500   45.8300 O   0  0  0  0  0  0  0  0  0  0  0  0
   55.6760   24.5080   47.0730 N   0  0  0  0  0  0  0  0  0  0  0  0
   55.1830   23.2710   46.4780 C   0  0  0  0  0  0  0  0  0  0  0  0
   56.1870   22.7630   45.4870 C   0  0  0  0  0  0  0  0  0  0  0  0
   55.8770   22.7300   44.1140 C   0  0  0  0  0  0  0  0  0  0  0  0
   56.8030   22.2300   43.1920 C   0  0  0  0  0  0  0  0  0  0  0  0
   58.0410   21.7500   43.6350 C   0  0  0  0  0  0  0  0  0  0  0  0
   58.3480   21.7600   45.0020 C   0  0  0  0  0  0  0  0  0  0  0  0
   57.4230   22.2590   45.9260 C   0  0  0  0  0  0  0  0  0  0  0  0
   57.6890   31.2800   45.6160 C   0  0  0  0  0  0  0  0  0  0  0  0
   58.3910   32.4770   45.8180 C   0  0  0  0  0  0  0  0  0  0  0  0
   58.9220   32.8040   47.1050 N   0  0  0  0  0  0  0  0  0  0  0  0
   58.8229   35.8194   46.4421 H   0  0  0  0  0  0  0  0  0  0  0  0
   60.6022   35.5637   46.2050 H   0  0  0  0  0  0  0  0  0  0  0  0
   58.3474   33.6871   42.6201 H   0  0  0  0  0  0  0  0  0  0  0  0
   57.0479   31.5853   42.2718 H   0  0  0  0  0  0  0  0  0  0  0  0
   59.0547   29.0631   45.2864 H   0  0  0  0  0  0  0  0  0  0  0  0
   60.9922   27.5809   45.8200 H   0  0  0  0  0  0  0  0  0  0  0  0
   60.5999   25.2329   46.5763 H   0  0  0  0  0  0  0  0  0  0  0  0
   58.2729   24.3623   46.8045 H   0  0  0  0  0  0  0  0  0  0  0  0
   55.0319   22.5189   47.2663 H   0  0  0  0  0  0  0  0  0  0  0  0
   54.2270   23.4626   45.9687 H   0  0  0  0  0  0  0  0  0  0  0  0
   54.9016   23.0993   43.7643 H   0  0  0  0  0  0  0  0  0  0  0  0
   56.5583   22.2141   42.1197 H   0  0  0  0  0  0  0  0  0  0  0  0
   58.7730   21.3649   42.9098 H   0  0  0  0  0  0  0  0  0  0  0  0
   59.3180   21.3749   45.3496 H   0  0  0  0  0  0  0  0  0  0  0  0
   57.6642   22.2567   46.9992 H   0  0  0  0  0  0  0  0  0  0  0  0
   57.5119   30.5982   46.4609 H   0  0  0  0  0  0  0  0  0  0  0  0
   58.8320   32.1310   47.9020 H   0  0  0  0  0  0  0  0  0  0  0  0
  1  2  2  0
  2  3  1  0
  3  4  1  0
  4  5  1  0
  5  6  2  0
  6  7  1  0
  7  8  2  0
  8  9  1  0
  9 10  2  0
  9 11  2  0
  9 12  1  0
 12 13  1  0
 13 14  2  0
 14 15  1  0
 15 16  2  0
 16 17  1  0
 17 18  2  0
 18 19  1  0
 19 20  2  0
 19 21  1  0
 21 22  1  0
 22 23  1  0
 23 24  2  0
 24 25  1  0
 25 26  2  0
 26 27  1  0
 27 28  2  0
  8 29  1  0
 29 30  2  0
 30 31  1  0
 31  2  1  0
 30  5  1  0
 18 13  1  0
 28 23  1  0
  3 32  1  0
  3 33  1  0
  6 34  1  0
  7 35  1  0
 14 36  1  0
 15 37  1  0
 16 38  1  0
 17 39  1  0
 22 40  1  0
 22 41  1  0
 24 42  1  0
 25 43  1  0
 26 44  1  0
 27 45  1  0
 28 46  1  0
 29 47  1  0
 31 48  1  0
M  CHG  2  12  -1  21  -1
M  END
>  <UniqueID>  (42) 
41

>  <SMILES>  (42) 
O=C1COc2ccc(S(=O)(=O)[N-]c3ccccc3C(=O)[N-]Cc3ccccc3)cc2N1

>  <Energy>  (42) 
63.95070367259769

>  <Genealogy>  (42) 
O=C1COc2ccc(S(=O)(=O)[N-]c3ccccc3C(=O)[N-]Cc3ccccc3)cc2N1 (protonated)
O=C1COc2ccc(S(=O)(=O)[N-]c3ccccc3C(=O)[N-]Cc3ccccc3)cc2N1 (3D coordinates assigned)
O=C1COc2ccc(S(=O)(=O)[N-]c3ccccc3C(=O)[N-]Cc3ccccc3)cc2N1 (nonaromatic ring conformer: 63.95070367259769 kcal/mol)

>  <smiles>  (42) 
O=C1COc2ccc(S(=O)(=O)Nc3ccccc3C(=O)NCc3ccccc3)cc2N1

>  <score_type>  (42) 
oracle

>  <origin>  (42) 
adg

>  <m_score__min__energy>  (42) 
-13.359999999999999

>  <m_primary>  (42) 
energy

$$$$
42:0
     RDKit          3D

 50 51  0  0  0  0  0  0  0  0999 V2000
   58.6330   34.2900   44.7890 C   0  0  0  0  0  0  0  0  0  0  0  0
   58.8670   33.9000   46.2180 C   0  0  0  0  0  0  0  0  0  0  0  0
   57.9030   33.1600   46.9130 C   0  0  0  0  0  0  0  0  0  0  0  0
   58.1310   32.7690   48.2320 C   0  0  0  0  0  0  0  0  0  0  0  0
   59.3360   33.0910   48.8800 C   0  0  0  0  0  0  0  0  0  0  0  0
   59.5450   32.6200   50.3080 C   0  0  0  0  0  0  0  0  0  0  0  0
   59.5200   33.7350   51.2720 N   0  0  0  0  0  0  0  0  0  0  0  0
   58.4800   33.5850   52.3020 C   0  0  0  0  0  0  0  0  0  0  0  0
   57.4020   32.5750   51.8760 C   0  0  0  0  0  0  0  0  0  0  0  0
   56.6290   31.9520   53.0520 C   0  0  0  0  0  0  0  0  0  0  0  0
   56.3130   30.4660   52.8360 C   0  0  0  0  0  0  0  0  0  0  0  0
   55.4700   30.2940   51.6450 N   0  0  0  0  0  0  0  0  0  0  0  0
   54.2400   29.5530   51.9570 C   0  0  0  0  0  0  0  0  0  0  0  0
   53.0850   30.5100   52.0480 C   0  0  0  0  0  0  0  0  0  0  0  0
   52.5440   30.8560   53.2960 C   0  0  0  0  0  0  0  0  0  0  0  0
   51.4930   31.7740   53.3790 C   0  0  0  0  0  0  0  0  0  0  0  0
   50.9810   32.3620   52.2190 C   0  0  0  0  0  0  0  0  0  0  0  0
   49.9350   33.2730   52.3070 O   0  0  0  0  0  0  0  0  0  0  0  0
   51.5260   32.0340   50.9710 C   0  0  0  0  0  0  0  0  0  0  0  0
   51.0250   32.6210   49.8150 O   0  0  0  0  0  0  0  0  0  0  0  0
   52.5780   31.1150   50.8860 C   0  0  0  0  0  0  0  0  0  0  0  0
   60.3260   33.8230   48.1750 C   0  0  0  0  0  0  0  0  0  0  0  0
   61.6170   34.2460   48.8290 C   0  0  0  0  0  0  0  0  0  0  0  0
   60.0760   34.2190   46.8490 C   0  0  0  0  0  0  0  0  0  0  0  0
   58.0673   35.2328   44.7541 H   0  0  0  0  0  0  0  0  0  0  0  0
   59.6002   34.4237   44.2823 H   0  0  0  0  0  0  0  0  0  0  0  0
   58.0599   33.4996   44.2823 H   0  0  0  0  0  0  0  0  0  0  0  0
   56.9608   32.8856   46.4161 H   0  0  0  0  0  0  0  0  0  0  0  0
   57.3585   32.2017   48.7718 H   0  0  0  0  0  0  0  0  0  0  0  0
   58.7460   31.9098   50.5672 H   0  0  0  0  0  0  0  0  0  0  0  0
   60.5362   32.1464   50.3655 H   0  0  0  0  0  0  0  0  0  0  0  0
   60.4480   33.8160   51.7490 H   0  0  0  0  0  0  0  0  0  0  0  0
   58.9484   33.2352   53.2338 H   0  0  0  0  0  0  0  0  0  0  0  0
   57.9969   34.5625   52.4476 H   0  0  0  0  0  0  0  0  0  0  0  0
   56.6824   33.0915   51.2238 H   0  0  0  0  0  0  0  0  0  0  0  0
   57.9216   31.7514   51.3644 H   0  0  0  0  0  0  0  0  0  0  0  0
   57.2355   32.0533   53.9641 H   0  0  0  0  0  0  0  0  0  0  0  0
   55.6706   32.4851   53.1376 H   0  0  0  0  0  0  0  0  0  0  0  0
   57.2528   29.9109   52.6991 H   0  0  0  0  0  0  0  0  0  0  0  0
   55.7745   30.0823   53.7151 H   0  0  0  0  0  0  0  0  0  0  0  0
   55.1850   31.2460   51.3120 H   0  0  0  0  0  0  0  0  0  0  0  0
   54.0443   28.8173   51.1630 H   0  0  0  0  0  0  0  0  0  0  0  0
   54.3605   29.0330   52.9188 H   0  0  0  0  0  0  0  0  0  0  0  0
   52.9488   30.4028   54.2129 H   0  0  0  0  0  0  0  0  0  0  0  0
   51.0679   32.0342   54.3596 H   0  0  0  0  0  0  0  0  0  0  0  0
   53.0096   30.8654   49.9055 H   0  0  0  0  0  0  0  0  0  0  0  0
   61.5035   34.2088   49.9225 H   0  0  0  0  0  0  0  0  0  0  0  0
   62.4243   33.5654   48.5208 H   0  0  0  0  0  0  0  0  0  0  0  0
   61.8651   35.2724   48.5208 H   0  0  0  0  0  0  0  0  0  0  0  0
   60.8409   34.7874   46.2995 H   0  0  0  0  0  0  0  0  0  0  0  0
  1  2  1  0
  2  3  2  0
  3  4  1  0
  4  5  2  0
  5  6  1  0
  6  7  1  0
  7  8  1  0
  8  9  1  0
  9 10  1  0
 10 11  1  0
 11 12  1  0
 12 13  1  0
 13 14  1  0
 14 15  2  0
 15 16  1  0
 16 17  2  0
 17 18  1  0
 17 19  1  0
 19 20  1  0
 19 21  2  0
  5 22  1  0
 22 23  1  0
 22 24  2  0
 24  2  1  0
 21 14  1  0
  1 25  1  0
  1 26  1  0
  1 27  1  0
  3 28  1  0
  4 29  1  0
  6 30  1  0
  6 31  1  0
  7 32  1  0
  8 33  1  0
  8 34  1  0
  9 35  1  0
  9 36  1  0
 10 37  1  0
 10 38  1  0
 11 39  1  0
 11 40  1  0
 12 41  1  0
 13 42  1  0
 13 43  1  0
 15 44  1  0
 16 45  1  0
 21 46  1  0
 23 47  1  0
 23 48  1  0
 23 49  1  0
 24 50  1  0
M  CHG  2  18  -1  20  -1
M  END
>  <UniqueID>  (43) 
42

>  <SMILES>  (43) 
Cc1ccc(CNCCCCNCc2ccc([O-])c([O-])c2)c(C)c1

>  <Energy>  (43) 
46.4751686011275

>  <Genealogy>  (43) 
Cc1ccc(CNCCCCNCc2ccc([O-])c([O-])c2)c(C)c1 (protonated)
Cc1ccc(CNCCCCNCc2ccc([O-])c([O-])c2)c(C)c1 (3D coordinates assigned)
Cc1ccc(CNCCCCNCc2ccc([O-])c([O-])c2)c(C)c1 (optimized conformer: 46.4751686011275 kcal/mol)

>  <smiles>  (43) 
Cc1ccc(CNCCCCNCc2ccc(O)c(O)c2)c(C)c1

>  <score_type>  (43) 
oracle

>  <origin>  (43) 
adg

>  <m_score__min__energy>  (43) 
-17.039999999999999

>  <m_primary>  (43) 
energy

$$$$
43:0
     RDKit          3D

 24 26  0  0  0  0  0  0  0  0999 V2000
   55.5350   24.3050   46.7170 O   0  0  0  0  0  0  0  0  0  0  0  0
   55.9370   25.4200   46.2940 C   0  0  0  0  0  0  0  0  0  0  0  0
   55.0990   26.4490   46.0470 N   0  0  0  0  0  0  0  0  0  0  0  0
   55.9330   27.4100   45.6210 C   0  0  0  0  0  0  0  0  0  0  0  0
   55.5190   28.6760   45.2270 O   0  0  0  0  0  0  0  0  0  0  0  0
   57.2300   26.9550   45.6290 C   0  0  0  0  0  0  0  0  0  0  0  0
   58.4430   27.7010   45.1700 C   0  0  0  0  0  0  0  0  0  0  0  0
   58.4450   29.0880   45.7390 C   0  0  0  0  0  0  0  0  0  0  0  0
   58.7300   29.2820   47.0620 N   0  0  0  0  0  0  0  0  0  0  0  0
   58.7130   30.5230   47.6430 C   0  0  0  0  0  0  0  0  0  0  0  0
   58.3850   31.6590   46.8820 C   0  0  0  0  0  0  0  0  0  0  0  0
   58.0850   31.4570   45.5390 C   0  0  0  0  0  0  0  0  0  0  0  0
   57.7200   32.3510   44.5570 C   0  0  0  0  0  0  0  0  0  0  0  0
   57.5360   31.5800   43.4150 C   0  0  0  0  0  0  0  0  0  0  0  0
   57.7730   30.2730   43.6740 N   0  0  0  0  0  0  0  0  0  0  0  0
   58.1080   30.2120   44.9750 C   0  0  0  0  0  0  0  0  0  0  0  0
   57.2410   25.6770   46.0500 N   0  0  0  0  0  0  0  0  0  0  0  0
   59.3453   27.1692   45.5063 H   0  0  0  0  0  0  0  0  0  0  0  0
   58.4310   27.7640   44.0719 H   0  0  0  0  0  0  0  0  0  0  0  0
   58.9572   30.6310   48.7101 H   0  0  0  0  0  0  0  0  0  0  0  0
   58.3665   32.6637   47.3294 H   0  0  0  0  0  0  0  0  0  0  0  0
   57.6000   33.4400   44.6551 H   0  0  0  0  0  0  0  0  0  0  0  0
   57.2381   31.9783   42.4338 H   0  0  0  0  0  0  0  0  0  0  0  0
   57.7050   29.4850   42.9930 H   0  0  0  0  0  0  0  0  0  0  0  0
  1  2  2  0
  2  3  1  0
  3  4  1  0
  4  5  1  0
  4  6  2  0
  6  7  1  0
  7  8  1  0
  8  9  2  0
  9 10  1  0
 10 11  2  0
 11 12  1  0
 12 13  1  0
 13 14  2  0
 14 15  1  0
 15 16  1  0
  6 17  1  0
 17  2  1  0
 16  8  1  0
 16 12  2  0
  7 18  1  0
  7 19  1  0
 10 20  1  0
 11 21  1  0
 13 22  1  0
 14 23  1  0
 15 24  1  0
M  CHG  3   3  -1   5  -1  17  -1
M  END
>  <UniqueID>  (44) 
43

>  <SMILES>  (44) 
O=c1[n-]c([O-])c(Cc2nccc3cc[nH]c23)[n-]1

>  <Energy>  (44) 
87.88442548431576

>  <Genealogy>  (44) 
O=c1[n-]c([O-])c(Cc2nccc3cc[nH]c23)[n-]1 (protonated)
O=c1[n-]c([O-])c(Cc2nccc3cc[nH]c23)[n-]1 (3D coordinates assigned)
O=c1[n-]c([O-])c(Cc2nccc3cc[nH]c23)[n-]1 (optimized conformer: 87.88442548431576 kcal/mol)

>  <smiles>  (44) 
O=c1[nH]c(O)c(Cc2nccc3cc[nH]c23)[nH]1

>  <score_type>  (44) 
oracle

>  <origin>  (44) 
adg

>  <m_score__min__energy>  (44) 
-15.210000000000001

>  <m_primary>  (44) 
energy

$$$$
44:0
     RDKit          3D

 56 59  0  0  0  0  0  0  0  0999 V2000
   54.6000   26.1620   45.9970 O   0  0  0  0  0  0  0  0  0  0  0  0
   55.8270   26.2230   46.2730 C   0  0  0  0  0  0  0  0  0  0  0  0
   56.4250   25.1790   46.9060 N   0  0  0  0  0  0  0  0  0  0  0  0
   57.7470   25.1930   47.2230 C   0  0  0  0  0  0  0  0  0  0  0  0
   58.5300   26.3000   46.9000 C   0  0  0  0  0  0  0  0  0  0  0  0
   57.9430   27.3890   46.2520 C   0  0  0  0  0  0  0  0  0  0  0  0
   56.5760   27.3610   45.9260 C   0  0  0  0  0  0  0  0  0  0  0  0
   55.9280   28.4500   45.2530 N   0  0  0  0  0  0  0  0  0  0  0  0
   56.6140   29.3720   43.9550 S   0  0  0  0  0  0  0  0  0  0  0  0
   57.5630   28.5040   43.1780 O   0  0  0  0  0  0  0  0  0  0  0  0
   55.5100   29.8310   43.0420 O   0  0  0  0  0  0  0  0  0  0  0  0
   57.4980   30.7450   44.6070 C   0  0  0  0  0  0  0  0  0  0  0  0
   57.0750   32.0560   44.3470 C   0  0  0  0  0  0  0  0  0  0  0  0
   57.7410   33.1380   44.9290 C   0  0  0  0  0  0  0  0  0  0  0  0
   58.8430   32.9190   45.7660 C   0  0  0  0  0  0  0  0  0  0  0  0
   59.6060   34.2530   46.6230 S   0  0  0  0  0  0  0  0  0  0  0  0
   60.0110   35.3030   45.6270 O   0  0  0  0  0  0  0  0  0  0  0  0
   58.6470   34.8620   47.6090 O   0  0  0  0  0  0  0  0  0  0  0  0
   61.0130   33.6400   47.4530 N   0  0  0  0  0  0  0  0  0  0  0  0
   61.1500   34.2920   48.7720 C   0  0  0  0  0  0  0  0  0  0  0  0
   62.5810   34.2090   49.3530 C   0  0  0  0  0  0  0  0  0  0  0  0
   63.4040   33.1430   48.7500 N   0  0  0  0  0  0  0  0  0  0  0  0
   63.4140   31.8470   49.4640 C   0  0  0  0  0  0  0  0  0  0  0  0
   62.0640   31.1680   49.5120 C   0  0  0  0  0  0  0  0  0  0  0  0
   61.2850   31.2100   50.6820 C   0  0  0  0  0  0  0  0  0  0  0  0
   60.0500   30.5560   50.7310 C   0  0  0  0  0  0  0  0  0  0  0  0
   59.5750   29.8700   49.6120 C   0  0  0  0  0  0  0  0  0  0  0  0
   60.3290   29.8450   48.4370 C   0  0  0  0  0  0  0  0  0  0  0  0
   61.5630   30.5000   48.3810 C   0  0  0  0  0  0  0  0  0  0  0  0
   63.4010   33.0740   47.2700 C   0  0  0  0  0  0  0  0  0  0  0  0
   62.2190   33.8270   46.6370 C   0  0  0  0  0  0  0  0  0  0  0  0
   59.2800   31.6100   46.0050 C   0  0  0  0  0  0  0  0  0  0  0  0
   58.6110   30.5290   45.4280 C   0  0  0  0  0  0  0  0  0  0  0  0
   58.1989   24.3304   47.7346 H   0  0  0  0  0  0  0  0  0  0  0  0
   59.6004   26.3157   47.1532 H   0  0  0  0  0  0  0  0  0  0  0  0
   58.5510   28.2694   45.9965 H   0  0  0  0  0  0  0  0  0  0  0  0
   56.2163   32.2336   43.6829 H   0  0  0  0  0  0  0  0  0  0  0  0
   57.3991   34.1643   44.7294 H   0  0  0  0  0  0  0  0  0  0  0  0
   60.8470   32.6170   47.5860 H   0  0  0  0  0  0  0  0  0  0  0  0
   60.8775   35.3525   48.6666 H   0  0  0  0  0  0  0  0  0  0  0  0
   60.4857   33.7590   49.4681 H   0  0  0  0  0  0  0  0  0  0  0  0
   63.0819   35.1733   49.1821 H   0  0  0  0  0  0  0  0  0  0  0  0
   62.4810   33.9724   50.4226 H   0  0  0  0  0  0  0  0  0  0  0  0
   64.1221   31.1761   48.9556 H   0  0  0  0  0  0  0  0  0  0  0  0
   63.7056   32.0556   50.5039 H   0  0  0  0  0  0  0  0  0  0  0  0
   61.6488   31.7598   51.5626 H   0  0  0  0  0  0  0  0  0  0  0  0
   59.4514   30.5822   51.6535 H   0  0  0  0  0  0  0  0  0  0  0  0
   58.6070   29.3493   49.6558 H   0  0  0  0  0  0  0  0  0  0  0  0
   59.9514   29.3090   47.5538 H   0  0  0  0  0  0  0  0  0  0  0  0
   62.1447   30.4926   47.4474 H   0  0  0  0  0  0  0  0  0  0  0  0
   64.3375   33.5138   46.8965 H   0  0  0  0  0  0  0  0  0  0  0  0
   63.3050   32.0147   46.9897 H   0  0  0  0  0  0  0  0  0  0  0  0
   62.4581   34.8992   46.5798 H   0  0  0  0  0  0  0  0  0  0  0  0
   62.0374   33.4322   45.6265 H   0  0  0  0  0  0  0  0  0  0  0  0
   60.1535   31.4330   46.6497 H   0  0  0  0  0  0  0  0  0  0  0  0
   58.9599   29.5035   45.6193 H   0  0  0  0  0  0  0  0  0  0  0  0
  1  2  2  0
  2  3  1  0
  3  4  1  0
  4  5  2  0
  5  6  1  0
  6  7  2  0
  7  8  1  0
  8  9  1  0
  9 10  2  0
  9 11  2  0
  9 12  1  0
 12 13  2  0
 13 14  1  0
 14 15  2  0
 15 16  1  0
 16 17  2  0
 16 18  2  0
 16 19  1  0
 19 20  1  0
 20 21  1  0
 21 22  1  0
 22 23  1  0
 23 24  1  0
 24 25  2  0
 25 26  1  0
 26 27  2  0
 27 28  1  0
 28 29  2  0
 22 30  1  0
 30 31  1  0
 15 32  1  0
 32 33  2  0
  7  2  1  0
 33 12  1  0
 31 19  1  0
 29 24  1  0
  4 34  1  0
  5 35  1  0
  6 36  1  0
 13 37  1  0
 14 38  1  0
 19 39  1  0
 20 40  1  0
 20 41  1  0
 21 42  1  0
 21 43  1  0
 23 44  1  0
 23 45  1  0
 25 46  1  0
 26 47  1  0
 27 48  1  0
 28 49  1  0
 29 50  1  0
 30 51  1  0
 30 52  1  0
 31 53  1  0
 31 54  1  0
 32 55  1  0
 33 56  1  0
M  CHG  3   3  -1   8  -1  19   1
M  END
>  <UniqueID>  (45) 
44

>  <SMILES>  (45) 
O=c1[n-]cccc1[N-]S(=O)(=O)c1ccc(S(=O)(=O)[NH+]2CCN(Cc3ccccc3)CC2)cc1

>  <Energy>  (45) 
72.52793479709935

>  <Genealogy>  (45) 
O=c1[n-]cccc1[N-]S(=O)(=O)c1ccc(S(=O)(=O)[NH+]2CCN(Cc3ccccc3)CC2)cc1 (protonated)
O=c1[n-]cccc1[N-]S(=O)(=O)c1ccc(S(=O)(=O)[NH+]2CCN(Cc3ccccc3)CC2)cc1 (3D coordinates assigned)
O=c1[n-]cccc1[N-]S(=O)(=O)c1ccc(S(=O)(=O)[NH+]2CCN(Cc3ccccc3)CC2)cc1 (nonaromatic ring conformer: 72.52793479709935 kcal/mol)

>  <smiles>  (45) 
O=c1[nH]cccc1NS(=O)(=O)c1ccc(S(=O)(=O)N2CCN(Cc3ccccc3)CC2)cc1

>  <score_type>  (45) 
oracle

>  <origin>  (45) 
adg

>  <m_score__min__energy>  (45) 
-12.84

>  <m_primary>  (45) 
energy

$$$$
45:0
     RDKit          3D

 37 40  0  0  0  0  0  0  0  0999 V2000
   53.8850   21.0460   46.6060 O   0  0  0  0  0  0  0  0  0  0  0  0
   53.6640   22.0620   45.8950 C   0  0  0  0  0  0  0  0  0  0  0  0
   52.4080   22.2210   45.3200 O   0  0  0  0  0  0  0  0  0  0  0  0
   54.7230   23.0700   45.6730 C   0  0  0  0  0  0  0  0  0  0  0  0
   55.9780   22.6820   45.1320 C   0  0  0  0  0  0  0  0  0  0  0  0
   56.9940   23.6310   44.9160 C   0  0  0  0  0  0  0  0  0  0  0  0
   56.7240   24.9550   45.2490 C   0  0  0  0  0  0  0  0  0  0  0  0
   57.5360   26.0130   45.1280 N   0  0  0  0  0  0  0  0  0  0  0  0
   56.7690   27.0340   45.5950 C   0  0  0  0  0  0  0  0  0  0  0  0
   57.2450   28.4340   45.6610 C   0  0  0  0  0  0  0  0  0  0  0  0
   56.7860   29.3880   44.7380 C   0  0  0  0  0  0  0  0  0  0  0  0
   57.2360   30.7100   44.8010 C   0  0  0  0  0  0  0  0  0  0  0  0
   58.1560   31.1060   45.7870 C   0  0  0  0  0  0  0  0  0  0  0  0
   58.6350   32.5110   45.8520 C   0  0  0  0  0  0  0  0  0  0  0  0
   58.4130   33.3940   44.7790 C   0  0  0  0  0  0  0  0  0  0  0  0
   58.8650   34.7150   44.8420 C   0  0  0  0  0  0  0  0  0  0  0  0
   59.5460   35.1730   45.9770 C   0  0  0  0  0  0  0  0  0  0  0  0
   60.0010   36.4870   46.0510 O   0  0  0  0  0  0  0  0  0  0  0  0
   59.7720   34.3030   47.0470 C   0  0  0  0  0  0  0  0  0  0  0  0
   59.3210   32.9820   46.9880 C   0  0  0  0  0  0  0  0  0  0  0  0
   58.6150   30.1510   46.7100 C   0  0  0  0  0  0  0  0  0  0  0  0
   58.1640   28.8290   46.6480 C   0  0  0  0  0  0  0  0  0  0  0  0
   55.5250   26.6570   45.9980 N   0  0  0  0  0  0  0  0  0  0  0  0
   55.5270   25.3370   45.7660 C   0  0  0  0  0  0  0  0  0  0  0  0
   54.4960   24.4300   45.9950 C   0  0  0  0  0  0  0  0  0  0  0  0
   56.1576   21.6267   44.8789 H   0  0  0  0  0  0  0  0  0  0  0  0
   57.9681   23.3366   44.4983 H   0  0  0  0  0  0  0  0  0  0  0  0
   56.0670   29.0927   43.9597 H   0  0  0  0  0  0  0  0  0  0  0  0
   56.8668   31.4468   44.0725 H   0  0  0  0  0  0  0  0  0  0  0  0
   57.8796   33.0418   43.8838 H   0  0  0  0  0  0  0  0  0  0  0  0
   58.6854   35.3970   43.9978 H   0  0  0  0  0  0  0  0  0  0  0  0
   59.6580   37.1280   46.7570 H   0  0  0  0  0  0  0  0  0  0  0  0
   60.3072   34.6597   47.9394 H   0  0  0  0  0  0  0  0  0  0  0  0
   59.5032   32.3047   47.8354 H   0  0  0  0  0  0  0  0  0  0  0  0
   59.3350   30.4459   47.4876 H   0  0  0  0  0  0  0  0  0  0  0  0
   58.5315   28.0923   47.3776 H   0  0  0  0  0  0  0  0  0  0  0  0
   53.5338   24.7600   46.4136 H   0  0  0  0  0  0  0  0  0  0  0  0
  1  2  2  0
  2  3  1  0
  2  4  1  0
  4  5  2  0
  5  6  1  0
  6  7  2  0
  7  8  1  0
  8  9  1  0
  9 10  1  0
 10 11  2  0
 11 12  1  0
 12 13  2  0
 13 14  1  0
 14 15  2  0
 15 16  1  0
 16 17  2  0
 17 18  1  0
 17 19  1  0
 19 20  2  0
 13 21  1  0
 21 22  2  0
  9 23  2  0
 23 24  1  0
 24 25  2  0
 25  4  1  0
 24  7  1  0
 22 10  1  0
 20 14  1  0
  5 26  1  0
  6 27  1  0
 11 28  1  0
 12 29  1  0
 15 30  1  0
 16 31  1  0
 18 32  1  0
 19 33  1  0
 20 34  1  0
 21 35  1  0
 22 36  1  0
 25 37  1  0
M  CHG  2   3  -1   8  -1
M  END
>  <UniqueID>  (46) 
45

>  <SMILES>  (46) 
O=C([O-])c1ccc2[n-]c(-c3ccc(-c4ccc(O)cc4)cc3)nc2c1

>  <Energy>  (46) 
82.97933263850409

>  <Genealogy>  (46) 
O=C([O-])c1ccc2[n-]c(-c3ccc(-c4ccc(O)cc4)cc3)nc2c1 (protonated)
O=C([O-])c1ccc2[n-]c(-c3ccc(-c4ccc(O)cc4)cc3)nc2c1 (3D coordinates assigned)
O=C([O-])c1ccc2[n-]c(-c3ccc(-c4ccc(O)cc4)cc3)nc2c1 (optimized conformer: 82.97933263850409 kcal/mol)

>  <smiles>  (46) 
O=C(O)c1ccc2[nH]c(-c3ccc(-c4ccc(O)cc4)cc3)nc2c1

>  <score_type>  (46) 
oracle

>  <origin>  (46) 
adg

>  <m_score__min__energy>  (46) 
-11.119999999999999

>  <m_primary>  (46) 
energy

$$$$
46:0
     RDKit          3D

 28 29  0  0  0  0  0  0  0  0999 V2000
   56.1823   21.7515   46.2162 H   0  0  0  0  0  0  0  0  0  0  0  0
   55.7210   22.6810   45.8510 C   0  0  0  0  0  0  0  0  0  0  0  0
   55.3170   22.7090   44.6120 N   0  0  0  0  0  0  0  0  0  0  0  0
   56.1060   22.8250   43.4170 C   0  0  0  0  0  0  0  0  0  0  0  0
   56.1980   21.8760   42.5940 O   0  0  0  0  0  0  0  0  0  0  0  0
   56.9110   24.0610   43.1950 C   0  0  0  0  0  0  0  0  0  0  0  0
   57.1931   24.4942   44.1660 H   0  0  0  0  0  0  0  0  0  0  0  0
   57.8194   23.8100   42.6277 H   0  0  0  0  0  0  0  0  0  0  0  0
   56.3142   24.7903   42.6277 H   0  0  0  0  0  0  0  0  0  0  0  0
   55.6020   23.8300   46.8200 C   0  0  0  0  0  0  0  0  0  0  0  0
   54.5463   24.1330   46.8818 H   0  0  0  0  0  0  0  0  0  0  0  0
   55.9793   23.4887   47.7953 H   0  0  0  0  0  0  0  0  0  0  0  0
   56.4280   25.0260   46.3960 C   0  0  0  0  0  0  0  0  0  0  0  0
   57.8330   24.9680   46.4730 C   0  0  0  0  0  0  0  0  0  0  0  0
   58.3209   24.0463   46.8229 H   0  0  0  0  0  0  0  0  0  0  0  0
   58.6140   26.0680   46.1100 C   0  0  0  0  0  0  0  0  0  0  0  0
   59.7110   26.0044   46.1598 H   0  0  0  0  0  0  0  0  0  0  0  0
   58.0000   27.2510   45.6830 C   0  0  0  0  0  0  0  0  0  0  0  0
   58.7520   28.3700   45.3120 C   0  0  0  0  0  0  0  0  0  0  0  0
   59.8510   28.3357   45.3432 H   0  0  0  0  0  0  0  0  0  0  0  0
   58.0950   29.5300   44.9020 C   0  0  0  0  0  0  0  0  0  0  0  0
   58.6678   30.4210   44.6052 H   0  0  0  0  0  0  0  0  0  0  0  0
   56.6970   29.5430   44.8740 C   0  0  0  0  0  0  0  0  0  0  0  0
   56.0850   30.5810   44.5090 O   0  0  0  0  0  0  0  0  0  0  0  0
   56.0070   28.4640   45.2340 O   0  0  0  0  0  0  0  0  0  0  0  0
   56.5930   27.3340   45.6300 C   0  0  0  0  0  0  0  0  0  0  0  0
   55.8110   26.2300   45.9960 C   0  0  0  0  0  0  0  0  0  0  0  0
   54.4240   26.3400   45.9610 O   0  0  0  0  0  0  0  0  0  0  0  0
  1  2  1  0
  2  3  2  0
  3  4  1  0
  4  5  2  0
  4  6  1  0
  6  7  1  0
  6  8  1  0
  6  9  1  0
  2 10  1  0
 10 11  1  0
 10 12  1  0
 10 13  1  0
 13 14  2  0
 14 15  1  0
 14 16  1  0
 16 17  1  0
 16 18  2  0
 18 19  1  0
 19 20  1  0
 19 21  2  0
 21 22  1  0
 21 23  1  0
 23 24  2  0
 23 25  1  0
 25 26  1  0
 26 27  2  0
 27 28  1  0
 27 13  1  0
 26 18  1  0
M  CHG  1  28  -1
M  END
>  <UniqueID>  (47) 
46

>  <SMILES>  (47) 
CC(=O)/N=C\Cc1ccc2ccc(=O)oc2c1[O-]

>  <Energy>  (47) 
35.04533420957862

>  <Genealogy>  (47) 
CC(=O)N=CCc1ccc2ccc(=O)oc2c1[O-] (protonated)
CC(=O)/N=C\Cc1ccc2ccc(=O)oc2c1[O-] (cis-trans isomerization)
CC(=O)/N=C\Cc1ccc2ccc(=O)oc2c1[O-] (3D coordinates assigned)
CC(=O)/N=C\Cc1ccc2ccc(=O)oc2c1[O-] (optimized conformer: 35.04533420957862 kcal/mol)

>  <smiles>  (47) 
CC(=O)N=CCc1ccc2ccc(=O)oc2c1O

>  <score_type>  (47) 
oracle

>  <origin>  (47) 
adg

>  <m_score__min__energy>  (47) 
-11.19

>  <m_primary>  (47) 
energy

$$$$
47:0
     RDKit          3D

 42 44  0  0  0  0  0  0  0  0999 V2000
   56.9120   26.8570   45.8010 C   0  0  0  0  0  0  0  0  0  0  0  0
   56.2220   28.0840   45.5890 O   0  0  0  0  0  0  0  0  0  0  0  0
   56.7460   29.1850   44.8940 C   0  0  0  0  0  0  0  0  0  0  0  0
   56.0730   29.7570   43.7940 C   0  0  0  0  0  0  0  0  0  0  0  0
   56.6490   30.8120   43.0830 C   0  0  0  0  0  0  0  0  0  0  0  0
   57.9020   31.3040   43.4510 C   0  0  0  0  0  0  0  0  0  0  0  0
   58.5740   30.7530   44.5430 C   0  0  0  0  0  0  0  0  0  0  0  0
   57.9950   29.7170   45.2860 C   0  0  0  0  0  0  0  0  0  0  0  0
   58.7250   29.1840   46.3980 N   0  0  0  0  0  0  0  0  0  0  0  0
   58.9500   29.8640   47.6400 C   0  0  0  0  0  0  0  0  0  0  0  0
   58.5150   29.3720   48.7180 O   0  0  0  0  0  0  0  0  0  0  0  0
   59.5840   31.1620   47.6350 N   0  0  2  0  0  0  0  0  0  0  0  0
   60.7180   31.1660   48.5880 C   0  0  0  0  0  0  0  0  0  0  0  0
   61.8700   31.9820   48.0750 C   0  0  0  0  0  0  0  0  0  0  0  0
   62.9950   32.3360   48.7920 C   0  0  0  0  0  0  0  0  0  0  0  0
   63.7620   33.0890   47.9290 C   0  0  0  0  0  0  0  0  0  0  0  0
   63.0580   33.1480   46.7430 C   0  0  0  0  0  0  0  0  0  0  0  0
   61.9340   32.4790   46.8610 O   0  0  0  0  0  0  0  0  0  0  0  0
   58.5940   32.2150   47.9620 C   0  0  0  0  0  0  0  0  0  0  0  0
   58.4540   33.2090   46.8430 C   0  0  0  0  0  0  0  0  0  0  0  0
   59.4770   33.9860   46.3160 C   0  0  0  0  0  0  0  0  0  0  0  0
   59.0710   34.7610   45.2230 C   0  0  0  0  0  0  0  0  0  0  0  0
   57.7360   34.5880   44.8820 C   0  0  0  0  0  0  0  0  0  0  0  0
   57.0600   33.4670   45.9380 S   0  0  0  0  0  0  0  0  0  0  0  0
   57.0140   26.6756   46.8811 H   0  0  0  0  0  0  0  0  0  0  0  0
   56.3447   26.0334   45.3428 H   0  0  0  0  0  0  0  0  0  0  0  0
   57.9104   26.9139   45.3428 H   0  0  0  0  0  0  0  0  0  0  0  0
   55.0881   29.3695   43.4943 H   0  0  0  0  0  0  0  0  0  0  0  0
   56.1137   31.2562   42.2309 H   0  0  0  0  0  0  0  0  0  0  0  0
   58.3597   32.1257   42.8806 H   0  0  0  0  0  0  0  0  0  0  0  0
   59.5667   31.1357   44.8223 H   0  0  0  0  0  0  0  0  0  0  0  0
   59.9640   31.3380   46.6730 H   0  0  0  0  0  0  0  0  0  0  0  0
   60.3786   31.5899   49.5446 H   0  0  0  0  0  0  0  0  0  0  0  0
   61.0620   30.1292   48.7171 H   0  0  0  0  0  0  0  0  0  0  0  0
   63.2302   32.0725   49.8337 H   0  0  0  0  0  0  0  0  0  0  0  0
   64.7378   33.5498   48.1423 H   0  0  0  0  0  0  0  0  0  0  0  0
   63.3885   33.6756   45.8361 H   0  0  0  0  0  0  0  0  0  0  0  0
   57.6174   31.7427   48.1443 H   0  0  0  0  0  0  0  0  0  0  0  0
   58.9441   32.7508   48.8566 H   0  0  0  0  0  0  0  0  0  0  0  0
   60.5016   33.9920   46.7163 H   0  0  0  0  0  0  0  0  0  0  0  0
   59.7460   35.4428   44.6850 H   0  0  0  0  0  0  0  0  0  0  0  0
   57.2102   35.0974   44.0610 H   0  0  0  0  0  0  0  0  0  0  0  0
  1  2  1  0
  2  3  1  0
  3  4  2  0
  4  5  1  0
  5  6  2  0
  6  7  1  0
  7  8  2  0
  8  9  1  0
  9 10  1  0
 10 11  2  0
 10 12  1  0
 12 13  1  0
 13 14  1  0
 14 15  2  0
 15 16  1  0
 16 17  2  0
 17 18  1  0
 12 19  1  0
 19 20  1  0
 20 21  2  0
 21 22  1  0
 22 23  2  0
 23 24  1  0
  8  3  1  0
 18 14  1  0
 24 20  1  0
  1 25  1  0
  1 26  1  0
  1 27  1  0
  4 28  1  0
  5 29  1  0
  6 30  1  0
  7 31  1  0
 12 32  1  6
 13 33  1  0
 13 34  1  0
 15 35  1  0
 16 36  1  0
 17 37  1  0
 19 38  1  0
 19 39  1  0
 21 40  1  0
 22 41  1  0
 23 42  1  0
M  CHG  2   9  -1  12   1
M  END
>  <UniqueID>  (48) 
47

>  <SMILES>  (48) 
COc1ccccc1[N-]C(=O)[N@H+](Cc1ccco1)Cc1cccs1

>  <Energy>  (48) 
101.1133453758838

>  <Genealogy>  (48) 
COc1ccccc1[N-]C(=O)[NH+](Cc1ccco1)Cc1cccs1 (protonated)
COc1ccccc1[N-]C(=O)[N@H+](Cc1ccco1)Cc1cccs1 (chirality)
COc1ccccc1[N-]C(=O)[N@H+](Cc1ccco1)Cc1cccs1 (3D coordinates assigned)
COc1ccccc1[N-]C(=O)[N@H+](Cc1ccco1)Cc1cccs1 (optimized conformer: 101.1133453758838 kcal/mol)

>  <smiles>  (48) 
COc1ccccc1NC(=O)N(Cc1ccco1)Cc1cccs1

>  <score_type>  (48) 
oracle

>  <origin>  (48) 
adg

>  <m_score__min__energy>  (48) 
-7.6600000000000001

>  <m_primary>  (48) 
energy

$$$$
48:0
     RDKit          3D

 59 61  0  0  0  0  0  0  0  0999 V2000
   57.4267   34.0612   43.5035 H   0  0  0  0  0  0  0  0  0  0  0  0
   57.8900   33.9950   44.4990 C   0  0  0  0  0  0  0  0  0  0  0  0
   57.1500   33.4170   45.8980 S   0  0  0  0  0  0  0  0  0  0  0  0
   58.5140   33.6550   46.8440 C   0  0  0  0  0  0  0  0  0  0  0  0
   58.5500   33.4080   48.1210 N   0  0  0  0  0  0  0  0  0  0  0  0
   59.6290   33.7190   49.0130 C   0  0  0  0  0  0  0  0  0  0  0  0
   60.4730   34.5870   48.6680 O   0  0  0  0  0  0  0  0  0  0  0  0
   59.7110   33.1130   50.3910 C   0  0  0  0  0  0  0  0  0  0  0  0
   59.6590   33.9201   51.1366 H   0  0  0  0  0  0  0  0  0  0  0  0
   60.6609   32.5629   50.4621 H   0  0  0  0  0  0  0  0  0  0  0  0
   58.5690   32.1190   50.6570 C   0  0  0  0  0  0  0  0  0  0  0  0
   57.7978   32.2618   49.8857 H   0  0  0  0  0  0  0  0  0  0  0  0
   58.1934   32.3252   51.6701 H   0  0  0  0  0  0  0  0  0  0  0  0
   59.0050   30.6690   50.6340 C   0  0  0  0  0  0  0  0  0  0  0  0
   58.1400   29.7650   50.7960 O   0  0  0  0  0  0  0  0  0  0  0  0
   60.3960   30.2960   50.4660 N   0  0  0  0  0  0  0  0  0  0  0  0
   60.8060   29.2200   49.5480 C   0  0  0  0  0  0  0  0  0  0  0  0
   60.6519   28.2487   50.0407 H   0  0  0  0  0  0  0  0  0  0  0  0
   61.8675   29.3601   49.2957 H   0  0  0  0  0  0  0  0  0  0  0  0
   60.0020   29.2600   48.2770 C   0  0  0  0  0  0  0  0  0  0  0  0
   59.9460   30.4300   47.5060 C   0  0  0  0  0  0  0  0  0  0  0  0
   60.4952   31.3258   47.8314 H   0  0  0  0  0  0  0  0  0  0  0  0
   59.1970   30.4650   46.3270 C   0  0  0  0  0  0  0  0  0  0  0  0
   59.1731   31.3863   45.7264 H   0  0  0  0  0  0  0  0  0  0  0  0
   58.4700   29.3330   45.8960 C   0  0  0  0  0  0  0  0  0  0  0  0
   57.6880   29.3710   44.6720 N   0  0  0  0  0  0  0  0  0  0  0  0
   56.7770   30.4900   44.4010 C   0  0  0  0  0  0  0  0  0  0  0  0
   56.4286   30.9179   45.3526 H   0  0  0  0  0  0  0  0  0  0  0  0
   57.3064   31.2623   43.8237 H   0  0  0  0  0  0  0  0  0  0  0  0
   55.9134   30.1282   43.8237 H   0  0  0  0  0  0  0  0  0  0  0  0
   57.7900   28.2880   43.6870 C   0  0  0  0  0  0  0  0  0  0  0  0
   57.8808   27.3244   44.2096 H   0  0  0  0  0  0  0  0  0  0  0  0
   56.8887   28.2797   43.0565 H   0  0  0  0  0  0  0  0  0  0  0  0
   58.6770   28.4481   43.0565 H   0  0  0  0  0  0  0  0  0  0  0  0
   58.5220   28.1690   46.6890 C   0  0  0  0  0  0  0  0  0  0  0  0
   57.9592   27.2762   46.3790 H   0  0  0  0  0  0  0  0  0  0  0  0
   59.2780   28.1330   47.8630 C   0  0  0  0  0  0  0  0  0  0  0  0
   59.3055   27.2140   48.4669 H   0  0  0  0  0  0  0  0  0  0  0  0
   61.4300   31.0240   51.2210 C   0  0  0  0  0  0  0  0  0  0  0  0
   61.1684   32.0918   51.2579 H   0  0  0  0  0  0  0  0  0  0  0  0
   61.4842   30.6143   52.2404 H   0  0  0  0  0  0  0  0  0  0  0  0
   62.7940   30.8610   50.5450 C   0  0  0  0  0  0  0  0  0  0  0  0
   63.5867   30.9742   51.2992 H   0  0  0  0  0  0  0  0  0  0  0  0
   62.8443   29.8627   50.0857 H   0  0  0  0  0  0  0  0  0  0  0  0
   62.9820   31.8980   49.4710 C   0  0  0  0  0  0  0  0  0  0  0  0
   62.8500   31.5460   48.1180 C   0  0  0  0  0  0  0  0  0  0  0  0
   62.6391   30.5026   47.8406 H   0  0  0  0  0  0  0  0  0  0  0  0
   62.9860   32.5190   47.1220 C   0  0  0  0  0  0  0  0  0  0  0  0
   62.8871   32.2380   46.0631 H   0  0  0  0  0  0  0  0  0  0  0  0
   63.2470   33.8460   47.4690 C   0  0  0  0  0  0  0  0  0  0  0  0
   63.3581   34.6084   46.6838 H   0  0  0  0  0  0  0  0  0  0  0  0
   63.3670   34.2050   48.8130 C   0  0  0  0  0  0  0  0  0  0  0  0
   63.5704   35.2510   49.0858 H   0  0  0  0  0  0  0  0  0  0  0  0
   63.2290   33.2370   49.8130 C   0  0  0  0  0  0  0  0  0  0  0  0
   63.3143   33.5258   50.8710 H   0  0  0  0  0  0  0  0  0  0  0  0
   59.5300   34.1890   46.1250 N   0  0  0  0  0  0  0  0  0  0  0  0
   60.4550   34.4820   46.5080 H   0  0  0  0  0  0  0  0  0  0  0  0
   59.1890   34.3740   44.8220 C   0  0  0  0  0  0  0  0  0  0  0  0
   59.8863   34.7911   44.0805 H   0  0  0  0  0  0  0  0  0  0  0  0
  1  2  1  0
  2  3  1  0
  3  4  1  0
  4  5  2  0
  5  6  1  0
  6  7  2  0
  6  8  1  0
  8  9  1  0
  8 10  1  0
  8 11  1  0
 11 12  1  0
 11 13  1  0
 11 14  1  0
 14 15  2  0
 14 16  1  0
 16 17  1  0
 17 18  1  0
 17 19  1  0
 17 20  1  0
 20 21  2  0
 21 22  1  0
 21 23  1  0
 23 24  1  0
 23 25  2  0
 25 26  1  0
 26 27  1  0
 27 28  1  0
 27 29  1  0
 27 30  1  0
 26 31  1  0
 31 32  1  0
 31 33  1  0
 31 34  1  0
 25 35  1  0
 35 36  1  0
 35 37  2  0
 37 38  1  0
 16 39  1  0
 39 40  1  0
 39 41  1  0
 39 42  1  0
 42 43  1  0
 42 44  1  0
 42 45  1  0
 45 46  2  0
 46 47  1  0
 46 48  1  0
 48 49  1  0
 48 50  2  0
 50 51  1  0
 50 52  1  0
 52 53  1  0
 52 54  2  0
 54 55  1  0
  4 56  1  0
 56 57  1  0
 56 58  1  0
 58 59  1  0
 58  2  2  0
 37 20  1  0
 54 45  1  0
M  END
>  <UniqueID>  (49) 
48

>  <SMILES>  (49) 
CN(C)c1ccc(CN(CCc2ccccc2)C(=O)CCC(=O)/N=c2\[nH]ccs2)cc1

>  <Energy>  (49) 
93.00223609993164

>  <Genealogy>  (49) 
CN(C)c1ccc(CN(CCc2ccccc2)C(=O)CCC(=O)/N=c2\[nH]ccs2)cc1 (cis-trans isomerization)
CN(C)c1ccc(CN(CCc2ccccc2)C(=O)CCC(=O)/N=c2\[nH]ccs2)cc1 (3D coordinates assigned)
CN(C)c1ccc(CN(CCc2ccccc2)C(=O)CCC(=O)/N=c2\[nH]ccs2)cc1 (optimized conformer: 93.00223609993164 kcal/mol)

>  <smiles>  (49) 
CN(C)c1ccc(CN(CCc2ccccc2)C(=O)CCC(=O)N=c2[nH]ccs2)cc1

>  <score_type>  (49) 
oracle

>  <origin>  (49) 
adg

>  <m_score__min__energy>  (49) 
-8.1300000000000008

>  <m_primary>  (49) 
energy

$$$$
49:0
     RDKit          3D

 39 42  0  0  0  0  0  0  0  0999 V2000
   56.8329   23.5230   47.8504 H   0  0  0  0  0  0  0  0  0  0  0  0
   56.9150   24.4770   47.3090 C   0  0  0  0  0  0  0  0  0  0  0  0
   58.0150   25.3100   47.5240 C   0  0  0  0  0  0  0  0  0  0  0  0
   58.7997   25.0106   48.2344 H   0  0  0  0  0  0  0  0  0  0  0  0
   58.1210   26.5240   46.8380 C   0  0  0  0  0  0  0  0  0  0  0  0
   58.9897   27.1759   47.0124 H   0  0  0  0  0  0  0  0  0  0  0  0
   57.1250   26.9170   45.9270 C   0  0  0  0  0  0  0  0  0  0  0  0
   57.2570   28.2060   45.2110 C   0  0  0  0  0  0  0  0  0  0  0  0
   56.7000   29.3300   45.6070 O   0  0  0  0  0  0  0  0  0  0  0  0
   57.0380   30.2500   44.7350 C   0  0  0  0  0  0  0  0  0  0  0  0
   56.6410   31.4840   44.8220 N   0  0  0  0  0  0  0  0  0  0  0  0
   57.5100   32.5590   45.0790 N   0  0  0  0  0  0  0  0  0  0  0  0
   57.6840   33.6250   44.2680 C   0  0  0  0  0  0  0  0  0  0  0  0
   57.2392   33.7354   43.2680 H   0  0  0  0  0  0  0  0  0  0  0  0
   58.5080   34.5630   44.8820 C   0  0  0  0  0  0  0  0  0  0  0  0
   58.8516   35.5220   44.4669 H   0  0  0  0  0  0  0  0  0  0  0  0
   58.8030   34.0340   46.1240 C   0  0  0  0  0  0  0  0  0  0  0  0
   59.5420   34.5640   47.1770 C   0  0  0  0  0  0  0  0  0  0  0  0
   60.0487   35.5356   47.0806 H   0  0  0  0  0  0  0  0  0  0  0  0
   59.6220   33.8210   48.3680 C   0  0  0  0  0  0  0  0  0  0  0  0
   60.2093   34.2094   49.2131 H   0  0  0  0  0  0  0  0  0  0  0  0
   58.9520   32.5730   48.4920 C   0  0  0  0  0  0  0  0  0  0  0  0
   59.0090   31.8050   49.7080 N   0  0  0  0  0  0  0  0  0  0  0  0
   59.1480   32.3070   50.6160 H   0  0  0  0  0  0  0  0  0  0  0  0
   58.8820   30.3540   49.7520 C   0  0  0  0  0  0  0  0  0  0  0  0
   58.8528   30.0201   50.7997 H   0  0  0  0  0  0  0  0  0  0  0  0
   57.9540   30.0516   49.2448 H   0  0  0  0  0  0  0  0  0  0  0  0
   59.7434   29.8950   49.2448 H   0  0  0  0  0  0  0  0  0  0  0  0
   58.2060   32.0740   47.4010 C   0  0  0  0  0  0  0  0  0  0  0  0
   57.6653   31.1191   47.4776 H   0  0  0  0  0  0  0  0  0  0  0  0
   58.1720   32.8230   46.2230 C   0  0  0  0  0  0  0  0  0  0  0  0
   57.8110   29.7620   43.7430 N   0  0  0  0  0  0  0  0  0  0  0  0
   58.1970   30.2610   42.9090 H   0  0  0  0  0  0  0  0  0  0  0  0
   57.9580   28.4610   44.0420 C   0  0  0  0  0  0  0  0  0  0  0  0
   58.5341   27.7258   43.4609 H   0  0  0  0  0  0  0  0  0  0  0  0
   56.0200   26.0700   45.7160 C   0  0  0  0  0  0  0  0  0  0  0  0
   55.2328   26.3635   45.0060 H   0  0  0  0  0  0  0  0  0  0  0  0
   55.9190   24.8560   46.4060 C   0  0  0  0  0  0  0  0  0  0  0  0
   55.0532   24.1990   46.2366 H   0  0  0  0  0  0  0  0  0  0  0  0
  1  2  1  0
  2  3  2  0
  3  4  1  0
  3  5  1  0
  5  6  1  0
  5  7  2  0
  7  8  1  0
  8  9  1  0
  9 10  1  0
 10 11  2  0
 11 12  1  0
 12 13  1  0
 13 14  1  0
 13 15  2  0
 15 16  1  0
 15 17  1  0
 17 18  2  0
 18 19  1  0
 18 20  1  0
 20 21  1  0
 20 22  2  0
 22 23  1  0
 23 24  1  0
 23 25  1  0
 25 26  1  0
 25 27  1  0
 25 28  1  0
 22 29  1  0
 29 30  1  0
 29 31  2  0
 10 32  1  0
 32 33  1  0
 32 34  1  0
 34 35  1  0
  7 36  1  0
 36 37  1  0
 36 38  2  0
 38 39  1  0
 38  2  1  0
 34  8  2  0
 31 12  1  0
 31 17  1  0
M  END
>  <UniqueID>  (50) 
49

>  <SMILES>  (50) 
CNc1ccc2ccn(/N=c3\[nH]cc(-c4ccccc4)o3)c2c1

>  <Energy>  (50) 
116.0012219776968

>  <Genealogy>  (50) 
CNc1ccc2ccn(/N=c3\[nH]cc(-c4ccccc4)o3)c2c1 (cis-trans isomerization)
CNc1ccc2ccn(/N=c3\[nH]cc(-c4ccccc4)o3)c2c1 (3D coordinates assigned)
CNc1ccc2ccn(/N=c3\[nH]cc(-c4ccccc4)o3)c2c1 (optimized conformer: 116.0012219776968 kcal/mol)

>  <smiles>  (50) 
CNc1ccc2ccn(N=c3[nH]cc(-c4ccccc4)o3)c2c1

>  <score_type>  (50) 
oracle

>  <origin>  (50) 
adg

>  <m_score__min__energy>  (50) 
-7.7599999999999998

>  <m_primary>  (50) 
energy

$$$$
50:0
     RDKit          3D

 31 32  0  0  0  0  0  0  0  0999 V2000
   58.6769   33.9730   43.5345 H   0  0  0  0  0  0  0  0  0  0  0  0
   58.1400   33.3730   44.2840 C   0  0  0  0  0  0  0  0  0  0  0  0
   57.5410   32.0850   43.8720 C   0  0  0  0  0  0  0  0  0  0  0  0
   57.5950   31.7100   42.6700 O   0  0  0  0  0  0  0  0  0  0  0  0
   57.0020   31.1930   44.8550 N   0  0  0  0  0  0  0  0  0  0  0  0
   57.3860   29.9780   45.1490 C   0  0  0  0  0  0  0  0  0  0  0  0
   56.4980   28.8720   45.2160 C   0  0  0  0  0  0  0  0  0  0  0  0
   55.1500   28.9790   44.8940 O   0  0  0  0  0  0  0  0  0  0  0  0
   56.9960   27.6160   45.5690 C   0  0  0  0  0  0  0  0  0  0  0  0
   56.3126   26.7577   45.6490 H   0  0  0  0  0  0  0  0  0  0  0  0
   58.3550   27.4470   45.8200 C   0  0  0  0  0  0  0  0  0  0  0  0
   58.7491   26.4602   46.1046 H   0  0  0  0  0  0  0  0  0  0  0  0
   59.2100   28.5400   45.7070 C   0  0  0  0  0  0  0  0  0  0  0  0
   60.2875   28.4143   45.8892 H   0  0  0  0  0  0  0  0  0  0  0  0
   58.7170   29.7630   45.3720 N   0  0  0  0  0  0  0  0  0  0  0  0
   59.3870   30.5640   45.3030 H   0  0  0  0  0  0  0  0  0  0  0  0
   58.0510   33.8340   45.5390 C   0  0  0  0  0  0  0  0  0  0  0  0
   57.1568   34.4106   45.8182 H   0  0  0  0  0  0  0  0  0  0  0  0
   59.0920   33.6100   46.5740 C   0  0  0  0  0  0  0  0  0  0  0  0
   58.7740   33.3460   47.9200 C   0  0  0  0  0  0  0  0  0  0  0  0
   57.7213   33.3075   48.2367 H   0  0  0  0  0  0  0  0  0  0  0  0
   59.7890   33.1330   48.8540 C   0  0  0  0  0  0  0  0  0  0  0  0
   59.5321   32.9356   49.9052 H   0  0  0  0  0  0  0  0  0  0  0  0
   61.1280   33.1690   48.4620 C   0  0  0  0  0  0  0  0  0  0  0  0
   61.9203   33.0022   49.2066 H   0  0  0  0  0  0  0  0  0  0  0  0
   61.4700   33.4170   47.1220 C   0  0  0  0  0  0  0  0  0  0  0  0
   62.8520   33.4480   46.7190 N   0  0  0  0  0  0  0  0  0  0  0  0
   63.3530   34.4850   46.2410 O   0  0  0  0  0  0  0  0  0  0  0  0
   63.6440   32.3300   46.8530 O   0  0  0  0  0  0  0  0  0  0  0  0
   60.4420   33.6300   46.1840 C   0  0  0  0  0  0  0  0  0  0  0  0
   60.6992   33.8148   45.1306 H   0  0  0  0  0  0  0  0  0  0  0  0
  1  2  1  0
  2  3  1  0
  3  4  2  0
  3  5  1  0
  5  6  2  3
  6  7  1  0
  7  8  1  0
  7  9  2  0
  9 10  1  0
  9 11  1  0
 11 12  1  0
 11 13  2  0
 13 14  1  0
 13 15  1  0
 15 16  1  0
  2 17  2  0
 17 18  1  0
 17 19  1  0
 19 20  2  0
 20 21  1  0
 20 22  1  0
 22 23  1  0
 22 24  2  0
 24 25  1  0
 24 26  1  0
 26 27  1  0
 27 28  2  0
 27 29  1  0
 26 30  2  0
 30 31  1  0
 15  6  1  0
 30 19  1  0
M  CHG  3   8  -1  27   1  29  -1
M  END
>  <UniqueID>  (51) 
50

>  <SMILES>  (51) 
O=C(/C=C/c1cccc([N+](=O)[O-])c1)N=c1[nH]cccc1[O-]

>  <Energy>  (51) 
47.92023468421568

>  <Genealogy>  (51) 
O=C(C=Cc1cccc([N+](=O)[O-])c1)N=c1[nH]cccc1[O-] (protonated)
O=C(/C=C/c1cccc([N+](=O)[O-])c1)N=c1[nH]cccc1[O-] (cis-trans isomerization)
O=C(/C=C/c1cccc([N+](=O)[O-])c1)N=c1[nH]cccc1[O-] (3D coordinates assigned)
O=C(/C=C/c1cccc([N+](=O)[O-])c1)N=c1[nH]cccc1[O-] (optimized conformer: 47.92023468421568 kcal/mol)

>  <smiles>  (51) 
O=C(C=Cc1cccc([N+](=O)[O-])c1)N=c1[nH]cccc1O

>  <score_type>  (51) 
oracle

>  <origin>  (51) 
adg

>  <m_score__min__energy>  (51) 
-11.08

>  <m_primary>  (51) 
energy

$$$$
51:0
     RDKit          3D

 66 69  0  0  0  0  0  0  0  0999 V2000
   58.9180   33.6820   51.7650 C   0  0  0  0  0  0  0  0  0  0  0  0
   57.8980   32.5440   51.7710 C   0  0  0  0  0  0  0  0  0  0  0  0
   58.5300   31.1820   51.4560 C   0  0  0  0  0  0  0  0  0  0  0  0
   59.8740   31.3040   50.7820 C   0  0  0  0  0  0  0  0  0  0  0  0
   60.1410   31.0570   49.4820 C   0  0  0  0  0  0  0  0  0  0  0  0
   61.2480   30.3710   49.1310 N   0  0  0  0  0  0  0  0  0  0  0  0
   61.1290   30.1080   47.8220 C   0  0  0  0  0  0  0  0  0  0  0  0
   59.9410   30.6540   47.3740 C   0  0  0  0  0  0  0  0  0  0  0  0
   59.4360   30.5260   46.1320 C   0  0  0  0  0  0  0  0  0  0  0  0
   58.2350   29.7350   45.8140 C   0  0  0  0  0  0  0  0  0  0  0  0
   57.2060   30.3450   45.1670 N   0  0  0  0  0  0  0  0  0  0  0  0
   56.0610   29.6750   44.8790 C   0  0  0  0  0  0  0  0  0  0  0  0
   55.1270   30.2600   44.2730 O   0  0  0  0  0  0  0  0  0  0  0  0
   55.9190   28.3770   45.2500 N   0  0  0  0  0  0  0  0  0  0  0  0
   56.9090   27.7280   45.9180 C   0  0  0  0  0  0  0  0  0  0  0  0
   56.7490   26.5270   46.2620 O   0  0  0  0  0  0  0  0  0  0  0  0
   58.0960   28.4000   46.2280 C   0  0  0  0  0  0  0  0  0  0  0  0
   59.1000   27.7600   46.9490 O   0  0  0  0  0  0  0  0  0  0  0  0
   59.3450   31.3200   48.4030 N   0  0  0  0  0  0  0  0  0  0  0  0
   58.2270   32.2820   48.3030 C   0  0  0  0  0  0  0  0  0  0  0  0
   58.3660   33.2260   47.1190 C   0  0  0  0  0  0  0  0  0  0  0  0
   57.2130   33.5340   46.3690 C   0  0  0  0  0  0  0  0  0  0  0  0
   57.2950   34.3360   45.2300 C   0  0  0  0  0  0  0  0  0  0  0  0
   58.5210   34.8620   44.8310 C   0  0  0  0  0  0  0  0  0  0  0  0
   59.6690   34.6020   45.5800 C   0  0  0  0  0  0  0  0  0  0  0  0
   59.6080   33.8040   46.7360 C   0  0  0  0  0  0  0  0  0  0  0  0
   60.8470   33.6450   47.5350 C   0  0  0  0  0  0  0  0  0  0  0  0
   60.8460   33.9710   48.8310 C   0  0  0  0  0  0  0  0  0  0  0  0
   62.1220   34.0090   49.6160 C   0  0  0  0  0  0  0  0  0  0  0  0
   63.0590   32.9770   49.1470 N   0  0  0  0  0  0  0  0  0  0  0  0
   63.9920   32.3890   50.0720 C   0  0  0  0  0  0  0  0  0  0  0  0
   63.7540   31.2540   50.5700 O   0  0  0  0  0  0  0  0  0  0  0  0
   65.1700   33.0690   50.4040 O   0  0  0  0  0  0  0  0  0  0  0  0
   66.4700   32.4900   50.2970 C   0  0  0  0  0  0  0  0  0  0  0  0
   67.5500   33.5440   50.5070 C   0  0  0  0  0  0  0  0  0  0  0  0
   63.1460   32.6200   47.7190 C   0  0  0  0  0  0  0  0  0  0  0  0
   62.1650   33.4150   46.8420 C   0  0  0  0  0  0  0  0  0  0  0  0
   59.1654   33.9581   52.8006 H   0  0  0  0  0  0  0  0  0  0  0  0
   59.8302   33.3541   51.2450 H   0  0  0  0  0  0  0  0  0  0  0  0
   58.4926   34.5530   51.2450 H   0  0  0  0  0  0  0  0  0  0  0  0
   57.4319   32.4942   52.7661 H   0  0  0  0  0  0  0  0  0  0  0  0
   57.1576   32.7567   50.9858 H   0  0  0  0  0  0  0  0  0  0  0  0
   58.6578   30.6275   52.3974 H   0  0  0  0  0  0  0  0  0  0  0  0
   57.8574   30.6570   50.7618 H   0  0  0  0  0  0  0  0  0  0  0  0
   60.7178   31.6252   51.4104 H   0  0  0  0  0  0  0  0  0  0  0  0
   62.0160   30.0370   49.7570 H   0  0  0  0  0  0  0  0  0  0  0  0
   61.8536   29.5522   47.2087 H   0  0  0  0  0  0  0  0  0  0  0  0
   59.9501   31.0419   45.3077 H   0  0  0  0  0  0  0  0  0  0  0  0
   57.2878   31.7195   48.1956 H   0  0  0  0  0  0  0  0  0  0  0  0
   58.2339   32.8939   49.2170 H   0  0  0  0  0  0  0  0  0  0  0  0
   56.2369   33.1374   46.6853 H   0  0  0  0  0  0  0  0  0  0  0  0
   56.3887   34.5533   44.6457 H   0  0  0  0  0  0  0  0  0  0  0  0
   58.5844   35.4827   43.9250 H   0  0  0  0  0  0  0  0  0  0  0  0
   60.6330   35.0262   45.2625 H   0  0  0  0  0  0  0  0  0  0  0  0
   59.8956   34.2148   49.3284 H   0  0  0  0  0  0  0  0  0  0  0  0
   62.5878   34.9985   49.4980 H   0  0  0  0  0  0  0  0  0  0  0  0
   61.8891   33.8170   50.6738 H   0  0  0  0  0  0  0  0  0  0  0  0
   66.5791   31.7048   51.0596 H   0  0  0  0  0  0  0  0  0  0  0  0
   66.5844   32.0634   49.2896 H   0  0  0  0  0  0  0  0  0  0  0  0
   67.7076   33.6978   51.5847 H   0  0  0  0  0  0  0  0  0  0  0  0
   68.4884   33.2048   50.0439 H   0  0  0  0  0  0  0  0  0  0  0  0
   67.2338   34.4903   50.0439 H   0  0  0  0  0  0  0  0  0  0  0  0
   64.1698   32.8191   47.3693 H   0  0  0  0  0  0  0  0  0  0  0  0
   62.8817   31.5561   47.6283 H   0  0  0  0  0  0  0  0  0  0  0  0
   62.6141   34.3897   46.6007 H   0  0  0  0  0  0  0  0  0  0  0  0
   61.9722   32.8292   45.9312 H   0  0  0  0  0  0  0  0  0  0  0  0
  1  2  1  0
  2  3  1  0
  3  4  1  0
  4  5  2  3
  5  6  1  0
  6  7  2  0
  7  8  1  0
  8  9  2  3
  9 10  1  0
 10 11  1  0
 11 12  1  0
 12 13  2  0
 12 14  1  0
 14 15  1  0
 15 16  2  0
 15 17  1  0
 17 18  1  0
  8 19  1  0
 19 20  1  0
 20 21  1  0
 21 22  2  0
 22 23  1  0
 23 24  2  0
 24 25  1  0
 25 26  2  0
 26 27  1  0
 27 28  2  0
 28 29  1  0
 29 30  1  0
 30 31  1  0
 31 32  2  0
 31 33  1  0
 33 34  1  0
 34 35  1  0
 30 36  1  0
 36 37  1  0
 19  5  1  0
 26 21  1  0
 37 27  1  0
 17 10  2  0
  1 38  1  0
  1 39  1  0
  1 40  1  0
  2 41  1  0
  2 42  1  0
  3 43  1  0
  3 44  1  0
  4 45  1  0
  6 46  1  0
  7 47  1  0
  9 48  1  0
 20 49  1  0
 20 50  1  0
 22 51  1  0
 23 52  1  0
 24 53  1  0
 25 54  1  0
 28 55  1  0
 29 56  1  0
 29 57  1  0
 34 58  1  0
 34 59  1  0
 35 60  1  0
 35 61  1  0
 35 62  1  0
 36 63  1  0
 36 64  1  0
 37 65  1  0
 37 66  1  0
M  CHG  4   6   1  11  -1  14  -1  18  -1
M  END
>  <UniqueID>  (52) 
51

>  <SMILES>  (52) 
CCCC=c1[nH+]cc(=Cc2[n-]c(=O)[n-]c(=O)c2[O-])n1Cc1ccccc1C1=CCN(C(=O)OCC)CC1

>  <Energy>  (52) 
117.44432255339234

>  <Genealogy>  (52) 
CCCC=c1[nH+]cc(=Cc2[n-]c(=O)[n-]c(=O)c2[O-])n1Cc1ccccc1C1=CCN(C(=O)OCC)CC1 (protonated)
CCCC=c1[nH+]cc(=Cc2[n-]c(=O)[n-]c(=O)c2[O-])n1Cc1ccccc1C1=CCN(C(=O)OCC)CC1 (3D coordinates assigned)
CCCC=c1[nH+]cc(=Cc2[n-]c(=O)[n-]c(=O)c2[O-])n1Cc1ccccc1C1=CCN(C(=O)OCC)CC1 (nonaromatic ring conformer: 117.44432255339234 kcal/mol)

>  <smiles>  (52) 
CCCC=c1ncc(=Cc2[nH]c(=O)[nH]c(=O)c2O)n1Cc1ccccc1C1=CCN(C(=O)OCC)CC1

>  <score_type>  (52) 
oracle

>  <origin>  (52) 
adg

>  <m_score__min__energy>  (52) 
-14.01

>  <m_primary>  (52) 
energy

$$$$
52:0
     RDKit          3D

 64 67  0  0  0  0  0  0  0  0999 V2000
   61.5090   28.3590   51.9050 C   0  0  0  0  0  0  0  0  0  0  0  0
   60.3360   29.0120   51.4280 O   0  0  0  0  0  0  0  0  0  0  0  0
   60.2140   29.5900   50.1560 C   0  0  0  0  0  0  0  0  0  0  0  0
   58.9830   29.6760   49.4800 C   0  0  0  0  0  0  0  0  0  0  0  0
   58.9150   30.2540   48.2090 C   0  0  0  0  0  0  0  0  0  0  0  0
   60.0690   30.7680   47.5940 C   0  0  0  0  0  0  0  0  0  0  0  0
   59.9510   31.3550   46.2010 C   0  0  0  0  0  0  0  0  0  0  0  0
   58.7790   30.8380   45.4560 N   0  0  0  0  0  0  0  0  0  0  0  0
   57.5800   31.5200   45.2920 C   0  0  0  0  0  0  0  0  0  0  0  0
   57.2530   32.6370   45.8950 N   0  0  0  0  0  0  0  0  0  0  0  0
   57.3120   34.0520   45.5390 C   0  0  0  0  0  0  0  0  0  0  0  0
   58.7420   34.4810   45.4510 C   0  0  0  0  0  0  0  0  0  0  0  0
   59.4200   34.1830   44.4310 O   0  0  0  0  0  0  0  0  0  0  0  0
   59.3500   35.1660   46.5540 N   0  0  0  0  0  0  0  0  0  0  0  0
   59.6430   34.5330   47.8360 C   0  0  0  0  0  0  0  0  0  0  0  0
   61.0860   34.1100   47.8950 C   0  0  0  0  0  0  0  0  0  0  0  0
   61.8040   33.8440   46.7160 C   0  0  0  0  0  0  0  0  0  0  0  0
   63.1480   33.4630   46.7820 C   0  0  0  0  0  0  0  0  0  0  0  0
   63.7830   33.3460   48.0220 C   0  0  0  0  0  0  0  0  0  0  0  0
   63.0770   33.6140   49.1980 C   0  0  0  0  0  0  0  0  0  0  0  0
   61.7330   33.9970   49.1370 C   0  0  0  0  0  0  0  0  0  0  0  0
   56.6290   30.9890   44.4900 N   0  0  0  0  0  0  0  0  0  0  0  0
   56.7850   29.7960   43.8810 C   0  0  0  0  0  0  0  0  0  0  0  0
   55.8610   29.3660   43.1420 O   0  0  0  0  0  0  0  0  0  0  0  0
   57.9200   29.0700   44.0850 N   0  0  0  0  0  0  0  0  0  0  0  0
   58.0710   27.7210   43.5010 C   0  0  0  0  0  0  0  0  0  0  0  0
   57.7770   26.6660   44.5380 C   0  0  0  0  0  0  0  0  0  0  0  0
   57.7400   25.3110   44.1750 C   0  0  0  0  0  0  0  0  0  0  0  0
   57.4120   24.3350   45.1200 C   0  0  0  0  0  0  0  0  0  0  0  0
   57.1080   24.7030   46.4410 C   0  0  0  0  0  0  0  0  0  0  0  0
   56.7610   23.6630   47.4650 C   0  0  0  0  0  0  0  0  0  0  0  0
   57.1620   26.0540   46.8100 C   0  0  0  0  0  0  0  0  0  0  0  0
   57.4900   27.0300   45.8630 C   0  0  0  0  0  0  0  0  0  0  0  0
   58.9090   29.5910   44.8790 C   0  0  0  0  0  0  0  0  0  0  0  0
   59.9550   28.9100   45.0830 O   0  0  0  0  0  0  0  0  0  0  0  0
   61.2990   30.6770   48.2730 C   0  0  0  0  0  0  0  0  0  0  0  0
   61.3660   30.0940   49.5420 C   0  0  0  0  0  0  0  0  0  0  0  0
   61.5075   28.3598   53.0050 H   0  0  0  0  0  0  0  0  0  0  0  0
   61.5257   27.3218   51.5391 H   0  0  0  0  0  0  0  0  0  0  0  0
   62.3994   28.8912   51.5391 H   0  0  0  0  0  0  0  0  0  0  0  0
   58.0699   29.2866   49.9539 H   0  0  0  0  0  0  0  0  0  0  0  0
   57.9490   30.3069   47.6855 H   0  0  0  0  0  0  0  0  0  0  0  0
   59.8583   32.4477   46.2870 H   0  0  0  0  0  0  0  0  0  0  0  0
   60.8526   31.0640   45.6421 H   0  0  0  0  0  0  0  0  0  0  0  0
   56.8215   34.2069   44.5667 H   0  0  0  0  0  0  0  0  0  0  0  0
   56.7958   34.6467   46.3070 H   0  0  0  0  0  0  0  0  0  0  0  0
   59.4414   35.2477   48.6475 H   0  0  0  0  0  0  0  0  0  0  0  0
   59.0057   33.6435   47.9485 H   0  0  0  0  0  0  0  0  0  0  0  0
   61.3073   33.9358   45.7388 H   0  0  0  0  0  0  0  0  0  0  0  0
   63.7061   33.2551   45.8572 H   0  0  0  0  0  0  0  0  0  0  0  0
   64.8392   33.0428   48.0721 H   0  0  0  0  0  0  0  0  0  0  0  0
   63.5788   33.5236   50.1727 H   0  0  0  0  0  0  0  0  0  0  0  0
   61.1810   34.2104   50.0642 H   0  0  0  0  0  0  0  0  0  0  0  0
   57.3703   27.6089   42.6605 H   0  0  0  0  0  0  0  0  0  0  0  0
   59.1055   27.5975   43.1481 H   0  0  0  0  0  0  0  0  0  0  0  0
   57.9705   25.0154   43.1408 H   0  0  0  0  0  0  0  0  0  0  0  0
   57.3918   23.2746   44.8282 H   0  0  0  0  0  0  0  0  0  0  0  0
   56.9002   24.0803   48.4732 H   0  0  0  0  0  0  0  0  0  0  0  0
   55.7122   23.3573   47.3363 H   0  0  0  0  0  0  0  0  0  0  0  0
   57.4161   22.7888   47.3363 H   0  0  0  0  0  0  0  0  0  0  0  0
   56.9457   26.3479   47.8477 H   0  0  0  0  0  0  0  0  0  0  0  0
   57.5232   28.0891   46.1584 H   0  0  0  0  0  0  0  0  0  0  0  0
   62.2133   31.0672   47.8020 H   0  0  0  0  0  0  0  0  0  0  0  0
   62.3330   30.0309   50.0625 H   0  0  0  0  0  0  0  0  0  0  0  0
  1  2  1  0
  2  3  1  0
  3  4  2  0
  4  5  1  0
  5  6  2  0
  6  7  1  0
  7  8  1  0
  8  9  1  0
  9 10  2  3
 10 11  1  0
 11 12  1  0
 12 13  2  0
 12 14  1  0
 14 15  1  0
 15 16  1  0
 16 17  2  0
 17 18  1  0
 18 19  2  0
 19 20  1  0
 20 21  2  0
  9 22  1  0
 22 23  1  0
 23 24  2  0
 23 25  1  0
 25 26  1  0
 26 27  1  0
 27 28  2  0
 28 29  1  0
 29 30  2  0
 30 31  1  0
 30 32  1  0
 32 33  2  0
 25 34  1  0
 34 35  2  0
  6 36  1  0
 36 37  2  0
 37  3  1  0
 34  8  1  0
 21 16  1  0
 33 27  1  0
  1 38  1  0
  1 39  1  0
  1 40  1  0
  4 41  1  0
  5 42  1  0
  7 43  1  0
  7 44  1  0
 11 45  1  0
 11 46  1  0
 15 47  1  0
 15 48  1  0
 17 49  1  0
 18 50  1  0
 19 51  1  0
 20 52  1  0
 21 53  1  0
 26 54  1  0
 26 55  1  0
 28 56  1  0
 29 57  1  0
 31 58  1  0
 31 59  1  0
 31 60  1  0
 32 61  1  0
 33 62  1  0
 36 63  1  0
 37 64  1  0
M  CHG  2  14  -1  22  -1
M  END
>  <UniqueID>  (53) 
52

>  <SMILES>  (53) 
COc1ccc(Cn2c(=NCC(=O)[N-]Cc3ccccc3)[n-]c(=O)n(Cc3ccc(C)cc3)c2=O)cc1

>  <Energy>  (53) 
85.93627127988363

>  <Genealogy>  (53) 
COc1ccc(Cn2c(=NCC(=O)[N-]Cc3ccccc3)[n-]c(=O)n(Cc3ccc(C)cc3)c2=O)cc1 (protonated)
COc1ccc(Cn2c(=NCC(=O)[N-]Cc3ccccc3)[n-]c(=O)n(Cc3ccc(C)cc3)c2=O)cc1 (3D coordinates assigned)
COc1ccc(Cn2c(=NCC(=O)[N-]Cc3ccccc3)[n-]c(=O)n(Cc3ccc(C)cc3)c2=O)cc1 (optimized conformer: 85.93627127988363 kcal/mol)

>  <smiles>  (53) 
COc1ccc(Cn2c(=NCC(=O)NCc3ccccc3)[nH]c(=O)n(Cc3ccc(C)cc3)c2=O)cc1

>  <score_type>  (53) 
oracle

>  <origin>  (53) 
adg

>  <m_score__min__energy>  (53) 
-12.220000000000001

>  <m_primary>  (53) 
energy

$$$$
53:0
     RDKit          3D

 52 55  0  0  0  0  0  0  0  0999 V2000
   55.6840   28.9390   45.6340 H   0  0  0  0  0  0  0  0  0  0  0  0
   56.6920   29.2110   45.6650 N   0  0  0  0  0  0  0  0  0  0  0  0
   56.8730   30.5930   44.6440 S   0  0  0  0  0  0  0  0  0  0  0  0
   57.4220   30.1700   43.3100 O   0  0  0  0  0  0  0  0  0  0  0  0
   55.5240   31.2200   44.4220 O   0  0  0  0  0  0  0  0  0  0  0  0
   57.9570   31.7630   45.4150 C   0  0  0  0  0  0  0  0  0  0  0  0
   57.5970   33.1210   45.4050 C   0  0  0  0  0  0  0  0  0  0  0  0
   56.6423   33.4282   44.9530 H   0  0  0  0  0  0  0  0  0  0  0  0
   58.4390   34.0840   45.9630 C   0  0  0  0  0  0  0  0  0  0  0  0
   58.1475   35.1445   45.9460 H   0  0  0  0  0  0  0  0  0  0  0  0
   59.6490   33.7040   46.5420 C   0  0  0  0  0  0  0  0  0  0  0  0
   60.3130   34.4660   46.9761 H   0  0  0  0  0  0  0  0  0  0  0  0
   60.0190   32.3610   46.5720 C   0  0  0  0  0  0  0  0  0  0  0  0
   60.9736   32.0683   47.0336 H   0  0  0  0  0  0  0  0  0  0  0  0
   59.1820   31.3770   46.0170 C   0  0  0  0  0  0  0  0  0  0  0  0
   59.6140   29.9620   46.0910 C   0  0  0  0  0  0  0  0  0  0  0  0
   59.8520   29.3080   47.3240 C   0  0  0  0  0  0  0  0  0  0  0  0
   59.7800   29.9990   48.6320 C   0  0  0  0  0  0  0  0  0  0  0  0
   58.5620   30.1360   49.3220 C   0  0  0  0  0  0  0  0  0  0  0  0
   57.6423   29.7056   48.8991 H   0  0  0  0  0  0  0  0  0  0  0  0
   58.5140   30.8160   50.5420 C   0  0  0  0  0  0  0  0  0  0  0  0
   57.5604   30.9066   51.0829 H   0  0  0  0  0  0  0  0  0  0  0  0
   59.6750   31.3810   51.0760 C   0  0  0  0  0  0  0  0  0  0  0  0
   59.6361   31.9121   52.0385 H   0  0  0  0  0  0  0  0  0  0  0  0
   60.8850   31.2710   50.3870 C   0  0  0  0  0  0  0  0  0  0  0  0
   61.7974   31.7226   50.8037 H   0  0  0  0  0  0  0  0  0  0  0  0
   60.9380   30.5880   49.1690 C   0  0  0  0  0  0  0  0  0  0  0  0
   61.8920   30.5107   48.6269 H   0  0  0  0  0  0  0  0  0  0  0  0
   60.1440   27.9800   47.3230 N   0  0  0  0  0  0  0  0  0  0  0  0
   60.2270   27.2390   46.1860 C   0  0  0  0  0  0  0  0  0  0  0  0
   60.5260   25.9720   46.2250 N   0  0  0  0  0  0  0  0  0  0  0  0
   59.6570   24.8580   45.9510 C   0  0  0  0  0  0  0  0  0  0  0  0
   60.1440   23.6970   45.9880 O   0  0  0  0  0  0  0  0  0  0  0  0
   58.2020   25.0350   45.5630 C   0  0  2  0  0  0  0  0  0  0  0  0
   58.1666   25.2304   44.4811 H   0  0  0  0  0  0  0  0  0  0  0  0
   57.5830   26.2260   46.3140 C   0  0  0  0  0  0  0  0  0  0  0  0
   58.0946   27.1500   46.0065 H   0  0  0  0  0  0  0  0  0  0  0  0
   57.7037   26.0591   47.3945 H   0  0  0  0  0  0  0  0  0  0  0  0
   56.1560   26.3490   46.0190 N   0  0  0  0  0  0  0  0  0  0  0  0
   55.6900   27.2650   46.2090 H   0  0  0  0  0  0  0  0  0  0  0  0
   55.3370   25.2030   45.7480 C   0  0  0  0  0  0  0  0  0  0  0  0
   54.0830   25.3150   45.7700 O   0  0  0  0  0  0  0  0  0  0  0  0
   55.9560   23.8950   45.3440 C   0  0  0  0  0  0  0  0  0  0  0  0
   55.9671   23.8301   44.2460 H   0  0  0  0  0  0  0  0  0  0  0  0
   55.3567   23.0828   45.7811 H   0  0  0  0  0  0  0  0  0  0  0  0
   57.3920   23.7620   45.8640 C   0  0  0  0  0  0  0  0  0  0  0  0
   57.8747   22.9032   45.3746 H   0  0  0  0  0  0  0  0  0  0  0  0
   57.3602   23.6136   46.9535 H   0  0  0  0  0  0  0  0  0  0  0  0
   60.0190   27.8570   44.9510 C   0  0  0  0  0  0  0  0  0  0  0  0
   60.1068   27.2783   44.0197 H   0  0  0  0  0  0  0  0  0  0  0  0
   59.6990   29.2140   44.9080 C   0  0  0  0  0  0  0  0  0  0  0  0
   59.5120   29.7007   43.9394 H   0  0  0  0  0  0  0  0  0  0  0  0
  1  2  1  0
  2  3  1  0
  3  4  2  0
  3  5  2  0
  3  6  1  0
  6  7  2  0
  7  8  1  0
  7  9  1  0
  9 10  1  0
  9 11  2  0
 11 12  1  0
 11 13  1  0
 13 14  1  0
 13 15  2  0
 15 16  1  0
 16 17  2  0
 17 18  1  0
 18 19  2  0
 19 20  1  0
 19 21  1  0
 21 22  1  0
 21 23  2  0
 23 24  1  0
 23 25  1  0
 25 26  1  0
 25 27  2  0
 27 28  1  0
 17 29  1  0
 29 30  1  0
 30 31  2  0
 31 32  1  0
 32 33  2  0
 32 34  1  0
 34 35  1  6
 34 36  1  0
 36 37  1  0
 36 38  1  0
 36 39  1  0
 39 40  1  0
 39 41  1  0
 41 42  2  0
 41 43  1  0
 43 44  1  0
 43 45  1  0
 43 46  1  0
 46 47  1  0
 46 48  1  0
 30 49  1  0
 49 50  1  0
 49 51  2  0
 51 52  1  0
 15  6  1  0
 51 16  1  0
 27 18  1  0
 46 34  1  0
M  CHG  2   2  -1  29  -1
M  END
>  <UniqueID>  (54) 
53

>  <SMILES>  (54) 
[NH-]S(=O)(=O)c1ccccc1-c1cc/c(=N/C(=O)[C@H]2CCC(=O)NC2)[n-]c1-c1ccccc1

>  <Energy>  (54) 
69.97281813624389

>  <Genealogy>  (54) 
[NH-]S(=O)(=O)c1ccccc1-c1ccc(=NC(=O)C2CCC(=O)NC2)[n-]c1-c1ccccc1 (protonated)
[NH-]S(=O)(=O)c1ccccc1-c1ccc(=NC(=O)[C@H]2CCC(=O)NC2)[n-]c1-c1ccccc1 (chirality)
[NH-]S(=O)(=O)c1ccccc1-c1cc/c(=N/C(=O)[C@H]2CCC(=O)NC2)[n-]c1-c1ccccc1 (cis-trans isomerization)
[NH-]S(=O)(=O)c1ccccc1-c1cc/c(=N/C(=O)[C@H]2CCC(=O)NC2)[n-]c1-c1ccccc1 (3D coordinates assigned)
[NH-]S(=O)(=O)c1ccccc1-c1cc/c(=N/C(=O)[C@H]2CCC(=O)NC2)[n-]c1-c1ccccc1 (nonaromatic ring conformer: 69.97281813624389 kcal/mol)

>  <smiles>  (54) 
NS(=O)(=O)c1ccccc1-c1ccc(=NC(=O)C2CCC(=O)NC2)[nH]c1-c1ccccc1

>  <score_type>  (54) 
oracle

>  <origin>  (54) 
adg

>  <m_score__min__energy>  (54) 
-13.08

>  <m_primary>  (54) 
energy

$$$$
54:0
     RDKit          3D

 42 45  0  0  0  0  0  0  0  0999 V2000
   54.7640   27.0830   46.8650 H   0  0  0  0  0  0  0  0  0  0  0  0
   55.1440   26.6640   45.9870 N   0  0  0  0  0  0  0  0  0  0  0  0
   56.8380   27.0030   45.9590 S   0  0  0  0  0  0  0  0  0  0  0  0
   57.4030   26.8550   47.3440 O   0  0  0  0  0  0  0  0  0  0  0  0
   57.5280   26.0250   45.0500 O   0  0  0  0  0  0  0  0  0  0  0  0
   57.0990   28.6440   45.3770 C   0  0  0  0  0  0  0  0  0  0  0  0
   56.6000   29.0360   44.1280 C   0  0  0  0  0  0  0  0  0  0  0  0
   56.0392   28.3184   43.5111 H   0  0  0  0  0  0  0  0  0  0  0  0
   56.8130   30.3350   43.6650 C   0  0  0  0  0  0  0  0  0  0  0  0
   56.4148   30.6398   42.6860 H   0  0  0  0  0  0  0  0  0  0  0  0
   57.5300   31.2500   44.4400 C   0  0  0  0  0  0  0  0  0  0  0  0
   57.6911   32.2730   44.0693 H   0  0  0  0  0  0  0  0  0  0  0  0
   58.0470   30.8700   45.6920 C   0  0  0  0  0  0  0  0  0  0  0  0
   58.8150   31.8390   46.5150 C   0  0  0  0  0  0  0  0  0  0  0  0
   58.1730   32.9440   47.1000 C   0  0  0  0  0  0  0  0  0  0  0  0
   57.0938   33.0906   46.9456 H   0  0  0  0  0  0  0  0  0  0  0  0
   58.8910   33.8590   47.8760 C   0  0  0  0  0  0  0  0  0  0  0  0
   58.3759   34.7197   48.3276 H   0  0  0  0  0  0  0  0  0  0  0  0
   60.2650   33.6810   48.0790 C   0  0  0  0  0  0  0  0  0  0  0  0
   61.0050   34.5860   48.8490 C   0  0  0  0  0  0  0  0  0  0  0  0
   60.5071   35.4529   49.3079 H   0  0  0  0  0  0  0  0  0  0  0  0
   62.3390   34.3940   49.0300 N   0  0  0  0  0  0  0  0  0  0  0  0
   63.0000   33.3320   48.4900 C   0  0  0  0  0  0  0  0  0  0  0  0
   64.2830   33.1800   48.6560 N   0  0  0  0  0  0  0  0  0  0  0  0
   64.9390   32.4960   49.7370 C   0  0  0  0  0  0  0  0  0  0  0  0
   64.2840   31.5160   50.5080 C   0  0  0  0  0  0  0  0  0  0  0  0
   63.2294   31.2753   50.3083 H   0  0  0  0  0  0  0  0  0  0  0  0
   64.9710   30.8480   51.5270 C   0  0  0  0  0  0  0  0  0  0  0  0
   64.4515   30.0934   52.1359 H   0  0  0  0  0  0  0  0  0  0  0  0
   66.3150   31.1370   51.7730 C   0  0  0  0  0  0  0  0  0  0  0  0
   66.8505   30.6176   52.5814 H   0  0  0  0  0  0  0  0  0  0  0  0
   66.9790   32.0860   50.9920 C   0  0  0  0  0  0  0  0  0  0  0  0
   68.0401   32.3071   51.1797 H   0  0  0  0  0  0  0  0  0  0  0  0
   66.2960   32.7550   49.9720 C   0  0  0  0  0  0  0  0  0  0  0  0
   66.8275   33.4899   49.3495 H   0  0  0  0  0  0  0  0  0  0  0  0
   62.3000   32.4090   47.7030 C   0  0  0  0  0  0  0  0  0  0  0  0
   62.8272   31.5572   47.2485 H   0  0  0  0  0  0  0  0  0  0  0  0
   60.9240   32.5770   47.4980 C   0  0  0  0  0  0  0  0  0  0  0  0
   60.1970   31.6640   46.7190 C   0  0  0  0  0  0  0  0  0  0  0  0
   60.7111   30.8045   46.2640 H   0  0  0  0  0  0  0  0  0  0  0  0
   57.8260   29.5580   46.1520 C   0  0  0  0  0  0  0  0  0  0  0  0
   58.2273   29.2475   47.1280 H   0  0  0  0  0  0  0  0  0  0  0  0
  1  2  1  0
  2  3  1  0
  3  4  2  0
  3  5  2  0
  3  6  1  0
  6  7  2  0
  7  8  1  0
  7  9  1  0
  9 10  1  0
  9 11  2  0
 11 12  1  0
 11 13  1  0
 13 14  1  0
 14 15  1  0
 15 16  1  0
 15 17  2  0
 17 18  1  0
 17 19  1  0
 19 20  2  0
 20 21  1  0
 20 22  1  0
 22 23  1  0
 23 24  2  0
 24 25  1  0
 25 26  2  0
 26 27  1  0
 26 28  1  0
 28 29  1  0
 28 30  2  0
 30 31  1  0
 30 32  1  0
 32 33  1  0
 32 34  2  0
 34 35  1  0
 23 36  1  0
 36 37  1  0
 36 38  2  0
 38 39  1  0
 39 40  1  0
 13 41  2  0
 41 42  1  0
 41  6  1  0
 39 14  2  0
 38 19  1  0
 34 25  1  0
M  CHG  2   2  -1  22  -1
M  END
>  <UniqueID>  (55) 
54

>  <SMILES>  (55) 
[NH-]S(=O)(=O)c1cccc(-c2ccc3c[n-]/c(=N\c4ccccc4)cc3c2)c1

>  <Energy>  (55) 
62.126969298613254

>  <Genealogy>  (55) 
[NH-]S(=O)(=O)c1cccc(-c2ccc3c[n-]c(=Nc4ccccc4)cc3c2)c1 (protonated)
[NH-]S(=O)(=O)c1cccc(-c2ccc3c[n-]/c(=N\c4ccccc4)cc3c2)c1 (cis-trans isomerization)
[NH-]S(=O)(=O)c1cccc(-c2ccc3c[n-]/c(=N\c4ccccc4)cc3c2)c1 (3D coordinates assigned)
[NH-]S(=O)(=O)c1cccc(-c2ccc3c[n-]/c(=N\c4ccccc4)cc3c2)c1 (optimized conformer: 62.126969298613254 kcal/mol)

>  <smiles>  (55) 
NS(=O)(=O)c1cccc(-c2ccc3c[nH]c(=Nc4ccccc4)cc3c2)c1

>  <score_type>  (55) 
oracle

>  <origin>  (55) 
adg

>  <m_score__min__energy>  (55) 
-13.31

>  <m_primary>  (55) 
energy

$$$$
55:0
     RDKit          3D

 44 46  0  0  0  0  0  0  0  0999 V2000
   60.7641   35.4878   47.8640 H   0  0  0  0  0  0  0  0  0  0  0  0
   59.9270   34.9160   47.4370 C   0  0  0  0  0  0  0  0  0  0  0  0
   59.4460   35.1270   46.1940 N   0  0  0  0  0  0  0  0  0  0  0  0
   58.4590   34.2210   46.0760 C   0  0  0  0  0  0  0  0  0  0  0  0
   57.5610   34.1070   44.8810 C   0  0  0  0  0  0  0  0  0  0  0  0
   57.7896   34.9243   44.1812 H   0  0  0  0  0  0  0  0  0  0  0  0
   56.5173   34.1692   45.2226 H   0  0  0  0  0  0  0  0  0  0  0  0
   57.7580   32.7660   44.1650 C   0  0  0  0  0  0  0  0  0  0  0  0
   58.8047   32.4473   44.2781 H   0  0  0  0  0  0  0  0  0  0  0  0
   57.5093   32.8948   43.1012 H   0  0  0  0  0  0  0  0  0  0  0  0
   56.8830   31.7430   44.7290 N   0  0  0  0  0  0  0  0  0  0  0  0
   56.2960   30.6820   43.9660 C   0  0  0  0  0  0  0  0  0  0  0  0
   56.2820   30.7440   42.7090 O   0  0  0  0  0  0  0  0  0  0  0  0
   55.7430   29.5260   44.6120 N   0  0  0  0  0  0  0  0  0  0  0  0
   56.4230   28.5920   45.2080 C   0  0  0  0  0  0  0  0  0  0  0  0
   55.8980   27.4220   45.6320 N   0  0  0  0  0  0  0  0  0  0  0  0
   56.8440   26.6240   46.1960 C   0  0  0  0  0  0  0  0  0  0  0  0
   56.5100   25.2920   46.7170 C   0  0  0  0  0  0  0  0  0  0  0  0
   57.3770   24.6190   47.3380 O   0  0  0  0  0  0  0  0  0  0  0  0
   55.2000   24.7590   46.5010 N   0  0  0  0  0  0  0  0  0  0  0  0
   54.9220   23.3430   46.2820 C   0  0  0  0  0  0  0  0  0  0  0  0
   53.9104   23.2314   45.8646 H   0  0  0  0  0  0  0  0  0  0  0  0
   54.9925   22.8102   47.2418 H   0  0  0  0  0  0  0  0  0  0  0  0
   55.9260   22.7590   45.3190 C   0  0  0  0  0  0  0  0  0  0  0  0
   55.7280   22.9460   43.9390 C   0  0  0  0  0  0  0  0  0  0  0  0
   54.8582   23.5189   43.5851 H   0  0  0  0  0  0  0  0  0  0  0  0
   56.6270   22.4100   43.0150 C   0  0  0  0  0  0  0  0  0  0  0  0
   56.4680   22.5672   41.9380 H   0  0  0  0  0  0  0  0  0  0  0  0
   57.7270   21.6750   43.4580 C   0  0  0  0  0  0  0  0  0  0  0  0
   58.4330   21.2514   42.7285 H   0  0  0  0  0  0  0  0  0  0  0  0
   57.9350   21.4750   44.8260 C   0  0  0  0  0  0  0  0  0  0  0  0
   58.8037   20.8929   45.1674 H   0  0  0  0  0  0  0  0  0  0  0  0
   57.0380   22.0150   45.7710 C   0  0  0  0  0  0  0  0  0  0  0  0
   57.2240   21.8290   47.1520 O   0  0  0  0  0  0  0  0  0  0  0  0
   56.5680   20.8320   47.9300 C   0  0  0  0  0  0  0  0  0  0  0  0
   56.7105   21.0485   48.9990 H   0  0  0  0  0  0  0  0  0  0  0  0
   55.4932   20.8325   47.6958 H   0  0  0  0  0  0  0  0  0  0  0  0
   56.9938   19.8452   47.6958 H   0  0  0  0  0  0  0  0  0  0  0  0
   58.1310   27.1630   46.2200 C   0  0  0  0  0  0  0  0  0  0  0  0
   59.0274   26.6779   46.6336 H   0  0  0  0  0  0  0  0  0  0  0  0
   58.0710   28.6860   45.5050 S   0  0  0  0  0  0  0  0  0  0  0  0
   58.3490   33.5020   47.2430 C   0  0  0  0  0  0  0  0  0  0  0  0
   57.6176   32.7037   47.4374 H   0  0  0  0  0  0  0  0  0  0  0  0
   59.2830   33.9360   48.1070 N   0  0  0  0  0  0  0  0  0  0  0  0
  1  2  1  0
  2  3  2  0
  3  4  1  0
  4  5  1  0
  5  6  1  0
  5  7  1  0
  5  8  1  0
  8  9  1  0
  8 10  1  0
  8 11  1  0
 11 12  1  0
 12 13  2  0
 12 14  1  0
 14 15  2  0
 15 16  1  0
 16 17  1  0
 17 18  1  0
 18 19  2  0
 18 20  1  0
 20 21  1  0
 21 22  1  0
 21 23  1  0
 21 24  1  0
 24 25  2  0
 25 26  1  0
 25 27  1  0
 27 28  1  0
 27 29  2  0
 29 30  1  0
 29 31  1  0
 31 32  1  0
 31 33  2  0
 33 34  1  0
 34 35  1  0
 35 36  1  0
 35 37  1  0
 35 38  1  0
 17 39  2  0
 39 40  1  0
 39 41  1  0
  4 42  2  0
 42 43  1  0
 42 44  1  0
 44  2  1  0
 41 15  1  0
 33 24  1  0
M  CHG  4  11  -1  16  -1  20  -1  44  -1
M  END
>  <UniqueID>  (56) 
55

>  <SMILES>  (56) 
COc1ccccc1C[N-]C(=O)c1cs/c(=N/C(=O)[N-]CCc2c[n-]cn2)[n-]1

>  <Energy>  (56) 
95.06300950809367

>  <Genealogy>  (56) 
COc1ccccc1C[N-]C(=O)c1csc(=NC(=O)[N-]CCc2c[n-]cn2)[n-]1 (protonated)
COc1ccccc1C[N-]C(=O)c1cs/c(=N/C(=O)[N-]CCc2c[n-]cn2)[n-]1 (cis-trans isomerization)
COc1ccccc1C[N-]C(=O)c1cs/c(=N/C(=O)[N-]CCc2c[n-]cn2)[n-]1 (3D coordinates assigned)
COc1ccccc1C[N-]C(=O)c1cs/c(=N/C(=O)[N-]CCc2c[n-]cn2)[n-]1 (optimized conformer: 95.06300950809367 kcal/mol)

>  <smiles>  (56) 
COc1ccccc1CNC(=O)c1csc(=NC(=O)NCCc2c[nH]cn2)[nH]1

>  <score_type>  (56) 
oracle

>  <origin>  (56) 
adg

>  <m_score__min__energy>  (56) 
-12.81

>  <m_primary>  (56) 
energy

$$$$
56:0
     RDKit          3D

 35 37  0  0  0  0  0  0  0  0999 V2000
   61.4710   30.7210   49.1000 C   0  0  0  0  0  0  0  0  0  0  0  0
   60.3150   30.3480   48.5020 C   0  0  0  0  0  0  0  0  0  0  0  0
   59.1120   31.1060   48.8470 C   0  0  0  0  0  0  0  0  0  0  0  0
   60.4040   29.2140   47.5670 C   0  0  0  0  0  0  0  0  0  0  0  0
   58.8460   28.7990   46.7600 S   0  0  0  0  0  0  0  0  0  0  0  0
   58.1420   30.1450   45.8550 C   0  0  0  0  0  0  0  0  0  0  0  0
   56.9390   30.0590   45.2260 N   0  0  0  0  0  0  0  0  0  0  0  0
   56.6660   31.2130   44.6470 N   0  0  0  0  0  0  0  0  0  0  0  0
   57.6670   32.0700   44.8780 C   0  0  0  0  0  0  0  0  0  0  0  0
   57.7470   33.4750   44.4010 C   0  0  0  0  0  0  0  0  0  0  0  0
   58.0000   34.5290   45.8560 S   0  0  0  0  0  0  0  0  0  0  0  0
   59.6150   34.1970   46.5850 C   0  0  0  0  0  0  0  0  0  0  0  0
   59.9330   34.5350   47.8460 N   0  0  0  0  0  0  0  0  0  0  0  0
   61.2160   34.1330   48.0500 C   0  0  0  0  0  0  0  0  0  0  0  0
   62.0720   34.2150   49.1540 C   0  0  0  0  0  0  0  0  0  0  0  0
   63.3390   33.7340   49.1230 C   0  0  0  0  0  0  0  0  0  0  0  0
   63.7840   33.1440   47.9480 C   0  0  0  0  0  0  0  0  0  0  0  0
   62.9240   33.0770   46.8790 C   0  0  0  0  0  0  0  0  0  0  0  0
   61.6620   33.5550   46.9060 N   0  0  0  0  0  0  0  0  0  0  0  0
   60.6680   33.5990   46.0100 N   0  0  0  0  0  0  0  0  0  0  0  0
   58.5600   31.3920   45.6210 N   0  0  0  0  0  0  0  0  0  0  0  0
   62.4045   30.1841   48.8756 H   0  0  0  0  0  0  0  0  0  0  0  0
   61.4767   31.5609   49.8103 H   0  0  0  0  0  0  0  0  0  0  0  0
   59.0174   31.1656   49.9413 H   0  0  0  0  0  0  0  0  0  0  0  0
   59.1859   32.1210   48.4295 H   0  0  0  0  0  0  0  0  0  0  0  0
   58.2283   30.6013   48.4295 H   0  0  0  0  0  0  0  0  0  0  0  0
   61.1396   29.4653   46.7887 H   0  0  0  0  0  0  0  0  0  0  0  0
   60.6963   28.3358   48.1614 H   0  0  0  0  0  0  0  0  0  0  0  0
   58.5904   33.5878   43.7039 H   0  0  0  0  0  0  0  0  0  0  0  0
   56.8252   33.7584   43.8719 H   0  0  0  0  0  0  0  0  0  0  0  0
   61.7045   34.6855   50.0779 H   0  0  0  0  0  0  0  0  0  0  0  0
   63.9950   33.8090   50.0028 H   0  0  0  0  0  0  0  0  0  0  0  0
   64.8039   32.7386   47.8745 H   0  0  0  0  0  0  0  0  0  0  0  0
   63.2832   32.6085   45.9508 H   0  0  0  0  0  0  0  0  0  0  0  0
   59.4460   31.7970   45.9470 H   0  0  0  0  0  0  0  0  0  0  0  0
  1  2  2  0
  2  3  1  0
  2  4  1  0
  4  5  1  0
  5  6  1  0
  6  7  2  0
  7  8  1  0
  8  9  2  0
  9 10  1  0
 10 11  1  0
 11 12  1  0
 12 13  1  0
 13 14  2  0
 14 15  1  0
 15 16  2  0
 16 17  1  0
 17 18  2  0
 18 19  1  0
 19 20  1  0
  9 21  1  0
 21  6  1  0
 20 12  2  0
 19 14  1  0
  1 22  1  0
  1 23  1  0
  3 24  1  0
  3 25  1  0
  3 26  1  0
  4 27  1  0
  4 28  1  0
 10 29  1  0
 10 30  1  0
 15 31  1  0
 16 32  1  0
 17 33  1  0
 18 34  1  0
 21 35  1  0
M  END
>  <smiles>  (57) 
C=C(C)CSc1nnc(CSc2nc3ccccn3n2)[nH]1

>  <score_type>  (57) 
oracle

>  <origin>  (57) 
adg

>  <m_score__min__energy>  (57) 
-8

>  <m_primary>  (57) 
energy

$$$$
57:0
     RDKit          3D

 55 58  0  0  0  0  0  0  0  0999 V2000
   59.2830   34.6000   48.1570 C   0  0  0  0  0  0  0  0  0  0  0  0
   60.1670   34.2340   47.1070 O   0  0  0  0  0  0  0  0  0  0  0  0
   59.7770   33.4200   46.0440 C   0  0  0  0  0  0  0  0  0  0  0  0
   59.5970   33.9210   44.8990 O   0  0  0  0  0  0  0  0  0  0  0  0
   59.5580   31.9680   46.2490 C   0  0  0  0  0  0  0  0  0  0  0  0
   60.5780   31.1200   46.7600 C   0  0  0  0  0  0  0  0  0  0  0  0
   61.9850   31.6080   47.0550 C   0  0  0  0  0  0  0  0  0  0  0  0
   62.0990   32.2620   48.4430 C   0  0  0  0  0  0  0  0  0  0  0  0
   61.7750   31.2660   49.5750 C   0  0  0  0  0  0  0  0  0  0  0  0
   60.3200   31.0030   49.6620 N   0  0  0  0  0  0  0  0  0  0  0  0
   60.0290   29.6650   50.2450 C   0  0  0  0  0  0  0  0  0  0  0  0
   58.8910   29.7110   51.2980 C   0  0  0  0  0  0  0  0  0  0  0  0
   57.7740   30.4550   50.7940 O   0  0  0  0  0  0  0  0  0  0  0  0
   58.1420   31.8190   50.5470 C   0  0  0  0  0  0  0  0  0  0  0  0
   59.6620   32.0900   50.4050 C   0  0  0  0  0  0  0  0  0  0  0  0
   60.3270   29.7460   46.8910 C   0  0  0  0  0  0  0  0  0  0  0  0
   59.1010   29.1980   46.5210 C   0  0  0  0  0  0  0  0  0  0  0  0
   58.9170   27.8880   46.6520 O   0  0  0  0  0  0  0  0  0  0  0  0
   57.7860   27.2710   46.3190 C   0  0  0  0  0  0  0  0  0  0  0  0
   57.6970   25.8080   46.5380 C   0  0  0  0  0  0  0  0  0  0  0  0
   57.4040   25.3170   47.8230 C   0  0  0  0  0  0  0  0  0  0  0  0
   57.2500   23.9440   48.0410 C   0  0  0  0  0  0  0  0  0  0  0  0
   57.3780   23.0490   46.9760 C   0  0  0  0  0  0  0  0  0  0  0  0
   57.2440   21.6830   47.1920 O   0  0  0  0  0  0  0  0  0  0  0  0
   57.6610   23.5270   45.6920 C   0  0  0  0  0  0  0  0  0  0  0  0
   57.8050   24.9000   45.4710 C   0  0  0  0  0  0  0  0  0  0  0  0
   56.7260   28.0160   45.7690 C   0  0  0  0  0  0  0  0  0  0  0  0
   55.5480   27.3990   45.3450 O   0  0  0  0  0  0  0  0  0  0  0  0
   56.8710   29.4000   45.6230 C   0  0  0  0  0  0  0  0  0  0  0  0
   55.9140   30.0680   45.1400 O   0  0  0  0  0  0  0  0  0  0  0  0
   58.0780   30.0220   46.0090 C   0  0  0  0  0  0  0  0  0  0  0  0
   58.3090   31.4110   45.8840 C   0  0  0  0  0  0  0  0  0  0  0  0
   57.2990   32.2490   45.4110 O   0  0  0  0  0  0  0  0  0  0  0  0
   59.7631   34.4012   49.1265 H   0  0  0  0  0  0  0  0  0  0  0  0
   59.0443   35.6709   48.0788 H   0  0  0  0  0  0  0  0  0  0  0  0
   58.3571   34.0113   48.0788 H   0  0  0  0  0  0  0  0  0  0  0  0
   62.6730   30.7508   47.0106 H   0  0  0  0  0  0  0  0  0  0  0  0
   62.2410   32.3690   46.3032 H   0  0  0  0  0  0  0  0  0  0  0  0
   63.1257   32.6329   48.5784 H   0  0  0  0  0  0  0  0  0  0  0  0
   61.3709   33.0850   48.4935 H   0  0  0  0  0  0  0  0  0  0  0  0
   62.2990   30.3188   49.3795 H   0  0  0  0  0  0  0  0  0  0  0  0
   62.1055   31.7048   50.5280 H   0  0  0  0  0  0  0  0  0  0  0  0
   59.7319   28.9838   49.4340 H   0  0  0  0  0  0  0  0  0  0  0  0
   60.9404   29.3161   50.7526 H   0  0  0  0  0  0  0  0  0  0  0  0
   58.5687   28.6848   51.5286 H   0  0  0  0  0  0  0  0  0  0  0  0
   59.2661   30.2026   52.2077 H   0  0  0  0  0  0  0  0  0  0  0  0
   57.6533   32.1373   49.6143 H   0  0  0  0  0  0  0  0  0  0  0  0
   57.8186   32.3823   51.4347 H   0  0  0  0  0  0  0  0  0  0  0  0
   59.8105   33.0370   49.8654 H   0  0  0  0  0  0  0  0  0  0  0  0
   60.1050   32.1483   51.4102 H   0  0  0  0  0  0  0  0  0  0  0  0
   61.1126   29.0895   47.2932 H   0  0  0  0  0  0  0  0  0  0  0  0
   57.2951   26.0184   48.6633 H   0  0  0  0  0  0  0  0  0  0  0  0
   57.0281   23.5689   49.0510 H   0  0  0  0  0  0  0  0  0  0  0  0
   57.7704   22.8216   44.8551 H   0  0  0  0  0  0  0  0  0  0  0  0
   58.0042   25.2719   44.4551 H   0  0  0  0  0  0  0  0  0  0  0  0
  1  2  1  0
  2  3  1  0
  3  4  2  0
  3  5  1  0
  5  6  2  0
  6  7  1  0
  7  8  1  0
  8  9  1  0
  9 10  1  0
 10 11  1  0
 11 12  1  0
 12 13  1  0
 13 14  1  0
 14 15  1  0
  6 16  1  0
 16 17  2  0
 17 18  1  0
 18 19  1  0
 19 20  1  0
 20 21  2  0
 21 22  1  0
 22 23  2  0
 23 24  1  0
 23 25  1  0
 25 26  2  0
 19 27  2  0
 27 28  1  0
 27 29  1  0
 29 30  2  0
 29 31  1  0
 31 32  2  0
 32 33  1  0
 32  5  1  0
 15 10  1  0
 31 17  1  0
 26 20  1  0
  1 34  1  0
  1 35  1  0
  1 36  1  0
  7 37  1  0
  7 38  1  0
  8 39  1  0
  8 40  1  0
  9 41  1  0
  9 42  1  0
 11 43  1  0
 11 44  1  0
 12 45  1  0
 12 46  1  0
 14 47  1  0
 14 48  1  0
 15 49  1  0
 15 50  1  0
 16 51  1  0
 21 52  1  0
 22 53  1  0
 25 54  1  0
 26 55  1  0
M  CHG  3  24  -1  28  -1  33  -1
M  END
>  <UniqueID>  (58) 
56

>  <SMILES>  (58) 
COC(=O)c1c(CCCN2CCOCC2)cc2oc(-c3ccc([O-])cc3)c([O-])c(=O)c2c1[O-]

>  <Energy>  (58) 
87.11986651693773

>  <Genealogy>  (58) 
COC(=O)c1c(CCCN2CCOCC2)cc2oc(-c3ccc([O-])cc3)c([O-])c(=O)c2c1[O-] (protonated)
COC(=O)c1c(CCCN2CCOCC2)cc2oc(-c3ccc([O-])cc3)c([O-])c(=O)c2c1[O-] (3D coordinates assigned)
COC(=O)c1c(CCCN2CCOCC2)cc2oc(-c3ccc([O-])cc3)c([O-])c(=O)c2c1[O-] (nonaromatic ring conformer: 87.11986651693773 kcal/mol)

>  <smiles>  (58) 
COC(=O)c1c(CCCN2CCOCC2)cc2oc(-c3ccc(O)cc3)c(O)c(=O)c2c1O

>  <score_type>  (58) 
oracle

>  <origin>  (58) 
adg

>  <m_score__min__energy>  (58) 
-12.789999999999999

>  <m_primary>  (58) 
energy

$$$$
58:0
     RDKit          3D

 40 42  0  0  0  0  0  0  0  0999 V2000
   64.1863   32.8384   47.1792 H   0  0  0  0  0  0  0  0  0  0  0  0
   63.1140   32.7220   47.3950 C   0  0  0  0  0  0  0  0  0  0  0  0
   62.3440   33.8380   47.7300 C   0  0  0  0  0  0  0  0  0  0  0  0
   62.8086   34.8344   47.7679 H   0  0  0  0  0  0  0  0  0  0  0  0
   60.9850   33.6910   48.0170 C   0  0  0  0  0  0  0  0  0  0  0  0
   60.3844   34.5729   48.2845 H   0  0  0  0  0  0  0  0  0  0  0  0
   60.3780   32.4190   47.9660 C   0  0  0  0  0  0  0  0  0  0  0  0
   59.0280   32.2280   48.2980 O   0  0  0  0  0  0  0  0  0  0  0  0
   58.5390   32.0450   49.6230 C   0  0  0  0  0  0  0  0  0  0  0  0
   59.3168   32.3361   50.3443 H   0  0  0  0  0  0  0  0  0  0  0  0
   57.6465   32.6700   49.7740 H   0  0  0  0  0  0  0  0  0  0  0  0
   58.2761   30.9876   49.7740 H   0  0  0  0  0  0  0  0  0  0  0  0
   61.1560   31.3010   47.5930 C   0  0  0  0  0  0  0  0  0  0  0  0
   60.6080   30.0140   47.5120 O   0  0  0  0  0  0  0  0  0  0  0  0
   59.8890   29.5110   46.4170 C   0  0  0  0  0  0  0  0  0  0  0  0
   60.4020   28.4920   45.5950 C   0  0  0  0  0  0  0  0  0  0  0  0
   61.3972   28.0706   45.8000 H   0  0  0  0  0  0  0  0  0  0  0  0
   59.6520   28.0140   44.5200 C   0  0  0  0  0  0  0  0  0  0  0  0
   60.0626   27.2237   43.8744 H   0  0  0  0  0  0  0  0  0  0  0  0
   58.3830   28.5340   44.2600 C   0  0  0  0  0  0  0  0  0  0  0  0
   57.8003   28.1531   43.4083 H   0  0  0  0  0  0  0  0  0  0  0  0
   57.8440   29.5430   45.0810 C   0  0  0  0  0  0  0  0  0  0  0  0
   56.4930   30.0910   44.8150 C   0  0  0  0  0  0  0  0  0  0  0  0
   55.4880   29.3330   44.8750 O   0  0  0  0  0  0  0  0  0  0  0  0
   56.3270   31.5010   44.5840 N   0  0  0  0  0  0  0  0  0  0  0  0
   57.1410   32.4770   44.8810 C   0  0  0  0  0  0  0  0  0  0  0  0
   58.1360   32.8150   43.9540 C   0  0  0  0  0  0  0  0  0  0  0  0
   58.2178   32.2625   43.0063 H   0  0  0  0  0  0  0  0  0  0  0  0
   59.0230   33.8550   44.2370 C   0  0  0  0  0  0  0  0  0  0  0  0
   59.8116   34.1191   43.5171 H   0  0  0  0  0  0  0  0  0  0  0  0
   58.9060   34.5570   45.4340 C   0  0  0  0  0  0  0  0  0  0  0  0
   59.6058   35.3720   45.6708 H   0  0  0  0  0  0  0  0  0  0  0  0
   57.8920   34.2160   46.3300 C   0  0  0  0  0  0  0  0  0  0  0  0
   57.7868   34.7712   47.2737 H   0  0  0  0  0  0  0  0  0  0  0  0
   57.0320   33.2000   46.0430 N   0  0  0  0  0  0  0  0  0  0  0  0
   56.2640   33.0290   46.7270 H   0  0  0  0  0  0  0  0  0  0  0  0
   58.6080   30.0180   46.1630 C   0  0  0  0  0  0  0  0  0  0  0  0
   58.1937   30.7982   46.8184 H   0  0  0  0  0  0  0  0  0  0  0  0
   62.5230   31.4590   47.3340 C   0  0  0  0  0  0  0  0  0  0  0  0
   63.1356   30.5812   47.0806 H   0  0  0  0  0  0  0  0  0  0  0  0
  1  2  1  0
  2  3  2  0
  3  4  1  0
  3  5  1  0
  5  6  1  0
  5  7  2  0
  7  8  1  0
  8  9  1  0
  9 10  1  0
  9 11  1  0
  9 12  1  0
  7 13  1  0
 13 14  1  0
 14 15  1  0
 15 16  2  0
 16 17  1  0
 16 18  1  0
 18 19  1  0
 18 20  2  0
 20 21  1  0
 20 22  1  0
 22 23  1  0
 23 24  2  0
 23 25  1  0
 25 26  2  0
 26 27  1  0
 27 28  1  0
 27 29  2  0
 29 30  1  0
 29 31  1  0
 31 32  1  0
 31 33  2  0
 33 34  1  0
 33 35  1  0
 35 36  1  0
 22 37  2  0
 37 38  1  0
 13 39  2  0
 39 40  1  0
 39  2  1  0
 37 15  1  0
 35 26  1  0
M  END
>  <UniqueID>  (59) 
57

>  <SMILES>  (59) 
COc1ccccc1Oc1cccc(C(=O)/N=c2/cccc[nH]2)c1

>  <Energy>  (59) 
57.96335681458289

>  <Genealogy>  (59) 
COc1ccccc1Oc1cccc(C(=O)/N=c2/cccc[nH]2)c1 (cis-trans isomerization)
COc1ccccc1Oc1cccc(C(=O)/N=c2/cccc[nH]2)c1 (3D coordinates assigned)
COc1ccccc1Oc1cccc(C(=O)/N=c2/cccc[nH]2)c1 (optimized conformer: 57.96335681458289 kcal/mol)

>  <smiles>  (59) 
COc1ccccc1Oc1cccc(C(=O)N=c2cccc[nH]2)c1

>  <score_type>  (59) 
oracle

>  <origin>  (59) 
adg

>  <m_score__min__energy>  (59) 
-8.3800000000000008

>  <m_primary>  (59) 
energy

$$$$
59:0
     RDKit          3D

 49 52  0  0  0  0  0  0  0  0999 V2000
   57.5380   31.7200   50.8740 C   0  0  0  0  0  0  0  0  0  0  0  0
   58.4110   32.3390   49.9350 O   0  0  0  0  0  0  0  0  0  0  0  0
   59.7370   32.7160   50.2050 C   0  0  0  0  0  0  0  0  0  0  0  0
   60.5390   32.0070   51.1210 C   0  0  0  0  0  0  0  0  0  0  0  0
   61.8580   32.4020   51.3600 C   0  0  0  0  0  0  0  0  0  0  0  0
   62.3990   33.5080   50.6910 C   0  0  0  0  0  0  0  0  0  0  0  0
   63.8050   33.9450   50.9860 C   0  0  0  0  0  0  0  0  0  0  0  0
   61.6050   34.2200   49.7820 C   0  0  0  0  0  0  0  0  0  0  0  0
   60.2780   33.8280   49.5270 C   0  0  0  0  0  0  0  0  0  0  0  0
   59.4650   34.5640   48.6000 N   0  0  0  0  0  0  0  0  0  0  0  0
   59.1010   33.9660   47.0120 S   0  0  0  0  0  0  0  0  0  0  0  0
   57.6250   34.1190   46.7730 O   0  0  0  0  0  0  0  0  0  0  0  0
   59.8310   34.7990   45.9960 O   0  0  0  0  0  0  0  0  0  0  0  0
   59.6590   32.2900   46.8620 C   0  0  0  0  0  0  0  0  0  0  0  0
   58.6770   31.3020   46.6920 C   0  0  0  0  0  0  0  0  0  0  0  0
   59.0340   29.9640   46.4810 C   0  0  0  0  0  0  0  0  0  0  0  0
   57.9930   28.9450   46.2580 C   0  0  0  0  0  0  0  0  0  0  0  0
   56.8840   29.2020   45.4230 C   0  0  0  0  0  0  0  0  0  0  0  0
   55.9110   28.2510   45.2440 N   0  0  0  0  0  0  0  0  0  0  0  0
   55.9760   27.0260   45.8450 C   0  0  0  0  0  0  0  0  0  0  0  0
   55.0680   26.1740   45.6580 O   0  0  0  0  0  0  0  0  0  0  0  0
   57.0680   26.7500   46.6600 C   0  0  0  0  0  0  0  0  0  0  0  0
   57.3530   25.6120   47.3200 N   0  0  0  0  0  0  0  0  0  0  0  0
   58.5160   25.7950   47.9380 N   0  0  0  0  0  0  0  0  0  0  0  0
   58.9600   27.0450   47.6620 C   0  0  0  0  0  0  0  0  0  0  0  0
   60.1630   27.5830   48.1220 O   0  0  0  0  0  0  0  0  0  0  0  0
   60.2950   28.1490   49.4180 C   0  0  0  0  0  0  0  0  0  0  0  0
   58.0450   27.6810   46.8550 C   0  0  0  0  0  0  0  0  0  0  0  0
   60.3870   29.6030   46.4680 C   0  0  0  0  0  0  0  0  0  0  0  0
   61.3730   30.5710   46.6540 C   0  0  0  0  0  0  0  0  0  0  0  0
   61.0250   31.9150   46.8480 C   0  0  0  0  0  0  0  0  0  0  0  0
   62.3460   33.0620   47.0440 Cl  0  0  0  0  0  0  0  0  0  0  0  0
   57.8711   31.9562   51.8954 H   0  0  0  0  0  0  0  0  0  0  0  0
   56.5147   32.0954   50.7261 H   0  0  0  0  0  0  0  0  0  0  0  0
   57.5537   30.6301   50.7261 H   0  0  0  0  0  0  0  0  0  0  0  0
   60.1243   31.1371   51.6514 H   0  0  0  0  0  0  0  0  0  0  0  0
   62.4752   31.8414   52.0775 H   0  0  0  0  0  0  0  0  0  0  0  0
   63.9538   33.9912   52.0749 H   0  0  0  0  0  0  0  0  0  0  0  0
   64.5122   33.2243   50.5496 H   0  0  0  0  0  0  0  0  0  0  0  0
   63.9790   34.9396   50.5496 H   0  0  0  0  0  0  0  0  0  0  0  0
   62.0236   35.0945   49.2624 H   0  0  0  0  0  0  0  0  0  0  0  0
   58.8920   35.3660   48.9480 H   0  0  0  0  0  0  0  0  0  0  0  0
   57.6137   31.5817   46.7249 H   0  0  0  0  0  0  0  0  0  0  0  0
   56.7992   30.1723   44.9118 H   0  0  0  0  0  0  0  0  0  0  0  0
   60.1142   27.3735   50.1769 H   0  0  0  0  0  0  0  0  0  0  0  0
   61.3112   28.5519   49.5404 H   0  0  0  0  0  0  0  0  0  0  0  0
   59.5619   28.9599   49.5404 H   0  0  0  0  0  0  0  0  0  0  0  0
   60.6727   28.5525   46.3106 H   0  0  0  0  0  0  0  0  0  0  0  0
   62.4331   30.2776   46.6485 H   0  0  0  0  0  0  0  0  0  0  0  0
  1  2  1  0
  2  3  1  0
  3  4  2  0
  4  5  1  0
  5  6  2  0
  6  7  1  0
  6  8  1  0
  8  9  2  0
  9 10  1  0
 10 11  1  0
 11 12  2  0
 11 13  2  0
 11 14  1  0
 14 15  2  0
 15 16  1  0
 16 17  1  0
 17 18  2  0
 18 19  1  0
 19 20  1  0
 20 21  2  0
 20 22  1  0
 22 23  1  0
 23 24  1  0
 24 25  2  0
 25 26  1  0
 26 27  1  0
 25 28  1  0
 16 29  2  0
 29 30  1  0
 30 31  2  0
 31 32  1  0
  9  3  1  0
 31 14  1  0
 28 17  1  0
 28 22  2  0
  1 33  1  0
  1 34  1  0
  1 35  1  0
  4 36  1  0
  5 37  1  0
  7 38  1  0
  7 39  1  0
  7 40  1  0
  8 41  1  0
 10 42  1  0
 15 43  1  0
 18 44  1  0
 27 45  1  0
 27 46  1  0
 27 47  1  0
 29 48  1  0
 30 49  1  0
M  CHG  2  19  -1  23  -1
M  END
>  <UniqueID>  (60) 
58

>  <SMILES>  (60) 
COc1ccc(C)cc1NS(=O)(=O)c1cc(-c2c[n-]c(=O)c3[n-]nc(OC)c23)ccc1Cl

>  <Energy>  (60) 
104.30576184690939

>  <Genealogy>  (60) 
COc1ccc(C)cc1NS(=O)(=O)c1cc(-c2c[n-]c(=O)c3[n-]nc(OC)c23)ccc1Cl (protonated)
COc1ccc(C)cc1NS(=O)(=O)c1cc(-c2c[n-]c(=O)c3[n-]nc(OC)c23)ccc1Cl (3D coordinates assigned)
COc1ccc(C)cc1NS(=O)(=O)c1cc(-c2c[n-]c(=O)c3[n-]nc(OC)c23)ccc1Cl (optimized conformer: 104.30576184690939 kcal/mol)

>  <smiles>  (60) 
COc1ccc(C)cc1NS(=O)(=O)c1cc(-c2c[nH]c(=O)c3[nH]nc(OC)c23)ccc1Cl

>  <score_type>  (60) 
oracle

>  <origin>  (60) 
adg

>  <m_score__min__energy>  (60) 
-11.77

>  <m_primary>  (60) 
energy

$$$$
60:0
     RDKit          3D

 24 25  0  0  0  0  0  0  0  0999 V2000
   59.8380   28.1970   44.8710 C   0  0  0  0  0  0  0  0  0  0  0  0
   58.7080   29.1680   44.8650 C   0  0  0  0  0  0  0  0  0  0  0  0
   57.3810   28.7460   44.8420 C   0  0  0  0  0  0  0  0  0  0  0  0
   56.3770   29.7010   44.8370 C   0  0  0  0  0  0  0  0  0  0  0  0
   55.1500   29.3580   44.8170 O   0  0  0  0  0  0  0  0  0  0  0  0
   56.6530   31.0280   44.8530 N   0  0  0  0  0  0  0  0  0  0  0  0
   57.9550   31.3830   44.8740 C   0  0  0  0  0  0  0  0  0  0  0  0
   58.4500   33.1160   44.8960 S   0  0  0  0  0  0  0  0  0  0  0  0
   59.2140   33.5240   46.4620 C   0  0  0  0  0  0  0  0  0  0  0  0
   58.7440   34.6270   47.0970 N   0  0  0  0  0  0  0  0  0  0  0  0
   59.2940   34.9620   48.2730 N   0  0  0  0  0  0  0  0  0  0  0  0
   60.2910   34.2250   48.8180 C   0  0  0  0  0  0  0  0  0  0  0  0
   60.7890   34.5750   49.9410 O   0  0  0  0  0  0  0  0  0  0  0  0
   60.7750   33.1150   48.1960 N   0  0  0  0  0  0  0  0  0  0  0  0
   60.2330   32.7540   47.0000 C   0  0  0  0  0  0  0  0  0  0  0  0
   60.6380   31.7340   46.3720 O   0  0  0  0  0  0  0  0  0  0  0  0
   58.9570   30.4850   44.8800 N   0  0  0  0  0  0  0  0  0  0  0  0
   60.1129   27.9608   45.9096 H   0  0  0  0  0  0  0  0  0  0  0  0
   59.5323   27.2755   44.3539 H   0  0  0  0  0  0  0  0  0  0  0  0
   60.7030   28.6379   44.3539 H   0  0  0  0  0  0  0  0  0  0  0  0
   57.1344   27.6741   44.8281 H   0  0  0  0  0  0  0  0  0  0  0  0
   58.9040   35.8160   48.7290 H   0  0  0  0  0  0  0  0  0  0  0  0
   61.5500   32.5390   48.6160 H   0  0  0  0  0  0  0  0  0  0  0  0
   59.9750   30.7730   44.8960 H   0  0  0  0  0  0  0  0  0  0  0  0
  1  2  1  0
  2  3  2  0
  3  4  1  0
  4  5  2  0
  4  6  1  0
  6  7  2  0
  7  8  1  0
  8  9  1  0
  9 10  2  0
 10 11  1  0
 11 12  1  0
 12 13  2  0
 12 14  1  0
 14 15  1  0
 15 16  2  0
  7 17  1  0
 17  2  1  0
 15  9  1  0
  1 18  1  0
  1 19  1  0
  1 20  1  0
  3 21  1  0
 11 22  1  0
 14 23  1  0
 17 24  1  0
M  END
>  <smiles>  (61) 
Cc1cc(=O)nc(Sc2n[nH]c(=O)[nH]c2=O)[nH]1

>  <score_type>  (61) 
oracle

>  <origin>  (61) 
adg

>  <m_score__min__energy>  (61) 
-6.6900000000000004

>  <m_primary>  (61) 
energy

$$$$
61:0
     RDKit          3D

 49 52  0  0  0  0  0  0  0  0999 V2000
   56.9710   22.6300   45.6970 O   0  0  0  0  0  0  0  0  0  0  0  0
   56.0870   23.3790   46.1940 C   0  0  0  0  0  0  0  0  0  0  0  0
   56.4350   24.2910   47.3300 C   0  0  0  0  0  0  0  0  0  0  0  0
   56.8570   25.5960   46.8210 N   0  0  0  0  0  0  0  0  0  0  0  0
   58.0770   26.1660   46.9690 C   0  0  0  0  0  0  0  0  0  0  0  0
   59.1660   25.5480   47.5770 O   0  0  0  0  0  0  0  0  0  0  0  0
   58.0660   27.4440   46.4500 C   0  0  0  0  0  0  0  0  0  0  0  0
   59.0640   28.4090   46.3770 C   0  0  0  0  0  0  0  0  0  0  0  0
   58.7440   29.6570   45.7940 C   0  0  0  0  0  0  0  0  0  0  0  0
   59.8210   30.7050   45.6630 C   0  0  0  0  0  0  0  0  0  0  0  0
   59.6520   31.7650   46.7190 C   0  0  0  0  0  0  0  0  0  0  0  0
   59.9220   31.4750   48.0680 C   0  0  0  0  0  0  0  0  0  0  0  0
   59.7280   32.4520   49.0500 C   0  0  0  0  0  0  0  0  0  0  0  0
   59.2590   33.7190   48.6940 C   0  0  0  0  0  0  0  0  0  0  0  0
   58.9800   34.0130   47.3570 C   0  0  0  0  0  0  0  0  0  0  0  0
   59.1730   33.0400   46.3720 C   0  0  0  0  0  0  0  0  0  0  0  0
   57.4310   29.8910   45.2900 C   0  0  0  0  0  0  0  0  0  0  0  0
   57.1250   31.1160   44.6980 O   0  0  0  0  0  0  0  0  0  0  0  0
   56.4420   28.8840   45.3910 C   0  0  0  0  0  0  0  0  0  0  0  0
   55.1520   29.0910   44.9140 O   0  0  0  0  0  0  0  0  0  0  0  0
   56.7990   27.6720   45.9780 C   0  0  0  0  0  0  0  0  0  0  0  0
   56.0710   26.5240   46.2260 C   0  0  0  0  0  0  0  0  0  0  0  0
   54.7240   26.3360   45.9310 O   0  0  0  0  0  0  0  0  0  0  0  0
   54.7430   23.3330   45.7070 N   0  0  0  0  0  0  0  0  0  0  0  0
   53.6640   22.6560   46.4100 C   0  0  0  0  0  0  0  0  0  0  0  0
   52.3580   23.0010   45.7540 C   0  0  0  0  0  0  0  0  0  0  0  0
   52.3440   23.7860   44.5860 C   0  0  0  0  0  0  0  0  0  0  0  0
   51.1280   24.1500   43.9980 C   0  0  0  0  0  0  0  0  0  0  0  0
   49.9210   23.7430   44.5750 C   0  0  0  0  0  0  0  0  0  0  0  0
   49.9270   22.9740   45.7450 C   0  0  0  0  0  0  0  0  0  0  0  0
   51.1410   22.6080   46.3370 C   0  0  0  0  0  0  0  0  0  0  0  0
   55.5533   24.4206   47.9748 H   0  0  0  0  0  0  0  0  0  0  0  0
   57.2604   23.8471   47.9060 H   0  0  0  0  0  0  0  0  0  0  0  0
   60.0745   28.2074   46.7620 H   0  0  0  0  0  0  0  0  0  0  0  0
   60.8059   30.2295   45.7809 H   0  0  0  0  0  0  0  0  0  0  0  0
   59.7444   31.1738   44.6709 H   0  0  0  0  0  0  0  0  0  0  0  0
   60.2869   30.4769   48.3520 H   0  0  0  0  0  0  0  0  0  0  0  0
   59.9449   32.2225   50.1037 H   0  0  0  0  0  0  0  0  0  0  0  0
   59.1092   34.4864   49.4677 H   0  0  0  0  0  0  0  0  0  0  0  0
   58.6084   35.0104   47.0793 H   0  0  0  0  0  0  0  0  0  0  0  0
   58.9490   33.2733   45.3206 H   0  0  0  0  0  0  0  0  0  0  0  0
   56.2160   31.3100   44.2970 H   0  0  0  0  0  0  0  0  0  0  0  0
   53.8218   21.5682   46.3671 H   0  0  0  0  0  0  0  0  0  0  0  0
   53.6471   22.9782   47.4616 H   0  0  0  0  0  0  0  0  0  0  0  0
   53.2917   24.1142   44.1343 H   0  0  0  0  0  0  0  0  0  0  0  0
   51.1213   24.7571   43.0807 H   0  0  0  0  0  0  0  0  0  0  0  0
   48.9659   24.0273   44.1092 H   0  0  0  0  0  0  0  0  0  0  0  0
   48.9766   22.6573   46.1993 H   0  0  0  0  0  0  0  0  0  0  0  0
   51.1428   22.0112   47.2610 H   0  0  0  0  0  0  0  0  0  0  0  0
  1  2  2  0
  2  3  1  0
  3  4  1  0
  4  5  1  0
  5  6  1  0
  5  7  2  0
  7  8  1  0
  8  9  2  0
  9 10  1  0
 10 11  1  0
 11 12  2  0
 12 13  1  0
 13 14  2  0
 14 15  1  0
 15 16  2  0
  9 17  1  0
 17 18  1  0
 17 19  2  0
 19 20  1  0
 19 21  1  0
 21 22  2  0
 22 23  1  0
  2 24  1  0
 24 25  1  0
 25 26  1  0
 26 27  2  0
 27 28  1  0
 28 29  2  0
 29 30  1  0
 30 31  2  0
 22  4  1  0
 31 26  1  0
 21  7  1  0
 16 11  1  0
  3 32  1  0
  3 33  1  0
  8 34  1  0
 10 35  1  0
 10 36  1  0
 12 37  1  0
 13 38  1  0
 14 39  1  0
 15 40  1  0
 16 41  1  0
 18 42  1  0
 25 43  1  0
 25 44  1  0
 27 45  1  0
 28 46  1  0
 29 47  1  0
 30 48  1  0
 31 49  1  0
M  CHG  4   6  -1  20  -1  23  -1  24  -1
M  END
>  <UniqueID>  (62) 
59

>  <SMILES>  (62) 
O=C(Cn1c([O-])c2cc(Cc3ccccc3)c(O)c([O-])c2c1[O-])[N-]Cc1ccccc1

>  <Energy>  (62) 
85.11094994045236

>  <Genealogy>  (62) 
O=C(Cn1c([O-])c2cc(Cc3ccccc3)c(O)c([O-])c2c1[O-])[N-]Cc1ccccc1 (protonated)
O=C(Cn1c([O-])c2cc(Cc3ccccc3)c(O)c([O-])c2c1[O-])[N-]Cc1ccccc1 (3D coordinates assigned)
O=C(Cn1c([O-])c2cc(Cc3ccccc3)c(O)c([O-])c2c1[O-])[N-]Cc1ccccc1 (optimized conformer: 85.11094994045236 kcal/mol)

>  <smiles>  (62) 
O=C(Cn1c(O)c2cc(Cc3ccccc3)c(O)c(O)c2c1O)NCc1ccccc1

>  <score_type>  (62) 
oracle

>  <origin>  (62) 
adg

>  <m_score__min__energy>  (62) 
-17.260000000000002

>  <m_primary>  (62) 
energy

$$$$
62:0
     RDKit          3D

 52 54  0  0  0  0  0  0  0  0999 V2000
   63.0290   34.6430   49.9800 C   0  0  0  0  0  0  0  0  0  0  0  0
   62.2090   33.4840   49.4970 C   0  0  0  0  0  0  0  0  0  0  0  0
   62.6470   32.7080   48.4150 C   0  0  0  0  0  0  0  0  0  0  0  0
   61.9000   31.6050   47.9900 C   0  0  0  0  0  0  0  0  0  0  0  0
   60.7060   31.2590   48.6390 C   0  0  0  0  0  0  0  0  0  0  0  0
   59.9740   30.1000   48.2000 N   0  0  0  0  0  0  0  0  0  0  0  0
   60.2960   28.7500   48.5760 C   0  0  0  0  0  0  0  0  0  0  0  0
   61.0770   28.5240   49.5390 O   0  0  0  0  0  0  0  0  0  0  0  0
   59.6960   27.6180   47.8590 C   0  0  0  0  0  0  0  0  0  0  0  0
   60.3840   26.8080   47.0200 N   0  0  0  0  0  0  0  0  0  0  0  0
   59.4390   25.9290   46.6340 C   0  0  0  0  0  0  0  0  0  0  0  0
   58.2590   26.1970   47.2180 N   0  0  0  0  0  0  0  0  0  0  0  0
   56.9950   25.4980   47.0010 C   0  0  0  0  0  0  0  0  0  0  0  0
   56.2820   26.0200   45.7810 C   0  0  0  0  0  0  0  0  0  0  0  0
   55.9230   25.2250   44.8720 O   0  0  0  0  0  0  0  0  0  0  0  0
   55.9670   27.4120   45.6390 N   0  0  0  0  0  0  0  0  0  0  0  0
   56.7230   28.3710   44.8350 C   0  0  2  0  0  0  0  0  0  0  0  0
   57.9160   28.8380   45.6120 C   0  0  0  0  0  0  0  0  0  0  0  0
   57.7670   29.5110   46.6200 O   0  0  0  0  0  0  0  0  0  0  0  0
   55.8610   29.5460   44.4800 C   0  0  0  0  0  0  0  0  0  0  0  0
   54.7660   29.3680   43.8790 O   0  0  0  0  0  0  0  0  0  0  0  0
   56.2860   30.8660   44.8330 N   0  0  0  0  0  0  0  0  0  0  0  0
   57.3160   31.6020   44.1060 C   0  0  0  0  0  0  0  0  0  0  0  0
   57.9640   32.6100   45.0150 C   0  0  0  0  0  0  0  0  0  0  0  0
   57.7900   32.5330   46.4070 C   0  0  0  0  0  0  0  0  0  0  0  0
   58.3520   33.5040   47.2420 C   0  0  0  0  0  0  0  0  0  0  0  0
   59.0850   34.5620   46.6930 C   0  0  0  0  0  0  0  0  0  0  0  0
   59.2530   34.6510   45.3070 C   0  0  0  0  0  0  0  0  0  0  0  0
   58.6950   33.6790   44.4700 C   0  0  0  0  0  0  0  0  0  0  0  0
   58.4020   27.2620   47.9830 N   0  0  0  0  0  0  0  0  0  0  0  0
   60.2890   32.0140   49.7510 C   0  0  0  0  0  0  0  0  0  0  0  0
   61.0360   33.1180   50.1750 C   0  0  0  0  0  0  0  0  0  0  0  0
   63.0366   34.6537   51.0799 H   0  0  0  0  0  0  0  0  0  0  0  0
   64.0591   34.5440   49.6072 H   0  0  0  0  0  0  0  0  0  0  0  0
   62.5928   35.5815   49.6072 H   0  0  0  0  0  0  0  0  0  0  0  0
   63.5825   32.9679   47.8979 H   0  0  0  0  0  0  0  0  0  0  0  0
   62.2521   31.0034   47.1391 H   0  0  0  0  0  0  0  0  0  0  0  0
   59.1140   30.2560   47.6300 H   0  0  0  0  0  0  0  0  0  0  0  0
   59.6110   25.0997   45.9320 H   0  0  0  0  0  0  0  0  0  0  0  0
   57.1976   24.4253   46.8658 H   0  0  0  0  0  0  0  0  0  0  0  0
   56.3512   25.6657   47.8771 H   0  0  0  0  0  0  0  0  0  0  0  0
   57.0528   27.8811   43.9070 H   0  0  0  0  0  0  0  0  0  0  0  0
   58.9288   28.5739   45.2735 H   0  0  0  0  0  0  0  0  0  0  0  0
   58.0779   30.8978   43.7405 H   0  0  0  0  0  0  0  0  0  0  0  0
   56.8545   32.1255   43.2557 H   0  0  0  0  0  0  0  0  0  0  0  0
   57.2096   31.7059   46.8417 H   0  0  0  0  0  0  0  0  0  0  0  0
   58.2177   33.4359   48.3316 H   0  0  0  0  0  0  0  0  0  0  0  0
   59.5290   35.3235   47.3510 H   0  0  0  0  0  0  0  0  0  0  0  0
   59.8243   35.4859   44.8751 H   0  0  0  0  0  0  0  0  0  0  0  0
   58.8291   33.7519   43.3806 H   0  0  0  0  0  0  0  0  0  0  0  0
   59.3713   31.7346   50.2893 H   0  0  0  0  0  0  0  0  0  0  0  0
   60.7021   33.7027   51.0449 H   0  0  0  0  0  0  0  0  0  0  0  0
  1  2  1  0
  2  3  2  0
  3  4  1  0
  4  5  2  0
  5  6  1  0
  6  7  1  0
  7  8  2  0
  7  9  1  0
  9 10  1  0
 10 11  2  0
 11 12  1  0
 12 13  1  0
 13 14  1  0
 14 15  2  0
 14 16  1  0
 16 17  1  0
 17 18  1  0
 18 19  2  0
 17 20  1  0
 20 21  2  0
 20 22  1  0
 22 23  1  0
 23 24  1  0
 24 25  2  0
 25 26  1  0
 26 27  2  0
 27 28  1  0
 28 29  2  0
 12 30  1  0
  5 31  1  0
 31 32  2  0
 32  2  1  0
 30  9  2  0
 29 24  1  0
  1 33  1  0
  1 34  1  0
  1 35  1  0
  3 36  1  0
  4 37  1  0
  6 38  1  0
 11 39  1  0
 13 40  1  0
 13 41  1  0
 17 42  1  6
 18 43  1  0
 23 44  1  0
 23 45  1  0
 25 46  1  0
 26 47  1  0
 27 48  1  0
 28 49  1  0
 29 50  1  0
 31 51  1  0
 32 52  1  0
M  CHG  2  16  -1  22  -1
M  END
>  <UniqueID>  (63) 
60

>  <SMILES>  (63) 
Cc1ccc(NC(=O)c2ncn(CC(=O)[N-][C@H](C=O)C(=O)[N-]Cc3ccccc3)n2)cc1

>  <Energy>  (63) 
78.84248873141517

>  <Genealogy>  (63) 
Cc1ccc(NC(=O)c2ncn(CC(=O)[N-]C(C=O)C(=O)[N-]Cc3ccccc3)n2)cc1 (protonated)
Cc1ccc(NC(=O)c2ncn(CC(=O)[N-][C@H](C=O)C(=O)[N-]Cc3ccccc3)n2)cc1 (chirality)
Cc1ccc(NC(=O)c2ncn(CC(=O)[N-][C@H](C=O)C(=O)[N-]Cc3ccccc3)n2)cc1 (3D coordinates assigned)
Cc1ccc(NC(=O)c2ncn(CC(=O)[N-][C@H](C=O)C(=O)[N-]Cc3ccccc3)n2)cc1 (optimized conformer: 78.84248873141517 kcal/mol)

>  <smiles>  (63) 
Cc1ccc(NC(=O)c2ncn(CC(=O)NC(C=O)C(=O)NCc3ccccc3)n2)cc1

>  <score_type>  (63) 
oracle

>  <origin>  (63) 
adg

>  <m_score__min__energy>  (63) 
-13.09

>  <m_primary>  (63) 
energy

$$$$
63:0
     RDKit          3D

 46 49  0  0  0  0  0  0  0  0999 V2000
   63.8800   31.7000   47.7050 N   0  0  0  0  0  0  0  0  0  0  0  0
   63.7580   33.0110   48.3270 C   0  0  0  0  0  0  0  0  0  0  0  0
   62.2950   33.2530   48.5020 C   0  0  0  0  0  0  0  0  0  0  0  0
   61.8720   33.6060   49.7850 C   0  0  0  0  0  0  0  0  0  0  0  0
   60.5200   33.8560   50.0390 C   0  0  0  0  0  0  0  0  0  0  0  0
   59.6330   33.7360   48.9700 C   0  0  0  0  0  0  0  0  0  0  0  0
   60.0330   33.3920   47.6980 C   0  0  0  0  0  0  0  0  0  0  0  0
   59.0340   33.3350   46.6400 C   0  0  0  0  0  0  0  0  0  0  0  0
   58.8850   34.5210   45.9020 C   0  0  0  0  0  0  0  0  0  0  0  0
   58.0010   34.6080   44.8560 C   0  0  0  0  0  0  0  0  0  0  0  0
   57.2560   33.4910   44.5490 C   0  0  0  0  0  0  0  0  0  0  0  0
   57.4110   32.2970   45.2980 C   0  0  0  0  0  0  0  0  0  0  0  0
   56.5840   31.2690   44.8460 O   0  0  0  0  0  0  0  0  0  0  0  0
   57.0780   29.9440   44.8560 C   0  0  0  0  0  0  0  0  0  0  0  0
   57.3280   29.3090   43.6730 C   0  0  0  0  0  0  0  0  0  0  0  0
   57.8140   28.0180   43.6360 C   0  0  0  0  0  0  0  0  0  0  0  0
   58.0600   27.3480   44.8240 C   0  0  0  0  0  0  0  0  0  0  0  0
   58.5370   26.0910   44.7510 F   0  0  0  0  0  0  0  0  0  0  0  0
   57.7970   28.0240   45.9900 C   0  0  0  0  0  0  0  0  0  0  0  0
   58.1360   27.2960   47.2350 C   0  0  0  0  0  0  0  0  0  0  0  0
   57.8080   26.1060   47.4400 O   0  0  0  0  0  0  0  0  0  0  0  0
   58.8720   28.0850   48.1770 N   0  0  0  0  0  0  0  0  0  0  0  0
   59.8190   28.8750   47.9120 C   0  0  0  0  0  0  0  0  0  0  0  0
   60.2690   29.3310   46.7220 N   0  0  0  0  0  0  0  0  0  0  0  0
   61.2710   30.1480   46.9820 N   0  0  0  0  0  0  0  0  0  0  0  0
   61.4850   30.2360   48.2730 N   0  0  0  0  0  0  0  0  0  0  0  0
   60.5950   29.4540   48.8600 N   0  0  0  0  0  0  0  0  0  0  0  0
   57.3210   29.2760   45.9900 N   0  0  0  0  0  0  0  0  0  0  0  0
   58.2920   32.2150   46.3370 C   0  0  0  0  0  0  0  0  0  0  0  0
   61.3820   33.1490   47.4780 C   0  0  0  0  0  0  0  0  0  0  0  0
   64.5510   31.8050   46.9110 H   0  0  0  0  0  0  0  0  0  0  0  0
   62.9480   31.4870   47.2660 H   0  0  0  0  0  0  0  0  0  0  0  0
   64.2655   33.0190   49.3029 H   0  0  0  0  0  0  0  0  0  0  0  0
   64.2232   33.7933   47.7092 H   0  0  0  0  0  0  0  0  0  0  0  0
   62.6062   33.6878   50.6001 H   0  0  0  0  0  0  0  0  0  0  0  0
   60.1697   34.1365   51.0433 H   0  0  0  0  0  0  0  0  0  0  0  0
   58.5645   33.9248   49.1510 H   0  0  0  0  0  0  0  0  0  0  0  0
   59.4906   35.3997   46.1686 H   0  0  0  0  0  0  0  0  0  0  0  0
   57.8910   35.5395   44.2814 H   0  0  0  0  0  0  0  0  0  0  0  0
   56.5364   33.5254   43.7177 H   0  0  0  0  0  0  0  0  0  0  0  0
   57.1376   29.8388   42.7280 H   0  0  0  0  0  0  0  0  0  0  0  0
   58.0046   27.5247   42.6715 H   0  0  0  0  0  0  0  0  0  0  0  0
   62.2370   30.8340   48.6950 H   0  0  0  0  0  0  0  0  0  0  0  0
   60.5580   29.3470   49.9080 H   0  0  0  0  0  0  0  0  0  0  0  0
   58.4057   31.2851   46.9134 H   0  0  0  0  0  0  0  0  0  0  0  0
   61.7257   32.8695   46.4711 H   0  0  0  0  0  0  0  0  0  0  0  0
  1  2  1  0
  2  3  1  0
  3  4  2  0
  4  5  1  0
  5  6  2  0
  6  7  1  0
  7  8  1  0
  8  9  2  0
  9 10  1  0
 10 11  2  0
 11 12  1  0
 12 13  1  0
 13 14  1  0
 14 15  2  0
 15 16  1  0
 16 17  2  0
 17 18  1  0
 17 19  1  0
 19 20  1  0
 20 21  2  0
 20 22  1  0
 22 23  2  3
 23 24  1  0
 24 25  2  0
 25 26  1  0
 26 27  1  0
 19 28  2  0
 12 29  2  0
  7 30  2  0
 30  3  1  0
 29  8  1  0
 28 14  1  0
 27 23  1  0
  1 31  1  0
  1 32  1  0
  2 33  1  0
  2 34  1  0
  4 35  1  0
  5 36  1  0
  6 37  1  0
  9 38  1  0
 10 39  1  0
 11 40  1  0
 15 41  1  0
 16 42  1  0
 26 43  1  0
 27 44  1  0
 29 45  1  0
 30 46  1  0
M  END
>  <smiles>  (64) 
NCc1cccc(-c2cccc(Oc3ccc(F)c(C(=O)N=c4nn[nH][nH]4)n3)c2)c1

>  <score_type>  (64) 
oracle

>  <origin>  (64) 
adg

>  <m_score__min__energy>  (64) 
-9.9100000000000001

>  <m_primary>  (64) 
energy

$$$$
64:0
     RDKit          3D

 29 30  0  0  0  0  0  0  0  0999 V2000
   56.9469   33.0828   47.3360 H   0  0  0  0  0  0  0  0  0  0  0  0
   57.3780   33.0890   46.3240 C   0  0  0  0  0  0  0  0  0  0  0  0
   57.0040   32.1440   45.4200 N   0  0  0  0  0  0  0  0  0  0  0  0
   57.5180   32.1160   44.1600 C   0  0  0  0  0  0  0  0  0  0  0  0
   56.9870   30.8480   43.0110 S   0  0  0  0  0  0  0  0  0  0  0  0
   57.6130   29.4410   43.9950 C   0  0  0  0  0  0  0  0  0  0  0  0
   58.4766   29.7730   44.5899 H   0  0  0  0  0  0  0  0  0  0  0  0
   57.9084   28.6343   43.3080 H   0  0  0  0  0  0  0  0  0  0  0  0
   56.5460   28.9190   44.9220 C   0  0  0  0  0  0  0  0  0  0  0  0
   55.4120   29.4640   44.8780 O   0  0  0  0  0  0  0  0  0  0  0  0
   56.7790   27.9310   45.9440 N   0  0  0  0  0  0  0  0  0  0  0  0
   56.6120   26.6410   45.9030 C   0  0  0  0  0  0  0  0  0  0  0  0
   57.6620   25.7890   45.7570 N   0  0  0  0  0  0  0  0  0  0  0  0
   57.4830   24.4420   45.7270 C   0  0  0  0  0  0  0  0  0  0  0  0
   58.6630   23.5380   45.5750 C   0  0  0  0  0  0  0  0  0  0  0  0
   59.0363   23.2520   46.5694 H   0  0  0  0  0  0  0  0  0  0  0  0
   58.3645   22.6353   45.0218 H   0  0  0  0  0  0  0  0  0  0  0  0
   59.4569   24.0612   45.0218 H   0  0  0  0  0  0  0  0  0  0  0  0
   56.1930   23.9150   45.8270 C   0  0  0  0  0  0  0  0  0  0  0  0
   56.0249   22.8282   45.8013 H   0  0  0  0  0  0  0  0  0  0  0  0
   55.1250   24.7990   45.9600 C   0  0  0  0  0  0  0  0  0  0  0  0
   54.0976   24.4134   46.0367 H   0  0  0  0  0  0  0  0  0  0  0  0
   55.3530   26.1380   45.9950 N   0  0  0  0  0  0  0  0  0  0  0  0
   58.4420   33.0910   43.7620 C   0  0  0  0  0  0  0  0  0  0  0  0
   58.8492   33.0874   42.7401 H   0  0  0  0  0  0  0  0  0  0  0  0
   58.8400   34.0670   44.6770 C   0  0  0  0  0  0  0  0  0  0  0  0
   59.5705   34.8345   44.3814 H   0  0  0  0  0  0  0  0  0  0  0  0
   58.3090   34.0670   45.9680 C   0  0  0  0  0  0  0  0  0  0  0  0
   58.6207   34.8294   46.6972 H   0  0  0  0  0  0  0  0  0  0  0  0
  1  2  1  0
  2  3  2  0
  3  4  1  0
  4  5  1  0
  5  6  1  0
  6  7  1  0
  6  8  1  0
  6  9  1  0
  9 10  2  0
  9 11  1  0
 11 12  2  0
 12 13  1  0
 13 14  2  0
 14 15  1  0
 15 16  1  0
 15 17  1  0
 15 18  1  0
 14 19  1  0
 19 20  1  0
 19 21  2  0
 21 22  1  0
 21 23  1  0
  4 24  2  0
 24 25  1  0
 24 26  1  0
 26 27  1  0
 26 28  2  0
 28 29  1  0
 28  2  1  0
 23 12  1  0
M  CHG  1  23  -1
M  END
>  <UniqueID>  (65) 
61

>  <SMILES>  (65) 
Cc1cc[n-]/c(=N/C(=O)CSc2ccccn2)n1

>  <Energy>  (65) 
28.870881168637645

>  <Genealogy>  (65) 
Cc1cc[n-]c(=NC(=O)CSc2ccccn2)n1 (protonated)
Cc1cc[n-]/c(=N/C(=O)CSc2ccccn2)n1 (cis-trans isomerization)
Cc1cc[n-]/c(=N/C(=O)CSc2ccccn2)n1 (3D coordinates assigned)
Cc1cc[n-]/c(=N/C(=O)CSc2ccccn2)n1 (optimized conformer: 28.870881168637645 kcal/mol)

>  <smiles>  (65) 
Cc1cc[nH]c(=NC(=O)CSc2ccccn2)n1

>  <score_type>  (65) 
oracle

>  <origin>  (65) 
adg

>  <m_score__min__energy>  (65) 
-8.6400000000000006

>  <m_primary>  (65) 
energy

$$$$
65:0
     RDKit          3D

 47 49  0  0  0  0  0  0  0  0999 V2000
   57.6053   32.0016   42.3485 H   0  0  0  0  0  0  0  0  0  0  0  0
   57.3340   31.3210   43.1690 C   0  0  0  0  0  0  0  0  0  0  0  0
   56.3060   29.9930   43.0550 S   0  0  0  0  0  0  0  0  0  0  0  0
   56.4760   29.5930   44.6760 C   0  0  0  0  0  0  0  0  0  0  0  0
   55.8490   28.6030   45.2370 N   0  0  0  0  0  0  0  0  0  0  0  0
   56.3920   27.3300   45.6250 C   0  0  0  0  0  0  0  0  0  0  0  0
   55.6620   26.5530   46.2970 O   0  0  0  0  0  0  0  0  0  0  0  0
   57.7950   26.9020   45.2620 C   0  0  0  0  0  0  0  0  0  0  0  0
   57.7490   25.9201   44.7683 H   0  0  0  0  0  0  0  0  0  0  0  0
   58.2187   27.6670   44.5947 H   0  0  0  0  0  0  0  0  0  0  0  0
   58.7070   26.7940   46.4930 C   0  0  0  0  0  0  0  0  0  0  0  0
   58.1246   26.3976   47.3378 H   0  0  0  0  0  0  0  0  0  0  0  0
   59.5431   26.1218   46.2501 H   0  0  0  0  0  0  0  0  0  0  0  0
   59.2700   28.1400   46.8720 C   0  0  0  0  0  0  0  0  0  0  0  0
   58.8830   28.7610   48.0720 C   0  0  0  0  0  0  0  0  0  0  0  0
   58.1625   28.2646   48.7387 H   0  0  0  0  0  0  0  0  0  0  0  0
   59.4110   30.0080   48.4210 C   0  0  0  0  0  0  0  0  0  0  0  0
   59.1142   30.4849   49.3668 H   0  0  0  0  0  0  0  0  0  0  0  0
   60.3150   30.6490   47.5700 C   0  0  0  0  0  0  0  0  0  0  0  0
   60.7255   31.6321   47.8440 H   0  0  0  0  0  0  0  0  0  0  0  0
   60.6980   30.0420   46.3710 C   0  0  0  0  0  0  0  0  0  0  0  0
   61.4076   30.5489   45.7005 H   0  0  0  0  0  0  0  0  0  0  0  0
   60.1800   28.7910   46.0230 C   0  0  0  0  0  0  0  0  0  0  0  0
   60.4865   28.3144   45.0801 H   0  0  0  0  0  0  0  0  0  0  0  0
   57.2910   30.4530   45.3260 N   0  0  0  0  0  0  0  0  0  0  0  0
   57.7810   31.4060   44.4870 C   0  0  0  0  0  0  0  0  0  0  0  0
   58.6680   32.5040   44.9810 C   0  0  0  0  0  0  0  0  0  0  0  0
   58.9655   33.1430   44.1365 H   0  0  0  0  0  0  0  0  0  0  0  0
   59.5653   32.0695   45.4458 H   0  0  0  0  0  0  0  0  0  0  0  0
   57.9270   33.3280   45.9960 C   0  0  0  0  0  0  0  0  0  0  0  0
   56.6710   33.2690   46.0310 O   0  0  0  0  0  0  0  0  0  0  0  0
   58.6170   34.0500   47.0240 N   0  0  0  0  0  0  0  0  0  0  0  0
   59.9940   33.8830   47.3850 C   0  0  0  0  0  0  0  0  0  0  0  0
   61.0000   33.8810   46.4030 C   0  0  0  0  0  0  0  0  0  0  0  0
   60.7278   33.9633   45.3404 H   0  0  0  0  0  0  0  0  0  0  0  0
   62.3430   33.7750   46.7700 C   0  0  0  0  0  0  0  0  0  0  0  0
   63.1244   33.7546   45.9961 H   0  0  0  0  0  0  0  0  0  0  0  0
   62.6940   33.6950   48.1170 C   0  0  0  0  0  0  0  0  0  0  0  0
   63.7526   33.6128   48.4045 H   0  0  0  0  0  0  0  0  0  0  0  0
   61.7040   33.7190   49.1020 C   0  0  0  0  0  0  0  0  0  0  0  0
   61.9873   33.6634   50.1634 H   0  0  0  0  0  0  0  0  0  0  0  0
   60.3450   33.8140   48.7440 C   0  0  0  0  0  0  0  0  0  0  0  0
   59.3210   33.8330   49.7040 O   0  0  0  0  0  0  0  0  0  0  0  0
   58.8720   32.6910   50.4250 C   0  0  0  0  0  0  0  0  0  0  0  0
   58.9486   32.8857   51.5049 H   0  0  0  0  0  0  0  0  0  0  0  0
   57.8243   32.4809   50.1637 H   0  0  0  0  0  0  0  0  0  0  0  0
   59.4961   31.8237   50.1637 H   0  0  0  0  0  0  0  0  0  0  0  0
  1  2  1  0
  2  3  1  0
  3  4  1  0
  4  5  2  0
  5  6  1  0
  6  7  2  0
  6  8  1  0
  8  9  1  0
  8 10  1  0
  8 11  1  0
 11 12  1  0
 11 13  1  0
 11 14  1  0
 14 15  2  0
 15 16  1  0
 15 17  1  0
 17 18  1  0
 17 19  2  0
 19 20  1  0
 19 21  1  0
 21 22  1  0
 21 23  2  0
 23 24  1  0
  4 25  1  0
 25 26  1  0
 26 27  1  0
 27 28  1  0
 27 29  1  0
 27 30  1  0
 30 31  2  0
 30 32  1  0
 32 33  1  0
 33 34  2  0
 34 35  1  0
 34 36  1  0
 36 37  1  0
 36 38  2  0
 38 39  1  0
 38 40  1  0
 40 41  1  0
 40 42  2  0
 42 43  1  0
 43 44  1  0
 44 45  1  0
 44 46  1  0
 44 47  1  0
 26  2  2  0
 42 33  1  0
 23 14  1  0
M  CHG  2  25  -1  32  -1
M  END
>  <UniqueID>  (66) 
62

>  <SMILES>  (66) 
COc1ccccc1[N-]C(=O)Cc1cs/c(=N/C(=O)CCc2ccccc2)[n-]1

>  <Energy>  (66) 
78.17548170735131

>  <Genealogy>  (66) 
COc1ccccc1[N-]C(=O)Cc1csc(=NC(=O)CCc2ccccc2)[n-]1 (protonated)
COc1ccccc1[N-]C(=O)Cc1cs/c(=N/C(=O)CCc2ccccc2)[n-]1 (cis-trans isomerization)
COc1ccccc1[N-]C(=O)Cc1cs/c(=N/C(=O)CCc2ccccc2)[n-]1 (3D coordinates assigned)
COc1ccccc1[N-]C(=O)Cc1cs/c(=N/C(=O)CCc2ccccc2)[n-]1 (optimized conformer: 78.17548170735131 kcal/mol)

>  <smiles>  (66) 
COc1ccccc1NC(=O)Cc1csc(=NC(=O)CCc2ccccc2)[nH]1

>  <score_type>  (66) 
oracle

>  <origin>  (66) 
adg

>  <m_score__min__energy>  (66) 
-13.34

>  <m_primary>  (66) 
energy

$$$$
66:0
     RDKit          3D

100 99  0  0  0  0  0  0  0  0999 V2000
   51.8270   29.9640   49.3760 C   0  0  0  0  0  0  0  0  0  0  0  0
   51.3920   31.1780   50.1920 C   0  0  0  0  0  0  0  0  0  0  0  0
   52.4820   31.5890   51.1900 C   0  0  0  0  0  0  0  0  0  0  0  0
   53.6520   30.5960   51.2330 C   0  0  0  0  0  0  0  0  0  0  0  0
   54.4140   30.6390   52.5680 C   0  0  0  0  0  0  0  0  0  0  0  0
   55.3890   29.4620   52.7400 C   0  0  0  0  0  0  0  0  0  0  0  0
   56.8820   29.8430   52.6780 C   0  0  0  0  0  0  0  0  0  0  0  0
   57.2570   30.8640   51.5870 C   0  0  0  0  0  0  0  0  0  0  0  0
   58.5920   31.6020   51.8030 C   0  0  0  0  0  0  0  0  0  0  0  0
   58.5010   33.1360   51.6490 C   0  0  0  0  0  0  0  0  0  0  0  0
   59.8100   33.7590   51.1430 C   0  0  0  0  0  0  0  0  0  0  0  0
   59.6770   34.2340   49.7210 C   0  0  0  0  0  0  0  0  0  0  0  0
   59.7330   33.4560   48.6280 C   0  0  0  0  0  0  0  0  0  0  0  0
   60.8870   32.6300   48.2000 C   0  0  0  0  0  0  0  0  0  0  0  0
   61.2070   32.5420   46.9860 O   0  0  0  0  0  0  0  0  0  0  0  0
   61.6450   31.8530   49.1920 C   0  0  0  0  0  0  0  0  0  0  0  0
   62.7940   32.2350   49.5440 O   0  0  0  0  0  0  0  0  0  0  0  0
   61.0620   30.6700   49.7620 N   0  0  0  0  0  0  0  0  0  0  0  0
   60.5570   29.4970   49.0420 C   0  0  1  0  0  0  0  0  0  0  0  0
   60.3820   28.2930   49.9930 C   0  0  0  0  0  0  0  0  0  0  0  0
   60.0240   28.6730   51.4420 C   0  0  0  0  0  0  0  0  0  0  0  0
   61.2620   29.0420   52.2750 C   0  0  0  0  0  0  0  0  0  0  0  0
   62.5760   28.8300   51.5060 C   0  0  0  0  0  0  0  0  0  0  0  0
   63.1490   30.1030   51.0710 N   0  0  0  0  0  0  0  0  0  0  0  0
   59.3310   29.8100   48.2170 C   0  0  0  0  0  0  0  0  0  0  0  0
   58.5360   30.7180   48.5890 O   0  0  0  0  0  0  0  0  0  0  0  0
   59.1240   29.1530   46.9620 N   0  0  0  0  0  0  0  0  0  0  0  0
   58.0050   28.2540   46.7050 C   0  0  2  0  0  0  0  0  0  0  0  0
   58.4310   26.7850   46.8800 C   0  0  0  0  0  0  0  0  0  0  0  0
   57.6980   25.8090   45.9480 C   0  0  0  0  0  0  0  0  0  0  0  0
   56.3290   25.3800   46.5030 C   0  0  0  0  0  0  0  0  0  0  0  0
   55.2460   26.2620   46.0700 N   0  0  0  0  0  0  0  0  0  0  0  0
   57.3230   28.5100   45.3720 C   0  0  0  0  0  0  0  0  0  0  0  0
   58.0610   28.6520   44.3610 O   0  0  0  0  0  0  0  0  0  0  0  0
   55.9030   28.6170   45.1780 N   0  0  0  0  0  0  0  0  0  0  0  0
   55.1540   29.5230   44.3090 C   0  0  0  0  0  0  0  0  0  0  0  0
   55.9490   30.8140   44.0990 C   0  0  0  0  0  0  0  0  0  0  0  0
   56.7910   30.7740   42.8160 C   0  0  0  0  0  0  0  0  0  0  0  0
   57.9050   31.8250   42.8590 C   0  0  0  0  0  0  0  0  0  0  0  0
   57.7790   32.6680   44.0450 N   0  0  0  0  0  0  0  0  0  0  0  0
   58.5500   32.6460   45.0960 C   0  0  0  0  0  0  0  0  0  0  0  0
   58.7410   31.4110   45.7870 N   0  0  0  0  0  0  0  0  0  0  0  0
   59.1990   33.8260   45.5900 N   0  0  0  0  0  0  0  0  0  0  0  0
   52.1186   29.1503   50.0563 H   0  0  0  0  0  0  0  0  0  0  0  0
   50.9925   29.6304   48.7417 H   0  0  0  0  0  0  0  0  0  0  0  0
   52.6835   30.2363   48.7417 H   0  0  0  0  0  0  0  0  0  0  0  0
   51.1939   32.0178   49.5097 H   0  0  0  0  0  0  0  0  0  0  0  0
   50.4835   30.9153   50.7539 H   0  0  0  0  0  0  0  0  0  0  0  0
   52.8696   32.5769   50.9005 H   0  0  0  0  0  0  0  0  0  0  0  0
   52.0257   31.6078   52.1907 H   0  0  0  0  0  0  0  0  0  0  0  0
   53.2576   29.5799   51.0848 H   0  0  0  0  0  0  0  0  0  0  0  0
   54.3574   30.8769   50.4371 H   0  0  0  0  0  0  0  0  0  0  0  0
   54.9854   31.5777   52.6157 H   0  0  0  0  0  0  0  0  0  0  0  0
   53.6695   30.5709   53.3749 H   0  0  0  0  0  0  0  0  0  0  0  0
   55.1950   28.9974   53.7180 H   0  0  0  0  0  0  0  0  0  0  0  0
   55.2076   28.7840   51.8930 H   0  0  0  0  0  0  0  0  0  0  0  0
   57.1649   30.2678   53.6524 H   0  0  0  0  0  0  0  0  0  0  0  0
   57.4214   28.9179   52.4266 H   0  0  0  0  0  0  0  0  0  0  0  0
   57.3164   30.3291   50.6277 H   0  0  0  0  0  0  0  0  0  0  0  0
   56.4754   31.6375   51.6144 H   0  0  0  0  0  0  0  0  0  0  0  0
   58.9492   31.3781   52.8190 H   0  0  0  0  0  0  0  0  0  0  0  0
   59.2791   31.2466   51.0210 H   0  0  0  0  0  0  0  0  0  0  0  0
   57.6996   33.3710   50.9331 H   0  0  0  0  0  0  0  0  0  0  0  0
   58.2945   33.5583   52.6435 H   0  0  0  0  0  0  0  0  0  0  0  0
   60.0705   34.6145   51.7835 H   0  0  0  0  0  0  0  0  0  0  0  0
   60.5965   32.9909   51.1798 H   0  0  0  0  0  0  0  0  0  0  0  0
   59.5204   35.3114   49.5636 H   0  0  0  0  0  0  0  0  0  0  0  0
   58.8376   33.4291   47.9897 H   0  0  0  0  0  0  0  0  0  0  0  0
   61.3184   29.1984   48.3064 H   0  0  0  0  0  0  0  0  0  0  0  0
   59.5785   27.6552   49.5961 H   0  0  0  0  0  0  0  0  0  0  0  0
   61.3550   27.7816   50.0340 H   0  0  0  0  0  0  0  0  0  0  0  0
   59.3417   29.5356   51.4225 H   0  0  0  0  0  0  0  0  0  0  0  0
   59.5534   27.7966   51.9116 H   0  0  0  0  0  0  0  0  0  0  0  0
   61.1896   30.1010   52.5638 H   0  0  0  0  0  0  0  0  0  0  0  0
   61.2805   28.3821   53.1549 H   0  0  0  0  0  0  0  0  0  0  0  0
   63.2961   28.3184   52.1615 H   0  0  0  0  0  0  0  0  0  0  0  0
   62.3619   28.2231   50.6139 H   0  0  0  0  0  0  0  0  0  0  0  0
   62.5150   30.8780   51.3730 H   0  0  0  0  0  0  0  0  0  0  0  0
   63.1850   30.1160   50.0250 H   0  0  0  0  0  0  0  0  0  0  0  0
   57.2378   28.4721   47.4625 H   0  0  0  0  0  0  0  0  0  0  0  0
   59.5100   26.7111   46.6794 H   0  0  0  0  0  0  0  0  0  0  0  0
   58.1722   26.4981   47.9099 H   0  0  0  0  0  0  0  0  0  0  0  0
   57.5464   26.2977   44.9742 H   0  0  0  0  0  0  0  0  0  0  0  0
   58.3188   24.9057   45.8550 H   0  0  0  0  0  0  0  0  0  0  0  0
   56.1122   24.3590   46.1558 H   0  0  0  0  0  0  0  0  0  0  0  0
   56.3829   25.4321   47.6004 H   0  0  0  0  0  0  0  0  0  0  0  0
   55.3830   26.5200   45.0670 H   0  0  0  0  0  0  0  0  0  0  0  0
   55.2670   27.1400   46.6390 H   0  0  0  0  0  0  0  0  0  0  0  0
   54.9818   29.0378   43.3369 H   0  0  0  0  0  0  0  0  0  0  0  0
   54.1889   29.7628   44.7792 H   0  0  0  0  0  0  0  0  0  0  0  0
   55.2453   31.6570   44.0348 H   0  0  0  0  0  0  0  0  0  0  0  0
   56.6359   30.9300   44.9503 H   0  0  0  0  0  0  0  0  0  0  0  0
   57.2416   29.7759   42.7121 H   0  0  0  0  0  0  0  0  0  0  0  0
   56.1361   30.9915   41.9594 H   0  0  0  0  0  0  0  0  0  0  0  0
   58.8800   31.3161   42.8805 H   0  0  0  0  0  0  0  0  0  0  0  0
   57.8238   32.4608   41.9650 H   0  0  0  0  0  0  0  0  0  0  0  0
   58.2590   30.5400   45.4650 H   0  0  0  0  0  0  0  0  0  0  0  0
   59.3820   31.3560   46.6070 H   0  0  0  0  0  0  0  0  0  0  0  0
   59.0830   34.7610   45.1420 H   0  0  0  0  0  0  0  0  0  0  0  0
   59.8090   33.7690   46.4330 H   0  0  0  0  0  0  0  0  0  0  0  0
  1  2  1  0
  2  3  1  0
  3  4  1  0
  4  5  1  0
  5  6  1  0
  6  7  1  0
  7  8  1  0
  8  9  1  0
  9 10  1  0
 10 11  1  0
 11 12  1  0
 12 13  2  3
 13 14  1  0
 14 15  2  0
 14 16  1  0
 16 17  2  0
 16 18  1  0
 18 19  1  0
 19 20  1  0
 20 21  1  0
 21 22  1  0
 22 23  1  0
 23 24  1  0
 19 25  1  0
 25 26  2  0
 25 27  1  0
 27 28  1  0
 28 29  1  0
 29 30  1  0
 30 31  1  0
 31 32  1  0
 28 33  1  0
 33 34  2  0
 33 35  1  0
 35 36  1  0
 36 37  1  0
 37 38  1  0
 38 39  1  0
 39 40  1  0
 40 41  2  3
 41 42  1  0
 41 43  1  0
  1 44  1  0
  1 45  1  0
  1 46  1  0
  2 47  1  0
  2 48  1  0
  3 49  1  0
  3 50  1  0
  4 51  1  0
  4 52  1  0
  5 53  1  0
  5 54  1  0
  6 55  1  0
  6 56  1  0
  7 57  1  0
  7 58  1  0
  8 59  1  0
  8 60  1  0
  9 61  1  0
  9 62  1  0
 10 63  1  0
 10 64  1  0
 11 65  1  0
 11 66  1  0
 12 67  1  0
 13 68  1  0
 19 69  1  6
 20 70  1  0
 20 71  1  0
 21 72  1  0
 21 73  1  0
 22 74  1  0
 22 75  1  0
 23 76  1  0
 23 77  1  0
 24 78  1  0
 24 79  1  0
 28 80  1  1
 29 81  1  0
 29 82  1  0
 30 83  1  0
 30 84  1  0
 31 85  1  0
 31 86  1  0
 32 87  1  0
 32 88  1  0
 36 89  1  0
 36 90  1  0
 37 91  1  0
 37 92  1  0
 38 93  1  0
 38 94  1  0
 39 95  1  0
 39 96  1  0
 42 97  1  0
 42 98  1  0
 43 99  1  0
 43100  1  0
M  CHG  3  18  -1  27  -1  35  -1
M  END
>  <UniqueID>  (67) 
63

>  <SMILES>  (67) 
CCCCCCCCCCCC=CC(=O)C(=O)[N-][C@@H](CCCCN)C(=O)[N-][C@H](CCCN)C(=O)[N-]CCCCN=C(N)N

>  <Energy>  (67) 
62.959881271189175

>  <Genealogy>  (67) 
CCCCCCCCCCCC=CC(=O)C(=O)[N-]C(CCCCN)C(=O)[N-]C(CCCN)C(=O)[N-]CCCCN=C(N)N (protonated)
CCCCCCCCCCCC=CC(=O)C(=O)[N-][C@@H](CCCCN)C(=O)[N-][C@H](CCCN)C(=O)[N-]CCCCN=C(N)N (chirality)
CCCCCCCCCCCC=CC(=O)C(=O)[N-][C@@H](CCCCN)C(=O)[N-][C@H](CCCN)C(=O)[N-]CCCCN=C(N)N (3D coordinates assigned)
CCCCCCCCCCCC=CC(=O)C(=O)[N-][C@@H](CCCCN)C(=O)[N-][C@H](CCCN)C(=O)[N-]CCCCN=C(N)N (optimized conformer: 62.959881271189175 kcal/mol)

>  <smiles>  (67) 
CCCCCCCCCCCC=CC(=O)C(=O)NC(CCCCN)C(=O)NC(CCCN)C(=O)NCCCCN=C(N)N

>  <score_type>  (67) 
oracle

>  <origin>  (67) 
adg

>  <m_score__min__energy>  (67) 
-11.609999999999999

>  <m_primary>  (67) 
energy

$$$$
67:0
     RDKit          3D

 43 44  0  0  0  0  0  0  0  0999 V2000
   60.8670   30.8160   47.5200 C   0  0  0  0  0  0  0  0  0  0  0  0
   59.7160   30.9930   48.5030 C   0  0  0  0  0  0  0  0  0  0  0  0
   58.5700   31.5320   47.8470 O   0  0  0  0  0  0  0  0  0  0  0  0
   58.5710   32.5740   46.9020 C   0  0  0  0  0  0  0  0  0  0  0  0
   59.0690   33.8570   47.2120 C   0  0  0  0  0  0  0  0  0  0  0  0
   59.1060   34.8570   46.2390 C   0  0  0  0  0  0  0  0  0  0  0  0
   58.6550   34.5950   44.9470 C   0  0  0  0  0  0  0  0  0  0  0  0
   58.1560   33.3330   44.6240 C   0  0  0  0  0  0  0  0  0  0  0  0
   58.0920   32.3170   45.5960 C   0  0  0  0  0  0  0  0  0  0  0  0
   57.5360   30.9960   45.2230 C   0  0  0  0  0  0  0  0  0  0  0  0
   56.4850   30.9390   44.5280 O   0  0  0  0  0  0  0  0  0  0  0  0
   58.1370   29.7850   45.7100 N   0  0  0  0  0  0  0  0  0  0  0  0
   57.9430   28.4920   45.1150 C   0  0  0  0  0  0  0  0  0  0  0  0
   58.3420   28.2170   43.8050 C   0  0  0  0  0  0  0  0  0  0  0  0
   58.1410   26.9340   43.2930 C   0  0  0  0  0  0  0  0  0  0  0  0
   58.5050   26.6880   42.1100 O   0  0  0  0  0  0  0  0  0  0  0  0
   57.5600   25.9610   44.0660 N   0  0  0  0  0  0  0  0  0  0  0  0
   57.3120   24.6260   43.4970 C   0  0  0  0  0  0  0  0  0  0  0  0
   57.2450   26.2370   45.3750 C   0  0  0  0  0  0  0  0  0  0  0  0
   56.7210   25.2240   46.2490 N   0  0  0  0  0  0  0  0  0  0  0  0
   55.4020   24.6570   45.9740 C   0  0  0  0  0  0  0  0  0  0  0  0
   57.4180   24.8790   47.4880 C   0  0  0  0  0  0  0  0  0  0  0  0
   57.4280   27.4900   45.8700 N   0  0  0  0  0  0  0  0  0  0  0  0
   61.8051   30.6717   48.0760 H   0  0  0  0  0  0  0  0  0  0  0  0
   60.6768   29.9365   46.8872 H   0  0  0  0  0  0  0  0  0  0  0  0
   60.9499   31.7120   46.8872 H   0  0  0  0  0  0  0  0  0  0  0  0
   59.4575   30.0154   48.9359 H   0  0  0  0  0  0  0  0  0  0  0  0
   60.0308   31.6899   49.2937 H   0  0  0  0  0  0  0  0  0  0  0  0
   59.4310   34.0709   48.2285 H   0  0  0  0  0  0  0  0  0  0  0  0
   59.4924   35.8551   46.4930 H   0  0  0  0  0  0  0  0  0  0  0  0
   58.6924   35.3838   44.1812 H   0  0  0  0  0  0  0  0  0  0  0  0
   57.8093   33.1300   43.6000 H   0  0  0  0  0  0  0  0  0  0  0  0
   58.6670   29.8280   46.6100 H   0  0  0  0  0  0  0  0  0  0  0  0
   58.8071   28.9989   43.1867 H   0  0  0  0  0  0  0  0  0  0  0  0
   57.1770   23.8994   44.3118 H   0  0  0  0  0  0  0  0  0  0  0  0
   56.4038   24.6546   42.8770 H   0  0  0  0  0  0  0  0  0  0  0  0
   58.1699   24.3265   42.8770 H   0  0  0  0  0  0  0  0  0  0  0  0
   54.8919   24.4377   46.9236 H   0  0  0  0  0  0  0  0  0  0  0  0
   54.8061   25.3784   45.3957 H   0  0  0  0  0  0  0  0  0  0  0  0
   55.5155   23.7282   45.3957 H   0  0  0  0  0  0  0  0  0  0  0  0
   56.8055   25.1822   48.3499 H   0  0  0  0  0  0  0  0  0  0  0  0
   57.5879   23.7928   47.5229 H   0  0  0  0  0  0  0  0  0  0  0  0
   58.3847   25.4026   47.5229 H   0  0  0  0  0  0  0  0  0  0  0  0
  1  2  1  0
  2  3  1  0
  3  4  1  0
  4  5  2  0
  5  6  1  0
  6  7  2  0
  7  8  1  0
  8  9  2  0
  9 10  1  0
 10 11  2  0
 10 12  1  0
 12 13  1  0
 13 14  2  0
 14 15  1  0
 15 16  2  0
 15 17  1  0
 17 18  1  0
 17 19  1  0
 19 20  1  0
 20 21  1  0
 20 22  1  0
 19 23  2  0
  9  4  1  0
 23 13  1  0
  1 24  1  0
  1 25  1  0
  1 26  1  0
  2 27  1  0
  2 28  1  0
  5 29  1  0
  6 30  1  0
  7 31  1  0
  8 32  1  0
 12 33  1  0
 14 34  1  0
 18 35  1  0
 18 36  1  0
 18 37  1  0
 21 38  1  0
 21 39  1  0
 21 40  1  0
 22 41  1  0
 22 42  1  0
 22 43  1  0
M  END
>  <UniqueID>  (68) 
64

>  <SMILES>  (68) 
CCOc1ccccc1C(=O)Nc1cc(=O)n(C)c(N(C)C)n1

>  <Energy>  (68) 
54.60328996752765

>  <Genealogy>  (68) 
CCOc1ccccc1C(=O)Nc1cc(=O)n(C)c(N(C)C)n1 (3D coordinates assigned)
CCOc1ccccc1C(=O)Nc1cc(=O)n(C)c(N(C)C)n1 (optimized conformer: 54.60328996752765 kcal/mol)

>  <smiles>  (68) 
CCOc1ccccc1C(=O)Nc1cc(=O)n(C)c(N(C)C)n1

>  <score_type>  (68) 
oracle

>  <origin>  (68) 
adg

>  <m_score__min__energy>  (68) 
-6.1900000000000004

>  <m_primary>  (68) 
energy

$$$$
68:0
     RDKit          3D

 41 44  0  0  0  0  0  0  0  0999 V2000
   58.0820   24.7770   47.6520 O   0  0  0  0  0  0  0  0  0  0  0  0
   58.3160   24.9640   46.4280 C   0  0  0  0  0  0  0  0  0  0  0  0
   58.0130   23.8840   45.4610 C   0  0  0  0  0  0  0  0  0  0  0  0
   56.7240   23.7970   44.9060 C   0  0  0  0  0  0  0  0  0  0  0  0
   56.4160   22.7960   43.9820 C   0  0  0  0  0  0  0  0  0  0  0  0
   57.3870   21.8660   43.6070 C   0  0  0  0  0  0  0  0  0  0  0  0
   58.6650   21.9280   44.1650 C   0  0  0  0  0  0  0  0  0  0  0  0
   58.9840   22.9260   45.0990 C   0  0  0  0  0  0  0  0  0  0  0  0
   60.2540   22.9510   45.6740 O   0  0  0  0  0  0  0  0  0  0  0  0
   58.8830   26.2170   46.0060 N   0  0  0  0  0  0  0  0  0  0  0  0
   60.1980   26.5550   45.9810 C   0  0  0  0  0  0  0  0  0  0  0  0
   61.1200   25.7660   46.3180 O   0  0  0  0  0  0  0  0  0  0  0  0
   60.4390   27.8180   45.5500 N   0  0  0  0  0  0  0  0  0  0  0  0
   59.1990   28.2840   45.3070 C   0  0  0  0  0  0  0  0  0  0  0  0
   58.8510   29.5540   44.8590 C   0  0  0  0  0  0  0  0  0  0  0  0
   57.4790   29.8570   44.7030 C   0  0  0  0  0  0  0  0  0  0  0  0
   57.0710   31.2090   44.1740 C   0  0  0  0  0  0  0  0  0  0  0  0
   57.8110   32.3050   44.8990 C   0  0  0  0  0  0  0  0  0  0  0  0
   57.8060   32.3460   46.3040 C   0  0  0  0  0  0  0  0  0  0  0  0
   58.4610   33.3780   46.9820 C   0  0  0  0  0  0  0  0  0  0  0  0
   59.1240   34.3780   46.2670 C   0  0  0  0  0  0  0  0  0  0  0  0
   59.7580   35.3780   46.9280 F   0  0  0  0  0  0  0  0  0  0  0  0
   59.1310   34.3470   44.8700 C   0  0  0  0  0  0  0  0  0  0  0  0
   58.4780   33.3190   44.1850 C   0  0  0  0  0  0  0  0  0  0  0  0
   58.5000   33.3110   42.8280 F   0  0  0  0  0  0  0  0  0  0  0  0
   56.5020   28.8690   45.0150 C   0  0  0  0  0  0  0  0  0  0  0  0
   55.1470   29.1480   44.8790 O   0  0  0  0  0  0  0  0  0  0  0  0
   56.8920   27.5960   45.4690 C   0  0  0  0  0  0  0  0  0  0  0  0
   58.2590   27.3330   45.5850 C   0  0  0  0  0  0  0  0  0  0  0  0
   55.9523   24.5229   45.2018 H   0  0  0  0  0  0  0  0  0  0  0  0
   55.4063   22.7404   43.5490 H   0  0  0  0  0  0  0  0  0  0  0  0
   57.1451   21.0843   42.8718 H   0  0  0  0  0  0  0  0  0  0  0  0
   59.4264   21.1905   43.8711 H   0  0  0  0  0  0  0  0  0  0  0  0
   60.8630   23.7550   45.5850 H   0  0  0  0  0  0  0  0  0  0  0  0
   59.6236   30.3034   44.6319 H   0  0  0  0  0  0  0  0  0  0  0  0
   57.3046   31.2633   43.1005 H   0  0  0  0  0  0  0  0  0  0  0  0
   55.9910   31.3426   44.3342 H   0  0  0  0  0  0  0  0  0  0  0  0
   57.2841   31.5622   46.8726 H   0  0  0  0  0  0  0  0  0  0  0  0
   58.4543   33.4027   48.0817 H   0  0  0  0  0  0  0  0  0  0  0  0
   59.6527   35.1351   44.3072 H   0  0  0  0  0  0  0  0  0  0  0  0
   56.1437   26.8314   45.7247 H   0  0  0  0  0  0  0  0  0  0  0  0
  1  2  2  0
  2  3  1  0
  3  4  2  0
  4  5  1  0
  5  6  2  0
  6  7  1  0
  7  8  2  0
  8  9  1  0
  2 10  1  0
 10 11  1  0
 11 12  2  0
 11 13  1  0
 13 14  1  0
 14 15  2  0
 15 16  1  0
 16 17  1  0
 17 18  1  0
 18 19  2  0
 19 20  1  0
 20 21  2  0
 21 22  1  0
 21 23  1  0
 23 24  2  0
 24 25  1  0
 16 26  2  0
 26 27  1  0
 26 28  1  0
 28 29  2  0
  8  3  1  0
 29 10  1  0
 29 14  1  0
 24 18  1  0
  4 30  1  0
  5 31  1  0
  6 32  1  0
  7 33  1  0
  9 34  1  0
 15 35  1  0
 17 36  1  0
 17 37  1  0
 19 38  1  0
 20 39  1  0
 23 40  1  0
 28 41  1  0
M  CHG  2  13  -1  27  -1
M  END
>  <UniqueID>  (69) 
65

>  <SMILES>  (69) 
O=C(c1ccccc1O)n1c(=O)[n-]c2cc(Cc3ccc(F)cc3F)c([O-])cc21

>  <Energy>  (69) 
91.71512223570865

>  <Genealogy>  (69) 
O=C(c1ccccc1O)n1c(=O)[n-]c2cc(Cc3ccc(F)cc3F)c([O-])cc21 (protonated)
O=C(c1ccccc1O)n1c(=O)[n-]c2cc(Cc3ccc(F)cc3F)c([O-])cc21 (3D coordinates assigned)
O=C(c1ccccc1O)n1c(=O)[n-]c2cc(Cc3ccc(F)cc3F)c([O-])cc21 (optimized conformer: 91.71512223570865 kcal/mol)

>  <smiles>  (69) 
O=C(c1ccccc1O)n1c(=O)[nH]c2cc(Cc3ccc(F)cc3F)c(O)cc21

>  <score_type>  (69) 
oracle

>  <origin>  (69) 
adg

>  <m_score__min__energy>  (69) 
-13.710000000000001

>  <m_primary>  (69) 
energy

$$$$
69:0
     RDKit          3D

 44 46  0  0  0  0  0  0  0  0999 V2000
   57.9835   23.9186   45.6579 H   0  0  0  0  0  0  0  0  0  0  0  0
   57.3290   24.7050   45.2540 C   0  0  0  0  0  0  0  0  0  0  0  0
   57.9140   25.8080   44.7460 C   0  0  0  0  0  0  0  0  0  0  0  0
   57.8320   26.1030   43.3320 C   0  0  0  0  0  0  0  0  0  0  0  0
   57.7710   26.3360   42.1990 N   0  0  0  0  0  0  0  0  0  0  0  0
   58.6030   26.7760   45.6380 C   0  0  0  0  0  0  0  0  0  0  0  0
   59.7670   26.5260   46.0570 O   0  0  0  0  0  0  0  0  0  0  0  0
   57.9450   27.9880   46.0530 N   0  0  0  0  0  0  0  0  0  0  0  0
   56.9000   28.0120   46.0580 H   0  0  0  0  0  0  0  0  0  0  0  0
   58.6400   29.1230   46.5990 C   0  0  0  0  0  0  0  0  0  0  0  0
   59.1500   29.0580   47.9040 C   0  0  0  0  0  0  0  0  0  0  0  0
   59.0230   28.1392   48.4954 H   0  0  0  0  0  0  0  0  0  0  0  0
   59.8190   30.1540   48.4580 C   0  0  0  0  0  0  0  0  0  0  0  0
   60.2286   30.0864   49.4766 H   0  0  0  0  0  0  0  0  0  0  0  0
   59.9710   31.3390   47.7230 C   0  0  0  0  0  0  0  0  0  0  0  0
   60.6590   32.4630   48.2990 N   0  0  0  0  0  0  0  0  0  0  0  0
   60.0980   33.1530   49.4650 C   0  0  0  0  0  0  0  0  0  0  0  0
   59.3810   33.9164   49.1286 H   0  0  0  0  0  0  0  0  0  0  0  0
   59.5846   32.4237   50.1088 H   0  0  0  0  0  0  0  0  0  0  0  0
   61.2260   33.8260   50.2570 C   0  0  0  0  0  0  0  0  0  0  0  0
   60.7870   34.4504   51.0491 H   0  0  0  0  0  0  0  0  0  0  0  0
   61.8640   33.0435   50.6937 H   0  0  0  0  0  0  0  0  0  0  0  0
   62.0210   34.6390   49.4130 O   0  0  0  0  0  0  0  0  0  0  0  0
   62.6860   33.8330   48.4580 C   0  0  0  0  0  0  0  0  0  0  0  0
   63.3692   34.4618   47.8682 H   0  0  0  0  0  0  0  0  0  0  0  0
   63.2483   33.0496   48.9874 H   0  0  0  0  0  0  0  0  0  0  0  0
   61.6800   33.1650   47.5170 C   0  0  0  0  0  0  0  0  0  0  0  0
   61.1985   33.9323   46.8930 H   0  0  0  0  0  0  0  0  0  0  0  0
   62.2067   32.4427   46.8760 H   0  0  0  0  0  0  0  0  0  0  0  0
   59.4310   31.4170   46.4270 C   0  0  0  0  0  0  0  0  0  0  0  0
   59.5286   32.3473   45.8483 H   0  0  0  0  0  0  0  0  0  0  0  0
   58.7710   30.3180   45.8710 C   0  0  0  0  0  0  0  0  0  0  0  0
   58.3512   30.3886   44.8567 H   0  0  0  0  0  0  0  0  0  0  0  0
   55.8720   24.4790   45.3060 C   0  0  0  0  0  0  0  0  0  0  0  0
   55.1210   23.0500   44.8300 S   0  0  0  0  0  0  0  0  0  0  0  0
   53.5710   23.6600   45.1150 C   0  0  0  0  0  0  0  0  0  0  0  0
   52.4580   23.0100   44.9550 N   0  0  0  0  0  0  0  0  0  0  0  0
   51.1800   23.6390   44.6490 C   0  0  0  0  0  0  0  0  0  0  0  0
   50.6629   23.8935   45.5859 H   0  0  0  0  0  0  0  0  0  0  0  0
   51.3527   24.5550   44.0650 H   0  0  0  0  0  0  0  0  0  0  0  0
   50.5595   22.9434   44.0650 H   0  0  0  0  0  0  0  0  0  0  0  0
   53.6010   24.9410   45.5380 N   0  0  0  0  0  0  0  0  0  0  0  0
   54.8760   25.4030   45.6320 C   0  0  0  0  0  0  0  0  0  0  0  0
   55.1430   26.7200   45.9870 O   0  0  0  0  0  0  0  0  0  0  0  0
  1  2  1  0
  2  3  2  0
  3  4  1  0
  4  5  3  0
  3  6  1  0
  6  7  2  0
  6  8  1  0
  8  9  1  0
  8 10  1  0
 10 11  2  0
 11 12  1  0
 11 13  1  0
 13 14  1  0
 13 15  2  0
 15 16  1  0
 16 17  1  0
 17 18  1  0
 17 19  1  0
 17 20  1  0
 20 21  1  0
 20 22  1  0
 20 23  1  0
 23 24  1  0
 24 25  1  0
 24 26  1  0
 24 27  1  0
 27 28  1  0
 27 29  1  0
 15 30  1  0
 30 31  1  0
 30 32  2  0
 32 33  1  0
  2 34  1  0
 34 35  1  0
 35 36  1  0
 36 37  2  0
 37 38  1  0
 38 39  1  0
 38 40  1  0
 38 41  1  0
 36 42  1  0
 42 43  1  0
 43 44  1  0
 32 10  1  0
 43 34  2  0
 27 16  1  0
M  CHG  2  42  -1  44  -1
M  END
>  <UniqueID>  (70) 
66

>  <SMILES>  (70) 
C/N=c1/[n-]c([O-])c(/C=C(\C#N)C(=O)Nc2ccc(N3CCOCC3)cc2)s1

>  <Energy>  (70) 
90.16307976042508

>  <Genealogy>  (70) 
CN=c1[n-]c([O-])c(C=C(C#N)C(=O)Nc2ccc(N3CCOCC3)cc2)s1 (protonated)
C/N=c1/[n-]c([O-])c(/C=C(\C#N)C(=O)Nc2ccc(N3CCOCC3)cc2)s1 (cis-trans isomerization)
C/N=c1/[n-]c([O-])c(/C=C(\C#N)C(=O)Nc2ccc(N3CCOCC3)cc2)s1 (3D coordinates assigned)
C/N=c1/[n-]c([O-])c(/C=C(\C#N)C(=O)Nc2ccc(N3CCOCC3)cc2)s1 (nonaromatic ring conformer: 90.16307976042508 kcal/mol)

>  <smiles>  (70) 
CN=c1[nH]c(O)c(C=C(C#N)C(=O)Nc2ccc(N3CCOCC3)cc2)s1

>  <score_type>  (70) 
oracle

>  <origin>  (70) 
adg

>  <m_score__min__energy>  (70) 
-13.41

>  <m_primary>  (70) 
energy

$$$$
70:0
     RDKit          3D

 41 42  0  0  0  0  0  0  0  0999 V2000
   59.6250   35.3310   45.8160 C   0  0  0  0  0  0  0  0  0  0  0  0
   59.3660   34.5800   47.4580 S   0  0  0  0  0  0  0  0  0  0  0  0
   59.4380   32.8490   46.8840 C   0  0  0  0  0  0  0  0  0  0  0  0
   58.4020   32.6020   45.8390 C   0  0  0  0  0  0  0  0  0  0  0  0
   57.0810   32.7610   46.0460 N   0  0  0  0  0  0  0  0  0  0  0  0
   56.5260   32.4030   44.9300 O   0  0  0  0  0  0  0  0  0  0  0  0
   57.4500   32.0380   44.0750 C   0  0  0  0  0  0  0  0  0  0  0  0
   57.1690   31.5300   42.6990 C   0  0  0  0  0  0  0  0  0  0  0  0
   56.5280   30.2230   42.7700 N   0  0  0  0  0  0  0  0  0  0  0  0
   56.2300   29.5490   43.9970 C   0  0  0  0  0  0  0  0  0  0  0  0
   55.1500   29.7810   44.6030 O   0  0  0  0  0  0  0  0  0  0  0  0
   57.1500   28.6040   44.5480 N   0  0  0  0  0  0  0  0  0  0  0  0
   57.1840   28.2380   45.9600 C   0  0  0  0  0  0  0  0  0  0  0  0
   57.1890   26.7390   46.1180 C   0  0  0  0  0  0  0  0  0  0  0  0
   58.4040   26.0380   46.1300 C   0  0  0  0  0  0  0  0  0  0  0  0
   58.4150   24.6500   46.2780 C   0  0  0  0  0  0  0  0  0  0  0  0
   57.2160   23.9470   46.4150 C   0  0  0  0  0  0  0  0  0  0  0  0
   55.9880   24.6330   46.4120 C   0  0  0  0  0  0  0  0  0  0  0  0
   54.7340   23.9490   46.5510 N   0  0  0  0  0  0  0  0  0  0  0  0
   53.7630   23.3250   45.2550 S   0  0  0  0  0  0  0  0  0  0  0  0
   52.4540   24.4670   44.8660 C   0  0  0  0  0  0  0  0  0  0  0  0
   54.6320   23.1530   44.0410 O   0  0  0  0  0  0  0  0  0  0  0  0
   53.1950   21.9870   45.6350 O   0  0  0  0  0  0  0  0  0  0  0  0
   55.9810   26.0300   46.2670 C   0  0  0  0  0  0  0  0  0  0  0  0
   54.7670   26.7130   46.2660 O   0  0  0  0  0  0  0  0  0  0  0  0
   58.6840   32.1390   44.6040 N   0  0  0  0  0  0  0  0  0  0  0  0
   59.9814   36.3645   45.9376 H   0  0  0  0  0  0  0  0  0  0  0  0
   60.3739   34.7479   45.2601 H   0  0  0  0  0  0  0  0  0  0  0  0
   58.6758   35.3335   45.2601 H   0  0  0  0  0  0  0  0  0  0  0  0
   60.4336   32.6488   46.4613 H   0  0  0  0  0  0  0  0  0  0  0  0
   59.2480   32.1825   47.7382 H   0  0  0  0  0  0  0  0  0  0  0  0
   56.5026   32.2346   42.1799 H   0  0  0  0  0  0  0  0  0  0  0  0
   58.1168   31.4373   42.1484 H   0  0  0  0  0  0  0  0  0  0  0  0
   58.0930   28.6533   46.4196 H   0  0  0  0  0  0  0  0  0  0  0  0
   56.2891   28.6443   46.4540 H   0  0  0  0  0  0  0  0  0  0  0  0
   59.3525   26.5846   46.0223 H   0  0  0  0  0  0  0  0  0  0  0  0
   59.3720   24.1077   46.2868 H   0  0  0  0  0  0  0  0  0  0  0  0
   57.2320   22.8527   46.5257 H   0  0  0  0  0  0  0  0  0  0  0  0
   52.0136   24.8512   45.7979 H   0  0  0  0  0  0  0  0  0  0  0  0
   52.8602   25.3045   44.2799 H   0  0  0  0  0  0  0  0  0  0  0  0
   51.6793   23.9509   44.2799 H   0  0  0  0  0  0  0  0  0  0  0  0
  1  2  1  0
  2  3  1  0
  3  4  1  0
  4  5  2  0
  5  6  1  0
  6  7  1  0
  7  8  1  0
  8  9  1  0
  9 10  1  0
 10 11  2  0
 10 12  1  0
 12 13  1  0
 13 14  1  0
 14 15  2  0
 15 16  1  0
 16 17  2  0
 17 18  1  0
 18 19  1  0
 19 20  1  0
 20 21  1  0
 20 22  2  0
 20 23  2  0
 18 24  2  0
 24 25  1  0
  7 26  2  0
 26  4  1  0
 24 14  1  0
  1 27  1  0
  1 28  1  0
  1 29  1  0
  3 30  1  0
  3 31  1  0
  8 32  1  0
  8 33  1  0
 13 34  1  0
 13 35  1  0
 15 36  1  0
 16 37  1  0
 17 38  1  0
 21 39  1  0
 21 40  1  0
 21 41  1  0
M  CHG  4   9  -1  12  -1  19  -1  25  -1
M  END
>  <UniqueID>  (71) 
67

>  <SMILES>  (71) 
CSCc1noc(C[N-]C(=O)[N-]Cc2cccc([N-]S(C)(=O)=O)c2[O-])n1

>  <Energy>  (71) 
62.923781274003474

>  <Genealogy>  (71) 
CSCc1noc(C[N-]C(=O)[N-]Cc2cccc([N-]S(C)(=O)=O)c2[O-])n1 (protonated)
CSCc1noc(C[N-]C(=O)[N-]Cc2cccc([N-]S(C)(=O)=O)c2[O-])n1 (3D coordinates assigned)
CSCc1noc(C[N-]C(=O)[N-]Cc2cccc([N-]S(C)(=O)=O)c2[O-])n1 (optimized conformer: 62.923781274003474 kcal/mol)

>  <smiles>  (71) 
CSCc1noc(CNC(=O)NCc2cccc(NS(C)(=O)=O)c2O)n1

>  <score_type>  (71) 
oracle

>  <origin>  (71) 
adg

>  <m_score__min__energy>  (71) 
-17.260000000000002

>  <m_primary>  (71) 
energy

$$$$
71:0
     RDKit          3D

 38 40  0  0  0  0  0  0  0  0999 V2000
   57.9194   25.5358   46.1562 H   0  0  0  0  0  0  0  0  0  0  0  0
   58.0970   26.6190   46.0840 C   0  0  0  0  0  0  0  0  0  0  0  0
   58.3000   27.4950   44.6600 S   0  0  0  0  0  0  0  0  0  0  0  0
   58.5130   28.9620   45.4670 C   0  0  0  0  0  0  0  0  0  0  0  0
   58.7020   30.1290   44.9210 N   0  0  0  0  0  0  0  0  0  0  0  0
   57.9030   31.3100   45.1050 C   0  0  0  0  0  0  0  0  0  0  0  0
   56.6670   31.2400   44.8720 O   0  0  0  0  0  0  0  0  0  0  0  0
   58.4680   32.5880   45.6010 C   0  0  0  0  0  0  0  0  0  0  0  0
   58.3200   33.7320   44.7970 C   0  0  0  0  0  0  0  0  0  0  0  0
   57.7424   33.6701   43.8629 H   0  0  0  0  0  0  0  0  0  0  0  0
   58.8980   34.9440   45.1720 C   0  0  0  0  0  0  0  0  0  0  0  0
   58.7773   35.8306   44.5322 H   0  0  0  0  0  0  0  0  0  0  0  0
   59.6280   35.0350   46.3550 C   0  0  0  0  0  0  0  0  0  0  0  0
   60.0950   35.9893   46.6398 H   0  0  0  0  0  0  0  0  0  0  0  0
   59.7680   33.9170   47.1800 C   0  0  0  0  0  0  0  0  0  0  0  0
   60.3454   33.9975   48.1128 H   0  0  0  0  0  0  0  0  0  0  0  0
   59.1780   32.6890   46.8300 C   0  0  0  0  0  0  0  0  0  0  0  0
   59.2930   31.5590   47.7790 C   0  0  0  0  0  0  0  0  0  0  0  0
   58.4540   31.4230   48.7100 O   0  0  0  0  0  0  0  0  0  0  0  0
   60.3730   30.6280   47.6460 N   0  0  0  0  0  0  0  0  0  0  0  0
   61.6090   30.9210   46.9300 C   0  0  0  0  0  0  0  0  0  0  0  0
   62.1389   29.9798   46.7215 H   0  0  0  0  0  0  0  0  0  0  0  0
   61.3628   31.4330   45.9881 H   0  0  0  0  0  0  0  0  0  0  0  0
   62.4950   31.8170   47.7560 C   0  0  0  0  0  0  0  0  0  0  0  0
   62.9180   31.3910   49.0270 C   0  0  0  0  0  0  0  0  0  0  0  0
   62.5886   30.4157   49.4147 H   0  0  0  0  0  0  0  0  0  0  0  0
   63.7550   32.2000   49.8010 C   0  0  0  0  0  0  0  0  0  0  0  0
   64.0800   31.8615   50.7959 H   0  0  0  0  0  0  0  0  0  0  0  0
   64.1790   33.4380   49.3120 C   0  0  0  0  0  0  0  0  0  0  0  0
   64.8369   34.0740   49.9225 H   0  0  0  0  0  0  0  0  0  0  0  0
   63.7680   33.8690   48.0480 C   0  0  0  0  0  0  0  0  0  0  0  0
   64.1041   34.8438   47.6649 H   0  0  0  0  0  0  0  0  0  0  0  0
   62.9300   33.0640   47.2680 C   0  0  0  0  0  0  0  0  0  0  0  0
   62.5480   33.5030   46.0420 F   0  0  0  0  0  0  0  0  0  0  0  0
   58.4170   28.7980   46.8030 N   0  0  0  0  0  0  0  0  0  0  0  0
   58.5070   29.5750   47.4960 H   0  0  0  0  0  0  0  0  0  0  0  0
   58.1930   27.5040   47.1530 C   0  0  0  0  0  0  0  0  0  0  0  0
   58.0952   27.1816   48.2001 H   0  0  0  0  0  0  0  0  0  0  0  0
  1  2  1  0
  2  3  1  0
  3  4  1  0
  4  5  2  0
  5  6  1  0
  6  7  2  0
  6  8  1  0
  8  9  2  0
  9 10  1  0
  9 11  1  0
 11 12  1  0
 11 13  2  0
 13 14  1  0
 13 15  1  0
 15 16  1  0
 15 17  2  0
 17 18  1  0
 18 19  2  0
 18 20  1  0
 20 21  1  0
 21 22  1  0
 21 23  1  0
 21 24  1  0
 24 25  2  0
 25 26  1  0
 25 27  1  0
 27 28  1  0
 27 29  2  0
 29 30  1  0
 29 31  1  0
 31 32  1  0
 31 33  2  0
 33 34  1  0
  4 35  1  0
 35 36  1  0
 35 37  1  0
 37 38  1  0
 37  2  2  0
 17  8  1  0
 33 24  1  0
M  CHG  1  20  -1
M  END
>  <UniqueID>  (72) 
68

>  <SMILES>  (72) 
O=C(/N=c1/[nH]ccs1)c1ccccc1C(=O)[N-]Cc1ccccc1F

>  <Energy>  (72) 
82.69693460153503

>  <Genealogy>  (72) 
O=C(N=c1[nH]ccs1)c1ccccc1C(=O)[N-]Cc1ccccc1F (protonated)
O=C(/N=c1/[nH]ccs1)c1ccccc1C(=O)[N-]Cc1ccccc1F (cis-trans isomerization)
O=C(/N=c1/[nH]ccs1)c1ccccc1C(=O)[N-]Cc1ccccc1F (3D coordinates assigned)
O=C(/N=c1/[nH]ccs1)c1ccccc1C(=O)[N-]Cc1ccccc1F (optimized conformer: 82.69693460153503 kcal/mol)

>  <smiles>  (72) 
O=C(N=c1[nH]ccs1)c1ccccc1C(=O)NCc1ccccc1F

>  <score_type>  (72) 
oracle

>  <origin>  (72) 
adg

>  <m_score__min__energy>  (72) 
-9.1699999999999999

>  <m_primary>  (72) 
energy

$$$$
72:0
     RDKit          3D

 58 61  0  0  0  0  0  0  0  0999 V2000
   51.1820   24.4930   44.2430 C   0  0  0  0  0  0  0  0  0  0  0  0
   52.0720   23.5200   44.9490 C   0  0  0  0  0  0  0  0  0  0  0  0
   51.8030   22.2020   45.0590 N   0  0  0  0  0  0  0  0  0  0  0  0
   52.8010   21.6640   45.7050 O   0  0  0  0  0  0  0  0  0  0  0  0
   53.6960   22.5720   46.0180 C   0  0  0  0  0  0  0  0  0  0  0  0
   54.8100   22.3350   46.6370 N   0  0  0  0  0  0  0  0  0  0  0  0
   56.3320   22.2030   45.8160 S   0  0  0  0  0  0  0  0  0  0  0  0
   57.3300   21.5620   46.7400 O   0  0  0  0  0  0  0  0  0  0  0  0
   56.1880   21.3320   44.5980 O   0  0  0  0  0  0  0  0  0  0  0  0
   56.8870   23.8080   45.3530 C   0  0  0  0  0  0  0  0  0  0  0  0
   57.2940   24.0710   44.0380 C   0  0  0  0  0  0  0  0  0  0  0  0
   57.7680   25.3390   43.6880 C   0  0  0  0  0  0  0  0  0  0  0  0
   57.8490   26.3460   44.6530 C   0  0  0  0  0  0  0  0  0  0  0  0
   57.4820   26.0860   45.9810 C   0  0  0  0  0  0  0  0  0  0  0  0
   57.6100   27.1290   46.9550 N   0  0  0  0  0  0  0  0  0  0  0  0
   58.2690   28.3860   46.7390 C   0  0  0  0  0  0  0  0  0  0  0  0
   59.3020   28.6750   47.4020 O   0  0  0  0  0  0  0  0  0  0  0  0
   57.7600   29.3300   45.7170 C   0  0  0  0  0  0  0  0  0  0  0  0
   56.5960   29.0350   44.9860 C   0  0  0  0  0  0  0  0  0  0  0  0
   56.1020   29.9440   44.0480 C   0  0  0  0  0  0  0  0  0  0  0  0
   56.7600   31.1570   43.8320 C   0  0  0  0  0  0  0  0  0  0  0  0
   57.9200   31.4710   44.5470 C   0  0  0  0  0  0  0  0  0  0  0  0
   58.5480   32.7390   44.3120 N   0  0  0  0  0  0  0  0  0  0  0  0
   58.5030   34.0970   45.3930 S   0  0  0  0  0  0  0  0  0  0  0  0
   58.8220   35.3470   44.6220 O   0  0  0  0  0  0  0  0  0  0  0  0
   57.1250   34.2170   45.9670 O   0  0  0  0  0  0  0  0  0  0  0  0
   59.6530   33.8760   46.7060 C   0  0  0  0  0  0  0  0  0  0  0  0
   59.2200   33.9160   48.0390 C   0  0  0  0  0  0  0  0  0  0  0  0
   60.1370   33.7550   49.0800 C   0  0  0  0  0  0  0  0  0  0  0  0
   61.4920   33.5620   48.8010 C   0  0  0  0  0  0  0  0  0  0  0  0
   61.9460   33.5370   47.4700 C   0  0  0  0  0  0  0  0  0  0  0  0
   63.3980   33.2960   47.1440 C   0  0  0  0  0  0  0  0  0  0  0  0
   63.6310   31.9390   47.0060 F   0  0  0  0  0  0  0  0  0  0  0  0
   63.7630   33.9250   45.9650 F   0  0  0  0  0  0  0  0  0  0  0  0
   64.1820   33.7840   48.1730 F   0  0  0  0  0  0  0  0  0  0  0  0
   61.0120   33.6720   46.4270 C   0  0  0  0  0  0  0  0  0  0  0  0
   58.4250   30.5490   45.4840 C   0  0  0  0  0  0  0  0  0  0  0  0
   56.9640   24.8220   46.3180 C   0  0  0  0  0  0  0  0  0  0  0  0
   53.2720   23.8040   45.5760 C   0  0  0  0  0  0  0  0  0  0  0  0
   54.0050   25.1080   45.6170 C   0  0  0  0  0  0  0  0  0  0  0  0
   50.6334   25.0927   44.9842 H   0  0  0  0  0  0  0  0  0  0  0  0
   51.7917   25.1571   43.6128 H   0  0  0  0  0  0  0  0  0  0  0  0
   50.4663   23.9447   43.6128 H   0  0  0  0  0  0  0  0  0  0  0  0
   57.2404   23.2771   43.2785 H   0  0  0  0  0  0  0  0  0  0  0  0
   58.0773   25.5438   42.6524 H   0  0  0  0  0  0  0  0  0  0  0  0
   58.2026   27.3483   44.3694 H   0  0  0  0  0  0  0  0  0  0  0  0
   56.0714   28.0828   45.1538 H   0  0  0  0  0  0  0  0  0  0  0  0
   55.1924   29.7041   43.4778 H   0  0  0  0  0  0  0  0  0  0  0  0
   56.3630   31.8701   43.0945 H   0  0  0  0  0  0  0  0  0  0  0  0
   58.1553   34.0746   48.2654 H   0  0  0  0  0  0  0  0  0  0  0  0
   59.7908   33.7803   50.1238 H   0  0  0  0  0  0  0  0  0  0  0  0
   62.2073   33.4290   49.6260 H   0  0  0  0  0  0  0  0  0  0  0  0
   61.3510   33.6170   45.3820 H   0  0  0  0  0  0  0  0  0  0  0  0
   59.3460   30.7829   46.0381 H   0  0  0  0  0  0  0  0  0  0  0  0
   56.6177   24.6284   47.3439 H   0  0  0  0  0  0  0  0  0  0  0  0
   54.1707   25.4027   46.6637 H   0  0  0  0  0  0  0  0  0  0  0  0
   54.9745   24.9998   45.1087 H   0  0  0  0  0  0  0  0  0  0  0  0
   53.4086   25.8800   45.1087 H   0  0  0  0  0  0  0  0  0  0  0  0
  1  2  1  0
  2  3  1  0
  3  4  1  0
  4  5  1  0
  5  6  2  3
  6  7  1  0
  7  8  2  0
  7  9  2  0
  7 10  1  0
 10 11  2  0
 11 12  1  0
 12 13  2  0
 13 14  1  0
 14 15  1  0
 15 16  1  0
 16 17  2  0
 16 18  1  0
 18 19  2  0
 19 20  1  0
 20 21  2  0
 21 22  1  0
 22 23  1  0
 23 24  1  0
 24 25  2  0
 24 26  2  0
 24 27  1  0
 27 28  2  0
 28 29  1  0
 29 30  2  0
 30 31  1  0
 31 32  1  0
 32 33  1  0
 32 34  1  0
 32 35  1  0
 31 36  2  0
 22 37  2  0
 14 38  2  0
  5 39  1  0
 39 40  1  0
 39  2  2  0
 38 10  1  0
 37 18  1  0
 36 27  1  0
  1 41  1  0
  1 42  1  0
  1 43  1  0
 11 44  1  0
 12 45  1  0
 13 46  1  0
 19 47  1  0
 20 48  1  0
 21 49  1  0
 28 50  1  0
 29 51  1  0
 30 52  1  0
 36 53  1  0
 37 54  1  0
 38 55  1  0
 40 56  1  0
 40 57  1  0
 40 58  1  0
M  CHG  3   3  -1  15  -1  23  -1
M  END
>  <UniqueID>  (73) 
69

>  <SMILES>  (73) 
Cc1[n-]oc(=NS(=O)(=O)c2cccc([N-]C(=O)c3cccc([N-]S(=O)(=O)c4cccc(C(F)(F)F)c4)c3)c2)c1C

>  <Energy>  (73) 
100.24433561990338

>  <Genealogy>  (73) 
Cc1[n-]oc(=NS(=O)(=O)c2cccc([N-]C(=O)c3cccc([N-]S(=O)(=O)c4cccc(C(F)(F)F)c4)c3)c2)c1C (protonated)
Cc1[n-]oc(=NS(=O)(=O)c2cccc([N-]C(=O)c3cccc([N-]S(=O)(=O)c4cccc(C(F)(F)F)c4)c3)c2)c1C (3D coordinates assigned)
Cc1[n-]oc(=NS(=O)(=O)c2cccc([N-]C(=O)c3cccc([N-]S(=O)(=O)c4cccc(C(F)(F)F)c4)c3)c2)c1C (optimized conformer: 100.24433561990338 kcal/mol)

>  <smiles>  (73) 
Cc1[nH]oc(=NS(=O)(=O)c2cccc(NC(=O)c3cccc(NS(=O)(=O)c4cccc(C(F)(F)F)c4)c3)c2)c1C

>  <score_type>  (73) 
oracle

>  <origin>  (73) 
adg

>  <m_score__min__energy>  (73) 
-15.91

>  <m_primary>  (73) 
energy

$$$$
73:0
     RDKit          3D

 71 75  0  0  0  0  0  0  0  0999 V2000
   56.0300   29.6890   43.1490 C   0  0  0  0  0  0  0  0  0  0  0  0
   55.9880   29.4270   44.5500 O   0  0  0  0  0  0  0  0  0  0  0  0
   57.1180   29.2300   45.3600 C   0  0  0  0  0  0  0  0  0  0  0  0
   57.3550   27.9990   46.0040 C   0  0  0  0  0  0  0  0  0  0  0  0
   58.4860   27.8150   46.8150 C   0  0  0  0  0  0  0  0  0  0  0  0
   58.6990   26.4730   47.4660 C   0  0  0  0  0  0  0  0  0  0  0  0
   59.3780   28.8950   47.0160 C   0  0  0  0  0  0  0  0  0  0  0  0
   60.5310   28.7840   47.8620 N   0  0  0  0  0  0  0  0  0  0  0  0
   60.6500   29.4260   49.1380 C   0  0  0  0  0  0  0  0  0  0  0  0
   61.7900   29.6220   49.6530 O   0  0  0  0  0  0  0  0  0  0  0  0
   59.4140   29.8110   49.8870 C   0  0  0  0  0  0  0  0  0  0  0  0
   58.8480   31.4610   49.3530 S   0  0  0  0  0  0  0  0  0  0  0  0
   60.3600   32.2870   49.8640 C   0  0  0  0  0  0  0  0  0  0  0  0
   60.5460   32.6290   51.1670 N   0  0  0  0  0  0  0  0  0  0  0  0
   61.6890   33.2570   51.5800 C   0  0  0  0  0  0  0  0  0  0  0  0
   61.8100   33.5670   52.7970 O   0  0  0  0  0  0  0  0  0  0  0  0
   62.6910   33.5510   50.6800 N   0  0  0  0  0  0  0  0  0  0  0  0
   63.9300   34.2310   51.1100 C   0  0  0  0  0  0  0  0  0  0  0  0
   65.1120   33.2950   51.0700 C   0  0  0  0  0  0  0  0  0  0  0  0
   66.4120   33.7890   50.8680 C   0  0  0  0  0  0  0  0  0  0  0  0
   67.4910   32.9070   50.7760 C   0  0  0  0  0  0  0  0  0  0  0  0
   67.2600   31.5370   50.8680 C   0  0  0  0  0  0  0  0  0  0  0  0
   65.9960   31.0700   51.0600 N   0  0  0  0  0  0  0  0  0  0  0  0
   64.9290   31.9060   51.1590 C   0  0  0  0  0  0  0  0  0  0  0  0
   62.5110   33.1910   49.3700 C   0  0  0  0  0  0  0  0  0  0  0  0
   61.3660   32.5750   48.9470 C   0  0  0  0  0  0  0  0  0  0  0  0
   61.3720   32.3180   47.4890 C   0  0  0  0  0  0  0  0  0  0  0  0
   62.7870   32.7300   47.0440 C   0  0  0  0  0  0  0  0  0  0  0  0
   63.4580   33.4200   48.2440 C   0  0  0  0  0  0  0  0  0  0  0  0
   59.1660   30.0990   46.3420 C   0  0  0  0  0  0  0  0  0  0  0  0
   58.0390   30.2870   45.5320 C   0  0  0  0  0  0  0  0  0  0  0  0
   57.7570   31.8940   44.8300 S   0  0  0  0  0  0  0  0  0  0  0  0
   58.0710   31.8320   43.3580 O   0  0  0  0  0  0  0  0  0  0  0  0
   56.3100   32.2800   44.9680 O   0  0  0  0  0  0  0  0  0  0  0  0
   58.7310   33.1220   45.6090 N   0  0  0  0  0  0  0  0  0  0  0  0
   58.6930   34.3910   44.8630 C   0  0  0  0  0  0  0  0  0  0  0  0
   59.6360   35.4190   45.5270 C   0  0  0  0  0  0  0  0  0  0  0  0
   60.0340   35.0310   46.8320 O   0  0  0  0  0  0  0  0  0  0  0  0
   58.9030   34.6290   47.5830 C   0  0  0  0  0  0  0  0  0  0  0  0
   58.3030   33.3290   47.0060 C   0  0  0  0  0  0  0  0  0  0  0  0
   56.2021   30.7625   42.9817 H   0  0  0  0  0  0  0  0  0  0  0  0
   56.8470   29.1111   42.6922 H   0  0  0  0  0  0  0  0  0  0  0  0
   55.0733   29.3955   42.6922 H   0  0  0  0  0  0  0  0  0  0  0  0
   56.6438   27.1707   45.8693 H   0  0  0  0  0  0  0  0  0  0  0  0
   58.6806   26.5890   48.5597 H   0  0  0  0  0  0  0  0  0  0  0  0
   57.8989   25.7843   47.1568 H   0  0  0  0  0  0  0  0  0  0  0  0
   59.6730   26.0659   47.1568 H   0  0  0  0  0  0  0  0  0  0  0  0
   58.6231   29.0728   49.6883 H   0  0  0  0  0  0  0  0  0  0  0  0
   59.6382   29.8376   50.9636 H   0  0  0  0  0  0  0  0  0  0  0  0
   59.8010   32.4110   51.8660 H   0  0  0  0  0  0  0  0  0  0  0  0
   64.1234   35.0810   50.4391 H   0  0  0  0  0  0  0  0  0  0  0  0
   63.7951   34.5752   52.1460 H   0  0  0  0  0  0  0  0  0  0  0  0
   66.5801   34.8727   50.7822 H   0  0  0  0  0  0  0  0  0  0  0  0
   68.5120   33.2904   50.6325 H   0  0  0  0  0  0  0  0  0  0  0  0
   68.0998   30.8314   50.7854 H   0  0  0  0  0  0  0  0  0  0  0  0
   63.9204   31.4936   51.3091 H   0  0  0  0  0  0  0  0  0  0  0  0
   61.1904   31.2536   47.2788 H   0  0  0  0  0  0  0  0  0  0  0  0
   60.5833   32.8715   46.9583 H   0  0  0  0  0  0  0  0  0  0  0  0
   63.3635   31.8406   46.7498 H   0  0  0  0  0  0  0  0  0  0  0  0
   62.7425   33.4075   46.1786 H   0  0  0  0  0  0  0  0  0  0  0  0
   64.4368   32.9661   48.4584 H   0  0  0  0  0  0  0  0  0  0  0  0
   63.6499   34.4881   48.0640 H   0  0  0  0  0  0  0  0  0  0  0  0
   59.8968   30.9142   46.4489 H   0  0  0  0  0  0  0  0  0  0  0  0
   59.0170   34.2148   43.8267 H   0  0  0  0  0  0  0  0  0  0  0  0
   57.6658   34.7845   44.8693 H   0  0  0  0  0  0  0  0  0  0  0  0
   60.5348   35.5275   44.9022 H   0  0  0  0  0  0  0  0  0  0  0  0
   59.0859   36.3675   45.6147 H   0  0  0  0  0  0  0  0  0  0  0  0
   59.2046   34.4561   48.6266 H   0  0  0  0  0  0  0  0  0  0  0  0
   58.1434   35.4231   47.5336 H   0  0  0  0  0  0  0  0  0  0  0  0
   58.6390   32.4768   47.6149 H   0  0  0  0  0  0  0  0  0  0  0  0
   57.2062   33.4102   47.0275 H   0  0  0  0  0  0  0  0  0  0  0  0
  1  2  1  0
  2  3  1  0
  3  4  2  0
  4  5  1  0
  5  6  1  0
  5  7  2  0
  7  8  1  0
  8  9  1  0
  9 10  2  0
  9 11  1  0
 11 12  1  0
 12 13  1  0
 13 14  2  0
 14 15  1  0
 15 16  2  0
 15 17  1  0
 17 18  1  0
 18 19  1  0
 19 20  2  0
 20 21  1  0
 21 22  2  0
 22 23  1  0
 23 24  2  0
 17 25  1  0
 25 26  2  0
 26 27  1  0
 27 28  1  0
 28 29  1  0
  7 30  1  0
 30 31  2  0
 31 32  1  0
 32 33  2  0
 32 34  2  0
 32 35  1  0
 35 36  1  0
 36 37  1  0
 37 38  1  0
 38 39  1  0
 39 40  1  0
 31  3  1  0
 40 35  1  0
 26 13  1  0
 24 19  1  0
 29 25  1  0
  1 41  1  0
  1 42  1  0
  1 43  1  0
  4 44  1  0
  6 45  1  0
  6 46  1  0
  6 47  1  0
 11 48  1  0
 11 49  1  0
 14 50  1  0
 18 51  1  0
 18 52  1  0
 20 53  1  0
 21 54  1  0
 22 55  1  0
 24 56  1  0
 27 57  1  0
 27 58  1  0
 28 59  1  0
 28 60  1  0
 29 61  1  0
 29 62  1  0
 30 63  1  0
 36 64  1  0
 36 65  1  0
 37 66  1  0
 37 67  1  0
 39 68  1  0
 39 69  1  0
 40 70  1  0
 40 71  1  0
M  CHG  2   8  -1  14   1
M  END
>  <UniqueID>  (74) 
70

>  <SMILES>  (74) 
COc1cc(C)c([N-]C(=O)CSc2[nH+]c(=O)n(Cc3cccnc3)c3c2CCC3)cc1S(=O)(=O)N1CCOCC1

>  <Energy>  (74) 
97.97713498490037

>  <Genealogy>  (74) 
COc1cc(C)c([N-]C(=O)CSc2[nH+]c(=O)n(Cc3cccnc3)c3c2CCC3)cc1S(=O)(=O)N1CCOCC1 (protonated)
COc1cc(C)c([N-]C(=O)CSc2[nH+]c(=O)n(Cc3cccnc3)c3c2CCC3)cc1S(=O)(=O)N1CCOCC1 (3D coordinates assigned)
COc1cc(C)c([N-]C(=O)CSc2[nH+]c(=O)n(Cc3cccnc3)c3c2CCC3)cc1S(=O)(=O)N1CCOCC1 (nonaromatic ring conformer: 97.97713498490037 kcal/mol)

>  <smiles>  (74) 
COc1cc(C)c(NC(=O)CSc2nc(=O)n(Cc3cccnc3)c3c2CCC3)cc1S(=O)(=O)N1CCOCC1

>  <score_type>  (74) 
oracle

>  <origin>  (74) 
adg

>  <m_score__min__energy>  (74) 
-12.01

>  <m_primary>  (74) 
energy

$$$$
74:0
     RDKit          3D

 44 47  0  0  0  0  0  0  0  0999 V2000
   60.2280   34.7670   48.6490 O   0  0  0  0  0  0  0  0  0  0  0  0
   59.8010   33.7450   48.0440 C   0  0  0  0  0  0  0  0  0  0  0  0
   59.2900   33.7460   46.6940 C   0  0  0  0  0  0  0  0  0  0  0  0
   59.1750   34.8120   45.7960 C   0  0  0  0  0  0  0  0  0  0  0  0
   59.6490   36.0780   46.1310 O   0  0  0  0  0  0  0  0  0  0  0  0
   58.5650   34.5730   44.5520 C   0  0  0  0  0  0  0  0  0  0  0  0
   58.0660   33.2940   44.2420 C   0  0  0  0  0  0  0  0  0  0  0  0
   58.1860   32.2440   45.1660 C   0  0  0  0  0  0  0  0  0  0  0  0
   58.8310   32.4870   46.3840 C   0  0  0  0  0  0  0  0  0  0  0  0
   59.0340   31.5150   47.5140 C   0  0  1  0  0  0  0  0  0  0  0  0
   59.7550   30.2040   47.0840 C   0  0  0  0  0  0  0  0  0  0  0  0
   58.8800   29.0280   46.6920 C   0  0  0  0  0  0  0  0  0  0  0  0
   59.3420   27.7050   46.7650 C   0  0  0  0  0  0  0  0  0  0  0  0
   58.5220   26.6420   46.3810 C   0  0  0  0  0  0  0  0  0  0  0  0
   57.2280   26.8730   45.8820 C   0  0  0  0  0  0  0  0  0  0  0  0
   56.3980   25.7540   45.5050 N   0  0  0  0  0  0  0  0  0  0  0  0
   56.7890   24.9110   44.6710 O   0  0  0  0  0  0  0  0  0  0  0  0
   55.1420   25.6050   46.0480 O   0  0  0  0  0  0  0  0  0  0  0  0
   56.7810   28.2070   45.7540 C   0  0  0  0  0  0  0  0  0  0  0  0
   55.5220   28.4990   45.2440 O   0  0  0  0  0  0  0  0  0  0  0  0
   57.6080   29.2660   46.1440 C   0  0  0  0  0  0  0  0  0  0  0  0
   59.6680   32.3840   48.6610 C   0  0  1  0  0  0  0  0  0  0  0  0
   60.9560   31.8650   49.2820 C   0  0  0  0  0  0  0  0  0  0  0  0
   60.9660   30.8950   50.3100 C   0  0  0  0  0  0  0  0  0  0  0  0
   62.1750   30.4360   50.8390 C   0  0  0  0  0  0  0  0  0  0  0  0
   63.3870   30.9450   50.3640 C   0  0  0  0  0  0  0  0  0  0  0  0
   64.5870   30.4930   50.8990 O   0  0  0  0  0  0  0  0  0  0  0  0
   63.3900   31.9100   49.3550 C   0  0  0  0  0  0  0  0  0  0  0  0
   62.1840   32.3680   48.8160 C   0  0  0  0  0  0  0  0  0  0  0  0
   59.8500   36.3300   47.0920 H   0  0  0  0  0  0  0  0  0  0  0  0
   58.4775   35.3882   43.8187 H   0  0  0  0  0  0  0  0  0  0  0  0
   57.5798   33.1164   43.2714 H   0  0  0  0  0  0  0  0  0  0  0  0
   57.7802   31.2477   44.9367 H   0  0  0  0  0  0  0  0  0  0  0  0
   58.1056   31.0623   47.8923 H   0  0  0  0  0  0  0  0  0  0  0  0
   60.3922   30.4448   46.2203 H   0  0  0  0  0  0  0  0  0  0  0  0
   60.2942   29.8692   47.9824 H   0  0  0  0  0  0  0  0  0  0  0  0
   60.3604   27.5033   47.1284 H   0  0  0  0  0  0  0  0  0  0  0  0
   58.8933   25.6104   46.4701 H   0  0  0  0  0  0  0  0  0  0  0  0
   57.2571   30.3011   46.0197 H   0  0  0  0  0  0  0  0  0  0  0  0
   59.0215   32.3677   49.5508 H   0  0  0  0  0  0  0  0  0  0  0  0
   60.0153   30.4987   50.6963 H   0  0  0  0  0  0  0  0  0  0  0  0
   62.1730   29.6725   51.6309 H   0  0  0  0  0  0  0  0  0  0  0  0
   64.3442   32.3112   48.9829 H   0  0  0  0  0  0  0  0  0  0  0  0
   62.1957   33.1280   48.0209 H   0  0  0  0  0  0  0  0  0  0  0  0
  1  2  2  0
  2  3  1  0
  3  4  2  0
  4  5  1  0
  4  6  1  0
  6  7  2  0
  7  8  1  0
  8  9  2  0
  9 10  1  0
 10 11  1  0
 11 12  1  0
 12 13  2  0
 13 14  1  0
 14 15  2  0
 15 16  1  0
 16 17  2  0
 16 18  1  0
 15 19  1  0
 19 20  1  0
 19 21  2  0
 10 22  1  0
 22 23  1  0
 23 24  2  0
 24 25  1  0
 25 26  2  0
 26 27  1  0
 26 28  1  0
 28 29  2  0
 22  2  1  0
 29 23  1  0
  9  3  1  0
 21 12  1  0
  5 30  1  0
  6 31  1  0
  7 32  1  0
  8 33  1  0
 10 34  1  1
 11 35  1  0
 11 36  1  0
 13 37  1  0
 14 38  1  0
 21 39  1  0
 22 40  1  1
 24 41  1  0
 25 42  1  0
 28 43  1  0
 29 44  1  0
M  CHG  4  16   1  18  -1  20  -1  27  -1
M  END
>  <UniqueID>  (75) 
71

>  <SMILES>  (75) 
O=C1c2c(O)cccc2[C@@H](Cc2ccc([N+](=O)[O-])c([O-])c2)[C@H]1c1ccc([O-])cc1

>  <Energy>  (75) 
71.47245127745181

>  <Genealogy>  (75) 
O=C1c2c(O)cccc2C(Cc2ccc([N+](=O)[O-])c([O-])c2)C1c1ccc([O-])cc1 (protonated)
O=C1c2c(O)cccc2[C@@H](Cc2ccc([N+](=O)[O-])c([O-])c2)[C@H]1c1ccc([O-])cc1 (chirality)
O=C1c2c(O)cccc2[C@@H](Cc2ccc([N+](=O)[O-])c([O-])c2)[C@H]1c1ccc([O-])cc1 (3D coordinates assigned)
O=C1c2c(O)cccc2[C@@H](Cc2ccc([N+](=O)[O-])c([O-])c2)[C@H]1c1ccc([O-])cc1 (nonaromatic ring conformer: 71.47245127745181 kcal/mol)

>  <smiles>  (75) 
O=C1c2c(O)cccc2C(Cc2ccc([N+](=O)[O-])c(O)c2)C1c1ccc(O)cc1

>  <score_type>  (75) 
oracle

>  <origin>  (75) 
adg

>  <m_score__min__energy>  (75) 
-12.24

>  <m_primary>  (75) 
energy

$$$$
75:0
     RDKit          3D

 50 52  0  0  0  0  0  0  0  0999 V2000
   52.9570   23.7180   44.9130 C   0  0  0  0  0  0  0  0  0  0  0  0
   53.2990   22.4310   45.4170 O   0  0  0  0  0  0  0  0  0  0  0  0
   54.0410   22.2030   46.5880 C   0  0  0  0  0  0  0  0  0  0  0  0
   53.6560   22.7620   47.8240 C   0  0  0  0  0  0  0  0  0  0  0  0
   54.4020   22.5120   48.9780 C   0  0  0  0  0  0  0  0  0  0  0  0
   55.5350   21.7010   48.9180 C   0  0  0  0  0  0  0  0  0  0  0  0
   55.9300   21.1430   47.7010 C   0  0  0  0  0  0  0  0  0  0  0  0
   55.2000   21.3960   46.5280 C   0  0  0  0  0  0  0  0  0  0  0  0
   55.6820   20.7980   45.2250 C   0  0  0  0  0  0  0  0  0  0  0  0
   56.6120   21.7040   44.5530 N   0  0  0  0  0  0  0  0  0  0  0  0
   56.2300   22.8260   43.7470 C   0  0  0  0  0  0  0  0  0  0  0  0
   55.5450   22.6290   42.7100 O   0  0  0  0  0  0  0  0  0  0  0  0
   56.6490   24.1990   44.0800 C   0  0  0  0  0  0  0  0  0  0  0  0
   57.3960   24.9550   43.1670 C   0  0  0  0  0  0  0  0  0  0  0  0
   57.7710   26.2650   43.4790 C   0  0  0  0  0  0  0  0  0  0  0  0
   57.3880   26.8420   44.6980 C   0  0  0  0  0  0  0  0  0  0  0  0
   57.7730   28.1940   44.9900 N   0  0  0  0  0  0  0  0  0  0  0  0
   56.8450   29.2790   45.1350 C   0  0  0  0  0  0  0  0  0  0  0  0
   55.6340   29.1330   44.8090 O   0  0  0  0  0  0  0  0  0  0  0  0
   57.3130   30.5430   45.6110 N   0  0  0  0  0  0  0  0  0  0  0  0
   57.2740   31.7680   44.8210 C   0  0  0  0  0  0  0  0  0  0  0  0
   58.0410   32.8620   45.5140 C   0  0  0  0  0  0  0  0  0  0  0  0
   58.5790   33.9340   44.7820 C   0  0  0  0  0  0  0  0  0  0  0  0
   59.2670   34.9580   45.4390 C   0  0  0  0  0  0  0  0  0  0  0  0
   59.4200   34.9230   46.8270 C   0  0  0  0  0  0  0  0  0  0  0  0
   58.8830   33.8630   47.5620 C   0  0  0  0  0  0  0  0  0  0  0  0
   58.1930   32.8360   46.9100 C   0  0  0  0  0  0  0  0  0  0  0  0
   56.6730   26.0670   45.6290 C   0  0  0  0  0  0  0  0  0  0  0  0
   56.3100   24.7520   45.3210 C   0  0  0  0  0  0  0  0  0  0  0  0
   52.7747   24.4042   45.7532 H   0  0  0  0  0  0  0  0  0  0  0  0
   53.7841   24.1027   44.2982 H   0  0  0  0  0  0  0  0  0  0  0  0
   52.0480   23.6414   44.2982 H   0  0  0  0  0  0  0  0  0  0  0  0
   52.7615   23.3997   47.8797 H   0  0  0  0  0  0  0  0  0  0  0  0
   54.0951   22.9559   49.9366 H   0  0  0  0  0  0  0  0  0  0  0  0
   56.1173   21.5011   49.8296 H   0  0  0  0  0  0  0  0  0  0  0  0
   56.8211   20.4993   47.6602 H   0  0  0  0  0  0  0  0  0  0  0  0
   56.1918   19.8454   45.4317 H   0  0  0  0  0  0  0  0  0  0  0  0
   54.8142   20.6323   44.5697 H   0  0  0  0  0  0  0  0  0  0  0  0
   57.6883   24.5163   42.2016 H   0  0  0  0  0  0  0  0  0  0  0  0
   58.3705   26.8469   42.7634 H   0  0  0  0  0  0  0  0  0  0  0  0
   58.7910   28.4280   45.0060 H   0  0  0  0  0  0  0  0  0  0  0  0
   57.7235   31.5783   43.8351 H   0  0  0  0  0  0  0  0  0  0  0  0
   56.2271   32.0845   44.7036 H   0  0  0  0  0  0  0  0  0  0  0  0
   58.4584   33.9674   43.6891 H   0  0  0  0  0  0  0  0  0  0  0  0
   59.6891   35.7937   44.8615 H   0  0  0  0  0  0  0  0  0  0  0  0
   59.9631   35.7297   47.3412 H   0  0  0  0  0  0  0  0  0  0  0  0
   59.0031   33.8362   48.6551 H   0  0  0  0  0  0  0  0  0  0  0  0
   57.7680   32.0052   47.4924 H   0  0  0  0  0  0  0  0  0  0  0  0
   56.3982   26.4971   46.6034 H   0  0  0  0  0  0  0  0  0  0  0  0
   55.7561   24.1499   46.0563 H   0  0  0  0  0  0  0  0  0  0  0  0
  1  2  1  0
  2  3  1  0
  3  4  2  0
  4  5  1  0
  5  6  2  0
  6  7  1  0
  7  8  2  0
  8  9  1  0
  9 10  1  0
 10 11  1  0
 11 12  2  0
 11 13  1  0
 13 14  2  0
 14 15  1  0
 15 16  2  0
 16 17  1  0
 17 18  1  0
 18 19  2  0
 18 20  1  0
 20 21  1  0
 21 22  1  0
 22 23  2  0
 23 24  1  0
 24 25  2  0
 25 26  1  0
 26 27  2  0
 16 28  1  0
 28 29  2  0
  8  3  1  0
 29 13  1  0
 27 22  1  0
  1 30  1  0
  1 31  1  0
  1 32  1  0
  4 33  1  0
  5 34  1  0
  6 35  1  0
  7 36  1  0
  9 37  1  0
  9 38  1  0
 14 39  1  0
 15 40  1  0
 17 41  1  0
 21 42  1  0
 21 43  1  0
 23 44  1  0
 24 45  1  0
 25 46  1  0
 26 47  1  0
 27 48  1  0
 28 49  1  0
 29 50  1  0
M  CHG  2  10  -1  20  -1
M  END
>  <UniqueID>  (76) 
72

>  <SMILES>  (76) 
COc1ccccc1C[N-]C(=O)c1ccc(NC(=O)[N-]Cc2ccccc2)cc1

>  <Energy>  (76) 
53.729169408412446

>  <Genealogy>  (76) 
COc1ccccc1C[N-]C(=O)c1ccc(NC(=O)[N-]Cc2ccccc2)cc1 (protonated)
COc1ccccc1C[N-]C(=O)c1ccc(NC(=O)[N-]Cc2ccccc2)cc1 (3D coordinates assigned)
COc1ccccc1C[N-]C(=O)c1ccc(NC(=O)[N-]Cc2ccccc2)cc1 (optimized conformer: 53.729169408412446 kcal/mol)

>  <smiles>  (76) 
COc1ccccc1CNC(=O)c1ccc(NC(=O)NCc2ccccc2)cc1

>  <score_type>  (76) 
oracle

>  <origin>  (76) 
adg

>  <m_score__min__energy>  (76) 
-11.359999999999999

>  <m_primary>  (76) 
energy

$$$$
76:0
     RDKit          3D

 24 25  0  0  0  0  0  0  0  0999 V2000
   53.2388   25.0282   45.6504 H   0  0  0  0  0  0  0  0  0  0  0  0
   54.3190   24.8470   45.5490 C   0  0  0  0  0  0  0  0  0  0  0  0
   55.1980   25.5370   46.3180 N   0  0  0  0  0  0  0  0  0  0  0  0
   56.5470   25.3600   46.2480 C   0  0  0  0  0  0  0  0  0  0  0  0
   57.2770   26.1310   47.0100 N   0  0  0  0  0  0  0  0  0  0  0  0
   57.9900   27.3310   46.6920 C   0  0  0  0  0  0  0  0  0  0  0  0
   59.2060   27.4430   47.0040 O   0  0  0  0  0  0  0  0  0  0  0  0
   57.3280   28.3810   45.8980 C   0  0  0  0  0  0  0  0  0  0  0  0
   57.7570   29.6810   45.6860 C   0  0  0  0  0  0  0  0  0  0  0  0
   59.2160   30.4300   46.3090 Cl  0  0  0  0  0  0  0  0  0  0  0  0
   56.8650   30.3330   44.9130 N   0  0  0  0  0  0  0  0  0  0  0  0
   55.9160   29.4050   44.6770 C   0  0  0  0  0  0  0  0  0  0  0  0
   54.8930   29.6330   43.9800 O   0  0  0  0  0  0  0  0  0  0  0  0
   56.1590   28.2150   45.2570 N   0  0  0  0  0  0  0  0  0  0  0  0
   55.5650   27.3570   45.2150 H   0  0  0  0  0  0  0  0  0  0  0  0
   57.0600   24.3460   45.3790 C   0  0  0  0  0  0  0  0  0  0  0  0
   58.4960   23.8880   45.3460 C   0  0  0  0  0  0  0  0  0  0  0  0
   58.8669   23.7697   46.3748 H   0  0  0  0  0  0  0  0  0  0  0  0
   58.5615   22.9244   44.8196 H   0  0  0  0  0  0  0  0  0  0  0  0
   59.1073   24.6357   44.8196 H   0  0  0  0  0  0  0  0  0  0  0  0
   56.1510   23.6610   44.5510 C   0  0  0  0  0  0  0  0  0  0  0  0
   56.5253   22.9191   43.8303 H   0  0  0  0  0  0  0  0  0  0  0  0
   54.7840   23.9110   44.6330 C   0  0  0  0  0  0  0  0  0  0  0  0
   54.0800   23.3739   43.9803 H   0  0  0  0  0  0  0  0  0  0  0  0
  1  2  1  0
  2  3  1  0
  3  4  1  0
  4  5  2  0
  5  6  1  0
  6  7  2  0
  6  8  1  0
  8  9  2  0
  9 10  1  0
  9 11  1  0
 11 12  1  0
 12 13  2  0
 12 14  1  0
 14 15  1  0
  4 16  1  0
 16 17  1  0
 17 18  1  0
 17 19  1  0
 17 20  1  0
 16 21  2  0
 21 22  1  0
 21 23  1  0
 23 24  1  0
 23  2  2  0
 14  8  1  0
M  CHG  2   3  -1  11  -1
M  END
>  <UniqueID>  (77) 
73

>  <SMILES>  (77) 
Cc1ccc[n-]/c1=N/C(=O)c1[nH]c(=O)[n-]c1Cl

>  <Energy>  (77) 
71.6938885325458

>  <Genealogy>  (77) 
Cc1ccc[n-]c1=NC(=O)c1[nH]c(=O)[n-]c1Cl (protonated)
Cc1ccc[n-]/c1=N/C(=O)c1[nH]c(=O)[n-]c1Cl (cis-trans isomerization)
Cc1ccc[n-]/c1=N/C(=O)c1[nH]c(=O)[n-]c1Cl (3D coordinates assigned)
Cc1ccc[n-]/c1=N/C(=O)c1[nH]c(=O)[n-]c1Cl (optimized conformer: 71.6938885325458 kcal/mol)

>  <smiles>  (77) 
Cc1ccc[nH]c1=NC(=O)c1[nH]c(=O)[nH]c1Cl

>  <score_type>  (77) 
oracle

>  <origin>  (77) 
adg

>  <m_score__min__energy>  (77) 
-10.31

>  <m_primary>  (77) 
energy

$$$$
77:0
     RDKit          3D

 55 58  0  0  0  0  0  0  0  0999 V2000
   58.8760   28.6580   46.6250 O   0  0  0  0  0  0  0  0  0  0  0  0
   57.9470   27.8950   46.2440 C   0  0  0  0  0  0  0  0  0  0  0  0
   57.6180   26.6780   47.0540 C   0  0  0  0  0  0  0  0  0  0  0  0
   56.9580   25.6860   46.2060 N   0  0  0  0  0  0  0  0  0  0  0  0
   55.6750   25.6770   45.8110 C   0  0  0  0  0  0  0  0  0  0  0  0
   54.7740   26.7130   46.0240 O   0  0  0  0  0  0  0  0  0  0  0  0
   55.3990   24.4720   45.2050 C   0  0  0  0  0  0  0  0  0  0  0  0
   54.0490   23.9900   44.7730 C   0  0  0  0  0  0  0  0  0  0  0  0
   53.3670   23.2990   45.9220 C   0  0  0  0  0  0  0  0  0  0  0  0
   51.9760   23.0950   45.9060 C   0  0  0  0  0  0  0  0  0  0  0  0
   51.3380   22.4970   46.9960 C   0  0  0  0  0  0  0  0  0  0  0  0
   52.0810   22.1050   48.1130 C   0  0  0  0  0  0  0  0  0  0  0  0
   53.4610   22.3180   48.1440 C   0  0  0  0  0  0  0  0  0  0  0  0
   54.1040   22.9170   47.0570 C   0  0  0  0  0  0  0  0  0  0  0  0
   56.5020   23.6940   45.2350 N   0  0  0  0  0  0  0  0  0  0  0  0
   57.4230   24.4710   45.8480 C   0  0  0  0  0  0  0  0  0  0  0  0
   58.5940   24.0770   46.0900 O   0  0  0  0  0  0  0  0  0  0  0  0
   57.1520   28.2260   45.0950 N   0  0  0  0  0  0  0  0  0  0  0  0
   57.2380   29.4780   44.4000 C   0  0  0  0  0  0  0  0  0  0  0  0
   56.8990   29.5840   43.0400 C   0  0  0  0  0  0  0  0  0  0  0  0
   56.9740   30.8210   42.3930 C   0  0  0  0  0  0  0  0  0  0  0  0
   57.3750   31.9600   43.0960 C   0  0  0  0  0  0  0  0  0  0  0  0
   57.7000   31.8680   44.4560 C   0  0  0  0  0  0  0  0  0  0  0  0
   58.2050   33.2910   45.3640 S   0  0  0  0  0  0  0  0  0  0  0  0
   57.0340   34.2110   45.5710 O   0  0  0  0  0  0  0  0  0  0  0  0
   59.2460   34.0130   44.5560 O   0  0  0  0  0  0  0  0  0  0  0  0
   58.8830   32.8160   46.9060 N   0  0  0  0  0  0  0  0  0  0  0  0
   58.9000   33.9330   47.8680 C   0  0  0  0  0  0  0  0  0  0  0  0
   60.0120   34.9620   47.5550 C   0  0  0  0  0  0  0  0  0  0  0  0
   61.0180   34.4670   46.6900 O   0  0  0  0  0  0  0  0  0  0  0  0
   61.3710   33.1540   47.0550 C   0  0  0  0  0  0  0  0  0  0  0  0
   60.2140   32.1860   46.7540 C   0  0  0  0  0  0  0  0  0  0  0  0
   57.6220   30.6280   45.1040 C   0  0  0  0  0  0  0  0  0  0  0  0
   58.5446   26.2501   47.4642 H   0  0  0  0  0  0  0  0  0  0  0  0
   56.9452   26.9591   47.8776 H   0  0  0  0  0  0  0  0  0  0  0  0
   53.4409   24.8474   44.4487 H   0  0  0  0  0  0  0  0  0  0  0  0
   54.1641   23.2827   43.9384 H   0  0  0  0  0  0  0  0  0  0  0  0
   51.3870   23.4077   45.0312 H   0  0  0  0  0  0  0  0  0  0  0  0
   50.2502   22.3347   46.9749 H   0  0  0  0  0  0  0  0  0  0  0  0
   51.5788   21.6286   48.9679 H   0  0  0  0  0  0  0  0  0  0  0  0
   54.0434   22.0136   49.0261 H   0  0  0  0  0  0  0  0  0  0  0  0
   55.1898   23.0901   47.0895 H   0  0  0  0  0  0  0  0  0  0  0  0
   56.3420   27.6060   44.8690 H   0  0  0  0  0  0  0  0  0  0  0  0
   56.5742   28.6922   42.4839 H   0  0  0  0  0  0  0  0  0  0  0  0
   56.7163   30.8979   41.3264 H   0  0  0  0  0  0  0  0  0  0  0  0
   57.4357   32.9302   42.5812 H   0  0  0  0  0  0  0  0  0  0  0  0
   57.9262   34.4435   47.8342 H   0  0  0  0  0  0  0  0  0  0  0  0
   59.1005   33.5145   48.8653 H   0  0  0  0  0  0  0  0  0  0  0  0
   59.5490   35.8408   47.0823 H   0  0  0  0  0  0  0  0  0  0  0  0
   60.5007   35.2077   48.5093 H   0  0  0  0  0  0  0  0  0  0  0  0
   62.2597   32.8455   46.4848 H   0  0  0  0  0  0  0  0  0  0  0  0
   61.5870   33.1286   48.1333 H   0  0  0  0  0  0  0  0  0  0  0  0
   60.3166   31.8270   45.7193 H   0  0  0  0  0  0  0  0  0  0  0  0
   60.2747   31.3622   47.4804 H   0  0  0  0  0  0  0  0  0  0  0  0
   57.8642   30.5563   46.1746 H   0  0  0  0  0  0  0  0  0  0  0  0
  1  2  2  0
  2  3  1  0
  3  4  1  0
  4  5  1  0
  5  6  1  0
  5  7  2  0
  7  8  1  0
  8  9  1  0
  9 10  2  0
 10 11  1  0
 11 12  2  0
 12 13  1  0
 13 14  2  0
  7 15  1  0
 15 16  1  0
 16 17  2  0
  2 18  1  0
 18 19  1  0
 19 20  2  0
 20 21  1  0
 21 22  2  0
 22 23  1  0
 23 24  1  0
 24 25  2  0
 24 26  2  0
 24 27  1  0
 27 28  1  0
 28 29  1  0
 29 30  1  0
 30 31  1  0
 31 32  1  0
 23 33  2  0
 16  4  1  0
 33 19  1  0
 14  9  1  0
 32 27  1  0
  3 34  1  0
  3 35  1  0
  8 36  1  0
  8 37  1  0
 10 38  1  0
 11 39  1  0
 12 40  1  0
 13 41  1  0
 14 42  1  0
 18 43  1  0
 20 44  1  0
 21 45  1  0
 22 46  1  0
 28 47  1  0
 28 48  1  0
 29 49  1  0
 29 50  1  0
 31 51  1  0
 31 52  1  0
 32 53  1  0
 32 54  1  0
 33 55  1  0
M  CHG  2   6  -1  15  -1
M  END
>  <UniqueID>  (78) 
74

>  <SMILES>  (78) 
O=C(Cn1c([O-])c(Cc2ccccc2)[n-]c1=O)Nc1cccc(S(=O)(=O)N2CCOCC2)c1

>  <Energy>  (78) 
97.58470724441925

>  <Genealogy>  (78) 
O=C(Cn1c([O-])c(Cc2ccccc2)[n-]c1=O)Nc1cccc(S(=O)(=O)N2CCOCC2)c1 (protonated)
O=C(Cn1c([O-])c(Cc2ccccc2)[n-]c1=O)Nc1cccc(S(=O)(=O)N2CCOCC2)c1 (3D coordinates assigned)
O=C(Cn1c([O-])c(Cc2ccccc2)[n-]c1=O)Nc1cccc(S(=O)(=O)N2CCOCC2)c1 (nonaromatic ring conformer: 97.58470724441925 kcal/mol)

>  <smiles>  (78) 
O=C(Cn1c(O)c(Cc2ccccc2)[nH]c1=O)Nc1cccc(S(=O)(=O)N2CCOCC2)c1

>  <score_type>  (78) 
oracle

>  <origin>  (78) 
adg

>  <m_score__min__energy>  (78) 
-14.08

>  <m_primary>  (78) 
energy

$$$$
78:0
     RDKit          3D

 35 37  0  0  0  0  0  0  0  0999 V2000
   56.8620   24.5240   47.3590 N   0  0  0  0  0  0  0  0  0  0  0  0
   57.3290   25.5220   46.6760 C   0  0  0  0  0  0  0  0  0  0  0  0
   58.8060   25.6020   46.3800 C   0  0  0  0  0  0  0  0  0  0  0  0
   59.2510   26.9580   45.9020 C   0  0  0  0  0  0  0  0  0  0  0  0
   60.4800   27.2390   45.9490 O   0  0  0  0  0  0  0  0  0  0  0  0
   58.2930   27.9300   45.3260 C   0  0  0  0  0  0  0  0  0  0  0  0
   58.7430   29.0920   44.6770 C   0  0  0  0  0  0  0  0  0  0  0  0
   57.8240   30.0060   44.1390 C   0  0  0  0  0  0  0  0  0  0  0  0
   58.2800   31.1830   43.4410 N   0  0  0  0  0  0  0  0  0  0  0  0
   57.4220   32.3290   43.7750 C   0  0  0  0  0  0  0  0  0  0  0  0
   57.9990   33.0980   44.9350 C   0  0  0  0  0  0  0  0  0  0  0  0
   57.7430   32.6900   46.2540 C   0  0  0  0  0  0  0  0  0  0  0  0
   58.3090   33.3840   47.3280 C   0  0  0  0  0  0  0  0  0  0  0  0
   59.1400   34.4820   47.0930 C   0  0  0  0  0  0  0  0  0  0  0  0
   59.4120   34.8860   45.7820 C   0  0  0  0  0  0  0  0  0  0  0  0
   58.8480   34.1940   44.7040 C   0  0  0  0  0  0  0  0  0  0  0  0
   56.4550   29.7240   44.2470 C   0  0  0  0  0  0  0  0  0  0  0  0
   56.0360   28.5990   44.8830 N   0  0  0  0  0  0  0  0  0  0  0  0
   56.9090   27.7050   45.4220 C   0  0  0  0  0  0  0  0  0  0  0  0
   56.3950   26.5180   46.1220 C   0  0  0  0  0  0  0  0  0  0  0  0
   55.1510   26.3590   46.2560 O   0  0  0  0  0  0  0  0  0  0  0  0
   55.8370   24.3880   47.5070 H   0  0  0  0  0  0  0  0  0  0  0  0
   59.3588   25.3584   47.2993 H   0  0  0  0  0  0  0  0  0  0  0  0
   59.0117   24.8895   45.5676 H   0  0  0  0  0  0  0  0  0  0  0  0
   59.8222   29.2865   44.5901 H   0  0  0  0  0  0  0  0  0  0  0  0
   58.2550   31.0120   42.4090 H   0  0  0  0  0  0  0  0  0  0  0  0
   59.2700   31.3920   43.7120 H   0  0  0  0  0  0  0  0  0  0  0  0
   57.3480   32.9930   42.9011 H   0  0  0  0  0  0  0  0  0  0  0  0
   56.4247   31.9581   44.0541 H   0  0  0  0  0  0  0  0  0  0  0  0
   57.0950   31.8215   46.4431 H   0  0  0  0  0  0  0  0  0  0  0  0
   58.0995   33.0648   48.3596 H   0  0  0  0  0  0  0  0  0  0  0  0
   59.5806   35.0291   47.9395 H   0  0  0  0  0  0  0  0  0  0  0  0
   60.0697   35.7483   45.5979 H   0  0  0  0  0  0  0  0  0  0  0  0
   59.0697   34.5087   43.6736 H   0  0  0  0  0  0  0  0  0  0  0  0
   55.7173   30.4163   43.8151 H   0  0  0  0  0  0  0  0  0  0  0  0
  1  2  2  3
  2  3  1  0
  3  4  1  0
  4  5  2  0
  4  6  1  0
  6  7  2  0
  7  8  1  0
  8  9  1  0
  9 10  1  0
 10 11  1  0
 11 12  2  0
 12 13  1  0
 13 14  2  0
 14 15  1  0
 15 16  2  0
  8 17  2  0
 17 18  1  0
 18 19  2  0
 19 20  1  0
 20 21  2  0
 20  2  1  0
 19  6  1  0
 16 11  1  0
  1 22  1  0
  3 23  1  0
  3 24  1  0
  7 25  1  0
  9 26  1  0
  9 27  1  0
 10 28  1  0
 10 29  1  0
 12 30  1  0
 13 31  1  0
 14 32  1  0
 15 33  1  0
 16 34  1  0
 17 35  1  0
M  CHG  1   9   1
M  END
>  <UniqueID>  (79) 
75

>  <SMILES>  (79) 
N=C1CC(=O)c2cc([NH2+]Cc3ccccc3)cnc2C1=O

>  <Energy>  (79) 
39.46523293343205

>  <Genealogy>  (79) 
N=C1CC(=O)c2cc([NH2+]Cc3ccccc3)cnc2C1=O (protonated)
N=C1CC(=O)c2cc([NH2+]Cc3ccccc3)cnc2C1=O (3D coordinates assigned)
N=C1CC(=O)c2cc([NH2+]Cc3ccccc3)cnc2C1=O (nonaromatic ring conformer: 39.46523293343205 kcal/mol)

>  <smiles>  (79) 
N=C1CC(=O)c2cc(NCc3ccccc3)cnc2C1=O

>  <score_type>  (79) 
oracle

>  <origin>  (79) 
adg

>  <m_score__min__energy>  (79) 
-6.3600000000000003

>  <m_primary>  (79) 
energy

$$$$
79:0
     RDKit          3D

 58 61  0  0  0  0  0  0  0  0999 V2000
   56.9740   19.6710   42.7960 H   0  0  0  0  0  0  0  0  0  0  0  0
   55.8680   27.1170   45.6270 N   0  0  0  0  0  0  0  0  0  0  0  0
   56.2890   28.2980   45.2740 C   0  0  0  0  0  0  0  0  0  0  0  0
   55.4850   29.0540   44.4780 N   0  0  0  0  0  0  0  0  0  0  0  0
   56.0770   23.8480   43.8690 C   0  0  0  0  0  0  0  0  0  0  0  0
   55.3594   24.6770   43.7806 H   0  0  0  0  0  0  0  0  0  0  0  0
   57.3220   24.0660   44.4830 C   0  0  0  0  0  0  0  0  0  0  0  0
   57.6540   25.4500   44.9940 C   0  0  0  0  0  0  0  0  0  0  0  0
   58.6372   25.4179   45.4861 H   0  0  0  0  0  0  0  0  0  0  0  0
   57.6555   26.1333   44.1319 H   0  0  0  0  0  0  0  0  0  0  0  0
   56.6400   25.9580   45.9770 C   0  0  0  0  0  0  0  0  0  0  0  0
   56.3710   25.2960   47.0180 O   0  0  0  0  0  0  0  0  0  0  0  0
   56.2630   20.4160   42.9840 N   0  0  0  0  0  0  0  0  0  0  0  0
   56.6000   21.5640   43.4790 C   0  0  0  0  0  0  0  0  0  0  0  0
   55.7530   22.6220   43.3840 N   0  0  0  0  0  0  0  0  0  0  0  0
   55.8330   30.2980   44.0610 C   0  0  0  0  0  0  0  0  0  0  0  0
   55.1471   30.8754   43.4237 H   0  0  0  0  0  0  0  0  0  0  0  0
   57.0580   30.8450   44.4390 C   0  0  0  0  0  0  0  0  0  0  0  0
   57.3386   31.8556   44.1073 H   0  0  0  0  0  0  0  0  0  0  0  0
   57.9310   30.0990   45.2450 C   0  0  0  0  0  0  0  0  0  0  0  0
   59.2590   30.6400   45.6200 C   0  0  0  0  0  0  0  0  0  0  0  0
   60.2770   29.9030   45.5040 O   0  0  0  0  0  0  0  0  0  0  0  0
   59.4270   32.0240   46.1240 C   0  0  0  0  0  0  0  0  0  0  0  0
   58.9040   33.1150   45.4100 C   0  0  0  0  0  0  0  0  0  0  0  0
   58.3757   32.9444   44.4604 H   0  0  0  0  0  0  0  0  0  0  0  0
   59.0510   34.4150   45.8990 C   0  0  0  0  0  0  0  0  0  0  0  0
   58.6412   35.2636   45.3316 H   0  0  0  0  0  0  0  0  0  0  0  0
   59.7160   34.6410   47.1050 C   0  0  0  0  0  0  0  0  0  0  0  0
   59.8333   35.6674   47.4827 H   0  0  0  0  0  0  0  0  0  0  0  0
   60.2360   33.5610   47.8380 C   0  0  0  0  0  0  0  0  0  0  0  0
   60.9790   33.8010   49.1260 C   0  0  0  0  0  0  0  0  0  0  0  0
   60.4215   34.5282   49.7346 H   0  0  0  0  0  0  0  0  0  0  0  0
   61.0727   32.8461   49.6639 H   0  0  0  0  0  0  0  0  0  0  0  0
   62.3350   34.3310   48.8560 N   0  0  0  0  0  0  0  0  0  0  0  0
   62.8880   33.8200   47.5850 C   0  0  0  0  0  0  0  0  0  0  0  0
   62.0997   33.8438   46.8182 H   0  0  0  0  0  0  0  0  0  0  0  0
   63.7362   34.4592   47.2985 H   0  0  0  0  0  0  0  0  0  0  0  0
   63.4010   32.3790   47.7270 C   0  0  0  0  0  0  0  0  0  0  0  0
   62.5580   31.7186   47.9783 H   0  0  0  0  0  0  0  0  0  0  0  0
   63.8567   32.0700   46.7747 H   0  0  0  0  0  0  0  0  0  0  0  0
   64.3760   32.2950   48.7460 O   0  0  0  0  0  0  0  0  0  0  0  0
   63.7970   32.6420   49.9880 C   0  0  0  0  0  0  0  0  0  0  0  0
   62.9559   31.9640   50.1950 H   0  0  0  0  0  0  0  0  0  0  0  0
   64.5649   32.5525   50.7705 H   0  0  0  0  0  0  0  0  0  0  0  0
   63.2820   34.0920   49.9690 C   0  0  0  0  0  0  0  0  0  0  0  0
   62.7709   34.2996   50.9207 H   0  0  0  0  0  0  0  0  0  0  0  0
   64.1466   34.7573   49.8276 H   0  0  0  0  0  0  0  0  0  0  0  0
   60.0850   32.2550   47.3450 C   0  0  0  0  0  0  0  0  0  0  0  0
   60.4847   31.4057   47.9186 H   0  0  0  0  0  0  0  0  0  0  0  0
   57.8410   21.7220   44.1010 C   0  0  0  0  0  0  0  0  0  0  0  0
   58.5293   20.8677   44.1807 H   0  0  0  0  0  0  0  0  0  0  0  0
   58.2090   22.9710   44.6240 C   0  0  0  0  0  0  0  0  0  0  0  0
   59.5670   23.1320   45.2550 C   0  0  0  0  0  0  0  0  0  0  0  0
   59.4661   23.1200   46.3503 H   0  0  0  0  0  0  0  0  0  0  0  0
   60.2191   22.3049   44.9378 H   0  0  0  0  0  0  0  0  0  0  0  0
   60.0076   24.0887   44.9378 H   0  0  0  0  0  0  0  0  0  0  0  0
   57.5500   28.8090   45.6540 C   0  0  0  0  0  0  0  0  0  0  0  0
   58.2308   28.2003   46.2672 H   0  0  0  0  0  0  0  0  0  0  0  0
  1  2  1  0
  2  3  2  0
  3  4  1  0
  4  5  1  0
  5  6  1  0
  5  7  2  0
  7  8  1  0
  8  9  1  0
  8 10  1  0
  8 11  1  0
 11 12  2  0
 11 13  1  0
 13 14  2  0
 14 15  1  0
 15 16  1  0
 16 17  1  0
 16 18  2  0
 18 19  1  0
 18 20  1  0
 20 21  1  0
 21 22  2  0
 21 23  1  0
 23 24  2  0
 24 25  1  0
 24 26  1  0
 26 27  1  0
 26 28  2  0
 28 29  1  0
 28 30  1  0
 30 31  1  0
 31 32  1  0
 31 33  1  0
 31 34  1  0
 34 35  1  0
 35 36  1  0
 35 37  1  0
 35 38  1  0
 38 39  1  0
 38 40  1  0
 38 41  1  0
 41 42  1  0
 42 43  1  0
 42 44  1  0
 42 45  1  0
 45 46  1  0
 45 47  1  0
 30 48  2  0
 48 49  1  0
 20 50  2  0
 50 51  1  0
  7 52  1  0
 52 53  1  0
 53 54  1  0
 53 55  1  0
 53 56  1  0
 52 57  2  0
 57 58  1  0
 57  3  1  0
 50 14  1  0
 48 23  1  0
 45 34  1  0
M  CHG  2   4  -1  15  -1
M  END
>  <UniqueID>  (80) 
76

>  <SMILES>  (80) 
[H]/N=c1/cc(C)c(CC(=O)/N=c2\cc(C(=O)c3cccc(CN4CCOCC4)c3)cc[n-]2)c[n-]1

>  <Energy>  (80) 
81.86180961345886

>  <Genealogy>  (80) 
Cc1cc(=N)[n-]cc1CC(=O)N=c1cc(C(=O)c2cccc(CN3CCOCC3)c2)cc[n-]1 (protonated)
[H]/N=c1/cc(C)c(CC(=O)/N=c2\cc(C(=O)c3cccc(CN4CCOCC4)c3)cc[n-]2)c[n-]1 (cis-trans isomerization)
[H]/N=c1/cc(C)c(CC(=O)/N=c2\cc(C(=O)c3cccc(CN4CCOCC4)c3)cc[n-]2)c[n-]1 (3D coordinates assigned)
[H]/N=c1/cc(C)c(CC(=O)/N=c2\cc(C(=O)c3cccc(CN4CCOCC4)c3)cc[n-]2)c[n-]1 (nonaromatic ring conformer: 81.86180961345886 kcal/mol)

>  <smiles>  (80) 
Cc1cc(=N)[nH]cc1CC(=O)N=c1cc(C(=O)c2cccc(CN3CCOCC3)c2)cc[nH]1

>  <score_type>  (80) 
oracle

>  <origin>  (80) 
adg

>  <m_score__min__energy>  (80) 
-13.800000000000001

>  <m_primary>  (80) 
energy

$$$$
80:0
     RDKit          3D

 39 41  0  0  0  0  0  0  0  0999 V2000
   56.4308   21.4590   41.5796 H   0  0  0  0  0  0  0  0  0  0  0  0
   56.6400   21.6830   42.6360 C   0  0  0  0  0  0  0  0  0  0  0  0
   55.7300   22.2830   43.4490 N   0  0  0  0  0  0  0  0  0  0  0  0
   56.2210   22.4500   44.6960 C   0  0  0  0  0  0  0  0  0  0  0  0
   55.5590   22.9970   45.6670 N   0  0  0  0  0  0  0  0  0  0  0  0
   56.3210   23.8170   46.9920 S   0  0  0  0  0  0  0  0  0  0  0  0
   57.4640   22.9920   47.5150 O   0  0  0  0  0  0  0  0  0  0  0  0
   55.3080   24.0340   48.0810 O   0  0  0  0  0  0  0  0  0  0  0  0
   56.9380   25.3690   46.4380 C   0  0  0  0  0  0  0  0  0  0  0  0
   58.3180   25.5880   46.3390 C   0  0  0  0  0  0  0  0  0  0  0  0
   59.0216   24.7920   46.6241 H   0  0  0  0  0  0  0  0  0  0  0  0
   58.8030   26.8150   45.8790 C   0  0  0  0  0  0  0  0  0  0  0  0
   59.8874   26.9816   45.7993 H   0  0  0  0  0  0  0  0  0  0  0  0
   57.9130   27.8310   45.5200 C   0  0  0  0  0  0  0  0  0  0  0  0
   58.2987   28.7923   45.1496 H   0  0  0  0  0  0  0  0  0  0  0  0
   56.5250   27.6280   45.6310 C   0  0  0  0  0  0  0  0  0  0  0  0
   55.5800   28.6350   45.2420 N   0  0  0  0  0  0  0  0  0  0  0  0
   55.8360   29.7270   44.3530 C   0  0  0  0  0  0  0  0  0  0  0  0
   55.5320   29.6110   43.1370 O   0  0  0  0  0  0  0  0  0  0  0  0
   56.3780   30.9570   44.8480 N   0  0  0  0  0  0  0  0  0  0  0  0
   57.3910   31.7340   44.1430 C   0  0  0  0  0  0  0  0  0  0  0  0
   58.1305   31.0507   43.7000 H   0  0  0  0  0  0  0  0  0  0  0  0
   56.9056   32.3244   43.3519 H   0  0  0  0  0  0  0  0  0  0  0  0
   58.0850   32.6670   45.0980 C   0  0  0  0  0  0  0  0  0  0  0  0
   58.1350   32.3780   46.4720 C   0  0  0  0  0  0  0  0  0  0  0  0
   57.6826   31.4510   46.8542 H   0  0  0  0  0  0  0  0  0  0  0  0
   58.7580   33.2650   47.3550 C   0  0  0  0  0  0  0  0  0  0  0  0
   58.7974   33.0333   48.4296 H   0  0  0  0  0  0  0  0  0  0  0  0
   59.3310   34.4460   46.8740 C   0  0  0  0  0  0  0  0  0  0  0  0
   59.9330   35.3050   47.7330 F   0  0  0  0  0  0  0  0  0  0  0  0
   59.2790   34.7420   45.5090 C   0  0  0  0  0  0  0  0  0  0  0  0
   59.7284   35.6723   45.1314 H   0  0  0  0  0  0  0  0  0  0  0  0
   58.6570   33.8580   44.6230 C   0  0  0  0  0  0  0  0  0  0  0  0
   58.6155   34.0962   43.5499 H   0  0  0  0  0  0  0  0  0  0  0  0
   56.0470   26.3870   46.0670 C   0  0  0  0  0  0  0  0  0  0  0  0
   54.9629   26.2082   46.1192 H   0  0  0  0  0  0  0  0  0  0  0  0
   57.7870   21.8700   44.8460 S   0  0  0  0  0  0  0  0  0  0  0  0
   57.8560   21.3730   43.2390 C   0  0  0  0  0  0  0  0  0  0  0  0
   58.7134   20.8874   42.7501 H   0  0  0  0  0  0  0  0  0  0  0  0
  1  2  1  0
  2  3  1  0
  3  4  1  0
  4  5  2  0
  5  6  1  0
  6  7  2  0
  6  8  2  0
  6  9  1  0
  9 10  2  0
 10 11  1  0
 10 12  1  0
 12 13  1  0
 12 14  2  0
 14 15  1  0
 14 16  1  0
 16 17  1  0
 17 18  1  0
 18 19  2  0
 18 20  1  0
 20 21  1  0
 21 22  1  0
 21 23  1  0
 21 24  1  0
 24 25  2  0
 25 26  1  0
 25 27  1  0
 27 28  1  0
 27 29  2  0
 29 30  1  0
 29 31  1  0
 31 32  1  0
 31 33  2  0
 33 34  1  0
 16 35  2  0
 35 36  1  0
  4 37  1  0
 37 38  1  0
 38 39  1  0
 38  2  2  0
 35  9  1  0
 33 24  1  0
M  CHG  3   3  -1  17  -1  20  -1
M  END
>  <UniqueID>  (81) 
77

>  <SMILES>  (81) 
O=C([N-]Cc1ccc(F)cc1)[N-]c1cccc(S(=O)(=O)/N=c2\[n-]ccs2)c1

>  <Energy>  (81) 
75.68556421653902

>  <Genealogy>  (81) 
O=C([N-]Cc1ccc(F)cc1)[N-]c1cccc(S(=O)(=O)N=c2[n-]ccs2)c1 (protonated)
O=C([N-]Cc1ccc(F)cc1)[N-]c1cccc(S(=O)(=O)/N=c2\[n-]ccs2)c1 (cis-trans isomerization)
O=C([N-]Cc1ccc(F)cc1)[N-]c1cccc(S(=O)(=O)/N=c2\[n-]ccs2)c1 (3D coordinates assigned)
O=C([N-]Cc1ccc(F)cc1)[N-]c1cccc(S(=O)(=O)/N=c2\[n-]ccs2)c1 (optimized conformer: 75.68556421653902 kcal/mol)

>  <smiles>  (81) 
O=C(NCc1ccc(F)cc1)Nc1cccc(S(=O)(=O)N=c2[nH]ccs2)c1

>  <score_type>  (81) 
oracle

>  <origin>  (81) 
adg

>  <m_score__min__energy>  (81) 
-13.35

>  <m_primary>  (81) 
energy

$$$$
81:0
     RDKit          3D

 44 46  0  0  0  0  0  0  0  0999 V2000
   59.9430   26.1640   46.4210 C   0  0  0  0  0  0  0  0  0  0  0  0
   58.4510   26.2240   46.3420 C   0  0  0  0  0  0  0  0  0  0  0  0
   57.6670   25.1380   46.7450 C   0  0  0  0  0  0  0  0  0  0  0  0
   56.2820   25.2360   46.6160 C   0  0  0  0  0  0  0  0  0  0  0  0
   55.7230   26.3640   46.1060 N   0  0  0  0  0  0  0  0  0  0  0  0
   56.4950   27.4090   45.7090 C   0  0  0  0  0  0  0  0  0  0  0  0
   55.9300   28.4790   45.2380 N   0  0  0  0  0  0  0  0  0  0  0  0
   56.4990   29.3340   43.8380 S   0  0  0  0  0  0  0  0  0  0  0  0
   55.3300   29.6990   42.9670 O   0  0  0  0  0  0  0  0  0  0  0  0
   57.4300   28.4460   43.0620 O   0  0  0  0  0  0  0  0  0  0  0  0
   57.3170   30.8080   44.3450 C   0  0  0  0  0  0  0  0  0  0  0  0
   57.9830   30.8370   45.5760 C   0  0  0  0  0  0  0  0  0  0  0  0
   58.7470   31.9490   45.9360 C   0  0  0  0  0  0  0  0  0  0  0  0
   58.8680   33.0390   45.0570 C   0  0  0  0  0  0  0  0  0  0  0  0
   59.6960   34.1670   45.3700 N   0  0  0  0  0  0  0  0  0  0  0  0
   59.9950   34.6360   46.6940 C   0  0  0  0  0  0  0  0  0  0  0  0
   59.2640   35.5280   47.1980 O   0  0  0  0  0  0  0  0  0  0  0  0
   61.1910   34.1630   47.4290 C   0  0  0  0  0  0  0  0  0  0  0  0
   62.3070   33.7230   46.6940 C   0  0  0  0  0  0  0  0  0  0  0  0
   63.4360   33.2250   47.3450 C   0  0  0  0  0  0  0  0  0  0  0  0
   63.4670   33.1600   48.7370 C   0  0  0  0  0  0  0  0  0  0  0  0
   62.3680   33.5890   49.4830 C   0  0  0  0  0  0  0  0  0  0  0  0
   61.2190   34.0850   48.8430 C   0  0  0  0  0  0  0  0  0  0  0  0
   60.0850   34.4900   49.6310 N   0  0  0  0  0  0  0  0  0  0  0  0
   59.6260   33.7600   50.7750 C   0  0  0  0  0  0  0  0  0  0  0  0
   60.1240   32.6420   51.0760 O   0  0  0  0  0  0  0  0  0  0  0  0
   58.1550   33.0320   43.8520 C   0  0  0  0  0  0  0  0  0  0  0  0
   57.3910   31.9190   43.4910 C   0  0  0  0  0  0  0  0  0  0  0  0
   57.8490   27.3250   45.8220 N   0  0  0  0  0  0  0  0  0  0  0  0
   60.2541   26.1515   47.4760 H   0  0  0  0  0  0  0  0  0  0  0  0
   60.3001   25.2508   45.9226 H   0  0  0  0  0  0  0  0  0  0  0  0
   60.3723   27.0456   45.9226 H   0  0  0  0  0  0  0  0  0  0  0  0
   58.1317   24.2287   47.1538 H   0  0  0  0  0  0  0  0  0  0  0  0
   55.6410   24.3983   46.9278 H   0  0  0  0  0  0  0  0  0  0  0  0
   57.9042   29.9808   46.2621 H   0  0  0  0  0  0  0  0  0  0  0  0
   59.2559   31.9720   46.9109 H   0  0  0  0  0  0  0  0  0  0  0  0
   62.2892   33.7721   45.5952 H   0  0  0  0  0  0  0  0  0  0  0  0
   64.3022   32.8834   46.7594 H   0  0  0  0  0  0  0  0  0  0  0  0
   64.3592   32.7699   49.2486 H   0  0  0  0  0  0  0  0  0  0  0  0
   62.4014   33.5385   50.5813 H   0  0  0  0  0  0  0  0  0  0  0  0
   59.5410   35.3350   49.3540 H   0  0  0  0  0  0  0  0  0  0  0  0
   58.8259   34.1821   51.4009 H   0  0  0  0  0  0  0  0  0  0  0  0
   58.1964   33.9067   43.1863 H   0  0  0  0  0  0  0  0  0  0  0  0
   56.8464   31.9138   42.5353 H   0  0  0  0  0  0  0  0  0  0  0  0
  1  2  1  0
  2  3  1  0
  3  4  2  0
  4  5  1  0
  5  6  1  0
  6  7  2  3
  7  8  1  0
  8  9  2  0
  8 10  2  0
  8 11  1  0
 11 12  2  0
 12 13  1  0
 13 14  2  0
 14 15  1  0
 15 16  1  0
 16 17  2  0
 16 18  1  0
 18 19  2  0
 19 20  1  0
 20 21  2  0
 21 22  1  0
 22 23  2  0
 23 24  1  0
 24 25  1  0
 25 26  2  0
 14 27  1  0
 27 28  2  0
  6 29  1  0
 29  2  2  0
 28 11  1  0
 23 18  1  0
  1 30  1  0
  1 31  1  0
  1 32  1  0
  3 33  1  0
  4 34  1  0
 12 35  1  0
 13 36  1  0
 19 37  1  0
 20 38  1  0
 21 39  1  0
 22 40  1  0
 24 41  1  0
 25 42  1  0
 27 43  1  0
 28 44  1  0
M  CHG  2   5  -1  15  -1
M  END
>  <UniqueID>  (82) 
78

>  <SMILES>  (82) 
Cc1cc[n-]c(=NS(=O)(=O)c2ccc([N-]C(=O)c3ccccc3NC=O)cc2)n1

>  <Energy>  (82) 
60.250480112903396

>  <Genealogy>  (82) 
Cc1cc[n-]c(=NS(=O)(=O)c2ccc([N-]C(=O)c3ccccc3NC=O)cc2)n1 (protonated)
Cc1cc[n-]c(=NS(=O)(=O)c2ccc([N-]C(=O)c3ccccc3NC=O)cc2)n1 (3D coordinates assigned)
Cc1cc[n-]c(=NS(=O)(=O)c2ccc([N-]C(=O)c3ccccc3NC=O)cc2)n1 (optimized conformer: 60.250480112903396 kcal/mol)

>  <smiles>  (82) 
Cc1cc[nH]c(=NS(=O)(=O)c2ccc(NC(=O)c3ccccc3NC=O)cc2)n1

>  <score_type>  (82) 
oracle

>  <origin>  (82) 
adg

>  <m_score__min__energy>  (82) 
-11.130000000000001

>  <m_primary>  (82) 
energy

$$$$
82:0
     RDKit          3D

 66 70  0  0  0  0  0  0  0  0999 V2000
   59.6860   34.0830   51.1890 O   0  0  0  0  0  0  0  0  0  0  0  0
   60.7940   33.4830   51.2030 C   0  0  0  0  0  0  0  0  0  0  0  0
   62.0390   34.2160   50.7700 C   0  0  0  0  0  0  0  0  0  0  0  0
   62.4290   33.8560   49.3520 C   0  0  0  0  0  0  0  0  0  0  0  0
   63.7270   33.3600   49.1250 C   0  0  0  0  0  0  0  0  0  0  0  0
   64.1480   33.0280   47.8380 C   0  0  0  0  0  0  0  0  0  0  0  0
   63.2820   33.1820   46.7580 C   0  0  0  0  0  0  0  0  0  0  0  0
   61.9930   33.6780   46.9590 C   0  0  0  0  0  0  0  0  0  0  0  0
   61.5530   34.0380   48.2460 C   0  0  0  0  0  0  0  0  0  0  0  0
   60.1380   34.5500   48.4090 C   0  0  0  0  0  0  0  0  0  0  0  0
   59.4980   34.7350   47.1470 O   0  0  0  0  0  0  0  0  0  0  0  0
   58.8500   33.7370   46.4010 C   0  0  0  0  0  0  0  0  0  0  0  0
   58.2190   33.9940   45.1680 C   0  0  0  0  0  0  0  0  0  0  0  0
   57.5770   32.9610   44.4760 C   0  0  0  0  0  0  0  0  0  0  0  0
   57.5660   31.6660   45.0010 C   0  0  0  0  0  0  0  0  0  0  0  0
   56.9480   30.6650   44.3250 F   0  0  0  0  0  0  0  0  0  0  0  0
   58.2000   31.4020   46.2160 C   0  0  0  0  0  0  0  0  0  0  0  0
   58.8390   32.4330   46.9110 C   0  0  0  0  0  0  0  0  0  0  0  0
   60.8340   32.1420   51.7060 N   0  0  0  0  0  0  0  0  0  0  0  0
   59.7320   31.1820   51.6920 C   0  0  0  0  0  0  0  0  0  0  0  0
   59.7170   30.3850   50.4140 C   0  0  0  0  0  0  0  0  0  0  0  0
   58.5740   29.6630   50.0400 C   0  0  0  0  0  0  0  0  0  0  0  0
   58.5480   28.9500   48.8370 C   0  0  0  0  0  0  0  0  0  0  0  0
   59.6580   28.9690   47.9720 C   0  0  0  0  0  0  0  0  0  0  0  0
   59.6460   28.2230   46.6890 C   0  0  0  0  0  0  0  0  0  0  0  0
   60.3760   28.6180   45.7400 O   0  0  0  0  0  0  0  0  0  0  0  0
   58.8000   27.0740   46.5060 N   0  0  0  0  0  0  0  0  0  0  0  0
   58.9130   26.1810   45.3500 C   0  0  0  0  0  0  0  0  0  0  0  0
   59.2580   24.7420   45.7990 C   0  0  0  0  0  0  0  0  0  0  0  0
   58.2890   23.9020   45.0570 C   0  0  0  0  0  0  0  0  0  0  0  0
   58.2650   22.5060   44.9990 C   0  0  0  0  0  0  0  0  0  0  0  0
   57.2660   21.8780   44.2390 C   0  0  0  0  0  0  0  0  0  0  0  0
   56.3080   22.6510   43.5580 C   0  0  0  0  0  0  0  0  0  0  0  0
   56.3470   24.0530   43.6340 C   0  0  0  0  0  0  0  0  0  0  0  0
   57.3570   24.6570   44.3880 C   0  0  0  0  0  0  0  0  0  0  0  0
   57.5760   26.1090   44.5760 C   0  0  0  0  0  0  0  0  0  0  0  0
   60.8010   29.6960   48.3520 C   0  0  0  0  0  0  0  0  0  0  0  0
   60.8260   30.4040   49.5570 C   0  0  0  0  0  0  0  0  0  0  0  0
   61.8541   35.2989   50.8260 H   0  0  0  0  0  0  0  0  0  0  0  0
   62.8619   33.9245   51.4392 H   0  0  0  0  0  0  0  0  0  0  0  0
   64.4166   33.2330   49.9725 H   0  0  0  0  0  0  0  0  0  0  0  0
   65.1658   32.6438   47.6752 H   0  0  0  0  0  0  0  0  0  0  0  0
   63.6146   32.9122   45.7448 H   0  0  0  0  0  0  0  0  0  0  0  0
   61.3132   33.7887   46.1013 H   0  0  0  0  0  0  0  0  0  0  0  0
   59.5608   33.8227   48.9988 H   0  0  0  0  0  0  0  0  0  0  0  0
   60.1809   35.5236   48.9192 H   0  0  0  0  0  0  0  0  0  0  0  0
   58.2310   35.0104   44.7476 H   0  0  0  0  0  0  0  0  0  0  0  0
   57.0800   33.1687   43.5169 H   0  0  0  0  0  0  0  0  0  0  0  0
   58.1969   30.3817   46.6271 H   0  0  0  0  0  0  0  0  0  0  0  0
   59.3378   32.2178   47.8675 H   0  0  0  0  0  0  0  0  0  0  0  0
   59.8456   30.4935   52.5424 H   0  0  0  0  0  0  0  0  0  0  0  0
   58.7859   31.7383   51.7655 H   0  0  0  0  0  0  0  0  0  0  0  0
   57.6920   29.6575   50.6974 H   0  0  0  0  0  0  0  0  0  0  0  0
   57.6536   28.3703   48.5650 H   0  0  0  0  0  0  0  0  0  0  0  0
   58.0380   26.8850   47.1940 H   0  0  0  0  0  0  0  0  0  0  0  0
   59.7088   26.5881   44.7089 H   0  0  0  0  0  0  0  0  0  0  0  0
   60.2916   24.4829   45.5261 H   0  0  0  0  0  0  0  0  0  0  0  0
   59.1924   24.6077   46.8888 H   0  0  0  0  0  0  0  0  0  0  0  0
   59.0154   21.9101   45.5392 H   0  0  0  0  0  0  0  0  0  0  0  0
   57.2321   20.7803   44.1758 H   0  0  0  0  0  0  0  0  0  0  0  0
   55.5257   22.1558   42.9640 H   0  0  0  0  0  0  0  0  0  0  0  0
   55.5970   24.6639   43.1102 H   0  0  0  0  0  0  0  0  0  0  0  0
   57.6559   26.6224   43.6064 H   0  0  0  0  0  0  0  0  0  0  0  0
   56.7481   26.5995   45.1089 H   0  0  0  0  0  0  0  0  0  0  0  0
   61.6831   29.7074   47.6948 H   0  0  0  0  0  0  0  0  0  0  0  0
   61.7214   30.9796   49.8344 H   0  0  0  0  0  0  0  0  0  0  0  0
  1  2  2  0
  2  3  1  0
  3  4  1  0
  4  5  2  0
  5  6  1  0
  6  7  2  0
  7  8  1  0
  8  9  2  0
  9 10  1  0
 10 11  1  0
 11 12  1  0
 12 13  2  0
 13 14  1  0
 14 15  2  0
 15 16  1  0
 15 17  1  0
 17 18  2  0
  2 19  1  0
 19 20  1  0
 20 21  1  0
 21 22  2  0
 22 23  1  0
 23 24  2  0
 24 25  1  0
 25 26  2  0
 25 27  1  0
 27 28  1  0
 28 29  1  0
 29 30  1  0
 30 31  2  0
 31 32  1  0
 32 33  2  0
 33 34  1  0
 34 35  2  0
 35 36  1  0
 24 37  1  0
 37 38  2  0
  9  4  1  0
 18 12  1  0
 38 21  1  0
 36 28  1  0
 35 30  1  0
  3 39  1  0
  3 40  1  0
  5 41  1  0
  6 42  1  0
  7 43  1  0
  8 44  1  0
 10 45  1  0
 10 46  1  0
 13 47  1  0
 14 48  1  0
 17 49  1  0
 18 50  1  0
 20 51  1  0
 20 52  1  0
 22 53  1  0
 23 54  1  0
 27 55  1  0
 28 56  1  0
 29 57  1  0
 29 58  1  0
 31 59  1  0
 32 60  1  0
 33 61  1  0
 34 62  1  0
 36 63  1  0
 36 64  1  0
 37 65  1  0
 38 66  1  0
M  CHG  1  19  -1
M  END
>  <UniqueID>  (83) 
79

>  <SMILES>  (83) 
O=C(Cc1ccccc1COc1ccc(F)cc1)[N-]Cc1ccc(C(=O)NC2Cc3ccccc3C2)cc1

>  <Energy>  (83) 
80.13838454734507

>  <Genealogy>  (83) 
O=C(Cc1ccccc1COc1ccc(F)cc1)[N-]Cc1ccc(C(=O)NC2Cc3ccccc3C2)cc1 (protonated)
O=C(Cc1ccccc1COc1ccc(F)cc1)[N-]Cc1ccc(C(=O)NC2Cc3ccccc3C2)cc1 (3D coordinates assigned)
O=C(Cc1ccccc1COc1ccc(F)cc1)[N-]Cc1ccc(C(=O)NC2Cc3ccccc3C2)cc1 (nonaromatic ring conformer: 80.13838454734507 kcal/mol)

>  <smiles>  (83) 
O=C(Cc1ccccc1COc1ccc(F)cc1)NCc1ccc(C(=O)NC2Cc3ccccc3C2)cc1

>  <score_type>  (83) 
oracle

>  <origin>  (83) 
adg

>  <m_score__min__energy>  (83) 
-10.81

>  <m_primary>  (83) 
energy

$$$$
83:0
     RDKit          3D

 36 38  0  0  0  0  0  0  0  0999 V2000
   57.3460   29.9670   43.0140 O   0  0  0  0  0  0  0  0  0  0  0  0
   57.5280   30.5870   44.0950 C   0  0  0  0  0  0  0  0  0  0  0  0
   56.9370   31.7700   44.3630 N   0  0  0  0  0  0  0  0  0  0  0  0
   57.3960   32.0670   45.5940 C   0  0  0  0  0  0  0  0  0  0  0  0
   57.0550   33.2250   46.2810 O   0  0  0  0  0  0  0  0  0  0  0  0
   58.2380   31.0760   46.0550 C   0  0  0  0  0  0  0  0  0  0  0  0
   58.9610   31.0660   47.3760 C   0  0  0  0  0  0  0  0  0  0  0  0
   60.3150   31.7160   47.2540 C   0  0  0  0  0  0  0  0  0  0  0  0
   60.4280   33.0610   46.8610 C   0  0  0  0  0  0  0  0  0  0  0  0
   61.6860   33.6630   46.7620 C   0  0  0  0  0  0  0  0  0  0  0  0
   62.8430   32.9300   47.0560 C   0  0  0  0  0  0  0  0  0  0  0  0
   64.1010   33.5200   46.9610 O   0  0  0  0  0  0  0  0  0  0  0  0
   62.7360   31.5930   47.4520 C   0  0  0  0  0  0  0  0  0  0  0  0
   61.4800   30.9890   47.5510 C   0  0  0  0  0  0  0  0  0  0  0  0
   58.3290   30.1370   45.0880 N   0  0  0  0  0  0  0  0  0  0  0  0
   59.1110   28.8960   45.0940 C   0  0  0  0  0  0  0  0  0  0  0  0
   58.3050   27.7610   45.6660 C   0  0  0  0  0  0  0  0  0  0  0  0
   58.9490   26.6890   46.3080 C   0  0  0  0  0  0  0  0  0  0  0  0
   58.2040   25.6270   46.8280 C   0  0  0  0  0  0  0  0  0  0  0  0
   56.8100   25.6300   46.7220 C   0  0  0  0  0  0  0  0  0  0  0  0
   56.0750   24.5690   47.2380 O   0  0  0  0  0  0  0  0  0  0  0  0
   56.1590   26.7000   46.0970 C   0  0  0  0  0  0  0  0  0  0  0  0
   54.7730   26.7090   45.9910 O   0  0  0  0  0  0  0  0  0  0  0  0
   56.9030   27.7630   45.5740 C   0  0  0  0  0  0  0  0  0  0  0  0
   58.3632   31.6160   48.1177 H   0  0  0  0  0  0  0  0  0  0  0  0
   59.1002   30.0216   47.6921 H   0  0  0  0  0  0  0  0  0  0  0  0
   59.5230   33.6422   46.6304 H   0  0  0  0  0  0  0  0  0  0  0  0
   61.7675   34.7154   46.4523 H   0  0  0  0  0  0  0  0  0  0  0  0
   64.9320   32.9680   46.7800 H   0  0  0  0  0  0  0  0  0  0  0  0
   63.6426   31.0157   47.6860 H   0  0  0  0  0  0  0  0  0  0  0  0
   61.4028   29.9372   47.8636 H   0  0  0  0  0  0  0  0  0  0  0  0
   59.4023   28.6480   44.0627 H   0  0  0  0  0  0  0  0  0  0  0  0
   60.0045   29.0445   45.7182 H   0  0  0  0  0  0  0  0  0  0  0  0
   60.0450   26.6860   46.4016 H   0  0  0  0  0  0  0  0  0  0  0  0
   58.7153   24.7874   47.3215 H   0  0  0  0  0  0  0  0  0  0  0  0
   56.3877   28.6047   45.0882 H   0  0  0  0  0  0  0  0  0  0  0  0
  1  2  2  0
  2  3  1  0
  3  4  1  0
  4  5  1  0
  4  6  2  0
  6  7  1  0
  7  8  1  0
  8  9  2  0
  9 10  1  0
 10 11  2  0
 11 12  1  0
 11 13  1  0
 13 14  2  0
  6 15  1  0
 15 16  1  0
 16 17  1  0
 17 18  2  0
 18 19  1  0
 19 20  2  0
 20 21  1  0
 20 22  1  0
 22 23  1  0
 22 24  2  0
 15  2  1  0
 24 17  1  0
 14  8  1  0
  7 25  1  0
  7 26  1  0
  9 27  1  0
 10 28  1  0
 12 29  1  0
 13 30  1  0
 14 31  1  0
 16 32  1  0
 16 33  1  0
 18 34  1  0
 19 35  1  0
 24 36  1  0
M  CHG  4   3  -1   5  -1  21  -1  23  -1
M  END
>  <UniqueID>  (84) 
80

>  <SMILES>  (84) 
O=c1[n-]c([O-])c(Cc2ccc(O)cc2)n1Cc1ccc([O-])c([O-])c1

>  <Energy>  (84) 
67.51323610883678

>  <Genealogy>  (84) 
O=c1[n-]c([O-])c(Cc2ccc(O)cc2)n1Cc1ccc([O-])c([O-])c1 (protonated)
O=c1[n-]c([O-])c(Cc2ccc(O)cc2)n1Cc1ccc([O-])c([O-])c1 (3D coordinates assigned)
O=c1[n-]c([O-])c(Cc2ccc(O)cc2)n1Cc1ccc([O-])c([O-])c1 (optimized conformer: 67.51323610883678 kcal/mol)

>  <smiles>  (84) 
O=c1[nH]c(O)c(Cc2ccc(O)cc2)n1Cc1ccc(O)c(O)c1

>  <score_type>  (84) 
oracle

>  <origin>  (84) 
adg

>  <m_score__min__energy>  (84) 
-16.57

>  <m_primary>  (84) 
energy

$$$$
84:0
     RDKit          3D

 39 40  0  0  0  0  0  0  0  0999 V2000
   61.1500   34.2140   49.1280 C   0  0  0  0  0  0  0  0  0  0  0  0
   59.9200   34.5900   48.5160 O   0  0  0  0  0  0  0  0  0  0  0  0
   59.3360   33.9190   47.4310 C   0  0  0  0  0  0  0  0  0  0  0  0
   59.1030   34.5560   46.1970 C   0  0  0  0  0  0  0  0  0  0  0  0
   58.4960   33.8660   45.1480 C   0  0  0  0  0  0  0  0  0  0  0  0
   58.1130   32.5280   45.3090 C   0  0  0  0  0  0  0  0  0  0  0  0
   57.3340   31.8270   44.2290 C   0  0  0  0  0  0  0  0  0  0  0  0
   56.2390   31.0520   44.8050 N   0  0  0  0  0  0  0  0  0  0  0  0
   56.2360   29.6210   44.7980 C   0  0  0  0  0  0  0  0  0  0  0  0
   55.1750   29.0130   44.4960 O   0  0  0  0  0  0  0  0  0  0  0  0
   57.4530   28.8590   45.1610 C   0  0  0  0  0  0  0  0  0  0  0  0
   58.6620   29.0880   44.4940 C   0  0  0  0  0  0  0  0  0  0  0  0
   59.7790   28.3110   44.7900 C   0  0  0  0  0  0  0  0  0  0  0  0
   59.6850   27.3040   45.7550 C   0  0  0  0  0  0  0  0  0  0  0  0
   60.6980   26.5930   45.9980 O   0  0  0  0  0  0  0  0  0  0  0  0
   58.5070   27.0960   46.4250 N   0  0  0  0  0  0  0  0  0  0  0  0
   58.4100   26.0210   47.4210 C   0  0  0  0  0  0  0  0  0  0  0  0
   57.4090   27.8630   46.1500 C   0  0  0  0  0  0  0  0  0  0  0  0
   58.3580   31.8830   46.5310 C   0  0  0  0  0  0  0  0  0  0  0  0
   58.9640   32.5760   47.5970 C   0  0  0  0  0  0  0  0  0  0  0  0
   59.1970   31.9710   48.8420 O   0  0  0  0  0  0  0  0  0  0  0  0
   59.2910   30.5660   49.0510 C   0  0  0  0  0  0  0  0  0  0  0  0
   61.0405   34.2475   50.2220 H   0  0  0  0  0  0  0  0  0  0  0  0
   61.4171   33.1932   48.8173 H   0  0  0  0  0  0  0  0  0  0  0  0
   61.9423   34.9110   48.8173 H   0  0  0  0  0  0  0  0  0  0  0  0
   59.4020   35.6056   46.0594 H   0  0  0  0  0  0  0  0  0  0  0  0
   58.3170   34.3749   44.1893 H   0  0  0  0  0  0  0  0  0  0  0  0
   56.9217   32.5759   43.5368 H   0  0  0  0  0  0  0  0  0  0  0  0
   58.0083   31.1432   43.6927 H   0  0  0  0  0  0  0  0  0  0  0  0
   58.7298   29.8820   43.7357 H   0  0  0  0  0  0  0  0  0  0  0  0
   60.7304   28.4887   44.2672 H   0  0  0  0  0  0  0  0  0  0  0  0
   58.4490   26.4531   48.4318 H   0  0  0  0  0  0  0  0  0  0  0  0
   57.4597   25.4831   47.2886 H   0  0  0  0  0  0  0  0  0  0  0  0
   59.2487   25.3217   47.2886 H   0  0  0  0  0  0  0  0  0  0  0  0
   56.4777   27.6975   46.7116 H   0  0  0  0  0  0  0  0  0  0  0  0
   58.0745   30.8277   46.6574 H   0  0  0  0  0  0  0  0  0  0  0  0
   59.3050   30.3560   50.1307 H   0  0  0  0  0  0  0  0  0  0  0  0
   58.4242   30.0682   48.5919 H   0  0  0  0  0  0  0  0  0  0  0  0
   60.2164   30.1881   48.5919 H   0  0  0  0  0  0  0  0  0  0  0  0
  1  2  1  0
  2  3  1  0
  3  4  2  0
  4  5  1  0
  5  6  2  0
  6  7  1  0
  7  8  1  0
  8  9  1  0
  9 10  2  0
  9 11  1  0
 11 12  1  0
 12 13  2  0
 13 14  1  0
 14 15  2  0
 14 16  1  0
 16 17  1  0
 16 18  1  0
  6 19  1  0
 19 20  2  0
 20 21  1  0
 21 22  1  0
 20  3  1  0
 18 11  2  0
  1 23  1  0
  1 24  1  0
  1 25  1  0
  4 26  1  0
  5 27  1  0
  7 28  1  0
  7 29  1  0
 12 30  1  0
 13 31  1  0
 17 32  1  0
 17 33  1  0
 17 34  1  0
 18 35  1  0
 19 36  1  0
 22 37  1  0
 22 38  1  0
 22 39  1  0
M  CHG  1   8  -1
M  END
>  <UniqueID>  (85) 
81

>  <SMILES>  (85) 
COc1ccc(C[N-]C(=O)c2ccc(=O)n(C)c2)cc1OC

>  <Energy>  (85) 
43.625530312060754

>  <Genealogy>  (85) 
COc1ccc(C[N-]C(=O)c2ccc(=O)n(C)c2)cc1OC (protonated)
COc1ccc(C[N-]C(=O)c2ccc(=O)n(C)c2)cc1OC (3D coordinates assigned)
COc1ccc(C[N-]C(=O)c2ccc(=O)n(C)c2)cc1OC (optimized conformer: 43.625530312060754 kcal/mol)

>  <smiles>  (85) 
COc1ccc(CNC(=O)c2ccc(=O)n(C)c2)cc1OC

>  <score_type>  (85) 
oracle

>  <origin>  (85) 
adg

>  <m_score__min__energy>  (85) 
-8.25

>  <m_primary>  (85) 
energy

$$$$
85:0
     RDKit          3D

 31 33  0  0  0  0  0  0  0  0999 V2000
   54.7740   25.9810   45.8880 O   0  0  0  0  0  0  0  0  0  0  0  0
   56.0010   26.2380   45.9990 C   0  0  0  0  0  0  0  0  0  0  0  0
   56.9290   25.2320   46.4200 N   0  0  0  0  0  0  0  0  0  0  0  0
   58.3060   25.5860   46.7980 C   0  0  0  0  0  0  0  0  0  0  0  0
   58.8990   26.6860   45.8820 C   0  0  0  0  0  0  0  0  0  0  0  0
   57.8860   27.7760   45.6510 C   0  0  0  0  0  0  0  0  0  0  0  0
   56.5410   27.5480   45.6590 C   0  0  0  0  0  0  0  0  0  0  0  0
   55.8620   28.6310   45.2300 N   0  0  0  0  0  0  0  0  0  0  0  0
   56.8570   29.5100   44.9610 C   0  0  0  0  0  0  0  0  0  0  0  0
   56.6400   30.6630   44.5050 O   0  0  0  0  0  0  0  0  0  0  0  0
   58.1000   29.0250   45.2020 N   0  0  0  0  0  0  0  0  0  0  0  0
   59.3790   29.6640   44.8890 C   0  0  0  0  0  0  0  0  0  0  0  0
   59.7670   30.6410   46.0010 C   0  0  0  0  0  0  0  0  0  0  0  0
   58.9490   31.8950   45.9100 C   0  0  0  0  0  0  0  0  0  0  0  0
   58.2190   32.3550   47.0170 C   0  0  0  0  0  0  0  0  0  0  0  0
   57.4400   33.5070   46.8910 C   0  0  0  0  0  0  0  0  0  0  0  0
   57.3890   34.1830   45.6710 C   0  0  0  0  0  0  0  0  0  0  0  0
   58.1200   33.6900   44.5870 C   0  0  0  0  0  0  0  0  0  0  0  0
   58.8720   32.5660   44.7270 N   0  0  0  0  0  0  0  0  0  0  0  0
   58.3060   25.9509   47.8357 H   0  0  0  0  0  0  0  0  0  0  0  0
   58.9282   24.6852   46.6909 H   0  0  0  0  0  0  0  0  0  0  0  0
   59.7911   27.1154   46.3614 H   0  0  0  0  0  0  0  0  0  0  0  0
   59.1697   26.2383   44.9144 H   0  0  0  0  0  0  0  0  0  0  0  0
   60.1574   28.8925   44.7951 H   0  0  0  0  0  0  0  0  0  0  0  0
   59.2824   30.2167   43.9428 H   0  0  0  0  0  0  0  0  0  0  0  0
   59.5925   30.1654   46.9774 H   0  0  0  0  0  0  0  0  0  0  0  0
   60.8299   30.9016   45.8897 H   0  0  0  0  0  0  0  0  0  0  0  0
   58.2601   31.8137   47.9737 H   0  0  0  0  0  0  0  0  0  0  0  0
   56.8672   33.8813   47.7523 H   0  0  0  0  0  0  0  0  0  0  0  0
   56.7805   35.0931   45.5641 H   0  0  0  0  0  0  0  0  0  0  0  0
   58.0870   34.2119   43.6193 H   0  0  0  0  0  0  0  0  0  0  0  0
  1  2  2  0
  2  3  1  0
  3  4  1  0
  4  5  1  0
  5  6  1  0
  6  7  2  0
  7  8  1  0
  8  9  1  0
  9 10  2  0
  9 11  1  0
 11 12  1  0
 12 13  1  0
 13 14  1  0
 14 15  2  0
 15 16  1  0
 16 17  2  0
 17 18  1  0
 18 19  2  0
  7  2  1  0
 19 14  1  0
 11  6  1  0
  4 20  1  0
  4 21  1  0
  5 22  1  0
  5 23  1  0
 12 24  1  0
 12 25  1  0
 13 26  1  0
 13 27  1  0
 15 28  1  0
 16 29  1  0
 17 30  1  0
 18 31  1  0
M  CHG  2   3  -1   8  -1
M  END
>  <UniqueID>  (86) 
82

>  <SMILES>  (86) 
O=C1[N-]CCc2c1[n-]c(=O)n2CCc1ccccn1

>  <Energy>  (86) 
63.972036863653145

>  <Genealogy>  (86) 
O=C1[N-]CCc2c1[n-]c(=O)n2CCc1ccccn1 (protonated)
O=C1[N-]CCc2c1[n-]c(=O)n2CCc1ccccn1 (3D coordinates assigned)
O=C1[N-]CCc2c1[n-]c(=O)n2CCc1ccccn1 (nonaromatic ring conformer: 63.972036863653145 kcal/mol)

>  <smiles>  (86) 
O=C1NCCc2c1[nH]c(=O)n2CCc1ccccn1

>  <score_type>  (86) 
oracle

>  <origin>  (86) 
adg

>  <m_score__min__energy>  (86) 
-10.52

>  <m_primary>  (86) 
energy

$$$$
86:0
     RDKit          3D

 45 47  0  0  0  0  0  0  0  0999 V2000
   58.3249   25.8226   47.1476 H   0  0  0  0  0  0  0  0  0  0  0  0
   58.0010   26.5200   46.3610 C   0  0  0  0  0  0  0  0  0  0  0  0
   57.4600   25.9340   45.1100 C   0  0  0  0  0  0  0  0  0  0  0  0
   57.9470   26.2660   43.9960 O   0  0  0  0  0  0  0  0  0  0  0  0
   56.3240   24.9810   45.1390 C   0  0  0  0  0  0  0  0  0  0  0  0
   56.4980   23.6430   44.7370 C   0  0  0  0  0  0  0  0  0  0  0  0
   57.4841   23.3011   44.3897 H   0  0  0  0  0  0  0  0  0  0  0  0
   55.4270   22.7460   44.7760 C   0  0  0  0  0  0  0  0  0  0  0  0
   55.5724   21.7042   44.4543 H   0  0  0  0  0  0  0  0  0  0  0  0
   54.1730   23.1680   45.2220 C   0  0  0  0  0  0  0  0  0  0  0  0
   53.1100   22.2730   45.2610 O   0  0  0  0  0  0  0  0  0  0  0  0
   53.9880   24.4910   45.6310 C   0  0  0  0  0  0  0  0  0  0  0  0
   53.0005   24.8216   45.9853 H   0  0  0  0  0  0  0  0  0  0  0  0
   55.0530   25.3970   45.5920 C   0  0  0  0  0  0  0  0  0  0  0  0
   54.8350   26.7120   45.9910 O   0  0  0  0  0  0  0  0  0  0  0  0
   58.1270   27.8340   46.6100 C   0  0  0  0  0  0  0  0  0  0  0  0
   58.5449   28.1256   47.5849 H   0  0  0  0  0  0  0  0  0  0  0  0
   57.7500   28.9200   45.6810 C   0  0  0  0  0  0  0  0  0  0  0  0
   56.6090   28.7730   44.8800 C   0  0  0  0  0  0  0  0  0  0  0  0
   56.0215   27.8443   44.9288 H   0  0  0  0  0  0  0  0  0  0  0  0
   56.2150   29.8010   44.0200 C   0  0  0  0  0  0  0  0  0  0  0  0
   55.3323   29.6702   43.3768 H   0  0  0  0  0  0  0  0  0  0  0  0
   56.9390   30.9940   43.9750 C   0  0  0  0  0  0  0  0  0  0  0  0
   56.6346   31.7935   43.2836 H   0  0  0  0  0  0  0  0  0  0  0  0
   58.0560   31.1780   44.8100 C   0  0  0  0  0  0  0  0  0  0  0  0
   58.8130   32.3590   44.8040 O   0  0  0  0  0  0  0  0  0  0  0  0
   58.4050   33.5890   45.3350 C   0  0  0  0  0  0  0  0  0  0  0  0
   57.2240   33.7530   45.7510 O   0  0  0  0  0  0  0  0  0  0  0  0
   59.3980   34.6690   45.4540 C   0  0  0  0  0  0  0  0  0  0  0  0
   59.4513   35.4302   44.6617 H   0  0  0  0  0  0  0  0  0  0  0  0
   60.2400   34.7580   46.4940 C   0  0  0  0  0  0  0  0  0  0  0  0
   60.2592   35.6971   47.0664 H   0  0  0  0  0  0  0  0  0  0  0  0
   61.1470   33.6630   46.9170 C   0  0  0  0  0  0  0  0  0  0  0  0
   60.6730   32.4500   47.4590 C   0  0  0  0  0  0  0  0  0  0  0  0
   59.5920   32.2949   47.5904 H   0  0  0  0  0  0  0  0  0  0  0  0
   61.5700   31.4440   47.8300 C   0  0  0  0  0  0  0  0  0  0  0  0
   61.1924   30.5034   48.2573 H   0  0  0  0  0  0  0  0  0  0  0  0
   62.9440   31.6290   47.6600 C   0  0  0  0  0  0  0  0  0  0  0  0
   63.6473   30.8377   47.9589 H   0  0  0  0  0  0  0  0  0  0  0  0
   63.4240   32.8200   47.1100 C   0  0  0  0  0  0  0  0  0  0  0  0
   64.5057   32.9645   46.9719 H   0  0  0  0  0  0  0  0  0  0  0  0
   62.5320   33.8280   46.7350 C   0  0  0  0  0  0  0  0  0  0  0  0
   62.9164   34.7592   46.2934 H   0  0  0  0  0  0  0  0  0  0  0  0
   58.4560   30.1350   45.6560 C   0  0  0  0  0  0  0  0  0  0  0  0
   59.3321   30.2686   46.3076 H   0  0  0  0  0  0  0  0  0  0  0  0
  1  2  1  0
  2  3  1  0
  3  4  2  0
  3  5  1  0
  5  6  2  0
  6  7  1  0
  6  8  1  0
  8  9  1  0
  8 10  2  0
 10 11  1  0
 10 12  1  0
 12 13  1  0
 12 14  2  0
 14 15  1  0
  2 16  2  3
 16 17  1  0
 16 18  1  0
 18 19  2  0
 19 20  1  0
 19 21  1  0
 21 22  1  0
 21 23  2  0
 23 24  1  0
 23 25  1  0
 25 26  1  0
 26 27  1  0
 27 28  2  0
 27 29  1  0
 29 30  1  0
 29 31  2  0
 31 32  1  0
 31 33  1  0
 33 34  2  0
 34 35  1  0
 34 36  1  0
 36 37  1  0
 36 38  2  0
 38 39  1  0
 38 40  1  0
 40 41  1  0
 40 42  2  0
 42 43  1  0
 25 44  2  0
 44 45  1  0
 14  5  1  0
 44 18  1  0
 42 33  1  0
M  CHG  2  11  -1  15  -1
M  END
>  <UniqueID>  (87) 
83

>  <SMILES>  (87) 
O=C(/C=C/c1ccccc1)Oc1cccc(C=CC(=O)c2ccc([O-])cc2[O-])c1

>  <Energy>  (87) 
66.88220996841514

>  <Genealogy>  (87) 
O=C(C=Cc1ccccc1)Oc1cccc(C=CC(=O)c2ccc([O-])cc2[O-])c1 (protonated)
O=C(/C=C/c1ccccc1)Oc1cccc(C=CC(=O)c2ccc([O-])cc2[O-])c1 (cis-trans isomerization)
O=C(/C=C/c1ccccc1)Oc1cccc(C=CC(=O)c2ccc([O-])cc2[O-])c1 (3D coordinates assigned)
O=C(/C=C/c1ccccc1)Oc1cccc(C=CC(=O)c2ccc([O-])cc2[O-])c1 (optimized conformer: 66.88220996841514 kcal/mol)

>  <smiles>  (87) 
O=C(C=Cc1ccccc1)Oc1cccc(C=CC(=O)c2ccc(O)cc2O)c1

>  <score_type>  (87) 
oracle

>  <origin>  (87) 
adg

>  <m_score__min__energy>  (87) 
-15.32

>  <m_primary>  (87) 
energy

$$$$
87:0
     RDKit          3D

 64 67  0  0  0  0  0  0  0  0999 V2000
   59.5690   33.8160   50.4770 C   0  0  0  0  0  0  0  0  0  0  0  0
   59.9040   32.3510   50.4510 C   0  0  0  0  0  0  0  0  0  0  0  0
   58.9990   31.4200   50.9900 C   0  0  0  0  0  0  0  0  0  0  0  0
   59.2790   30.0520   50.9450 C   0  0  0  0  0  0  0  0  0  0  0  0
   60.4590   29.5980   50.3550 C   0  0  0  0  0  0  0  0  0  0  0  0
   61.3660   30.5110   49.8150 C   0  0  0  0  0  0  0  0  0  0  0  0
   61.1060   31.8890   49.8710 C   0  0  0  0  0  0  0  0  0  0  0  0
   62.0700   32.8050   49.3290 N   0  0  0  0  0  0  0  0  0  0  0  0
   63.0080   33.5010   50.2190 C   0  0  0  0  0  0  0  0  0  0  0  0
   64.2460   32.6760   50.4580 C   0  0  0  0  0  0  0  0  0  0  0  0
   65.4860   33.0920   49.9440 C   0  0  0  0  0  0  0  0  0  0  0  0
   66.6250   32.3030   50.1300 C   0  0  0  0  0  0  0  0  0  0  0  0
   66.5340   31.0930   50.8230 C   0  0  0  0  0  0  0  0  0  0  0  0
   65.3010   30.6680   51.3300 C   0  0  0  0  0  0  0  0  0  0  0  0
   64.1600   31.4540   51.1460 C   0  0  0  0  0  0  0  0  0  0  0  0
   62.2980   32.8610   47.6040 S   0  0  0  0  0  0  0  0  0  0  0  0
   62.7830   31.5160   47.1370 O   0  0  0  0  0  0  0  0  0  0  0  0
   63.3440   33.8940   47.2920 O   0  0  0  0  0  0  0  0  0  0  0  0
   60.8000   33.2560   46.7370 C   0  0  0  0  0  0  0  0  0  0  0  0
   60.5530   34.5890   46.3670 C   0  0  0  0  0  0  0  0  0  0  0  0
   59.3860   34.9380   45.6910 C   0  0  0  0  0  0  0  0  0  0  0  0
   58.4460   33.9630   45.3710 C   0  0  0  0  0  0  0  0  0  0  0  0
   58.6670   32.6350   45.7310 C   0  0  0  0  0  0  0  0  0  0  0  0
   59.8380   32.2580   46.4240 C   0  0  0  0  0  0  0  0  0  0  0  0
   60.0510   30.8760   46.7970 N   0  0  0  0  0  0  0  0  0  0  0  0
   59.2680   29.7510   46.2810 C   0  0  0  0  0  0  0  0  0  0  0  0
   59.6120   29.4810   44.8070 C   0  0  0  0  0  0  0  0  0  0  0  0
   58.3990   29.1770   44.0160 N   0  0  0  0  0  0  0  0  0  0  0  0
   57.4290   30.3010   44.0460 C   0  0  0  0  0  0  0  0  0  0  0  0
   55.9830   29.8060   43.8680 C   0  0  0  0  0  0  0  0  0  0  0  0
   55.5640   28.9140   44.8930 O   0  0  0  0  0  0  0  0  0  0  0  0
   56.6180   28.1180   45.4220 C   0  0  0  0  0  0  0  0  0  0  0  0
   57.7860   27.8940   44.4420 C   0  0  0  0  0  0  0  0  0  0  0  0
   59.4913   34.1559   51.5203 H   0  0  0  0  0  0  0  0  0  0  0  0
   60.3608   34.3823   49.9649 H   0  0  0  0  0  0  0  0  0  0  0  0
   58.6097   33.9819   49.9649 H   0  0  0  0  0  0  0  0  0  0  0  0
   58.0638   31.7711   51.4505 H   0  0  0  0  0  0  0  0  0  0  0  0
   58.5679   29.3316   51.3755 H   0  0  0  0  0  0  0  0  0  0  0  0
   60.6745   28.5200   50.3154 H   0  0  0  0  0  0  0  0  0  0  0  0
   62.2907   30.1482   49.3424 H   0  0  0  0  0  0  0  0  0  0  0  0
   63.2973   34.4571   49.7585 H   0  0  0  0  0  0  0  0  0  0  0  0
   62.5106   33.6709   51.1853 H   0  0  0  0  0  0  0  0  0  0  0  0
   65.5606   34.0414   49.3936 H   0  0  0  0  0  0  0  0  0  0  0  0
   67.5944   32.6352   49.7302 H   0  0  0  0  0  0  0  0  0  0  0  0
   67.4317   30.4745   50.9700 H   0  0  0  0  0  0  0  0  0  0  0  0
   65.2296   29.7145   51.8738 H   0  0  0  0  0  0  0  0  0  0  0  0
   63.1912   31.1146   51.5413 H   0  0  0  0  0  0  0  0  0  0  0  0
   61.2905   35.3667   46.6143 H   0  0  0  0  0  0  0  0  0  0  0  0
   59.2072   35.9863   45.4096 H   0  0  0  0  0  0  0  0  0  0  0  0
   57.5275   34.2409   44.8333 H   0  0  0  0  0  0  0  0  0  0  0  0
   57.9196   31.8706   45.4719 H   0  0  0  0  0  0  0  0  0  0  0  0
   60.8140   30.6320   47.4670 H   0  0  0  0  0  0  0  0  0  0  0  0
   59.4921   28.8525   46.8747 H   0  0  0  0  0  0  0  0  0  0  0  0
   58.1992   30.0002   46.3551 H   0  0  0  0  0  0  0  0  0  0  0  0
   60.1007   30.3714   44.3847 H   0  0  0  0  0  0  0  0  0  0  0  0
   60.2818   28.6096   44.7620 H   0  0  0  0  0  0  0  0  0  0  0  0
   57.5126   30.8190   45.0128 H   0  0  0  0  0  0  0  0  0  0  0  0
   57.6647   30.9812   43.2143 H   0  0  0  0  0  0  0  0  0  0  0  0
   55.3128   30.6782   43.8686 H   0  0  0  0  0  0  0  0  0  0  0  0
   55.9424   29.2530   42.9180 H   0  0  0  0  0  0  0  0  0  0  0  0
   57.0108   28.6167   46.3203 H   0  0  0  0  0  0  0  0  0  0  0  0
   56.1909   27.1280   45.6401 H   0  0  0  0  0  0  0  0  0  0  0  0
   58.5528   27.2792   44.9359 H   0  0  0  0  0  0  0  0  0  0  0  0
   57.3914   27.3890   43.5480 H   0  0  0  0  0  0  0  0  0  0  0  0
  1  2  1  0
  2  3  2  0
  3  4  1  0
  4  5  2  0
  5  6  1  0
  6  7  2  0
  7  8  1  0
  8  9  1  0
  9 10  1  0
 10 11  2  0
 11 12  1  0
 12 13  2  0
 13 14  1  0
 14 15  2  0
  8 16  1  0
 16 17  2  0
 16 18  2  0
 16 19  1  0
 19 20  2  0
 20 21  1  0
 21 22  2  0
 22 23  1  0
 23 24  2  0
 24 25  1  0
 25 26  1  0
 26 27  1  0
 27 28  1  0
 28 29  1  0
 29 30  1  0
 30 31  1  0
 31 32  1  0
 32 33  1  0
  7  2  1  0
 15 10  1  0
 24 19  1  0
 33 28  1  0
  1 34  1  0
  1 35  1  0
  1 36  1  0
  3 37  1  0
  4 38  1  0
  5 39  1  0
  6 40  1  0
  9 41  1  0
  9 42  1  0
 11 43  1  0
 12 44  1  0
 13 45  1  0
 14 46  1  0
 15 47  1  0
 20 48  1  0
 21 49  1  0
 22 50  1  0
 23 51  1  0
 25 52  1  0
 26 53  1  0
 26 54  1  0
 27 55  1  0
 27 56  1  0
 29 57  1  0
 29 58  1  0
 30 59  1  0
 30 60  1  0
 32 61  1  0
 32 62  1  0
 33 63  1  0
 33 64  1  0
M  END
>  <UniqueID>  (88) 
84

>  <SMILES>  (88) 
Cc1ccccc1N(Cc1ccccc1)S(=O)(=O)c1ccccc1NCCN1CCOCC1

>  <Energy>  (88) 
87.64769511605652

>  <Genealogy>  (88) 
Cc1ccccc1N(Cc1ccccc1)S(=O)(=O)c1ccccc1NCCN1CCOCC1 (3D coordinates assigned)
Cc1ccccc1N(Cc1ccccc1)S(=O)(=O)c1ccccc1NCCN1CCOCC1 (nonaromatic ring conformer: 87.64769511605652 kcal/mol)

>  <smiles>  (88) 
Cc1ccccc1N(Cc1ccccc1)S(=O)(=O)c1ccccc1NCCN1CCOCC1

>  <score_type>  (88) 
oracle

>  <origin>  (88) 
adg

>  <m_score__min__energy>  (88) 
-8.7300000000000004

>  <m_primary>  (88) 
energy

$$$$
88:0
     RDKit          3D

 68 71  0  0  0  0  0  0  0  0999 V2000
   59.6270   32.2750   46.3170 C   0  0  0  0  0  0  0  0  0  0  0  0
   60.3560   33.5450   45.8650 C   0  0  0  0  0  0  0  0  0  0  0  0
   59.3590   34.6760   45.5920 C   0  0  0  0  0  0  0  0  0  0  0  0
   61.3720   33.9730   46.8980 C   0  0  0  0  0  0  0  0  0  0  0  0
   62.5520   34.2310   46.5320 O   0  0  0  0  0  0  0  0  0  0  0  0
   61.0460   34.0190   48.2990 N   0  0  0  0  0  0  0  0  0  0  0  0
   61.9040   33.3460   49.2730 C   0  0  0  0  0  0  0  0  0  0  0  0
   61.1780   32.1050   49.7980 C   0  0  0  0  0  0  0  0  0  0  0  0
   59.8010   32.4330   50.1960 N   0  0  0  0  0  0  0  0  0  0  0  0
   59.1600   31.5690   51.1480 C   0  0  0  0  0  0  0  0  0  0  0  0
   59.0890   31.9620   52.4920 C   0  0  0  0  0  0  0  0  0  0  0  0
   58.4880   31.1280   53.4390 C   0  0  0  0  0  0  0  0  0  0  0  0
   57.9400   29.8940   53.0530 C   0  0  0  0  0  0  0  0  0  0  0  0
   57.3080   29.0140   54.0620 C   0  0  0  0  0  0  0  0  0  0  0  0
   58.0020   28.5660   55.0130 O   0  0  0  0  0  0  0  0  0  0  0  0
   55.9360   28.6090   53.9520 N   0  0  0  0  0  0  0  0  0  0  0  0
   54.9170   29.2980   53.2120 C   0  0  0  0  0  0  0  0  0  0  0  0
   55.1460   30.5660   52.6490 C   0  0  0  0  0  0  0  0  0  0  0  0
   54.1140   31.2360   51.9870 C   0  0  0  0  0  0  0  0  0  0  0  0
   52.8500   30.6500   51.8790 C   0  0  0  0  0  0  0  0  0  0  0  0
   51.4400   31.5730   50.9830 Br  0  0  0  0  0  0  0  0  0  0  0  0
   52.6180   29.3910   52.4380 C   0  0  0  0  0  0  0  0  0  0  0  0
   53.6440   28.7240   53.1130 C   0  0  0  0  0  0  0  0  0  0  0  0
   58.0390   29.4850   51.7110 C   0  0  0  0  0  0  0  0  0  0  0  0
   58.6620   30.3090   50.7590 C   0  0  0  0  0  0  0  0  0  0  0  0
   58.8320   29.8850   49.4010 N   0  0  0  0  0  0  0  0  0  0  0  0
   60.1250   28.9140   48.7910 S   0  0  0  0  0  0  0  0  0  0  0  0
   60.4940   27.8530   49.7890 O   0  0  0  0  0  0  0  0  0  0  0  0
   61.3240   29.7740   48.5010 O   0  0  0  0  0  0  0  0  0  0  0  0
   59.5580   28.1860   47.2930 C   0  0  0  0  0  0  0  0  0  0  0  0
   60.0570   28.6420   46.0610 C   0  0  0  0  0  0  0  0  0  0  0  0
   59.5360   28.1450   44.8630 C   0  0  0  0  0  0  0  0  0  0  0  0
   58.4990   27.2090   44.8860 C   0  0  0  0  0  0  0  0  0  0  0  0
   57.9810   26.7600   46.1120 C   0  0  0  0  0  0  0  0  0  0  0  0
   56.6430   25.6170   46.1210 S   0  0  0  0  0  0  0  0  0  0  0  0
   55.1470   26.4810   46.1090 N   0  0  0  0  0  0  0  0  0  0  0  0
   56.7110   24.7240   44.9150 O   0  0  0  0  0  0  0  0  0  0  0  0
   56.7280   24.7690   47.3560 O   0  0  0  0  0  0  0  0  0  0  0  0
   58.5170   27.2450   47.3150 C   0  0  0  0  0  0  0  0  0  0  0  0
   58.9590   33.2570   49.3120 C   0  0  0  0  0  0  0  0  0  0  0  0
   59.7360   34.4630   48.7840 C   0  0  0  0  0  0  0  0  0  0  0  0
   59.6049   32.2364   47.4161 H   0  0  0  0  0  0  0  0  0  0  0  0
   58.5975   32.2856   45.9297 H   0  0  0  0  0  0  0  0  0  0  0  0
   60.1554   31.3914   45.9297 H   0  0  0  0  0  0  0  0  0  0  0  0
   60.8870   33.3195   44.9284 H   0  0  0  0  0  0  0  0  0  0  0  0
   58.9982   35.0853   46.5472 H   0  0  0  0  0  0  0  0  0  0  0  0
   59.8553   35.4713   45.0164 H   0  0  0  0  0  0  0  0  0  0  0  0
   58.5078   34.2834   45.0164 H   0  0  0  0  0  0  0  0  0  0  0  0
   62.8461   33.0464   48.7906 H   0  0  0  0  0  0  0  0  0  0  0  0
   62.1280   34.0277   50.1067 H   0  0  0  0  0  0  0  0  0  0  0  0
   61.1522   31.3410   49.0070 H   0  0  0  0  0  0  0  0  0  0  0  0
   61.7183   31.7274   50.6786 H   0  0  0  0  0  0  0  0  0  0  0  0
   59.5080   32.9306   52.8024 H   0  0  0  0  0  0  0  0  0  0  0  0
   58.4440   31.4401   54.4929 H   0  0  0  0  0  0  0  0  0  0  0  0
   56.1395   31.0313   52.7299 H   0  0  0  0  0  0  0  0  0  0  0  0
   54.2972   32.2284   51.5492 H   0  0  0  0  0  0  0  0  0  0  0  0
   51.6263   28.9239   52.3468 H   0  0  0  0  0  0  0  0  0  0  0  0
   53.4501   27.7420   53.5693 H   0  0  0  0  0  0  0  0  0  0  0  0
   57.6256   28.5128   51.4046 H   0  0  0  0  0  0  0  0  0  0  0  0
   60.8606   29.3928   46.0394 H   0  0  0  0  0  0  0  0  0  0  0  0
   59.9427   28.4911   43.9013 H   0  0  0  0  0  0  0  0  0  0  0  0
   58.0873   26.8228   43.9419 H   0  0  0  0  0  0  0  0  0  0  0  0
   55.1380   27.0660   45.2420 H   0  0  0  0  0  0  0  0  0  0  0  0
   58.1206   26.8870   48.2766 H   0  0  0  0  0  0  0  0  0  0  0  0
   58.6233   32.6450   48.4618 H   0  0  0  0  0  0  0  0  0  0  0  0
   58.0961   33.6211   49.8890 H   0  0  0  0  0  0  0  0  0  0  0  0
   59.1767   34.9282   47.9589 H   0  0  0  0  0  0  0  0  0  0  0  0
   59.8710   35.1975   49.5917 H   0  0  0  0  0  0  0  0  0  0  0  0
  1  2  1  0
  2  3  1  0
  2  4  1  0
  4  5  2  0
  4  6  1  0
  6  7  1  0
  7  8  1  0
  8  9  1  0
  9 10  1  0
 10 11  2  0
 11 12  1  0
 12 13  2  0
 13 14  1  0
 14 15  2  0
 14 16  1  0
 16 17  1  0
 17 18  2  0
 18 19  1  0
 19 20  2  0
 20 21  1  0
 20 22  1  0
 22 23  2  0
 13 24  1  0
 24 25  2  0
 25 26  1  0
 26 27  1  0
 27 28  2  0
 27 29  2  0
 27 30  1  0
 30 31  2  0
 31 32  1  0
 32 33  2  0
 33 34  1  0
 34 35  1  0
 35 36  1  0
 35 37  2  0
 35 38  2  0
 34 39  2  0
  9 40  1  0
 40 41  1  0
 41  6  1  0
 25 10  1  0
 39 30  1  0
 23 17  1  0
  1 42  1  0
  1 43  1  0
  1 44  1  0
  2 45  1  0
  3 46  1  0
  3 47  1  0
  3 48  1  0
  7 49  1  0
  7 50  1  0
  8 51  1  0
  8 52  1  0
 11 53  1  0
 12 54  1  0
 18 55  1  0
 19 56  1  0
 22 57  1  0
 23 58  1  0
 24 59  1  0
 31 60  1  0
 32 61  1  0
 33 62  1  0
 36 63  1  0
 39 64  1  0
 40 65  1  0
 40 66  1  0
 41 67  1  0
 41 68  1  0
M  CHG  3  16  -1  26  -1  36  -1
M  END
>  <UniqueID>  (89) 
85

>  <SMILES>  (89) 
CC(C)C(=O)N1CCN(c2ccc(C(=O)[N-]c3ccc(Br)cc3)cc2[N-]S(=O)(=O)c2cccc(S([NH-])(=O)=O)c2)CC1

>  <Energy>  (89) 
82.44643920306501

>  <Genealogy>  (89) 
CC(C)C(=O)N1CCN(c2ccc(C(=O)[N-]c3ccc(Br)cc3)cc2[N-]S(=O)(=O)c2cccc(S([NH-])(=O)=O)c2)CC1 (protonated)
CC(C)C(=O)N1CCN(c2ccc(C(=O)[N-]c3ccc(Br)cc3)cc2[N-]S(=O)(=O)c2cccc(S([NH-])(=O)=O)c2)CC1 (3D coordinates assigned)
CC(C)C(=O)N1CCN(c2ccc(C(=O)[N-]c3ccc(Br)cc3)cc2[N-]S(=O)(=O)c2cccc(S([NH-])(=O)=O)c2)CC1 (nonaromatic ring conformer: 82.44643920306501 kcal/mol)

>  <smiles>  (89) 
CC(C)C(=O)N1CCN(c2ccc(C(=O)Nc3ccc(Br)cc3)cc2NS(=O)(=O)c2cccc(S(N)(=O)=O)c2)CC1

>  <score_type>  (89) 
oracle

>  <origin>  (89) 
adg

>  <m_score__min__energy>  (89) 
-14.73

>  <m_primary>  (89) 
energy

$$$$
89:0
     RDKit          3D

 48 51  0  0  1  0  0  0  0  0999 V2000
   63.2970   33.9240   46.3680 C   0  0  0  0  0  0  0  0  0  0  0  0
   62.4950   33.7700   47.5930 C   0  0  0  0  0  0  0  0  0  0  0  0
   63.0990   33.8360   48.8460 C   0  0  0  0  0  0  0  0  0  0  0  0
   62.3470   33.6930   49.9830 C   0  0  0  0  0  0  0  0  0  0  0  0
   60.9770   33.4800   49.9130 C   0  0  0  0  0  0  0  0  0  0  0  0
   60.2350   33.3370   51.0670 O   0  0  0  0  0  0  0  0  0  0  0  0
   59.3080   32.3120   51.1780 C   0  0  0  0  0  0  0  0  0  0  0  0
   58.1990   32.3720   51.9920 C   0  0  0  0  0  0  0  0  0  0  0  0
   57.7010   31.6780   42.9230 C   0  0  0  0  0  0  0  0  0  0  0  0
   58.3580   32.8030   43.0790 N   0  0  0  0  0  0  0  0  0  0  0  0
   58.3590   33.4220   44.2230 C   0  0  0  0  0  0  0  0  0  0  0  0
   58.9360   34.5160   44.5520 N   0  0  0  0  0  0  0  0  0  0  0  0
   59.2490   29.2290   48.3110 C   0  0  0  0  0  0  0  0  0  0  0  0
   58.5290   28.3900   47.4810 C   0  0  0  0  0  0  0  0  0  0  0  0
   58.7210   28.4340   46.1130 C   0  0  0  0  0  0  0  0  0  0  0  0
   59.6460   29.3290   45.5770 C   0  0  0  0  0  0  0  0  0  0  0  0
   59.7870   29.3210   44.2300 F   0  0  0  0  0  0  0  0  0  0  0  0
   60.3680   30.1700   46.4070 C   0  0  0  0  0  0  0  0  0  0  0  0
   60.1680   30.1200   47.7880 C   0  0  0  0  0  0  0  0  0  0  0  0
   59.5560   31.2080   50.4160 N   0  0  0  0  0  0  0  0  0  0  0  0
   60.4050   33.4190   48.6490 C   0  0  0  0  0  0  0  0  0  0  0  0
   61.1400   33.5600   47.4970 C   0  0  0  0  0  0  0  0  0  0  0  0
   60.4390   33.4780   46.2640 N   0  0  0  0  0  0  0  0  0  0  0  0
   59.6580   34.5710   45.8000 C   0  0  0  0  0  0  0  0  0  0  0  0
   59.6170   35.6030   46.5240 O   0  0  0  0  0  0  0  0  0  0  0  0
   58.9970   29.1290   49.7080 N   0  0  0  0  0  0  0  0  0  0  0  0
   58.7370   30.1550   50.4350 C   0  0  0  0  0  0  0  0  0  0  0  0
   57.6430   30.1860   51.2250 N   0  0  0  0  0  0  0  0  0  0  0  0
   57.3650   31.2600   51.9920 C   0  0  0  0  0  0  0  0  0  0  0  0
   57.0220   31.1860   44.0080 C   0  0  0  0  0  0  0  0  0  0  0  0
   56.0410   29.7780   44.2840 Cl  0  0  0  0  0  0  0  0  0  0  0  0
   57.3790   32.4670   45.3330 S   0  0  0  0  0  0  0  0  0  0  0  0
   64.3442   34.1251   46.6382 H   0  0  0  0  0  0  0  0  0  0  0  0
   63.2424   32.9990   45.7753 H   0  0  0  0  0  0  0  0  0  0  0  0
   62.9037   34.7630   45.7753 H   0  0  0  0  0  0  0  0  0  0  0  0
   64.1834   34.0035   48.9236 H   0  0  0  0  0  0  0  0  0  0  0  0
   62.8368   33.7479   50.9664 H   0  0  0  0  0  0  0  0  0  0  0  0
   57.9839   33.2554   52.6111 H   0  0  0  0  0  0  0  0  0  0  0  0
   57.6951   31.1495   41.9583 H   0  0  0  0  0  0  0  0  0  0  0  0
   58.9110   33.2250   42.2340 H   0  0  0  0  0  0  0  0  0  0  0  0
   57.8014   27.6856   47.9105 H   0  0  0  0  0  0  0  0  0  0  0  0
   58.1480   27.7675   45.4516 H   0  0  0  0  0  0  0  0  0  0  0  0
   61.0965   30.8749   45.9799 H   0  0  0  0  0  0  0  0  0  0  0  0
   60.7372   30.7844   48.4548 H   0  0  0  0  0  0  0  0  0  0  0  0
   59.3210   33.2512   48.5670 H   0  0  0  0  0  0  0  0  0  0  0  0
   60.5090   32.6000   45.7060 H   0  0  0  0  0  0  0  0  0  0  0  0
   56.9990   29.3650   51.2430 H   0  0  0  0  0  0  0  0  0  0  0  0
   56.4662   31.2559   52.6261 H   0  0  0  0  0  0  0  0  0  0  0  0
  1  2  1  0
  2  3  2  0
  3  4  1  0
  4  5  2  0
  5  6  1  0
  6  7  1  0
  7  8  1  0
  8  9  2  0
  9 10  1  0
 10 11  1  0
 11 12  2  0
 12 13  1  0
 13 14  2  0
 14 15  1  0
 15 16  2  0
 16 17  1  0
 16 18  1  0
 18 19  2  0
 11 20  1  0
  5 21  1  0
 21 22  2  0
 22 23  1  0
 23 24  1  0
 24 25  2  0
 24 26  1  0
 26 27  2  0
 27 28  1  0
 28 29  1  0
 29 30  2  0
 30 31  1  0
 30 32  1  0
 22  2  1  0
 32 27  1  0
 20  7  2  0
 19 13  1  0
  1 33  1  0
  1 34  1  0
  1 35  1  0
  3 36  1  0
  4 37  1  0
  8 38  1  0
  9 39  1  0
 10 40  1  0
 14 41  1  0
 15 42  1  0
 18 43  1  0
 19 44  1  0
 21 45  1  0
 23 46  1  0
 28 47  1  0
 29 48  1  0
M  END
>  <smiles>  (90) 
Cc1ccc(Oc2cc[nH]c(=Nc3ccc(F)cc3)n2)cc1NC(=O)N=c1[nH]cc(Cl)s1

>  <score_type>  (90) 
oracle

>  <origin>  (90) 
adg

>  <m_score__min__energy>  (90) 
-9.1199999999999992

>  <m_primary>  (90) 
energy

$$$$
90:0
     RDKit          3D

 53 56  0  0  0  0  0  0  0  0999 V2000
   62.9550   31.2160   48.9670 O   0  0  0  0  0  0  0  0  0  0  0  0
   61.6970   31.2590   48.9230 C   0  0  0  0  0  0  0  0  0  0  0  0
   60.9970   32.5850   48.8510 C   0  0  0  0  0  0  0  0  0  0  0  0
   59.5600   32.4390   48.5600 N   0  0  0  0  0  0  0  0  0  0  0  0
   59.2160   33.0370   47.2890 C   0  0  0  0  0  0  0  0  0  0  0  0
   58.6360   32.2530   46.2760 C   0  0  0  0  0  0  0  0  0  0  0  0
   58.3310   32.8070   45.0210 C   0  0  0  0  0  0  0  0  0  0  0  0
   57.7550   31.9510   43.9240 C   0  0  0  0  0  0  0  0  0  0  0  0
   57.2990   30.6230   44.4680 C   0  0  0  0  0  0  0  0  0  0  0  0
   55.9620   30.3670   44.5010 N   0  0  0  0  0  0  0  0  0  0  0  0
   55.4750   29.1890   44.8950 N   0  0  0  0  0  0  0  0  0  0  0  0
   56.2880   28.1720   45.2710 C   0  0  0  0  0  0  0  0  0  0  0  0
   55.7800   27.0700   45.6210 O   0  0  0  0  0  0  0  0  0  0  0  0
   57.6800   28.3590   45.2670 C   0  0  0  0  0  0  0  0  0  0  0  0
   58.1990   29.6050   44.8530 C   0  0  0  0  0  0  0  0  0  0  0  0
   59.6260   29.8160   44.8570 N   0  0  0  0  0  0  0  0  0  0  0  0
   60.5510   28.6960   44.9880 C   0  0  0  0  0  0  0  0  0  0  0  0
   60.0090   27.7040   46.0200 C   0  0  0  0  0  0  0  0  0  0  0  0
   58.6120   27.2150   45.6070 C   0  0  0  0  0  0  0  0  0  0  0  0
   58.5740   34.1720   44.7970 C   0  0  0  0  0  0  0  0  0  0  0  0
   59.1390   34.9620   45.8020 C   0  0  0  0  0  0  0  0  0  0  0  0
   59.4690   34.4010   47.0390 C   0  0  0  0  0  0  0  0  0  0  0  0
   60.0240   35.1930   47.9940 F   0  0  0  0  0  0  0  0  0  0  0  0
   60.9190   30.0520   48.9970 N   0  0  0  0  0  0  0  0  0  0  0  0
   60.5560   29.3860   50.2160 C   0  0  0  0  0  0  0  0  0  0  0  0
   61.1110   28.1210   50.4580 C   0  0  0  0  0  0  0  0  0  0  0  0
   60.8350   27.4350   51.6430 C   0  0  0  0  0  0  0  0  0  0  0  0
   59.9950   28.0080   52.6010 C   0  0  0  0  0  0  0  0  0  0  0  0
   59.4130   29.2600   52.3680 C   0  0  0  0  0  0  0  0  0  0  0  0
   59.6590   29.9510   51.1670 C   0  0  0  0  0  0  0  0  0  0  0  0
   58.9150   31.2040   50.9190 C   0  0  0  0  0  0  0  0  0  0  0  0
   59.3040   32.2920   51.4220 O   0  0  0  0  0  0  0  0  0  0  0  0
   57.8050   31.2050   50.0820 O   0  0  0  0  0  0  0  0  0  0  0  0
   61.1128   33.0999   49.8161 H   0  0  0  0  0  0  0  0  0  0  0  0
   61.4509   33.1632   48.0327 H   0  0  0  0  0  0  0  0  0  0  0  0
   59.3330   31.4180   48.5250 H   0  0  0  0  0  0  0  0  0  0  0  0
   58.9910   32.8480   49.3380 H   0  0  0  0  0  0  0  0  0  0  0  0
   58.4181   31.1921   46.4684 H   0  0  0  0  0  0  0  0  0  0  0  0
   56.8964   32.4707   43.4738 H   0  0  0  0  0  0  0  0  0  0  0  0
   58.5340   31.7744   43.1677 H   0  0  0  0  0  0  0  0  0  0  0  0
   60.0270   30.7820   44.8710 H   0  0  0  0  0  0  0  0  0  0  0  0
   60.6569   28.1924   44.0158 H   0  0  0  0  0  0  0  0  0  0  0  0
   61.5324   29.0679   45.3174 H   0  0  0  0  0  0  0  0  0  0  0  0
   60.6897   26.8426   46.0877 H   0  0  0  0  0  0  0  0  0  0  0  0
   59.9383   28.2060   46.9962 H   0  0  0  0  0  0  0  0  0  0  0  0
   58.7111   26.5653   44.7249 H   0  0  0  0  0  0  0  0  0  0  0  0
   58.1800   26.6711   46.4600 H   0  0  0  0  0  0  0  0  0  0  0  0
   58.3185   34.6214   43.8261 H   0  0  0  0  0  0  0  0  0  0  0  0
   59.3249   36.0306   45.6186 H   0  0  0  0  0  0  0  0  0  0  0  0
   61.7711   27.6639   49.7061 H   0  0  0  0  0  0  0  0  0  0  0  0
   61.2787   26.4444   51.8218 H   0  0  0  0  0  0  0  0  0  0  0  0
   59.7903   27.4742   53.5408 H   0  0  0  0  0  0  0  0  0  0  0  0
   58.7579   29.7072   53.1302 H   0  0  0  0  0  0  0  0  0  0  0  0
  1  2  2  0
  2  3  1  0
  3  4  1  0
  4  5  1  0
  5  6  2  0
  6  7  1  0
  7  8  1  0
  8  9  1  0
  9 10  2  0
 10 11  1  0
 11 12  1  0
 12 13  2  0
 12 14  1  0
 14 15  2  0
 15 16  1  0
 16 17  1  0
 17 18  1  0
 18 19  1  0
  7 20  2  0
 20 21  1  0
 21 22  2  0
 22 23  1  0
  2 24  1  0
 24 25  1  0
 25 26  2  0
 26 27  1  0
 27 28  2  0
 28 29  1  0
 29 30  2  0
 30 31  1  0
 31 32  2  0
 31 33  1  0
 22  5  1  0
 30 25  1  0
 15  9  1  0
 19 14  1  0
  3 34  1  0
  3 35  1  0
  4 36  1  0
  4 37  1  0
  6 38  1  0
  8 39  1  0
  8 40  1  0
 16 41  1  0
 17 42  1  0
 17 43  1  0
 18 44  1  0
 18 45  1  0
 19 46  1  0
 19 47  1  0
 20 48  1  0
 21 49  1  0
 26 50  1  0
 27 51  1  0
 28 52  1  0
 29 53  1  0
M  CHG  4   4   1  11  -1  24  -1  33  -1
M  END
>  <UniqueID>  (91) 
86

>  <SMILES>  (91) 
O=C(C[NH2+]c1cc(Cc2n[n-]c(=O)c3c2NCCC3)ccc1F)[N-]c1ccccc1C(=O)[O-]

>  <Energy>  (91) 
67.54354142966592

>  <Genealogy>  (91) 
O=C(C[NH2+]c1cc(Cc2n[n-]c(=O)c3c2NCCC3)ccc1F)[N-]c1ccccc1C(=O)[O-] (protonated)
O=C(C[NH2+]c1cc(Cc2n[n-]c(=O)c3c2NCCC3)ccc1F)[N-]c1ccccc1C(=O)[O-] (3D coordinates assigned)
O=C(C[NH2+]c1cc(Cc2n[n-]c(=O)c3c2NCCC3)ccc1F)[N-]c1ccccc1C(=O)[O-] (nonaromatic ring conformer: 67.54354142966592 kcal/mol)

>  <smiles>  (91) 
O=C(CNc1cc(Cc2n[nH]c(=O)c3c2NCCC3)ccc1F)Nc1ccccc1C(=O)O

>  <score_type>  (91) 
oracle

>  <origin>  (91) 
adg

>  <m_score__min__energy>  (91) 
-13.720000000000001

>  <m_primary>  (91) 
energy

$$$$
91:0
     RDKit          3D

 62 65  0  0  0  0  0  0  0  0999 V2000
   62.7104   34.5653   50.9309 H   0  0  0  0  0  0  0  0  0  0  0  0
   62.6730   33.8420   50.1030 C   0  0  0  0  0  0  0  0  0  0  0  0
   62.3220   32.5520   50.3450 N   0  0  0  0  0  0  0  0  0  0  0  0
   62.2600   31.6160   49.3580 C   0  0  0  0  0  0  0  0  0  0  0  0
   61.9150   30.4000   49.6790 N   0  0  0  0  0  0  0  0  0  0  0  0
   60.5890   29.8530   49.7260 C   0  0  0  0  0  0  0  0  0  0  0  0
   60.0560   29.6450   50.8470 O   0  0  0  0  0  0  0  0  0  0  0  0
   59.7990   29.6170   48.5020 C   0  0  0  0  0  0  0  0  0  0  0  0
   58.4520   29.6330   48.4670 N   0  0  0  0  0  0  0  0  0  0  0  0
   58.1030   29.4190   47.2310 O   0  0  0  0  0  0  0  0  0  0  0  0
   59.1560   29.2610   46.4630 C   0  0  0  0  0  0  0  0  0  0  0  0
   59.1250   29.0240   44.9780 C   0  0  2  0  0  0  0  0  0  0  0  0
   59.9250   29.6713   44.5894 H   0  0  0  0  0  0  0  0  0  0  0  0
   57.8260   29.3480   44.4100 N   0  0  0  0  0  0  0  0  0  0  0  0
   57.2640   30.6610   44.4840 C   0  0  0  0  0  0  0  0  0  0  0  0
   56.0640   30.8070   44.8400 O   0  0  0  0  0  0  0  0  0  0  0  0
   58.0820   31.8030   44.2130 N   0  0  0  0  0  0  0  0  0  0  0  0
   57.6910   33.1610   44.5720 C   0  0  0  0  0  0  0  0  0  0  0  0
   57.9974   33.8515   43.7724 H   0  0  0  0  0  0  0  0  0  0  0  0
   56.5993   33.1997   44.7011 H   0  0  0  0  0  0  0  0  0  0  0  0
   58.3560   33.5660   45.8630 C   0  0  0  0  0  0  0  0  0  0  0  0
   58.1370   32.8220   47.0340 C   0  0  0  0  0  0  0  0  0  0  0  0
   57.4232   31.9851   47.0233 H   0  0  0  0  0  0  0  0  0  0  0  0
   58.8220   33.1380   48.2180 C   0  0  0  0  0  0  0  0  0  0  0  0
   58.5640   32.3510   49.4730 C   0  0  0  0  0  0  0  0  0  0  0  0
   57.5887   32.6396   49.8918 H   0  0  0  0  0  0  0  0  0  0  0  0
   58.5602   31.2769   49.2357 H   0  0  0  0  0  0  0  0  0  0  0  0
   59.6160   32.6280   50.4530 N   0  0  0  0  0  0  0  0  0  0  0  0
   60.2750   31.8140   50.4590 H   0  0  0  0  0  0  0  0  0  0  0  0
   58.9290   32.7260   52.0470 S   0  0  0  0  0  0  0  0  0  0  0  0
   58.5760   34.1510   52.3770 O   0  0  0  0  0  0  0  0  0  0  0  0
   57.6810   31.8900   52.0910 O   0  0  0  0  0  0  0  0  0  0  0  0
   60.0790   32.1030   53.2560 C   0  0  0  0  0  0  0  0  0  0  0  0
   59.6968   32.3101   54.2665 H   0  0  0  0  0  0  0  0  0  0  0  0
   60.1974   31.0174   53.1241 H   0  0  0  0  0  0  0  0  0  0  0  0
   61.0531   32.5968   53.1241 H   0  0  0  0  0  0  0  0  0  0  0  0
   59.7050   34.2270   48.2350 C   0  0  0  0  0  0  0  0  0  0  0  0
   60.2240   34.4973   49.1664 H   0  0  0  0  0  0  0  0  0  0  0  0
   59.9280   34.9700   47.0730 C   0  0  0  0  0  0  0  0  0  0  0  0
   60.6303   35.8164   47.0904 H   0  0  0  0  0  0  0  0  0  0  0  0
   59.2620   34.6420   45.8880 C   0  0  0  0  0  0  0  0  0  0  0  0
   59.5080   35.3630   44.7650 F   0  0  0  0  0  0  0  0  0  0  0  0
   57.3900   28.3680   43.4290 C   0  0  0  0  0  0  0  0  0  0  0  0
   57.2467   28.8448   42.4481 H   0  0  0  0  0  0  0  0  0  0  0  0
   56.4290   27.9123   43.7098 H   0  0  0  0  0  0  0  0  0  0  0  0
   58.5060   27.3300   43.3580 C   0  0  0  0  0  0  0  0  0  0  0  0
   59.0976   27.4661   42.4407 H   0  0  0  0  0  0  0  0  0  0  0  0
   58.1050   26.3059   43.3367 H   0  0  0  0  0  0  0  0  0  0  0  0
   59.3760   27.5670   44.5920 C   0  0  0  0  0  0  0  0  0  0  0  0
   60.4378   27.4076   44.3530 H   0  0  0  0  0  0  0  0  0  0  0  0
   59.1303   26.8742   45.4104 H   0  0  0  0  0  0  0  0  0  0  0  0
   60.2920   29.3920   47.2330 C   0  0  0  0  0  0  0  0  0  0  0  0
   61.3424   29.3315   46.9119 H   0  0  0  0  0  0  0  0  0  0  0  0
   62.6050   31.9880   48.0410 C   0  0  0  0  0  0  0  0  0  0  0  0
   62.6087   31.2368   47.2374 H   0  0  0  0  0  0  0  0  0  0  0  0
   62.9430   33.3200   47.7620 C   0  0  0  0  0  0  0  0  0  0  0  0
   63.3290   33.7260   46.3720 C   0  0  0  0  0  0  0  0  0  0  0  0
   64.0862   34.5225   46.4196 H   0  0  0  0  0  0  0  0  0  0  0  0
   63.7430   32.8579   45.8381 H   0  0  0  0  0  0  0  0  0  0  0  0
   62.4411   34.0956   45.8381 H   0  0  0  0  0  0  0  0  0  0  0  0
   62.9860   34.2510   48.8070 C   0  0  0  0  0  0  0  0  0  0  0  0
   63.2644   35.2963   48.6074 H   0  0  0  0  0  0  0  0  0  0  0  0
  1  2  1  0
  2  3  1  0
  3  4  1  0
  4  5  2  0
  5  6  1  0
  6  7  2  0
  6  8  1  0
  8  9  2  0
  9 10  1  0
 10 11  1  0
 11 12  1  0
 12 13  1  6
 12 14  1  0
 14 15  1  0
 15 16  2  0
 15 17  1  0
 17 18  1  0
 18 19  1  0
 18 20  1  0
 18 21  1  0
 21 22  2  0
 22 23  1  0
 22 24  1  0
 24 25  1  0
 25 26  1  0
 25 27  1  0
 25 28  1  0
 28 29  1  0
 28 30  1  0
 30 31  2  0
 30 32  2  0
 30 33  1  0
 33 34  1  0
 33 35  1  0
 33 36  1  0
 24 37  2  0
 37 38  1  0
 37 39  1  0
 39 40  1  0
 39 41  2  0
 41 42  1  0
 14 43  1  0
 43 44  1  0
 43 45  1  0
 43 46  1  0
 46 47  1  0
 46 48  1  0
 46 49  1  0
 49 50  1  0
 49 51  1  0
 11 52  2  0
 52 53  1  0
  4 54  1  0
 54 55  1  0
 54 56  2  0
 56 57  1  0
 57 58  1  0
 57 59  1  0
 57 60  1  0
 56 61  1  0
 61 62  1  0
 61  2  2  0
 52  8  1  0
 49 12  1  0
 41 21  1  0
M  CHG  2   3  -1  17  -1
M  END
>  <UniqueID>  (92) 
87

>  <SMILES>  (92) 
Cc1cc[n-]/c(=N/C(=O)c2cc([C@H]3CCCN3C(=O)[N-]Cc3cc(CNS(C)(=O)=O)ccc3F)on2)c1

>  <Energy>  (92) 
95.66719715651212

>  <Genealogy>  (92) 
Cc1cc[n-]c(=NC(=O)c2cc(C3CCCN3C(=O)[N-]Cc3cc(CNS(C)(=O)=O)ccc3F)on2)c1 (protonated)
Cc1cc[n-]c(=NC(=O)c2cc([C@H]3CCCN3C(=O)[N-]Cc3cc(CNS(C)(=O)=O)ccc3F)on2)c1 (chirality)
Cc1cc[n-]/c(=N/C(=O)c2cc([C@H]3CCCN3C(=O)[N-]Cc3cc(CNS(C)(=O)=O)ccc3F)on2)c1 (cis-trans isomerization)
Cc1cc[n-]/c(=N/C(=O)c2cc([C@H]3CCCN3C(=O)[N-]Cc3cc(CNS(C)(=O)=O)ccc3F)on2)c1 (3D coordinates assigned)
Cc1cc[n-]/c(=N/C(=O)c2cc([C@H]3CCCN3C(=O)[N-]Cc3cc(CNS(C)(=O)=O)ccc3F)on2)c1 (nonaromatic ring conformer: 95.66719715651212 kcal/mol)

>  <smiles>  (92) 
Cc1cc[nH]c(=NC(=O)c2cc(C3CCCN3C(=O)NCc3cc(CNS(C)(=O)=O)ccc3F)on2)c1

>  <score_type>  (92) 
oracle

>  <origin>  (92) 
adg

>  <m_score__min__energy>  (92) 
-14.949999999999999

>  <m_primary>  (92) 
energy

$$$$
92:0
     RDKit          3D

 43 45  0  0  0  0  0  0  0  0999 V2000
   57.3460   24.1550   45.1520 O   0  0  0  0  0  0  0  0  0  0  0  0
   56.7650   24.2750   46.2650 C   0  0  0  0  0  0  0  0  0  0  0  0
   55.7130   23.2920   46.6640 C   0  0  0  0  0  0  0  0  0  0  0  0
   54.4410   23.5790   45.9310 C   0  0  0  0  0  0  0  0  0  0  0  0
   53.5820   22.6340   45.5110 N   0  0  0  0  0  0  0  0  0  0  0  0
   52.5720   23.3520   44.9700 C   0  0  0  0  0  0  0  0  0  0  0  0
   51.5590   22.8130   44.4540 O   0  0  0  0  0  0  0  0  0  0  0  0
   52.7310   24.6910   45.0330 N   0  0  0  0  0  0  0  0  0  0  0  0
   53.9180   24.8180   45.6500 C   0  0  0  0  0  0  0  0  0  0  0  0
   54.5100   26.0390   45.9560 O   0  0  0  0  0  0  0  0  0  0  0  0
   57.1390   25.3170   47.1720 N   0  0  0  0  0  0  0  0  0  0  0  0
   58.4200   26.0130   47.1160 C   0  0  0  0  0  0  0  0  0  0  0  0
   58.2480   27.3740   46.4990 C   0  0  0  0  0  0  0  0  0  0  0  0
   59.2170   28.3670   46.7100 C   0  0  0  0  0  0  0  0  0  0  0  0
   59.0540   29.6410   46.1560 C   0  0  0  0  0  0  0  0  0  0  0  0
   57.9170   29.9380   45.3930 C   0  0  0  0  0  0  0  0  0  0  0  0
   57.7180   31.5320   44.6740 S   0  0  0  0  0  0  0  0  0  0  0  0
   58.0160   31.4510   43.2030 O   0  0  0  0  0  0  0  0  0  0  0  0
   56.2950   31.9940   44.8470 O   0  0  0  0  0  0  0  0  0  0  0  0
   58.8230   32.6500   45.4320 N   0  0  0  0  0  0  0  0  0  0  0  0
   58.3670   33.0230   46.7710 C   0  0  0  0  0  0  0  0  0  0  0  0
   58.9360   34.4040   47.0530 C   0  0  0  0  0  0  0  0  0  0  0  0
   59.2840   34.9820   45.6900 C   0  0  0  0  0  0  0  0  0  0  0  0
   58.9060   33.9040   44.6850 C   0  0  0  0  0  0  0  0  0  0  0  0
   56.9500   28.9470   45.1790 C   0  0  0  0  0  0  0  0  0  0  0  0
   57.1110   27.6730   45.7310 C   0  0  0  0  0  0  0  0  0  0  0  0
   56.0531   22.2749   46.4193 H   0  0  0  0  0  0  0  0  0  0  0  0
   55.5330   23.3746   47.7460 H   0  0  0  0  0  0  0  0  0  0  0  0
   55.1360   26.1240   46.7480 H   0  0  0  0  0  0  0  0  0  0  0  0
   58.8173   26.1244   48.1357 H   0  0  0  0  0  0  0  0  0  0  0  0
   59.1190   25.4271   46.5011 H   0  0  0  0  0  0  0  0  0  0  0  0
   60.1087   28.1424   47.3137 H   0  0  0  0  0  0  0  0  0  0  0  0
   59.8210   30.4123   46.3199 H   0  0  0  0  0  0  0  0  0  0  0  0
   57.2678   33.0512   46.8037 H   0  0  0  0  0  0  0  0  0  0  0  0
   58.7033   32.2937   47.5227 H   0  0  0  0  0  0  0  0  0  0  0  0
   58.1882   35.0328   47.5584 H   0  0  0  0  0  0  0  0  0  0  0  0
   59.8136   34.3582   47.7147 H   0  0  0  0  0  0  0  0  0  0  0  0
   58.7087   35.9008   45.5034 H   0  0  0  0  0  0  0  0  0  0  0  0
   60.3482   35.2515   45.6197 H   0  0  0  0  0  0  0  0  0  0  0  0
   57.9344   34.1373   44.2251 H   0  0  0  0  0  0  0  0  0  0  0  0
   59.6485   33.8366   43.8762 H   0  0  0  0  0  0  0  0  0  0  0  0
   56.0597   29.1727   44.5736 H   0  0  0  0  0  0  0  0  0  0  0  0
   56.3445   26.9020   45.5633 H   0  0  0  0  0  0  0  0  0  0  0  0
  1  2  2  0
  2  3  1  0
  3  4  1  0
  4  5  1  0
  5  6  1  0
  6  7  2  0
  6  8  1  0
  8  9  1  0
  9 10  1  0
  2 11  1  0
 11 12  1  0
 12 13  1  0
 13 14  2  0
 14 15  1  0
 15 16  2  0
 16 17  1  0
 17 18  2  0
 17 19  2  0
 17 20  1  0
 20 21  1  0
 21 22  1  0
 22 23  1  0
 23 24  1  0
 16 25  1  0
 25 26  2  0
  9  4  2  0
 26 13  1  0
 24 20  1  0
  3 27  1  0
  3 28  1  0
 10 29  1  0
 12 30  1  0
 12 31  1  0
 14 32  1  0
 15 33  1  0
 21 34  1  0
 21 35  1  0
 22 36  1  0
 22 37  1  0
 23 38  1  0
 23 39  1  0
 24 40  1  0
 24 41  1  0
 25 42  1  0
 26 43  1  0
M  CHG  3   5  -1   8  -1  11  -1
M  END
>  <UniqueID>  (93) 
88

>  <SMILES>  (93) 
O=C(Cc1[n-]c(=O)[n-]c1O)[N-]Cc1ccc(S(=O)(=O)N2CCCC2)cc1

>  <Energy>  (93) 
68.04422562928825

>  <Genealogy>  (93) 
O=C(Cc1[n-]c(=O)[n-]c1O)[N-]Cc1ccc(S(=O)(=O)N2CCCC2)cc1 (protonated)
O=C(Cc1[n-]c(=O)[n-]c1O)[N-]Cc1ccc(S(=O)(=O)N2CCCC2)cc1 (3D coordinates assigned)
O=C(Cc1[n-]c(=O)[n-]c1O)[N-]Cc1ccc(S(=O)(=O)N2CCCC2)cc1 (nonaromatic ring conformer: 68.04422562928825 kcal/mol)

>  <smiles>  (93) 
O=C(Cc1[nH]c(=O)[nH]c1O)NCc1ccc(S(=O)(=O)N2CCCC2)cc1

>  <score_type>  (93) 
oracle

>  <origin>  (93) 
adg

>  <m_score__min__energy>  (93) 
-15.050000000000001

>  <m_primary>  (93) 
energy

$$$$
