0:0
     RDKit          3D

 51 55  0  0  0  0  0  0  0  0999 V2000
   59.2580   35.1030   45.0130 C   0  0  0  0  0  0  0  0  0  0  0  0
   58.7280   33.7140   45.1830 C   0  0  0  0  0  0  0  0  0  0  0  0
   57.6840   32.9630   44.0990 S   0  0  0  0  0  0  0  0  0  0  0  0
   57.5630   31.4950   44.9140 C   0  0  0  0  0  0  0  0  0  0  0  0
   56.8280   30.3250   44.3930 C   0  0  0  0  0  0  0  0  0  0  0  0
   56.6280   30.2350   43.1550 O   0  0  0  0  0  0  0  0  0  0  0  0
   56.3410   29.2840   45.2510 N   0  0  0  0  0  0  0  0  0  0  0  0
   57.0020   28.0380   45.5080 C   0  0  0  0  0  0  0  0  0  0  0  0
   58.3590   27.7400   45.4730 C   0  0  0  0  0  0  0  0  0  0  0  0
   59.4750   28.6430   45.0390 C   0  0  0  0  0  0  0  0  0  0  0  0
   58.5200   26.4520   45.8730 N   0  0  0  0  0  0  0  0  0  0  0  0
   59.8000   25.7540   46.0170 C   0  0  0  0  0  0  0  0  0  0  0  0
   57.3220   25.9210   46.1100 N   0  0  0  0  0  0  0  0  0  0  0  0
   57.0660   24.5740   46.5460 C   0  0  0  0  0  0  0  0  0  0  0  0
   56.6930   24.3170   47.8750 C   0  0  0  0  0  0  0  0  0  0  0  0
   56.4500   23.0050   48.2960 C   0  0  0  0  0  0  0  0  0  0  0  0
   56.5820   21.9450   47.3950 C   0  0  0  0  0  0  0  0  0  0  0  0
   56.9610   22.1940   46.0730 C   0  0  0  0  0  0  0  0  0  0  0  0
   57.2060   23.5030   45.6490 C   0  0  0  0  0  0  0  0  0  0  0  0
   56.3890   26.8690   45.8930 C   0  0  0  0  0  0  0  0  0  0  0  0
   55.1480   26.7010   46.0360 O   0  0  0  0  0  0  0  0  0  0  0  0
   58.3230   31.5930   46.0850 C   0  0  0  0  0  0  0  0  0  0  0  0
   58.4150   30.6280   47.0860 C   0  0  0  0  0  0  0  0  0  0  0  0
   59.2560   30.8610   48.1840 C   0  0  0  0  0  0  0  0  0  0  0  0
   59.3830   29.8680   49.1670 C   0  0  0  0  0  0  0  0  0  0  0  0
   60.2250   30.0780   50.2540 C   0  0  0  0  0  0  0  0  0  0  0  0
   60.9290   31.2720   50.3620 C   0  0  0  0  0  0  0  0  0  0  0  0
   60.7810   32.2510   49.3780 C   0  0  0  0  0  0  0  0  0  0  0  0
   59.9550   32.0520   48.2980 N   0  0  0  0  0  0  0  0  0  0  0  0
   59.8200   33.0370   47.3420 C   0  0  0  0  0  0  0  0  0  0  0  0
   60.4360   34.1330   47.4590 O   0  0  0  0  0  0  0  0  0  0  0  0
   58.9920   32.8180   46.2270 C   0  0  0  0  0  0  0  0  0  0  0  0
   59.4299   35.5534   46.0017 H   0  0  0  0  0  0  0  0  0  0  0  0
   60.2060   35.0681   44.4562 H   0  0  0  0  0  0  0  0  0  0  0  0
   58.5277   35.7085   44.4562 H   0  0  0  0  0  0  0  0  0  0  0  0
   59.9811   29.0525   45.9256 H   0  0  0  0  0  0  0  0  0  0  0  0
   60.1961   28.0712   44.4365 H   0  0  0  0  0  0  0  0  0  0  0  0
   59.0662   29.4676   44.4365 H   0  0  0  0  0  0  0  0  0  0  0  0
   60.0309   25.6281   47.0851 H   0  0  0  0  0  0  0  0  0  0  0  0
   59.7351   24.7664   45.5370 H   0  0  0  0  0  0  0  0  0  0  0  0
   60.5951   26.3434   45.5370 H   0  0  0  0  0  0  0  0  0  0  0  0
   56.5916   25.1493   48.5870 H   0  0  0  0  0  0  0  0  0  0  0  0
   56.1548   22.8077   49.3371 H   0  0  0  0  0  0  0  0  0  0  0  0
   56.3875   20.9143   47.7264 H   0  0  0  0  0  0  0  0  0  0  0  0
   57.0666   21.3586   45.3653 H   0  0  0  0  0  0  0  0  0  0  0  0
   57.5095   23.6948   44.6092 H   0  0  0  0  0  0  0  0  0  0  0  0
   57.8356   29.6956   47.0160 H   0  0  0  0  0  0  0  0  0  0  0  0
   58.8192   28.9276   49.0784 H   0  0  0  0  0  0  0  0  0  0  0  0
   60.3336   29.3018   51.0258 H   0  0  0  0  0  0  0  0  0  0  0  0
   61.5985   31.4442   51.2176 H   0  0  0  0  0  0  0  0  0  0  0  0
   61.3346   33.1972   49.4686 H   0  0  0  0  0  0  0  0  0  0  0  0
  1  2  1  0
  2  3  1  0
  3  4  1  0
  4  5  1  0
  5  6  2  0
  5  7  1  0
  7  8  1  0
  8  9  2  0
  9 10  1  0
  9 11  1  0
 11 12  1  0
 11 13  1  0
 13 14  1  0
 14 15  2  0
 15 16  1  0
 16 17  2  0
 17 18  1  0
 18 19  2  0
 13 20  1  0
 20 21  2  0
  4 22  2  0
 22 23  1  0
 23 24  2  0
 24 25  1  0
 25 26  2  0
 26 27  1  0
 27 28  2  0
 28 29  1  0
 29 30  1  0
 30 31  2  0
 30 32  1  0
 32  2  2  0
 20  8  1  0
 32 22  1  0
 19 14  1  0
 29 24  1  0
  1 33  1  0
  1 34  1  0
  1 35  1  0
 10 36  1  0
 10 37  1  0
 10 38  1  0
 12 39  1  0
 12 40  1  0
 12 41  1  0
 15 42  1  0
 16 43  1  0
 17 44  1  0
 18 45  1  0
 19 46  1  0
 23 47  1  0
 25 48  1  0
 26 49  1  0
 27 50  1  0
 28 51  1  0
M  CHG  1   7  -1
M  END
>  <UniqueID>  (1) 
1

>  <SMILES>  (1) 
Cc1sc(C(=O)[N-]c2c(C)n(C)n(-c3ccccc3)c2=O)c2cc3ccccn3c(=O)c12

>  <Energy>  (1) 
140.88347902195505

>  <Genealogy>  (1) 
Cc1sc(C(=O)[N-]c2c(C)n(C)n(-c3ccccc3)c2=O)c2cc3ccccn3c(=O)c12 (protonated)
Cc1sc(C(=O)[N-]c2c(C)n(C)n(-c3ccccc3)c2=O)c2cc3ccccn3c(=O)c12 (3D coordinates assigned)
Cc1sc(C(=O)[N-]c2c(C)n(C)n(-c3ccccc3)c2=O)c2cc3ccccn3c(=O)c12 (optimized conformer: 140.88347902195505 kcal/mol)

>  <smiles>  (1) 
Cc1sc(C(=O)Nc2c(C)n(C)n(-c3ccccc3)c2=O)c2cc3ccccn3c(=O)c12

>  <score_type>  (1) 
oracle

>  <origin>  (1) 
adg

>  <m_score__min__energy>  (1) 
-11.050000000000001

>  <m_primary>  (1) 
energy

$$$$
1:0
     RDKit          3D

 43 46  0  0  1  0  0  0  0  0999 V2000
   59.6740   33.4770   50.5900 C   0  0  0  0  0  0  0  0  0  0  0  0
   60.5550   33.8390   49.5720 O   0  0  0  0  0  0  0  0  0  0  0  0
   60.2080   33.9560   48.2340 C   0  0  0  0  0  0  0  0  0  0  0  0
   58.8950   34.1930   47.9100 C   0  0  0  0  0  0  0  0  0  0  0  0
   58.5100   34.3150   46.5960 C   0  0  0  0  0  0  0  0  0  0  0  0
   59.4780   34.1940   45.6400 C   0  0  0  0  0  0  0  0  0  0  0  0
   60.8220   33.9510   45.9720 C   0  0  0  0  0  0  0  0  0  0  0  0
   61.2210   33.8260   47.2690 C   0  0  0  0  0  0  0  0  0  0  0  0
   62.6440   33.5750   47.6860 C   0  0  0  0  0  0  0  0  0  0  0  0
   62.9470   32.2310   47.8670 N   0  0  0  0  0  0  0  0  0  0  0  0
   62.3630   31.3770   48.5600 C   0  0  0  0  0  0  0  0  0  0  0  0
   62.8900   31.1380   49.7940 N   0  0  0  0  0  0  0  0  0  0  0  0
   62.4020   30.2720   50.6700 C   0  0  0  0  0  0  0  0  0  0  0  0
   61.3070   29.5830   50.3080 N   0  0  0  0  0  0  0  0  0  0  0  0
   60.7570   29.7980   49.0850 C   0  0  0  0  0  0  0  0  0  0  0  0
   59.2800   28.9890   48.3820 S   0  0  0  0  0  0  0  0  0  0  0  0
   59.4140   29.9150   46.8620 C   0  0  0  0  0  0  0  0  0  0  0  0
   58.5160   29.8070   45.7380 C   0  0  0  0  0  0  0  0  0  0  0  0
   58.2590   28.6360   45.0540 C   0  0  0  0  0  0  0  0  0  0  0  0
   57.3980   28.5740   43.9840 C   0  0  0  0  0  0  0  0  0  0  0  0
   56.7710   29.7110   43.5780 C   0  0  0  0  0  0  0  0  0  0  0  0
   55.9030   29.6410   42.4930 O   0  0  0  0  0  0  0  0  0  0  0  0
   56.9960   30.8960   44.2270 C   0  0  0  0  0  0  0  0  0  0  0  0
   57.8630   30.9380   45.3000 C   0  0  0  0  0  0  0  0  0  0  0  0
   60.5540   30.7610   46.9940 C   0  0  0  0  0  0  0  0  0  0  0  0
   61.2090   30.6680   48.1470 C   0  0  0  0  0  0  0  0  0  0  0  0
   60.1428   33.6696   51.5663 H   0  0  0  0  0  0  0  0  0  0  0  0
   58.7507   34.0686   50.5035 H   0  0  0  0  0  0  0  0  0  0  0  0
   59.4334   32.4071   50.5035 H   0  0  0  0  0  0  0  0  0  0  0  0
   58.1446   34.2861   48.7089 H   0  0  0  0  0  0  0  0  0  0  0  0
   57.4608   34.5032   46.3244 H   0  0  0  0  0  0  0  0  0  0  0  0
   59.1979   34.2894   44.5805 H   0  0  0  0  0  0  0  0  0  0  0  0
   61.5673   33.8598   45.1681 H   0  0  0  0  0  0  0  0  0  0  0  0
   63.3094   33.9788   46.9088 H   0  0  0  0  0  0  0  0  0  0  0  0
   62.7844   34.0687   48.6589 H   0  0  0  0  0  0  0  0  0  0  0  0
   63.7570   31.6700   50.1100 H   0  0  0  0  0  0  0  0  0  0  0  0
   62.8737   30.1234   51.6526 H   0  0  0  0  0  0  0  0  0  0  0  0
   58.7640   27.7142   45.3785 H   0  0  0  0  0  0  0  0  0  0  0  0
   57.2190   27.6209   43.4648 H   0  0  0  0  0  0  0  0  0  0  0  0
   55.4660   28.7510   42.2490 H   0  0  0  0  0  0  0  0  0  0  0  0
   56.4867   31.8123   43.8937 H   0  0  0  0  0  0  0  0  0  0  0  0
   58.0361   31.8940   45.8159 H   0  0  0  0  0  0  0  0  0  0  0  0
   60.8709   31.4461   46.1938 H   0  0  0  0  0  0  0  0  0  0  0  0
  1  2  1  0
  2  3  1  0
  3  4  2  0
  4  5  1  0
  5  6  2  0
  6  7  1  0
  7  8  2  0
  8  9  1  0
  9 10  1  0
 10 11  2  0
 11 12  1  0
 12 13  1  0
 13 14  2  0
 14 15  1  0
 15 16  1  0
 16 17  1  0
 17 18  1  0
 18 19  2  0
 19 20  1  0
 20 21  2  0
 21 22  1  0
 21 23  1  0
 23 24  2  0
 17 25  2  0
 25 26  1  0
  8  3  1  0
 26 11  1  0
 26 15  2  0
 24 18  1  0
  1 27  1  0
  1 28  1  0
  1 29  1  0
  4 30  1  0
  5 31  1  0
  6 32  1  0
  7 33  1  0
  9 34  1  0
  9 35  1  0
 12 36  1  0
 13 37  1  0
 19 38  1  0
 20 39  1  0
 22 40  1  0
 23 41  1  0
 24 42  1  0
 25 43  1  0
M  END
>  <smiles>  (2) 
COc1ccccc1CN=c1[nH]cnc2sc(-c3ccc(O)cc3)cc12

>  <score_type>  (2) 
oracle

>  <origin>  (2) 
adg

>  <m_score__min__energy>  (2) 
-8.3200000000000003

>  <m_primary>  (2) 
energy

$$$$
2:0
     RDKit          3D

 58 61  0  0  1  0  0  0  0  0999 V2000
   57.2290   20.7730   42.6210 C   0  0  0  0  0  0  0  0  0  0  0  0
   56.6180   21.6010   43.6740 C   0  0  0  0  0  0  0  0  0  0  0  0
   56.9630   22.9270   43.7470 C   0  0  0  0  0  0  0  0  0  0  0  0
   56.4030   23.7090   44.7330 C   0  0  0  0  0  0  0  0  0  0  0  0
   56.7450   24.9150   44.8170 N   0  0  0  0  0  0  0  0  0  0  0  0
   56.5050   26.0010   46.0860 S   0  0  0  0  0  0  0  0  0  0  0  0
   55.1460   26.6960   45.9970 O   0  0  0  0  0  0  0  0  0  0  0  0
   56.3900   25.1620   47.3610 O   0  0  0  0  0  0  0  0  0  0  0  0
   57.7310   27.2210   46.2980 C   0  0  0  0  0  0  0  0  0  0  0  0
   57.7410   28.2980   45.4290 C   0  0  0  0  0  0  0  0  0  0  0  0
   58.7010   29.2890   45.4760 C   0  0  0  0  0  0  0  0  0  0  0  0
   59.6730   29.1670   46.4380 C   0  0  0  0  0  0  0  0  0  0  0  0
   60.7460   30.1100   46.5950 N   0  0  0  0  0  0  0  0  0  0  0  0
   60.5410   31.0310   47.7010 C   0  0  0  0  0  0  0  0  0  0  0  0
   59.4730   30.8410   48.3380 O   0  0  0  0  0  0  0  0  0  0  0  0
   61.5110   32.0610   48.0050 C   0  0  0  0  0  0  0  0  0  0  0  0
   62.8580   31.6920   47.8940 C   0  0  0  0  0  0  0  0  0  0  0  0
   63.8500   32.5960   48.1590 C   0  0  0  0  0  0  0  0  0  0  0  0
   63.4940   33.8780   48.5380 C   0  0  0  0  0  0  0  0  0  0  0  0
   62.1690   34.2200   48.6410 C   0  0  0  0  0  0  0  0  0  0  0  0
   61.1290   33.3240   48.3780 C   0  0  0  0  0  0  0  0  0  0  0  0
   59.7650   33.8160   48.5250 C   0  0  0  0  0  0  0  0  0  0  0  0
   59.0340   33.8830   47.2410 C   0  0  0  0  0  0  0  0  0  0  0  0
   57.7850   33.3230   47.0380 C   0  0  0  0  0  0  0  0  0  0  0  0
   57.0990   33.4020   45.8560 C   0  0  0  0  0  0  0  0  0  0  0  0
   57.6410   34.0630   44.7750 C   0  0  0  0  0  0  0  0  0  0  0  0
   58.8820   34.6290   44.9460 C   0  0  0  0  0  0  0  0  0  0  0  0
   59.5810   34.5480   46.1550 C   0  0  0  0  0  0  0  0  0  0  0  0
   59.7100   28.1010   47.3420 C   0  0  0  0  0  0  0  0  0  0  0  0
   58.7330   27.1350   47.2610 C   0  0  0  0  0  0  0  0  0  0  0  0
   55.5300   23.1960   45.6150 N   0  0  0  0  0  0  0  0  0  0  0  0
   55.1950   21.8800   45.5320 C   0  0  0  0  0  0  0  0  0  0  0  0
   54.2290   21.3780   46.5330 C   0  0  0  0  0  0  0  0  0  0  0  0
   55.7450   21.1230   44.5690 N   0  0  0  0  0  0  0  0  0  0  0  0
   57.8216   19.9700   43.0836 H   0  0  0  0  0  0  0  0  0  0  0  0
   56.4383   20.3319   41.9963 H   0  0  0  0  0  0  0  0  0  0  0  0
   57.8836   21.3985   41.9963 H   0  0  0  0  0  0  0  0  0  0  0  0
   57.6758   23.3589   43.0292 H   0  0  0  0  0  0  0  0  0  0  0  0
   56.9498   28.3674   44.6679 H   0  0  0  0  0  0  0  0  0  0  0  0
   58.6878   30.1369   44.7753 H   0  0  0  0  0  0  0  0  0  0  0  0
   61.5870   30.1400   45.9960 H   0  0  0  0  0  0  0  0  0  0  0  0
   63.1200   30.6674   47.5914 H   0  0  0  0  0  0  0  0  0  0  0  0
   64.9085   32.3095   48.0725 H   0  0  0  0  0  0  0  0  0  0  0  0
   64.2730   34.6232   48.7568 H   0  0  0  0  0  0  0  0  0  0  0  0
   61.9138   35.2461   48.9444 H   0  0  0  0  0  0  0  0  0  0  0  0
   59.2207   33.1429   49.2037 H   0  0  0  0  0  0  0  0  0  0  0  0
   59.8252   34.8395   48.9235 H   0  0  0  0  0  0  0  0  0  0  0  0
   57.3165   32.7835   47.8743 H   0  0  0  0  0  0  0  0  0  0  0  0
   56.1073   32.9342   45.7683 H   0  0  0  0  0  0  0  0  0  0  0  0
   57.1042   34.1345   43.8175 H   0  0  0  0  0  0  0  0  0  0  0  0
   59.3417   35.1646   44.1023 H   0  0  0  0  0  0  0  0  0  0  0  0
   60.5726   35.0158   46.2445 H   0  0  0  0  0  0  0  0  0  0  0  0
   60.5029   28.0358   48.1016 H   0  0  0  0  0  0  0  0  0  0  0  0
   58.7438   26.2880   47.9628 H   0  0  0  0  0  0  0  0  0  0  0  0
   55.1290   23.8240   46.3370 H   0  0  0  0  0  0  0  0  0  0  0  0
   54.6124   21.5772   47.5446 H   0  0  0  0  0  0  0  0  0  0  0  0
   53.2639   21.8887   46.3995 H   0  0  0  0  0  0  0  0  0  0  0  0
   54.0922   20.2947   46.3995 H   0  0  0  0  0  0  0  0  0  0  0  0
  1  2  1  0
  2  3  2  0
  3  4  1  0
  4  5  2  0
  5  6  1  0
  6  7  2  0
  6  8  2  0
  6  9  1  0
  9 10  2  0
 10 11  1  0
 11 12  2  0
 12 13  1  0
 13 14  1  0
 14 15  2  0
 14 16  1  0
 16 17  2  0
 17 18  1  0
 18 19  2  0
 19 20  1  0
 20 21  2  0
 21 22  1  0
 22 23  1  0
 23 24  2  0
 24 25  1  0
 25 26  2  0
 26 27  1  0
 27 28  2  0
 12 29  1  0
 29 30  2  0
  4 31  1  0
 31 32  1  0
 32 33  1  0
 32 34  2  0
 34  2  1  0
 30  9  1  0
 21 16  1  0
 28 23  1  0
  1 35  1  0
  1 36  1  0
  1 37  1  0
  3 38  1  0
 10 39  1  0
 11 40  1  0
 13 41  1  0
 17 42  1  0
 18 43  1  0
 19 44  1  0
 20 45  1  0
 22 46  1  0
 22 47  1  0
 24 48  1  0
 25 49  1  0
 26 50  1  0
 27 51  1  0
 28 52  1  0
 29 53  1  0
 30 54  1  0
 31 55  1  0
 33 56  1  0
 33 57  1  0
 33 58  1  0
M  END
>  <smiles>  (3) 
Cc1cc(=NS(=O)(=O)c2ccc(NC(=O)c3ccccc3Cc3ccccc3)cc2)[nH]c(C)n1

>  <score_type>  (3) 
oracle

>  <origin>  (3) 
adg

>  <m_score__min__energy>  (3) 
-10.199999999999999

>  <m_primary>  (3) 
energy

$$$$
3:0
     RDKit          3D

 49 52  0  0  0  0  0  0  0  0999 V2000
   61.8910   33.1590   47.9770 C   0  0  0  0  0  0  0  0  0  0  0  0
   60.6230   33.3570   47.1870 C   0  0  0  0  0  0  0  0  0  0  0  0
   60.4910   34.5290   46.4230 C   0  0  0  0  0  0  0  0  0  0  0  0
   59.3540   34.7470   45.6450 C   0  0  0  0  0  0  0  0  0  0  0  0
   58.3320   33.8020   45.6220 C   0  0  0  0  0  0  0  0  0  0  0  0
   58.4310   32.6390   46.3880 C   0  0  0  0  0  0  0  0  0  0  0  0
   57.4020   31.7550   46.3690 F   0  0  0  0  0  0  0  0  0  0  0  0
   59.5660   32.4070   47.1930 C   0  0  0  0  0  0  0  0  0  0  0  0
   59.6160   31.1740   48.0160 C   0  0  0  0  0  0  0  0  0  0  0  0
   58.7780   31.0200   48.9470 O   0  0  0  0  0  0  0  0  0  0  0  0
   60.6560   30.2040   47.8180 N   0  0  0  0  0  0  0  0  0  0  0  0
   60.7020   28.9500   48.5150 C   0  0  0  0  0  0  0  0  0  0  0  0
   60.6690   27.6550   47.9860 C   0  0  0  0  0  0  0  0  0  0  0  0
   60.6720   27.2770   46.5580 C   0  0  0  0  0  0  0  0  0  0  0  0
   61.0020   26.0980   46.2540 O   0  0  0  0  0  0  0  0  0  0  0  0
   60.2740   28.2000   45.5160 N   0  0  0  0  0  0  0  0  0  0  0  0
   61.2690   28.8870   44.6850 C   0  0  0  0  0  0  0  0  0  0  0  0
   58.8800   28.4940   45.3090 C   0  0  0  0  0  0  0  0  0  0  0  0
   57.8870   27.6520   45.8380 C   0  0  0  0  0  0  0  0  0  0  0  0
   56.5340   27.9350   45.6260 C   0  0  0  0  0  0  0  0  0  0  0  0
   56.1620   29.0580   44.8790 C   0  0  0  0  0  0  0  0  0  0  0  0
   54.8180   29.3380   44.6690 O   0  0  0  0  0  0  0  0  0  0  0  0
   57.1440   29.8960   44.3420 C   0  0  0  0  0  0  0  0  0  0  0  0
   58.4980   29.6140   44.5530 C   0  0  0  0  0  0  0  0  0  0  0  0
   60.7030   26.7770   48.9750 O   0  0  0  0  0  0  0  0  0  0  0  0
   60.7680   27.4400   50.1060 C   0  0  0  0  0  0  0  0  0  0  0  0
   60.8190   26.9150   51.3960 C   0  0  0  0  0  0  0  0  0  0  0  0
   60.8820   27.8200   52.4710 C   0  0  0  0  0  0  0  0  0  0  0  0
   60.8890   29.2140   52.2360 C   0  0  0  0  0  0  0  0  0  0  0  0
   60.8360   29.7150   50.9210 C   0  0  0  0  0  0  0  0  0  0  0  0
   60.7810   28.7910   49.8780 C   0  0  0  0  0  0  0  0  0  0  0  0
   61.6624   33.1947   49.0524 H   0  0  0  0  0  0  0  0  0  0  0  0
   62.3295   32.1815   47.7276 H   0  0  0  0  0  0  0  0  0  0  0  0
   62.6067   33.9563   47.7276 H   0  0  0  0  0  0  0  0  0  0  0  0
   61.2925   35.2822   46.4387 H   0  0  0  0  0  0  0  0  0  0  0  0
   59.2647   35.6670   45.0487 H   0  0  0  0  0  0  0  0  0  0  0  0
   57.4426   33.9724   44.9976 H   0  0  0  0  0  0  0  0  0  0  0  0
   61.5170   30.5110   47.3150 H   0  0  0  0  0  0  0  0  0  0  0  0
   62.0010   29.3924   45.3320 H   0  0  0  0  0  0  0  0  0  0  0  0
   61.7863   28.1527   44.0500 H   0  0  0  0  0  0  0  0  0  0  0  0
   60.7657   29.6309   44.0500 H   0  0  0  0  0  0  0  0  0  0  0  0
   58.1755   26.7656   46.4220 H   0  0  0  0  0  0  0  0  0  0  0  0
   55.7617   27.2743   46.0468 H   0  0  0  0  0  0  0  0  0  0  0  0
   56.8517   30.7779   43.7530 H   0  0  0  0  0  0  0  0  0  0  0  0
   59.2674   30.2731   44.1244 H   0  0  0  0  0  0  0  0  0  0  0  0
   60.8103   25.8285   51.5679 H   0  0  0  0  0  0  0  0  0  0  0  0
   60.9262   27.4401   53.5024 H   0  0  0  0  0  0  0  0  0  0  0  0
   60.9361   29.9114   53.0853 H   0  0  0  0  0  0  0  0  0  0  0  0
   60.8379   30.7971   50.7235 H   0  0  0  0  0  0  0  0  0  0  0  0
  1  2  1  0
  2  3  2  0
  3  4  1  0
  4  5  2  0
  5  6  1  0
  6  7  1  0
  6  8  2  0
  8  9  1  0
  9 10  2  0
  9 11  1  0
 11 12  1  0
 12 13  2  0
 13 14  1  0
 14 15  2  0
 14 16  1  0
 16 17  1  0
 16 18  1  0
 18 19  2  0
 19 20  1  0
 20 21  2  0
 21 22  1  0
 21 23  1  0
 23 24  2  0
 13 25  1  0
 25 26  1  0
 26 27  2  0
 27 28  1  0
 28 29  2  0
 29 30  1  0
 30 31  2  0
  8  2  1  0
 31 12  1  0
 24 18  1  0
 31 26  1  0
  1 32  1  0
  1 33  1  0
  1 34  1  0
  3 35  1  0
  4 36  1  0
  5 37  1  0
 11 38  1  0
 17 39  1  0
 17 40  1  0
 17 41  1  0
 19 42  1  0
 20 43  1  0
 23 44  1  0
 24 45  1  0
 27 46  1  0
 28 47  1  0
 29 48  1  0
 30 49  1  0
M  CHG  1  22  -1
M  END
>  <UniqueID>  (4) 
2

>  <SMILES>  (4) 
Cc1cccc(F)c1C(=O)Nc1c(C(=O)N(C)c2ccc([O-])cc2)oc2ccccc12

>  <Energy>  (4) 
107.07706015168793

>  <Genealogy>  (4) 
Cc1cccc(F)c1C(=O)Nc1c(C(=O)N(C)c2ccc([O-])cc2)oc2ccccc12 (protonated)
Cc1cccc(F)c1C(=O)Nc1c(C(=O)N(C)c2ccc([O-])cc2)oc2ccccc12 (3D coordinates assigned)
Cc1cccc(F)c1C(=O)Nc1c(C(=O)N(C)c2ccc([O-])cc2)oc2ccccc12 (optimized conformer: 107.07706015168793 kcal/mol)

>  <smiles>  (4) 
Cc1cccc(F)c1C(=O)Nc1c(C(=O)N(C)c2ccc(O)cc2)oc2ccccc12

>  <score_type>  (4) 
oracle

>  <origin>  (4) 
adg

>  <m_score__min__energy>  (4) 
-12.029999999999999

>  <m_primary>  (4) 
energy

$$$$
4:0
     RDKit          3D

 26 28  0  0  0  0  0  0  0  0999 V2000
   59.4207   35.0486   46.0705 H   0  0  0  0  0  0  0  0  0  0  0  0
   58.8660   34.1420   45.7870 C   0  0  0  0  0  0  0  0  0  0  0  0
   58.4770   33.9470   44.4590 C   0  0  0  0  0  0  0  0  0  0  0  0
   58.7354   34.6957   43.6956 H   0  0  0  0  0  0  0  0  0  0  0  0
   57.7600   32.8020   44.0990 C   0  0  0  0  0  0  0  0  0  0  0  0
   57.4694   32.6438   43.0499 H   0  0  0  0  0  0  0  0  0  0  0  0
   57.4090   31.8510   45.0760 C   0  0  0  0  0  0  0  0  0  0  0  0
   56.7130   30.6430   44.7350 N   0  0  0  0  0  0  0  0  0  0  0  0
   57.0780   29.4290   45.0300 C   0  0  0  0  0  0  0  0  0  0  0  0
   58.6770   28.8540   45.1020 S   0  0  0  0  0  0  0  0  0  0  0  0
   58.1740   27.2900   45.4530 C   0  0  0  0  0  0  0  0  0  0  0  0
   58.9520   26.1560   45.6720 C   0  0  0  0  0  0  0  0  0  0  0  0
   60.0501   26.2074   45.6324 H   0  0  0  0  0  0  0  0  0  0  0  0
   58.2950   24.9440   45.9450 C   0  0  0  0  0  0  0  0  0  0  0  0
   59.0180   23.8190   46.1650 F   0  0  0  0  0  0  0  0  0  0  0  0
   56.8860   24.8940   45.9890 C   0  0  0  0  0  0  0  0  0  0  0  0
   56.3802   23.9408   46.2026 H   0  0  0  0  0  0  0  0  0  0  0  0
   56.1230   26.0530   45.7620 C   0  0  0  0  0  0  0  0  0  0  0  0
   55.0241   26.0164   45.7948 H   0  0  0  0  0  0  0  0  0  0  0  0
   56.7880   27.2520   45.4940 C   0  0  0  0  0  0  0  0  0  0  0  0
   56.1780   28.4410   45.2530 N   0  0  0  0  0  0  0  0  0  0  0  0
   55.1410   28.5780   45.2380 H   0  0  0  0  0  0  0  0  0  0  0  0
   57.8330   32.0380   46.3980 C   0  0  0  0  0  0  0  0  0  0  0  0
   57.6010   31.2791   47.1598 H   0  0  0  0  0  0  0  0  0  0  0  0
   58.5500   33.1850   46.7540 C   0  0  0  0  0  0  0  0  0  0  0  0
   58.8655   33.3336   47.7973 H   0  0  0  0  0  0  0  0  0  0  0  0
  1  2  1  0
  2  3  2  0
  3  4  1  0
  3  5  1  0
  5  6  1  0
  5  7  2  0
  7  8  1  0
  8  9  2  0
  9 10  1  0
 10 11  1  0
 11 12  2  0
 12 13  1  0
 12 14  1  0
 14 15  1  0
 14 16  2  0
 16 17  1  0
 16 18  1  0
 18 19  1  0
 18 20  2  0
 20 21  1  0
 21 22  1  0
  7 23  1  0
 23 24  1  0
 23 25  2  0
 25 26  1  0
 25  2  1  0
 21  9  1  0
 20 11  1  0
M  END
>  <UniqueID>  (5) 
3

>  <SMILES>  (5) 
Fc1ccc2[nH]/c(=N/c3ccccc3)sc2c1

>  <Energy>  (5) 
70.87370569080592

>  <Genealogy>  (5) 
Fc1ccc2[nH]/c(=N/c3ccccc3)sc2c1 (cis-trans isomerization)
Fc1ccc2[nH]/c(=N/c3ccccc3)sc2c1 (3D coordinates assigned)
Fc1ccc2[nH]/c(=N/c3ccccc3)sc2c1 (optimized conformer: 70.87370569080592 kcal/mol)

>  <smiles>  (5) 
Fc1ccc2[nH]c(=Nc3ccccc3)sc2c1

>  <score_type>  (5) 
oracle

>  <origin>  (5) 
adg

>  <m_score__min__energy>  (5) 
-6.6399999999999997

>  <m_primary>  (5) 
energy

$$$$
5:0
     RDKit          3D

 37 38  0  0  0  0  0  0  0  0999 V2000
   63.0900   32.5550   47.5260 C   0  0  0  0  0  0  0  0  0  0  0  0
   61.7870   31.3460   47.1130 S   0  0  0  0  0  0  0  0  0  0  0  0
   60.4890   32.5820   46.9510 C   0  0  0  0  0  0  0  0  0  0  0  0
   60.8450   33.9370   47.0210 C   0  0  0  0  0  0  0  0  0  0  0  0
   59.8700   34.9310   46.9260 C   0  0  0  0  0  0  0  0  0  0  0  0
   58.5280   34.5790   46.7910 C   0  0  0  0  0  0  0  0  0  0  0  0
   58.1580   33.2330   46.7530 C   0  0  0  0  0  0  0  0  0  0  0  0
   59.1290   32.2210   46.8150 C   0  0  0  0  0  0  0  0  0  0  0  0
   58.5890   30.4980   46.8990 S   0  0  0  0  0  0  0  0  0  0  0  0
   57.8760   30.4390   45.2420 C   0  0  0  0  0  0  0  0  0  0  0  0
   58.0350   31.5540   44.4090 C   0  0  0  0  0  0  0  0  0  0  0  0
   57.4790   31.5710   43.1300 C   0  0  0  0  0  0  0  0  0  0  0  0
   56.7830   30.4600   42.6570 C   0  0  0  0  0  0  0  0  0  0  0  0
   56.6720   29.3160   43.4500 C   0  0  0  0  0  0  0  0  0  0  0  0
   57.2360   29.2800   44.7380 C   0  0  0  0  0  0  0  0  0  0  0  0
   57.2210   27.9770   45.5020 C   0  0  0  0  0  0  0  0  0  0  0  0
   55.8620   27.4460   45.6270 N   0  0  0  0  0  0  0  0  0  0  0  0
   55.8520   25.7130   45.8030 S   0  0  0  0  0  0  0  0  0  0  0  0
   56.8980   24.9290   44.5920 C   0  0  0  0  0  0  0  0  0  0  0  0
   56.3100   25.3320   47.1830 O   0  0  0  0  0  0  0  0  0  0  0  0
   54.4460   25.2210   45.6070 O   0  0  0  0  0  0  0  0  0  0  0  0
   63.1797   32.6383   48.6192 H   0  0  0  0  0  0  0  0  0  0  0  0
   64.0487   32.2194   47.1039 H   0  0  0  0  0  0  0  0  0  0  0  0
   62.8270   33.5361   47.1039 H   0  0  0  0  0  0  0  0  0  0  0  0
   61.9004   34.2182   47.1517 H   0  0  0  0  0  0  0  0  0  0  0  0
   60.1603   35.9915   46.9576 H   0  0  0  0  0  0  0  0  0  0  0  0
   57.7596   35.3624   46.7143 H   0  0  0  0  0  0  0  0  0  0  0  0
   57.0946   32.9629   46.6737 H   0  0  0  0  0  0  0  0  0  0  0  0
   58.6039   32.4247   44.7671 H   0  0  0  0  0  0  0  0  0  0  0  0
   57.5899   32.4618   42.4942 H   0  0  0  0  0  0  0  0  0  0  0  0
   56.3211   30.4843   41.6590 H   0  0  0  0  0  0  0  0  0  0  0  0
   56.1386   28.4349   43.0638 H   0  0  0  0  0  0  0  0  0  0  0  0
   57.8444   27.2432   44.9701 H   0  0  0  0  0  0  0  0  0  0  0  0
   57.6138   28.1638   46.5124 H   0  0  0  0  0  0  0  0  0  0  0  0
   57.6772   24.3450   45.1036 H   0  0  0  0  0  0  0  0  0  0  0  0
   56.2926   24.2604   43.9624 H   0  0  0  0  0  0  0  0  0  0  0  0
   57.3699   25.6977   43.9624 H   0  0  0  0  0  0  0  0  0  0  0  0
  1  2  1  0
  2  3  1  0
  3  4  2  0
  4  5  1  0
  5  6  2  0
  6  7  1  0
  7  8  2  0
  8  9  1  0
  9 10  1  0
 10 11  2  0
 11 12  1  0
 12 13  2  0
 13 14  1  0
 14 15  2  0
 15 16  1  0
 16 17  1  0
 17 18  1  0
 18 19  1  0
 18 20  2  0
 18 21  2  0
  8  3  1  0
 15 10  1  0
  1 22  1  0
  1 23  1  0
  1 24  1  0
  4 25  1  0
  5 26  1  0
  6 27  1  0
  7 28  1  0
 11 29  1  0
 12 30  1  0
 13 31  1  0
 14 32  1  0
 16 33  1  0
 16 34  1  0
 19 35  1  0
 19 36  1  0
 19 37  1  0
M  CHG  1  17  -1
M  END
>  <UniqueID>  (6) 
4

>  <SMILES>  (6) 
CSc1ccccc1Sc1ccccc1C[N-]S(C)(=O)=O

>  <Energy>  (6) 
28.750409203763216

>  <Genealogy>  (6) 
CSc1ccccc1Sc1ccccc1C[N-]S(C)(=O)=O (protonated)
CSc1ccccc1Sc1ccccc1C[N-]S(C)(=O)=O (3D coordinates assigned)
CSc1ccccc1Sc1ccccc1C[N-]S(C)(=O)=O (optimized conformer: 28.750409203763216 kcal/mol)

>  <smiles>  (6) 
CSc1ccccc1Sc1ccccc1CNS(C)(=O)=O

>  <score_type>  (6) 
oracle

>  <origin>  (6) 
adg

>  <m_score__min__energy>  (6) 
-10.42

>  <m_primary>  (6) 
energy

$$$$
6:0
     RDKit          3D

 52 55  0  0  1  0  0  0  0  0999 V2000
   59.7050   25.6190   46.7440 N   0  0  0  0  0  0  0  0  0  0  0  0
   58.8250   26.6310   46.3110 C   0  0  0  0  0  0  0  0  0  0  0  0
   59.1780   27.9530   46.4080 C   0  0  0  0  0  0  0  0  0  0  0  0
   58.3160   28.8960   45.9800 N   0  0  0  0  0  0  0  0  0  0  0  0
   57.1090   28.5670   45.4570 C   0  0  0  0  0  0  0  0  0  0  0  0
   56.2990   29.5030   45.0520 N   0  0  0  0  0  0  0  0  0  0  0  0
   56.7840   30.4660   44.0950 C   0  0  0  0  0  0  0  0  0  0  0  0
   56.5260   30.3030   42.7390 C   0  0  0  0  0  0  0  0  0  0  0  0
   57.0210   31.2670   41.8630 C   0  0  0  0  0  0  0  0  0  0  0  0
   57.7360   32.3370   42.3180 C   0  0  0  0  0  0  0  0  0  0  0  0
   58.0020   32.5150   43.6570 C   0  0  0  0  0  0  0  0  0  0  0  0
   57.5190   31.5690   44.5330 C   0  0  0  0  0  0  0  0  0  0  0  0
   57.7340   31.6630   45.8900 O   0  0  0  0  0  0  0  0  0  0  0  0
   58.6370   32.4970   46.5020 C   0  0  0  0  0  0  0  0  0  0  0  0
   59.8790   32.0320   46.8090 C   0  0  0  0  0  0  0  0  0  0  0  0
   60.7930   32.8690   47.4250 C   0  0  0  0  0  0  0  0  0  0  0  0
   60.4130   34.1770   47.7150 C   0  0  0  0  0  0  0  0  0  0  0  0
   59.1630   34.6300   47.3990 C   0  0  0  0  0  0  0  0  0  0  0  0
   58.2680   33.7970   46.7920 C   0  0  0  0  0  0  0  0  0  0  0  0
   56.7370   27.2760   45.3510 N   0  0  0  0  0  0  0  0  0  0  0  0
   57.5970   26.3340   45.7770 C   0  0  0  0  0  0  0  0  0  0  0  0
   57.2590   25.1180   45.6890 N   0  0  0  0  0  0  0  0  0  0  0  0
   57.2840   24.1880   44.6560 C   0  0  0  0  0  0  0  0  0  0  0  0
   58.0710   22.9100   44.7900 C   0  0  0  0  0  0  0  0  0  0  0  0
   57.3710   21.9820   43.8090 C   0  0  0  0  0  0  0  0  0  0  0  0
   55.9540   22.1950   43.7230 N   0  0  0  0  0  0  0  0  0  0  0  0
   55.5790   23.3810   42.9940 C   0  0  0  0  0  0  0  0  0  0  0  0
   56.6730   24.4030   43.3060 C   0  0  0  0  0  0  0  0  0  0  0  0
   60.6470   25.7420   47.1440 H   0  0  0  0  0  0  0  0  0  0  0  0
   59.3460   24.6210   46.6190 H   0  0  0  0  0  0  0  0  0  0  0  0
   60.1526   28.2397   46.8299 H   0  0  0  0  0  0  0  0  0  0  0  0
   58.6050   29.8980   46.0620 H   0  0  0  0  0  0  0  0  0  0  0  0
   55.9502   29.4416   42.3696 H   0  0  0  0  0  0  0  0  0  0  0  0
   56.8320   31.1637   40.7843 H   0  0  0  0  0  0  0  0  0  0  0  0
   58.1098   33.0772   41.5952 H   0  0  0  0  0  0  0  0  0  0  0  0
   58.5790   33.3809   44.0137 H   0  0  0  0  0  0  0  0  0  0  0  0
   60.1552   30.9948   46.5684 H   0  0  0  0  0  0  0  0  0  0  0  0
   61.8002   32.5081   47.6806 H   0  0  0  0  0  0  0  0  0  0  0  0
   61.1282   34.8542   48.2047 H   0  0  0  0  0  0  0  0  0  0  0  0
   58.8780   35.6662   47.6338 H   0  0  0  0  0  0  0  0  0  0  0  0
   57.2609   34.1576   46.5356 H   0  0  0  0  0  0  0  0  0  0  0  0
   55.7910   27.0340   44.9400 H   0  0  0  0  0  0  0  0  0  0  0  0
   58.1664   24.6866   44.2285 H   0  0  0  0  0  0  0  0  0  0  0  0
   59.1240   23.0614   44.5104 H   0  0  0  0  0  0  0  0  0  0  0  0
   58.0972   22.5192   45.8179 H   0  0  0  0  0  0  0  0  0  0  0  0
   57.8068   22.1389   42.8113 H   0  0  0  0  0  0  0  0  0  0  0  0
   57.5198   20.9557   44.1757 H   0  0  0  0  0  0  0  0  0  0  0  0
   55.5410   21.3300   43.2970 H   0  0  0  0  0  0  0  0  0  0  0  0
   55.5401   23.1745   41.9143 H   0  0  0  0  0  0  0  0  0  0  0  0
   54.5815   23.7440   43.2825 H   0  0  0  0  0  0  0  0  0  0  0  0
   57.4617   24.3206   42.5437 H   0  0  0  0  0  0  0  0  0  0  0  0
   56.2117   25.4016   43.3009 H   0  0  0  0  0  0  0  0  0  0  0  0
  1  2  1  0
  2  3  2  0
  3  4  1  0
  4  5  1  0
  5  6  2  0
  6  7  1  0
  7  8  2  0
  8  9  1  0
  9 10  2  0
 10 11  1  0
 11 12  2  0
 12 13  1  0
 13 14  1  0
 14 15  2  0
 15 16  1  0
 16 17  2  0
 17 18  1  0
 18 19  2  0
  5 20  1  0
 20 21  1  0
 21 22  2  0
 22 23  1  0
 23 24  1  0
 24 25  1  0
 25 26  1  0
 26 27  1  0
 27 28  1  0
 21  2  1  0
 28 23  1  0
 12  7  1  0
 19 14  1  0
  1 29  1  0
  1 30  1  0
  3 31  1  0
  4 32  1  0
  8 33  1  0
  9 34  1  0
 10 35  1  0
 11 36  1  0
 15 37  1  0
 16 38  1  0
 17 39  1  0
 18 40  1  0
 19 41  1  0
 20 42  1  0
 23 43  1  0
 24 44  1  0
 24 45  1  0
 25 46  1  0
 25 47  1  0
 26 48  1  0
 27 49  1  0
 27 50  1  0
 28 51  1  0
 28 52  1  0
M  END
>  <smiles>  (7) 
Nc1c[nH]c(=Nc2ccccc2Oc2ccccc2)[nH]c1=NC1CCNCC1

>  <score_type>  (7) 
oracle

>  <origin>  (7) 
adg

>  <m_score__min__energy>  (7) 
-9.0800000000000001

>  <m_primary>  (7) 
energy

$$$$
7:0
     RDKit          3D

 27 28  0  0  0  0  0  0  0  0999 V2000
   59.6720   27.4420   48.5000 F   0  0  0  0  0  0  0  0  0  0  0  0
   59.2620   28.0290   47.3490 C   0  0  0  0  0  0  0  0  0  0  0  0
   59.9860   29.0970   46.8110 C   0  0  0  0  0  0  0  0  0  0  0  0
   59.5630   29.7050   45.6250 C   0  0  0  0  0  0  0  0  0  0  0  0
   58.4190   29.2400   44.9570 C   0  0  0  0  0  0  0  0  0  0  0  0
   57.9920   29.8930   43.7490 N   0  0  0  0  0  0  0  0  0  0  0  0
   57.6950   31.2940   43.6660 C   0  0  0  0  0  0  0  0  0  0  0  0
   57.4000   31.9440   42.1880 S   0  0  0  0  0  0  0  0  0  0  0  0
   57.2580   31.9930   44.8440 N   0  0  0  0  0  0  0  0  0  0  0  0
   57.8850   32.9460   45.4760 C   0  0  0  0  0  0  0  0  0  0  0  0
   58.5600   33.9150   44.7240 C   0  0  0  0  0  0  0  0  0  0  0  0
   59.2280   34.9560   45.3710 C   0  0  0  0  0  0  0  0  0  0  0  0
   59.2160   35.0400   46.7280 N   0  0  0  0  0  0  0  0  0  0  0  0
   58.5540   34.1260   47.4870 C   0  0  0  0  0  0  0  0  0  0  0  0
   57.8730   33.0670   46.8810 C   0  0  0  0  0  0  0  0  0  0  0  0
   57.6830   28.1790   45.5170 C   0  0  0  0  0  0  0  0  0  0  0  0
   58.1090   27.5740   46.7040 C   0  0  0  0  0  0  0  0  0  0  0  0
   60.8902   29.4598   47.3217 H   0  0  0  0  0  0  0  0  0  0  0  0
   60.1300   30.5528   45.2129 H   0  0  0  0  0  0  0  0  0  0  0  0
   57.8450   29.3040   42.8990 H   0  0  0  0  0  0  0  0  0  0  0  0
   58.5639   33.8561   43.6256 H   0  0  0  0  0  0  0  0  0  0  0  0
   59.7665   35.7117   44.7804 H   0  0  0  0  0  0  0  0  0  0  0  0
   59.7200   35.8250   47.1970 H   0  0  0  0  0  0  0  0  0  0  0  0
   58.5547   34.2209   48.5829 H   0  0  0  0  0  0  0  0  0  0  0  0
   57.3313   32.3329   47.4955 H   0  0  0  0  0  0  0  0  0  0  0  0
   56.7687   27.8240   45.0190 H   0  0  0  0  0  0  0  0  0  0  0  0
   57.5351   26.7382   47.1307 H   0  0  0  0  0  0  0  0  0  0  0  0
  1  2  1  0
  2  3  2  0
  3  4  1  0
  4  5  2  0
  5  6  1  0
  6  7  1  0
  7  8  2  0
  7  9  1  0
  9 10  2  3
 10 11  1  0
 11 12  2  0
 12 13  1  0
 13 14  1  0
 14 15  2  0
  5 16  1  0
 16 17  2  0
 17  2  1  0
 15 10  1  0
  3 18  1  0
  4 19  1  0
  6 20  1  0
 11 21  1  0
 12 22  1  0
 13 23  1  0
 14 24  1  0
 15 25  1  0
 16 26  1  0
 17 27  1  0
M  END
>  <UniqueID>  (8) 
5

>  <SMILES>  (8) 
Fc1ccc(NC(=S)N=c2cc[nH]cc2)cc1

>  <Energy>  (8) 
39.53912083951549

>  <Genealogy>  (8) 
Fc1ccc(NC(=S)N=c2cc[nH]cc2)cc1 (3D coordinates assigned)
Fc1ccc(NC(=S)N=c2cc[nH]cc2)cc1 (optimized conformer: 39.53912083951549 kcal/mol)

>  <smiles>  (8) 
Fc1ccc(NC(=S)N=c2cc[nH]cc2)cc1

>  <score_type>  (8) 
oracle

>  <origin>  (8) 
adg

>  <m_score__min__energy>  (8) 
-6.2400000000000002

>  <m_primary>  (8) 
energy

$$$$
8:0
     RDKit          3D

 62 64  0  0  0  0  0  0  0  0999 V2000
   57.3640   32.0190   43.4340 C   0  0  0  0  0  0  0  0  0  0  0  0
   58.0920   30.7870   44.0110 C   0  0  1  0  0  0  0  0  0  0  0  0
   58.6910   31.1220   45.3410 C   0  0  0  0  0  0  0  0  0  0  0  0
   59.3230   30.1840   46.0570 C   0  0  0  0  0  0  0  0  0  0  0  0
   60.2130   30.6900   47.1310 C   0  0  0  0  0  0  0  0  0  0  0  0
   60.7810   29.8510   47.8830 O   0  0  0  0  0  0  0  0  0  0  0  0
   60.5900   32.0780   47.1800 N   0  0  0  0  0  0  0  0  0  0  0  0
   61.6830   32.5970   47.9660 C   0  0  0  0  0  0  0  0  0  0  0  0
   62.9960   32.3670   47.5070 C   0  0  0  0  0  0  0  0  0  0  0  0
   64.0980   32.8180   48.2350 C   0  0  0  0  0  0  0  0  0  0  0  0
   63.9100   33.5050   49.4370 C   0  0  0  0  0  0  0  0  0  0  0  0
   62.6160   33.7840   49.8830 C   0  0  0  0  0  0  0  0  0  0  0  0
   61.4980   33.3520   49.1540 C   0  0  0  0  0  0  0  0  0  0  0  0
   59.9230   33.8900   49.7170 Cl  0  0  0  0  0  0  0  0  0  0  0  0
   59.3320   28.7330   45.5160 C   0  0  1  0  0  0  0  0  0  0  0  0
   60.2560   28.6400   44.4530 O   0  0  0  0  0  0  0  0  0  0  0  0
   59.7260   27.6490   46.6080 C   0  0  0  0  0  0  0  0  0  0  0  0
   60.1390   26.2840   46.0140 C   0  0  0  0  0  0  0  0  0  0  0  0
   58.7170   27.4760   47.7580 C   0  0  0  0  0  0  0  0  0  0  0  0
   57.9740   28.4470   44.9360 N   0  0  0  0  0  0  0  0  0  0  0  0
   57.4480   27.0960   44.9580 C   0  0  0  0  0  0  0  0  0  0  0  0
   56.4730   26.7300   45.9020 C   0  0  0  0  0  0  0  0  0  0  0  0
   55.9310   25.4390   45.8910 C   0  0  0  0  0  0  0  0  0  0  0  0
   56.3590   24.5000   44.9380 C   0  0  0  0  0  0  0  0  0  0  0  0
   55.6290   22.9000   44.8810 S   0  0  0  0  0  0  0  0  0  0  0  0
   53.9170   23.0390   45.0550 N   0  0  0  0  0  0  0  0  0  0  0  0
   56.1730   22.0460   45.9940 O   0  0  0  0  0  0  0  0  0  0  0  0
   55.9460   22.2410   43.5700 O   0  0  0  0  0  0  0  0  0  0  0  0
   57.3330   24.8620   43.9970 C   0  0  0  0  0  0  0  0  0  0  0  0
   57.8730   26.1520   44.0050 C   0  0  0  0  0  0  0  0  0  0  0  0
   57.2460   29.4680   44.1080 C   0  0  0  0  0  0  0  0  0  0  0  0
   55.8650   29.7520   44.7460 C   0  0  0  0  0  0  0  0  0  0  0  0
   57.0220   28.9170   42.6770 C   0  0  0  0  0  0  0  0  0  0  0  0
   56.9937   32.6457   44.2587 H   0  0  0  0  0  0  0  0  0  0  0  0
   58.0629   32.6017   42.8160 H   0  0  0  0  0  0  0  0  0  0  0  0
   56.5164   31.6879   42.8160 H   0  0  0  0  0  0  0  0  0  0  0  0
   58.8736   30.5538   43.2729 H   0  0  0  0  0  0  0  0  0  0  0  0
   58.6113   32.1467   45.7331 H   0  0  0  0  0  0  0  0  0  0  0  0
   60.3160   32.6510   46.3540 H   0  0  0  0  0  0  0  0  0  0  0  0
   63.1539   31.8251   46.5629 H   0  0  0  0  0  0  0  0  0  0  0  0
   65.1160   32.6323   47.8619 H   0  0  0  0  0  0  0  0  0  0  0  0
   64.7789   33.8254   50.0307 H   0  0  0  0  0  0  0  0  0  0  0  0
   62.4721   34.3486   50.8160 H   0  0  0  0  0  0  0  0  0  0  0  0
   59.7830   28.8060   43.5960 H   0  0  0  0  0  0  0  0  0  0  0  0
   60.6229   28.0910   47.0664 H   0  0  0  0  0  0  0  0  0  0  0  0
   60.3525   25.5784   46.8304 H   0  0  0  0  0  0  0  0  0  0  0  0
   59.3196   25.8908   45.3943 H   0  0  0  0  0  0  0  0  0  0  0  0
   61.0389   26.4110   45.3943 H   0  0  0  0  0  0  0  0  0  0  0  0
   59.2402   27.5657   48.7214 H   0  0  0  0  0  0  0  0  0  0  0  0
   57.9432   28.2546   47.6871 H   0  0  0  0  0  0  0  0  0  0  0  0
   58.2467   26.4841   47.6871 H   0  0  0  0  0  0  0  0  0  0  0  0
   56.1347   27.4602   46.6519 H   0  0  0  0  0  0  0  0  0  0  0  0
   55.1672   25.1591   46.6314 H   0  0  0  0  0  0  0  0  0  0  0  0
   53.5040   23.0020   44.0960 H   0  0  0  0  0  0  0  0  0  0  0  0
   57.6734   24.1294   43.2504 H   0  0  0  0  0  0  0  0  0  0  0  0
   58.6346   26.4304   43.2618 H   0  0  0  0  0  0  0  0  0  0  0  0
   55.9566   29.7332   45.8420 H   0  0  0  0  0  0  0  0  0  0  0  0
   55.5093   30.7421   44.4247 H   0  0  0  0  0  0  0  0  0  0  0  0
   55.1475   28.9826   44.4247 H   0  0  0  0  0  0  0  0  0  0  0  0
   56.6083   27.8995   42.7365 H   0  0  0  0  0  0  0  0  0  0  0  0
   56.3173   29.5684   42.1394 H   0  0  0  0  0  0  0  0  0  0  0  0
   57.9813   28.8920   42.1394 H   0  0  0  0  0  0  0  0  0  0  0  0
  1  2  1  0
  2  3  1  0
  3  4  2  0
  4  5  1  0
  5  6  2  0
  5  7  1  0
  7  8  1  0
  8  9  2  0
  9 10  1  0
 10 11  2  0
 11 12  1  0
 12 13  2  0
 13 14  1  0
  4 15  1  0
 15 16  1  6
 15 17  1  0
 17 18  1  0
 17 19  1  0
 15 20  1  0
 20 21  1  0
 21 22  2  0
 22 23  1  0
 23 24  2  0
 24 25  1  0
 25 26  1  0
 25 27  2  0
 25 28  2  0
 24 29  1  0
 29 30  2  0
 20 31  1  0
 31 32  1  0
 31 33  1  0
 31  2  1  0
 13  8  1  0
 30 21  1  0
  1 34  1  0
  1 35  1  0
  1 36  1  0
  2 37  1  6
  3 38  1  0
  7 39  1  0
  9 40  1  0
 10 41  1  0
 11 42  1  0
 12 43  1  0
 16 44  1  0
 17 45  1  0
 18 46  1  0
 18 47  1  0
 18 48  1  0
 19 49  1  0
 19 50  1  0
 19 51  1  0
 22 52  1  0
 23 53  1  0
 26 54  1  0
 29 55  1  0
 30 56  1  0
 32 57  1  0
 32 58  1  0
 32 59  1  0
 33 60  1  0
 33 61  1  0
 33 62  1  0
M  CHG  1  26  -1
M  END
>  <UniqueID>  (9) 
6

>  <SMILES>  (9) 
CC(C)[C@]1(O)C(C(=O)Nc2ccccc2Cl)=C[C@H](C)C(C)(C)N1c1ccc(S([NH-])(=O)=O)cc1

>  <Energy>  (9) 
102.08617903177212

>  <Genealogy>  (9) 
CC1C=C(C(=O)Nc2ccccc2Cl)C(O)(C(C)C)N(c2ccc(S([NH-])(=O)=O)cc2)C1(C)C (protonated)
CC(C)[C@]1(O)C(C(=O)Nc2ccccc2Cl)=C[C@H](C)C(C)(C)N1c1ccc(S([NH-])(=O)=O)cc1 (chirality)
CC(C)[C@]1(O)C(C(=O)Nc2ccccc2Cl)=C[C@H](C)C(C)(C)N1c1ccc(S([NH-])(=O)=O)cc1 (3D coordinates assigned)
CC(C)[C@]1(O)C(C(=O)Nc2ccccc2Cl)=C[C@H](C)C(C)(C)N1c1ccc(S([NH-])(=O)=O)cc1 (nonaromatic ring conformer: 102.08617903177212 kcal/mol)

>  <smiles>  (9) 
CC1C=C(C(=O)Nc2ccccc2Cl)C(O)(C(C)C)N(c2ccc(S(N)(=O)=O)cc2)C1(C)C

>  <score_type>  (9) 
oracle

>  <origin>  (9) 
adg

>  <m_score__min__energy>  (9) 
-11.24

>  <m_primary>  (9) 
energy

$$$$
9:0
     RDKit          3D

 39 41  0  0  0  0  0  0  0  0999 V2000
   60.2000   28.8600   44.8400 C   0  0  0  0  0  0  0  0  0  0  0  0
   59.4900   30.1070   45.2750 C   0  0  0  0  0  0  0  0  0  0  0  0
   60.0620   31.0110   46.1710 C   0  0  0  0  0  0  0  0  0  0  0  0
   58.9740   32.2700   46.4250 S   0  0  0  0  0  0  0  0  0  0  0  0
   57.8280   31.6240   45.3860 C   0  0  0  0  0  0  0  0  0  0  0  0
   56.7080   32.1530   45.1580 O   0  0  0  0  0  0  0  0  0  0  0  0
   58.2440   30.4610   44.8270 N   0  0  0  0  0  0  0  0  0  0  0  0
   57.4150   29.6500   43.9250 C   0  0  0  0  0  0  0  0  0  0  0  0
   56.1070   29.3310   44.5780 C   0  0  0  0  0  0  0  0  0  0  0  0
   55.1430   30.1340   44.4740 O   0  0  0  0  0  0  0  0  0  0  0  0
   55.9520   28.0770   45.2540 N   0  0  0  0  0  0  0  0  0  0  0  0
   56.9200   27.4140   46.0790 C   0  0  0  0  0  0  0  0  0  0  0  0
   57.8550   28.1320   46.8470 C   0  0  0  0  0  0  0  0  0  0  0  0
   58.7970   27.4510   47.6270 C   0  0  0  0  0  0  0  0  0  0  0  0
   59.9600   28.3520   48.5820 Cl  0  0  0  0  0  0  0  0  0  0  0  0
   58.8270   26.0550   47.6270 C   0  0  0  0  0  0  0  0  0  0  0  0
   57.9170   25.3360   46.8490 C   0  0  0  0  0  0  0  0  0  0  0  0
   56.9530   26.0100   46.0770 C   0  0  0  0  0  0  0  0  0  0  0  0
   56.0430   25.3120   45.2690 O   0  0  0  0  0  0  0  0  0  0  0  0
   56.2590   24.0480   44.7010 C   0  0  0  0  0  0  0  0  0  0  0  0
   56.2570   22.8710   45.4760 C   0  0  0  0  0  0  0  0  0  0  0  0
   56.4570   21.6290   44.8660 C   0  0  0  0  0  0  0  0  0  0  0  0
   56.6480   21.5490   43.4840 C   0  0  0  0  0  0  0  0  0  0  0  0
   56.6320   22.7120   42.7080 C   0  0  0  0  0  0  0  0  0  0  0  0
   56.4320   23.9560   43.3150 C   0  0  0  0  0  0  0  0  0  0  0  0
   60.5225   28.2936   45.7261 H   0  0  0  0  0  0  0  0  0  0  0  0
   59.5187   28.2414   44.2374 H   0  0  0  0  0  0  0  0  0  0  0  0
   61.0797   29.1302   44.2374 H   0  0  0  0  0  0  0  0  0  0  0  0
   61.0558   30.9168   46.6331 H   0  0  0  0  0  0  0  0  0  0  0  0
   57.2312   30.2109   42.9967 H   0  0  0  0  0  0  0  0  0  0  0  0
   57.9422   28.7119   43.6968 H   0  0  0  0  0  0  0  0  0  0  0  0
   57.8457   29.2319   46.8345 H   0  0  0  0  0  0  0  0  0  0  0  0
   59.5679   25.5212   48.2402 H   0  0  0  0  0  0  0  0  0  0  0  0
   57.9541   24.2367   46.8397 H   0  0  0  0  0  0  0  0  0  0  0  0
   56.0978   22.9296   46.5628 H   0  0  0  0  0  0  0  0  0  0  0  0
   56.4640   20.7130   45.4751 H   0  0  0  0  0  0  0  0  0  0  0  0
   56.8109   20.5714   43.0068 H   0  0  0  0  0  0  0  0  0  0  0  0
   56.7768   22.6485   41.6194 H   0  0  0  0  0  0  0  0  0  0  0  0
   56.4105   24.8675   42.6996 H   0  0  0  0  0  0  0  0  0  0  0  0
  1  2  1  0
  2  3  2  0
  3  4  1  0
  4  5  1  0
  5  6  2  0
  5  7  1  0
  7  8  1  0
  8  9  1  0
  9 10  2  0
  9 11  1  0
 11 12  1  0
 12 13  2  0
 13 14  1  0
 14 15  1  0
 14 16  2  0
 16 17  1  0
 17 18  2  0
 18 19  1  0
 19 20  1  0
 20 21  2  0
 21 22  1  0
 22 23  2  0
 23 24  1  0
 24 25  2  0
  7  2  1  0
 18 12  1  0
 25 20  1  0
  1 26  1  0
  1 27  1  0
  1 28  1  0
  3 29  1  0
  8 30  1  0
  8 31  1  0
 13 32  1  0
 16 33  1  0
 17 34  1  0
 21 35  1  0
 22 36  1  0
 23 37  1  0
 24 38  1  0
 25 39  1  0
M  CHG  1  11  -1
M  END
>  <UniqueID>  (10) 
7

>  <SMILES>  (10) 
Cc1csc(=O)n1CC(=O)[N-]c1cc(Cl)ccc1Oc1ccccc1

>  <Energy>  (10) 
79.87635078968849

>  <Genealogy>  (10) 
Cc1csc(=O)n1CC(=O)[N-]c1cc(Cl)ccc1Oc1ccccc1 (protonated)
Cc1csc(=O)n1CC(=O)[N-]c1cc(Cl)ccc1Oc1ccccc1 (3D coordinates assigned)
Cc1csc(=O)n1CC(=O)[N-]c1cc(Cl)ccc1Oc1ccccc1 (optimized conformer: 79.87635078968849 kcal/mol)

>  <smiles>  (10) 
Cc1csc(=O)n1CC(=O)Nc1cc(Cl)ccc1Oc1ccccc1

>  <score_type>  (10) 
oracle

>  <origin>  (10) 
adg

>  <m_score__min__energy>  (10) 
-9.7599999999999998

>  <m_primary>  (10) 
energy

$$$$
10:0
     RDKit          3D

 48 50  0  0  0  0  0  0  0  0999 V2000
   59.2410   24.4400   46.1190 C   0  0  0  0  0  0  0  0  0  0  0  0
   58.9780   25.8910   45.8140 C   0  0  0  0  0  0  0  0  0  0  0  0
   60.0700   26.7650   45.6790 C   0  0  0  0  0  0  0  0  0  0  0  0
   59.8700   28.1180   45.4030 C   0  0  0  0  0  0  0  0  0  0  0  0
   58.5760   28.6260   45.2450 C   0  0  0  0  0  0  0  0  0  0  0  0
   58.4000   30.0260   44.9690 N   0  0  0  0  0  0  0  0  0  0  0  0
   57.1210   30.6640   44.8220 C   0  0  0  0  0  0  0  0  0  0  0  0
   56.0590   29.9850   44.8140 O   0  0  0  0  0  0  0  0  0  0  0  0
   57.0490   32.1430   44.6150 C   0  0  0  0  0  0  0  0  0  0  0  0
   57.6640   32.8120   45.7500 N   0  0  0  0  0  0  0  0  0  0  0  0
   58.0690   34.1810   45.7250 C   0  0  0  0  0  0  0  0  0  0  0  0
   57.6160   34.9650   44.8480 O   0  0  0  0  0  0  0  0  0  0  0  0
   58.9960   34.7000   46.7800 C   0  0  0  0  0  0  0  0  0  0  0  0
   59.5680   33.5530   47.5860 C   0  0  0  0  0  0  0  0  0  0  0  0
   58.6780   32.7860   48.3600 C   0  0  0  0  0  0  0  0  0  0  0  0
   59.1290   31.6920   49.0970 C   0  0  0  0  0  0  0  0  0  0  0  0
   60.4720   31.3310   49.0690 C   0  0  0  0  0  0  0  0  0  0  0  0
   61.3840   32.0630   48.2980 C   0  0  0  0  0  0  0  0  0  0  0  0
   62.7340   31.6790   48.2660 C   0  0  0  0  0  0  0  0  0  0  0  0
   63.6520   32.3950   47.4970 C   0  0  0  0  0  0  0  0  0  0  0  0
   63.2340   33.5000   46.7590 C   0  0  0  0  0  0  0  0  0  0  0  0
   61.8940   33.8960   46.7770 C   0  0  0  0  0  0  0  0  0  0  0  0
   60.9430   33.1860   47.5440 C   0  0  0  0  0  0  0  0  0  0  0  0
   57.4770   27.7700   45.4200 C   0  0  0  0  0  0  0  0  0  0  0  0
   57.6630   26.4060   45.7050 C   0  0  0  0  0  0  0  0  0  0  0  0
   56.2360   25.3730   45.9040 S   0  0  0  0  0  0  0  0  0  0  0  0
   54.8160   26.3540   45.9910 N   0  0  0  0  0  0  0  0  0  0  0  0
   56.3490   24.5660   47.1670 O   0  0  0  0  0  0  0  0  0  0  0  0
   56.1250   24.4240   44.7430 O   0  0  0  0  0  0  0  0  0  0  0  0
   59.2676   24.2934   47.2089 H   0  0  0  0  0  0  0  0  0  0  0  0
   58.4400   23.8232   45.6855 H   0  0  0  0  0  0  0  0  0  0  0  0
   60.2075   24.1435   45.6855 H   0  0  0  0  0  0  0  0  0  0  0  0
   61.0936   26.3783   45.7921 H   0  0  0  0  0  0  0  0  0  0  0  0
   60.7358   28.7900   45.3090 H   0  0  0  0  0  0  0  0  0  0  0  0
   59.2530   30.5930   44.7610 H   0  0  0  0  0  0  0  0  0  0  0  0
   57.5855   32.4126   43.6933 H   0  0  0  0  0  0  0  0  0  0  0  0
   55.9977   32.4543   44.5260 H   0  0  0  0  0  0  0  0  0  0  0  0
   59.8178   35.2527   46.3013 H   0  0  0  0  0  0  0  0  0  0  0  0
   58.4360   35.3663   47.4527 H   0  0  0  0  0  0  0  0  0  0  0  0
   57.6112   33.0533   48.3839 H   0  0  0  0  0  0  0  0  0  0  0  0
   58.4190   31.1111   49.7040 H   0  0  0  0  0  0  0  0  0  0  0  0
   60.8193   30.4671   49.6547 H   0  0  0  0  0  0  0  0  0  0  0  0
   63.0697   30.8094   48.8500 H   0  0  0  0  0  0  0  0  0  0  0  0
   64.7076   32.0864   47.4735 H   0  0  0  0  0  0  0  0  0  0  0  0
   63.9629   34.0641   46.1586 H   0  0  0  0  0  0  0  0  0  0  0  0
   61.5763   34.7692   46.1882 H   0  0  0  0  0  0  0  0  0  0  0  0
   56.4568   28.1720   45.3329 H   0  0  0  0  0  0  0  0  0  0  0  0
   55.1370   27.3440   46.0820 H   0  0  0  0  0  0  0  0  0  0  0  0
  1  2  1  0
  2  3  2  0
  3  4  1  0
  4  5  2  0
  5  6  1  0
  6  7  1  0
  7  8  2  0
  7  9  1  0
  9 10  1  0
 10 11  1  0
 11 12  2  0
 11 13  1  0
 13 14  1  0
 14 15  2  0
 15 16  1  0
 16 17  2  0
 17 18  1  0
 18 19  2  0
 19 20  1  0
 20 21  2  0
 21 22  1  0
 22 23  2  0
  5 24  1  0
 24 25  2  0
 25 26  1  0
 26 27  1  0
 26 28  2  0
 26 29  2  0
 25  2  1  0
 23 14  1  0
 23 18  1  0
  1 30  1  0
  1 31  1  0
  1 32  1  0
  3 33  1  0
  4 34  1  0
  6 35  1  0
  9 36  1  0
  9 37  1  0
 13 38  1  0
 13 39  1  0
 15 40  1  0
 16 41  1  0
 17 42  1  0
 19 43  1  0
 20 44  1  0
 21 45  1  0
 22 46  1  0
 24 47  1  0
 27 48  1  0
M  CHG  2  10  -1  27  -1
M  END
>  <UniqueID>  (11) 
8

>  <SMILES>  (11) 
Cc1ccc(NC(=O)C[N-]C(=O)Cc2cccc3ccccc23)cc1S([NH-])(=O)=O

>  <Energy>  (11) 
54.10304888784113

>  <Genealogy>  (11) 
Cc1ccc(NC(=O)C[N-]C(=O)Cc2cccc3ccccc23)cc1S([NH-])(=O)=O (protonated)
Cc1ccc(NC(=O)C[N-]C(=O)Cc2cccc3ccccc23)cc1S([NH-])(=O)=O (3D coordinates assigned)
Cc1ccc(NC(=O)C[N-]C(=O)Cc2cccc3ccccc23)cc1S([NH-])(=O)=O (optimized conformer: 54.10304888784113 kcal/mol)

>  <smiles>  (11) 
Cc1ccc(NC(=O)CNC(=O)Cc2cccc3ccccc23)cc1S(N)(=O)=O

>  <score_type>  (11) 
oracle

>  <origin>  (11) 
adg

>  <m_score__min__energy>  (11) 
-13.75

>  <m_primary>  (11) 
energy

$$$$
11:0
     RDKit          3D

 38 40  0  0  0  0  0  0  0  0999 V2000
   64.2330   33.0110   48.9280 C   0  0  0  0  0  0  0  0  0  0  0  0
   63.4890   33.7500   47.4410 S   0  0  0  0  0  0  0  0  0  0  0  0
   62.0180   32.7270   47.5230 C   0  0  0  0  0  0  0  0  0  0  0  0
   62.1340   31.3320   47.5280 C   0  0  0  0  0  0  0  0  0  0  0  0
   60.9890   30.5330   47.5850 C   0  0  0  0  0  0  0  0  0  0  0  0
   59.7160   31.1240   47.6440 C   0  0  0  0  0  0  0  0  0  0  0  0
   58.4820   30.2630   47.6350 C   0  0  0  0  0  0  0  0  0  0  0  0
   58.5120   29.3750   46.4660 N   0  0  0  0  0  0  0  0  0  0  0  0
   58.9030   27.9960   46.6270 C   0  0  0  0  0  0  0  0  0  0  0  0
   59.6390   27.6540   47.5920 O   0  0  0  0  0  0  0  0  0  0  0  0
   58.4140   26.9480   45.6810 C   0  0  0  0  0  0  0  0  0  0  0  0
   56.9200   26.9570   45.6900 C   0  0  0  0  0  0  0  0  0  0  0  0
   56.2970   25.9560   46.1340 O   0  0  0  0  0  0  0  0  0  0  0  0
   56.1860   28.0910   45.2130 N   0  0  0  0  0  0  0  0  0  0  0  0
   56.8100   29.2530   44.6420 C   0  0  0  0  0  0  0  0  0  0  0  0
   56.2380   29.8300   43.4970 C   0  0  0  0  0  0  0  0  0  0  0  0
   56.8130   30.9560   42.9050 C   0  0  0  0  0  0  0  0  0  0  0  0
   57.9600   31.5250   43.4560 C   0  0  0  0  0  0  0  0  0  0  0  0
   58.5270   30.9790   44.6090 C   0  0  0  0  0  0  0  0  0  0  0  0
   57.9590   29.8490   45.2200 C   0  0  0  0  0  0  0  0  0  0  0  0
   59.6040   32.5240   47.6220 C   0  0  0  0  0  0  0  0  0  0  0  0
   60.7520   33.3210   47.5650 C   0  0  0  0  0  0  0  0  0  0  0  0
   63.7816   33.4594   49.8253 H   0  0  0  0  0  0  0  0  0  0  0  0
   64.0507   31.9262   48.9288 H   0  0  0  0  0  0  0  0  0  0  0  0
   65.3165   33.2007   48.9288 H   0  0  0  0  0  0  0  0  0  0  0  0
   63.1285   30.8638   47.4870 H   0  0  0  0  0  0  0  0  0  0  0  0
   61.0849   29.4372   47.5837 H   0  0  0  0  0  0  0  0  0  0  0  0
   58.4501   29.6587   48.5536 H   0  0  0  0  0  0  0  0  0  0  0  0
   57.5890   30.9034   47.5856 H   0  0  0  0  0  0  0  0  0  0  0  0
   58.7797   27.1649   44.6665 H   0  0  0  0  0  0  0  0  0  0  0  0
   58.7856   25.9599   45.9902 H   0  0  0  0  0  0  0  0  0  0  0  0
   55.1490   27.9900   45.1170 H   0  0  0  0  0  0  0  0  0  0  0  0
   55.3281   29.3907   43.0622 H   0  0  0  0  0  0  0  0  0  0  0  0
   56.3607   31.3944   42.0032 H   0  0  0  0  0  0  0  0  0  0  0  0
   58.4189   32.4051   42.9819 H   0  0  0  0  0  0  0  0  0  0  0  0
   59.4273   31.4382   45.0432 H   0  0  0  0  0  0  0  0  0  0  0  0
   58.6103   32.9950   47.6497 H   0  0  0  0  0  0  0  0  0  0  0  0
   60.6593   34.4170   47.5532 H   0  0  0  0  0  0  0  0  0  0  0  0
  1  2  1  0
  2  3  1  0
  3  4  2  0
  4  5  1  0
  5  6  2  0
  6  7  1  0
  7  8  1  0
  8  9  1  0
  9 10  2  0
  9 11  1  0
 11 12  1  0
 12 13  2  0
 12 14  1  0
 14 15  1  0
 15 16  2  0
 16 17  1  0
 17 18  2  0
 18 19  1  0
 19 20  2  0
  6 21  1  0
 21 22  2  0
 22  3  1  0
 20  8  1  0
 20 15  1  0
  1 23  1  0
  1 24  1  0
  1 25  1  0
  4 26  1  0
  5 27  1  0
  7 28  1  0
  7 29  1  0
 11 30  1  0
 11 31  1  0
 14 32  1  0
 16 33  1  0
 17 34  1  0
 18 35  1  0
 19 36  1  0
 21 37  1  0
 22 38  1  0
M  END
>  <UniqueID>  (12) 
9

>  <SMILES>  (12) 
CSc1ccc(CN2C(=O)CC(=O)Nc3ccccc32)cc1

>  <Energy>  (12) 
44.82349657619242

>  <Genealogy>  (12) 
CSc1ccc(CN2C(=O)CC(=O)Nc3ccccc32)cc1 (3D coordinates assigned)
CSc1ccc(CN2C(=O)CC(=O)Nc3ccccc32)cc1 (nonaromatic ring conformer: 44.82349657619242 kcal/mol)

>  <smiles>  (12) 
CSc1ccc(CN2C(=O)CC(=O)Nc3ccccc32)cc1

>  <score_type>  (12) 
oracle

>  <origin>  (12) 
adg

>  <m_score__min__energy>  (12) 
-6.4000000000000004

>  <m_primary>  (12) 
energy

$$$$
12:0
     RDKit          3D

 51 52  0  0  0  0  0  0  0  0999 V2000
   56.2550   20.0090   44.8660 C   0  0  0  0  0  0  0  0  0  0  0  0
   56.6360   20.4450   43.4610 C   0  0  0  0  0  0  0  0  0  0  0  0
   55.9030   21.6160   43.1120 O   0  0  0  0  0  0  0  0  0  0  0  0
   55.9000   22.8020   43.8620 C   0  0  0  0  0  0  0  0  0  0  0  0
   57.0190   23.6400   43.7850 C   0  0  0  0  0  0  0  0  0  0  0  0
   57.0630   24.8350   44.5060 C   0  0  0  0  0  0  0  0  0  0  0  0
   55.9760   25.2180   45.3110 C   0  0  0  0  0  0  0  0  0  0  0  0
   55.9930   26.4240   46.0860 N   0  0  0  0  0  0  0  0  0  0  0  0
   57.0230   27.4200   46.0750 C   0  0  0  0  0  0  0  0  0  0  0  0
   57.4630   27.8970   47.1560 O   0  0  0  0  0  0  0  0  0  0  0  0
   57.5850   27.8320   44.8220 N   0  0  0  0  0  0  0  0  0  0  0  0
   58.6380   28.8490   44.7240 C   0  0  2  0  0  0  0  0  0  0  0  0
   59.8730   28.4290   45.5510 C   0  0  0  0  0  0  0  0  0  0  0  0
   60.0010   26.9120   45.6900 C   0  0  0  0  0  0  0  0  0  0  0  0
   58.0890   30.2070   45.1280 C   0  0  0  0  0  0  0  0  0  0  0  0
   58.2590   30.8780   46.3360 C   0  0  0  0  0  0  0  0  0  0  0  0
   59.0940   30.4630   47.5060 C   0  0  0  0  0  0  0  0  0  0  0  0
   57.5870   32.0420   46.3040 N   0  0  0  0  0  0  0  0  0  0  0  0
   56.9900   32.1090   45.1520 O   0  0  0  0  0  0  0  0  0  0  0  0
   57.2380   31.0520   44.4110 C   0  0  0  0  0  0  0  0  0  0  0  0
   56.6350   30.8870   43.0350 C   0  0  0  0  0  0  0  0  0  0  0  0
   57.4160   31.6480   41.9580 C   0  0  0  0  0  0  0  0  0  0  0  0
   56.4180   29.4150   42.6690 C   0  0  0  0  0  0  0  0  0  0  0  0
   54.8670   24.3690   45.4090 C   0  0  0  0  0  0  0  0  0  0  0  0
   54.8220   23.1730   44.6850 C   0  0  0  0  0  0  0  0  0  0  0  0
   56.7940   20.6258   45.6002 H   0  0  0  0  0  0  0  0  0  0  0  0
   55.1713   20.1338   45.0074 H   0  0  0  0  0  0  0  0  0  0  0  0
   56.5239   18.9518   45.0074 H   0  0  0  0  0  0  0  0  0  0  0  0
   57.7137   20.6624   43.4241 H   0  0  0  0  0  0  0  0  0  0  0  0
   56.4000   19.6392   42.7503 H   0  0  0  0  0  0  0  0  0  0  0  0
   57.8712   23.3544   43.1508 H   0  0  0  0  0  0  0  0  0  0  0  0
   57.9522   25.4796   44.4438 H   0  0  0  0  0  0  0  0  0  0  0  0
   57.2440   27.3490   43.9590 H   0  0  0  0  0  0  0  0  0  0  0  0
   58.9740   28.9348   43.6801 H   0  0  0  0  0  0  0  0  0  0  0  0
   60.7762   28.8146   45.0555 H   0  0  0  0  0  0  0  0  0  0  0  0
   59.7542   28.8467   46.5616 H   0  0  0  0  0  0  0  0  0  0  0  0
   60.0238   26.6421   46.7561 H   0  0  0  0  0  0  0  0  0  0  0  0
   59.1407   26.4256   45.2069 H   0  0  0  0  0  0  0  0  0  0  0  0
   60.9306   26.5767   45.2069 H   0  0  0  0  0  0  0  0  0  0  0  0
   58.5724   30.7223   48.4391 H   0  0  0  0  0  0  0  0  0  0  0  0
   59.2620   29.3765   47.4696 H   0  0  0  0  0  0  0  0  0  0  0  0
   60.0615   30.9851   47.4696 H   0  0  0  0  0  0  0  0  0  0  0  0
   55.6374   31.3487   43.0755 H   0  0  0  0  0  0  0  0  0  0  0  0
   58.1248   32.3386   42.4382 H   0  0  0  0  0  0  0  0  0  0  0  0
   57.9687   30.9325   41.3314 H   0  0  0  0  0  0  0  0  0  0  0  0
   56.7151   32.2190   41.3314 H   0  0  0  0  0  0  0  0  0  0  0  0
   56.3299   28.8177   43.5885 H   0  0  0  0  0  0  0  0  0  0  0  0
   55.4956   29.3163   42.0779 H   0  0  0  0  0  0  0  0  0  0  0  0
   57.2727   29.0543   42.0779 H   0  0  0  0  0  0  0  0  0  0  0  0
   54.0246   24.6446   46.0604 H   0  0  0  0  0  0  0  0  0  0  0  0
   53.9398   22.5202   44.7598 H   0  0  0  0  0  0  0  0  0  0  0  0
  1  2  1  0
  2  3  1  0
  3  4  1  0
  4  5  2  0
  5  6  1  0
  6  7  2  0
  7  8  1  0
  8  9  1  0
  9 10  2  0
  9 11  1  0
 11 12  1  0
 12 13  1  0
 13 14  1  0
 12 15  1  0
 15 16  1  0
 16 17  1  0
 16 18  2  0
 18 19  1  0
 19 20  1  0
 20 21  1  0
 21 22  1  0
 21 23  1  0
  7 24  1  0
 24 25  2  0
 25  4  1  0
 20 15  2  0
  1 26  1  0
  1 27  1  0
  1 28  1  0
  2 29  1  0
  2 30  1  0
  5 31  1  0
  6 32  1  0
 11 33  1  0
 12 34  1  6
 13 35  1  0
 13 36  1  0
 14 37  1  0
 14 38  1  0
 14 39  1  0
 17 40  1  0
 17 41  1  0
 17 42  1  0
 21 43  1  0
 22 44  1  0
 22 45  1  0
 22 46  1  0
 23 47  1  0
 23 48  1  0
 23 49  1  0
 24 50  1  0
 25 51  1  0
M  CHG  1   8  -1
M  END
>  <UniqueID>  (13) 
10

>  <SMILES>  (13) 
CCOc1ccc([N-]C(=O)N[C@H](CC)c2c(C)noc2C(C)C)cc1

>  <Energy>  (13) 
72.1820795447218

>  <Genealogy>  (13) 
CCOc1ccc([N-]C(=O)NC(CC)c2c(C)noc2C(C)C)cc1 (protonated)
CCOc1ccc([N-]C(=O)N[C@H](CC)c2c(C)noc2C(C)C)cc1 (chirality)
CCOc1ccc([N-]C(=O)N[C@H](CC)c2c(C)noc2C(C)C)cc1 (3D coordinates assigned)
CCOc1ccc([N-]C(=O)N[C@H](CC)c2c(C)noc2C(C)C)cc1 (optimized conformer: 72.1820795447218 kcal/mol)

>  <smiles>  (13) 
CCOc1ccc(NC(=O)NC(CC)c2c(C)noc2C(C)C)cc1

>  <score_type>  (13) 
oracle

>  <origin>  (13) 
adg

>  <m_score__min__energy>  (13) 
-9.1999999999999993

>  <m_primary>  (13) 
energy

$$$$
13:0
     RDKit          3D

 28 28  0  0  0  0  0  0  0  0999 V2000
   56.2416   33.7420   46.1874 H   0  0  0  0  0  0  0  0  0  0  0  0
   57.0240   33.0880   45.7750 C   0  0  0  0  0  0  0  0  0  0  0  0
   56.6920   32.2130   44.8770 N   0  0  0  0  0  0  0  0  0  0  0  0
   56.8930   30.8600   45.0510 O   0  0  0  0  0  0  0  0  0  0  0  0
   56.1690   29.9270   44.3130 C   0  0  0  0  0  0  0  0  0  0  0  0
   55.1800   29.3360   44.8240 O   0  0  0  0  0  0  0  0  0  0  0  0
   56.5380   29.6610   42.8940 C   0  0  0  0  0  0  0  0  0  0  0  0
   57.4299   29.0180   42.8614 H   0  0  0  0  0  0  0  0  0  0  0  0
   55.7030   29.1557   42.3865 H   0  0  0  0  0  0  0  0  0  0  0  0
   56.7534   30.6129   42.3865 H   0  0  0  0  0  0  0  0  0  0  0  0
   58.4090   33.2440   46.2680 C   0  0  0  0  0  0  0  0  0  0  0  0
   59.1030   34.4210   45.9490 C   0  0  0  0  0  0  0  0  0  0  0  0
   58.6087   35.2009   45.3512 H   0  0  0  0  0  0  0  0  0  0  0  0
   60.4150   34.6100   46.3840 C   0  0  0  0  0  0  0  0  0  0  0  0
   60.9461   35.5424   46.1420 H   0  0  0  0  0  0  0  0  0  0  0  0
   61.0530   33.6160   47.1260 C   0  0  0  0  0  0  0  0  0  0  0  0
   62.0842   33.7698   47.4766 H   0  0  0  0  0  0  0  0  0  0  0  0
   60.3860   32.4260   47.4250 C   0  0  0  0  0  0  0  0  0  0  0  0
   60.8991   31.6433   48.0031 H   0  0  0  0  0  0  0  0  0  0  0  0
   59.0610   32.2200   46.9920 C   0  0  0  0  0  0  0  0  0  0  0  0
   58.3780   31.0160   47.2260 O   0  0  0  0  0  0  0  0  0  0  0  0
   58.9440   29.4520   46.8160 S   0  0  0  0  0  0  0  0  0  0  0  0
   57.7880   28.4980   46.7040 O   0  0  0  0  0  0  0  0  0  0  0  0
   59.8660   28.9750   47.9010 O   0  0  0  0  0  0  0  0  0  0  0  0
   59.8470   29.5000   45.2820 C   0  0  0  0  0  0  0  0  0  0  0  0
   60.9251   29.5573   45.4928 H   0  0  0  0  0  0  0  0  0  0  0  0
   59.6345   28.5893   44.7028 H   0  0  0  0  0  0  0  0  0  0  0  0
   59.5392   30.3831   44.7028 H   0  0  0  0  0  0  0  0  0  0  0  0
  1  2  1  0
  2  3  2  0
  3  4  1  0
  4  5  1  0
  5  6  2  0
  5  7  1  0
  7  8  1  0
  7  9  1  0
  7 10  1  0
  2 11  1  0
 11 12  2  0
 12 13  1  0
 12 14  1  0
 14 15  1  0
 14 16  2  0
 16 17  1  0
 16 18  1  0
 18 19  1  0
 18 20  2  0
 20 21  1  0
 21 22  1  0
 22 23  2  0
 22 24  2  0
 22 25  1  0
 25 26  1  0
 25 27  1  0
 25 28  1  0
 20 11  1  0
M  END
>  <UniqueID>  (14) 
11

>  <SMILES>  (14) 
CC(=O)O/N=C\c1ccccc1OS(C)(=O)=O

>  <Energy>  (14) 
23.20981778704971

>  <Genealogy>  (14) 
CC(=O)O/N=C\c1ccccc1OS(C)(=O)=O (cis-trans isomerization)
CC(=O)O/N=C\c1ccccc1OS(C)(=O)=O (3D coordinates assigned)
CC(=O)O/N=C\c1ccccc1OS(C)(=O)=O (optimized conformer: 23.20981778704971 kcal/mol)

>  <smiles>  (14) 
CC(=O)ON=Cc1ccccc1OS(C)(=O)=O

>  <score_type>  (14) 
oracle

>  <origin>  (14) 
adg

>  <m_score__min__energy>  (14) 
-7.04

>  <m_primary>  (14) 
energy

$$$$
14:0
     RDKit          3D

 35 37  0  0  1  0  0  0  0  0999 V2000
   56.3060   29.6810   42.6880 C   0  0  0  0  0  0  0  0  0  0  0  0
   57.0580   29.9760   43.9580 C   0  0  0  0  0  0  0  0  0  0  0  0
   56.6140   31.1760   44.5540 O   0  0  0  0  0  0  0  0  0  0  0  0
   57.4030   32.1360   45.1350 C   0  0  0  0  0  0  0  0  0  0  0  0
   58.1260   31.7490   46.2680 C   0  0  0  0  0  0  0  0  0  0  0  0
   58.9500   32.6480   46.9260 C   0  0  0  0  0  0  0  0  0  0  0  0
   59.0590   33.9460   46.4540 C   0  0  0  0  0  0  0  0  0  0  0  0
   59.9210   34.8240   47.1710 N   0  0  0  0  0  0  0  0  0  0  0  0
   60.6710   34.2890   48.0890 C   0  0  0  0  0  0  0  0  0  0  0  0
   60.2370   34.1920   49.3830 C   0  0  0  0  0  0  0  0  0  0  0  0
   61.0750   33.6170   50.3070 C   0  0  0  0  0  0  0  0  0  0  0  0
   60.7150   33.4550   51.7380 C   0  0  0  0  0  0  0  0  0  0  0  0
   62.2770   33.1780   49.9050 N   0  0  0  0  0  0  0  0  0  0  0  0
   62.6790   33.2870   48.6270 C   0  0  0  0  0  0  0  0  0  0  0  0
   63.8490   32.9030   48.0470 N   0  0  0  0  0  0  0  0  0  0  0  0
   63.7610   33.2320   46.7450 C   0  0  0  0  0  0  0  0  0  0  0  0
   62.5560   33.8050   46.5560 N   0  0  0  0  0  0  0  0  0  0  0  0
   61.8820   33.8470   47.6920 N   0  0  0  0  0  0  0  0  0  0  0  0
   58.3490   34.3210   45.3440 C   0  0  0  0  0  0  0  0  0  0  0  0
   57.5260   33.4330   44.6830 C   0  0  0  0  0  0  0  0  0  0  0  0
   55.3082   29.2896   42.9352 H   0  0  0  0  0  0  0  0  0  0  0  0
   56.2021   30.6050   42.1003 H   0  0  0  0  0  0  0  0  0  0  0  0
   56.8581   28.9328   42.1003 H   0  0  0  0  0  0  0  0  0  0  0  0
   56.9047   29.1474   44.6651 H   0  0  0  0  0  0  0  0  0  0  0  0
   58.1241   30.0868   43.7106 H   0  0  0  0  0  0  0  0  0  0  0  0
   58.0394   30.7180   46.6415 H   0  0  0  0  0  0  0  0  0  0  0  0
   59.5136   32.3333   47.8167 H   0  0  0  0  0  0  0  0  0  0  0  0
   59.2441   34.5643   49.6753 H   0  0  0  0  0  0  0  0  0  0  0  0
   61.5378   33.8252   52.3673 H   0  0  0  0  0  0  0  0  0  0  0  0
   59.8017   34.0289   51.9536 H   0  0  0  0  0  0  0  0  0  0  0  0
   60.5388   32.3908   51.9536 H   0  0  0  0  0  0  0  0  0  0  0  0
   62.9210   32.7380   50.6130 H   0  0  0  0  0  0  0  0  0  0  0  0
   64.5304   33.0642   45.9770 H   0  0  0  0  0  0  0  0  0  0  0  0
   58.4371   35.3524   44.9719 H   0  0  0  0  0  0  0  0  0  0  0  0
   56.9669   33.7600   43.7939 H   0  0  0  0  0  0  0  0  0  0  0  0
  1  2  1  0
  2  3  1  0
  3  4  1  0
  4  5  2  0
  5  6  1  0
  6  7  2  0
  7  8  1  0
  8  9  2  0
  9 10  1  0
 10 11  2  0
 11 12  1  0
 11 13  1  0
 13 14  1  0
 14 15  2  0
 15 16  1  0
 16 17  2  0
 17 18  1  0
  7 19  1  0
 19 20  2  0
 20  4  1  0
 18  9  1  0
 18 14  1  0
  1 21  1  0
  1 22  1  0
  1 23  1  0
  2 24  1  0
  2 25  1  0
  5 26  1  0
  6 27  1  0
 10 28  1  0
 12 29  1  0
 12 30  1  0
 12 31  1  0
 13 32  1  0
 16 33  1  0
 19 34  1  0
 20 35  1  0
M  END
>  <smiles>  (15) 
CCOc1ccc(N=c2cc(C)[nH]c3ncnn23)cc1

>  <score_type>  (15) 
oracle

>  <origin>  (15) 
adg

>  <m_score__min__energy>  (15) 
-6.6200000000000001

>  <m_primary>  (15) 
energy

$$$$
15:0
     RDKit          3D

 45 48  0  0  0  0  0  0  0  0999 V2000
   62.2400   30.4660   46.4950 O   0  0  0  0  0  0  0  0  0  0  0  0
   61.2240   30.9750   47.0420 C   0  0  0  0  0  0  0  0  0  0  0  0
   61.3190   31.5290   48.3650 N   0  0  0  0  0  0  0  0  0  0  0  0
   62.5510   31.9520   48.9740 C   0  0  0  0  0  0  0  0  0  0  0  0
   62.9260   31.4110   50.2140 C   0  0  0  0  0  0  0  0  0  0  0  0
   64.1070   31.8240   50.8380 C   0  0  0  0  0  0  0  0  0  0  0  0
   64.9170   32.7920   50.2370 C   0  0  0  0  0  0  0  0  0  0  0  0
   66.3960   33.3130   51.0230 Cl  0  0  0  0  0  0  0  0  0  0  0  0
   64.5400   33.3530   49.0120 C   0  0  0  0  0  0  0  0  0  0  0  0
   63.3600   32.9410   48.3850 C   0  0  0  0  0  0  0  0  0  0  0  0
   59.9180   30.8730   46.3610 C   0  0  0  0  0  0  0  0  0  0  0  0
   59.4860   29.6340   46.0170 N   0  0  0  0  0  0  0  0  0  0  0  0
   58.3020   29.4070   45.4420 N   0  0  0  0  0  0  0  0  0  0  0  0
   57.9580   28.0450   45.1220 C   0  0  0  0  0  0  0  0  0  0  0  0
   58.1280   27.5680   43.8140 C   0  0  0  0  0  0  0  0  0  0  0  0
   57.7760   26.2550   43.4880 C   0  0  0  0  0  0  0  0  0  0  0  0
   57.2350   25.4010   44.4560 C   0  0  0  0  0  0  0  0  0  0  0  0
   56.9010   24.0920   44.0720 O   0  0  0  0  0  0  0  0  0  0  0  0
   55.5900   23.5310   44.1130 C   0  0  0  0  0  0  0  0  0  0  0  0
   55.6430   22.3160   44.7670 F   0  0  0  0  0  0  0  0  0  0  0  0
   55.1190   23.3250   42.8280 F   0  0  0  0  0  0  0  0  0  0  0  0
   54.7330   24.3720   44.8010 F   0  0  0  0  0  0  0  0  0  0  0  0
   57.0480   25.8820   45.7660 C   0  0  0  0  0  0  0  0  0  0  0  0
   57.4010   27.1950   46.0920 C   0  0  0  0  0  0  0  0  0  0  0  0
   57.4390   30.4420   45.1980 C   0  0  0  0  0  0  0  0  0  0  0  0
   56.2920   30.2160   44.7190 O   0  0  0  0  0  0  0  0  0  0  0  0
   57.8310   31.7600   45.4940 C   0  0  0  0  0  0  0  0  0  0  0  0
   56.9850   32.8520   45.2170 C   0  0  0  0  0  0  0  0  0  0  0  0
   57.4070   34.1570   45.4780 C   0  0  0  0  0  0  0  0  0  0  0  0
   58.6770   34.3880   46.0050 C   0  0  0  0  0  0  0  0  0  0  0  0
   59.5250   33.3180   46.2930 C   0  0  0  0  0  0  0  0  0  0  0  0
   59.1040   31.9890   46.0690 C   0  0  0  0  0  0  0  0  0  0  0  0
   60.4460   31.5610   48.9400 H   0  0  0  0  0  0  0  0  0  0  0  0
   62.2868   30.6576   50.6976 H   0  0  0  0  0  0  0  0  0  0  0  0
   64.3995   31.3863   51.8039 H   0  0  0  0  0  0  0  0  0  0  0  0
   65.1730   34.1196   48.5412 H   0  0  0  0  0  0  0  0  0  0  0  0
   63.0629   33.3922   47.4268 H   0  0  0  0  0  0  0  0  0  0  0  0
   58.5409   28.2313   43.0398 H   0  0  0  0  0  0  0  0  0  0  0  0
   57.9256   25.8896   42.4613 H   0  0  0  0  0  0  0  0  0  0  0  0
   56.6224   25.2220   46.5362 H   0  0  0  0  0  0  0  0  0  0  0  0
   57.2414   27.5652   47.1155 H   0  0  0  0  0  0  0  0  0  0  0  0
   55.9857   32.6753   44.7924 H   0  0  0  0  0  0  0  0  0  0  0  0
   56.7370   35.0037   45.2677 H   0  0  0  0  0  0  0  0  0  0  0  0
   59.0120   35.4185   46.1946 H   0  0  0  0  0  0  0  0  0  0  0  0
   60.5294   33.5114   46.6977 H   0  0  0  0  0  0  0  0  0  0  0  0
  1  2  2  0
  2  3  1  0
  3  4  1  0
  4  5  2  0
  5  6  1  0
  6  7  2  0
  7  8  1  0
  7  9  1  0
  9 10  2  0
  2 11  1  0
 11 12  2  0
 12 13  1  0
 13 14  1  0
 14 15  2  0
 15 16  1  0
 16 17  2  0
 17 18  1  0
 18 19  1  0
 19 20  1  0
 19 21  1  0
 19 22  1  0
 17 23  1  0
 23 24  2  0
 13 25  1  0
 25 26  2  0
 25 27  1  0
 27 28  2  0
 28 29  1  0
 29 30  2  0
 30 31  1  0
 31 32  2  0
 10  4  1  0
 32 11  1  0
 24 14  1  0
 32 27  1  0
  3 33  1  0
  5 34  1  0
  6 35  1  0
  9 36  1  0
 10 37  1  0
 15 38  1  0
 16 39  1  0
 23 40  1  0
 24 41  1  0
 28 42  1  0
 29 43  1  0
 30 44  1  0
 31 45  1  0
M  END
>  <UniqueID>  (16) 
12

>  <SMILES>  (16) 
O=C(Nc1ccc(Cl)cc1)c1nn(-c2ccc(OC(F)(F)F)cc2)c(=O)c2ccccc12

>  <Energy>  (16) 
72.10056764833325

>  <Genealogy>  (16) 
O=C(Nc1ccc(Cl)cc1)c1nn(-c2ccc(OC(F)(F)F)cc2)c(=O)c2ccccc12 (3D coordinates assigned)
O=C(Nc1ccc(Cl)cc1)c1nn(-c2ccc(OC(F)(F)F)cc2)c(=O)c2ccccc12 (optimized conformer: 72.10056764833325 kcal/mol)

>  <smiles>  (16) 
O=C(Nc1ccc(Cl)cc1)c1nn(-c2ccc(OC(F)(F)F)cc2)c(=O)c2ccccc12

>  <score_type>  (16) 
oracle

>  <origin>  (16) 
adg

>  <m_score__min__energy>  (16) 
-8.2699999999999996

>  <m_primary>  (16) 
energy

$$$$
16:0
     RDKit          3D

 32 33  0  0  0  0  0  0  0  0999 V2000
   60.3392   28.6231   45.5616 H   0  0  0  0  0  0  0  0  0  0  0  0
   59.3060   28.8590   45.2670 C   0  0  0  0  0  0  0  0  0  0  0  0
   58.2650   28.0040   45.6360 C   0  0  0  0  0  0  0  0  0  0  0  0
   58.4810   27.0964   46.2187 H   0  0  0  0  0  0  0  0  0  0  0  0
   56.9430   28.3000   45.2650 C   0  0  0  0  0  0  0  0  0  0  0  0
   55.8400   27.4530   45.6200 N   0  0  0  0  0  0  0  0  0  0  0  0
   55.8910   25.7260   45.7660 S   0  0  0  0  0  0  0  0  0  0  0  0
   56.3140   25.3730   47.1640 O   0  0  0  0  0  0  0  0  0  0  0  0
   54.5280   25.1480   45.5130 O   0  0  0  0  0  0  0  0  0  0  0  0
   57.0760   25.0500   44.6240 C   0  0  0  0  0  0  0  0  0  0  0  0
   57.8984   24.5808   45.1839 H   0  0  0  0  0  0  0  0  0  0  0  0
   56.5861   24.2955   43.9910 H   0  0  0  0  0  0  0  0  0  0  0  0
   57.4761   25.8557   43.9910 H   0  0  0  0  0  0  0  0  0  0  0  0
   56.6810   29.4570   44.5200 C   0  0  0  0  0  0  0  0  0  0  0  0
   55.6472   29.6897   44.2248 H   0  0  0  0  0  0  0  0  0  0  0  0
   57.7230   30.3260   44.1440 C   0  0  0  0  0  0  0  0  0  0  0  0
   57.4400   31.5490   43.3540 C   0  0  0  0  0  0  0  0  0  0  0  0
   57.3180   31.4690   42.1010 O   0  0  0  0  0  0  0  0  0  0  0  0
   57.3990   32.8280   44.0070 N   0  0  0  0  0  0  0  0  0  0  0  0
   57.9300   33.1800   45.1460 C   0  0  0  0  0  0  0  0  0  0  0  0
   58.8390   34.2480   45.1520 C   0  0  0  0  0  0  0  0  0  0  0  0
   59.0881   34.7660   44.2141 H   0  0  0  0  0  0  0  0  0  0  0  0
   59.4260   34.6510   46.3510 C   0  0  0  0  0  0  0  0  0  0  0  0
   60.1317   35.4947   46.3628 H   0  0  0  0  0  0  0  0  0  0  0  0
   59.1170   33.9830   47.5340 C   0  0  0  0  0  0  0  0  0  0  0  0
   59.6830   34.3640   48.7040 F   0  0  0  0  0  0  0  0  0  0  0  0
   58.2260   32.9090   47.4970 C   0  0  0  0  0  0  0  0  0  0  0  0
   57.9797   32.3706   48.4241 H   0  0  0  0  0  0  0  0  0  0  0  0
   57.6600   32.5240   46.3200 N   0  0  0  0  0  0  0  0  0  0  0  0
   57.0460   31.6820   46.3500 H   0  0  0  0  0  0  0  0  0  0  0  0
   59.0400   30.0130   44.5250 C   0  0  0  0  0  0  0  0  0  0  0  0
   59.8657   30.6804   44.2373 H   0  0  0  0  0  0  0  0  0  0  0  0
  1  2  1  0
  2  3  2  0
  3  4  1  0
  3  5  1  0
  5  6  1  0
  6  7  1  0
  7  8  2  0
  7  9  2  0
  7 10  1  0
 10 11  1  0
 10 12  1  0
 10 13  1  0
  5 14  2  0
 14 15  1  0
 14 16  1  0
 16 17  1  0
 17 18  2  0
 17 19  1  0
 19 20  2  0
 20 21  1  0
 21 22  1  0
 21 23  2  0
 23 24  1  0
 23 25  1  0
 25 26  1  0
 25 27  2  0
 27 28  1  0
 27 29  1  0
 29 30  1  0
 16 31  2  0
 31 32  1  0
 31  2  1  0
 29 20  1  0
M  CHG  1   6  -1
M  END
>  <UniqueID>  (17) 
13

>  <SMILES>  (17) 
CS(=O)(=O)[N-]c1cccc(C(=O)/N=c2/ccc(F)c[nH]2)c1

>  <Energy>  (17) 
40.000243728673574

>  <Genealogy>  (17) 
CS(=O)(=O)[N-]c1cccc(C(=O)N=c2ccc(F)c[nH]2)c1 (protonated)
CS(=O)(=O)[N-]c1cccc(C(=O)/N=c2/ccc(F)c[nH]2)c1 (cis-trans isomerization)
CS(=O)(=O)[N-]c1cccc(C(=O)/N=c2/ccc(F)c[nH]2)c1 (3D coordinates assigned)
CS(=O)(=O)[N-]c1cccc(C(=O)/N=c2/ccc(F)c[nH]2)c1 (optimized conformer: 40.000243728673574 kcal/mol)

>  <smiles>  (17) 
CS(=O)(=O)Nc1cccc(C(=O)N=c2ccc(F)c[nH]2)c1

>  <score_type>  (17) 
oracle

>  <origin>  (17) 
adg

>  <m_score__min__energy>  (17) 
-9.6099999999999994

>  <m_primary>  (17) 
energy

$$$$
17:0
     RDKit          3D

 25 27  0  0  0  0  0  0  0  0999 V2000
   58.2270   34.5280   44.5220 O   0  0  0  0  0  0  0  0  0  0  0  0
   58.0880   33.1650   44.7560 C   0  0  0  0  0  0  0  0  0  0  0  0
   57.7590   32.3050   43.7050 C   0  0  0  0  0  0  0  0  0  0  0  0
   57.6180   30.9330   43.9390 C   0  0  0  0  0  0  0  0  0  0  0  0
   57.8050   30.4070   45.2320 C   0  0  0  0  0  0  0  0  0  0  0  0
   57.6620   28.9590   45.5070 C   0  0  0  0  0  0  0  0  0  0  0  0
   58.6970   28.0370   45.6880 C   0  0  0  0  0  0  0  0  0  0  0  0
   58.0570   26.8400   45.9130 C   0  0  0  0  0  0  0  0  0  0  0  0
   58.5630   25.5660   46.1590 C   0  0  0  0  0  0  0  0  0  0  0  0
   57.6410   24.5200   46.3540 C   0  0  0  0  0  0  0  0  0  0  0  0
   58.1000   23.2320   46.6020 O   0  0  0  0  0  0  0  0  0  0  0  0
   56.2510   24.7730   46.2990 C   0  0  0  0  0  0  0  0  0  0  0  0
   55.7760   26.0740   46.0490 C   0  0  0  0  0  0  0  0  0  0  0  0
   54.4130   26.3390   45.9910 O   0  0  0  0  0  0  0  0  0  0  0  0
   56.7120   27.0880   45.8600 C   0  0  0  0  0  0  0  0  0  0  0  0
   56.4900   28.3550   45.6170 O   0  0  0  0  0  0  0  0  0  0  0  0
   58.1370   31.2840   46.2800 C   0  0  0  0  0  0  0  0  0  0  0  0
   58.2760   32.6550   46.0430 C   0  0  0  0  0  0  0  0  0  0  0  0
   57.6106   32.7074   42.6921 H   0  0  0  0  0  0  0  0  0  0  0  0
   57.3594   30.2606   43.1077 H   0  0  0  0  0  0  0  0  0  0  0  0
   59.7802   28.2261   45.6574 H   0  0  0  0  0  0  0  0  0  0  0  0
   59.6469   25.3831   46.1996 H   0  0  0  0  0  0  0  0  0  0  0  0
   55.5379   23.9496   46.4522 H   0  0  0  0  0  0  0  0  0  0  0  0
   58.2887   30.8880   47.2950 H   0  0  0  0  0  0  0  0  0  0  0  0
   58.5336   33.3325   46.8705 H   0  0  0  0  0  0  0  0  0  0  0  0
  1  2  1  0
  2  3  2  0
  3  4  1  0
  4  5  2  0
  5  6  1  0
  6  7  2  0
  7  8  1  0
  8  9  2  0
  9 10  1  0
 10 11  1  0
 10 12  2  0
 12 13  1  0
 13 14  1  0
 13 15  2  0
 15 16  1  0
  5 17  1  0
 17 18  2  0
 18  2  1  0
 16  6  1  0
 15  8  1  0
  3 19  1  0
  4 20  1  0
  7 21  1  0
  9 22  1  0
 12 23  1  0
 17 24  1  0
 18 25  1  0
M  CHG  3   1  -1  11  -1  14  -1
M  END
>  <UniqueID>  (18) 
14

>  <SMILES>  (18) 
[O-]c1ccc(-c2cc3cc([O-])cc([O-])c3o2)cc1

>  <Energy>  (18) 
63.05719912912989

>  <Genealogy>  (18) 
[O-]c1ccc(-c2cc3cc([O-])cc([O-])c3o2)cc1 (protonated)
[O-]c1ccc(-c2cc3cc([O-])cc([O-])c3o2)cc1 (3D coordinates assigned)
[O-]c1ccc(-c2cc3cc([O-])cc([O-])c3o2)cc1 (optimized conformer: 63.05719912912989 kcal/mol)

>  <smiles>  (18) 
Oc1ccc(-c2cc3cc(O)cc(O)c3o2)cc1

>  <score_type>  (18) 
oracle

>  <origin>  (18) 
adg

>  <m_score__min__energy>  (18) 
-12.960000000000001

>  <m_primary>  (18) 
energy

$$$$
18:0
     RDKit          3D

 48 51  0  0  0  0  0  0  0  0999 V2000
   57.4580   34.2030   45.6440 O   0  0  0  0  0  0  0  0  0  0  0  0
   58.1970   33.3510   46.2050 C   0  0  0  0  0  0  0  0  0  0  0  0
   58.6260   33.5600   47.6220 C   0  0  0  0  0  0  0  0  0  0  0  0
   59.7790   32.7070   47.9210 N   0  0  0  0  0  0  0  0  0  0  0  0
   59.8500   31.6430   48.7730 C   0  0  0  0  0  0  0  0  0  0  0  0
   58.6970   31.0710   49.5500 C   0  0  0  0  0  0  0  0  0  0  0  0
   58.5220   29.6930   49.2290 O   0  0  0  0  0  0  0  0  0  0  0  0
   59.5390   28.8920   48.6950 C   0  0  0  0  0  0  0  0  0  0  0  0
   60.4590   28.4600   49.4430 O   0  0  0  0  0  0  0  0  0  0  0  0
   59.5270   28.5560   47.2510 C   0  0  0  0  0  0  0  0  0  0  0  0
   60.2900   29.3240   46.3510 C   0  0  0  0  0  0  0  0  0  0  0  0
   60.2920   29.0260   44.9860 C   0  0  0  0  0  0  0  0  0  0  0  0
   59.5350   27.9590   44.5000 C   0  0  0  0  0  0  0  0  0  0  0  0
   58.7730   27.1880   45.3800 C   0  0  0  0  0  0  0  0  0  0  0  0
   58.7640   27.4780   46.7480 C   0  0  0  0  0  0  0  0  0  0  0  0
   58.0110   26.7060   47.5700 F   0  0  0  0  0  0  0  0  0  0  0  0
   61.1070   31.1420   48.8730 N   0  0  0  0  0  0  0  0  0  0  0  0
   61.8460   31.9270   48.0760 C   0  0  0  0  0  0  0  0  0  0  0  0
   63.2170   31.8660   47.8420 C   0  0  0  0  0  0  0  0  0  0  0  0
   63.7760   32.8300   46.9820 C   0  0  0  0  0  0  0  0  0  0  0  0
   62.9600   33.8240   46.3940 C   0  0  0  0  0  0  0  0  0  0  0  0
   61.5770   33.8590   46.6550 C   0  0  0  0  0  0  0  0  0  0  0  0
   61.0510   32.8800   47.5040 C   0  0  0  0  0  0  0  0  0  0  0  0
   58.6240   32.1780   45.5030 N   0  0  0  0  0  0  0  0  0  0  0  0
   57.8510   31.4680   44.5260 C   0  0  0  0  0  0  0  0  0  0  0  0
   57.8610   31.9230   43.2010 C   0  0  0  0  0  0  0  0  0  0  0  0
   57.1350   31.2470   42.2150 C   0  0  0  0  0  0  0  0  0  0  0  0
   56.4110   30.0980   42.5430 C   0  0  0  0  0  0  0  0  0  0  0  0
   56.4210   29.6180   43.8560 C   0  0  0  0  0  0  0  0  0  0  0  0
   57.1450   30.2910   44.8470 C   0  0  0  0  0  0  0  0  0  0  0  0
   57.2000   29.7590   46.0940 F   0  0  0  0  0  0  0  0  0  0  0  0
   58.9038   34.6143   47.7680 H   0  0  0  0  0  0  0  0  0  0  0  0
   57.7963   33.2993   48.2955 H   0  0  0  0  0  0  0  0  0  0  0  0
   58.8995   31.1704   50.6266 H   0  0  0  0  0  0  0  0  0  0  0  0
   57.7803   31.6197   49.2880 H   0  0  0  0  0  0  0  0  0  0  0  0
   60.8900   30.1663   46.7259 H   0  0  0  0  0  0  0  0  0  0  0  0
   60.8917   29.6339   44.2926 H   0  0  0  0  0  0  0  0  0  0  0  0
   59.5387   27.7257   43.4250 H   0  0  0  0  0  0  0  0  0  0  0  0
   58.1764   26.3478   44.9951 H   0  0  0  0  0  0  0  0  0  0  0  0
   61.4300   30.3390   49.4590 H   0  0  0  0  0  0  0  0  0  0  0  0
   63.8412   31.0920   48.3124 H   0  0  0  0  0  0  0  0  0  0  0  0
   64.8544   32.8100   46.7660 H   0  0  0  0  0  0  0  0  0  0  0  0
   63.4091   34.5753   45.7278 H   0  0  0  0  0  0  0  0  0  0  0  0
   60.9325   34.6296   46.2068 H   0  0  0  0  0  0  0  0  0  0  0  0
   58.4434   32.8173   42.9345 H   0  0  0  0  0  0  0  0  0  0  0  0
   57.1340   31.6204   41.1803 H   0  0  0  0  0  0  0  0  0  0  0  0
   55.8336   29.5715   41.7688 H   0  0  0  0  0  0  0  0  0  0  0  0
   55.8579   28.7082   44.1112 H   0  0  0  0  0  0  0  0  0  0  0  0
  1  2  2  0
  2  3  1  0
  3  4  1  0
  4  5  1  0
  5  6  1  0
  6  7  1  0
  7  8  1  0
  8  9  2  0
  8 10  1  0
 10 11  2  0
 11 12  1  0
 12 13  2  0
 13 14  1  0
 14 15  2  0
 15 16  1  0
  5 17  2  0
 17 18  1  0
 18 19  2  0
 19 20  1  0
 20 21  2  0
 21 22  1  0
 22 23  2  0
  2 24  1  0
 24 25  1  0
 25 26  2  0
 26 27  1  0
 27 28  2  0
 28 29  1  0
 29 30  2  0
 30 31  1  0
 23  4  1  0
 30 25  1  0
 15 10  1  0
 23 18  1  0
  3 32  1  0
  3 33  1  0
  6 34  1  0
  6 35  1  0
 11 36  1  0
 12 37  1  0
 13 38  1  0
 14 39  1  0
 17 40  1  0
 19 41  1  0
 20 42  1  0
 21 43  1  0
 22 44  1  0
 26 45  1  0
 27 46  1  0
 28 47  1  0
 29 48  1  0
M  CHG  2  17   1  24  -1
M  END
>  <UniqueID>  (19) 
15

>  <SMILES>  (19) 
O=C(Cn1c(COC(=O)c2ccccc2F)[nH+]c2ccccc21)[N-]c1ccccc1F

>  <Energy>  (19) 
94.12933073046203

>  <Genealogy>  (19) 
O=C(Cn1c(COC(=O)c2ccccc2F)[nH+]c2ccccc21)[N-]c1ccccc1F (protonated)
O=C(Cn1c(COC(=O)c2ccccc2F)[nH+]c2ccccc21)[N-]c1ccccc1F (3D coordinates assigned)
O=C(Cn1c(COC(=O)c2ccccc2F)[nH+]c2ccccc21)[N-]c1ccccc1F (optimized conformer: 94.12933073046203 kcal/mol)

>  <smiles>  (19) 
O=C(Cn1c(COC(=O)c2ccccc2F)nc2ccccc21)Nc1ccccc1F

>  <score_type>  (19) 
oracle

>  <origin>  (19) 
adg

>  <m_score__min__energy>  (19) 
-8.8599999999999994

>  <m_primary>  (19) 
energy

$$$$
19:0
     RDKit          3D

 38 40  0  0  0  0  0  0  0  0999 V2000
   55.5970   29.3540   44.3260 N   0  0  0  0  0  0  0  0  0  0  0  0
   57.2740   29.7740   44.2930 S   0  0  0  0  0  0  0  0  0  0  0  0
   57.4700   30.8900   43.3050 O   0  0  0  0  0  0  0  0  0  0  0  0
   58.0870   28.5850   43.8600 O   0  0  0  0  0  0  0  0  0  0  0  0
   57.7920   30.2870   45.8960 C   0  0  0  0  0  0  0  0  0  0  0  0
   58.1310   29.3290   46.8610 C   0  0  0  0  0  0  0  0  0  0  0  0
   58.5620   29.7290   48.1300 C   0  0  0  0  0  0  0  0  0  0  0  0
   58.6840   31.0900   48.4410 C   0  0  0  0  0  0  0  0  0  0  0  0
   59.1620   31.4800   49.7400 N   0  0  0  0  0  0  0  0  0  0  0  0
   58.3280   31.4970   50.9100 C   0  0  0  0  0  0  0  0  0  0  0  0
   58.7090   32.2260   52.0430 C   0  0  0  0  0  0  0  0  0  0  0  0
   57.8580   32.2640   53.1510 C   0  0  0  0  0  0  0  0  0  0  0  0
   56.6390   31.5840   53.1190 C   0  0  0  0  0  0  0  0  0  0  0  0
   56.2820   30.8710   51.9710 C   0  0  0  0  0  0  0  0  0  0  0  0
   55.0730   30.1630   51.9410 O   0  0  0  0  0  0  0  0  0  0  0  0
   53.8490   30.6420   52.4340 C   0  0  0  0  0  0  0  0  0  0  0  0
   53.3960   30.3520   53.7370 C   0  0  0  0  0  0  0  0  0  0  0  0
   52.1800   30.8700   54.1910 C   0  0  0  0  0  0  0  0  0  0  0  0
   51.3950   31.6600   53.3470 C   0  0  0  0  0  0  0  0  0  0  0  0
   51.8220   31.9250   52.0420 C   0  0  0  0  0  0  0  0  0  0  0  0
   51.0350   32.7010   51.2000 O   0  0  0  0  0  0  0  0  0  0  0  0
   53.0410   31.4120   51.5870 C   0  0  0  0  0  0  0  0  0  0  0  0
   57.1330   30.8470   50.9090 N   0  0  0  0  0  0  0  0  0  0  0  0
   58.3160   32.0490   47.4810 C   0  0  0  0  0  0  0  0  0  0  0  0
   57.8810   31.6490   46.2140 C   0  0  0  0  0  0  0  0  0  0  0  0
   55.5170   28.4340   44.8140 H   0  0  0  0  0  0  0  0  0  0  0  0
   58.0578   28.2583   46.6195 H   0  0  0  0  0  0  0  0  0  0  0  0
   58.8067   28.9708   48.8885 H   0  0  0  0  0  0  0  0  0  0  0  0
   60.1030   31.9330   49.7990 H   0  0  0  0  0  0  0  0  0  0  0  0
   59.6686   32.7635   52.0609 H   0  0  0  0  0  0  0  0  0  0  0  0
   58.1487   32.8298   54.0485 H   0  0  0  0  0  0  0  0  0  0  0  0
   55.9661   31.6091   53.9888 H   0  0  0  0  0  0  0  0  0  0  0  0
   54.0018   29.7157   54.3988 H   0  0  0  0  0  0  0  0  0  0  0  0
   51.8401   30.6554   55.2149 H   0  0  0  0  0  0  0  0  0  0  0  0
   50.4419   32.0731   53.7089 H   0  0  0  0  0  0  0  0  0  0  0  0
   53.3679   31.6146   50.5564 H   0  0  0  0  0  0  0  0  0  0  0  0
   58.3706   33.1195   47.7281 H   0  0  0  0  0  0  0  0  0  0  0  0
   57.6076   32.4059   45.4641 H   0  0  0  0  0  0  0  0  0  0  0  0
  1  2  1  0
  2  3  2  0
  2  4  2  0
  2  5  1  0
  5  6  2  0
  6  7  1  0
  7  8  2  0
  8  9  1  0
  9 10  1  0
 10 11  2  0
 11 12  1  0
 12 13  2  0
 13 14  1  0
 14 15  1  0
 15 16  1  0
 16 17  2  0
 17 18  1  0
 18 19  2  0
 19 20  1  0
 20 21  1  0
 20 22  2  0
 14 23  2  0
  8 24  1  0
 24 25  2  0
 25  5  1  0
 23 10  1  0
 22 16  1  0
  1 26  1  0
  6 27  1  0
  7 28  1  0
  9 29  1  0
 11 30  1  0
 12 31  1  0
 13 32  1  0
 17 33  1  0
 18 34  1  0
 19 35  1  0
 22 36  1  0
 24 37  1  0
 25 38  1  0
M  CHG  2   1  -1  21  -1
M  END
>  <UniqueID>  (20) 
16

>  <SMILES>  (20) 
[NH-]S(=O)(=O)c1ccc(Nc2cccc(Oc3cccc([O-])c3)n2)cc1

>  <Energy>  (20) 
48.338064287340465

>  <Genealogy>  (20) 
[NH-]S(=O)(=O)c1ccc(Nc2cccc(Oc3cccc([O-])c3)n2)cc1 (protonated)
[NH-]S(=O)(=O)c1ccc(Nc2cccc(Oc3cccc([O-])c3)n2)cc1 (3D coordinates assigned)
[NH-]S(=O)(=O)c1ccc(Nc2cccc(Oc3cccc([O-])c3)n2)cc1 (optimized conformer: 48.338064287340465 kcal/mol)

>  <smiles>  (20) 
NS(=O)(=O)c1ccc(Nc2cccc(Oc3cccc(O)c3)n2)cc1

>  <score_type>  (20) 
oracle

>  <origin>  (20) 
adg

>  <m_score__min__energy>  (20) 
-13.81

>  <m_primary>  (20) 
energy

$$$$
20:0
     RDKit          3D

 46 48  0  0  0  0  0  0  0  0999 V2000
   54.5534   30.4934   43.9477 H   0  0  0  0  0  0  0  0  0  0  0  0
   55.4870   30.1190   44.3930 C   0  0  0  0  0  0  0  0  0  0  0  0
   55.5420   28.8550   44.8820 N   0  0  0  0  0  0  0  0  0  0  0  0
   56.6720   28.3530   45.4440 C   0  0  0  0  0  0  0  0  0  0  0  0
   56.6750   27.0450   45.9430 C   0  0  0  0  0  0  0  0  0  0  0  0
   55.7656   26.4299   45.8748 H   0  0  0  0  0  0  0  0  0  0  0  0
   57.8290   26.5190   46.5270 C   0  0  0  0  0  0  0  0  0  0  0  0
   57.8265   25.4903   46.9165 H   0  0  0  0  0  0  0  0  0  0  0  0
   58.9860   27.2950   46.6180 C   0  0  0  0  0  0  0  0  0  0  0  0
   59.8920   26.8762   47.0803 H   0  0  0  0  0  0  0  0  0  0  0  0
   58.9970   28.6040   46.1230 C   0  0  0  0  0  0  0  0  0  0  0  0
   59.9123   29.2095   46.1974 H   0  0  0  0  0  0  0  0  0  0  0  0
   57.8400   29.1510   45.5290 C   0  0  0  0  0  0  0  0  0  0  0  0
   57.8120   30.4660   45.0090 C   0  0  0  0  0  0  0  0  0  0  0  0
   58.8820   31.2140   45.0930 N   0  0  0  0  0  0  0  0  0  0  0  0
   58.9630   32.5950   45.4780 C   0  0  0  0  0  0  0  0  0  0  0  0
   58.8090   33.6160   44.5230 C   0  0  0  0  0  0  0  0  0  0  0  0
   58.5781   33.3588   43.4787 H   0  0  0  0  0  0  0  0  0  0  0  0
   58.9480   34.9550   44.8950 C   0  0  0  0  0  0  0  0  0  0  0  0
   58.8099   35.7504   44.1479 H   0  0  0  0  0  0  0  0  0  0  0  0
   59.2620   35.2840   46.2140 C   0  0  0  0  0  0  0  0  0  0  0  0
   59.3618   36.3394   46.5077 H   0  0  0  0  0  0  0  0  0  0  0  0
   59.4500   34.2750   47.1630 C   0  0  0  0  0  0  0  0  0  0  0  0
   59.7040   34.5401   48.1999 H   0  0  0  0  0  0  0  0  0  0  0  0
   59.3160   32.9200   46.7990 C   0  0  0  0  0  0  0  0  0  0  0  0
   59.5090   31.8700   47.7130 O   0  0  0  0  0  0  0  0  0  0  0  0
   60.6050   30.9550   47.7120 C   0  0  0  0  0  0  0  0  0  0  0  0
   61.3227   31.2517   46.9330 H   0  0  0  0  0  0  0  0  0  0  0  0
   60.2218   29.9436   47.5117 H   0  0  0  0  0  0  0  0  0  0  0  0
   61.3100   30.9550   49.0720 C   0  0  0  0  0  0  0  0  0  0  0  0
   61.2650   29.9434   49.5016 H   0  0  0  0  0  0  0  0  0  0  0  0
   60.8029   31.6740   49.7323 H   0  0  0  0  0  0  0  0  0  0  0  0
   62.7860   31.3760   48.9230 C   0  0  0  0  0  0  0  0  0  0  0  0
   63.2252   30.8041   48.0923 H   0  0  0  0  0  0  0  0  0  0  0  0
   63.2714   31.1693   49.8882 H   0  0  0  0  0  0  0  0  0  0  0  0
   62.9840   32.8180   48.6490 N   0  0  0  0  0  0  0  0  0  0  0  0
   61.9580   33.6680   49.2740 C   0  0  0  0  0  0  0  0  0  0  0  0
   62.0415   33.5988   50.3686 H   0  0  0  0  0  0  0  0  0  0  0  0
   62.1058   34.7119   48.9603 H   0  0  0  0  0  0  0  0  0  0  0  0
   60.9598   33.3286   48.9603 H   0  0  0  0  0  0  0  0  0  0  0  0
   63.1220   33.1170   47.2150 C   0  0  0  0  0  0  0  0  0  0  0  0
   63.5800   34.1093   47.0898 H   0  0  0  0  0  0  0  0  0  0  0  0
   63.7601   32.3563   46.7416 H   0  0  0  0  0  0  0  0  0  0  0  0
   62.1291   33.1090   46.7416 H   0  0  0  0  0  0  0  0  0  0  0  0
   56.6080   30.9460   44.4520 C   0  0  0  0  0  0  0  0  0  0  0  0
   56.5536   31.9738   44.0638 H   0  0  0  0  0  0  0  0  0  0  0  0
  1  2  1  0
  2  3  1  0
  3  4  1  0
  4  5  2  0
  5  6  1  0
  5  7  1  0
  7  8  1  0
  7  9  2  0
  9 10  1  0
  9 11  1  0
 11 12  1  0
 11 13  2  0
 13 14  1  0
 14 15  2  0
 15 16  1  0
 16 17  2  0
 17 18  1  0
 17 19  1  0
 19 20  1  0
 19 21  2  0
 21 22  1  0
 21 23  1  0
 23 24  1  0
 23 25  2  0
 25 26  1  0
 26 27  1  0
 27 28  1  0
 27 29  1  0
 27 30  1  0
 30 31  1  0
 30 32  1  0
 30 33  1  0
 33 34  1  0
 33 35  1  0
 33 36  1  0
 36 37  1  0
 37 38  1  0
 37 39  1  0
 37 40  1  0
 36 41  1  0
 41 42  1  0
 41 43  1  0
 41 44  1  0
 14 45  1  0
 45 46  1  0
 45  2  2  0
 13  4  1  0
 25 16  1  0
M  CHG  1   3  -1
M  END
>  <UniqueID>  (21) 
17

>  <SMILES>  (21) 
CN(C)CCCOc1ccccc1/N=c1\cc[n-]c2ccccc12

>  <Energy>  (21) 
62.53640673381601

>  <Genealogy>  (21) 
CN(C)CCCOc1ccccc1N=c1cc[n-]c2ccccc12 (protonated)
CN(C)CCCOc1ccccc1/N=c1\cc[n-]c2ccccc12 (cis-trans isomerization)
CN(C)CCCOc1ccccc1/N=c1\cc[n-]c2ccccc12 (3D coordinates assigned)
CN(C)CCCOc1ccccc1/N=c1\cc[n-]c2ccccc12 (optimized conformer: 62.53640673381601 kcal/mol)

>  <smiles>  (21) 
CN(C)CCCOc1ccccc1N=c1cc[nH]c2ccccc12

>  <score_type>  (21) 
oracle

>  <origin>  (21) 
adg

>  <m_score__min__energy>  (21) 
-9.2300000000000004

>  <m_primary>  (21) 
energy

$$$$
21:0
     RDKit          3D

 63 67  0  0  1  0  0  0  0  0999 V2000
   62.7970   33.2290   47.7990 C   0  0  0  0  0  0  0  0  0  0  0  0
   61.4700   32.9340   48.4000 C   0  0  0  0  0  0  0  0  0  0  0  0
   60.9410   33.8310   49.3110 C   0  0  0  0  0  0  0  0  0  0  0  0
   59.7020   33.5650   49.8790 C   0  0  0  0  0  0  0  0  0  0  0  0
   58.9760   32.4290   49.5630 C   0  0  0  0  0  0  0  0  0  0  0  0
   59.5110   31.5240   48.6420 C   0  0  0  0  0  0  0  0  0  0  0  0
   60.7590   31.7920   48.0700 C   0  0  0  0  0  0  0  0  0  0  0  0
   61.3290   30.8890   47.1280 N   0  0  0  0  0  0  0  0  0  0  0  0
   60.6410   29.8320   46.8400 C   0  0  0  0  0  0  0  0  0  0  0  0
   60.5030   28.8170   47.7110 N   0  0  0  0  0  0  0  0  0  0  0  0
   59.7920   27.7430   47.3970 C   0  0  0  0  0  0  0  0  0  0  0  0
   59.1460   27.6020   46.1480 C   0  0  0  0  0  0  0  0  0  0  0  0
   58.3550   26.4190   45.9870 C   0  0  0  0  0  0  0  0  0  0  0  0
   58.7800   25.1500   45.6930 C   0  0  0  0  0  0  0  0  0  0  0  0
   57.9060   24.0830   45.5160 C   0  0  0  0  0  0  0  0  0  0  0  0
   56.5400   24.2480   45.6300 C   0  0  0  0  0  0  0  0  0  0  0  0
   55.4960   23.4310   45.5150 N   0  0  0  0  0  0  0  0  0  0  0  0
   54.3990   24.1770   45.7360 C   0  0  0  0  0  0  0  0  0  0  0  0
   54.7680   25.4510   45.9870 N   0  0  0  0  0  0  0  0  0  0  0  0
   56.1010   25.5290   45.9270 C   0  0  0  0  0  0  0  0  0  0  0  0
   56.9580   26.5750   46.1010 C   0  0  0  0  0  0  0  0  0  0  0  0
   59.3030   28.6380   45.2880 C   0  0  0  0  0  0  0  0  0  0  0  0
   58.8320   28.6020   44.1210 N   0  0  0  0  0  0  0  0  0  0  0  0
   57.4490   28.6270   43.8280 C   0  0  0  0  0  0  0  0  0  0  0  0
   57.0960   30.0850   44.3570 C   0  0  0  0  0  0  0  0  0  0  0  0
   57.5070   31.0570   43.2770 C   0  0  0  0  0  0  0  0  0  0  0  0
   57.5020   32.4190   43.7210 N   0  0  0  0  0  0  0  0  0  0  0  0
   58.1360   32.8120   44.9320 C   0  0  0  0  0  0  0  0  0  0  0  0
   58.7350   31.9990   45.6840 O   0  0  0  0  0  0  0  0  0  0  0  0
   58.1170   34.2330   45.3740 C   0  0  0  0  0  0  0  0  0  0  0  0
   59.2710   35.0350   44.8690 C   0  0  0  0  0  0  0  0  0  0  0  0
   59.9510   34.8730   46.2030 C   0  0  0  0  0  0  0  0  0  0  0  0
   58.6260   34.4070   46.7780 C   0  0  0  0  0  0  0  0  0  0  0  0
   60.0340   29.7100   45.6490 N   0  0  0  0  0  0  0  0  0  0  0  0
   63.5337   33.3928   48.5993 H   0  0  0  0  0  0  0  0  0  0  0  0
   63.1146   32.3795   47.1765 H   0  0  0  0  0  0  0  0  0  0  0  0
   62.7248   34.1330   47.1765 H   0  0  0  0  0  0  0  0  0  0  0  0
   61.4943   34.7424   49.5817 H   0  0  0  0  0  0  0  0  0  0  0  0
   59.2839   34.2797   50.6032 H   0  0  0  0  0  0  0  0  0  0  0  0
   57.9968   32.2424   50.0280 H   0  0  0  0  0  0  0  0  0  0  0  0
   58.9578   30.6128   48.3705 H   0  0  0  0  0  0  0  0  0  0  0  0
   60.9660   28.8790   48.6500 H   0  0  0  0  0  0  0  0  0  0  0  0
   59.7016   26.9325   48.1352 H   0  0  0  0  0  0  0  0  0  0  0  0
   59.8601   24.9672   45.5926 H   0  0  0  0  0  0  0  0  0  0  0  0
   58.3110   23.0878   45.2805 H   0  0  0  0  0  0  0  0  0  0  0  0
   55.4940   22.4090   45.2980 H   0  0  0  0  0  0  0  0  0  0  0  0
   53.3633   23.8070   45.7154 H   0  0  0  0  0  0  0  0  0  0  0  0
   56.5484   27.5683   46.3369 H   0  0  0  0  0  0  0  0  0  0  0  0
   57.2558   28.5235   42.7501 H   0  0  0  0  0  0  0  0  0  0  0  0
   56.8607   27.8115   44.2740 H   0  0  0  0  0  0  0  0  0  0  0  0
   56.0157   30.1666   44.5477 H   0  0  0  0  0  0  0  0  0  0  0  0
   57.6218   30.2991   45.2992 H   0  0  0  0  0  0  0  0  0  0  0  0
   58.5230   30.8007   42.9424 H   0  0  0  0  0  0  0  0  0  0  0  0
   56.7738   30.9732   42.4613 H   0  0  0  0  0  0  0  0  0  0  0  0
   57.0320   33.2080   43.1840 H   0  0  0  0  0  0  0  0  0  0  0  0
   57.0880   34.5095   45.1006 H   0  0  0  0  0  0  0  0  0  0  0  0
   59.8093   34.5713   44.0292 H   0  0  0  0  0  0  0  0  0  0  0  0
   59.1135   36.0344   44.4373 H   0  0  0  0  0  0  0  0  0  0  0  0
   60.7461   34.1130   46.2189 H   0  0  0  0  0  0  0  0  0  0  0  0
   60.5109   35.7015   46.6613 H   0  0  0  0  0  0  0  0  0  0  0  0
   58.6856   33.4744   47.3583 H   0  0  0  0  0  0  0  0  0  0  0  0
   58.0775   35.0186   47.5095 H   0  0  0  0  0  0  0  0  0  0  0  0
   60.1510   30.5080   44.9850 H   0  0  0  0  0  0  0  0  0  0  0  0
  1  2  1  0
  2  3  2  0
  3  4  1  0
  4  5  2  0
  5  6  1  0
  6  7  2  0
  7  8  1  0
  8  9  2  0
  9 10  1  0
 10 11  1  0
 11 12  2  0
 12 13  1  0
 13 14  2  0
 14 15  1  0
 15 16  2  0
 16 17  1  0
 17 18  1  0
 18 19  2  0
 19 20  1  0
 20 21  2  0
 12 22  1  0
 22 23  2  0
 23 24  1  0
 24 25  1  0
 25 26  1  0
 26 27  1  0
 27 28  1  0
 28 29  2  0
 28 30  1  0
 30 31  1  0
 31 32  1  0
 32 33  1  0
 22 34  1  0
  7  2  1  0
 34  9  1  0
 21 13  1  0
 33 30  1  0
 20 16  1  0
  1 35  1  0
  1 36  1  0
  1 37  1  0
  3 38  1  0
  4 39  1  0
  5 40  1  0
  6 41  1  0
 10 42  1  0
 11 43  1  0
 14 44  1  0
 15 45  1  0
 17 46  1  0
 18 47  1  0
 21 48  1  0
 24 49  1  0
 24 50  1  0
 25 51  1  0
 25 52  1  0
 26 53  1  0
 26 54  1  0
 27 55  1  0
 30 56  1  0
 31 57  1  0
 31 58  1  0
 32 59  1  0
 32 60  1  0
 33 61  1  0
 33 62  1  0
 34 63  1  0
M  END
>  <smiles>  (22) 
Cc1ccccc1N=c1[nH]cc(-c2ccc3[nH]cnc3c2)c(=NCCCNC(=O)C2CCC2)[nH]1

>  <score_type>  (22) 
oracle

>  <origin>  (22) 
adg

>  <m_score__min__energy>  (22) 
-9.3200000000000003

>  <m_primary>  (22) 
energy

$$$$
22:0
     RDKit          3D

 46 48  0  0  0  0  0  0  0  0999 V2000
   59.9940   26.0340   46.2780 C   0  0  0  0  0  0  0  0  0  0  0  0
   59.1550   27.1710   45.7550 C   0  0  0  0  0  0  0  0  0  0  0  0
   59.8000   28.3700   45.4080 C   0  0  0  0  0  0  0  0  0  0  0  0
   59.0720   29.4590   44.9290 C   0  0  0  0  0  0  0  0  0  0  0  0
   57.6870   29.3630   44.7610 C   0  0  0  0  0  0  0  0  0  0  0  0
   56.8960   30.5330   44.3260 C   0  0  0  0  0  0  0  0  0  0  0  0
   56.3750   30.5360   43.1810 O   0  0  0  0  0  0  0  0  0  0  0  0
   56.6950   31.6670   45.1830 N   0  0  0  0  0  0  0  0  0  0  0  0
   57.6840   32.6650   45.4800 C   0  0  0  0  0  0  0  0  0  0  0  0
   57.7180   33.8110   44.6770 C   0  0  0  0  0  0  0  0  0  0  0  0
   58.7030   34.7790   44.8640 C   0  0  0  0  0  0  0  0  0  0  0  0
   59.6650   34.6140   45.8580 C   0  0  0  0  0  0  0  0  0  0  0  0
   59.6290   33.4970   46.6980 C   0  0  0  0  0  0  0  0  0  0  0  0
   60.8790   33.3450   47.9310 Cl  0  0  0  0  0  0  0  0  0  0  0  0
   58.6130   32.5250   46.5460 C   0  0  0  0  0  0  0  0  0  0  0  0
   58.5380   31.3760   47.5210 C   0  0  0  0  0  0  0  0  0  0  0  0
   57.0430   28.1530   45.0450 C   0  0  0  0  0  0  0  0  0  0  0  0
   57.7500   27.0630   45.5760 C   0  0  0  0  0  0  0  0  0  0  0  0
   56.8110   25.6310   46.0670 S   0  0  0  0  0  0  0  0  0  0  0  0
   55.3370   25.9120   46.0000 O   0  0  0  0  0  0  0  0  0  0  0  0
   57.1420   25.3170   47.5000 O   0  0  0  0  0  0  0  0  0  0  0  0
   57.1650   24.2260   45.0840 N   0  0  0  0  0  0  0  0  0  0  0  0
   56.3060   23.0850   45.3970 C   0  0  0  0  0  0  0  0  0  0  0  0
   56.2860   22.2130   44.1540 C   0  0  0  0  0  0  0  0  0  0  0  0
   56.6510   23.1450   43.0090 C   0  0  0  0  0  0  0  0  0  0  0  0
   56.9620   24.4860   43.6600 C   0  0  0  0  0  0  0  0  0  0  0  0
   59.9844   26.0470   47.3779 H   0  0  0  0  0  0  0  0  0  0  0  0
   59.5824   25.0792   45.9190 H   0  0  0  0  0  0  0  0  0  0  0  0
   61.0277   26.1458   45.9190 H   0  0  0  0  0  0  0  0  0  0  0  0
   60.8918   28.4508   45.5153 H   0  0  0  0  0  0  0  0  0  0  0  0
   59.5897   30.3977   44.6822 H   0  0  0  0  0  0  0  0  0  0  0  0
   56.9605   33.9488   43.8914 H   0  0  0  0  0  0  0  0  0  0  0  0
   58.7209   35.6747   44.2257 H   0  0  0  0  0  0  0  0  0  0  0  0
   60.4573   35.3668   45.9827 H   0  0  0  0  0  0  0  0  0  0  0  0
   58.5634   31.7655   48.5494 H   0  0  0  0  0  0  0  0  0  0  0  0
   57.6017   30.8209   47.3622 H   0  0  0  0  0  0  0  0  0  0  0  0
   59.3942   30.7039   47.3622 H   0  0  0  0  0  0  0  0  0  0  0  0
   55.9651   28.0548   44.8488 H   0  0  0  0  0  0  0  0  0  0  0  0
   56.7147   22.5232   46.2498 H   0  0  0  0  0  0  0  0  0  0  0  0
   55.2924   23.4114   45.6728 H   0  0  0  0  0  0  0  0  0  0  0  0
   57.0228   21.4008   44.2404 H   0  0  0  0  0  0  0  0  0  0  0  0
   55.3063   21.7367   44.0009 H   0  0  0  0  0  0  0  0  0  0  0  0
   57.5318   22.7656   42.4703 H   0  0  0  0  0  0  0  0  0  0  0  0
   55.8368   23.2270   42.2739 H   0  0  0  0  0  0  0  0  0  0  0  0
   57.8728   24.9185   43.2202 H   0  0  0  0  0  0  0  0  0  0  0  0
   56.1417   25.2016   43.5020 H   0  0  0  0  0  0  0  0  0  0  0  0
  1  2  1  0
  2  3  2  0
  3  4  1  0
  4  5  2  0
  5  6  1  0
  6  7  2  0
  6  8  1  0
  8  9  1  0
  9 10  2  0
 10 11  1  0
 11 12  2  0
 12 13  1  0
 13 14  1  0
 13 15  2  0
 15 16  1  0
  5 17  1  0
 17 18  2  0
 18 19  1  0
 19 20  2  0
 19 21  2  0
 19 22  1  0
 22 23  1  0
 23 24  1  0
 24 25  1  0
 25 26  1  0
 18  2  1  0
 26 22  1  0
 15  9  1  0
  1 27  1  0
  1 28  1  0
  1 29  1  0
  3 30  1  0
  4 31  1  0
 10 32  1  0
 11 33  1  0
 12 34  1  0
 16 35  1  0
 16 36  1  0
 16 37  1  0
 17 38  1  0
 23 39  1  0
 23 40  1  0
 24 41  1  0
 24 42  1  0
 25 43  1  0
 25 44  1  0
 26 45  1  0
 26 46  1  0
M  CHG  1   8  -1
M  END
>  <UniqueID>  (23) 
18

>  <SMILES>  (23) 
Cc1ccc(C(=O)[N-]c2cccc(Cl)c2C)cc1S(=O)(=O)N1CCCC1

>  <Energy>  (23) 
60.36089846183176

>  <Genealogy>  (23) 
Cc1ccc(C(=O)[N-]c2cccc(Cl)c2C)cc1S(=O)(=O)N1CCCC1 (protonated)
Cc1ccc(C(=O)[N-]c2cccc(Cl)c2C)cc1S(=O)(=O)N1CCCC1 (3D coordinates assigned)
Cc1ccc(C(=O)[N-]c2cccc(Cl)c2C)cc1S(=O)(=O)N1CCCC1 (nonaromatic ring conformer: 60.36089846183176 kcal/mol)

>  <smiles>  (23) 
Cc1ccc(C(=O)Nc2cccc(Cl)c2C)cc1S(=O)(=O)N1CCCC1

>  <score_type>  (23) 
oracle

>  <origin>  (23) 
adg

>  <m_score__min__energy>  (23) 
-10.98

>  <m_primary>  (23) 
energy

$$$$
23:0
     RDKit          3D

 32 34  0  0  0  0  0  0  0  0999 V2000
   54.6960   28.1650   53.5230 C   0  0  0  0  0  0  0  0  0  0  0  0
   55.2550   29.3220   52.7600 C   0  0  0  0  0  0  0  0  0  0  0  0
   56.5250   29.3860   52.3260 N   0  0  0  0  0  0  0  0  0  0  0  0
   56.5780   30.5630   51.6620 C   0  0  0  0  0  0  0  0  0  0  0  0
   57.7980   31.0590   51.0120 C   0  0  0  0  0  0  0  0  0  0  0  0
   59.0700   30.5150   51.1730 C   0  0  0  0  0  0  0  0  0  0  0  0
   59.8900   31.2950   50.3860 C   0  0  0  0  0  0  0  0  0  0  0  0
   61.2630   31.2210   50.1540 C   0  0  0  0  0  0  0  0  0  0  0  0
   61.8330   32.1710   49.2870 C   0  0  0  0  0  0  0  0  0  0  0  0
   61.0270   33.1590   48.6790 C   0  0  0  0  0  0  0  0  0  0  0  0
   59.6440   33.2080   48.9330 C   0  0  0  0  0  0  0  0  0  0  0  0
   59.1070   32.2530   49.7960 C   0  0  0  0  0  0  0  0  0  0  0  0
   57.8240   32.1210   50.1720 N   0  0  0  0  0  0  0  0  0  0  0  0
   55.4070   31.2370   51.6450 N   0  0  0  0  0  0  0  0  0  0  0  0
   54.5730   30.4390   52.3320 C   0  0  0  0  0  0  0  0  0  0  0  0
   52.8460   30.8260   52.6300 S   0  0  0  0  0  0  0  0  0  0  0  0
   52.4310   31.0560   50.8680 C   0  0  0  0  0  0  0  0  0  0  0  0
   51.3970   32.1230   50.7010 C   0  0  0  0  0  0  0  0  0  0  0  0
   51.0380   32.9450   51.8090 N   0  0  0  0  0  0  0  0  0  0  0  0
   50.8330   32.2870   49.5870 O   0  0  0  0  0  0  0  0  0  0  0  0
   54.7892   28.3579   54.6019 H   0  0  0  0  0  0  0  0  0  0  0  0
   53.6350   28.0335   53.2643 H   0  0  0  0  0  0  0  0  0  0  0  0
   55.2524   27.2520   53.2643 H   0  0  0  0  0  0  0  0  0  0  0  0
   59.3572   29.6524   51.7922 H   0  0  0  0  0  0  0  0  0  0  0  0
   61.8796   30.4460   50.6327 H   0  0  0  0  0  0  0  0  0  0  0  0
   62.9132   32.1443   49.0812 H   0  0  0  0  0  0  0  0  0  0  0  0
   61.4841   33.8956   48.0019 H   0  0  0  0  0  0  0  0  0  0  0  0
   59.0074   33.9741   48.4664 H   0  0  0  0  0  0  0  0  0  0  0  0
   57.0180   32.7150   49.8740 H   0  0  0  0  0  0  0  0  0  0  0  0
   53.3391   31.3446   50.3183 H   0  0  0  0  0  0  0  0  0  0  0  0
   52.0291   30.1108   50.4741 H   0  0  0  0  0  0  0  0  0  0  0  0
   50.0400   33.2000   51.9840 H   0  0  0  0  0  0  0  0  0  0  0  0
  1  2  1  0
  2  3  1  0
  3  4  2  0
  4  5  1  0
  5  6  2  0
  6  7  1  0
  7  8  2  0
  8  9  1  0
  9 10  2  0
 10 11  1  0
 11 12  2  0
 12 13  1  0
  4 14  1  0
 14 15  1  0
 15 16  1  0
 16 17  1  0
 17 18  1  0
 18 19  1  0
 18 20  2  0
 15  2  2  0
 13  5  1  0
 12  7  1  0
  1 21  1  0
  1 22  1  0
  1 23  1  0
  6 24  1  0
  8 25  1  0
  9 26  1  0
 10 27  1  0
 11 28  1  0
 13 29  1  0
 17 30  1  0
 17 31  1  0
 19 32  1  0
M  CHG  2  14  -1  19  -1
M  END
>  <UniqueID>  (24) 
19

>  <SMILES>  (24) 
Cc1nc(-c2cc3ccccc3[nH]2)[n-]c1SCC([NH-])=O

>  <Energy>  (24) 
86.99252272614041

>  <Genealogy>  (24) 
Cc1nc(-c2cc3ccccc3[nH]2)[n-]c1SCC([NH-])=O (protonated)
Cc1nc(-c2cc3ccccc3[nH]2)[n-]c1SCC([NH-])=O (3D coordinates assigned)
Cc1nc(-c2cc3ccccc3[nH]2)[n-]c1SCC([NH-])=O (optimized conformer: 86.99252272614041 kcal/mol)

>  <smiles>  (24) 
Cc1nc(-c2cc3ccccc3[nH]2)[nH]c1SCC(N)=O

>  <score_type>  (24) 
oracle

>  <origin>  (24) 
adg

>  <m_score__min__energy>  (24) 
-11.59

>  <m_primary>  (24) 
energy

$$$$
24:0
     RDKit          3D

 56 57  0  0  0  0  0  0  0  0999 V2000
   59.2290   34.9450   47.4400 C   0  0  0  0  0  0  0  0  0  0  0  0
   60.0190   34.3820   46.2650 C   0  0  0  0  0  0  0  0  0  0  0  0
   60.3880   32.9800   46.5160 N   0  0  0  0  0  0  0  0  0  0  0  0
   61.6080   32.6570   47.2700 C   0  0  0  0  0  0  0  0  0  0  0  0
   62.7860   33.4760   46.7530 C   0  0  0  0  0  0  0  0  0  0  0  0
   59.5500   31.9180   46.0170 C   0  0  0  0  0  0  0  0  0  0  0  0
   58.4280   32.2110   45.2260 C   0  0  0  0  0  0  0  0  0  0  0  0
   57.6140   31.1820   44.7470 C   0  0  0  0  0  0  0  0  0  0  0  0
   57.9160   29.8440   45.0400 C   0  0  0  0  0  0  0  0  0  0  0  0
   57.0150   28.7360   44.5590 C   0  0  0  0  0  0  0  0  0  0  0  0
   57.4040   28.3090   43.2040 N   0  0  0  0  0  0  0  0  0  0  0  0
   58.1880   27.0600   43.2160 C   0  0  0  0  0  0  0  0  0  0  0  0
   58.1860   26.3810   44.5970 C   0  0  0  0  0  0  0  0  0  0  0  0
   57.0360   25.4140   44.7050 C   0  0  0  0  0  0  0  0  0  0  0  0
   56.0350   25.6130   45.6650 C   0  0  0  0  0  0  0  0  0  0  0  0
   54.9850   24.7020   45.7890 C   0  0  0  0  0  0  0  0  0  0  0  0
   54.9250   23.5670   44.9600 C   0  0  0  0  0  0  0  0  0  0  0  0
   53.8840   22.6290   45.0550 O   0  0  0  0  0  0  0  0  0  0  0  0
   52.9280   22.5890   46.1100 C   0  0  0  0  0  0  0  0  0  0  0  0
   55.9310   23.3520   44.0040 C   0  0  0  0  0  0  0  0  0  0  0  0
   55.8480   22.2080   43.1960 O   0  0  0  0  0  0  0  0  0  0  0  0
   56.9080   21.2760   43.0040 C   0  0  0  0  0  0  0  0  0  0  0  0
   56.9870   24.2770   43.8850 C   0  0  0  0  0  0  0  0  0  0  0  0
   59.0290   29.5500   45.8430 C   0  0  0  0  0  0  0  0  0  0  0  0
   59.8430   30.5800   46.3230 C   0  0  0  0  0  0  0  0  0  0  0  0
   59.6902   34.6163   48.3830 H   0  0  0  0  0  0  0  0  0  0  0  0
   59.2345   36.0440   47.3926 H   0  0  0  0  0  0  0  0  0  0  0  0
   58.1920   34.5811   47.3926 H   0  0  0  0  0  0  0  0  0  0  0  0
   59.4030   34.4368   45.3553 H   0  0  0  0  0  0  0  0  0  0  0  0
   60.9373   34.9740   46.1377 H   0  0  0  0  0  0  0  0  0  0  0  0
   61.4474   32.8851   48.3340 H   0  0  0  0  0  0  0  0  0  0  0  0
   61.8336   31.5880   47.1420 H   0  0  0  0  0  0  0  0  0  0  0  0
   63.3579   33.8736   47.6044 H   0  0  0  0  0  0  0  0  0  0  0  0
   63.4376   32.8351   46.1409 H   0  0  0  0  0  0  0  0  0  0  0  0
   62.4122   34.3100   46.1409 H   0  0  0  0  0  0  0  0  0  0  0  0
   58.1886   33.2565   44.9821 H   0  0  0  0  0  0  0  0  0  0  0  0
   56.7311   31.4223   44.1365 H   0  0  0  0  0  0  0  0  0  0  0  0
   57.0948   27.8802   45.2455 H   0  0  0  0  0  0  0  0  0  0  0  0
   55.9790   29.1047   44.5331 H   0  0  0  0  0  0  0  0  0  0  0  0
   58.0000   29.0580   42.7780 H   0  0  0  0  0  0  0  0  0  0  0  0
   56.5520   28.1920   42.6070 H   0  0  0  0  0  0  0  0  0  0  0  0
   57.7574   26.3652   42.4799 H   0  0  0  0  0  0  0  0  0  0  0  0
   59.2291   27.3144   42.9682 H   0  0  0  0  0  0  0  0  0  0  0  0
   59.1317   25.8363   44.7344 H   0  0  0  0  0  0  0  0  0  0  0  0
   58.0778   27.1523   45.3737 H   0  0  0  0  0  0  0  0  0  0  0  0
   56.0770   26.4922   46.3247 H   0  0  0  0  0  0  0  0  0  0  0  0
   54.1993   24.8725   46.5397 H   0  0  0  0  0  0  0  0  0  0  0  0
   53.4494   22.6108   47.0783 H   0  0  0  0  0  0  0  0  0  0  0  0
   52.2606   23.4600   46.0332 H   0  0  0  0  0  0  0  0  0  0  0  0
   52.3357   21.6653   46.0332 H   0  0  0  0  0  0  0  0  0  0  0  0
   57.2858   20.9438   43.9822 H   0  0  0  0  0  0  0  0  0  0  0  0
   56.5353   20.4077   42.4408 H   0  0  0  0  0  0  0  0  0  0  0  0
   57.7214   21.7567   42.4408 H   0  0  0  0  0  0  0  0  0  0  0  0
   57.7802   24.1060   43.1423 H   0  0  0  0  0  0  0  0  0  0  0  0
   59.2616   28.5050   46.0956 H   0  0  0  0  0  0  0  0  0  0  0  0
   60.7185   30.3404   46.9443 H   0  0  0  0  0  0  0  0  0  0  0  0
  1  2  1  0
  2  3  1  0
  3  4  1  0
  4  5  1  0
  3  6  1  0
  6  7  2  0
  7  8  1  0
  8  9  2  0
  9 10  1  0
 10 11  1  0
 11 12  1  0
 12 13  1  0
 13 14  1  0
 14 15  2  0
 15 16  1  0
 16 17  2  0
 17 18  1  0
 18 19  1  0
 17 20  1  0
 20 21  1  0
 21 22  1  0
 20 23  2  0
  9 24  1  0
 24 25  2  0
 25  6  1  0
 23 14  1  0
  1 26  1  0
  1 27  1  0
  1 28  1  0
  2 29  1  0
  2 30  1  0
  4 31  1  0
  4 32  1  0
  5 33  1  0
  5 34  1  0
  5 35  1  0
  7 36  1  0
  8 37  1  0
 10 38  1  0
 10 39  1  0
 11 40  1  0
 11 41  1  0
 12 42  1  0
 12 43  1  0
 13 44  1  0
 13 45  1  0
 15 46  1  0
 16 47  1  0
 19 48  1  0
 19 49  1  0
 19 50  1  0
 22 51  1  0
 22 52  1  0
 22 53  1  0
 23 54  1  0
 24 55  1  0
 25 56  1  0
M  CHG  1  11   1
M  END
>  <UniqueID>  (25) 
20

>  <SMILES>  (25) 
CCN(CC)c1ccc(C[NH2+]CCc2ccc(OC)c(OC)c2)cc1

>  <Energy>  (25) 
49.12896598217206

>  <Genealogy>  (25) 
CCN(CC)c1ccc(C[NH2+]CCc2ccc(OC)c(OC)c2)cc1 (protonated)
CCN(CC)c1ccc(C[NH2+]CCc2ccc(OC)c(OC)c2)cc1 (3D coordinates assigned)
CCN(CC)c1ccc(C[NH2+]CCc2ccc(OC)c(OC)c2)cc1 (optimized conformer: 49.12896598217206 kcal/mol)

>  <smiles>  (25) 
CCN(CC)c1ccc(CNCCc2ccc(OC)c(OC)c2)cc1

>  <score_type>  (25) 
oracle

>  <origin>  (25) 
adg

>  <m_score__min__energy>  (25) 
-5.6799999999999997

>  <m_primary>  (25) 
energy

$$$$
25:0
     RDKit          3D

 49 52  0  0  0  0  0  0  0  0999 V2000
   63.0360   33.6870   46.4850 C   0  0  0  0  0  0  0  0  0  0  0  0
   62.5100   33.7840   47.8930 C   0  0  0  0  0  0  0  0  0  0  0  0
   63.4320   33.8050   48.9530 C   0  0  0  0  0  0  0  0  0  0  0  0
   62.9930   33.8540   50.2770 C   0  0  0  0  0  0  0  0  0  0  0  0
   61.6280   33.8870   50.5590 C   0  0  0  0  0  0  0  0  0  0  0  0
   60.6970   33.8880   49.5200 C   0  0  0  0  0  0  0  0  0  0  0  0
   61.1220   33.8580   48.1800 C   0  0  0  0  0  0  0  0  0  0  0  0
   60.0960   33.8970   47.1150 C   0  0  0  0  0  0  0  0  0  0  0  0
   59.3960   32.8230   46.6860 N   0  0  0  0  0  0  0  0  0  0  0  0
   58.5280   33.1270   45.6800 C   0  0  0  0  0  0  0  0  0  0  0  0
   57.6770   32.0980   45.0450 C   0  0  0  0  0  0  0  0  0  0  0  0
   57.0530   32.3830   43.9890 O   0  0  0  0  0  0  0  0  0  0  0  0
   57.4980   30.7990   45.6230 N   0  0  0  0  0  0  0  0  0  0  0  0
   57.9360   29.5560   45.0540 C   0  0  0  0  0  0  0  0  0  0  0  0
   57.3740   29.0720   43.8590 C   0  0  0  0  0  0  0  0  0  0  0  0
   57.7690   27.8360   43.3420 C   0  0  0  0  0  0  0  0  0  0  0  0
   58.7150   27.0650   44.0190 C   0  0  0  0  0  0  0  0  0  0  0  0
   59.2660   27.5260   45.2160 C   0  0  0  0  0  0  0  0  0  0  0  0
   58.8830   28.7690   45.7430 C   0  0  0  0  0  0  0  0  0  0  0  0
   59.4770   29.2310   46.9690 N   0  0  0  0  0  0  0  0  0  0  0  0
   58.8820   28.8710   48.2620 C   0  0  0  0  0  0  0  0  0  0  0  0
   58.9540   30.0440   49.2650 C   0  0  0  0  0  0  0  0  0  0  0  0
   59.9990   31.0360   48.9470 N   0  0  0  0  0  0  0  0  0  0  0  0
   61.1660   30.4220   48.3100 C   0  0  0  0  0  0  0  0  0  0  0  0
   60.7680   29.9280   46.9200 C   0  0  0  0  0  0  0  0  0  0  0  0
   58.5540   34.4630   45.2780 C   0  0  0  0  0  0  0  0  0  0  0  0
   59.6870   35.2660   46.2260 S   0  0  0  0  0  0  0  0  0  0  0  0
   64.1175   33.4876   46.5105 H   0  0  0  0  0  0  0  0  0  0  0  0
   62.5245   32.8680   45.9581 H   0  0  0  0  0  0  0  0  0  0  0  0
   62.8502   34.6345   45.9581 H   0  0  0  0  0  0  0  0  0  0  0  0
   64.5104   33.7826   48.7373 H   0  0  0  0  0  0  0  0  0  0  0  0
   63.7244   33.8666   51.0985 H   0  0  0  0  0  0  0  0  0  0  0  0
   61.2842   33.9123   51.6036 H   0  0  0  0  0  0  0  0  0  0  0  0
   59.6218   33.9125   49.7509 H   0  0  0  0  0  0  0  0  0  0  0  0
   59.5250   31.8590   47.0650 H   0  0  0  0  0  0  0  0  0  0  0  0
   56.6188   29.6704   43.3283 H   0  0  0  0  0  0  0  0  0  0  0  0
   57.3340   27.4700   42.4003 H   0  0  0  0  0  0  0  0  0  0  0  0
   59.0268   26.0930   43.6090 H   0  0  0  0  0  0  0  0  0  0  0  0
   60.0054   26.9108   45.7497 H   0  0  0  0  0  0  0  0  0  0  0  0
   57.8278   28.5978   48.1066 H   0  0  0  0  0  0  0  0  0  0  0  0
   59.4485   28.0253   48.6790 H   0  0  0  0  0  0  0  0  0  0  0  0
   57.9803   30.5557   49.2707 H   0  0  0  0  0  0  0  0  0  0  0  0
   59.2088   29.6129   50.2444 H   0  0  0  0  0  0  0  0  0  0  0  0
   60.3120   31.4820   49.8420 H   0  0  0  0  0  0  0  0  0  0  0  0
   61.9720   31.1653   48.2210 H   0  0  0  0  0  0  0  0  0  0  0  0
   61.5214   29.5772   48.9183 H   0  0  0  0  0  0  0  0  0  0  0  0
   60.6885   30.7887   46.2396 H   0  0  0  0  0  0  0  0  0  0  0  0
   61.5356   29.2274   46.5596 H   0  0  0  0  0  0  0  0  0  0  0  0
   57.9417   34.9115   44.4818 H   0  0  0  0  0  0  0  0  0  0  0  0
  1  2  1  0
  2  3  2  0
  3  4  1  0
  4  5  2  0
  5  6  1  0
  6  7  2  0
  7  8  1  0
  8  9  2  0
  9 10  1  0
 10 11  1  0
 11 12  2  0
 11 13  1  0
 13 14  1  0
 14 15  2  0
 15 16  1  0
 16 17  2  0
 17 18  1  0
 18 19  2  0
 19 20  1  0
 20 21  1  0
 21 22  1  0
 22 23  1  0
 23 24  1  0
 24 25  1  0
 10 26  2  0
 26 27  1  0
  7  2  1  0
 27  8  1  0
 19 14  1  0
 25 20  1  0
  1 28  1  0
  1 29  1  0
  1 30  1  0
  3 31  1  0
  4 32  1  0
  5 33  1  0
  6 34  1  0
  9 35  1  0
 15 36  1  0
 16 37  1  0
 17 38  1  0
 18 39  1  0
 21 40  1  0
 21 41  1  0
 22 42  1  0
 22 43  1  0
 23 44  1  0
 24 45  1  0
 24 46  1  0
 25 47  1  0
 25 48  1  0
 26 49  1  0
M  CHG  2   9   1  13  -1
M  END
>  <UniqueID>  (26) 
21

>  <SMILES>  (26) 
Cc1ccccc1-c1[nH+]c(C(=O)[N-]c2ccccc2N2CCNCC2)cs1

>  <Energy>  (26) 
100.77281482416257

>  <Genealogy>  (26) 
Cc1ccccc1-c1[nH+]c(C(=O)[N-]c2ccccc2N2CCNCC2)cs1 (protonated)
Cc1ccccc1-c1[nH+]c(C(=O)[N-]c2ccccc2N2CCNCC2)cs1 (3D coordinates assigned)
Cc1ccccc1-c1[nH+]c(C(=O)[N-]c2ccccc2N2CCNCC2)cs1 (nonaromatic ring conformer: 100.77281482416257 kcal/mol)

>  <smiles>  (26) 
Cc1ccccc1-c1nc(C(=O)Nc2ccccc2N2CCNCC2)cs1

>  <score_type>  (26) 
oracle

>  <origin>  (26) 
adg

>  <m_score__min__energy>  (26) 
-8.3200000000000003

>  <m_primary>  (26) 
energy

$$$$
26:0
     RDKit          3D

 19 20  0  0  0  0  0  0  0  0999 V2000
   55.8950   29.3280   42.7050 O   0  0  0  0  0  0  0  0  0  0  0  0
   55.9310   29.8630   43.8440 C   0  0  0  0  0  0  0  0  0  0  0  0
   55.1500   29.3370   44.8670 O   0  0  0  0  0  0  0  0  0  0  0  0
   56.7950   31.0310   44.0830 C   0  0  0  0  0  0  0  0  0  0  0  0
   57.3910   31.7190   43.0140 C   0  0  0  0  0  0  0  0  0  0  0  0
   58.2070   32.8240   43.2720 C   0  0  0  0  0  0  0  0  0  0  0  0
   58.4240   33.2370   44.5920 C   0  0  0  0  0  0  0  0  0  0  0  0
   59.2380   34.3410   44.8860 C   0  0  0  0  0  0  0  0  0  0  0  0
   59.4350   34.7280   46.2160 C   0  0  0  0  0  0  0  0  0  0  0  0
   58.8230   34.0170   47.2540 C   0  0  0  0  0  0  0  0  0  0  0  0
   58.0120   32.9150   46.9700 C   0  0  0  0  0  0  0  0  0  0  0  0
   57.8090   32.5200   45.6420 C   0  0  0  0  0  0  0  0  0  0  0  0
   57.0190   31.4490   45.3610 N   0  0  0  0  0  0  0  0  0  0  0  0
   57.2166   31.3901   41.9789 H   0  0  0  0  0  0  0  0  0  0  0  0
   58.6777   33.3680   42.4398 H   0  0  0  0  0  0  0  0  0  0  0  0
   59.7207   34.9017   44.0720 H   0  0  0  0  0  0  0  0  0  0  0  0
   60.0730   35.5940   46.4463 H   0  0  0  0  0  0  0  0  0  0  0  0
   58.9808   34.3266   48.2977 H   0  0  0  0  0  0  0  0  0  0  0  0
   57.5334   32.3582   47.7891 H   0  0  0  0  0  0  0  0  0  0  0  0
  1  2  2  0
  2  3  1  0
  2  4  1  0
  4  5  2  0
  5  6  1  0
  6  7  2  0
  7  8  1  0
  8  9  2  0
  9 10  1  0
 10 11  2  0
 11 12  1  0
 12 13  2  0
 13  4  1  0
 12  7  1  0
  5 14  1  0
  6 15  1  0
  8 16  1  0
  9 17  1  0
 10 18  1  0
 11 19  1  0
M  CHG  1   3  -1
M  END
>  <UniqueID>  (27) 
22

>  <SMILES>  (27) 
O=C([O-])c1ccc2ccccc2n1

>  <Energy>  (27) 
22.600812719557734

>  <Genealogy>  (27) 
O=C([O-])c1ccc2ccccc2n1 (protonated)
O=C([O-])c1ccc2ccccc2n1 (3D coordinates assigned)
O=C([O-])c1ccc2ccccc2n1 (optimized conformer: 22.600812719557734 kcal/mol)

>  <smiles>  (27) 
O=C(O)c1ccc2ccccc2n1

>  <score_type>  (27) 
oracle

>  <origin>  (27) 
adg

>  <m_score__min__energy>  (27) 
-9.0999999999999996

>  <m_primary>  (27) 
energy

$$$$
27:0
     RDKit          3D

 28 29  0  0  0  0  0  0  0  0999 V2000
   55.1986   30.2984   43.0889 H   0  0  0  0  0  0  0  0  0  0  0  0
   56.1220   30.4430   43.6690 C   0  0  0  0  0  0  0  0  0  0  0  0
   56.3700   29.9200   44.8870 N   0  0  0  0  0  0  0  0  0  0  0  0
   57.5880   30.3040   45.2450 N   0  0  0  0  0  0  0  0  0  0  0  0
   58.2060   29.9610   46.5240 C   0  0  0  0  0  0  0  0  0  0  0  0
   58.8290   30.8033   46.8594 H   0  0  0  0  0  0  0  0  0  0  0  0
   57.4087   29.7555   47.2534 H   0  0  0  0  0  0  0  0  0  0  0  0
   59.0840   28.7080   46.3950 C   0  0  0  0  0  0  0  0  0  0  0  0
   59.3692   28.5880   45.3394 H   0  0  0  0  0  0  0  0  0  0  0  0
   59.9592   28.8535   47.0452 H   0  0  0  0  0  0  0  0  0  0  0  0
   58.3800   27.4280   46.8580 C   0  0  0  0  0  0  0  0  0  0  0  0
   58.9012   26.5553   46.4376 H   0  0  0  0  0  0  0  0  0  0  0  0
   58.4004   27.3869   47.9570 H   0  0  0  0  0  0  0  0  0  0  0  0
   56.9900   27.4210   46.4090 N   0  0  0  0  0  0  0  0  0  0  0  0
   56.3510   26.3430   46.0760 C   0  0  0  0  0  0  0  0  0  0  0  0
   55.0050   26.2580   45.9930 N   0  0  0  0  0  0  0  0  0  0  0  0
   54.6100   25.0090   45.6280 C   0  0  0  0  0  0  0  0  0  0  0  0
   53.5513   24.7368   45.5055 H   0  0  0  0  0  0  0  0  0  0  0  0
   55.6430   24.1010   45.4210 C   0  0  0  0  0  0  0  0  0  0  0  0
   55.5261   23.0486   45.1231 H   0  0  0  0  0  0  0  0  0  0  0  0
   57.1040   24.8900   45.7050 S   0  0  0  0  0  0  0  0  0  0  0  0
   58.1340   31.0710   44.2830 C   0  0  0  0  0  0  0  0  0  0  0  0
   59.1367   31.5227   44.3049 H   0  0  0  0  0  0  0  0  0  0  0  0
   57.2120   31.1890   43.2660 C   0  0  0  0  0  0  0  0  0  0  0  0
   57.3970   31.8810   41.9570 C   0  0  0  0  0  0  0  0  0  0  0  0
   57.6774   32.9300   42.1332 H   0  0  0  0  0  0  0  0  0  0  0  0
   58.1926   31.3796   41.3864 H   0  0  0  0  0  0  0  0  0  0  0  0
   56.4573   31.8435   41.3864 H   0  0  0  0  0  0  0  0  0  0  0  0
  1  2  1  0
  2  3  2  0
  3  4  1  0
  4  5  1  0
  5  6  1  0
  5  7  1  0
  5  8  1  0
  8  9  1  0
  8 10  1  0
  8 11  1  0
 11 12  1  0
 11 13  1  0
 11 14  1  0
 14 15  2  0
 15 16  1  0
 16 17  1  0
 17 18  1  0
 17 19  2  0
 19 20  1  0
 19 21  1  0
  4 22  1  0
 22 23  1  0
 22 24  2  0
 24 25  1  0
 25 26  1  0
 25 27  1  0
 25 28  1  0
 24  2  1  0
 21 15  1  0
M  CHG  1  16  -1
M  END
>  <UniqueID>  (28) 
23

>  <SMILES>  (28) 
Cc1cnn(CCC/N=c2\[n-]ccs2)c1

>  <Energy>  (28) 
80.2466974144004

>  <Genealogy>  (28) 
Cc1cnn(CCCN=c2[n-]ccs2)c1 (protonated)
Cc1cnn(CCC/N=c2\[n-]ccs2)c1 (cis-trans isomerization)
Cc1cnn(CCC/N=c2\[n-]ccs2)c1 (3D coordinates assigned)
Cc1cnn(CCC/N=c2\[n-]ccs2)c1 (optimized conformer: 80.2466974144004 kcal/mol)

>  <smiles>  (28) 
Cc1cnn(CCCN=c2[nH]ccs2)c1

>  <score_type>  (28) 
oracle

>  <origin>  (28) 
adg

>  <m_score__min__energy>  (28) 
-8.1099999999999994

>  <m_primary>  (28) 
energy

$$$$
28:0
     RDKit          3D

 56 60  0  0  0  0  0  0  0  0999 V2000
   55.9194   29.0247   44.1764 H   0  0  0  0  0  0  0  0  0  0  0  0
   56.8020   29.0610   44.8320 C   0  0  0  0  0  0  0  0  0  0  0  0
   57.2770   27.7980   45.4240 C   0  0  0  0  0  0  0  0  0  0  0  0
   58.5830   27.5210   45.6250 N   0  0  0  0  0  0  0  0  0  0  0  0
   58.5670   26.3150   46.2340 C   0  0  0  0  0  0  0  0  0  0  0  0
   59.6160   25.7020   46.5650 O   0  0  0  0  0  0  0  0  0  0  0  0
   57.3240   25.8360   46.4540 N   0  0  0  0  0  0  0  0  0  0  0  0
   56.9430   24.5500   47.0360 C   0  0  0  0  0  0  0  0  0  0  0  0
   57.3730   24.4652   48.0449 H   0  0  0  0  0  0  0  0  0  0  0  0
   55.8460   24.4899   47.0913 H   0  0  0  0  0  0  0  0  0  0  0  0
   57.4650   23.4050   46.1650 C   0  0  0  0  0  0  0  0  0  0  0  0
   57.8859   23.8200   45.2373 H   0  0  0  0  0  0  0  0  0  0  0  0
   58.2390   22.8594   46.7247 H   0  0  0  0  0  0  0  0  0  0  0  0
   56.3840   22.4760   45.8290 N   0  0  0  0  0  0  0  0  0  0  0  0
   55.1510   22.7690   45.5050 C   0  0  0  0  0  0  0  0  0  0  0  0
   54.8340   23.4250   44.2960 C   0  0  0  0  0  0  0  0  0  0  0  0
   55.6347   23.7072   43.5966 H   0  0  0  0  0  0  0  0  0  0  0  0
   53.5050   23.7150   43.9890 C   0  0  0  0  0  0  0  0  0  0  0  0
   53.2611   24.2276   43.0468 H   0  0  0  0  0  0  0  0  0  0  0  0
   52.5110   23.3690   44.8450 N   0  0  0  0  0  0  0  0  0  0  0  0
   52.7660   22.7330   46.0180 C   0  0  0  0  0  0  0  0  0  0  0  0
   51.7060   22.3970   46.8670 C   0  0  0  0  0  0  0  0  0  0  0  0
   50.6739   22.6484   46.5812 H   0  0  0  0  0  0  0  0  0  0  0  0
   51.9540   21.7430   48.0770 C   0  0  0  0  0  0  0  0  0  0  0  0
   50.6200   21.3240   49.1370 Cl  0  0  0  0  0  0  0  0  0  0  0  0
   53.2640   21.4240   48.4440 C   0  0  0  0  0  0  0  0  0  0  0  0
   53.4557   20.9101   49.3975 H   0  0  0  0  0  0  0  0  0  0  0  0
   54.3320   21.7550   47.6050 C   0  0  0  0  0  0  0  0  0  0  0  0
   55.3601   21.4996   47.9013 H   0  0  0  0  0  0  0  0  0  0  0  0
   54.0980   22.4150   46.3800 C   0  0  0  0  0  0  0  0  0  0  0  0
   56.5110   26.7740   45.9450 C   0  0  0  0  0  0  0  0  0  0  0  0
   55.1210   26.7180   45.9920 O   0  0  0  0  0  0  0  0  0  0  0  0
   57.3830   30.2570   45.0450 C   0  0  0  0  0  0  0  0  0  0  0  0
   57.3740   31.3430   44.1780 C   0  0  0  0  0  0  0  0  0  0  0  0
   56.8688   31.3998   43.2025 H   0  0  0  0  0  0  0  0  0  0  0  0
   58.1210   32.3360   44.7770 C   0  0  0  0  0  0  0  0  0  0  0  0
   58.3910   33.6790   44.1700 C   0  0  0  0  0  0  0  0  0  0  0  0
   58.5399   34.4196   44.9696 H   0  0  0  0  0  0  0  0  0  0  0  0
   59.2962   33.6247   43.5474 H   0  0  0  0  0  0  0  0  0  0  0  0
   57.5351   33.9787   43.5474 H   0  0  0  0  0  0  0  0  0  0  0  0
   58.6090   31.9090   45.9640 N   0  0  0  0  0  0  0  0  0  0  0  0
   59.4290   32.6790   46.8610 C   0  0  0  0  0  0  0  0  0  0  0  0
   60.7630   32.3180   47.0910 C   0  0  0  0  0  0  0  0  0  0  0  0
   61.1943   31.4457   46.5780 H   0  0  0  0  0  0  0  0  0  0  0  0
   61.5440   33.0680   47.9730 C   0  0  0  0  0  0  0  0  0  0  0  0
   62.5930   32.7931   48.1576 H   0  0  0  0  0  0  0  0  0  0  0  0
   60.9800   34.1700   48.6180 C   0  0  0  0  0  0  0  0  0  0  0  0
   61.5865   34.7665   49.3153 H   0  0  0  0  0  0  0  0  0  0  0  0
   59.6820   34.5090   48.3870 N   0  0  0  0  0  0  0  0  0  0  0  0
   59.2740   35.3360   48.8770 H   0  0  0  0  0  0  0  0  0  0  0  0
   58.9030   33.7910   47.5310 C   0  0  0  0  0  0  0  0  0  0  0  0
   57.8563   34.0856   47.3651 H   0  0  0  0  0  0  0  0  0  0  0  0
   58.1670   30.6370   46.1400 C   0  0  0  0  0  0  0  0  0  0  0  0
   58.4730   29.8760   47.2020 C   0  0  0  0  0  0  0  0  0  0  0  0
   59.1013   30.2833   48.0078 H   0  0  0  0  0  0  0  0  0  0  0  0
   58.0955   28.8448   47.2668 H   0  0  0  0  0  0  0  0  0  0  0  0
  1  2  1  0
  2  3  1  0
  3  4  1  0
  4  5  1  0
  5  6  2  0
  5  7  1  0
  7  8  1  0
  8  9  1  0
  8 10  1  0
  8 11  1  0
 11 12  1  0
 11 13  1  0
 11 14  1  0
 14 15  2  0
 15 16  1  0
 16 17  1  0
 16 18  2  0
 18 19  1  0
 18 20  1  0
 20 21  1  0
 21 22  2  0
 22 23  1  0
 22 24  1  0
 24 25  1  0
 24 26  2  0
 26 27  1  0
 26 28  1  0
 28 29  1  0
 28 30  2  0
  7 31  1  0
 31 32  1  0
  2 33  2  3
 33 34  1  0
 34 35  1  0
 34 36  2  0
 36 37  1  0
 37 38  1  0
 37 39  1  0
 37 40  1  0
 36 41  1  0
 41 42  1  0
 42 43  2  0
 43 44  1  0
 43 45  1  0
 45 46  1  0
 45 47  2  0
 47 48  1  0
 47 49  1  0
 49 50  1  0
 49 51  2  0
 51 52  1  0
 41 53  1  0
 53 54  2  0
 54 55  1  0
 54 56  1  0
 31  3  2  0
 53 33  1  0
 30 15  1  0
 51 42  1  0
 30 21  1  0
M  CHG  4   4  -1  20  -1  32  -1  49   1
M  END
>  <UniqueID>  (29) 
24

>  <SMILES>  (29) 
C=c1c(=Cc2[n-]c(=O)n(CC/N=c3\cc[n-]c4cc(Cl)ccc34)c2[O-])cc(C)n1-c1ccc[nH+]c1

>  <Energy>  (29) 
140.60939857327017

>  <Genealogy>  (29) 
C=c1c(=Cc2[n-]c(=O)n(CCN=c3cc[n-]c4cc(Cl)ccc34)c2[O-])cc(C)n1-c1ccc[nH+]c1 (protonated)
C=c1c(=Cc2[n-]c(=O)n(CC/N=c3\cc[n-]c4cc(Cl)ccc34)c2[O-])cc(C)n1-c1ccc[nH+]c1 (cis-trans isomerization)
C=c1c(=Cc2[n-]c(=O)n(CC/N=c3\cc[n-]c4cc(Cl)ccc34)c2[O-])cc(C)n1-c1ccc[nH+]c1 (3D coordinates assigned)
C=c1c(=Cc2[n-]c(=O)n(CC/N=c3\cc[n-]c4cc(Cl)ccc34)c2[O-])cc(C)n1-c1ccc[nH+]c1 (optimized conformer: 140.60939857327017 kcal/mol)

>  <smiles>  (29) 
C=c1c(=Cc2[nH]c(=O)n(CCN=c3cc[nH]c4cc(Cl)ccc34)c2O)cc(C)n1-c1cccnc1

>  <score_type>  (29) 
oracle

>  <origin>  (29) 
adg

>  <m_score__min__energy>  (29) 
-13.4

>  <m_primary>  (29) 
energy

$$$$
29:0
     RDKit          3D

 47 50  0  0  0  0  0  0  0  0999 V2000
   64.8770   32.4520   49.7810 C   0  0  0  0  0  0  0  0  0  0  0  0
   64.3660   33.6810   49.2750 O   0  0  0  0  0  0  0  0  0  0  0  0
   63.0850   33.8400   48.7280 C   0  0  0  0  0  0  0  0  0  0  0  0
   61.9450   34.0580   49.5240 C   0  0  0  0  0  0  0  0  0  0  0  0
   60.6880   34.1970   48.9310 C   0  0  0  0  0  0  0  0  0  0  0  0
   60.5420   34.1060   47.5350 C   0  0  0  0  0  0  0  0  0  0  0  0
   59.2040   34.1910   46.9030 C   0  0  0  0  0  0  0  0  0  0  0  0
   58.5540   35.2690   46.9740 O   0  0  0  0  0  0  0  0  0  0  0  0
   58.6180   33.0490   46.1620 C   0  0  0  0  0  0  0  0  0  0  0  0
   57.7580   33.2070   45.0740 C   0  0  0  0  0  0  0  0  0  0  0  0
   57.2870   34.4450   44.5410 N   0  0  0  0  0  0  0  0  0  0  0  0
   57.2570   31.7020   44.5300 S   0  0  0  0  0  0  0  0  0  0  0  0
   58.1410   30.8020   45.6470 C   0  0  0  0  0  0  0  0  0  0  0  0
   58.1690   29.3240   45.6740 C   0  0  0  0  0  0  0  0  0  0  0  0
   58.1690   28.6450   46.9030 C   0  0  0  0  0  0  0  0  0  0  0  0
   58.1940   27.2470   46.9390 C   0  0  0  0  0  0  0  0  0  0  0  0
   58.2070   26.5140   45.7470 C   0  0  0  0  0  0  0  0  0  0  0  0
   58.2380   24.7610   45.7940 Cl  0  0  0  0  0  0  0  0  0  0  0  0
   58.1890   27.1820   44.5190 C   0  0  0  0  0  0  0  0  0  0  0  0
   58.1640   28.5790   44.4800 C   0  0  0  0  0  0  0  0  0  0  0  0
   58.8430   31.6870   46.4830 C   0  0  0  0  0  0  0  0  0  0  0  0
   59.6880   31.2430   47.6150 C   0  0  0  0  0  0  0  0  0  0  0  0
   61.0420   30.9340   47.4070 C   0  0  0  0  0  0  0  0  0  0  0  0
   61.8280   30.4660   48.4640 C   0  0  0  0  0  0  0  0  0  0  0  0
   61.2690   30.3070   49.7360 C   0  0  0  0  0  0  0  0  0  0  0  0
   62.2520   29.7060   51.0580 Cl  0  0  0  0  0  0  0  0  0  0  0  0
   59.9230   30.6230   49.9520 C   0  0  0  0  0  0  0  0  0  0  0  0
   59.1360   31.0920   48.8980 C   0  0  0  0  0  0  0  0  0  0  0  0
   61.6850   33.9120   46.7430 C   0  0  0  0  0  0  0  0  0  0  0  0
   62.9430   33.7760   47.3370 C   0  0  0  0  0  0  0  0  0  0  0  0
   64.8671   32.4758   50.8807 H   0  0  0  0  0  0  0  0  0  0  0  0
   64.2500   31.6206   49.4266 H   0  0  0  0  0  0  0  0  0  0  0  0
   65.9086   32.3102   49.4266 H   0  0  0  0  0  0  0  0  0  0  0  0
   62.0443   34.1192   50.6178 H   0  0  0  0  0  0  0  0  0  0  0  0
   59.8049   34.3792   49.5610 H   0  0  0  0  0  0  0  0  0  0  0  0
   56.6140   34.4750   43.7440 H   0  0  0  0  0  0  0  0  0  0  0  0
   57.6420   35.3470   44.9290 H   0  0  0  0  0  0  0  0  0  0  0  0
   58.1492   29.2159   47.8431 H   0  0  0  0  0  0  0  0  0  0  0  0
   58.2035   26.7228   47.9060 H   0  0  0  0  0  0  0  0  0  0  0  0
   58.1945   26.6069   43.5813 H   0  0  0  0  0  0  0  0  0  0  0  0
   58.1403   29.0989   43.5109 H   0  0  0  0  0  0  0  0  0  0  0  0
   61.4858   31.0607   46.4085 H   0  0  0  0  0  0  0  0  0  0  0  0
   62.8873   30.2225   48.2951 H   0  0  0  0  0  0  0  0  0  0  0  0
   59.4842   30.5018   50.9534 H   0  0  0  0  0  0  0  0  0  0  0  0
   58.0797   31.3442   49.0731 H   0  0  0  0  0  0  0  0  0  0  0  0
   61.5899   33.8667   45.6481 H   0  0  0  0  0  0  0  0  0  0  0  0
   63.8295   33.6172   46.7055 H   0  0  0  0  0  0  0  0  0  0  0  0
  1  2  1  0
  2  3  1  0
  3  4  2  0
  4  5  1  0
  5  6  2  0
  6  7  1  0
  7  8  2  0
  7  9  1  0
  9 10  2  0
 10 11  1  0
 10 12  1  0
 12 13  1  0
 13 14  1  0
 14 15  2  0
 15 16  1  0
 16 17  2  0
 17 18  1  0
 17 19  1  0
 19 20  2  0
 13 21  2  0
 21 22  1  0
 22 23  2  0
 23 24  1  0
 24 25  2  0
 25 26  1  0
 25 27  1  0
 27 28  2  0
  6 29  1  0
 29 30  2  0
 30  3  1  0
 21  9  1  0
 28 22  1  0
 20 14  1  0
  1 31  1  0
  1 32  1  0
  1 33  1  0
  4 34  1  0
  5 35  1  0
 11 36  1  0
 11 37  1  0
 15 38  1  0
 16 39  1  0
 19 40  1  0
 20 41  1  0
 23 42  1  0
 24 43  1  0
 27 44  1  0
 28 45  1  0
 29 46  1  0
 30 47  1  0
M  END
>  <UniqueID>  (30) 
25

>  <SMILES>  (30) 
COc1ccc(C(=O)c2c(N)sc(-c3ccc(Cl)cc3)c2-c2ccc(Cl)cc2)cc1

>  <Energy>  (30) 
91.21938782154486

>  <Genealogy>  (30) 
COc1ccc(C(=O)c2c(N)sc(-c3ccc(Cl)cc3)c2-c2ccc(Cl)cc2)cc1 (3D coordinates assigned)
COc1ccc(C(=O)c2c(N)sc(-c3ccc(Cl)cc3)c2-c2ccc(Cl)cc2)cc1 (optimized conformer: 91.21938782154486 kcal/mol)

>  <smiles>  (30) 
COc1ccc(C(=O)c2c(N)sc(-c3ccc(Cl)cc3)c2-c2ccc(Cl)cc2)cc1

>  <score_type>  (30) 
oracle

>  <origin>  (30) 
adg

>  <m_score__min__energy>  (30) 
-7.9500000000000002

>  <m_primary>  (30) 
energy

$$$$
30:0
     RDKit          3D

 44 46  0  0  0  0  0  0  0  0999 V2000
   63.4100   33.4650   49.3340 C   0  0  0  0  0  0  0  0  0  0  0  0
   62.1930   34.2090   49.3410 O   0  0  0  0  0  0  0  0  0  0  0  0
   61.2050   34.1340   48.3390 C   0  0  0  0  0  0  0  0  0  0  0  0
   61.6050   33.8290   47.0300 C   0  0  0  0  0  0  0  0  0  0  0  0
   60.6550   33.7150   46.0050 C   0  0  0  0  0  0  0  0  0  0  0  0
   59.2920   33.9110   46.2740 C   0  0  0  0  0  0  0  0  0  0  0  0
   58.1050   33.6690   44.9890 S   0  0  0  0  0  0  0  0  0  0  0  0
   58.8420   33.2990   43.7270 O   0  0  0  0  0  0  0  0  0  0  0  0
   57.3160   34.9310   44.7430 O   0  0  0  0  0  0  0  0  0  0  0  0
   57.0260   32.3760   45.4040 N   0  0  0  0  0  0  0  0  0  0  0  0
   57.3130   30.9910   45.1540 C   0  0  0  0  0  0  0  0  0  0  0  0
   56.8020   30.3560   44.0120 C   0  0  0  0  0  0  0  0  0  0  0  0
   56.9750   28.9850   43.8240 C   0  0  0  0  0  0  0  0  0  0  0  0
   57.6920   28.2150   44.7560 C   0  0  0  0  0  0  0  0  0  0  0  0
   57.7330   26.7820   44.6140 N   0  0  0  0  0  0  0  0  0  0  0  0
   56.8160   25.6950   45.6060 S   0  0  0  0  0  0  0  0  0  0  0  0
   56.4700   24.1940   44.7170 C   0  0  0  0  0  0  0  0  0  0  0  0
   57.5800   25.3750   46.8580 O   0  0  0  0  0  0  0  0  0  0  0  0
   55.5190   26.3580   45.9850 O   0  0  0  0  0  0  0  0  0  0  0  0
   58.2950   28.8590   45.8700 C   0  0  0  0  0  0  0  0  0  0  0  0
   59.0990   28.1480   46.7880 C   0  0  0  0  0  0  0  0  0  0  0  0
   59.6660   28.7940   47.8930 C   0  0  0  0  0  0  0  0  0  0  0  0
   59.4520   30.1560   48.1000 C   0  0  0  0  0  0  0  0  0  0  0  0
   58.6780   30.8870   47.1960 C   0  0  0  0  0  0  0  0  0  0  0  0
   58.1000   30.2570   46.0690 C   0  0  0  0  0  0  0  0  0  0  0  0
   58.8850   34.2360   47.5780 C   0  0  0  0  0  0  0  0  0  0  0  0
   59.8340   34.3430   48.6060 C   0  0  0  0  0  0  0  0  0  0  0  0
   63.7272   33.2711   50.3693 H   0  0  0  0  0  0  0  0  0  0  0  0
   63.2522   32.5088   48.8137 H   0  0  0  0  0  0  0  0  0  0  0  0
   64.1891   34.0414   48.8137 H   0  0  0  0  0  0  0  0  0  0  0  0
   62.6713   33.6782   46.8058 H   0  0  0  0  0  0  0  0  0  0  0  0
   60.9805   33.4703   44.9832 H   0  0  0  0  0  0  0  0  0  0  0  0
   56.2597   30.9451   43.2578 H   0  0  0  0  0  0  0  0  0  0  0  0
   56.5449   28.5001   42.9352 H   0  0  0  0  0  0  0  0  0  0  0  0
   58.3160   26.3530   43.8680 H   0  0  0  0  0  0  0  0  0  0  0  0
   56.2822   23.3794   45.4319 H   0  0  0  0  0  0  0  0  0  0  0  0
   55.5817   24.3389   44.0846 H   0  0  0  0  0  0  0  0  0  0  0  0
   57.3321   23.9354   44.0846 H   0  0  0  0  0  0  0  0  0  0  0  0
   59.2818   27.0744   46.6330 H   0  0  0  0  0  0  0  0  0  0  0  0
   60.2840   28.2236   48.6021 H   0  0  0  0  0  0  0  0  0  0  0  0
   59.8929   30.6550   48.9756 H   0  0  0  0  0  0  0  0  0  0  0  0
   58.5164   31.9623   47.3619 H   0  0  0  0  0  0  0  0  0  0  0  0
   57.8201   34.4071   47.7941 H   0  0  0  0  0  0  0  0  0  0  0  0
   59.5079   34.5913   49.6268 H   0  0  0  0  0  0  0  0  0  0  0  0
  1  2  1  0
  2  3  1  0
  3  4  2  0
  4  5  1  0
  5  6  2  0
  6  7  1  0
  7  8  2  0
  7  9  2  0
  7 10  1  0
 10 11  1  0
 11 12  2  0
 12 13  1  0
 13 14  2  0
 14 15  1  0
 15 16  1  0
 16 17  1  0
 16 18  2  0
 16 19  2  0
 14 20  1  0
 20 21  2  0
 21 22  1  0
 22 23  2  0
 23 24  1  0
 24 25  2  0
  6 26  1  0
 26 27  2  0
 27  3  1  0
 25 11  1  0
 25 20  1  0
  1 28  1  0
  1 29  1  0
  1 30  1  0
  4 31  1  0
  5 32  1  0
 12 33  1  0
 13 34  1  0
 15 35  1  0
 17 36  1  0
 17 37  1  0
 17 38  1  0
 21 39  1  0
 22 40  1  0
 23 41  1  0
 24 42  1  0
 26 43  1  0
 27 44  1  0
M  CHG  1  10  -1
M  END
>  <UniqueID>  (31) 
26

>  <SMILES>  (31) 
COc1ccc(S(=O)(=O)[N-]c2ccc(NS(C)(=O)=O)c3ccccc23)cc1

>  <Energy>  (31) 
59.606164025067166

>  <Genealogy>  (31) 
COc1ccc(S(=O)(=O)[N-]c2ccc(NS(C)(=O)=O)c3ccccc23)cc1 (protonated)
COc1ccc(S(=O)(=O)[N-]c2ccc(NS(C)(=O)=O)c3ccccc23)cc1 (3D coordinates assigned)
COc1ccc(S(=O)(=O)[N-]c2ccc(NS(C)(=O)=O)c3ccccc23)cc1 (optimized conformer: 59.606164025067166 kcal/mol)

>  <smiles>  (31) 
COc1ccc(S(=O)(=O)Nc2ccc(NS(C)(=O)=O)c3ccccc23)cc1

>  <score_type>  (31) 
oracle

>  <origin>  (31) 
adg

>  <m_score__min__energy>  (31) 
-9.8399999999999999

>  <m_primary>  (31) 
energy

$$$$
31:0
     RDKit          3D

 59 63  0  0  0  0  0  0  0  0999 V2000
   63.9216   32.4477   46.4627 H   0  0  0  0  0  0  0  0  0  0  0  0
   63.1400   32.9520   47.0500 C   0  0  0  0  0  0  0  0  0  0  0  0
   63.2210   32.9730   48.4470 C   0  0  0  0  0  0  0  0  0  0  0  0
   64.0627   32.4815   48.9570 H   0  0  0  0  0  0  0  0  0  0  0  0
   62.2300   33.6200   49.1950 C   0  0  0  0  0  0  0  0  0  0  0  0
   62.3340   33.6520   50.9460 Cl  0  0  0  0  0  0  0  0  0  0  0  0
   61.1560   34.2420   48.5440 C   0  0  0  0  0  0  0  0  0  0  0  0
   60.3796   34.7529   49.1324 H   0  0  0  0  0  0  0  0  0  0  0  0
   61.0680   34.2150   47.1430 C   0  0  0  0  0  0  0  0  0  0  0  0
   59.6920   34.9420   46.3180 S   0  0  0  0  0  0  0  0  0  0  0  0
   58.4700   34.9190   47.1920 O   0  0  0  0  0  0  0  0  0  0  0  0
   60.0280   36.3680   45.9830 O   0  0  0  0  0  0  0  0  0  0  0  0
   59.3610   34.0680   44.8560 N   0  0  0  0  0  0  0  0  0  0  0  0
   59.7840   34.4410   43.9760 H   0  0  0  0  0  0  0  0  0  0  0  0
   58.6580   32.8140   44.8180 C   0  0  0  0  0  0  0  0  0  0  0  0
   58.0010   32.3670   43.6620 C   0  0  0  0  0  0  0  0  0  0  0  0
   58.0345   32.9745   42.7456 H   0  0  0  0  0  0  0  0  0  0  0  0
   57.3050   31.1570   43.6660 C   0  0  0  0  0  0  0  0  0  0  0  0
   56.7704   30.8356   42.7600 H   0  0  0  0  0  0  0  0  0  0  0  0
   57.2780   30.3430   44.8130 C   0  0  0  0  0  0  0  0  0  0  0  0
   56.5280   29.0570   44.7730 C   0  0  0  0  0  0  0  0  0  0  0  0
   57.1430   27.9680   44.6120 O   0  0  0  0  0  0  0  0  0  0  0  0
   55.1460   29.0220   44.9170 O   0  0  0  0  0  0  0  0  0  0  0  0
   57.9990   30.7570   45.9590 C   0  0  0  0  0  0  0  0  0  0  0  0
   57.9700   29.9850   47.1680 N   0  0  0  0  0  0  0  0  0  0  0  0
   58.7750   30.0330   48.1960 C   0  0  0  0  0  0  0  0  0  0  0  0
   58.2720   30.5250   49.3600 N   0  0  0  0  0  0  0  0  0  0  0  0
   59.0420   30.7020   50.4640 C   0  0  0  0  0  0  0  0  0  0  0  0
   58.4950   31.2340   51.6380 C   0  0  0  0  0  0  0  0  0  0  0  0
   57.4273   31.4953   51.6807 H   0  0  0  0  0  0  0  0  0  0  0  0
   59.3120   31.4320   52.7570 C   0  0  0  0  0  0  0  0  0  0  0  0
   58.8853   31.8493   53.6810 H   0  0  0  0  0  0  0  0  0  0  0  0
   60.6720   31.1000   52.7030 C   0  0  0  0  0  0  0  0  0  0  0  0
   61.3113   31.2604   53.5837 H   0  0  0  0  0  0  0  0  0  0  0  0
   61.2190   30.5650   51.5320 C   0  0  0  0  0  0  0  0  0  0  0  0
   62.2859   30.3000   51.4921 H   0  0  0  0  0  0  0  0  0  0  0  0
   60.4040   30.3680   50.4110 C   0  0  0  0  0  0  0  0  0  0  0  0
   60.9080   29.8270   49.2760 N   0  0  0  0  0  0  0  0  0  0  0  0
   60.1420   29.6290   48.1680 C   0  0  0  0  0  0  0  0  0  0  0  0
   60.7120   28.8730   47.0860 N   0  0  0  0  0  0  0  0  0  0  0  0
   61.1000   29.5960   45.8630 C   0  0  0  0  0  0  0  0  0  0  0  0
   60.3648   30.3909   45.6692 H   0  0  0  0  0  0  0  0  0  0  0  0
   62.1035   30.0197   46.0161 H   0  0  0  0  0  0  0  0  0  0  0  0
   61.1530   28.6590   44.6490 C   0  0  0  0  0  0  0  0  0  0  0  0
   61.2648   29.2587   43.7336 H   0  0  0  0  0  0  0  0  0  0  0  0
   62.0088   27.9774   44.7631 H   0  0  0  0  0  0  0  0  0  0  0  0
   59.8650   27.8270   44.5540 C   0  0  0  0  0  0  0  0  0  0  0  0
   59.0382   28.4965   44.2743 H   0  0  0  0  0  0  0  0  0  0  0  0
   60.0414   27.0438   43.8021 H   0  0  0  0  0  0  0  0  0  0  0  0
   59.4910   27.1130   45.8740 C   0  0  0  0  0  0  0  0  0  0  0  0
   58.4801   27.4304   46.1696 H   0  0  0  0  0  0  0  0  0  0  0  0
   59.5444   26.0301   45.6881 H   0  0  0  0  0  0  0  0  0  0  0  0
   60.4560   27.4280   47.0210 C   0  0  0  0  0  0  0  0  0  0  0  0
   60.0127   27.0944   47.9708 H   0  0  0  0  0  0  0  0  0  0  0  0
   61.4063   26.9026   46.8452 H   0  0  0  0  0  0  0  0  0  0  0  0
   58.6390   32.0070   45.9610 C   0  0  0  0  0  0  0  0  0  0  0  0
   59.1346   32.3583   46.8781 H   0  0  0  0  0  0  0  0  0  0  0  0
   62.0670   33.5710   46.3980 C   0  0  0  0  0  0  0  0  0  0  0  0
   62.0071   33.5524   45.2998 H   0  0  0  0  0  0  0  0  0  0  0  0
  1  2  1  0
  2  3  2  0
  3  4  1  0
  3  5  1  0
  5  6  1  0
  5  7  2  0
  7  8  1  0
  7  9  1  0
  9 10  1  0
 10 11  2  0
 10 12  2  0
 10 13  1  0
 13 14  1  0
 13 15  1  0
 15 16  2  0
 16 17  1  0
 16 18  1  0
 18 19  1  0
 18 20  2  0
 20 21  1  0
 21 22  2  0
 21 23  1  0
 20 24  1  0
 24 25  1  0
 25 26  2  0
 26 27  1  0
 27 28  1  0
 28 29  2  0
 29 30  1  0
 29 31  1  0
 31 32  1  0
 31 33  2  0
 33 34  1  0
 33 35  1  0
 35 36  1  0
 35 37  2  0
 37 38  1  0
 38 39  2  0
 39 40  1  0
 40 41  1  0
 41 42  1  0
 41 43  1  0
 41 44  1  0
 44 45  1  0
 44 46  1  0
 44 47  1  0
 47 48  1  0
 47 49  1  0
 47 50  1  0
 50 51  1  0
 50 52  1  0
 50 53  1  0
 53 54  1  0
 53 55  1  0
 24 56  2  0
 56 57  1  0
  9 58  2  0
 58 59  1  0
 58  2  1  0
 56 15  1  0
 39 26  1  0
 53 40  1  0
 37 28  1  0
M  CHG  2  23  -1  27  -1
M  END
>  <UniqueID>  (32) 
27

>  <SMILES>  (32) 
O=C([O-])c1ccc(NS(=O)(=O)c2cccc(Cl)c2)cc1/N=c1/[n-]c2ccccc2nc1N1CCCCC1

>  <Energy>  (32) 
92.43543315160058

>  <Genealogy>  (32) 
O=C([O-])c1ccc(NS(=O)(=O)c2cccc(Cl)c2)cc1N=c1[n-]c2ccccc2nc1N1CCCCC1 (protonated)
O=C([O-])c1ccc(NS(=O)(=O)c2cccc(Cl)c2)cc1/N=c1/[n-]c2ccccc2nc1N1CCCCC1 (cis-trans isomerization)
O=C([O-])c1ccc(NS(=O)(=O)c2cccc(Cl)c2)cc1/N=c1/[n-]c2ccccc2nc1N1CCCCC1 (3D coordinates assigned)
O=C([O-])c1ccc(NS(=O)(=O)c2cccc(Cl)c2)cc1/N=c1/[n-]c2ccccc2nc1N1CCCCC1 (nonaromatic ring conformer: 92.43543315160058 kcal/mol)

>  <smiles>  (32) 
O=C(O)c1ccc(NS(=O)(=O)c2cccc(Cl)c2)cc1N=c1[nH]c2ccccc2nc1N1CCCCC1

>  <score_type>  (32) 
oracle

>  <origin>  (32) 
adg

>  <m_score__min__energy>  (32) 
-13.109999999999999

>  <m_primary>  (32) 
energy

$$$$
32:0
     RDKit          3D

 35 37  0  0  1  0  0  0  0  0999 V2000
   57.5880   28.4780   43.6960 N   0  0  0  0  0  0  0  0  0  0  0  0
   56.6360   29.8690   44.0000 S   0  0  0  0  0  0  0  0  0  0  0  0
   55.4560   29.5550   44.8650 O   0  0  0  0  0  0  0  0  0  0  0  0
   56.0700   30.3630   42.6810 O   0  0  0  0  0  0  0  0  0  0  0  0
   57.6600   31.1230   44.7120 C   0  0  0  0  0  0  0  0  0  0  0  0
   57.3950   32.4670   44.4640 C   0  0  0  0  0  0  0  0  0  0  0  0
   58.1810   33.4660   45.0100 C   0  0  0  0  0  0  0  0  0  0  0  0
   59.2580   33.0970   45.8200 C   0  0  0  0  0  0  0  0  0  0  0  0
   60.1140   34.0680   46.4170 N   0  0  0  0  0  0  0  0  0  0  0  0
   60.5820   33.9730   47.6130 C   0  0  0  0  0  0  0  0  0  0  0  0
   59.7270   33.6800   48.6070 N   0  0  0  0  0  0  0  0  0  0  0  0
   60.1750   33.5700   49.8880 C   0  0  0  0  0  0  0  0  0  0  0  0
   59.2480   33.2510   50.9670 C   0  0  0  0  0  0  0  0  0  0  0  0
   59.2850   33.8520   52.2050 C   0  0  0  0  0  0  0  0  0  0  0  0
   58.3620   33.4950   53.1940 C   0  0  0  0  0  0  0  0  0  0  0  0
   57.4390   32.5500   52.9010 N   0  0  0  0  0  0  0  0  0  0  0  0
   57.3940   31.9510   51.6840 C   0  0  0  0  0  0  0  0  0  0  0  0
   58.3030   32.3250   50.7610 N   0  0  0  0  0  0  0  0  0  0  0  0
   61.5180   33.7750   50.0760 C   0  0  0  0  0  0  0  0  0  0  0  0
   62.3960   34.0790   49.0460 C   0  0  0  0  0  0  0  0  0  0  0  0
   61.9000   34.1750   47.8000 N   0  0  0  0  0  0  0  0  0  0  0  0
   59.5240   31.7490   46.0660 C   0  0  0  0  0  0  0  0  0  0  0  0
   58.7350   30.7460   45.5200 C   0  0  0  0  0  0  0  0  0  0  0  0
   58.3240   28.6290   42.9670 H   0  0  0  0  0  0  0  0  0  0  0  0
   56.9780   27.7010   43.3480 H   0  0  0  0  0  0  0  0  0  0  0  0
   56.5446   32.7398   43.8218 H   0  0  0  0  0  0  0  0  0  0  0  0
   57.9632   34.5257   44.8111 H   0  0  0  0  0  0  0  0  0  0  0  0
   60.0452   34.6179   52.4180 H   0  0  0  0  0  0  0  0  0  0  0  0
   58.3861   33.9709   54.1854 H   0  0  0  0  0  0  0  0  0  0  0  0
   56.6390   31.1838   51.4575 H   0  0  0  0  0  0  0  0  0  0  0  0
   61.9198   33.6941   51.0968 H   0  0  0  0  0  0  0  0  0  0  0  0
   63.4667   34.2369   49.2428 H   0  0  0  0  0  0  0  0  0  0  0  0
   62.5530   34.4050   47.0100 H   0  0  0  0  0  0  0  0  0  0  0  0
   60.3763   31.4760   46.7056 H   0  0  0  0  0  0  0  0  0  0  0  0
   58.9501   29.6855   45.7178 H   0  0  0  0  0  0  0  0  0  0  0  0
  1  2  1  0
  2  3  2  0
  2  4  2  0
  2  5  1  0
  5  6  2  0
  6  7  1  0
  7  8  2  0
  8  9  1  0
  9 10  2  0
 10 11  1  0
 11 12  2  0
 12 13  1  0
 13 14  2  0
 14 15  1  0
 15 16  2  0
 16 17  1  0
 17 18  2  0
 12 19  1  0
 19 20  2  0
 20 21  1  0
  8 22  1  0
 22 23  2  0
 23  5  1  0
 21 10  1  0
 18 13  1  0
  1 24  1  0
  1 25  1  0
  6 26  1  0
  7 27  1  0
 14 28  1  0
 15 29  1  0
 17 30  1  0
 19 31  1  0
 20 32  1  0
 21 33  1  0
 22 34  1  0
 23 35  1  0
M  END
>  <smiles>  (33) 
NS(=O)(=O)c1ccc(N=c2nc(-c3ccncn3)cc[nH]2)cc1

>  <score_type>  (33) 
oracle

>  <origin>  (33) 
adg

>  <m_score__min__energy>  (33) 
-8.25

>  <m_primary>  (33) 
energy

$$$$
33:0
     RDKit          3D

 45 47  0  0  0  0  0  0  0  0999 V2000
   55.9370   29.7040   43.4330 C   0  0  0  0  0  0  0  0  0  0  0  0
   56.9680   30.6920   44.4960 S   0  0  0  0  0  0  0  0  0  0  0  0
   56.2780   31.9790   44.8500 O   0  0  0  0  0  0  0  0  0  0  0  0
   58.2430   31.0130   43.7690 O   0  0  0  0  0  0  0  0  0  0  0  0
   57.3600   29.8110   45.9360 N   0  0  0  0  0  0  0  0  0  0  0  0
   57.7840   28.4400   46.0070 C   0  0  0  0  0  0  0  0  0  0  0  0
   57.4440   27.5150   45.0010 C   0  0  0  0  0  0  0  0  0  0  0  0
   57.8590   26.1830   45.0910 C   0  0  0  0  0  0  0  0  0  0  0  0
   57.4280   25.0420   43.8300 Cl  0  0  0  0  0  0  0  0  0  0  0  0
   58.6100   25.7580   46.1880 C   0  0  0  0  0  0  0  0  0  0  0  0
   58.9520   26.6620   47.1930 C   0  0  0  0  0  0  0  0  0  0  0  0
   58.5510   28.0060   47.1130 C   0  0  0  0  0  0  0  0  0  0  0  0
   58.9270   28.9420   48.2410 C   0  0  0  0  0  0  0  0  0  0  0  0
   60.2310   29.5900   47.9720 N   0  0  0  0  0  0  0  0  0  0  0  0
   60.9250   30.0290   49.2040 C   0  0  0  0  0  0  0  0  0  0  0  0
   60.2470   31.2390   49.8790 C   0  0  0  0  0  0  0  0  0  0  0  0
   59.6010   32.2040   48.8720 C   0  0  0  0  0  0  0  0  0  0  0  0
   60.2670   32.0950   47.4950 C   0  0  2  0  0  0  0  0  0  0  0  0
   59.6940   33.0690   46.5570 N   0  0  0  0  0  0  0  0  0  0  0  0
   60.0950   34.3430   46.3650 C   0  0  0  0  0  0  0  0  0  0  0  0
   59.2750   34.9210   45.4150 C   0  0  0  0  0  0  0  0  0  0  0  0
   58.3780   33.9300   45.0650 C   0  0  0  0  0  0  0  0  0  0  0  0
   58.6550   32.8230   45.7760 N   0  0  0  0  0  0  0  0  0  0  0  0
   60.1490   30.6550   46.9360 C   0  0  0  0  0  0  0  0  0  0  0  0
   55.2775   29.0720   44.0460 H   0  0  0  0  0  0  0  0  0  0  0  0
   55.3268   30.3632   42.7981 H   0  0  0  0  0  0  0  0  0  0  0  0
   56.5696   29.0663   42.7981 H   0  0  0  0  0  0  0  0  0  0  0  0
   56.8470   27.8432   44.1373 H   0  0  0  0  0  0  0  0  0  0  0  0
   58.9324   24.7088   46.2598 H   0  0  0  0  0  0  0  0  0  0  0  0
   59.5412   26.3196   48.0565 H   0  0  0  0  0  0  0  0  0  0  0  0
   58.1526   29.7169   48.3403 H   0  0  0  0  0  0  0  0  0  0  0  0
   59.0069   28.3601   49.1711 H   0  0  0  0  0  0  0  0  0  0  0  0
   60.9373   29.1913   49.9169 H   0  0  0  0  0  0  0  0  0  0  0  0
   61.9407   30.3388   48.9169 H   0  0  0  0  0  0  0  0  0  0  0  0
   59.4665   30.8687   50.5600 H   0  0  0  0  0  0  0  0  0  0  0  0
   61.0285   31.7974   50.4152 H   0  0  0  0  0  0  0  0  0  0  0  0
   58.5330   31.9591   48.7746 H   0  0  0  0  0  0  0  0  0  0  0  0
   59.7307   33.2319   49.2416 H   0  0  0  0  0  0  0  0  0  0  0  0
   61.3356   32.3266   47.6155 H   0  0  0  0  0  0  0  0  0  0  0  0
   60.9329   34.8377   46.8780 H   0  0  0  0  0  0  0  0  0  0  0  0
   59.3253   35.9474   45.0225 H   0  0  0  0  0  0  0  0  0  0  0  0
   57.5697   34.0303   44.3257 H   0  0  0  0  0  0  0  0  0  0  0  0
   58.1400   31.9160   45.7270 H   0  0  0  0  0  0  0  0  0  0  0  0
   59.1808   30.5627   46.4222 H   0  0  0  0  0  0  0  0  0  0  0  0
   61.0052   30.5065   46.2616 H   0  0  0  0  0  0  0  0  0  0  0  0
  1  2  1  0
  2  3  2  0
  2  4  2  0
  2  5  1  0
  5  6  1  0
  6  7  2  0
  7  8  1  0
  8  9  1  0
  8 10  2  0
 10 11  1  0
 11 12  2  0
 12 13  1  0
 13 14  1  0
 14 15  1  0
 15 16  1  0
 16 17  1  0
 17 18  1  0
 18 19  1  0
 19 20  1  0
 20 21  2  0
 21 22  1  0
 22 23  2  0
 18 24  1  0
 12  6  1  0
 24 14  1  0
 23 19  1  0
  1 25  1  0
  1 26  1  0
  1 27  1  0
  7 28  1  0
 10 29  1  0
 11 30  1  0
 13 31  1  0
 13 32  1  0
 15 33  1  0
 15 34  1  0
 16 35  1  0
 16 36  1  0
 17 37  1  0
 17 38  1  0
 18 39  1  1
 20 40  1  0
 21 41  1  0
 22 42  1  0
 23 43  1  0
 24 44  1  0
 24 45  1  0
M  CHG  2   5  -1  23   1
M  END
>  <UniqueID>  (34) 
28

>  <SMILES>  (34) 
CS(=O)(=O)[N-]c1cc(Cl)ccc1CN1CCC[C@H](n2ccc[nH+]2)C1

>  <Energy>  (34) 
84.60567598571555

>  <Genealogy>  (34) 
CS(=O)(=O)[N-]c1cc(Cl)ccc1CN1CCCC(n2ccc[nH+]2)C1 (protonated)
CS(=O)(=O)[N-]c1cc(Cl)ccc1CN1CCC[C@H](n2ccc[nH+]2)C1 (chirality)
CS(=O)(=O)[N-]c1cc(Cl)ccc1CN1CCC[C@H](n2ccc[nH+]2)C1 (3D coordinates assigned)
CS(=O)(=O)[N-]c1cc(Cl)ccc1CN1CCC[C@H](n2ccc[nH+]2)C1 (nonaromatic ring conformer: 84.60567598571555 kcal/mol)

>  <smiles>  (34) 
CS(=O)(=O)Nc1cc(Cl)ccc1CN1CCCC(n2cccn2)C1

>  <score_type>  (34) 
oracle

>  <origin>  (34) 
adg

>  <m_score__min__energy>  (34) 
-7.7400000000000002

>  <m_primary>  (34) 
energy

$$$$
34:0
     RDKit          3D

 48 50  0  0  0  0  0  0  0  0999 V2000
   56.4650   29.9350   42.9010 C   0  0  0  0  0  0  0  0  0  0  0  0
   56.1830   29.9200   44.3730 C   0  0  0  0  0  0  0  0  0  0  0  0
   55.1390   29.3440   44.7800 O   0  0  0  0  0  0  0  0  0  0  0  0
   57.0210   30.5800   45.3340 N   0  0  0  0  0  0  0  0  0  0  0  0
   57.7230   31.6700   45.1900 C   0  0  0  0  0  0  0  0  0  0  0  0
   57.7920   32.6470   43.8180 S   0  0  0  0  0  0  0  0  0  0  0  0
   58.9330   33.6970   44.4720 C   0  0  0  0  0  0  0  0  0  0  0  0
   59.2410   33.2530   45.7570 C   0  0  0  0  0  0  0  0  0  0  0  0
   60.2330   33.9570   46.6350 C   0  0  0  0  0  0  0  0  0  0  0  0
   58.5690   32.1260   46.1470 N   0  0  0  0  0  0  0  0  0  0  0  0
   58.7550   31.4820   47.4180 C   0  0  0  0  0  0  0  0  0  0  0  0
   58.4810   32.1980   48.5880 C   0  0  0  0  0  0  0  0  0  0  0  0
   58.6700   31.6160   49.8450 C   0  0  0  0  0  0  0  0  0  0  0  0
   58.3730   32.3940   51.0250 C   0  0  0  0  0  0  0  0  0  0  0  0
   58.1350   33.0180   51.9700 N   0  0  0  0  0  0  0  0  0  0  0  0
   59.1490   30.2930   49.9420 C   0  0  0  0  0  0  0  0  0  0  0  0
   59.3700   29.6430   51.2820 C   0  0  0  0  0  0  0  0  0  0  0  0
   59.4230   29.5760   48.7660 C   0  0  0  0  0  0  0  0  0  0  0  0
   59.2170   30.1510   47.5040 C   0  0  0  0  0  0  0  0  0  0  0  0
   59.5540   29.1830   46.0600 S   0  0  0  0  0  0  0  0  0  0  0  0
   60.7750   28.3450   46.3240 O   0  0  0  0  0  0  0  0  0  0  0  0
   59.8140   30.0800   44.8830 O   0  0  0  0  0  0  0  0  0  0  0  0
   58.1810   28.1500   45.7170 N   0  0  0  0  0  0  0  0  0  0  0  0
   58.4920   27.1530   44.6680 C   0  0  0  0  0  0  0  0  0  0  0  0
   58.8100   25.7620   45.2440 C   0  0  0  0  0  0  0  0  0  0  0  0
   59.4540   25.8850   46.4920 O   0  0  0  0  0  0  0  0  0  0  0  0
   58.5510   26.3850   47.4630 C   0  0  0  0  0  0  0  0  0  0  0  0
   57.6460   27.5280   46.9420 C   0  0  0  0  0  0  0  0  0  0  0  0
   57.5511   29.9928   42.7363 H   0  0  0  0  0  0  0  0  0  0  0  0
   56.0732   29.0147   42.4432 H   0  0  0  0  0  0  0  0  0  0  0  0
   55.9777   30.8085   42.4432 H   0  0  0  0  0  0  0  0  0  0  0  0
   59.3608   34.5790   43.9730 H   0  0  0  0  0  0  0  0  0  0  0  0
   59.9805   33.7778   47.6905 H   0  0  0  0  0  0  0  0  0  0  0  0
   61.2428   33.5723   46.4291 H   0  0  0  0  0  0  0  0  0  0  0  0
   60.2032   35.0372   46.4291 H   0  0  0  0  0  0  0  0  0  0  0  0
   58.1122   33.2320   48.5182 H   0  0  0  0  0  0  0  0  0  0  0  0
   59.1267   30.3586   52.0812 H   0  0  0  0  0  0  0  0  0  0  0  0
   58.7220   28.7587   51.3719 H   0  0  0  0  0  0  0  0  0  0  0  0
   60.4227   29.3369   51.3719 H   0  0  0  0  0  0  0  0  0  0  0  0
   59.8053   28.5470   48.8361 H   0  0  0  0  0  0  0  0  0  0  0  0
   57.6244   27.0659   43.9974 H   0  0  0  0  0  0  0  0  0  0  0  0
   59.3872   27.5029   44.1331 H   0  0  0  0  0  0  0  0  0  0  0  0
   57.8734   25.1997   45.3728 H   0  0  0  0  0  0  0  0  0  0  0  0
   59.4760   25.2303   44.5485 H   0  0  0  0  0  0  0  0  0  0  0  0
   57.9076   25.5578   47.7973 H   0  0  0  0  0  0  0  0  0  0  0  0
   59.1571   26.8025   48.2805 H   0  0  0  0  0  0  0  0  0  0  0  0
   56.6486   27.1184   46.7244 H   0  0  0  0  0  0  0  0  0  0  0  0
   57.6002   28.3032   47.7211 H   0  0  0  0  0  0  0  0  0  0  0  0
  1  2  1  0
  2  3  2  0
  2  4  1  0
  4  5  2  3
  5  6  1  0
  6  7  1  0
  7  8  2  0
  8  9  1  0
  8 10  1  0
 10 11  1  0
 11 12  2  0
 12 13  1  0
 13 14  1  0
 14 15  3  0
 13 16  2  0
 16 17  1  0
 16 18  1  0
 18 19  2  0
 19 20  1  0
 20 21  2  0
 20 22  2  0
 20 23  1  0
 23 24  1  0
 24 25  1  0
 25 26  1  0
 26 27  1  0
 27 28  1  0
 10  5  1  0
 19 11  1  0
 28 23  1  0
  1 29  1  0
  1 30  1  0
  1 31  1  0
  7 32  1  0
  9 33  1  0
  9 34  1  0
  9 35  1  0
 12 36  1  0
 17 37  1  0
 17 38  1  0
 17 39  1  0
 18 40  1  0
 24 41  1  0
 24 42  1  0
 25 43  1  0
 25 44  1  0
 27 45  1  0
 27 46  1  0
 28 47  1  0
 28 48  1  0
M  END
>  <UniqueID>  (35) 
29

>  <SMILES>  (35) 
CC(=O)N=c1scc(C)n1-c1cc(C#N)c(C)cc1S(=O)(=O)N1CCOCC1

>  <Energy>  (35) 
100.41587926703916

>  <Genealogy>  (35) 
CC(=O)N=c1scc(C)n1-c1cc(C#N)c(C)cc1S(=O)(=O)N1CCOCC1 (3D coordinates assigned)
CC(=O)N=c1scc(C)n1-c1cc(C#N)c(C)cc1S(=O)(=O)N1CCOCC1 (nonaromatic ring conformer: 100.41587926703916 kcal/mol)

>  <smiles>  (35) 
CC(=O)N=c1scc(C)n1-c1cc(C#N)c(C)cc1S(=O)(=O)N1CCOCC1

>  <score_type>  (35) 
oracle

>  <origin>  (35) 
adg

>  <m_score__min__energy>  (35) 
-7.9900000000000002

>  <m_primary>  (35) 
energy

$$$$
35:0
     RDKit          3D

 65 68  0  0  0  0  0  0  0  0999 V2000
   54.6590   29.3470   45.4380 H   0  0  0  0  0  0  0  0  0  0  0  0
   55.1120   29.3470   44.4970 N   0  0  0  0  0  0  0  0  0  0  0  0
   56.8040   29.1020   44.7480 S   0  0  0  0  0  0  0  0  0  0  0  0
   57.4070   28.4420   43.5390 O   0  0  0  0  0  0  0  0  0  0  0  0
   56.9820   28.1970   45.9360 O   0  0  0  0  0  0  0  0  0  0  0  0
   57.6030   30.6540   45.0400 C   0  0  0  0  0  0  0  0  0  0  0  0
   57.0430   31.8230   44.4970 C   0  0  0  0  0  0  0  0  0  0  0  0
   56.1054   31.7632   43.9249 H   0  0  0  0  0  0  0  0  0  0  0  0
   57.6660   33.0600   44.6770 C   0  0  0  0  0  0  0  0  0  0  0  0
   57.2178   33.9684   44.2481 H   0  0  0  0  0  0  0  0  0  0  0  0
   58.8560   33.1450   45.4000 C   0  0  0  0  0  0  0  0  0  0  0  0
   59.3479   34.1194   45.5359 H   0  0  0  0  0  0  0  0  0  0  0  0
   59.4230   31.9950   45.9510 C   0  0  0  0  0  0  0  0  0  0  0  0
   60.3639   32.0670   46.5162 H   0  0  0  0  0  0  0  0  0  0  0  0
   58.8010   30.7470   45.7890 C   0  0  0  0  0  0  0  0  0  0  0  0
   59.4320   29.5630   46.4050 C   0  0  0  0  0  0  0  0  0  0  0  0
   59.8070   28.4690   45.6130 C   0  0  0  0  0  0  0  0  0  0  0  0
   59.6239   28.4871   44.5285 H   0  0  0  0  0  0  0  0  0  0  0  0
   60.4130   27.3560   46.2000 C   0  0  0  0  0  0  0  0  0  0  0  0
   60.7165   26.5035   45.5746 H   0  0  0  0  0  0  0  0  0  0  0  0
   60.6350   27.3220   47.5790 C   0  0  0  0  0  0  0  0  0  0  0  0
   61.1210   26.4461   48.0334 H   0  0  0  0  0  0  0  0  0  0  0  0
   60.2410   28.4000   48.3880 C   0  0  0  0  0  0  0  0  0  0  0  0
   60.4950   28.3890   49.8440 C   0  0  0  0  0  0  0  0  0  0  0  0
   61.1170   27.3680   50.5380 C   0  0  0  0  0  0  0  0  0  0  0  0
   61.5120   26.4446   50.0894 H   0  0  0  0  0  0  0  0  0  0  0  0
   61.1650   27.6780   51.8490 N   0  0  0  0  0  0  0  0  0  0  0  0
   60.5730   28.8900   51.9210 C   0  0  0  0  0  0  0  0  0  0  0  0
   60.4250   29.5520   53.0320 N   0  0  0  0  0  0  0  0  0  0  0  0
   60.5660   30.9770   53.1340 C   0  0  0  0  0  0  0  0  0  0  0  0
   59.5300   31.7280   53.7120 C   0  0  0  0  0  0  0  0  0  0  0  0
   58.0810   30.9410   54.3230 Cl  0  0  0  0  0  0  0  0  0  0  0  0
   59.6280   33.1190   53.7810 C   0  0  0  0  0  0  0  0  0  0  0  0
   58.8137   33.7039   54.2336 H   0  0  0  0  0  0  0  0  0  0  0  0
   60.7550   33.7700   53.2780 C   0  0  0  0  0  0  0  0  0  0  0  0
   60.8130   34.8678   53.3169 H   0  0  0  0  0  0  0  0  0  0  0  0
   61.8150   33.0370   52.7230 C   0  0  0  0  0  0  0  0  0  0  0  0
   63.0070   33.7710   52.1570 C   0  0  0  0  0  0  0  0  0  0  0  0
   63.1938   34.6756   52.7543 H   0  0  0  0  0  0  0  0  0  0  0  0
   63.8854   33.1098   52.1920 H   0  0  0  0  0  0  0  0  0  0  0  0
   62.7530   34.1520   50.7720 N   0  0  0  0  0  0  0  0  0  0  0  0
   63.3020   33.4600   49.6440 C   0  0  0  0  0  0  0  0  0  0  0  0
   64.5540   33.3290   49.5400 O   0  0  0  0  0  0  0  0  0  0  0  0
   62.3800   32.9720   48.5430 C   0  0  0  0  0  0  0  0  0  0  0  0
   62.3520   31.4300   48.5320 C   0  0  0  0  0  0  0  0  0  0  0  0
   62.3452   31.0560   49.5665 H   0  0  0  0  0  0  0  0  0  0  0  0
   61.4474   31.0834   48.0109 H   0  0  0  0  0  0  0  0  0  0  0  0
   63.2434   31.0508   48.0109 H   0  0  0  0  0  0  0  0  0  0  0  0
   60.9620   33.5090   48.8130 C   0  0  0  0  0  0  0  0  0  0  0  0
   60.7944   33.5725   49.8983 H   0  0  0  0  0  0  0  0  0  0  0  0
   60.8575   34.5090   48.3668 H   0  0  0  0  0  0  0  0  0  0  0  0
   60.2213   32.8291   48.3668 H   0  0  0  0  0  0  0  0  0  0  0  0
   62.8580   33.4690   47.1620 C   0  0  0  0  0  0  0  0  0  0  0  0
   63.6147   34.2558   47.2973 H   0  0  0  0  0  0  0  0  0  0  0  0
   63.2973   32.6301   46.6023 H   0  0  0  0  0  0  0  0  0  0  0  0
   62.0026   33.8753   46.6023 H   0  0  0  0  0  0  0  0  0  0  0  0
   61.7310   31.6280   52.6730 C   0  0  0  0  0  0  0  0  0  0  0  0
   63.0960   30.6710   52.0830 Cl  0  0  0  0  0  0  0  0  0  0  0  0
   60.1720   29.3630   50.7230 N   0  0  0  0  0  0  0  0  0  0  0  0
   59.5290   30.6510   50.4580 C   0  0  0  0  0  0  0  0  0  0  0  0
   59.2841   31.1416   51.4116 H   0  0  0  0  0  0  0  0  0  0  0  0
   60.2134   31.2908   49.8816 H   0  0  0  0  0  0  0  0  0  0  0  0
   58.6063   30.4885   49.8816 H   0  0  0  0  0  0  0  0  0  0  0  0
   59.6430   29.5230   47.7910 C   0  0  0  0  0  0  0  0  0  0  0  0
   59.3384   30.3762   48.4149 H   0  0  0  0  0  0  0  0  0  0  0  0
  1  2  1  0
  2  3  1  0
  3  4  2  0
  3  5  2  0
  3  6  1  0
  6  7  2  0
  7  8  1  0
  7  9  1  0
  9 10  1  0
  9 11  2  0
 11 12  1  0
 11 13  1  0
 13 14  1  0
 13 15  2  0
 15 16  1  0
 16 17  2  0
 17 18  1  0
 17 19  1  0
 19 20  1  0
 19 21  2  0
 21 22  1  0
 21 23  1  0
 23 24  1  0
 24 25  2  0
 25 26  1  0
 25 27  1  0
 27 28  1  0
 28 29  2  0
 29 30  1  0
 30 31  2  0
 31 32  1  0
 31 33  1  0
 33 34  1  0
 33 35  2  0
 35 36  1  0
 35 37  1  0
 37 38  1  0
 38 39  1  0
 38 40  1  0
 38 41  1  0
 41 42  1  0
 42 43  2  0
 42 44  1  0
 44 45  1  0
 45 46  1  0
 45 47  1  0
 45 48  1  0
 44 49  1  0
 49 50  1  0
 49 51  1  0
 49 52  1  0
 44 53  1  0
 53 54  1  0
 53 55  1  0
 53 56  1  0
 37 57  2  0
 57 58  1  0
 28 59  1  0
 59 60  1  0
 60 61  1  0
 60 62  1  0
 60 63  1  0
 23 64  2  0
 64 65  1  0
 15  6  1  0
 64 16  1  0
 59 24  1  0
 57 30  1  0
M  CHG  3   2  -1  27  -1  41  -1
M  END
>  <UniqueID>  (36) 
30

>  <SMILES>  (36) 
Cn1c(-c2cccc(-c3ccccc3S([NH-])(=O)=O)c2)c[n-]/c1=N\c1c(Cl)ccc(C[N-]C(=O)C(C)(C)C)c1Cl

>  <Energy>  (36) 
114.50013166634683

>  <Genealogy>  (36) 
Cn1c(-c2cccc(-c3ccccc3S([NH-])(=O)=O)c2)c[n-]c1=Nc1c(Cl)ccc(C[N-]C(=O)C(C)(C)C)c1Cl (protonated)
Cn1c(-c2cccc(-c3ccccc3S([NH-])(=O)=O)c2)c[n-]/c1=N\c1c(Cl)ccc(C[N-]C(=O)C(C)(C)C)c1Cl (cis-trans isomerization)
Cn1c(-c2cccc(-c3ccccc3S([NH-])(=O)=O)c2)c[n-]/c1=N\c1c(Cl)ccc(C[N-]C(=O)C(C)(C)C)c1Cl (3D coordinates assigned)
Cn1c(-c2cccc(-c3ccccc3S([NH-])(=O)=O)c2)c[n-]/c1=N\c1c(Cl)ccc(C[N-]C(=O)C(C)(C)C)c1Cl (optimized conformer: 114.50013166634683 kcal/mol)

>  <smiles>  (36) 
Cn1c(-c2cccc(-c3ccccc3S(N)(=O)=O)c2)c[nH]c1=Nc1c(Cl)ccc(CNC(=O)C(C)(C)C)c1Cl

>  <score_type>  (36) 
oracle

>  <origin>  (36) 
adg

>  <m_score__min__energy>  (36) 
-15.550000000000001

>  <m_primary>  (36) 
energy

$$$$
36:0
     RDKit          3D

 67 71  0  0  1  0  0  0  0  0999 V2000
   63.6080   33.2230   51.4680 C   0  0  0  0  0  0  0  0  0  0  0  0
   62.8680   34.1450   50.7570 C   0  0  0  0  0  0  0  0  0  0  0  0
   62.9310   34.1680   49.3760 C   0  0  0  0  0  0  0  0  0  0  0  0
   63.7440   33.2540   48.7130 C   0  0  0  0  0  0  0  0  0  0  0  0
   63.7710   33.3270   47.2250 C   0  0  0  0  0  0  0  0  0  0  0  0
   62.5260   33.8400   46.7000 N   0  0  0  0  0  0  0  0  0  0  0  0
   61.4540   33.1310   46.7380 C   0  0  0  0  0  0  0  0  0  0  0  0
   61.6300   31.7820   46.7880 N   0  0  0  0  0  0  0  0  0  0  0  0
   60.5480   30.9790   46.8290 C   0  0  0  0  0  0  0  0  0  0  0  0
   60.6680   29.6030   46.8800 O   0  0  0  0  0  0  0  0  0  0  0  0
   59.7100   28.8420   47.5480 C   0  0  0  0  0  0  0  0  0  0  0  0
   58.7870   28.1410   46.5870 C   0  0  0  0  0  0  0  0  0  0  0  0
   58.1230   26.9290   47.2570 C   0  0  0  0  0  0  0  0  0  0  0  0
   57.0000   26.5420   46.3130 C   0  0  0  0  0  0  0  0  0  0  0  0
   57.6470   26.0910   45.0730 N   0  0  0  0  0  0  0  0  0  0  0  0
   57.5480   24.7660   44.5940 C   0  0  0  0  0  0  0  0  0  0  0  0
   58.2860   23.7110   45.1140 C   0  0  0  0  0  0  0  0  0  0  0  0
   58.1660   22.4150   44.6340 C   0  0  0  0  0  0  0  0  0  0  0  0
   57.2990   22.1610   43.6200 N   0  0  0  0  0  0  0  0  0  0  0  0
   56.5650   23.1360   43.0830 C   0  0  0  0  0  0  0  0  0  0  0  0
   56.6830   24.4420   43.5640 C   0  0  0  0  0  0  0  0  0  0  0  0
   58.4080   27.1370   44.3910 C   0  0  0  0  0  0  0  0  0  0  0  0
   59.4830   27.6620   45.3520 C   0  0  0  0  0  0  0  0  0  0  0  0
   59.3010   31.5400   46.8200 C   0  0  0  0  0  0  0  0  0  0  0  0
   59.1380   32.9230   46.7670 C   0  0  0  0  0  0  0  0  0  0  0  0
   57.9380   33.3960   46.7610 N   0  0  0  0  0  0  0  0  0  0  0  0
   57.3880   33.8730   45.5130 C   0  0  0  0  0  0  0  0  0  0  0  0
   57.2680   32.6630   44.6250 C   0  0  0  0  0  0  0  0  0  0  0  0
   57.7680   32.6820   43.3490 C   0  0  0  0  0  0  0  0  0  0  0  0
   57.6540   31.5650   42.5360 C   0  0  0  0  0  0  0  0  0  0  0  0
   57.0260   30.4230   43.0340 C   0  0  0  0  0  0  0  0  0  0  0  0
   56.5330   30.4470   44.3350 C   0  0  0  0  0  0  0  0  0  0  0  0
   56.6620   31.5620   45.1040 N   0  0  0  0  0  0  0  0  0  0  0  0
   60.2420   33.6870   46.7280 N   0  0  0  0  0  0  0  0  0  0  0  0
   64.4960   32.3200   49.4120 C   0  0  0  0  0  0  0  0  0  0  0  0
   64.4090   32.3270   50.7910 C   0  0  0  0  0  0  0  0  0  0  0  0
   63.5596   33.2025   52.5667 H   0  0  0  0  0  0  0  0  0  0  0  0
   62.2269   34.8629   51.2896 H   0  0  0  0  0  0  0  0  0  0  0  0
   62.3433   34.9028   48.8062 H   0  0  0  0  0  0  0  0  0  0  0  0
   64.5912   33.9907   46.9140 H   0  0  0  0  0  0  0  0  0  0  0  0
   63.9206   32.3109   46.8310 H   0  0  0  0  0  0  0  0  0  0  0  0
   62.6000   31.3680   46.7950 H   0  0  0  0  0  0  0  0  0  0  0  0
   60.2205   28.0886   48.1659 H   0  0  0  0  0  0  0  0  0  0  0  0
   59.1070   29.5193   48.1706 H   0  0  0  0  0  0  0  0  0  0  0  0
   58.0354   28.8900   46.2970 H   0  0  0  0  0  0  0  0  0  0  0  0
   58.8412   26.1031   47.3663 H   0  0  0  0  0  0  0  0  0  0  0  0
   57.7587   27.1578   48.2694 H   0  0  0  0  0  0  0  0  0  0  0  0
   56.3991   25.7295   46.7474 H   0  0  0  0  0  0  0  0  0  0  0  0
   56.3215   27.3877   46.1276 H   0  0  0  0  0  0  0  0  0  0  0  0
   58.9904   23.9098   45.9352 H   0  0  0  0  0  0  0  0  0  0  0  0
   58.7661   21.6025   45.0696 H   0  0  0  0  0  0  0  0  0  0  0  0
   55.8675   22.9122   42.2624 H   0  0  0  0  0  0  0  0  0  0  0  0
   56.0707   25.2356   43.1109 H   0  0  0  0  0  0  0  0  0  0  0  0
   58.8855   26.7217   43.4912 H   0  0  0  0  0  0  0  0  0  0  0  0
   57.7378   27.9561   44.0913 H   0  0  0  0  0  0  0  0  0  0  0  0
   60.1860   26.8551   45.6061 H   0  0  0  0  0  0  0  0  0  0  0  0
   60.0528   28.4797   44.8865 H   0  0  0  0  0  0  0  0  0  0  0  0
   58.4140   30.8904   46.8551 H   0  0  0  0  0  0  0  0  0  0  0  0
   56.3991   34.3253   45.6788 H   0  0  0  0  0  0  0  0  0  0  0  0
   58.0269   34.6449   45.0592 H   0  0  0  0  0  0  0  0  0  0  0  0
   58.2621   33.5880   42.9682 H   0  0  0  0  0  0  0  0  0  0  0  0
   58.0536   31.5788   41.5112 H   0  0  0  0  0  0  0  0  0  0  0  0
   56.9227   29.5223   42.4111 H   0  0  0  0  0  0  0  0  0  0  0  0
   56.0345   29.5565   44.7455 H   0  0  0  0  0  0  0  0  0  0  0  0
   60.1330   34.7060   46.6890 H   0  0  0  0  0  0  0  0  0  0  0  0
   65.1392   31.5990   48.8862 H   0  0  0  0  0  0  0  0  0  0  0  0
   64.9962   31.5960   51.3663 H   0  0  0  0  0  0  0  0  0  0  0  0
  1  2  2  0
  2  3  1  0
  3  4  2  0
  4  5  1  0
  5  6  1  0
  6  7  2  0
  7  8  1  0
  8  9  1  0
  9 10  1  0
 10 11  1  0
 11 12  1  0
 12 13  1  0
 13 14  1  0
 14 15  1  0
 15 16  1  0
 16 17  2  0
 17 18  1  0
 18 19  2  0
 19 20  1  0
 20 21  2  0
 15 22  1  0
 22 23  1  0
  9 24  2  0
 24 25  1  0
 25 26  2  0
 26 27  1  0
 27 28  1  0
 28 29  2  0
 29 30  1  0
 30 31  2  0
 31 32  1  0
 32 33  2  0
 25 34  1  0
  4 35  1  0
 35 36  2  0
 36  1  1  0
 34  7  1  0
 23 12  1  0
 33 28  1  0
 21 16  1  0
  1 37  1  0
  2 38  1  0
  3 39  1  0
  5 40  1  0
  5 41  1  0
  8 42  1  0
 11 43  1  0
 11 44  1  0
 12 45  1  0
 13 46  1  0
 13 47  1  0
 14 48  1  0
 14 49  1  0
 17 50  1  0
 18 51  1  0
 20 52  1  0
 21 53  1  0
 22 54  1  0
 22 55  1  0
 23 56  1  0
 23 57  1  0
 24 58  1  0
 27 59  1  0
 27 60  1  0
 29 61  1  0
 30 62  1  0
 31 63  1  0
 32 64  1  0
 34 65  1  0
 35 66  1  0
 36 67  1  0
M  END
>  <smiles>  (37) 
c1ccc(CN=c2[nH]c(OCC3CCN(c4ccncc4)CC3)cc(=NCc3ccccn3)[nH]2)cc1

>  <score_type>  (37) 
oracle

>  <origin>  (37) 
adg

>  <m_score__min__energy>  (37) 
-9.9199999999999999

>  <m_primary>  (37) 
energy

$$$$
37:0
     RDKit          3D

 29 30  0  0  0  0  0  0  0  0999 V2000
   54.8620   26.3370   45.9830 N   0  0  0  0  0  0  0  0  0  0  0  0
   56.2390   25.3180   46.2080 S   0  0  0  0  0  0  0  0  0  0  0  0
   56.0630   24.5050   47.4600 O   0  0  0  0  0  0  0  0  0  0  0  0
   56.3630   24.3820   45.0400 O   0  0  0  0  0  0  0  0  0  0  0  0
   57.6890   26.3080   46.3400 C   0  0  0  0  0  0  0  0  0  0  0  0
   58.9570   25.7200   46.2520 C   0  0  0  0  0  0  0  0  0  0  0  0
   60.1050   26.5090   46.3580 C   0  0  0  0  0  0  0  0  0  0  0  0
   59.9950   27.8910   46.5360 C   0  0  0  0  0  0  0  0  0  0  0  0
   58.7260   28.4960   46.5920 C   0  0  0  0  0  0  0  0  0  0  0  0
   58.5640   29.9080   46.7920 N   0  0  0  0  0  0  0  0  0  0  0  0
   57.8970   30.8280   45.9180 C   0  0  0  0  0  0  0  0  0  0  0  0
   56.9080   30.4460   45.2360 O   0  0  0  0  0  0  0  0  0  0  0  0
   58.3540   32.2350   45.8120 C   0  0  0  0  0  0  0  0  0  0  0  0
   58.7470   32.9040   46.9890 C   0  0  0  0  0  0  0  0  0  0  0  0
   59.1660   34.2360   46.9470 C   0  0  0  0  0  0  0  0  0  0  0  0
   59.2070   34.9190   45.7330 C   0  0  0  0  0  0  0  0  0  0  0  0
   58.8360   34.2700   44.5550 C   0  0  0  0  0  0  0  0  0  0  0  0
   58.4140   32.9340   44.5790 C   0  0  0  0  0  0  0  0  0  0  0  0
   58.0450   32.1760   43.0320 Cl  0  0  0  0  0  0  0  0  0  0  0  0
   57.5800   27.6960   46.5120 C   0  0  0  0  0  0  0  0  0  0  0  0
   55.1410   27.0790   45.3020 H   0  0  0  0  0  0  0  0  0  0  0  0
   59.0492   24.6346   46.0991 H   0  0  0  0  0  0  0  0  0  0  0  0
   61.0989   26.0411   46.3012 H   0  0  0  0  0  0  0  0  0  0  0  0
   60.9017   28.5063   46.6324 H   0  0  0  0  0  0  0  0  0  0  0  0
   58.7235   32.3713   47.9511 H   0  0  0  0  0  0  0  0  0  0  0  0
   59.4643   34.7469   47.8744 H   0  0  0  0  0  0  0  0  0  0  0  0
   59.5318   35.9695   45.7035 H   0  0  0  0  0  0  0  0  0  0  0  0
   58.8751   34.8120   43.5986 H   0  0  0  0  0  0  0  0  0  0  0  0
   56.5852   28.1598   46.5847 H   0  0  0  0  0  0  0  0  0  0  0  0
  1  2  1  0
  2  3  2  0
  2  4  2  0
  2  5  1  0
  5  6  2  0
  6  7  1  0
  7  8  2  0
  8  9  1  0
  9 10  1  0
 10 11  1  0
 11 12  2  0
 11 13  1  0
 13 14  2  0
 14 15  1  0
 15 16  2  0
 16 17  1  0
 17 18  2  0
 18 19  1  0
  9 20  2  0
 20  5  1  0
 18 13  1  0
  1 21  1  0
  6 22  1  0
  7 23  1  0
  8 24  1  0
 14 25  1  0
 15 26  1  0
 16 27  1  0
 17 28  1  0
 20 29  1  0
M  CHG  2   1  -1  10  -1
M  END
>  <UniqueID>  (38) 
31

>  <SMILES>  (38) 
[NH-]S(=O)(=O)c1cccc([N-]C(=O)c2ccccc2Cl)c1

>  <Energy>  (38) 
38.09069979255572

>  <Genealogy>  (38) 
[NH-]S(=O)(=O)c1cccc([N-]C(=O)c2ccccc2Cl)c1 (protonated)
[NH-]S(=O)(=O)c1cccc([N-]C(=O)c2ccccc2Cl)c1 (3D coordinates assigned)
[NH-]S(=O)(=O)c1cccc([N-]C(=O)c2ccccc2Cl)c1 (optimized conformer: 38.09069979255572 kcal/mol)

>  <smiles>  (38) 
NS(=O)(=O)c1cccc(NC(=O)c2ccccc2Cl)c1

>  <score_type>  (38) 
oracle

>  <origin>  (38) 
adg

>  <m_score__min__energy>  (38) 
-12.27

>  <m_primary>  (38) 
energy

$$$$
38:0
     RDKit          3D

 61 63  0  0  0  0  0  0  0  0999 V2000
   56.9350   20.0380   45.7160 C   0  0  0  0  0  0  0  0  0  0  0  0
   56.0560   19.9180   44.4760 C   0  0  0  0  0  0  0  0  0  0  0  0
   56.1930   21.0690   43.6490 O   0  0  0  0  0  0  0  0  0  0  0  0
   56.8390   22.2440   44.0540 C   0  0  0  0  0  0  0  0  0  0  0  0
   58.0670   22.4130   43.8210 O   0  0  0  0  0  0  0  0  0  0  0  0
   56.0630   23.3150   44.7630 C   0  0  2  0  0  0  0  0  0  0  0  0
   54.8390   23.7160   43.9430 C   0  0  0  0  0  0  0  0  0  0  0  0
   56.9250   24.4790   44.9760 N   0  0  0  0  0  0  0  0  0  0  0  0
   56.4750   25.6580   45.6690 C   0  0  0  0  0  0  0  0  0  0  0  0
   55.2820   25.7330   46.0750 O   0  0  0  0  0  0  0  0  0  0  0  0
   57.4060   26.7780   45.9490 C   0  0  0  0  0  0  0  0  0  0  0  0
   58.3350   26.6710   46.9990 C   0  0  0  0  0  0  0  0  0  0  0  0
   59.2760   27.6810   47.2180 C   0  0  0  0  0  0  0  0  0  0  0  0
   59.2860   28.8260   46.4100 C   0  0  0  0  0  0  0  0  0  0  0  0
   60.3070   29.9050   46.6250 C   0  0  0  0  0  0  0  0  0  0  0  0
   60.2070   30.4380   47.9920 N   0  0  0  0  0  0  0  0  0  0  0  0
   58.9020   30.8490   48.5330 C   0  0  0  0  0  0  0  0  0  0  0  0
   58.7960   32.3680   48.7370 C   0  0  0  0  0  0  0  0  0  0  0  0
   58.7900   33.1330   47.4360 C   0  0  0  0  0  0  0  0  0  0  0  0
   57.9510   32.7260   46.3820 C   0  0  0  0  0  0  0  0  0  0  0  0
   57.9800   33.4020   45.1590 C   0  0  0  0  0  0  0  0  0  0  0  0
   58.8280   34.4970   44.9810 C   0  0  0  0  0  0  0  0  0  0  0  0
   59.6560   34.9160   46.0250 C   0  0  0  0  0  0  0  0  0  0  0  0
   59.6450   34.2350   47.2480 C   0  0  0  0  0  0  0  0  0  0  0  0
   61.4120   30.7810   48.7000 C   0  0  0  0  0  0  0  0  0  0  0  0
   61.7610   30.0910   49.7020 O   0  0  0  0  0  0  0  0  0  0  0  0
   62.2520   31.9080   48.2590 C   0  0  0  0  0  0  0  0  0  0  0  0
   63.0830   31.9250   47.1410 C   0  0  0  0  0  0  0  0  0  0  0  0
   63.7680   33.1360   46.9780 C   0  0  0  0  0  0  0  0  0  0  0  0
   63.4870   34.0680   47.9710 C   0  0  0  0  0  0  0  0  0  0  0  0
   62.3940   33.3860   49.0510 S   0  0  0  0  0  0  0  0  0  0  0  0
   58.3370   28.9560   45.3880 C   0  0  0  0  0  0  0  0  0  0  0  0
   57.4030   27.9420   45.1580 C   0  0  0  0  0  0  0  0  0  0  0  0
   56.3107   19.9528   46.6176 H   0  0  0  0  0  0  0  0  0  0  0  0
   57.6857   19.2340   45.7125 H   0  0  0  0  0  0  0  0  0  0  0  0
   57.4428   21.0138   45.7125 H   0  0  0  0  0  0  0  0  0  0  0  0
   56.3554   19.0261   43.9060 H   0  0  0  0  0  0  0  0  0  0  0  0
   55.0062   19.8333   44.7934 H   0  0  0  0  0  0  0  0  0  0  0  0
   55.7209   22.9283   45.7343 H   0  0  0  0  0  0  0  0  0  0  0  0
   54.0158   23.9857   44.6209 H   0  0  0  0  0  0  0  0  0  0  0  0
   55.0893   24.5791   43.3087 H   0  0  0  0  0  0  0  0  0  0  0  0
   54.5301   22.8721   43.3087 H   0  0  0  0  0  0  0  0  0  0  0  0
   57.9490   24.3460   44.8240 H   0  0  0  0  0  0  0  0  0  0  0  0
   58.3211   25.7863   47.6526 H   0  0  0  0  0  0  0  0  0  0  0  0
   60.0123   27.5766   48.0285 H   0  0  0  0  0  0  0  0  0  0  0  0
   61.3132   29.4882   46.4708 H   0  0  0  0  0  0  0  0  0  0  0  0
   60.1225   30.7196   45.9092 H   0  0  0  0  0  0  0  0  0  0  0  0
   58.1152   30.5323   47.8325 H   0  0  0  0  0  0  0  0  0  0  0  0
   58.7859   30.3728   49.5178 H   0  0  0  0  0  0  0  0  0  0  0  0
   57.8630   32.5859   49.2773 H   0  0  0  0  0  0  0  0  0  0  0  0
   59.6811   32.6887   49.3061 H   0  0  0  0  0  0  0  0  0  0  0  0
   57.2703   31.8732   46.5211 H   0  0  0  0  0  0  0  0  0  0  0  0
   57.3326   33.0703   44.3339 H   0  0  0  0  0  0  0  0  0  0  0  0
   58.8440   35.0296   44.0187 H   0  0  0  0  0  0  0  0  0  0  0  0
   60.3183   35.7832   45.8858 H   0  0  0  0  0  0  0  0  0  0  0  0
   60.3062   34.5620   48.0640 H   0  0  0  0  0  0  0  0  0  0  0  0
   63.1906   31.0723   46.4545 H   0  0  0  0  0  0  0  0  0  0  0  0
   64.4605   33.3307   46.1458 H   0  0  0  0  0  0  0  0  0  0  0  0
   63.9091   35.0815   48.0385 H   0  0  0  0  0  0  0  0  0  0  0  0
   58.3268   29.8611   44.7630 H   0  0  0  0  0  0  0  0  0  0  0  0
   56.6610   28.0545   44.3538 H   0  0  0  0  0  0  0  0  0  0  0  0
  1  2  1  0
  2  3  1  0
  3  4  1  0
  4  5  2  0
  4  6  1  0
  6  7  1  0
  6  8  1  0
  8  9  1  0
  9 10  2  0
  9 11  1  0
 11 12  2  0
 12 13  1  0
 13 14  2  0
 14 15  1  0
 15 16  1  0
 16 17  1  0
 17 18  1  0
 18 19  1  0
 19 20  2  0
 20 21  1  0
 21 22  2  0
 22 23  1  0
 23 24  2  0
 16 25  1  0
 25 26  2  0
 25 27  1  0
 27 28  2  0
 28 29  1  0
 29 30  2  0
 30 31  1  0
 14 32  1  0
 32 33  2  0
 33 11  1  0
 24 19  1  0
 31 27  1  0
  1 34  1  0
  1 35  1  0
  1 36  1  0
  2 37  1  0
  2 38  1  0
  6 39  1  1
  7 40  1  0
  7 41  1  0
  7 42  1  0
  8 43  1  0
 12 44  1  0
 13 45  1  0
 15 46  1  0
 15 47  1  0
 17 48  1  0
 17 49  1  0
 18 50  1  0
 18 51  1  0
 20 52  1  0
 21 53  1  0
 22 54  1  0
 23 55  1  0
 24 56  1  0
 28 57  1  0
 29 58  1  0
 30 59  1  0
 32 60  1  0
 33 61  1  0
M  END
>  <UniqueID>  (39) 
32

>  <SMILES>  (39) 
CCOC(=O)[C@H](C)NC(=O)c1ccc(CN(CCc2ccccc2)C(=O)c2cccs2)cc1

>  <Energy>  (39) 
77.12636573105286

>  <Genealogy>  (39) 
CCOC(=O)[C@H](C)NC(=O)c1ccc(CN(CCc2ccccc2)C(=O)c2cccs2)cc1 (chirality)
CCOC(=O)[C@H](C)NC(=O)c1ccc(CN(CCc2ccccc2)C(=O)c2cccs2)cc1 (3D coordinates assigned)
CCOC(=O)[C@H](C)NC(=O)c1ccc(CN(CCc2ccccc2)C(=O)c2cccs2)cc1 (optimized conformer: 77.12636573105286 kcal/mol)

>  <smiles>  (39) 
CCOC(=O)C(C)NC(=O)c1ccc(CN(CCc2ccccc2)C(=O)c2cccs2)cc1

>  <score_type>  (39) 
oracle

>  <origin>  (39) 
adg

>  <m_score__min__energy>  (39) 
-8.9199999999999999

>  <m_primary>  (39) 
energy

$$$$
39:0
     RDKit          3D

 40 43  0  0  0  0  0  0  0  0999 V2000
   56.6380   30.1430   42.7880 C   0  0  0  0  0  0  0  0  0  0  0  0
   56.3650   29.9840   44.2490 C   0  0  0  0  0  0  0  0  0  0  0  0
   55.2440   29.5410   44.6220 O   0  0  0  0  0  0  0  0  0  0  0  0
   57.3950   30.2480   45.2200 N   0  0  0  0  0  0  0  0  0  0  0  0
   57.8150   29.1290   46.0800 C   0  0  0  0  0  0  0  0  0  0  0  0
   59.1790   29.4040   46.7140 C   0  0  0  0  0  0  0  0  0  0  0  0
   59.1860   30.6920   47.3190 O   0  0  0  0  0  0  0  0  0  0  0  0
   58.6570   31.8010   46.6540 C   0  0  0  0  0  0  0  0  0  0  0  0
   59.0060   33.1020   47.0620 C   0  0  0  0  0  0  0  0  0  0  0  0
   59.9040   33.3170   48.2200 C   0  0  0  0  0  0  0  0  0  0  0  0
   59.3230   33.4610   49.4880 C   0  0  0  0  0  0  0  0  0  0  0  0
   60.1160   33.6280   50.6210 C   0  0  0  0  0  0  0  0  0  0  0  0
   61.5070   33.6600   50.5120 C   0  0  0  0  0  0  0  0  0  0  0  0
   62.2700   33.8210   51.6640 O   0  0  0  0  0  0  0  0  0  0  0  0
   62.1200   33.5330   49.2500 C   0  0  0  0  0  0  0  0  0  0  0  0
   63.5210   33.5750   49.1270 C   0  0  0  0  0  0  0  0  0  0  0  0
   64.1230   33.4680   47.8730 C   0  0  0  0  0  0  0  0  0  0  0  0
   63.3400   33.3250   46.7280 C   0  0  0  0  0  0  0  0  0  0  0  0
   61.9490   33.2800   46.8290 C   0  0  0  0  0  0  0  0  0  0  0  0
   61.3160   33.3680   48.0880 C   0  0  0  0  0  0  0  0  0  0  0  0
   58.4970   34.2040   46.3640 C   0  0  0  0  0  0  0  0  0  0  0  0
   57.6740   34.0140   45.2530 C   0  0  0  0  0  0  0  0  0  0  0  0
   57.3230   32.7240   44.8500 C   0  0  0  0  0  0  0  0  0  0  0  0
   57.7810   31.6010   45.5690 C   0  0  0  0  0  0  0  0  0  0  0  0
   57.5809   30.6922   42.6488 H   0  0  0  0  0  0  0  0  0  0  0  0
   56.7190   29.1508   42.3200 H   0  0  0  0  0  0  0  0  0  0  0  0
   55.8150   30.7030   42.3200 H   0  0  0  0  0  0  0  0  0  0  0  0
   57.0699   28.9892   46.8771 H   0  0  0  0  0  0  0  0  0  0  0  0
   57.8936   28.2230   45.4611 H   0  0  0  0  0  0  0  0  0  0  0  0
   59.3849   28.6413   47.4794 H   0  0  0  0  0  0  0  0  0  0  0  0
   59.9529   29.3687   45.9330 H   0  0  0  0  0  0  0  0  0  0  0  0
   58.2278   33.4419   49.5893 H   0  0  0  0  0  0  0  0  0  0  0  0
   59.6427   33.7354   51.6082 H   0  0  0  0  0  0  0  0  0  0  0  0
   64.1454   33.6929   50.0249 H   0  0  0  0  0  0  0  0  0  0  0  0
   65.2193   33.4965   47.7872 H   0  0  0  0  0  0  0  0  0  0  0  0
   63.8206   33.2474   45.7416 H   0  0  0  0  0  0  0  0  0  0  0  0
   61.3398   33.1750   45.9191 H   0  0  0  0  0  0  0  0  0  0  0  0
   58.7468   35.2236   46.6927 H   0  0  0  0  0  0  0  0  0  0  0  0
   57.3004   34.8838   44.6927 H   0  0  0  0  0  0  0  0  0  0  0  0
   56.6847   32.5829   43.9653 H   0  0  0  0  0  0  0  0  0  0  0  0
  1  2  1  0
  2  3  2  0
  2  4  1  0
  4  5  1  0
  5  6  1  0
  6  7  1  0
  7  8  1  0
  8  9  2  0
  9 10  1  0
 10 11  2  0
 11 12  1  0
 12 13  2  0
 13 14  1  0
 13 15  1  0
 15 16  2  0
 16 17  1  0
 17 18  2  0
 18 19  1  0
 19 20  2  0
  9 21  1  0
 21 22  2  0
 22 23  1  0
 23 24  2  0
 24  4  1  0
 24  8  1  0
 20 10  1  0
 20 15  1  0
  1 25  1  0
  1 26  1  0
  1 27  1  0
  5 28  1  0
  5 29  1  0
  6 30  1  0
  6 31  1  0
 11 32  1  0
 12 33  1  0
 16 34  1  0
 17 35  1  0
 18 36  1  0
 19 37  1  0
 21 38  1  0
 22 39  1  0
 23 40  1  0
M  CHG  1  14  -1
M  END
>  <UniqueID>  (40) 
33

>  <SMILES>  (40) 
CC(=O)N1CCOc2c(-c3ccc([O-])c4ccccc34)cccc21

>  <Energy>  (40) 
63.421487159537826

>  <Genealogy>  (40) 
CC(=O)N1CCOc2c(-c3ccc([O-])c4ccccc34)cccc21 (protonated)
CC(=O)N1CCOc2c(-c3ccc([O-])c4ccccc34)cccc21 (3D coordinates assigned)
CC(=O)N1CCOc2c(-c3ccc([O-])c4ccccc34)cccc21 (nonaromatic ring conformer: 63.421487159537826 kcal/mol)

>  <smiles>  (40) 
CC(=O)N1CCOc2c(-c3ccc(O)c4ccccc34)cccc21

>  <score_type>  (40) 
oracle

>  <origin>  (40) 
adg

>  <m_score__min__energy>  (40) 
-10.09

>  <m_primary>  (40) 
energy

$$$$
40:0
     RDKit          3D

 37 38  0  0  0  0  0  0  0  0999 V2000
   55.7900   29.7150   45.9850 H   0  0  0  0  0  0  0  0  0  0  0  0
   55.2400   29.5370   45.1780 O   0  0  0  0  0  0  0  0  0  0  0  0
   55.8990   30.1490   44.1010 C   0  0  0  0  0  0  0  0  0  0  0  0
   56.5976   30.9048   44.4893 H   0  0  0  0  0  0  0  0  0  0  0  0
   55.1462   30.6181   43.4504 H   0  0  0  0  0  0  0  0  0  0  0  0
   56.6820   29.1180   43.2780 C   0  0  0  0  0  0  0  0  0  0  0  0
   57.1443   29.6294   42.4208 H   0  0  0  0  0  0  0  0  0  0  0  0
   55.9723   28.3426   42.9538 H   0  0  0  0  0  0  0  0  0  0  0  0
   57.7820   28.4290   44.0890 C   0  0  0  0  0  0  0  0  0  0  0  0
   58.7489   28.9042   43.8668 H   0  0  0  0  0  0  0  0  0  0  0  0
   57.8152   27.3639   43.8160 H   0  0  0  0  0  0  0  0  0  0  0  0
   57.5040   28.5460   45.5190 N   0  0  0  0  0  0  0  0  0  0  0  0
   58.0880   29.3960   46.3140 C   0  0  0  0  0  0  0  0  0  0  0  0
   57.8070   30.7330   46.2000 N   0  0  0  0  0  0  0  0  0  0  0  0
   58.4120   31.5960   47.0430 C   0  0  0  0  0  0  0  0  0  0  0  0
   59.2750   31.1930   47.9970 C   0  0  0  0  0  0  0  0  0  0  0  0
   59.7330   32.2470   48.7030 N   0  0  0  0  0  0  0  0  0  0  0  0
   59.0920   33.2890   48.1090 C   0  0  0  0  0  0  0  0  0  0  0  0
   59.2550   34.4840   48.4730 O   0  0  0  0  0  0  0  0  0  0  0  0
   58.2690   32.9270   47.0910 N   0  0  0  0  0  0  0  0  0  0  0  0
   57.4620   33.7810   46.2170 C   0  0  0  0  0  0  0  0  0  0  0  0
   57.2613   34.7327   46.7307 H   0  0  0  0  0  0  0  0  0  0  0  0
   56.5215   33.2578   45.9897 H   0  0  0  0  0  0  0  0  0  0  0  0
   58.1900   34.0680   44.8980 C   0  0  0  0  0  0  0  0  0  0  0  0
   59.2608   34.2072   45.1076 H   0  0  0  0  0  0  0  0  0  0  0  0
   57.7467   34.9736   44.4582 H   0  0  0  0  0  0  0  0  0  0  0  0
   58.0300   32.9320   43.8910 C   0  0  0  0  0  0  0  0  0  0  0  0
   57.8961   31.9817   44.4285 H   0  0  0  0  0  0  0  0  0  0  0  0
   57.1499   33.1231   43.2594 H   0  0  0  0  0  0  0  0  0  0  0  0
   58.9286   32.8726   43.2594 H   0  0  0  0  0  0  0  0  0  0  0  0
   59.5770   29.8480   48.1370 C   0  0  0  0  0  0  0  0  0  0  0  0
   60.3720   29.4700   49.0420 O   0  0  0  0  0  0  0  0  0  0  0  0
   58.9890   28.9490   47.2710 N   0  0  0  0  0  0  0  0  0  0  0  0
   59.2680   27.5080   47.4030 C   0  0  0  0  0  0  0  0  0  0  0  0
   59.3198   27.2407   48.4688 H   0  0  0  0  0  0  0  0  0  0  0  0
   58.4645   26.9331   46.9194 H   0  0  0  0  0  0  0  0  0  0  0  0
   60.2280   27.2746   46.9194 H   0  0  0  0  0  0  0  0  0  0  0  0
  1  2  1  0
  2  3  1  0
  3  4  1  0
  3  5  1  0
  3  6  1  0
  6  7  1  0
  6  8  1  0
  6  9  1  0
  9 10  1  0
  9 11  1  0
  9 12  1  0
 12 13  2  0
 13 14  1  0
 14 15  1  0
 15 16  2  0
 16 17  1  0
 17 18  1  0
 18 19  2  0
 18 20  1  0
 20 21  1  0
 21 22  1  0
 21 23  1  0
 21 24  1  0
 24 25  1  0
 24 26  1  0
 24 27  1  0
 27 28  1  0
 27 29  1  0
 27 30  1  0
 16 31  1  0
 31 32  2  0
 31 33  1  0
 33 34  1  0
 34 35  1  0
 34 36  1  0
 34 37  1  0
 33 13  1  0
 20 15  1  0
M  CHG  2  14  -1  17  -1
M  END
>  <UniqueID>  (41) 
34

>  <SMILES>  (41) 
CCCn1c(=O)[n-]c2c(=O)n(C)/c(=N/CCCO)[n-]c21

>  <Energy>  (41) 
71.28277372315308

>  <Genealogy>  (41) 
CCCn1c(=O)[n-]c2c(=O)n(C)c(=NCCCO)[n-]c21 (protonated)
CCCn1c(=O)[n-]c2c(=O)n(C)/c(=N/CCCO)[n-]c21 (cis-trans isomerization)
CCCn1c(=O)[n-]c2c(=O)n(C)/c(=N/CCCO)[n-]c21 (3D coordinates assigned)
CCCn1c(=O)[n-]c2c(=O)n(C)/c(=N/CCCO)[n-]c21 (optimized conformer: 71.28277372315308 kcal/mol)

>  <smiles>  (41) 
CCCn1c(=O)[nH]c2c(=O)n(C)c(=NCCCO)[nH]c21

>  <score_type>  (41) 
oracle

>  <origin>  (41) 
adg

>  <m_score__min__energy>  (41) 
-9.4100000000000001

>  <m_primary>  (41) 
energy

$$$$
41:0
     RDKit          3D

 50 53  0  0  0  0  0  0  0  0999 V2000
   59.1970   29.7330   48.7090 O   0  0  0  0  0  0  0  0  0  0  0  0
   59.8560   29.1920   47.7800 C   0  0  0  0  0  0  0  0  0  0  0  0
   60.9550   29.8410   47.2030 O   0  0  0  0  0  0  0  0  0  0  0  0
   61.2900   31.1920   47.3830 C   0  0  0  0  0  0  0  0  0  0  0  0
   62.6240   31.6340   47.4600 C   0  0  0  0  0  0  0  0  0  0  0  0
   62.9060   32.9940   47.6130 C   0  0  0  0  0  0  0  0  0  0  0  0
   61.8650   33.9230   47.6820 C   0  0  0  0  0  0  0  0  0  0  0  0
   60.5310   33.4960   47.6020 C   0  0  0  0  0  0  0  0  0  0  0  0
   59.4170   34.5060   47.5430 C   0  0  0  0  0  0  0  0  0  0  0  0
   58.5650   34.2050   46.3970 N   0  0  0  0  0  0  0  0  0  0  0  0
   58.9910   33.9290   45.1530 C   0  0  0  0  0  0  0  0  0  0  0  0
   57.9190   33.3630   44.4930 C   0  0  0  0  0  0  0  0  0  0  0  0
   57.9420   32.7050   43.1400 C   0  0  0  0  0  0  0  0  0  0  0  0
   57.9300   31.2250   43.2110 N   0  0  0  0  0  0  0  0  0  0  0  0
   56.6400   30.6050   42.8130 C   0  0  0  0  0  0  0  0  0  0  0  0
   55.8620   30.0480   44.0150 C   0  0  0  0  0  0  0  0  0  0  0  0
   56.6830   28.9880   44.7700 C   0  0  0  0  0  0  0  0  0  0  0  0
   58.2010   29.2150   44.6580 C   0  0  0  0  0  0  0  0  0  0  0  0
   58.5230   30.7010   44.4650 C   0  0  0  0  0  0  0  0  0  0  0  0
   56.8710   33.3160   45.3430 N   0  0  0  0  0  0  0  0  0  0  0  0
   57.2980   33.8340   46.4830 N   0  0  0  0  0  0  0  0  0  0  0  0
   60.2530   32.1310   47.4360 C   0  0  0  0  0  0  0  0  0  0  0  0
   59.4310   27.8910   47.2520 C   0  0  0  0  0  0  0  0  0  0  0  0
   58.1700   27.3240   47.4020 C   0  0  0  0  0  0  0  0  0  0  0  0
   58.0580   26.0660   46.7980 C   0  0  0  0  0  0  0  0  0  0  0  0
   59.2210   25.6400   46.1720 C   0  0  0  0  0  0  0  0  0  0  0  0
   60.3940   26.8290   46.3720 S   0  0  0  0  0  0  0  0  0  0  0  0
   63.4470   30.9067   47.3996 H   0  0  0  0  0  0  0  0  0  0  0  0
   63.9501   33.3339   47.6793 H   0  0  0  0  0  0  0  0  0  0  0  0
   62.0920   34.9929   47.7994 H   0  0  0  0  0  0  0  0  0  0  0  0
   58.8234   34.4552   48.4677 H   0  0  0  0  0  0  0  0  0  0  0  0
   59.8367   35.5175   47.4394 H   0  0  0  0  0  0  0  0  0  0  0  0
   59.9941   34.1167   44.7424 H   0  0  0  0  0  0  0  0  0  0  0  0
   57.0576   33.0352   42.5755 H   0  0  0  0  0  0  0  0  0  0  0  0
   58.8802   33.0013   42.6480 H   0  0  0  0  0  0  0  0  0  0  0  0
   56.0217   31.3656   42.3138 H   0  0  0  0  0  0  0  0  0  0  0  0
   56.8655   29.7640   42.1408 H   0  0  0  0  0  0  0  0  0  0  0  0
   55.6248   30.8737   44.7020 H   0  0  0  0  0  0  0  0  0  0  0  0
   54.9415   29.5742   43.6433 H   0  0  0  0  0  0  0  0  0  0  0  0
   56.4012   29.0172   45.8329 H   0  0  0  0  0  0  0  0  0  0  0  0
   56.4606   28.0118   44.3143 H   0  0  0  0  0  0  0  0  0  0  0  0
   58.6866   28.8586   45.5784 H   0  0  0  0  0  0  0  0  0  0  0  0
   58.5742   28.6599   43.7847 H   0  0  0  0  0  0  0  0  0  0  0  0
   58.1187   31.2682   45.3163 H   0  0  0  0  0  0  0  0  0  0  0  0
   59.6156   30.8133   44.4044 H   0  0  0  0  0  0  0  0  0  0  0  0
   56.7260   33.8730   47.3560 H   0  0  0  0  0  0  0  0  0  0  0  0
   59.2094   31.7950   47.3466 H   0  0  0  0  0  0  0  0  0  0  0  0
   57.3451   27.8138   47.9401 H   0  0  0  0  0  0  0  0  0  0  0  0
   57.1335   25.4702   46.8178 H   0  0  0  0  0  0  0  0  0  0  0  0
   59.3531   24.6881   45.6368 H   0  0  0  0  0  0  0  0  0  0  0  0
  1  2  2  0
  2  3  1  0
  3  4  1  0
  4  5  2  0
  5  6  1  0
  6  7  2  0
  7  8  1  0
  8  9  1  0
  9 10  1  0
 10 11  1  0
 11 12  2  0
 12 13  1  0
 13 14  1  0
 14 15  1  0
 15 16  1  0
 16 17  1  0
 17 18  1  0
 18 19  1  0
 12 20  1  0
 20 21  2  0
  8 22  2  0
  2 23  1  0
 23 24  2  0
 24 25  1  0
 25 26  2  0
 26 27  1  0
 22  4  1  0
 27 23  1  0
 21 10  1  0
 19 14  1  0
  5 28  1  0
  6 29  1  0
  7 30  1  0
  9 31  1  0
  9 32  1  0
 11 33  1  0
 13 34  1  0
 13 35  1  0
 15 36  1  0
 15 37  1  0
 16 38  1  0
 16 39  1  0
 17 40  1  0
 17 41  1  0
 18 42  1  0
 18 43  1  0
 19 44  1  0
 19 45  1  0
 21 46  1  0
 22 47  1  0
 24 48  1  0
 25 49  1  0
 26 50  1  0
M  CHG  1  21   1
M  END
>  <UniqueID>  (42) 
35

>  <SMILES>  (42) 
O=C(Oc1cccc(Cn2cc(CN3CCCCC3)n[nH+]2)c1)c1cccs1

>  <Energy>  (42) 
121.91635217349115

>  <Genealogy>  (42) 
O=C(Oc1cccc(Cn2cc(CN3CCCCC3)n[nH+]2)c1)c1cccs1 (protonated)
O=C(Oc1cccc(Cn2cc(CN3CCCCC3)n[nH+]2)c1)c1cccs1 (3D coordinates assigned)
O=C(Oc1cccc(Cn2cc(CN3CCCCC3)n[nH+]2)c1)c1cccs1 (nonaromatic ring conformer: 121.91635217349115 kcal/mol)

>  <smiles>  (42) 
O=C(Oc1cccc(Cn2cc(CN3CCCCC3)nn2)c1)c1cccs1

>  <score_type>  (42) 
oracle

>  <origin>  (42) 
adg

>  <m_score__min__energy>  (42) 
-8.2899999999999991

>  <m_primary>  (42) 
energy

$$$$
42:0
     RDKit          3D

 41 43  0  0  0  0  0  0  0  0999 V2000
   59.9210   29.3210   47.8380 O   0  0  0  0  0  0  0  0  0  0  0  0
   59.7770   30.6730   48.4790 S   0  0  0  0  0  0  0  0  0  0  0  0
   59.3880   30.4950   49.9200 O   0  0  0  0  0  0  0  0  0  0  0  0
   58.5280   31.5570   47.6610 N   0  0  0  0  0  0  0  0  0  0  0  0
   58.7290   32.7230   46.8490 C   0  0  0  0  0  0  0  0  0  0  0  0
   59.2360   33.9190   47.3940 C   0  0  0  0  0  0  0  0  0  0  0  0
   59.4470   35.0340   46.5820 C   0  0  0  0  0  0  0  0  0  0  0  0
   59.1600   34.9720   45.2190 C   0  0  0  0  0  0  0  0  0  0  0  0
   58.6550   33.7950   44.6640 C   0  0  0  0  0  0  0  0  0  0  0  0
   58.4230   32.6700   45.4720 C   0  0  0  0  0  0  0  0  0  0  0  0
   57.7880   31.1910   44.7400 S   0  0  0  0  0  0  0  0  0  0  0  0
   58.1600   31.1170   43.2850 O   0  0  0  0  0  0  0  0  0  0  0  0
   56.2910   31.1990   44.8610 O   0  0  0  0  0  0  0  0  0  0  0  0
   58.4100   29.7860   45.5470 N   0  0  0  0  0  0  0  0  0  0  0  0
   58.1840   28.4330   45.1090 C   0  0  0  0  0  0  0  0  0  0  0  0
   58.3530   28.0440   43.7650 C   0  0  0  0  0  0  0  0  0  0  0  0
   58.1330   26.7180   43.3790 C   0  0  0  0  0  0  0  0  0  0  0  0
   57.7430   25.7680   44.3260 C   0  0  0  0  0  0  0  0  0  0  0  0
   57.5300   24.4840   43.9490 F   0  0  0  0  0  0  0  0  0  0  0  0
   57.5720   26.1420   45.6610 C   0  0  0  0  0  0  0  0  0  0  0  0
   57.7920   27.4670   46.0510 C   0  0  0  0  0  0  0  0  0  0  0  0
   61.3070   31.5320   48.3490 C   0  0  0  0  0  0  0  0  0  0  0  0
   62.1490   31.3160   47.2480 C   0  0  0  0  0  0  0  0  0  0  0  0
   63.3700   31.9910   47.1560 C   0  0  0  0  0  0  0  0  0  0  0  0
   63.7550   32.8850   48.1590 C   0  0  0  0  0  0  0  0  0  0  0  0
   62.9160   33.1080   49.2570 C   0  0  0  0  0  0  0  0  0  0  0  0
   63.3980   34.2290   50.5170 Cl  0  0  0  0  0  0  0  0  0  0  0  0
   61.6930   32.4340   49.3510 C   0  0  0  0  0  0  0  0  0  0  0  0
   59.4673   33.9744   48.4680 H   0  0  0  0  0  0  0  0  0  0  0  0
   59.8406   35.9639   47.0182 H   0  0  0  0  0  0  0  0  0  0  0  0
   59.3317   35.8512   44.5806 H   0  0  0  0  0  0  0  0  0  0  0  0
   58.4373   33.7483   43.5868 H   0  0  0  0  0  0  0  0  0  0  0  0
   58.9780   29.9510   46.4080 H   0  0  0  0  0  0  0  0  0  0  0  0
   58.6598   28.7879   43.0150 H   0  0  0  0  0  0  0  0  0  0  0  0
   58.2673   26.4226   42.3280 H   0  0  0  0  0  0  0  0  0  0  0  0
   57.2640   25.3938   46.4062 H   0  0  0  0  0  0  0  0  0  0  0  0
   57.6570   27.7552   47.1040 H   0  0  0  0  0  0  0  0  0  0  0  0
   61.8482   30.6145   46.4559 H   0  0  0  0  0  0  0  0  0  0  0  0
   64.0290   31.8181   46.2924 H   0  0  0  0  0  0  0  0  0  0  0  0
   64.7171   33.4132   48.0855 H   0  0  0  0  0  0  0  0  0  0  0  0
   61.0331   32.6122   50.2128 H   0  0  0  0  0  0  0  0  0  0  0  0
  1  2  2  0
  2  3  2  0
  2  4  1  0
  4  5  1  0
  5  6  2  0
  6  7  1  0
  7  8  2  0
  8  9  1  0
  9 10  2  0
 10 11  1  0
 11 12  2  0
 11 13  2  0
 11 14  1  0
 14 15  1  0
 15 16  2  0
 16 17  1  0
 17 18  2  0
 18 19  1  0
 18 20  1  0
 20 21  2  0
  2 22  1  0
 22 23  2  0
 23 24  1  0
 24 25  2  0
 25 26  1  0
 26 27  1  0
 26 28  2  0
 10  5  1  0
 21 15  1  0
 28 22  1  0
  6 29  1  0
  7 30  1  0
  8 31  1  0
  9 32  1  0
 14 33  1  0
 16 34  1  0
 17 35  1  0
 20 36  1  0
 21 37  1  0
 23 38  1  0
 24 39  1  0
 25 40  1  0
 28 41  1  0
M  CHG  1   4  -1
M  END
>  <UniqueID>  (43) 
36

>  <SMILES>  (43) 
O=S(=O)([N-]c1ccccc1S(=O)(=O)Nc1ccc(F)cc1)c1cccc(Cl)c1

>  <Energy>  (43) 
50.41218803925997

>  <Genealogy>  (43) 
O=S(=O)([N-]c1ccccc1S(=O)(=O)Nc1ccc(F)cc1)c1cccc(Cl)c1 (protonated)
O=S(=O)([N-]c1ccccc1S(=O)(=O)Nc1ccc(F)cc1)c1cccc(Cl)c1 (3D coordinates assigned)
O=S(=O)([N-]c1ccccc1S(=O)(=O)Nc1ccc(F)cc1)c1cccc(Cl)c1 (optimized conformer: 50.41218803925997 kcal/mol)

>  <smiles>  (43) 
O=S(=O)(Nc1ccccc1S(=O)(=O)Nc1ccc(F)cc1)c1cccc(Cl)c1

>  <score_type>  (43) 
oracle

>  <origin>  (43) 
adg

>  <m_score__min__energy>  (43) 
-11.300000000000001

>  <m_primary>  (43) 
energy

$$$$
43:0
     RDKit          3D

 52 54  0  0  0  0  0  0  0  0999 V2000
   64.7720   32.4170   49.6380 C   0  0  0  0  0  0  0  0  0  0  0  0
   63.7870   31.5870   49.0300 O   0  0  0  0  0  0  0  0  0  0  0  0
   62.7610   32.0560   48.1960 C   0  0  0  0  0  0  0  0  0  0  0  0
   62.8380   33.3050   47.5300 C   0  0  0  0  0  0  0  0  0  0  0  0
   61.7860   33.7470   46.7110 C   0  0  0  0  0  0  0  0  0  0  0  0
   60.6580   32.9330   46.5570 C   0  0  0  0  0  0  0  0  0  0  0  0
   59.5130   33.2230   45.7990 C   0  0  0  0  0  0  0  0  0  0  0  0
   59.2720   34.7610   44.9760 Cl  0  0  0  0  0  0  0  0  0  0  0  0
   58.5550   32.2000   45.8630 C   0  0  0  0  0  0  0  0  0  0  0  0
   57.2190   32.1890   45.2350 C   0  0  0  0  0  0  0  0  0  0  0  0
   56.5110   33.2280   45.2830 O   0  0  0  0  0  0  0  0  0  0  0  0
   56.7110   31.0360   44.5520 N   0  0  0  0  0  0  0  0  0  0  0  0
   57.2410   29.7090   44.6690 C   0  0  0  0  0  0  0  0  0  0  0  0
   58.5160   29.4380   44.1580 C   0  0  0  0  0  0  0  0  0  0  0  0
   59.0710   28.1620   44.2910 C   0  0  0  0  0  0  0  0  0  0  0  0
   58.3480   27.1440   44.9180 C   0  0  0  0  0  0  0  0  0  0  0  0
   57.0570   27.3940   45.4040 C   0  0  0  0  0  0  0  0  0  0  0  0
   56.2760   26.3170   46.0340 C   0  0  0  0  0  0  0  0  0  0  0  0
   55.0200   26.3450   45.9600 O   0  0  0  0  0  0  0  0  0  0  0  0
   56.9090   25.2450   46.7440 N   0  0  0  0  0  0  0  0  0  0  0  0
   56.4060   23.8740   46.8050 C   0  0  0  0  0  0  0  0  0  0  0  0
   55.6130   23.5160   45.5390 C   0  0  0  0  0  0  0  0  0  0  0  0
   55.9530   22.1170   45.0030 C   0  0  0  0  0  0  0  0  0  0  0  0
   55.9920   22.1150   43.5230 N   0  0  0  0  0  0  0  0  0  0  0  0
   57.0050   21.1660   43.0370 C   0  0  0  0  0  0  0  0  0  0  0  0
   56.2920   23.4610   43.0050 C   0  0  0  0  0  0  0  0  0  0  0  0
   56.4990   28.6740   45.2640 C   0  0  0  0  0  0  0  0  0  0  0  0
   59.1290   30.9680   46.8700 S   0  0  0  0  0  0  0  0  0  0  0  0
   60.5940   31.7120   47.2080 C   0  0  0  0  0  0  0  0  0  0  0  0
   61.6220   31.2510   48.0270 C   0  0  0  0  0  0  0  0  0  0  0  0
   64.6870   32.3454   50.7324 H   0  0  0  0  0  0  0  0  0  0  0  0
   65.7736   32.0865   49.3256 H   0  0  0  0  0  0  0  0  0  0  0  0
   64.6161   33.4601   49.3256 H   0  0  0  0  0  0  0  0  0  0  0  0
   63.7311   33.9347   47.6559 H   0  0  0  0  0  0  0  0  0  0  0  0
   61.8478   34.7183   46.1984 H   0  0  0  0  0  0  0  0  0  0  0  0
   59.0830   30.2320   43.6501 H   0  0  0  0  0  0  0  0  0  0  0  0
   60.0793   27.9588   43.9011 H   0  0  0  0  0  0  0  0  0  0  0  0
   58.7927   26.1442   45.0305 H   0  0  0  0  0  0  0  0  0  0  0  0
   57.2569   23.1837   46.9025 H   0  0  0  0  0  0  0  0  0  0  0  0
   55.7349   23.7876   47.6723 H   0  0  0  0  0  0  0  0  0  0  0  0
   54.5391   23.5513   45.7745 H   0  0  0  0  0  0  0  0  0  0  0  0
   55.8826   24.2449   44.7605 H   0  0  0  0  0  0  0  0  0  0  0  0
   56.9365   21.8120   45.3899 H   0  0  0  0  0  0  0  0  0  0  0  0
   55.1752   21.4139   45.3357 H   0  0  0  0  0  0  0  0  0  0  0  0
   57.5077   20.6951   43.8947 H   0  0  0  0  0  0  0  0  0  0  0  0
   56.5185   20.3911   42.4264 H   0  0  0  0  0  0  0  0  0  0  0  0
   57.7465   21.7020   42.4264 H   0  0  0  0  0  0  0  0  0  0  0  0
   56.4460   24.1520   43.8469 H   0  0  0  0  0  0  0  0  0  0  0  0
   57.2036   23.4227   42.3906 H   0  0  0  0  0  0  0  0  0  0  0  0
   55.4504   23.8134   42.3906 H   0  0  0  0  0  0  0  0  0  0  0  0
   55.4769   28.8681   45.6213 H   0  0  0  0  0  0  0  0  0  0  0  0
   61.5437   30.2765   48.5312 H   0  0  0  0  0  0  0  0  0  0  0  0
  1  2  1  0
  2  3  1  0
  3  4  2  0
  4  5  1  0
  5  6  2  0
  6  7  1  0
  7  8  1  0
  7  9  2  0
  9 10  1  0
 10 11  2  0
 10 12  1  0
 12 13  1  0
 13 14  2  0
 14 15  1  0
 15 16  2  0
 16 17  1  0
 17 18  1  0
 18 19  2  0
 18 20  1  0
 20 21  1  0
 21 22  1  0
 22 23  1  0
 23 24  1  0
 24 25  1  0
 24 26  1  0
 17 27  2  0
  9 28  1  0
 28 29  1  0
 29 30  2  0
 30  3  1  0
 29  6  1  0
 27 13  1  0
  1 31  1  0
  1 32  1  0
  1 33  1  0
  4 34  1  0
  5 35  1  0
 14 36  1  0
 15 37  1  0
 16 38  1  0
 21 39  1  0
 21 40  1  0
 22 41  1  0
 22 42  1  0
 23 43  1  0
 23 44  1  0
 25 45  1  0
 25 46  1  0
 25 47  1  0
 26 48  1  0
 26 49  1  0
 26 50  1  0
 27 51  1  0
 30 52  1  0
M  CHG  2  12  -1  20  -1
M  END
>  <UniqueID>  (44) 
37

>  <SMILES>  (44) 
COc1ccc2c(Cl)c(C(=O)[N-]c3cccc(C(=O)[N-]CCCN(C)C)c3)sc2c1

>  <Energy>  (44) 
87.27773003762927

>  <Genealogy>  (44) 
COc1ccc2c(Cl)c(C(=O)[N-]c3cccc(C(=O)[N-]CCCN(C)C)c3)sc2c1 (protonated)
COc1ccc2c(Cl)c(C(=O)[N-]c3cccc(C(=O)[N-]CCCN(C)C)c3)sc2c1 (3D coordinates assigned)
COc1ccc2c(Cl)c(C(=O)[N-]c3cccc(C(=O)[N-]CCCN(C)C)c3)sc2c1 (optimized conformer: 87.27773003762927 kcal/mol)

>  <smiles>  (44) 
COc1ccc2c(Cl)c(C(=O)Nc3cccc(C(=O)NCCCN(C)C)c3)sc2c1

>  <score_type>  (44) 
oracle

>  <origin>  (44) 
adg

>  <m_score__min__energy>  (44) 
-12.75

>  <m_primary>  (44) 
energy

$$$$
44:0
     RDKit          3D

 49 53  0  0  0  0  0  0  0  0999 V2000
   66.0860   34.7760   52.3130 H   0  0  0  0  0  0  0  0  0  0  0  0
   65.9980   33.9530   51.6760 N   0  0  0  0  0  0  0  0  0  0  0  0
   65.0060   33.8140   50.8540 C   0  0  0  0  0  0  0  0  0  0  0  0
   63.8090   34.3830   51.1500 N   0  0  0  0  0  0  0  0  0  0  0  0
   62.7330   34.2700   50.3270 C   0  0  0  0  0  0  0  0  0  0  0  0
   61.7804   34.7443   50.6054 H   0  0  0  0  0  0  0  0  0  0  0  0
   62.8290   33.5510   49.1220 C   0  0  0  0  0  0  0  0  0  0  0  0
   61.6530   33.4260   48.2210 C   0  0  0  0  0  0  0  0  0  0  0  0
   61.3430   32.1060   47.1970 S   0  0  0  0  0  0  0  0  0  0  0  0
   59.9150   32.7160   46.5570 C   0  0  0  0  0  0  0  0  0  0  0  0
   59.0300   32.1550   45.6290 C   0  0  0  0  0  0  0  0  0  0  0  0
   59.2550   30.9130   45.0210 O   0  0  0  0  0  0  0  0  0  0  0  0
   58.6680   29.7050   45.4250 C   0  0  0  0  0  0  0  0  0  0  0  0
   57.6660   29.0760   44.6640 C   0  0  0  0  0  0  0  0  0  0  0  0
   57.3322   29.5268   43.7178 H   0  0  0  0  0  0  0  0  0  0  0  0
   57.0930   27.8800   45.1060 C   0  0  0  0  0  0  0  0  0  0  0  0
   56.3270   27.3821   44.4933 H   0  0  0  0  0  0  0  0  0  0  0  0
   57.4870   27.3120   46.3220 C   0  0  0  0  0  0  0  0  0  0  0  0
   56.8720   26.0890   46.7500 N   0  0  0  0  0  0  0  0  0  0  0  0
   55.6440   25.5450   46.2480 C   0  0  0  0  0  0  0  0  0  0  0  0
   54.7100   26.3300   45.9400 O   0  0  0  0  0  0  0  0  0  0  0  0
   55.4480   24.1330   46.0850 N   0  0  0  0  0  0  0  0  0  0  0  0
   56.0500   23.3120   45.0740 C   0  0  0  0  0  0  0  0  0  0  0  0
   57.1040   22.4610   45.4320 C   0  0  0  0  0  0  0  0  0  0  0  0
   57.4581   22.4359   46.4731 H   0  0  0  0  0  0  0  0  0  0  0  0
   57.7080   21.6430   44.4710 C   0  0  0  0  0  0  0  0  0  0  0  0
   58.5268   20.9678   44.7603 H   0  0  0  0  0  0  0  0  0  0  0  0
   57.2720   21.6830   43.1440 C   0  0  0  0  0  0  0  0  0  0  0  0
   57.7415   21.0332   42.3908 H   0  0  0  0  0  0  0  0  0  0  0  0
   56.2390   22.5490   42.7740 C   0  0  0  0  0  0  0  0  0  0  0  0
   55.9019   22.5866   41.7276 H   0  0  0  0  0  0  0  0  0  0  0  0
   55.6340   23.3670   43.7320 C   0  0  0  0  0  0  0  0  0  0  0  0
   54.8297   24.0562   43.4352 H   0  0  0  0  0  0  0  0  0  0  0  0
   58.4940   27.9360   47.0790 C   0  0  0  0  0  0  0  0  0  0  0  0
   58.8316   27.4814   48.0220 H   0  0  0  0  0  0  0  0  0  0  0  0
   59.0680   29.1320   46.6380 C   0  0  0  0  0  0  0  0  0  0  0  0
   60.0290   29.7300   47.3870 F   0  0  0  0  0  0  0  0  0  0  0  0
   57.8540   32.8650   45.3440 C   0  0  0  0  0  0  0  0  0  0  0  0
   57.1155   32.4495   44.6426 H   0  0  0  0  0  0  0  0  0  0  0  0
   57.6210   34.1110   45.9580 C   0  0  0  0  0  0  0  0  0  0  0  0
   56.7074   34.6747   45.7181 H   0  0  0  0  0  0  0  0  0  0  0  0
   58.5190   34.6250   46.8480 N   0  0  0  0  0  0  0  0  0  0  0  0
   59.6510   33.9380   47.1480 C   0  0  0  0  0  0  0  0  0  0  0  0
   60.6130   34.3550   48.0720 C   0  0  0  0  0  0  0  0  0  0  0  0
   60.5603   35.3064   48.6215 H   0  0  0  0  0  0  0  0  0  0  0  0
   64.0620   32.9550   48.8040 C   0  0  0  0  0  0  0  0  0  0  0  0
   64.1692   32.3842   47.8698 H   0  0  0  0  0  0  0  0  0  0  0  0
   65.1510   33.0840   49.6680 C   0  0  0  0  0  0  0  0  0  0  0  0
   66.1149   32.6161   49.4191 H   0  0  0  0  0  0  0  0  0  0  0  0
  1  2  1  0
  2  3  2  0
  3  4  1  0
  4  5  1  0
  5  6  1  0
  5  7  2  0
  7  8  1  0
  8  9  1  0
  9 10  1  0
 10 11  2  0
 11 12  1  0
 12 13  1  0
 13 14  2  0
 14 15  1  0
 14 16  1  0
 16 17  1  0
 16 18  2  0
 18 19  1  0
 19 20  1  0
 20 21  2  0
 20 22  1  0
 22 23  1  0
 23 24  2  0
 24 25  1  0
 24 26  1  0
 26 27  1  0
 26 28  2  0
 28 29  1  0
 28 30  1  0
 30 31  1  0
 30 32  2  0
 32 33  1  0
 18 34  1  0
 34 35  1  0
 34 36  2  0
 36 37  1  0
 11 38  1  0
 38 39  1  0
 38 40  2  0
 40 41  1  0
 40 42  1  0
 42 43  2  0
 43 44  1  0
 44 45  1  0
  7 46  1  0
 46 47  1  0
 46 48  2  0
 48 49  1  0
 48  3  1  0
 44  8  2  0
 43 10  1  0
 36 13  1  0
 32 23  1  0
M  CHG  3   4  -1  19  -1  22  -1
M  END
>  <UniqueID>  (45) 
38

>  <SMILES>  (45) 
[H]/N=c1\ccc(-c2cc3nccc(Oc4ccc([N-]C(=O)[N-]c5ccccc5)cc4F)c3s2)c[n-]1

>  <Energy>  (45) 
106.23453155430633

>  <Genealogy>  (45) 
N=c1ccc(-c2cc3nccc(Oc4ccc([N-]C(=O)[N-]c5ccccc5)cc4F)c3s2)c[n-]1 (protonated)
[H]/N=c1\ccc(-c2cc3nccc(Oc4ccc([N-]C(=O)[N-]c5ccccc5)cc4F)c3s2)c[n-]1 (cis-trans isomerization)
[H]/N=c1\ccc(-c2cc3nccc(Oc4ccc([N-]C(=O)[N-]c5ccccc5)cc4F)c3s2)c[n-]1 (3D coordinates assigned)
[H]/N=c1\ccc(-c2cc3nccc(Oc4ccc([N-]C(=O)[N-]c5ccccc5)cc4F)c3s2)c[n-]1 (optimized conformer: 106.23453155430633 kcal/mol)

>  <smiles>  (45) 
N=c1ccc(-c2cc3nccc(Oc4ccc(NC(=O)Nc5ccccc5)cc4F)c3s2)c[nH]1

>  <score_type>  (45) 
oracle

>  <origin>  (45) 
adg

>  <m_score__min__energy>  (45) 
-13.06

>  <m_primary>  (45) 
energy

$$$$
45:0
     RDKit          3D

 33 34  0  0  0  0  0  0  0  0999 V2000
   57.7920   31.9890   43.2420 C   0  0  0  0  0  0  0  0  0  0  0  0
   58.0420   32.6090   44.5930 C   0  0  0  0  0  0  0  0  0  0  0  0
   58.1890   34.0040   44.6820 C   0  0  0  0  0  0  0  0  0  0  0  0
   58.4390   34.6160   45.9120 C   0  0  0  0  0  0  0  0  0  0  0  0
   58.5350   33.8450   47.0680 C   0  0  0  0  0  0  0  0  0  0  0  0
   58.3770   32.4590   47.0020 C   0  0  0  0  0  0  0  0  0  0  0  0
   58.1250   31.8240   45.7730 C   0  0  0  0  0  0  0  0  0  0  0  0
   57.9320   30.3550   45.7480 C   0  0  0  0  0  0  0  0  0  0  0  0
   56.8760   29.8780   45.2520 O   0  0  0  0  0  0  0  0  0  0  0  0
   58.9190   29.4800   46.3260 N   0  0  0  0  0  0  0  0  0  0  0  0
   58.8830   28.0480   46.2160 C   0  0  0  0  0  0  0  0  0  0  0  0
   60.0630   27.2860   46.1470 C   0  0  0  0  0  0  0  0  0  0  0  0
   59.9980   25.8920   46.0740 C   0  0  0  0  0  0  0  0  0  0  0  0
   58.7610   25.2450   46.0790 C   0  0  0  0  0  0  0  0  0  0  0  0
   57.5790   25.9900   46.1630 C   0  0  0  0  0  0  0  0  0  0  0  0
   56.0170   25.1770   46.1990 S   0  0  0  0  0  0  0  0  0  0  0  0
   54.7560   26.3380   45.9820 N   0  0  0  0  0  0  0  0  0  0  0  0
   55.9520   24.1520   45.1020 O   0  0  0  0  0  0  0  0  0  0  0  0
   55.8330   24.4810   47.5190 O   0  0  0  0  0  0  0  0  0  0  0  0
   57.6430   27.3880   46.2460 C   0  0  0  0  0  0  0  0  0  0  0  0
   57.3836   30.9761   43.3733 H   0  0  0  0  0  0  0  0  0  0  0  0
   57.0720   32.6051   42.6834 H   0  0  0  0  0  0  0  0  0  0  0  0
   58.7380   31.9333   42.6834 H   0  0  0  0  0  0  0  0  0  0  0  0
   58.1063   34.6195   43.7741 H   0  0  0  0  0  0  0  0  0  0  0  0
   58.5602   35.7079   45.9680 H   0  0  0  0  0  0  0  0  0  0  0  0
   58.7357   34.3289   48.0352 H   0  0  0  0  0  0  0  0  0  0  0  0
   58.4504   31.8582   47.9205 H   0  0  0  0  0  0  0  0  0  0  0  0
   59.6830   29.9010   46.9010 H   0  0  0  0  0  0  0  0  0  0  0  0
   61.0411   27.7893   46.1505 H   0  0  0  0  0  0  0  0  0  0  0  0
   60.9247   25.3025   46.0124 H   0  0  0  0  0  0  0  0  0  0  0  0
   58.7151   24.1477   46.0168 H   0  0  0  0  0  0  0  0  0  0  0  0
   54.9000   27.0810   46.7020 H   0  0  0  0  0  0  0  0  0  0  0  0
   56.7155   27.9726   46.3353 H   0  0  0  0  0  0  0  0  0  0  0  0
  1  2  1  0
  2  3  2  0
  3  4  1  0
  4  5  2  0
  5  6  1  0
  6  7  2  0
  7  8  1  0
  8  9  2  0
  8 10  1  0
 10 11  1  0
 11 12  2  0
 12 13  1  0
 13 14  2  0
 14 15  1  0
 15 16  1  0
 16 17  1  0
 16 18  2  0
 16 19  2  0
 15 20  2  0
  7  2  1  0
 20 11  1  0
  1 21  1  0
  1 22  1  0
  1 23  1  0
  3 24  1  0
  4 25  1  0
  5 26  1  0
  6 27  1  0
 10 28  1  0
 12 29  1  0
 13 30  1  0
 14 31  1  0
 17 32  1  0
 20 33  1  0
M  CHG  1  17  -1
M  END
>  <UniqueID>  (46) 
39

>  <SMILES>  (46) 
Cc1ccccc1C(=O)Nc1cccc(S([NH-])(=O)=O)c1

>  <Energy>  (46) 
42.19650801676771

>  <Genealogy>  (46) 
Cc1ccccc1C(=O)Nc1cccc(S([NH-])(=O)=O)c1 (protonated)
Cc1ccccc1C(=O)Nc1cccc(S([NH-])(=O)=O)c1 (3D coordinates assigned)
Cc1ccccc1C(=O)Nc1cccc(S([NH-])(=O)=O)c1 (optimized conformer: 42.19650801676771 kcal/mol)

>  <smiles>  (46) 
Cc1ccccc1C(=O)Nc1cccc(S(N)(=O)=O)c1

>  <score_type>  (46) 
oracle

>  <origin>  (46) 
adg

>  <m_score__min__energy>  (46) 
-11.24

>  <m_primary>  (46) 
energy

$$$$
46:0
     RDKit          3D

 53 55  0  0  0  0  0  0  0  0999 V2000
   59.9590   27.6060   47.9120 C   0  0  0  0  0  0  0  0  0  0  0  0
   60.0260   28.9810   48.6090 C   0  0  0  0  0  0  0  0  0  0  0  0
   61.0130   28.8910   49.7830 C   0  0  0  0  0  0  0  0  0  0  0  0
   60.5150   30.0680   47.6320 C   0  0  0  0  0  0  0  0  0  0  0  0
   58.7460   29.3400   49.1520 O   0  0  0  0  0  0  0  0  0  0  0  0
   58.5050   30.3090   50.1380 C   0  0  0  0  0  0  0  0  0  0  0  0
   57.7630   30.0620   51.1270 O   0  0  0  0  0  0  0  0  0  0  0  0
   59.1110   31.5980   49.9990 N   0  0  0  0  0  0  0  0  0  0  0  0
   58.8930   32.6880   50.9500 C   0  0  0  0  0  0  0  0  0  0  0  0
   59.9110   33.8110   50.7350 C   0  0  0  0  0  0  0  0  0  0  0  0
   60.2920   33.9140   49.3260 N   0  0  0  0  0  0  0  0  0  0  0  0
   59.4980   34.3770   48.3310 C   0  0  0  0  0  0  0  0  0  0  0  0
   60.1790   34.3430   47.1220 C   0  0  0  0  0  0  0  0  0  0  0  0
   59.5820   34.9720   45.5530 S   0  0  0  0  0  0  0  0  0  0  0  0
   57.9250   34.2120   45.6870 C   0  0  0  0  0  0  0  0  0  0  0  0
   57.9020   32.8080   45.1430 C   0  0  0  0  0  0  0  0  0  0  0  0
   57.7690   32.5780   43.7600 C   0  0  0  0  0  0  0  0  0  0  0  0
   57.6920   31.2710   43.2660 C   0  0  0  0  0  0  0  0  0  0  0  0
   57.7120   30.1860   44.1470 C   0  0  0  0  0  0  0  0  0  0  0  0
   57.8070   30.4050   45.5250 C   0  0  0  0  0  0  0  0  0  0  0  0
   57.7810   29.3540   46.3810 F   0  0  0  0  0  0  0  0  0  0  0  0
   57.9110   31.7100   46.0230 C   0  0  0  0  0  0  0  0  0  0  0  0
   61.4310   33.8360   47.4000 C   0  0  0  0  0  0  0  0  0  0  0  0
   62.5320   33.6130   46.5740 C   0  0  0  0  0  0  0  0  0  0  0  0
   63.7000   33.0980   47.1620 C   0  0  0  0  0  0  0  0  0  0  0  0
   63.7440   32.8280   48.5480 C   0  0  0  0  0  0  0  0  0  0  0  0
   62.6190   33.0700   49.3580 C   0  0  0  0  0  0  0  0  0  0  0  0
   61.4690   33.5820   48.7490 C   0  0  0  0  0  0  0  0  0  0  0  0
   59.9203   26.8114   48.6716 H   0  0  0  0  0  0  0  0  0  0  0  0
   59.0574   27.5569   47.2837 H   0  0  0  0  0  0  0  0  0  0  0  0
   60.8516   27.4695   47.2837 H   0  0  0  0  0  0  0  0  0  0  0  0
   60.4594   28.9415   50.7322 H   0  0  0  0  0  0  0  0  0  0  0  0
   61.5616   27.9391   49.7287 H   0  0  0  0  0  0  0  0  0  0  0  0
   61.7247   29.7280   49.7287 H   0  0  0  0  0  0  0  0  0  0  0  0
   60.9011   30.9262   48.2016 H   0  0  0  0  0  0  0  0  0  0  0  0
   61.3156   29.6584   46.9985 H   0  0  0  0  0  0  0  0  0  0  0  0
   59.6774   30.3953   46.9985 H   0  0  0  0  0  0  0  0  0  0  0  0
   59.6540   31.7970   49.1310 H   0  0  0  0  0  0  0  0  0  0  0  0
   57.8785   33.0899   50.8111 H   0  0  0  0  0  0  0  0  0  0  0  0
   59.0135   32.2944   51.9701 H   0  0  0  0  0  0  0  0  0  0  0  0
   59.4676   34.7645   51.0579 H   0  0  0  0  0  0  0  0  0  0  0  0
   60.8114   33.5840   51.3247 H   0  0  0  0  0  0  0  0  0  0  0  0
   58.4640   34.7287   48.4620 H   0  0  0  0  0  0  0  0  0  0  0  0
   57.6305   34.1871   46.7465 H   0  0  0  0  0  0  0  0  0  0  0  0
   57.2247   34.8177   45.0932 H   0  0  0  0  0  0  0  0  0  0  0  0
   57.7255   33.4295   43.0650 H   0  0  0  0  0  0  0  0  0  0  0  0
   57.6156   31.0972   42.1825 H   0  0  0  0  0  0  0  0  0  0  0  0
   57.6530   29.1594   43.7563 H   0  0  0  0  0  0  0  0  0  0  0  0
   58.0001   31.8772   47.1066 H   0  0  0  0  0  0  0  0  0  0  0  0
   62.4878   33.8330   45.4971 H   0  0  0  0  0  0  0  0  0  0  0  0
   64.5856   32.9039   46.5391 H   0  0  0  0  0  0  0  0  0  0  0  0
   64.6641   32.4258   48.9971 H   0  0  0  0  0  0  0  0  0  0  0  0
   62.6435   32.8626   50.4380 H   0  0  0  0  0  0  0  0  0  0  0  0
  1  2  1  0
  2  3  1  0
  2  4  1  0
  2  5  1  0
  5  6  1  0
  6  7  2  0
  6  8  1  0
  8  9  1  0
  9 10  1  0
 10 11  1  0
 11 12  1  0
 12 13  2  0
 13 14  1  0
 14 15  1  0
 15 16  1  0
 16 17  2  0
 17 18  1  0
 18 19  2  0
 19 20  1  0
 20 21  1  0
 20 22  2  0
 13 23  1  0
 23 24  2  0
 24 25  1  0
 25 26  2  0
 26 27  1  0
 27 28  2  0
 28 11  1  0
 22 16  1  0
 28 23  1  0
  1 29  1  0
  1 30  1  0
  1 31  1  0
  3 32  1  0
  3 33  1  0
  3 34  1  0
  4 35  1  0
  4 36  1  0
  4 37  1  0
  8 38  1  0
  9 39  1  0
  9 40  1  0
 10 41  1  0
 10 42  1  0
 12 43  1  0
 15 44  1  0
 15 45  1  0
 17 46  1  0
 18 47  1  0
 19 48  1  0
 22 49  1  0
 24 50  1  0
 25 51  1  0
 26 52  1  0
 27 53  1  0
M  END
>  <UniqueID>  (47) 
40

>  <SMILES>  (47) 
CC(C)(C)OC(=O)NCCn1cc(SCc2cccc(F)c2)c2ccccc21

>  <Energy>  (47) 
69.36007747483919

>  <Genealogy>  (47) 
CC(C)(C)OC(=O)NCCn1cc(SCc2cccc(F)c2)c2ccccc21 (3D coordinates assigned)
CC(C)(C)OC(=O)NCCn1cc(SCc2cccc(F)c2)c2ccccc21 (optimized conformer: 69.36007747483919 kcal/mol)

>  <smiles>  (47) 
CC(C)(C)OC(=O)NCCn1cc(SCc2cccc(F)c2)c2ccccc21

>  <score_type>  (47) 
oracle

>  <origin>  (47) 
adg

>  <m_score__min__energy>  (47) 
-8.7400000000000002

>  <m_primary>  (47) 
energy

$$$$
47:0
     RDKit          3D

 58 61  0  0  0  0  0  0  0  0999 V2000
   57.6520   31.2490   51.2660 C   0  0  0  0  0  0  0  0  0  0  0  0
   58.7090   31.8270   50.5250 O   0  0  0  0  0  0  0  0  0  0  0  0
   59.6980   32.3280   51.4040 C   0  0  0  0  0  0  0  0  0  0  0  0
   60.0540   33.7560   50.9930 C   0  0  0  0  0  0  0  0  0  0  0  0
   60.3820   33.8070   49.5650 N   0  0  0  0  0  0  0  0  0  0  0  0
   59.4290   33.8340   48.6370 N   0  0  0  0  0  0  0  0  0  0  0  0
   60.0030   33.7290   47.4210 C   0  0  0  0  0  0  0  0  0  0  0  0
   59.2410   33.7640   46.1660 C   0  0  0  0  0  0  0  0  0  0  0  0
   59.0160   32.6980   45.3740 N   0  0  0  0  0  0  0  0  0  0  0  0
   58.3200   33.2620   44.3680 C   0  0  0  0  0  0  0  0  0  0  0  0
   57.7570   32.4880   43.2170 C   0  0  0  0  0  0  0  0  0  0  0  0
   57.8140   31.0590   43.4960 N   0  0  0  0  0  0  0  0  0  0  0  0
   56.9890   30.4080   44.4720 C   0  0  0  0  0  0  0  0  0  0  0  0
   55.7490   30.6450   44.5000 O   0  0  0  0  0  0  0  0  0  0  0  0
   57.5810   29.4610   45.4440 C   0  0  0  0  0  0  0  0  0  0  0  0
   58.4270   29.9200   46.4640 C   0  0  0  0  0  0  0  0  0  0  0  0
   59.0050   29.0230   47.3760 C   0  0  0  0  0  0  0  0  0  0  0  0
   59.8680   29.4580   48.3910 O   0  0  0  0  0  0  0  0  0  0  0  0
   60.9970   30.3030   48.1870 C   0  0  0  0  0  0  0  0  0  0  0  0
   58.7270   27.6490   47.2880 C   0  0  0  0  0  0  0  0  0  0  0  0
   59.3540   26.8130   48.2370 O   0  0  0  0  0  0  0  0  0  0  0  0
   60.7480   26.7260   48.5030 C   0  0  0  0  0  0  0  0  0  0  0  0
   57.8580   27.1730   46.2760 C   0  0  0  0  0  0  0  0  0  0  0  0
   57.5640   25.8020   46.1910 O   0  0  0  0  0  0  0  0  0  0  0  0
   57.6260   25.0230   45.0010 C   0  0  0  0  0  0  0  0  0  0  0  0
   57.3020   28.0890   45.3600 C   0  0  0  0  0  0  0  0  0  0  0  0
   58.1220   34.5820   44.5480 N   0  0  0  0  0  0  0  0  0  0  0  0
   58.7090   34.8550   45.6710 O   0  0  0  0  0  0  0  0  0  0  0  0
   61.3700   33.6180   47.5890 C   0  0  0  0  0  0  0  0  0  0  0  0
   62.4090   33.4710   46.6740 C   0  0  0  0  0  0  0  0  0  0  0  0
   63.7140   33.3840   47.1780 C   0  0  0  0  0  0  0  0  0  0  0  0
   63.9570   33.4590   48.5600 C   0  0  0  0  0  0  0  0  0  0  0  0
   62.8970   33.6060   49.4710 C   0  0  0  0  0  0  0  0  0  0  0  0
   63.3610   33.7620   51.3090 Br  0  0  0  0  0  0  0  0  0  0  0  0
   61.5870   33.6760   48.9480 C   0  0  0  0  0  0  0  0  0  0  0  0
   57.8547   31.3598   52.3415 H   0  0  0  0  0  0  0  0  0  0  0  0
   56.7087   31.7568   51.0164 H   0  0  0  0  0  0  0  0  0  0  0  0
   57.5705   30.1808   51.0164 H   0  0  0  0  0  0  0  0  0  0  0  0
   59.3108   32.3266   52.4336 H   0  0  0  0  0  0  0  0  0  0  0  0
   60.5949   31.6931   51.3538 H   0  0  0  0  0  0  0  0  0  0  0  0
   59.1965   34.4155   51.1923 H   0  0  0  0  0  0  0  0  0  0  0  0
   60.9275   34.0884   51.5731 H   0  0  0  0  0  0  0  0  0  0  0  0
   56.7102   32.7854   43.0564 H   0  0  0  0  0  0  0  0  0  0  0  0
   58.3505   32.7019   42.3159 H   0  0  0  0  0  0  0  0  0  0  0  0
   58.6401   30.9957   46.5504 H   0  0  0  0  0  0  0  0  0  0  0  0
   61.4064   30.6094   49.1609 H   0  0  0  0  0  0  0  0  0  0  0  0
   61.7663   29.7569   47.6213 H   0  0  0  0  0  0  0  0  0  0  0  0
   60.6899   31.1950   47.6213 H   0  0  0  0  0  0  0  0  0  0  0  0
   60.9138   26.7156   49.5904 H   0  0  0  0  0  0  0  0  0  0  0  0
   61.1484   25.8011   48.0622 H   0  0  0  0  0  0  0  0  0  0  0  0
   61.2603   27.5939   48.0622 H   0  0  0  0  0  0  0  0  0  0  0  0
   57.7107   23.9582   45.2638 H   0  0  0  0  0  0  0  0  0  0  0  0
   56.7123   25.1832   44.4099 H   0  0  0  0  0  0  0  0  0  0  0  0
   58.5029   25.3257   44.4099 H   0  0  0  0  0  0  0  0  0  0  0  0
   56.6371   27.7210   44.5647 H   0  0  0  0  0  0  0  0  0  0  0  0
   62.2125   33.4247   45.5927 H   0  0  0  0  0  0  0  0  0  0  0  0
   64.5575   33.2555   46.4838 H   0  0  0  0  0  0  0  0  0  0  0  0
   64.9901   33.4019   48.9336 H   0  0  0  0  0  0  0  0  0  0  0  0
  1  2  1  0
  2  3  1  0
  3  4  1  0
  4  5  1  0
  5  6  1  0
  6  7  2  0
  7  8  1  0
  8  9  2  0
  9 10  1  0
 10 11  1  0
 11 12  1  0
 12 13  1  0
 13 14  2  0
 13 15  1  0
 15 16  2  0
 16 17  1  0
 17 18  1  0
 18 19  1  0
 17 20  2  0
 20 21  1  0
 21 22  1  0
 20 23  1  0
 23 24  1  0
 24 25  1  0
 23 26  2  0
 10 27  2  0
 27 28  1  0
  7 29  1  0
 29 30  2  0
 30 31  1  0
 31 32  2  0
 32 33  1  0
 33 34  1  0
 33 35  2  0
 35  5  1  0
 28  8  1  0
 35 29  1  0
 26 15  1  0
  1 36  1  0
  1 37  1  0
  1 38  1  0
  3 39  1  0
  3 40  1  0
  4 41  1  0
  4 42  1  0
 11 43  1  0
 11 44  1  0
 16 45  1  0
 19 46  1  0
 19 47  1  0
 19 48  1  0
 22 49  1  0
 22 50  1  0
 22 51  1  0
 25 52  1  0
 25 53  1  0
 25 54  1  0
 26 55  1  0
 30 56  1  0
 31 57  1  0
 32 58  1  0
M  CHG  1  12  -1
M  END
>  <UniqueID>  (48) 
41

>  <SMILES>  (48) 
COCCn1nc(-c2nc(C[N-]C(=O)c3cc(OC)c(OC)c(OC)c3)no2)c2cccc(Br)c21

>  <Energy>  (48) 
136.51763547885085

>  <Genealogy>  (48) 
COCCn1nc(-c2nc(C[N-]C(=O)c3cc(OC)c(OC)c(OC)c3)no2)c2cccc(Br)c21 (protonated)
COCCn1nc(-c2nc(C[N-]C(=O)c3cc(OC)c(OC)c(OC)c3)no2)c2cccc(Br)c21 (3D coordinates assigned)
COCCn1nc(-c2nc(C[N-]C(=O)c3cc(OC)c(OC)c(OC)c3)no2)c2cccc(Br)c21 (optimized conformer: 136.51763547885085 kcal/mol)

>  <smiles>  (48) 
COCCn1nc(-c2nc(CNC(=O)c3cc(OC)c(OC)c(OC)c3)no2)c2cccc(Br)c21

>  <score_type>  (48) 
oracle

>  <origin>  (48) 
adg

>  <m_score__min__energy>  (48) 
-9.8499999999999996

>  <m_primary>  (48) 
energy

$$$$
48:0
     RDKit          3D

 33 34  0  0  0  0  0  0  0  0999 V2000
   60.7210   26.7140   47.3580 C   0  0  0  0  0  0  0  0  0  0  0  0
   59.5910   27.2700   46.5430 C   0  0  0  0  0  0  0  0  0  0  0  0
   58.3200   26.6960   46.6190 C   0  0  0  0  0  0  0  0  0  0  0  0
   57.2460   27.2300   45.8940 C   0  0  0  0  0  0  0  0  0  0  0  0
   55.8960   26.5630   46.0090 C   0  0  0  0  0  0  0  0  0  0  0  0
   57.4380   28.3850   45.0930 C   0  0  0  0  0  0  0  0  0  0  0  0
   56.2830   28.9780   44.3820 C   0  0  0  0  0  0  0  0  0  0  0  0
   55.1490   29.0030   44.9280 O   0  0  0  0  0  0  0  0  0  0  0  0
   56.4310   29.4870   43.0980 O   0  0  0  0  0  0  0  0  0  0  0  0
   58.7330   28.9730   45.0130 C   0  0  0  0  0  0  0  0  0  0  0  0
   58.9920   30.1840   44.2560 N   0  0  0  0  0  0  0  0  0  0  0  0
   58.5440   31.3480   44.9890 C   0  0  0  0  0  0  0  0  0  0  0  0
   57.4520   32.1020   44.5200 C   0  0  0  0  0  0  0  0  0  0  0  0
   57.0200   33.2340   45.2170 C   0  0  0  0  0  0  0  0  0  0  0  0
   57.6700   33.6270   46.3870 C   0  0  0  0  0  0  0  0  0  0  0  0
   58.7560   32.8910   46.8640 C   0  0  0  0  0  0  0  0  0  0  0  0
   59.1960   31.7560   46.1740 C   0  0  0  0  0  0  0  0  0  0  0  0
   60.2580   31.0630   46.6570 F   0  0  0  0  0  0  0  0  0  0  0  0
   59.7850   28.4120   45.7630 C   0  0  0  0  0  0  0  0  0  0  0  0
   60.4916   26.8269   48.4279 H   0  0  0  0  0  0  0  0  0  0  0  0
   60.8535   25.6478   47.1219 H   0  0  0  0  0  0  0  0  0  0  0  0
   61.6465   27.2596   47.1219 H   0  0  0  0  0  0  0  0  0  0  0  0
   58.1599   25.8136   47.2560 H   0  0  0  0  0  0  0  0  0  0  0  0
   55.6390   26.4360   47.0710 H   0  0  0  0  0  0  0  0  0  0  0  0
   55.1350   27.1888   45.5199 H   0  0  0  0  0  0  0  0  0  0  0  0
   55.9307   25.5783   45.5199 H   0  0  0  0  0  0  0  0  0  0  0  0
   60.0000   30.3110   44.0210 H   0  0  0  0  0  0  0  0  0  0  0  0
   58.4950   30.1050   43.3390 H   0  0  0  0  0  0  0  0  0  0  0  0
   56.9346   31.7982   43.5980 H   0  0  0  0  0  0  0  0  0  0  0  0
   56.1654   33.8163   44.8420 H   0  0  0  0  0  0  0  0  0  0  0  0
   57.3266   34.5174   46.9341 H   0  0  0  0  0  0  0  0  0  0  0  0
   59.2678   33.2045   47.7858 H   0  0  0  0  0  0  0  0  0  0  0  0
   60.7788   28.8826   45.7338 H   0  0  0  0  0  0  0  0  0  0  0  0
  1  2  1  0
  2  3  2  0
  3  4  1  0
  4  5  1  0
  4  6  2  0
  6  7  1  0
  7  8  2  0
  7  9  1  0
  6 10  1  0
 10 11  1  0
 11 12  1  0
 12 13  2  0
 13 14  1  0
 14 15  2  0
 15 16  1  0
 16 17  2  0
 17 18  1  0
 10 19  2  0
 19  2  1  0
 17 12  1  0
  1 20  1  0
  1 21  1  0
  1 22  1  0
  3 23  1  0
  5 24  1  0
  5 25  1  0
  5 26  1  0
 11 27  1  0
 11 28  1  0
 13 29  1  0
 14 30  1  0
 15 31  1  0
 16 32  1  0
 19 33  1  0
M  CHG  2   9  -1  11   1
M  END
>  <UniqueID>  (49) 
42

>  <SMILES>  (49) 
Cc1cc(C)c(C(=O)[O-])c([NH2+]c2ccccc2F)c1

>  <Energy>  (49) 
46.279440196040596

>  <Genealogy>  (49) 
Cc1cc(C)c(C(=O)[O-])c([NH2+]c2ccccc2F)c1 (protonated)
Cc1cc(C)c(C(=O)[O-])c([NH2+]c2ccccc2F)c1 (3D coordinates assigned)
Cc1cc(C)c(C(=O)[O-])c([NH2+]c2ccccc2F)c1 (optimized conformer: 46.279440196040596 kcal/mol)

>  <smiles>  (49) 
Cc1cc(C)c(C(=O)O)c(Nc2ccccc2F)c1

>  <score_type>  (49) 
oracle

>  <origin>  (49) 
adg

>  <m_score__min__energy>  (49) 
-7.3399999999999999

>  <m_primary>  (49) 
energy

$$$$
49:0
     RDKit          3D

 49 53  0  0  0  0  0  0  0  0999 V2000
   59.5380   30.3870   48.1320 O   0  0  0  0  0  0  0  0  0  0  0  0
   60.5340   30.1600   47.3950 C   0  0  0  0  0  0  0  0  0  0  0  0
   60.7620   28.7890   46.8330 C   0  0  0  0  0  0  0  0  0  0  0  0
   59.5480   27.9770   46.9100 N   0  0  0  0  0  0  0  0  0  0  0  0
   59.5270   26.8370   47.5960 N   0  0  0  0  0  0  0  0  0  0  0  0
   58.3230   26.2510   47.4350 C   0  0  0  0  0  0  0  0  0  0  0  0
   57.5690   27.0510   46.6090 C   0  0  0  0  0  0  0  0  0  0  0  0
   56.2950   26.8900   46.0860 C   0  0  0  0  0  0  0  0  0  0  0  0
   55.5970   25.8840   46.3740 O   0  0  0  0  0  0  0  0  0  0  0  0
   55.8230   27.8190   45.2580 O   0  0  0  0  0  0  0  0  0  0  0  0
   56.5200   28.9100   44.9160 C   0  0  0  0  0  0  0  0  0  0  0  0
   55.9430   29.8330   44.0390 C   0  0  0  0  0  0  0  0  0  0  0  0
   56.6380   30.9870   43.6770 C   0  0  0  0  0  0  0  0  0  0  0  0
   57.9090   31.2340   44.1980 C   0  0  0  0  0  0  0  0  0  0  0  0
   58.5020   30.3250   45.0780 C   0  0  0  0  0  0  0  0  0  0  0  0
   57.8320   29.1380   45.4350 C   0  0  0  0  0  0  0  0  0  0  0  0
   58.3420   28.1350   46.2960 C   0  0  0  0  0  0  0  0  0  0  0  0
   61.4140   31.2240   47.0180 N   0  0  0  0  0  0  0  0  0  0  0  0
   61.9450   32.2120   47.9120 C   0  0  0  0  0  0  0  0  0  0  0  0
   63.1640   32.0010   48.5820 C   0  0  0  0  0  0  0  0  0  0  0  0
   63.6930   32.9970   49.4080 C   0  0  0  0  0  0  0  0  0  0  0  0
   63.0160   34.2090   49.5680 C   0  0  0  0  0  0  0  0  0  0  0  0
   61.8130   34.4330   48.8950 C   0  0  0  0  0  0  0  0  0  0  0  0
   61.2750   33.4420   48.0620 C   0  0  0  0  0  0  0  0  0  0  0  0
   60.0410   33.6950   47.3790 N   0  0  0  0  0  0  0  0  0  0  0  0
   58.7810   33.3300   48.0290 C   0  0  0  0  0  0  0  0  0  0  0  0
   57.6930   33.1270   46.9670 C   0  0  0  0  0  0  0  0  0  0  0  0
   57.6240   34.2440   46.1000 O   0  0  0  0  0  0  0  0  0  0  0  0
   58.8260   34.3490   45.3590 C   0  0  0  0  0  0  0  0  0  0  0  0
   60.0040   34.6640   46.2830 C   0  0  0  0  0  0  0  0  0  0  0  0
   61.0672   28.8791   45.7800 H   0  0  0  0  0  0  0  0  0  0  0  0
   61.5483   28.2967   47.4241 H   0  0  0  0  0  0  0  0  0  0  0  0
   58.0009   25.3004   47.8852 H   0  0  0  0  0  0  0  0  0  0  0  0
   54.9374   29.6487   43.6329 H   0  0  0  0  0  0  0  0  0  0  0  0
   56.1828   31.7047   42.9786 H   0  0  0  0  0  0  0  0  0  0  0  0
   58.4474   32.1502   43.9140 H   0  0  0  0  0  0  0  0  0  0  0  0
   59.4977   30.5373   45.4945 H   0  0  0  0  0  0  0  0  0  0  0  0
   63.7021   31.0500   48.4556 H   0  0  0  0  0  0  0  0  0  0  0  0
   64.6443   32.8263   49.9332 H   0  0  0  0  0  0  0  0  0  0  0  0
   63.4312   34.9876   50.2249 H   0  0  0  0  0  0  0  0  0  0  0  0
   61.2857   35.3904   49.0189 H   0  0  0  0  0  0  0  0  0  0  0  0
   58.9182   32.3970   48.5953 H   0  0  0  0  0  0  0  0  0  0  0  0
   58.4769   34.1355   48.7137 H   0  0  0  0  0  0  0  0  0  0  0  0
   57.9264   32.2273   46.3786 H   0  0  0  0  0  0  0  0  0  0  0  0
   56.7229   33.0120   47.4727 H   0  0  0  0  0  0  0  0  0  0  0  0
   59.0165   33.3966   44.8427 H   0  0  0  0  0  0  0  0  0  0  0  0
   58.7213   35.1645   44.6282 H   0  0  0  0  0  0  0  0  0  0  0  0
   60.9425   34.6070   45.7121 H   0  0  0  0  0  0  0  0  0  0  0  0
   59.8845   35.6770   46.6949 H   0  0  0  0  0  0  0  0  0  0  0  0
  1  2  2  0
  2  3  1  0
  3  4  1  0
  4  5  1  0
  5  6  2  0
  6  7  1  0
  7  8  1  0
  8  9  2  0
  8 10  1  0
 10 11  1  0
 11 12  2  0
 12 13  1  0
 13 14  2  0
 14 15  1  0
 15 16  2  0
 16 17  1  0
  2 18  1  0
 18 19  1  0
 19 20  2  0
 20 21  1  0
 21 22  2  0
 22 23  1  0
 23 24  2  0
 24 25  1  0
 25 26  1  0
 26 27  1  0
 27 28  1  0
 28 29  1  0
 29 30  1  0
 17  4  1  0
 24 19  1  0
 30 25  1  0
 17  7  2  0
 16 11  1  0
  3 31  1  0
  3 32  1  0
  6 33  1  0
 12 34  1  0
 13 35  1  0
 14 36  1  0
 15 37  1  0
 20 38  1  0
 21 39  1  0
 22 40  1  0
 23 41  1  0
 26 42  1  0
 26 43  1  0
 27 44  1  0
 27 45  1  0
 29 46  1  0
 29 47  1  0
 30 48  1  0
 30 49  1  0
M  CHG  1  18  -1
M  END
>  <UniqueID>  (50) 
43

>  <SMILES>  (50) 
O=C(Cn1ncc2c(=O)oc3ccccc3c21)[N-]c1ccccc1N1CCOCC1

>  <Energy>  (50) 
112.77259126490095

>  <Genealogy>  (50) 
O=C(Cn1ncc2c(=O)oc3ccccc3c21)[N-]c1ccccc1N1CCOCC1 (protonated)
O=C(Cn1ncc2c(=O)oc3ccccc3c21)[N-]c1ccccc1N1CCOCC1 (3D coordinates assigned)
O=C(Cn1ncc2c(=O)oc3ccccc3c21)[N-]c1ccccc1N1CCOCC1 (nonaromatic ring conformer: 112.77259126490095 kcal/mol)

>  <smiles>  (50) 
O=C(Cn1ncc2c(=O)oc3ccccc3c21)Nc1ccccc1N1CCOCC1

>  <score_type>  (50) 
oracle

>  <origin>  (50) 
adg

>  <m_score__min__energy>  (50) 
-9.7899999999999991

>  <m_primary>  (50) 
energy

$$$$
50:0
     RDKit          3D

 59 61  0  0  0  0  0  0  0  0999 V2000
   63.2330   33.7830   46.3950 C   0  0  0  0  0  0  0  0  0  0  0  0
   63.0450   32.7930   47.5400 C   0  0  0  0  0  0  0  0  0  0  0  0
   62.2690   33.3760   48.5850 O   0  0  0  0  0  0  0  0  0  0  0  0
   61.5150   32.6250   49.4940 C   0  0  0  0  0  0  0  0  0  0  0  0
   62.0310   31.6490   50.1050 O   0  0  0  0  0  0  0  0  0  0  0  0
   60.0890   33.0210   49.7660 C   0  0  2  0  0  0  0  0  0  0  0  0
   59.6820   34.2450   48.9290 C   0  0  0  0  0  0  0  0  0  0  0  0
   59.2870   33.8900   47.5140 C   0  0  0  0  0  0  0  0  0  0  0  0
   59.3600   34.8550   46.4970 C   0  0  0  0  0  0  0  0  0  0  0  0
   58.9650   34.5440   45.1930 C   0  0  0  0  0  0  0  0  0  0  0  0
   58.4870   33.2630   44.8890 C   0  0  0  0  0  0  0  0  0  0  0  0
   58.0850   32.9400   43.5830 C   0  0  0  0  0  0  0  0  0  0  0  0
   57.6070   31.6590   43.2920 C   0  0  0  0  0  0  0  0  0  0  0  0
   57.5270   30.6920   44.2990 C   0  0  0  0  0  0  0  0  0  0  0  0
   57.9240   31.0010   45.6040 C   0  0  0  0  0  0  0  0  0  0  0  0
   58.4070   32.2830   45.9090 C   0  0  0  0  0  0  0  0  0  0  0  0
   58.8080   32.6040   47.2150 C   0  0  0  0  0  0  0  0  0  0  0  0
   59.8870   33.2920   51.1900 N   0  0  0  0  0  0  0  0  0  0  0  0
   58.6520   33.1330   51.8990 C   0  0  0  0  0  0  0  0  0  0  0  0
   57.9180   34.1440   52.0630 O   0  0  0  0  0  0  0  0  0  0  0  0
   58.1850   31.7770   52.3740 C   0  0  0  0  0  0  0  0  0  0  0  0
   58.5600   30.6520   51.4020 C   0  0  0  0  0  0  0  0  0  0  0  0
   57.6770   29.5060   51.5900 N   0  0  0  0  0  0  0  0  0  0  0  0
   56.8430   29.3270   52.7410 C   0  0  0  0  0  0  0  0  0  0  0  0
   57.2810   28.6860   53.7360 O   0  0  0  0  0  0  0  0  0  0  0  0
   55.4740   29.8920   52.7670 C   0  0  0  0  0  0  0  0  0  0  0  0
   55.0330   30.7450   51.7380 C   0  0  0  0  0  0  0  0  0  0  0  0
   53.7420   31.2800   51.7640 C   0  0  0  0  0  0  0  0  0  0  0  0
   52.8710   30.9710   52.8170 C   0  0  0  0  0  0  0  0  0  0  0  0
   51.2530   31.6650   52.8510 S   0  0  0  0  0  0  0  0  0  0  0  0
   51.0470   32.7160   51.4960 N   0  0  0  0  0  0  0  0  0  0  0  0
   50.2310   30.5630   52.7910 O   0  0  0  0  0  0  0  0  0  0  0  0
   51.0510   32.4410   54.1220 O   0  0  0  0  0  0  0  0  0  0  0  0
   53.3060   30.1320   53.8490 C   0  0  0  0  0  0  0  0  0  0  0  0
   54.5950   29.5920   53.8240 C   0  0  0  0  0  0  0  0  0  0  0  0
   63.4234   34.7858   46.8049 H   0  0  0  0  0  0  0  0  0  0  0  0
   64.0879   33.4710   45.7772 H   0  0  0  0  0  0  0  0  0  0  0  0
   62.3232   33.8061   45.7772 H   0  0  0  0  0  0  0  0  0  0  0  0
   62.5290   31.8977   47.1628 H   0  0  0  0  0  0  0  0  0  0  0  0
   64.0330   32.5222   47.9406 H   0  0  0  0  0  0  0  0  0  0  0  0
   59.4478   32.1762   49.4743 H   0  0  0  0  0  0  0  0  0  0  0  0
   58.8277   34.7356   49.4185 H   0  0  0  0  0  0  0  0  0  0  0  0
   60.5580   34.9076   48.8689 H   0  0  0  0  0  0  0  0  0  0  0  0
   59.7312   35.8643   46.7284 H   0  0  0  0  0  0  0  0  0  0  0  0
   59.0297   35.3071   44.4034 H   0  0  0  0  0  0  0  0  0  0  0  0
   58.1463   33.6967   42.7870 H   0  0  0  0  0  0  0  0  0  0  0  0
   57.2927   31.4108   42.2675 H   0  0  0  0  0  0  0  0  0  0  0  0
   57.1507   29.6854   44.0641 H   0  0  0  0  0  0  0  0  0  0  0  0
   57.8575   30.2375   46.3931 H   0  0  0  0  0  0  0  0  0  0  0  0
   58.7469   31.8446   48.0085 H   0  0  0  0  0  0  0  0  0  0  0  0
   58.6460   31.5675   53.3505 H   0  0  0  0  0  0  0  0  0  0  0  0
   57.0875   31.8070   52.4424 H   0  0  0  0  0  0  0  0  0  0  0  0
   58.4648   31.0180   50.3691 H   0  0  0  0  0  0  0  0  0  0  0  0
   59.5969   30.3409   51.5972 H   0  0  0  0  0  0  0  0  0  0  0  0
   55.7097   30.9926   50.9068 H   0  0  0  0  0  0  0  0  0  0  0  0
   53.4086   31.9462   50.9547 H   0  0  0  0  0  0  0  0  0  0  0  0
   50.2690   32.3210   50.9190 H   0  0  0  0  0  0  0  0  0  0  0  0
   52.6301   29.8962   54.6842 H   0  0  0  0  0  0  0  0  0  0  0  0
   54.9246   28.9277   54.6365 H   0  0  0  0  0  0  0  0  0  0  0  0
  1  2  1  0
  2  3  1  0
  3  4  1  0
  4  5  2  0
  4  6  1  0
  6  7  1  0
  7  8  1  0
  8  9  2  0
  9 10  1  0
 10 11  2  0
 11 12  1  0
 12 13  2  0
 13 14  1  0
 14 15  2  0
 15 16  1  0
 16 17  2  0
  6 18  1  0
 18 19  1  0
 19 20  2  0
 19 21  1  0
 21 22  1  0
 22 23  1  0
 23 24  1  0
 24 25  2  0
 24 26  1  0
 26 27  2  0
 27 28  1  0
 28 29  2  0
 29 30  1  0
 30 31  1  0
 30 32  2  0
 30 33  2  0
 29 34  1  0
 34 35  2  0
 17  8  1  0
 35 26  1  0
 16 11  1  0
  1 36  1  0
  1 37  1  0
  1 38  1  0
  2 39  1  0
  2 40  1  0
  6 41  1  6
  7 42  1  0
  7 43  1  0
  9 44  1  0
 10 45  1  0
 12 46  1  0
 13 47  1  0
 14 48  1  0
 15 49  1  0
 17 50  1  0
 21 51  1  0
 21 52  1  0
 22 53  1  0
 22 54  1  0
 27 55  1  0
 28 56  1  0
 31 57  1  0
 34 58  1  0
 35 59  1  0
M  CHG  3  18  -1  23  -1  31  -1
M  END
>  <UniqueID>  (51) 
44

>  <SMILES>  (51) 
CCOC(=O)[C@H](Cc1ccc2ccccc2c1)[N-]C(=O)CC[N-]C(=O)c1ccc(S([NH-])(=O)=O)cc1

>  <Energy>  (51) 
52.319833310959304

>  <Genealogy>  (51) 
CCOC(=O)C(Cc1ccc2ccccc2c1)[N-]C(=O)CC[N-]C(=O)c1ccc(S([NH-])(=O)=O)cc1 (protonated)
CCOC(=O)[C@H](Cc1ccc2ccccc2c1)[N-]C(=O)CC[N-]C(=O)c1ccc(S([NH-])(=O)=O)cc1 (chirality)
CCOC(=O)[C@H](Cc1ccc2ccccc2c1)[N-]C(=O)CC[N-]C(=O)c1ccc(S([NH-])(=O)=O)cc1 (3D coordinates assigned)
CCOC(=O)[C@H](Cc1ccc2ccccc2c1)[N-]C(=O)CC[N-]C(=O)c1ccc(S([NH-])(=O)=O)cc1 (optimized conformer: 52.319833310959304 kcal/mol)

>  <smiles>  (51) 
CCOC(=O)C(Cc1ccc2ccccc2c1)NC(=O)CCNC(=O)c1ccc(S(N)(=O)=O)cc1

>  <score_type>  (51) 
oracle

>  <origin>  (51) 
adg

>  <m_score__min__energy>  (51) 
-14.09

>  <m_primary>  (51) 
energy

$$$$
51:0
     RDKit          3D

 49 50  0  0  0  0  0  0  0  0999 V2000
   58.0930   34.1750   45.6660 C   0  0  0  0  0  0  0  0  0  0  0  0
   57.5260   33.2700   44.5790 C   0  0  0  0  0  0  0  0  0  0  0  0
   56.8080   32.1810   45.1550 O   0  0  0  0  0  0  0  0  0  0  0  0
   56.6280   30.9490   44.5140 C   0  0  0  0  0  0  0  0  0  0  0  0
   55.4840   30.4140   44.4800 O   0  0  0  0  0  0  0  0  0  0  0  0
   57.7760   30.2760   43.9440 N   0  0  0  0  0  0  0  0  0  0  0  0
   58.8590   30.1510   44.9400 C   0  0  0  0  0  0  0  0  0  0  0  0
   58.5260   29.1370   46.0590 C   0  0  0  0  0  0  0  0  0  0  0  0
   57.5020   28.1590   45.6400 N   0  0  0  0  0  0  0  0  0  0  0  0
   57.3230   27.0240   46.5790 C   0  0  0  0  0  0  0  0  0  0  0  0
   56.9470   25.7000   45.9110 C   0  0  0  0  0  0  0  0  0  0  0  0
   57.9220   24.7110   45.6140 C   0  0  0  0  0  0  0  0  0  0  0  0
   59.3560   24.8340   46.0720 C   0  0  0  0  0  0  0  0  0  0  0  0
   57.5430   23.5480   44.9270 C   0  0  0  0  0  0  0  0  0  0  0  0
   56.2070   23.3200   44.5630 C   0  0  0  0  0  0  0  0  0  0  0  0
   55.8230   22.1760   43.8400 O   0  0  0  0  0  0  0  0  0  0  0  0
   56.7040   21.1260   43.4540 C   0  0  0  0  0  0  0  0  0  0  0  0
   55.2230   24.2490   44.9400 C   0  0  0  0  0  0  0  0  0  0  0  0
   53.7800   24.0130   44.5650 C   0  0  0  0  0  0  0  0  0  0  0  0
   55.5930   25.4310   45.6100 C   0  0  0  0  0  0  0  0  0  0  0  0
   54.6030   26.3300   45.9950 O   0  0  0  0  0  0  0  0  0  0  0  0
   57.6620   27.7620   44.2340 C   0  0  0  0  0  0  0  0  0  0  0  0
   57.4290   28.9770   43.3110 C   0  0  0  0  0  0  0  0  0  0  0  0
   57.8367   33.7658   46.6544 H   0  0  0  0  0  0  0  0  0  0  0  0
   59.1869   34.2294   45.5641 H   0  0  0  0  0  0  0  0  0  0  0  0
   57.6647   35.1831   45.5641 H   0  0  0  0  0  0  0  0  0  0  0  0
   56.8462   33.8538   43.9410 H   0  0  0  0  0  0  0  0  0  0  0  0
   58.3585   32.8691   43.9821 H   0  0  0  0  0  0  0  0  0  0  0  0
   58.1340   30.9010   43.1820 H   0  0  0  0  0  0  0  0  0  0  0  0
   59.7735   29.8202   44.4259 H   0  0  0  0  0  0  0  0  0  0  0  0
   58.9916   31.1356   45.4123 H   0  0  0  0  0  0  0  0  0  0  0  0
   59.4438   28.5946   46.3299 H   0  0  0  0  0  0  0  0  0  0  0  0
   58.1251   29.6992   46.9153 H   0  0  0  0  0  0  0  0  0  0  0  0
   58.2669   26.8775   47.1245 H   0  0  0  0  0  0  0  0  0  0  0  0
   56.4828   27.2919   47.2364 H   0  0  0  0  0  0  0  0  0  0  0  0
   59.3908   24.8370   47.1714 H   0  0  0  0  0  0  0  0  0  0  0  0
   59.9375   23.9824   45.6891 H   0  0  0  0  0  0  0  0  0  0  0  0
   59.7840   25.7722   45.6891 H   0  0  0  0  0  0  0  0  0  0  0  0
   58.3076   22.8006   44.6687 H   0  0  0  0  0  0  0  0  0  0  0  0
   57.1116   20.6403   44.3529 H   0  0  0  0  0  0  0  0  0  0  0  0
   56.1525   20.3860   42.8555 H   0  0  0  0  0  0  0  0  0  0  0  0
   57.5285   21.5406   42.8555 H   0  0  0  0  0  0  0  0  0  0  0  0
   53.1752   23.9141   45.4785 H   0  0  0  0  0  0  0  0  0  0  0  0
   53.4116   24.8628   43.9716 H   0  0  0  0  0  0  0  0  0  0  0  0
   53.7016   23.0901   43.9716 H   0  0  0  0  0  0  0  0  0  0  0  0
   58.6804   27.3765   44.0782 H   0  0  0  0  0  0  0  0  0  0  0  0
   56.9258   26.9807   43.9941 H   0  0  0  0  0  0  0  0  0  0  0  0
   58.0465   28.8529   42.4092 H   0  0  0  0  0  0  0  0  0  0  0  0
   56.3541   29.0064   43.0791 H   0  0  0  0  0  0  0  0  0  0  0  0
  1  2  1  0
  2  3  1  0
  3  4  1  0
  4  5  2  0
  4  6  1  0
  6  7  1  0
  7  8  1  0
  8  9  1  0
  9 10  1  0
 10 11  1  0
 11 12  2  0
 12 13  1  0
 12 14  1  0
 14 15  2  0
 15 16  1  0
 16 17  1  0
 15 18  1  0
 18 19  1  0
 18 20  2  0
 20 21  1  0
  9 22  1  0
 22 23  1  0
 23  6  1  0
 20 11  1  0
  1 24  1  0
  1 25  1  0
  1 26  1  0
  2 27  1  0
  2 28  1  0
  6 29  1  0
  7 30  1  0
  7 31  1  0
  8 32  1  0
  8 33  1  0
 10 34  1  0
 10 35  1  0
 13 36  1  0
 13 37  1  0
 13 38  1  0
 14 39  1  0
 17 40  1  0
 17 41  1  0
 17 42  1  0
 19 43  1  0
 19 44  1  0
 19 45  1  0
 22 46  1  0
 22 47  1  0
 23 48  1  0
 23 49  1  0
M  CHG  2   6   1  21  -1
M  END
>  <UniqueID>  (52) 
45

>  <SMILES>  (52) 
CCOC(=O)[NH+]1CCN(Cc2c(C)cc(OC)c(C)c2[O-])CC1

>  <Energy>  (52) 
64.28942453830271

>  <Genealogy>  (52) 
CCOC(=O)[NH+]1CCN(Cc2c(C)cc(OC)c(C)c2[O-])CC1 (protonated)
CCOC(=O)[NH+]1CCN(Cc2c(C)cc(OC)c(C)c2[O-])CC1 (3D coordinates assigned)
CCOC(=O)[NH+]1CCN(Cc2c(C)cc(OC)c(C)c2[O-])CC1 (nonaromatic ring conformer: 64.28942453830271 kcal/mol)

>  <smiles>  (52) 
CCOC(=O)N1CCN(Cc2c(C)cc(OC)c(C)c2O)CC1

>  <score_type>  (52) 
oracle

>  <origin>  (52) 
adg

>  <m_score__min__energy>  (52) 
-10.08

>  <m_primary>  (52) 
energy

$$$$
52:0
     RDKit          3D

 31 32  0  0  0  0  0  0  0  0999 V2000
   56.7560   29.0380   42.8700 N   0  0  0  0  0  0  0  0  0  0  0  0
   56.3340   29.4760   44.4890 S   0  0  0  0  0  0  0  0  0  0  0  0
   55.1820   30.4420   44.4620 O   0  0  0  0  0  0  0  0  0  0  0  0
   55.9140   28.2490   45.2470 O   0  0  0  0  0  0  0  0  0  0  0  0
   57.7200   30.2220   45.2790 C   0  0  0  0  0  0  0  0  0  0  0  0
   58.5570   29.4570   46.1010 C   0  0  0  0  0  0  0  0  0  0  0  0
   59.6650   30.0460   46.7150 C   0  0  0  0  0  0  0  0  0  0  0  0
   59.9460   31.3990   46.5090 C   0  0  0  0  0  0  0  0  0  0  0  0
   59.1140   32.1760   45.6840 C   0  0  0  0  0  0  0  0  0  0  0  0
   59.3610   33.5690   45.4460 N   0  0  0  0  0  0  0  0  0  0  0  0
   59.7830   34.7310   46.6620 S   0  0  0  0  0  0  0  0  0  0  0  0
   59.9970   36.0680   46.0100 O   0  0  0  0  0  0  0  0  0  0  0  0
   58.6550   34.8400   47.6490 O   0  0  0  0  0  0  0  0  0  0  0  0
   61.2360   34.2140   47.5130 C   0  0  0  0  0  0  0  0  0  0  0  0
   61.2690   34.2000   48.9150 C   0  0  0  0  0  0  0  0  0  0  0  0
   62.4280   33.7990   49.5860 C   0  0  0  0  0  0  0  0  0  0  0  0
   63.5580   33.4070   48.8610 C   0  0  0  0  0  0  0  0  0  0  0  0
   65.0120   32.9060   49.7040 Cl  0  0  0  0  0  0  0  0  0  0  0  0
   63.5260   33.4140   47.4620 C   0  0  0  0  0  0  0  0  0  0  0  0
   62.3680   33.8150   46.7890 C   0  0  0  0  0  0  0  0  0  0  0  0
   58.0070   31.5780   45.0680 C   0  0  0  0  0  0  0  0  0  0  0  0
   56.6960   27.9960   42.8110 H   0  0  0  0  0  0  0  0  0  0  0  0
   57.7610   29.2900   42.7380 H   0  0  0  0  0  0  0  0  0  0  0  0
   58.3416   28.3906   46.2634 H   0  0  0  0  0  0  0  0  0  0  0  0
   60.3182   29.4427   47.3626 H   0  0  0  0  0  0  0  0  0  0  0  0
   60.8206   31.8576   46.9936 H   0  0  0  0  0  0  0  0  0  0  0  0
   60.3810   34.5052   49.4879 H   0  0  0  0  0  0  0  0  0  0  0  0
   62.4513   33.7918   50.6857 H   0  0  0  0  0  0  0  0  0  0  0  0
   64.4134   33.1035   46.8909 H   0  0  0  0  0  0  0  0  0  0  0  0
   62.3452   33.8174   45.6892 H   0  0  0  0  0  0  0  0  0  0  0  0
   57.3574   32.1774   44.4132 H   0  0  0  0  0  0  0  0  0  0  0  0
  1  2  1  0
  2  3  2  0
  2  4  2  0
  2  5  1  0
  5  6  2  0
  6  7  1  0
  7  8  2  0
  8  9  1  0
  9 10  1  0
 10 11  1  0
 11 12  2  0
 11 13  2  0
 11 14  1  0
 14 15  2  0
 15 16  1  0
 16 17  2  0
 17 18  1  0
 17 19  1  0
 19 20  2  0
  9 21  2  0
 21  5  1  0
 20 14  1  0
  1 22  1  0
  1 23  1  0
  6 24  1  0
  7 25  1  0
  8 26  1  0
 15 27  1  0
 16 28  1  0
 19 29  1  0
 20 30  1  0
 21 31  1  0
M  CHG  1  10  -1
M  END
>  <UniqueID>  (53) 
46

>  <SMILES>  (53) 
NS(=O)(=O)c1cccc([N-]S(=O)(=O)c2ccc(Cl)cc2)c1

>  <Energy>  (53) 
33.06032985523368

>  <Genealogy>  (53) 
NS(=O)(=O)c1cccc([N-]S(=O)(=O)c2ccc(Cl)cc2)c1 (protonated)
NS(=O)(=O)c1cccc([N-]S(=O)(=O)c2ccc(Cl)cc2)c1 (3D coordinates assigned)
NS(=O)(=O)c1cccc([N-]S(=O)(=O)c2ccc(Cl)cc2)c1 (optimized conformer: 33.06032985523368 kcal/mol)

>  <smiles>  (53) 
NS(=O)(=O)c1cccc(NS(=O)(=O)c2ccc(Cl)cc2)c1

>  <score_type>  (53) 
oracle

>  <origin>  (53) 
adg

>  <m_score__min__energy>  (53) 
-9.7200000000000006

>  <m_primary>  (53) 
energy

$$$$
53:0
     RDKit          3D

 62 65  0  0  0  0  0  0  0  0999 V2000
   63.7032   32.2630   46.9648 H   0  0  0  0  0  0  0  0  0  0  0  0
   63.2570   33.1240   47.4840 C   0  0  0  0  0  0  0  0  0  0  0  0
   59.5550   28.1900   45.1830 C   0  0  0  0  0  0  0  0  0  0  0  0
   60.4825   28.2578   44.5955 H   0  0  0  0  0  0  0  0  0  0  0  0
   58.4510   29.1290   44.8700 C   0  0  0  0  0  0  0  0  0  0  0  0
   57.1360   28.6380   44.8250 C   0  0  0  0  0  0  0  0  0  0  0  0
   56.9422   27.5763   45.0377 H   0  0  0  0  0  0  0  0  0  0  0  0
   58.9640   33.0980   48.3240 C   0  0  0  0  0  0  0  0  0  0  0  0
   58.4390   32.7170   49.5530 O   0  0  0  0  0  0  0  0  0  0  0  0
   58.1140   33.2770   47.2290 C   0  0  0  0  0  0  0  0  0  0  0  0
   57.0324   33.1113   47.3420 H   0  0  0  0  0  0  0  0  0  0  0  0
   58.6350   33.6670   45.9870 C   0  0  0  0  0  0  0  0  0  0  0  0
   57.7280   33.7870   44.7910 C   0  0  0  0  0  0  0  0  0  0  0  0
   57.9569   34.7181   44.2518 H   0  0  0  0  0  0  0  0  0  0  0  0
   56.6817   33.8010   45.1302 H   0  0  0  0  0  0  0  0  0  0  0  0
   57.9240   32.6740   43.9180 O   0  0  0  0  0  0  0  0  0  0  0  0
   57.6250   31.3370   44.2300 C   0  0  0  0  0  0  0  0  0  0  0  0
   56.3110   30.8330   44.2230 C   0  0  0  0  0  0  0  0  0  0  0  0
   55.4691   31.5012   43.9890 H   0  0  0  0  0  0  0  0  0  0  0  0
   56.0720   29.4880   44.5120 C   0  0  0  0  0  0  0  0  0  0  0  0
   54.7730   28.9940   44.4890 O   0  0  0  0  0  0  0  0  0  0  0  0
   60.3410   33.2970   48.1850 C   0  0  0  0  0  0  0  0  0  0  0  0
   61.0062   33.1394   49.0468 H   0  0  0  0  0  0  0  0  0  0  0  0
   58.6540   26.0310   46.0330 C   0  0  0  0  0  0  0  0  0  0  0  0
   59.4770   27.2610   46.1490 C   0  0  0  0  0  0  0  0  0  0  0  0
   60.0521   27.4192   47.0733 H   0  0  0  0  0  0  0  0  0  0  0  0
   62.3440   33.8470   46.8170 C   0  0  0  0  0  0  0  0  0  0  0  0
   62.7131   34.6095   46.1154 H   0  0  0  0  0  0  0  0  0  0  0  0
   60.8780   33.6960   46.9540 C   0  0  0  0  0  0  0  0  0  0  0  0
   59.2290   24.7700   45.7770 C   0  0  0  0  0  0  0  0  0  0  0  0
   60.3164   24.6853   45.6339 H   0  0  0  0  0  0  0  0  0  0  0  0
   58.4240   23.6190   45.7030 C   0  0  0  0  0  0  0  0  0  0  0  0
   58.9550   22.3450   45.4440 O   0  0  0  0  0  0  0  0  0  0  0  0
   58.4150   21.1230   45.9330 C   0  0  0  0  0  0  0  0  0  0  0  0
   58.4199   21.1341   47.0329 H   0  0  0  0  0  0  0  0  0  0  0  0
   57.3823   21.0081   45.5721 H   0  0  0  0  0  0  0  0  0  0  0  0
   59.0253   20.2820   45.5721 H   0  0  0  0  0  0  0  0  0  0  0  0
   57.0390   23.7370   45.8950 C   0  0  0  0  0  0  0  0  0  0  0  0
   56.2390   22.6010   45.8200 O   0  0  0  0  0  0  0  0  0  0  0  0
   56.4530   24.9820   46.1630 C   0  0  0  0  0  0  0  0  0  0  0  0
   55.0640   25.0410   46.3530 O   0  0  0  0  0  0  0  0  0  0  0  0
   54.1040   24.4670   45.4730 C   0  0  0  0  0  0  0  0  0  0  0  0
   53.3063   23.9900   46.0614 H   0  0  0  0  0  0  0  0  0  0  0  0
   53.6709   25.2545   44.8387 H   0  0  0  0  0  0  0  0  0  0  0  0
   54.5928   23.7128   44.8387 H   0  0  0  0  0  0  0  0  0  0  0  0
   57.2680   26.1260   46.2340 C   0  0  0  0  0  0  0  0  0  0  0  0
   56.8148   27.1049   46.4492 H   0  0  0  0  0  0  0  0  0  0  0  0
   58.6830   30.4860   44.5690 C   0  0  0  0  0  0  0  0  0  0  0  0
   59.7090   30.8815   44.6009 H   0  0  0  0  0  0  0  0  0  0  0  0
   60.0190   33.8610   45.8530 C   0  0  0  0  0  0  0  0  0  0  0  0
   60.4361   34.1453   44.8757 H   0  0  0  0  0  0  0  0  0  0  0  0
   63.7070   33.3990   48.8640 C   0  0  0  0  0  0  0  0  0  0  0  0
   62.9770   34.2530   49.7110 C   0  0  0  0  0  0  0  0  0  0  0  0
   62.0710   34.7519   49.3365 H   0  0  0  0  0  0  0  0  0  0  0  0
   63.3990   34.4710   51.0300 C   0  0  0  0  0  0  0  0  0  0  0  0
   62.8308   35.1481   51.6848 H   0  0  0  0  0  0  0  0  0  0  0  0
   64.5430   33.8270   51.5130 C   0  0  0  0  0  0  0  0  0  0  0  0
   64.9660   34.0470   52.8180 O   0  0  0  0  0  0  0  0  0  0  0  0
   65.2610   32.9610   50.6820 C   0  0  0  0  0  0  0  0  0  0  0  0
   66.1588   32.4529   51.0639 H   0  0  0  0  0  0  0  0  0  0  0  0
   64.8400   32.7390   49.3650 C   0  0  0  0  0  0  0  0  0  0  0  0
   65.3993   32.0448   48.7206 H   0  0  0  0  0  0  0  0  0  0  0  0
  1  2  1  0
  2  3  2  0
  3  4  1  0
  3  5  1  0
  5  6  2  0
  6  7  1  0
  6  8  1  0
  8  9  1  0
  8 10  2  0
 10 11  1  0
 10 12  1  0
 12 13  1  0
 13 14  1  0
 13 15  1  0
 13 16  1  0
 16 17  1  0
 17 18  2  0
 18 19  1  0
 18 20  1  0
 20 21  1  0
 20 22  2  0
 22 23  1  0
 22 24  1  0
 24 25  1  0
 25 26  1  0
 25 27  2  0
 27 28  1  0
 27 29  1  0
 29 30  2  0
 30 31  1  0
 30 32  1  0
 32 33  1  0
 33 34  1  0
 34 35  1  0
 34 36  1  0
 34 37  1  0
 32 38  2  0
 38 39  1  0
 38 40  1  0
 40 41  1  0
 41 42  1  0
 42 43  1  0
 42 44  1  0
 42 45  1  0
 40 46  2  0
 46 47  1  0
 24 48  2  0
 48 49  1  0
 12 50  2  0
 50 51  1  0
  2 52  1  0
 52 53  2  0
 53 54  1  0
 53 55  1  0
 55 56  1  0
 55 57  2  0
 57 58  1  0
 57 59  1  0
 59 60  1  0
 59 61  2  0
 61 62  1  0
 50  5  1  0
 61 52  1  0
 48 17  1  0
 46 29  1  0
M  CHG  4   9  -1  21  -1  39  -1  58  -1
M  END
>  <UniqueID>  (54) 
47

>  <SMILES>  (54) 
COc1cc(/C=C/c2cc([O-])cc(OCc3cc([O-])cc(/C=C\c4ccc([O-])cc4)c3)c2)cc(OC)c1[O-]

>  <Energy>  (54) 
81.23757111465324

>  <Genealogy>  (54) 
COc1cc(C=Cc2cc([O-])cc(OCc3cc([O-])cc(C=Cc4ccc([O-])cc4)c3)c2)cc(OC)c1[O-] (protonated)
COc1cc(/C=C/c2cc([O-])cc(OCc3cc([O-])cc(/C=C\c4ccc([O-])cc4)c3)c2)cc(OC)c1[O-] (cis-trans isomerization)
COc1cc(/C=C/c2cc([O-])cc(OCc3cc([O-])cc(/C=C\c4ccc([O-])cc4)c3)c2)cc(OC)c1[O-] (3D coordinates assigned)
COc1cc(/C=C/c2cc([O-])cc(OCc3cc([O-])cc(/C=C\c4ccc([O-])cc4)c3)c2)cc(OC)c1[O-] (optimized conformer: 81.23757111465324 kcal/mol)

>  <smiles>  (54) 
COc1cc(C=Cc2cc(O)cc(OCc3cc(O)cc(C=Cc4ccc(O)cc4)c3)c2)cc(OC)c1O

>  <score_type>  (54) 
oracle

>  <origin>  (54) 
adg

>  <m_score__min__energy>  (54) 
-19.109999999999999

>  <m_primary>  (54) 
energy

$$$$
54:0
     RDKit          3D

 38 40  0  0  0  0  0  0  0  0999 V2000
   59.6480   22.1740   44.6200 C   0  0  0  0  0  0  0  0  0  0  0  0
   59.5940   23.2010   45.6040 O   0  0  0  0  0  0  0  0  0  0  0  0
   58.3890   23.7280   46.0800 C   0  0  0  0  0  0  0  0  0  0  0  0
   57.6170   23.0110   46.7770 O   0  0  0  0  0  0  0  0  0  0  0  0
   58.0210   25.1260   45.7670 C   0  0  0  0  0  0  0  0  0  0  0  0
   57.5620   25.9900   46.7790 C   0  0  0  0  0  0  0  0  0  0  0  0
   57.2120   27.3090   46.4780 C   0  0  0  0  0  0  0  0  0  0  0  0
   57.3130   27.7840   45.1660 C   0  0  0  0  0  0  0  0  0  0  0  0
   56.8750   29.4520   44.8080 S   0  0  0  0  0  0  0  0  0  0  0  0
   57.3530   29.8550   43.4400 O   0  0  0  0  0  0  0  0  0  0  0  0
   55.3790   29.5810   44.8550 O   0  0  0  0  0  0  0  0  0  0  0  0
   57.5740   30.5070   45.9910 N   0  0  0  0  0  0  0  0  0  0  0  0
   57.9260   31.8860   45.7810 C   0  0  0  0  0  0  0  0  0  0  0  0
   57.0400   32.7750   45.1420 C   0  0  0  0  0  0  0  0  0  0  0  0
   57.3890   34.1110   44.9480 C   0  0  0  0  0  0  0  0  0  0  0  0
   58.6240   34.5880   45.3880 C   0  0  0  0  0  0  0  0  0  0  0  0
   59.5250   33.7250   46.0270 C   0  0  0  0  0  0  0  0  0  0  0  0
   60.7690   34.2040   46.4670 C   0  0  0  0  0  0  0  0  0  0  0  0
   61.6710   33.3440   47.0970 C   0  0  0  0  0  0  0  0  0  0  0  0
   61.3400   32.0030   47.2970 C   0  0  0  0  0  0  0  0  0  0  0  0
   60.1040   31.5120   46.8680 C   0  0  0  0  0  0  0  0  0  0  0  0
   59.1790   32.3630   46.2280 C   0  0  0  0  0  0  0  0  0  0  0  0
   57.7680   26.9300   44.1520 C   0  0  0  0  0  0  0  0  0  0  0  0
   58.1210   25.6110   44.4510 C   0  0  0  0  0  0  0  0  0  0  0  0
   59.6996   21.1935   45.1159 H   0  0  0  0  0  0  0  0  0  0  0  0
   58.7462   22.2203   43.9918 H   0  0  0  0  0  0  0  0  0  0  0  0
   60.5400   22.3146   43.9918 H   0  0  0  0  0  0  0  0  0  0  0  0
   57.4783   25.6247   47.8132 H   0  0  0  0  0  0  0  0  0  0  0  0
   56.8555   27.9767   47.2762 H   0  0  0  0  0  0  0  0  0  0  0  0
   56.0624   32.4116   44.7923 H   0  0  0  0  0  0  0  0  0  0  0  0
   56.6869   34.7924   44.4454 H   0  0  0  0  0  0  0  0  0  0  0  0
   58.8913   35.6437   45.2331 H   0  0  0  0  0  0  0  0  0  0  0  0
   61.0343   35.2607   46.3150 H   0  0  0  0  0  0  0  0  0  0  0  0
   62.6455   33.7247   47.4367 H   0  0  0  0  0  0  0  0  0  0  0  0
   62.0545   31.3303   47.7940 H   0  0  0  0  0  0  0  0  0  0  0  0
   59.8506   30.4540   47.0306 H   0  0  0  0  0  0  0  0  0  0  0  0
   57.8475   27.2986   43.1186 H   0  0  0  0  0  0  0  0  0  0  0  0
   58.4798   24.9473   43.6506 H   0  0  0  0  0  0  0  0  0  0  0  0
  1  2  1  0
  2  3  1  0
  3  4  2  0
  3  5  1  0
  5  6  2  0
  6  7  1  0
  7  8  2  0
  8  9  1  0
  9 10  2  0
  9 11  2  0
  9 12  1  0
 12 13  1  0
 13 14  2  0
 14 15  1  0
 15 16  2  0
 16 17  1  0
 17 18  2  0
 18 19  1  0
 19 20  2  0
 20 21  1  0
 21 22  2  0
  8 23  1  0
 23 24  2  0
 24  5  1  0
 22 13  1  0
 22 17  1  0
  1 25  1  0
  1 26  1  0
  1 27  1  0
  6 28  1  0
  7 29  1  0
 14 30  1  0
 15 31  1  0
 16 32  1  0
 18 33  1  0
 19 34  1  0
 20 35  1  0
 21 36  1  0
 23 37  1  0
 24 38  1  0
M  CHG  1  12  -1
M  END
>  <UniqueID>  (55) 
48

>  <SMILES>  (55) 
COC(=O)c1ccc(S(=O)(=O)[N-]c2cccc3ccccc23)cc1

>  <Energy>  (55) 
46.45589751227722

>  <Genealogy>  (55) 
COC(=O)c1ccc(S(=O)(=O)[N-]c2cccc3ccccc23)cc1 (protonated)
COC(=O)c1ccc(S(=O)(=O)[N-]c2cccc3ccccc23)cc1 (3D coordinates assigned)
COC(=O)c1ccc(S(=O)(=O)[N-]c2cccc3ccccc23)cc1 (optimized conformer: 46.45589751227722 kcal/mol)

>  <smiles>  (55) 
COC(=O)c1ccc(S(=O)(=O)Nc2cccc3ccccc23)cc1

>  <score_type>  (55) 
oracle

>  <origin>  (55) 
adg

>  <m_score__min__energy>  (55) 
-9.6400000000000006

>  <m_primary>  (55) 
energy

$$$$
55:0
     RDKit          3D

 43 45  0  0  0  0  0  0  0  0999 V2000
   59.2360   34.7320   45.4150 C   0  0  0  0  0  0  0  0  0  0  0  0
   58.5620   33.4220   45.1370 C   0  0  0  0  0  0  0  0  0  0  0  0
   58.1770   33.0910   43.8280 C   0  0  0  0  0  0  0  0  0  0  0  0
   57.5800   31.8560   43.5600 C   0  0  0  0  0  0  0  0  0  0  0  0
   57.3750   30.9330   44.5950 C   0  0  0  0  0  0  0  0  0  0  0  0
   56.5720   29.4050   44.2480 S   0  0  0  0  0  0  0  0  0  0  0  0
   57.1380   28.7710   43.0080 O   0  0  0  0  0  0  0  0  0  0  0  0
   55.1070   29.6630   44.0340 O   0  0  0  0  0  0  0  0  0  0  0  0
   56.7770   28.3330   45.5940 N   0  0  0  0  0  0  0  0  0  0  0  0
   58.0400   27.7140   45.8810 C   0  0  0  0  0  0  0  0  0  0  0  0
   59.2190   28.4800   45.8360 C   0  0  0  0  0  0  0  0  0  0  0  0
   60.4570   27.8940   46.1000 C   0  0  0  0  0  0  0  0  0  0  0  0
   60.5360   26.5370   46.4070 C   0  0  0  0  0  0  0  0  0  0  0  0
   59.3770   25.7620   46.4580 C   0  0  0  0  0  0  0  0  0  0  0  0
   58.1200   26.3360   46.2020 C   0  0  0  0  0  0  0  0  0  0  0  0
   56.6600   25.3420   46.3410 S   0  0  0  0  0  0  0  0  0  0  0  0
   56.5280   24.8550   47.7560 O   0  0  0  0  0  0  0  0  0  0  0  0
   55.4520   26.1690   46.0040 O   0  0  0  0  0  0  0  0  0  0  0  0
   56.7250   23.9380   45.2670 C   0  0  0  0  0  0  0  0  0  0  0  0
   56.2480   24.0530   43.9530 C   0  0  0  0  0  0  0  0  0  0  0  0
   56.2770   22.9430   43.1110 C   0  0  0  0  0  0  0  0  0  0  0  0
   56.7780   21.7310   43.5790 C   0  0  0  0  0  0  0  0  0  0  0  0
   57.2440   21.6460   44.8920 C   0  0  0  0  0  0  0  0  0  0  0  0
   57.2100   22.7370   45.7090 N   0  0  0  0  0  0  0  0  0  0  0  0
   57.6550   22.6010   47.0050 O   0  0  0  0  0  0  0  0  0  0  0  0
   57.7720   31.2550   45.9000 C   0  0  0  0  0  0  0  0  0  0  0  0
   58.3690   32.4910   46.1680 C   0  0  0  0  0  0  0  0  0  0  0  0
   59.3129   34.8814   46.5021 H   0  0  0  0  0  0  0  0  0  0  0  0
   60.2435   34.7270   44.9734 H   0  0  0  0  0  0  0  0  0  0  0  0
   58.6462   35.5488   44.9734 H   0  0  0  0  0  0  0  0  0  0  0  0
   58.3459   33.8067   43.0099 H   0  0  0  0  0  0  0  0  0  0  0  0
   57.2702   31.6076   42.5342 H   0  0  0  0  0  0  0  0  0  0  0  0
   55.9950   28.2760   46.2820 H   0  0  0  0  0  0  0  0  0  0  0  0
   59.1642   29.5508   45.5904 H   0  0  0  0  0  0  0  0  0  0  0  0
   61.3719   28.5037   46.0658 H   0  0  0  0  0  0  0  0  0  0  0  0
   61.5140   26.0760   46.6095 H   0  0  0  0  0  0  0  0  0  0  0  0
   59.4477   24.6915   46.7009 H   0  0  0  0  0  0  0  0  0  0  0  0
   55.8535   25.0133   43.5894 H   0  0  0  0  0  0  0  0  0  0  0  0
   55.9050   23.0241   42.0790 H   0  0  0  0  0  0  0  0  0  0  0  0
   56.8062   20.8500   42.9210 H   0  0  0  0  0  0  0  0  0  0  0  0
   57.6413   20.6925   45.2701 H   0  0  0  0  0  0  0  0  0  0  0  0
   57.6136   30.5338   46.7154 H   0  0  0  0  0  0  0  0  0  0  0  0
   58.6886   32.7341   47.1921 H   0  0  0  0  0  0  0  0  0  0  0  0
  1  2  1  0
  2  3  2  0
  3  4  1  0
  4  5  2  0
  5  6  1  0
  6  7  2  0
  6  8  2  0
  6  9  1  0
  9 10  1  0
 10 11  2  0
 11 12  1  0
 12 13  2  0
 13 14  1  0
 14 15  2  0
 15 16  1  0
 16 17  2  0
 16 18  2  0
 16 19  1  0
 19 20  2  0
 20 21  1  0
 21 22  2  0
 22 23  1  0
 23 24  2  0
 24 25  1  0
  5 26  1  0
 26 27  2  0
 27  2  1  0
 15 10  1  0
 24 19  1  0
  1 28  1  0
  1 29  1  0
  1 30  1  0
  3 31  1  0
  4 32  1  0
  9 33  1  0
 11 34  1  0
 12 35  1  0
 13 36  1  0
 14 37  1  0
 20 38  1  0
 21 39  1  0
 22 40  1  0
 23 41  1  0
 26 42  1  0
 27 43  1  0
M  CHG  2  24   1  25  -1
M  END
>  <UniqueID>  (56) 
49

>  <SMILES>  (56) 
Cc1ccc(S(=O)(=O)Nc2ccccc2S(=O)(=O)c2cccc[n+]2[O-])cc1

>  <Energy>  (56) 
53.56166187595498

>  <Genealogy>  (56) 
Cc1ccc(S(=O)(=O)Nc2ccccc2S(=O)(=O)c2cccc[n+]2[O-])cc1 (3D coordinates assigned)
Cc1ccc(S(=O)(=O)Nc2ccccc2S(=O)(=O)c2cccc[n+]2[O-])cc1 (optimized conformer: 53.56166187595498 kcal/mol)

>  <smiles>  (56) 
Cc1ccc(S(=O)(=O)Nc2ccccc2S(=O)(=O)c2cccc[n+]2[O-])cc1

>  <score_type>  (56) 
oracle

>  <origin>  (56) 
adg

>  <m_score__min__energy>  (56) 
-10.73

>  <m_primary>  (56) 
energy

$$$$
56:0
     RDKit          3D

 55 58  0  0  0  0  0  0  0  0999 V2000
   61.5520   26.4890   51.2320 C   0  0  0  0  0  0  0  0  0  0  0  0
   61.1460   27.6120   50.3170 C   0  0  0  0  0  0  0  0  0  0  0  0
   60.4030   27.3280   49.1650 C   0  0  0  0  0  0  0  0  0  0  0  0
   60.0290   28.3500   48.2880 C   0  0  0  0  0  0  0  0  0  0  0  0
   59.2720   28.0310   47.1110 N   0  0  0  0  0  0  0  0  0  0  0  0
   57.8870   27.5700   47.2590 C   0  0  0  0  0  0  0  0  0  0  0  0
   57.1380   27.5990   45.9210 C   0  0  0  0  0  0  0  0  0  0  0  0
   57.4160   28.8590   45.2130 N   0  0  0  0  0  0  0  0  0  0  0  0
   56.3560   29.6020   44.5760 C   0  0  0  0  0  0  0  0  0  0  0  0
   55.1850   29.1350   44.5410 O   0  0  0  0  0  0  0  0  0  0  0  0
   56.6470   30.8550   43.9390 N   0  0  0  0  0  0  0  0  0  0  0  0
   57.3760   31.9520   44.5070 C   0  0  0  0  0  0  0  0  0  0  0  0
   57.4030   32.1940   45.8930 C   0  0  0  0  0  0  0  0  0  0  0  0
   58.1470   33.2610   46.4050 C   0  0  0  0  0  0  0  0  0  0  0  0
   58.8790   34.0830   45.5430 C   0  0  0  0  0  0  0  0  0  0  0  0
   59.8110   35.4200   46.1870 Cl  0  0  0  0  0  0  0  0  0  0  0  0
   58.8740   33.8330   44.1680 C   0  0  0  0  0  0  0  0  0  0  0  0
   58.1310   32.7670   43.6540 C   0  0  0  0  0  0  0  0  0  0  0  0
   58.8010   29.3470   45.0990 C   0  0  0  0  0  0  0  0  0  0  0  0
   59.7910   28.4060   45.7920 C   0  0  0  0  0  0  0  0  0  0  0  0
   60.3990   29.6730   48.5860 C   0  0  0  0  0  0  0  0  0  0  0  0
   60.0300   30.8140   47.6890 C   0  0  0  0  0  0  0  0  0  0  0  0
   61.1440   29.9240   49.6930 N   0  0  0  0  0  0  0  0  0  0  0  0
   61.5350   28.9460   50.5530 C   0  0  0  0  0  0  0  0  0  0  0  0
   62.5400   29.4090   51.9680 S   0  0  0  0  0  0  0  0  0  0  0  0
   62.9480   31.0120   51.2790 C   0  0  0  0  0  0  0  0  0  0  0  0
   62.1340   32.1180   51.5530 C   0  0  0  0  0  0  0  0  0  0  0  0
   62.4560   33.3730   51.0270 C   0  0  0  0  0  0  0  0  0  0  0  0
   63.5910   33.5260   50.2250 C   0  0  0  0  0  0  0  0  0  0  0  0
   64.4030   32.4220   49.9470 C   0  0  0  0  0  0  0  0  0  0  0  0
   64.0930   31.1700   50.4850 C   0  0  0  0  0  0  0  0  0  0  0  0
   61.4365   26.8085   52.2782 H   0  0  0  0  0  0  0  0  0  0  0  0
   60.9135   25.6133   51.0434 H   0  0  0  0  0  0  0  0  0  0  0  0
   62.6028   26.2241   51.0434 H   0  0  0  0  0  0  0  0  0  0  0  0
   60.1106   26.2901   48.9478 H   0  0  0  0  0  0  0  0  0  0  0  0
   57.8927   26.5392   47.6430 H   0  0  0  0  0  0  0  0  0  0  0  0
   57.3715   28.2457   47.9574 H   0  0  0  0  0  0  0  0  0  0  0  0
   57.4682   26.7527   45.3008 H   0  0  0  0  0  0  0  0  0  0  0  0
   56.0573   27.5240   46.1117 H   0  0  0  0  0  0  0  0  0  0  0  0
   56.8374   31.5421   46.5750 H   0  0  0  0  0  0  0  0  0  0  0  0
   58.1565   33.4542   47.4879 H   0  0  0  0  0  0  0  0  0  0  0  0
   59.4551   34.4756   43.4902 H   0  0  0  0  0  0  0  0  0  0  0  0
   58.1391   32.5666   42.5724 H   0  0  0  0  0  0  0  0  0  0  0  0
   59.0661   29.4222   44.0341 H   0  0  0  0  0  0  0  0  0  0  0  0
   58.8603   30.3296   45.5898 H   0  0  0  0  0  0  0  0  0  0  0  0
   59.9254   27.5014   45.1808 H   0  0  0  0  0  0  0  0  0  0  0  0
   60.7579   28.9166   45.9115 H   0  0  0  0  0  0  0  0  0  0  0  0
   59.7485   31.6844   48.2998 H   0  0  0  0  0  0  0  0  0  0  0  0
   60.8898   31.0742   47.0541 H   0  0  0  0  0  0  0  0  0  0  0  0
   59.1807   30.5215   47.0541 H   0  0  0  0  0  0  0  0  0  0  0  0
   61.2400   31.9994   52.1829 H   0  0  0  0  0  0  0  0  0  0  0  0
   61.8158   34.2407   51.2444 H   0  0  0  0  0  0  0  0  0  0  0  0
   63.8450   34.5138   49.8131 H   0  0  0  0  0  0  0  0  0  0  0  0
   65.2875   32.5393   49.3036 H   0  0  0  0  0  0  0  0  0  0  0  0
   64.7472   30.3084   50.2856 H   0  0  0  0  0  0  0  0  0  0  0  0
  1  2  1  0
  2  3  2  0
  3  4  1  0
  4  5  1  0
  5  6  1  0
  6  7  1  0
  7  8  1  0
  8  9  1  0
  9 10  2  0
  9 11  1  0
 11 12  1  0
 12 13  2  0
 13 14  1  0
 14 15  2  0
 15 16  1  0
 15 17  1  0
 17 18  2  0
  8 19  1  0
 19 20  1  0
  4 21  2  0
 21 22  1  0
 21 23  1  0
 23 24  2  0
 24 25  1  0
 25 26  1  0
 26 27  2  0
 27 28  1  0
 28 29  2  0
 29 30  1  0
 30 31  2  0
 24  2  1  0
 31 26  1  0
 20  5  1  0
 18 12  1  0
  1 32  1  0
  1 33  1  0
  1 34  1  0
  3 35  1  0
  6 36  1  0
  6 37  1  0
  7 38  1  0
  7 39  1  0
 13 40  1  0
 14 41  1  0
 17 42  1  0
 18 43  1  0
 19 44  1  0
 19 45  1  0
 20 46  1  0
 20 47  1  0
 22 48  1  0
 22 49  1  0
 22 50  1  0
 27 51  1  0
 28 52  1  0
 29 53  1  0
 30 54  1  0
 31 55  1  0
M  CHG  1  11  -1
M  END
>  <UniqueID>  (57) 
50

>  <SMILES>  (57) 
Cc1cc(N2CCN(C(=O)[N-]c3ccc(Cl)cc3)CC2)c(C)nc1Sc1ccccc1

>  <Energy>  (57) 
63.08611792769874

>  <Genealogy>  (57) 
Cc1cc(N2CCN(C(=O)[N-]c3ccc(Cl)cc3)CC2)c(C)nc1Sc1ccccc1 (protonated)
Cc1cc(N2CCN(C(=O)[N-]c3ccc(Cl)cc3)CC2)c(C)nc1Sc1ccccc1 (3D coordinates assigned)
Cc1cc(N2CCN(C(=O)[N-]c3ccc(Cl)cc3)CC2)c(C)nc1Sc1ccccc1 (nonaromatic ring conformer: 63.08611792769874 kcal/mol)

>  <smiles>  (57) 
Cc1cc(N2CCN(C(=O)Nc3ccc(Cl)cc3)CC2)c(C)nc1Sc1ccccc1

>  <score_type>  (57) 
oracle

>  <origin>  (57) 
adg

>  <m_score__min__energy>  (57) 
-10.07

>  <m_primary>  (57) 
energy

$$$$
57:0
     RDKit          3D

 34 36  0  0  0  0  0  0  0  0999 V2000
   57.7157   31.2479   43.0273 H   0  0  0  0  0  0  0  0  0  0  0  0
   57.7500   31.1260   44.1200 C   0  0  0  0  0  0  0  0  0  0  0  0
   58.1060   32.3100   44.9370 C   0  0  0  0  0  0  0  0  0  0  0  0
   58.5120   33.5240   44.3510 C   0  0  0  0  0  0  0  0  0  0  0  0
   58.5487   33.6182   43.2557 H   0  0  0  0  0  0  0  0  0  0  0  0
   58.8690   34.6110   45.1560 C   0  0  0  0  0  0  0  0  0  0  0  0
   59.1714   35.5616   44.6925 H   0  0  0  0  0  0  0  0  0  0  0  0
   58.8420   34.4910   46.5480 C   0  0  0  0  0  0  0  0  0  0  0  0
   59.1169   35.3489   47.1793 H   0  0  0  0  0  0  0  0  0  0  0  0
   58.4660   33.2820   47.1380 C   0  0  0  0  0  0  0  0  0  0  0  0
   58.4515   33.1864   48.2337 H   0  0  0  0  0  0  0  0  0  0  0  0
   58.1080   32.1930   46.3370 C   0  0  0  0  0  0  0  0  0  0  0  0
   57.8262   31.2388   46.8061 H   0  0  0  0  0  0  0  0  0  0  0  0
   57.4650   29.9080   44.6270 C   0  0  0  0  0  0  0  0  0  0  0  0
   58.4670   29.0690   45.0060 N   0  0  0  0  0  0  0  0  0  0  0  0
   58.2290   27.8280   45.5050 C   0  0  0  0  0  0  0  0  0  0  0  0
   59.2040   27.1030   45.8390 O   0  0  0  0  0  0  0  0  0  0  0  0
   56.8990   27.3800   45.6390 C   0  0  0  0  0  0  0  0  0  0  0  0
   56.6150   26.1490   46.1120 C   0  0  0  0  0  0  0  0  0  0  0  0
   56.0336   26.0785   47.0431 H   0  0  0  0  0  0  0  0  0  0  0  0
   57.0340   24.8850   45.4610 C   0  0  0  0  0  0  0  0  0  0  0  0
   58.1890   24.1880   45.8630 C   0  0  0  0  0  0  0  0  0  0  0  0
   58.7945   24.5689   46.6986 H   0  0  0  0  0  0  0  0  0  0  0  0
   58.5710   23.0140   45.2060 C   0  0  0  0  0  0  0  0  0  0  0  0
   59.4671   22.4672   45.5347 H   0  0  0  0  0  0  0  0  0  0  0  0
   57.8160   22.5350   44.1330 C   0  0  0  0  0  0  0  0  0  0  0  0
   58.1134   21.6075   43.6218 H   0  0  0  0  0  0  0  0  0  0  0  0
   56.6830   23.2340   43.7090 C   0  0  0  0  0  0  0  0  0  0  0  0
   56.0932   22.8604   42.8590 H   0  0  0  0  0  0  0  0  0  0  0  0
   56.2980   24.4080   44.3640 C   0  0  0  0  0  0  0  0  0  0  0  0
   55.4128   24.9616   44.0177 H   0  0  0  0  0  0  0  0  0  0  0  0
   55.8970   28.2130   45.2450 N   0  0  0  0  0  0  0  0  0  0  0  0
   56.1360   29.4540   44.7470 C   0  0  0  0  0  0  0  0  0  0  0  0
   55.1600   30.1760   44.4040 O   0  0  0  0  0  0  0  0  0  0  0  0
  1  2  1  0
  2  3  1  0
  3  4  2  0
  4  5  1  0
  4  6  1  0
  6  7  1  0
  6  8  2  0
  8  9  1  0
  8 10  1  0
 10 11  1  0
 10 12  2  0
 12 13  1  0
  2 14  2  3
 14 15  1  0
 15 16  1  0
 16 17  2  0
 16 18  1  0
 18 19  2  0
 19 20  1  0
 19 21  1  0
 21 22  2  0
 22 23  1  0
 22 24  1  0
 24 25  1  0
 24 26  2  0
 26 27  1  0
 26 28  1  0
 28 29  1  0
 28 30  2  0
 30 31  1  0
 18 32  1  0
 32 33  1  0
 33 34  2  0
 12  3  1  0
 33 14  1  0
 30 21  1  0
M  CHG  2  15  -1  32  -1
M  END
>  <UniqueID>  (58) 
51

>  <SMILES>  (58) 
O=c1[n-]/c(=C\c2ccccc2)c(=O)[n-]c1=Cc1ccccc1

>  <Energy>  (58) 
53.79536431567473

>  <Genealogy>  (58) 
O=c1[n-]c(=Cc2ccccc2)c(=O)[n-]c1=Cc1ccccc1 (protonated)
O=c1[n-]/c(=C\c2ccccc2)c(=O)[n-]c1=Cc1ccccc1 (cis-trans isomerization)
O=c1[n-]/c(=C\c2ccccc2)c(=O)[n-]c1=Cc1ccccc1 (3D coordinates assigned)
O=c1[n-]/c(=C\c2ccccc2)c(=O)[n-]c1=Cc1ccccc1 (optimized conformer: 53.79536431567473 kcal/mol)

>  <smiles>  (58) 
O=c1[nH]c(=Cc2ccccc2)c(=O)[nH]c1=Cc1ccccc1

>  <score_type>  (58) 
oracle

>  <origin>  (58) 
adg

>  <m_score__min__energy>  (58) 
-11.039999999999999

>  <m_primary>  (58) 
energy

$$$$
58:0
     RDKit          3D

 57 60  0  0  0  0  0  0  0  0999 V2000
   66.4858   32.4334   50.3748 H   0  0  0  0  0  0  0  0  0  0  0  0
   65.4240   32.4820   50.6580 C   0  0  0  0  0  0  0  0  0  0  0  0
   65.0000   33.4220   51.5440 N   0  0  0  0  0  0  0  0  0  0  0  0
   63.6940   33.5160   51.9120 C   0  0  0  0  0  0  0  0  0  0  0  0
   63.3080   34.4770   52.7880 F   0  0  0  0  0  0  0  0  0  0  0  0
   62.7520   32.6310   51.3850 C   0  0  0  0  0  0  0  0  0  0  0  0
   61.6914   32.7190   51.6633 H   0  0  0  0  0  0  0  0  0  0  0  0
   63.1700   31.6280   50.4970 C   0  0  0  0  0  0  0  0  0  0  0  0
   62.2280   30.7340   49.8900 N   0  0  0  0  0  0  0  0  0  0  0  0
   61.6850   30.8300   48.7090 C   0  0  0  0  0  0  0  0  0  0  0  0
   60.7600   29.9530   48.2810 N   0  0  0  0  0  0  0  0  0  0  0  0
   60.4510   30.2580   47.0270 N   0  0  0  0  0  0  0  0  0  0  0  0
   59.3680   29.5980   46.2620 C   0  0  0  0  0  0  0  0  0  0  0  0
   58.7920   30.5890   45.2040 C   0  0  0  0  0  0  0  0  0  0  0  0
   58.9198   31.6166   45.5752 H   0  0  0  0  0  0  0  0  0  0  0  0
   59.3385   30.4315   44.2624 H   0  0  0  0  0  0  0  0  0  0  0  0
   57.3620   30.3550   44.9400 C   0  0  0  0  0  0  0  0  0  0  0  0
   56.2390   30.1700   44.7340 N   0  0  0  0  0  0  0  0  0  0  0  0
   58.2090   29.1490   47.2270 C   0  0  0  0  0  0  0  0  0  0  0  0
   57.2482   29.4492   46.7835 H   0  0  0  0  0  0  0  0  0  0  0  0
   58.3842   29.6349   48.1982 H   0  0  0  0  0  0  0  0  0  0  0  0
   58.1820   27.6380   47.4710 C   0  0  0  0  0  0  0  0  0  0  0  0
   57.3144   27.3815   48.0967 H   0  0  0  0  0  0  0  0  0  0  0  0
   59.1040   27.3295   47.9855 H   0  0  0  0  0  0  0  0  0  0  0  0
   58.0800   26.9440   46.1810 N   0  0  0  0  0  0  0  0  0  0  0  0
   56.9840   26.0430   45.9330 C   0  0  0  0  0  0  0  0  0  0  0  0
   55.8350   26.3270   46.3720 O   0  0  0  0  0  0  0  0  0  0  0  0
   57.1770   24.7890   45.1750 C   0  0  0  0  0  0  0  0  0  0  0  0
   58.2310   23.9160   45.4910 C   0  0  0  0  0  0  0  0  0  0  0  0
   58.9294   24.1739   46.3008 H   0  0  0  0  0  0  0  0  0  0  0  0
   58.3990   22.7220   44.7840 C   0  0  0  0  0  0  0  0  0  0  0  0
   59.2264   22.0446   45.0419 H   0  0  0  0  0  0  0  0  0  0  0  0
   57.5170   22.3840   43.7470 C   0  0  0  0  0  0  0  0  0  0  0  0
   57.6730   21.0880   43.0100 C   0  0  0  0  0  0  0  0  0  0  0  0
   57.7721   20.2648   43.7328 H   0  0  0  0  0  0  0  0  0  0  0  0
   56.7890   20.9168   42.3782 H   0  0  0  0  0  0  0  0  0  0  0  0
   58.5724   21.1314   42.3782 H   0  0  0  0  0  0  0  0  0  0  0  0
   56.4440   23.2370   43.4500 C   0  0  0  0  0  0  0  0  0  0  0  0
   55.7329   22.9662   42.6556 H   0  0  0  0  0  0  0  0  0  0  0  0
   56.2740   24.4300   44.1590 C   0  0  0  0  0  0  0  0  0  0  0  0
   55.4284   25.0919   43.9204 H   0  0  0  0  0  0  0  0  0  0  0  0
   58.9570   27.3420   45.0700 C   0  0  0  0  0  0  0  0  0  0  0  0
   58.3419   27.7734   44.2666 H   0  0  0  0  0  0  0  0  0  0  0  0
   59.4930   26.4484   44.7176 H   0  0  0  0  0  0  0  0  0  0  0  0
   59.9970   28.3820   45.5150 C   0  0  0  0  0  0  0  0  0  0  0  0
   60.5237   28.7535   44.6236 H   0  0  0  0  0  0  0  0  0  0  0  0
   60.6787   27.8825   46.2191 H   0  0  0  0  0  0  0  0  0  0  0  0
   61.1360   31.3640   46.6580 C   0  0  0  0  0  0  0  0  0  0  0  0
   61.0638   31.8635   45.6806 H   0  0  0  0  0  0  0  0  0  0  0  0
   61.9400   31.7650   47.7050 C   0  0  0  0  0  0  0  0  0  0  0  0
   62.6460   33.0580   47.7600 C   0  0  0  0  0  0  0  0  0  0  0  0
   62.0700   34.0560   48.2690 O   0  0  0  0  0  0  0  0  0  0  0  0
   63.9940   33.1770   47.3080 N   0  0  0  0  0  0  0  0  0  0  0  0
   64.5340   32.3340   47.0120 H   0  0  0  0  0  0  0  0  0  0  0  0
   64.4710   34.1050   47.3140 H   0  0  0  0  0  0  0  0  0  0  0  0
   64.5130   31.5780   50.1070 C   0  0  0  0  0  0  0  0  0  0  0  0
   64.8488   30.8320   49.3717 H   0  0  0  0  0  0  0  0  0  0  0  0
  1  2  1  0
  2  3  2  0
  3  4  1  0
  4  5  1  0
  4  6  2  0
  6  7  1  0
  6  8  1  0
  8  9  1  0
  9 10  2  0
 10 11  1  0
 11 12  1  0
 12 13  1  0
 13 14  1  0
 14 15  1  0
 14 16  1  0
 14 17  1  0
 17 18  3  0
 13 19  1  0
 19 20  1  0
 19 21  1  0
 19 22  1  0
 22 23  1  0
 22 24  1  0
 22 25  1  0
 25 26  1  0
 26 27  2  0
 26 28  1  0
 28 29  2  0
 29 30  1  0
 29 31  1  0
 31 32  1  0
 31 33  2  0
 33 34  1  0
 34 35  1  0
 34 36  1  0
 34 37  1  0
 33 38  1  0
 38 39  1  0
 38 40  2  0
 40 41  1  0
 25 42  1  0
 42 43  1  0
 42 44  1  0
 42 45  1  0
 45 46  1  0
 45 47  1  0
 12 48  1  0
 48 49  1  0
 48 50  2  0
 50 51  1  0
 51 52  2  0
 51 53  1  0
 53 54  1  0
 53 55  1  0
  8 56  2  0
 56 57  1  0
 56  2  1  0
 50 10  1  0
 45 13  1  0
 40 28  1  0
M  CHG  1  11  -1
M  END
>  <UniqueID>  (59) 
52

>  <SMILES>  (59) 
Cc1ccc(C(=O)N2CCC(CC#N)(n3cc(C(N)=O)/c(=N\c4ccnc(F)c4)[n-]3)CC2)cc1

>  <Energy>  (59) 
115.47592928906883

>  <Genealogy>  (59) 
Cc1ccc(C(=O)N2CCC(CC#N)(n3cc(C(N)=O)c(=Nc4ccnc(F)c4)[n-]3)CC2)cc1 (protonated)
Cc1ccc(C(=O)N2CCC(CC#N)(n3cc(C(N)=O)/c(=N\c4ccnc(F)c4)[n-]3)CC2)cc1 (cis-trans isomerization)
Cc1ccc(C(=O)N2CCC(CC#N)(n3cc(C(N)=O)/c(=N\c4ccnc(F)c4)[n-]3)CC2)cc1 (3D coordinates assigned)
Cc1ccc(C(=O)N2CCC(CC#N)(n3cc(C(N)=O)/c(=N\c4ccnc(F)c4)[n-]3)CC2)cc1 (nonaromatic ring conformer: 115.47592928906883 kcal/mol)

>  <smiles>  (59) 
Cc1ccc(C(=O)N2CCC(CC#N)(n3cc(C(N)=O)c(=Nc4ccnc(F)c4)[nH]3)CC2)cc1

>  <score_type>  (59) 
oracle

>  <origin>  (59) 
adg

>  <m_score__min__energy>  (59) 
-9.4499999999999993

>  <m_primary>  (59) 
energy

$$$$
59:0
     RDKit          3D

 46 49  0  0  0  0  0  0  0  0999 V2000
   58.9587   26.1858   46.7549 H   0  0  0  0  0  0  0  0  0  0  0  0
   59.0310   27.2520   46.4940 C   0  0  0  0  0  0  0  0  0  0  0  0
   58.4800   27.7060   45.3410 N   0  0  0  0  0  0  0  0  0  0  0  0
   58.5610   29.0200   44.9970 C   0  0  0  0  0  0  0  0  0  0  0  0
   58.0380   29.4550   43.8910 N   0  0  0  0  0  0  0  0  0  0  0  0
   56.9500   30.8020   43.8040 S   0  0  0  0  0  0  0  0  0  0  0  0
   55.6550   30.4590   44.4880 O   0  0  0  0  0  0  0  0  0  0  0  0
   56.6730   31.1430   42.3660 O   0  0  0  0  0  0  0  0  0  0  0  0
   57.6890   32.1840   44.6050 C   0  0  0  0  0  0  0  0  0  0  0  0
   57.4810   32.3980   45.9770 C   0  0  0  0  0  0  0  0  0  0  0  0
   56.8630   31.6950   46.5548 H   0  0  0  0  0  0  0  0  0  0  0  0
   58.0580   33.5030   46.6100 C   0  0  0  0  0  0  0  0  0  0  0  0
   57.8972   33.6658   47.6859 H   0  0  0  0  0  0  0  0  0  0  0  0
   58.8390   34.4010   45.8770 C   0  0  0  0  0  0  0  0  0  0  0  0
   59.2942   35.2687   46.3769 H   0  0  0  0  0  0  0  0  0  0  0  0
   59.0420   34.1970   44.5090 C   0  0  0  0  0  0  0  0  0  0  0  0
   59.6548   34.9055   43.9324 H   0  0  0  0  0  0  0  0  0  0  0  0
   58.4660   33.0920   43.8730 C   0  0  0  0  0  0  0  0  0  0  0  0
   58.6234   32.9355   42.7956 H   0  0  0  0  0  0  0  0  0  0  0  0
   59.1990   29.8930   45.8200 N   0  0  0  0  0  0  0  0  0  0  0  0
   59.7610   29.4910   46.9930 C   0  0  0  0  0  0  0  0  0  0  0  0
   60.4500   30.4860   47.8520 C   0  0  0  0  0  0  0  0  0  0  0  0
   60.6630   30.2030   49.2110 C   0  0  0  0  0  0  0  0  0  0  0  0
   60.3175   29.2494   49.6368 H   0  0  0  0  0  0  0  0  0  0  0  0
   61.3140   31.1350   50.0190 C   0  0  0  0  0  0  0  0  0  0  0  0
   61.4702   30.9208   51.0866 H   0  0  0  0  0  0  0  0  0  0  0  0
   61.7700   32.3440   49.4750 C   0  0  0  0  0  0  0  0  0  0  0  0
   62.4480   33.3600   50.3150 C   0  0  0  0  0  0  0  0  0  0  0  0
   61.7450   34.2170   50.9180 O   0  0  0  0  0  0  0  0  0  0  0  0
   63.9220   33.4050   50.4740 C   0  0  0  0  0  0  0  0  0  0  0  0
   64.4990   34.2330   51.4530 C   0  0  0  0  0  0  0  0  0  0  0  0
   63.8530   34.8362   52.1079 H   0  0  0  0  0  0  0  0  0  0  0  0
   65.8880   34.2950   51.6000 C   0  0  0  0  0  0  0  0  0  0  0  0
   66.3300   34.9371   52.3761 H   0  0  0  0  0  0  0  0  0  0  0  0
   66.7160   33.5420   50.7620 C   0  0  0  0  0  0  0  0  0  0  0  0
   68.6130   33.6310   50.9630 Br  0  0  0  0  0  0  0  0  0  0  0  0
   66.1540   32.7290   49.7730 C   0  0  0  0  0  0  0  0  0  0  0  0
   66.8055   32.1396   49.1111 H   0  0  0  0  0  0  0  0  0  0  0  0
   64.7660   32.6640   49.6240 C   0  0  0  0  0  0  0  0  0  0  0  0
   64.3298   32.0301   48.8379 H   0  0  0  0  0  0  0  0  0  0  0  0
   61.5350   32.5920   48.1150 C   0  0  0  0  0  0  0  0  0  0  0  0
   61.8681   33.5410   47.6695 H   0  0  0  0  0  0  0  0  0  0  0  0
   60.8990   31.6710   47.3400 N   0  0  0  0  0  0  0  0  0  0  0  0
   60.7860   31.8880   46.3250 H   0  0  0  0  0  0  0  0  0  0  0  0
   59.6890   28.1350   47.3490 C   0  0  0  0  0  0  0  0  0  0  0  0
   60.1430   27.7761   48.2845 H   0  0  0  0  0  0  0  0  0  0  0  0
  1  2  1  0
  2  3  1  0
  3  4  1  0
  4  5  2  0
  5  6  1  0
  6  7  2  0
  6  8  2  0
  6  9  1  0
  9 10  2  0
 10 11  1  0
 10 12  1  0
 12 13  1  0
 12 14  2  0
 14 15  1  0
 14 16  1  0
 16 17  1  0
 16 18  2  0
 18 19  1  0
  4 20  1  0
 20 21  2  0
 21 22  1  0
 22 23  2  0
 23 24  1  0
 23 25  1  0
 25 26  1  0
 25 27  2  0
 27 28  1  0
 28 29  2  0
 28 30  1  0
 30 31  2  0
 31 32  1  0
 31 33  1  0
 33 34  1  0
 33 35  2  0
 35 36  1  0
 35 37  1  0
 37 38  1  0
 37 39  2  0
 39 40  1  0
 27 41  1  0
 41 42  1  0
 41 43  2  0
 43 44  1  0
 21 45  1  0
 45 46  1  0
 45  2  2  0
 18  9  1  0
 43 22  1  0
 39 30  1  0
M  CHG  2   3  -1  43   1
M  END
>  <UniqueID>  (60) 
53

>  <SMILES>  (60) 
O=C(c1ccc(Br)cc1)c1ccc(-c2cc[n-]/c(=N\S(=O)(=O)c3ccccc3)n2)[nH+]c1

>  <Energy>  (60) 
65.71954985693418

>  <Genealogy>  (60) 
O=C(c1ccc(Br)cc1)c1ccc(-c2cc[n-]c(=NS(=O)(=O)c3ccccc3)n2)[nH+]c1 (protonated)
O=C(c1ccc(Br)cc1)c1ccc(-c2cc[n-]/c(=N\S(=O)(=O)c3ccccc3)n2)[nH+]c1 (cis-trans isomerization)
O=C(c1ccc(Br)cc1)c1ccc(-c2cc[n-]/c(=N\S(=O)(=O)c3ccccc3)n2)[nH+]c1 (3D coordinates assigned)
O=C(c1ccc(Br)cc1)c1ccc(-c2cc[n-]/c(=N\S(=O)(=O)c3ccccc3)n2)[nH+]c1 (optimized conformer: 65.71954985693418 kcal/mol)

>  <smiles>  (60) 
O=C(c1ccc(Br)cc1)c1ccc(-c2cc[nH]c(=NS(=O)(=O)c3ccccc3)n2)nc1

>  <score_type>  (60) 
oracle

>  <origin>  (60) 
adg

>  <m_score__min__energy>  (60) 
-9.6600000000000001

>  <m_primary>  (60) 
energy

$$$$
60:0
     RDKit          3D

 55 60  0  0  1  0  0  0  0  0999 V2000
   60.7630   25.7350   51.5870 C   0  0  0  0  0  0  0  0  0  0  0  0
   60.9310   26.7140   50.4750 C   0  0  0  0  0  0  0  0  0  0  0  0
   61.4650   27.8150   50.7450 O   0  0  0  0  0  0  0  0  0  0  0  0
   60.5070   26.4260   49.1450 N   0  0  0  0  0  0  0  0  0  0  0  0
   60.1690   27.3460   48.3130 C   0  0  0  0  0  0  0  0  0  0  0  0
   60.7610   28.5510   48.3590 N   0  0  0  0  0  0  0  0  0  0  0  0
   60.4540   29.5340   47.5290 N   0  0  0  0  0  0  0  0  0  0  0  0
   60.9290   30.7880   47.4220 C   0  0  0  0  0  0  0  0  0  0  0  0
   61.9520   31.4670   48.2060 C   0  0  0  0  0  0  0  0  0  0  0  0
   62.7830   32.3960   47.6120 C   0  0  0  0  0  0  0  0  0  0  0  0
   63.7720   33.0730   48.3030 C   0  0  0  0  0  0  0  0  0  0  0  0
   63.9370   32.8110   49.6480 C   0  0  0  0  0  0  0  0  0  0  0  0
   64.9530   33.4720   50.4670 C   0  0  0  0  0  0  0  0  0  0  0  0
   66.2910   33.3110   50.3710 N   0  0  0  0  0  0  0  0  0  0  0  0
   66.8410   34.1130   51.3190 C   0  0  0  0  0  0  0  0  0  0  0  0
   65.8780   34.7620   51.9950 N   0  0  0  0  0  0  0  0  0  0  0  0
   64.7340   34.3530   51.4540 N   0  0  0  0  0  0  0  0  0  0  0  0
   63.1280   31.8970   50.2590 C   0  0  0  0  0  0  0  0  0  0  0  0
   62.1520   31.2340   49.5540 C   0  0  0  0  0  0  0  0  0  0  0  0
   60.2510   31.3800   46.3790 C   0  0  0  0  0  0  0  0  0  0  0  0
   59.3860   30.4680   45.8860 N   0  0  0  0  0  0  0  0  0  0  0  0
   59.4960   29.3210   46.5810 C   0  0  0  0  0  0  0  0  0  0  0  0
   58.8500   28.1050   46.4810 C   0  0  0  0  0  0  0  0  0  0  0  0
   59.2050   27.1120   47.3700 C   0  0  0  0  0  0  0  0  0  0  0  0
   58.4090   25.9030   47.1000 C   0  0  0  0  0  0  0  0  0  0  0  0
   57.4990   26.2830   46.0330 N   0  0  0  0  0  0  0  0  0  0  0  0
   56.4760   25.4180   45.5560 C   0  0  0  0  0  0  0  0  0  0  0  0
   56.7820   24.4940   44.5510 C   0  0  0  0  0  0  0  0  0  0  0  0
   55.8140   23.6390   44.0630 C   0  0  0  0  0  0  0  0  0  0  0  0
   56.1510   22.6610   42.9950 C   0  0  0  0  0  0  0  0  0  0  0  0
   54.5330   23.7130   44.5900 C   0  0  0  0  0  0  0  0  0  0  0  0
   54.2650   24.6340   45.5790 C   0  0  0  0  0  0  0  0  0  0  0  0
   55.2290   25.4440   46.0240 N   0  0  0  0  0  0  0  0  0  0  0  0
   57.7910   27.6080   45.5660 C   0  0  0  0  0  0  0  0  0  0  0  0
   60.8525   26.2566   52.5513 H   0  0  0  0  0  0  0  0  0  0  0  0
   59.7711   25.2650   51.5150 H   0  0  0  0  0  0  0  0  0  0  0  0
   61.5415   24.9612   51.5150 H   0  0  0  0  0  0  0  0  0  0  0  0
   61.4870   28.6840   49.0920 H   0  0  0  0  0  0  0  0  0  0  0  0
   62.6527   32.6075   46.5404 H   0  0  0  0  0  0  0  0  0  0  0  0
   64.4137   33.8051   47.7909 H   0  0  0  0  0  0  0  0  0  0  0  0
   67.9200   34.2164   51.5065 H   0  0  0  0  0  0  0  0  0  0  0  0
   65.9590   35.4510   52.7830 H   0  0  0  0  0  0  0  0  0  0  0  0
   63.2590   31.6880   51.3310 H   0  0  0  0  0  0  0  0  0  0  0  0
   61.5162   30.5021   50.0736 H   0  0  0  0  0  0  0  0  0  0  0  0
   60.3892   32.4085   46.0142 H   0  0  0  0  0  0  0  0  0  0  0  0
   59.0589   25.0761   46.7778 H   0  0  0  0  0  0  0  0  0  0  0  0
   57.8736   25.5523   47.9946 H   0  0  0  0  0  0  0  0  0  0  0  0
   57.8036   24.4483   44.1458 H   0  0  0  0  0  0  0  0  0  0  0  0
   56.4768   21.7155   43.4532 H   0  0  0  0  0  0  0  0  0  0  0  0
   55.2636   22.4794   42.3709 H   0  0  0  0  0  0  0  0  0  0  0  0
   56.9619   23.0646   42.3709 H   0  0  0  0  0  0  0  0  0  0  0  0
   53.7406   23.0443   44.2227 H   0  0  0  0  0  0  0  0  0  0  0  0
   53.2527   24.7024   46.0039 H   0  0  0  0  0  0  0  0  0  0  0  0
   58.1555   27.5822   44.5285 H   0  0  0  0  0  0  0  0  0  0  0  0
   56.9017   28.2555   45.5678 H   0  0  0  0  0  0  0  0  0  0  0  0
  1  2  1  0
  2  3  2  0
  2  4  1  0
  4  5  2  0
  5  6  1  0
  6  7  1  0
  7  8  1  0
  8  9  1  0
  9 10  2  0
 10 11  1  0
 11 12  2  0
 12 13  1  0
 13 14  1  0
 14 15  2  0
 15 16  1  0
 16 17  1  0
 12 18  1  0
 18 19  2  0
  8 20  2  0
 20 21  1  0
 21 22  2  0
 22 23  1  0
 23 24  2  0
 24 25  1  0
 25 26  1  0
 26 27  1  0
 27 28  2  0
 28 29  1  0
 29 30  1  0
 29 31  2  0
 31 32  1  0
 32 33  2  0
 26 34  1  0
 24  5  1  0
 33 27  1  0
 22  7  1  0
 34 23  1  0
 19  9  1  0
 17 13  2  0
  1 35  1  0
  1 36  1  0
  1 37  1  0
  6 38  1  0
 10 39  1  0
 11 40  1  0
 15 41  1  0
 16 42  1  0
 18 43  1  0
 19 44  1  0
 20 45  1  0
 25 46  1  0
 25 47  1  0
 28 48  1  0
 30 49  1  0
 30 50  1  0
 30 51  1  0
 31 52  1  0
 32 53  1  0
 34 54  1  0
 34 55  1  0
M  END
>  <smiles>  (61) 
CC(=O)N=c1[nH]n2c(-c3ccc(-c4nc[nH]n4)cc3)cnc2c2c1CN(c1cc(C)ccn1)C2

>  <score_type>  (61) 
oracle

>  <origin>  (61) 
adg

>  <m_score__min__energy>  (61) 
-8.6400000000000006

>  <m_primary>  (61) 
energy

$$$$
61:0
     RDKit          3D

 30 32  0  0  0  0  0  0  0  0999 V2000
   56.2820   30.3100   44.8670 O   0  0  0  0  0  0  0  0  0  0  0  0
   57.4890   30.6400   44.7080 C   0  0  0  0  0  0  0  0  0  0  0  0
   58.4410   29.6730   44.2410 N   0  0  0  0  0  0  0  0  0  0  0  0
   58.2430   28.2510   44.3440 C   0  0  0  0  0  0  0  0  0  0  0  0
   57.9900   27.4830   43.1930 C   0  0  0  0  0  0  0  0  0  0  0  0
   57.7690   26.1060   43.2940 C   0  0  0  0  0  0  0  0  0  0  0  0
   57.7880   25.4840   44.5430 C   0  0  0  0  0  0  0  0  0  0  0  0
   58.0250   26.2370   45.6950 C   0  0  0  0  0  0  0  0  0  0  0  0
   58.2470   27.6170   45.6040 C   0  0  0  0  0  0  0  0  0  0  0  0
   58.5940   28.5870   47.2220 Br  0  0  0  0  0  0  0  0  0  0  0  0
   57.8790   32.0060   44.9120 N   0  0  0  0  0  0  0  0  0  0  0  0
   57.7980   32.9900   43.9830 C   0  0  0  0  0  0  0  0  0  0  0  0
   58.2720   34.1920   44.4970 C   0  0  0  0  0  0  0  0  0  0  0  0
   58.6390   33.9120   45.7960 C   0  0  0  0  0  0  0  0  0  0  0  0
   59.1450   34.7510   46.7850 C   0  0  0  0  0  0  0  0  0  0  0  0
   59.3860   34.1980   48.0550 C   0  0  0  0  0  0  0  0  0  0  0  0
   59.1040   32.8390   48.3070 C   0  0  0  0  0  0  0  0  0  0  0  0
   58.5890   32.0150   47.2890 C   0  0  0  0  0  0  0  0  0  0  0  0
   58.3850   32.5820   46.0250 C   0  0  0  0  0  0  0  0  0  0  0  0
   59.2840   30.0300   43.7400 H   0  0  0  0  0  0  0  0  0  0  0  0
   57.9658   27.9691   42.2065 H   0  0  0  0  0  0  0  0  0  0  0  0
   57.5799   25.5122   42.3876 H   0  0  0  0  0  0  0  0  0  0  0  0
   57.6162   24.4002   44.6202 H   0  0  0  0  0  0  0  0  0  0  0  0
   58.0374   25.7441   46.6783 H   0  0  0  0  0  0  0  0  0  0  0  0
   57.4104   32.8559   42.9623 H   0  0  0  0  0  0  0  0  0  0  0  0
   58.3397   35.1595   43.9780 H   0  0  0  0  0  0  0  0  0  0  0  0
   59.3496   35.8121   46.5795 H   0  0  0  0  0  0  0  0  0  0  0  0
   59.7969   34.8289   48.8569 H   0  0  0  0  0  0  0  0  0  0  0  0
   59.2881   32.4200   49.3073 H   0  0  0  0  0  0  0  0  0  0  0  0
   58.3539   30.9576   47.4804 H   0  0  0  0  0  0  0  0  0  0  0  0
  1  2  2  0
  2  3  1  0
  3  4  1  0
  4  5  2  0
  5  6  1  0
  6  7  2  0
  7  8  1  0
  8  9  2  0
  9 10  1  0
  2 11  1  0
 11 12  1  0
 12 13  2  0
 13 14  1  0
 14 15  2  0
 15 16  1  0
 16 17  2  0
 17 18  1  0
 18 19  2  0
  9  4  1  0
 19 11  1  0
 19 14  1  0
  3 20  1  0
  5 21  1  0
  6 22  1  0
  7 23  1  0
  8 24  1  0
 12 25  1  0
 13 26  1  0
 15 27  1  0
 16 28  1  0
 17 29  1  0
 18 30  1  0
M  END
>  <UniqueID>  (62) 
54

>  <SMILES>  (62) 
O=C(Nc1ccccc1Br)n1ccc2ccccc21

>  <Energy>  (62) 
74.12147279245579

>  <Genealogy>  (62) 
O=C(Nc1ccccc1Br)n1ccc2ccccc21 (3D coordinates assigned)
O=C(Nc1ccccc1Br)n1ccc2ccccc21 (optimized conformer: 74.12147279245579 kcal/mol)

>  <smiles>  (62) 
O=C(Nc1ccccc1Br)n1ccc2ccccc21

>  <score_type>  (62) 
oracle

>  <origin>  (62) 
adg

>  <m_score__min__energy>  (62) 
-7.5800000000000001

>  <m_primary>  (62) 
energy

$$$$
62:0
     RDKit          3D

 43 44  0  0  0  0  0  0  0  0999 V2000
   55.5390   28.8210   45.2240 N   0  0  0  0  0  0  0  0  0  0  0  0
   56.7140   29.9370   44.6210 S   0  0  0  0  0  0  0  0  0  0  0  0
   57.1710   29.4740   43.2670 O   0  0  0  0  0  0  0  0  0  0  0  0
   56.0940   31.3010   44.4980 O   0  0  0  0  0  0  0  0  0  0  0  0
   58.0810   30.0150   45.7280 C   0  0  0  0  0  0  0  0  0  0  0  0
   59.1550   30.8770   45.4720 C   0  0  0  0  0  0  0  0  0  0  0  0
   60.2320   30.9410   46.3600 C   0  0  0  0  0  0  0  0  0  0  0  0
   60.2500   30.1450   47.5210 C   0  0  0  0  0  0  0  0  0  0  0  0
   61.3510   30.2300   48.4490 N   0  0  0  0  0  0  0  0  0  0  0  0
   62.0370   31.4910   48.2880 C   0  0  0  0  0  0  0  0  0  0  0  0
   63.3990   31.5630   47.3730 S   0  0  0  0  0  0  0  0  0  0  0  0
   61.5380   32.7070   48.8750 N   0  0  0  0  0  0  0  0  0  0  0  0
   60.5280   32.7350   49.9330 C   0  0  0  0  0  0  0  0  0  0  0  0
   59.2780   33.5000   49.4770 C   0  0  0  0  0  0  0  0  0  0  0  0
   58.4800   32.7340   48.4140 C   0  0  0  0  0  0  0  0  0  0  0  0
   58.4080   33.4790   47.1560 N   0  0  0  0  0  0  0  0  0  0  0  0
   57.2840   33.4350   46.2360 C   0  0  0  0  0  0  0  0  0  0  0  0
   57.6580   34.3650   45.0660 C   0  0  0  0  0  0  0  0  0  0  0  0
   59.1330   34.7570   45.2460 C   0  0  0  0  0  0  0  0  0  0  0  0
   59.4690   34.2120   46.5750 C   0  0  0  0  0  0  0  0  0  0  0  0
   60.5890   34.3650   47.1320 O   0  0  0  0  0  0  0  0  0  0  0  0
   59.1640   29.2880   47.7740 C   0  0  0  0  0  0  0  0  0  0  0  0
   58.0880   29.2250   46.8840 C   0  0  0  0  0  0  0  0  0  0  0  0
   54.6410   29.3460   45.3200 H   0  0  0  0  0  0  0  0  0  0  0  0
   59.1506   31.5054   44.5692 H   0  0  0  0  0  0  0  0  0  0  0  0
   61.0725   31.6188   46.1502 H   0  0  0  0  0  0  0  0  0  0  0  0
   62.0270   29.4500   48.2730 H   0  0  0  0  0  0  0  0  0  0  0  0
   61.0040   30.1040   49.4250 H   0  0  0  0  0  0  0  0  0  0  0  0
   61.9960   33.6050   48.5920 H   0  0  0  0  0  0  0  0  0  0  0  0
   60.2454   31.7031   50.1885 H   0  0  0  0  0  0  0  0  0  0  0  0
   60.9520   33.2457   50.8101 H   0  0  0  0  0  0  0  0  0  0  0  0
   58.6306   33.6713   50.3496 H   0  0  0  0  0  0  0  0  0  0  0  0
   59.6095   34.4485   49.0292 H   0  0  0  0  0  0  0  0  0  0  0  0
   58.9689   31.7662   48.2287 H   0  0  0  0  0  0  0  0  0  0  0  0
   57.4558   32.5903   48.7888 H   0  0  0  0  0  0  0  0  0  0  0  0
   57.1266   32.4085   45.8733 H   0  0  0  0  0  0  0  0  0  0  0  0
   56.3511   33.7548   46.7232 H   0  0  0  0  0  0  0  0  0  0  0  0
   57.5225   33.8393   44.1093 H   0  0  0  0  0  0  0  0  0  0  0  0
   57.0162   35.2583   45.0586 H   0  0  0  0  0  0  0  0  0  0  0  0
   59.7596   34.3032   44.4641 H   0  0  0  0  0  0  0  0  0  0  0  0
   59.3028   35.8411   45.1698 H   0  0  0  0  0  0  0  0  0  0  0  0
   59.1613   28.6627   48.6789 H   0  0  0  0  0  0  0  0  0  0  0  0
   57.2433   28.5520   47.0926 H   0  0  0  0  0  0  0  0  0  0  0  0
  1  2  1  0
  2  3  2  0
  2  4  2  0
  2  5  1  0
  5  6  2  0
  6  7  1  0
  7  8  2  0
  8  9  1  0
  9 10  1  0
 10 11  2  0
 10 12  1  0
 12 13  1  0
 13 14  1  0
 14 15  1  0
 15 16  1  0
 16 17  1  0
 17 18  1  0
 18 19  1  0
 19 20  1  0
 20 21  2  0
  8 22  1  0
 22 23  2  0
 23  5  1  0
 20 16  1  0
  1 24  1  0
  6 25  1  0
  7 26  1  0
  9 27  1  0
  9 28  1  0
 12 29  1  0
 13 30  1  0
 13 31  1  0
 14 32  1  0
 14 33  1  0
 15 34  1  0
 15 35  1  0
 17 36  1  0
 17 37  1  0
 18 38  1  0
 18 39  1  0
 19 40  1  0
 19 41  1  0
 22 42  1  0
 23 43  1  0
M  CHG  2   1  -1   9   1
M  END
>  <UniqueID>  (63) 
55

>  <SMILES>  (63) 
[NH-]S(=O)(=O)c1ccc([NH2+]C(=S)NCCCN2CCCC2=O)cc1

>  <Energy>  (63) 
42.9239781912975

>  <Genealogy>  (63) 
[NH-]S(=O)(=O)c1ccc([NH2+]C(=S)NCCCN2CCCC2=O)cc1 (protonated)
[NH-]S(=O)(=O)c1ccc([NH2+]C(=S)NCCCN2CCCC2=O)cc1 (3D coordinates assigned)
[NH-]S(=O)(=O)c1ccc([NH2+]C(=S)NCCCN2CCCC2=O)cc1 (nonaromatic ring conformer: 42.9239781912975 kcal/mol)

>  <smiles>  (63) 
NS(=O)(=O)c1ccc(NC(=S)NCCCN2CCCC2=O)cc1

>  <score_type>  (63) 
oracle

>  <origin>  (63) 
adg

>  <m_score__min__energy>  (63) 
-8.6300000000000008

>  <m_primary>  (63) 
energy

$$$$
63:0
     RDKit          3D

 45 47  0  0  0  0  0  0  0  0999 V2000
   57.8050   32.2500   41.8200 C   0  0  0  0  0  0  0  0  0  0  0  0
   57.3920   31.4790   43.0720 C   0  0  0  0  0  0  0  0  0  0  0  0
   56.2620   30.4830   42.7870 C   0  0  0  0  0  0  0  0  0  0  0  0
   56.3220   29.3390   43.6920 N   0  0  0  0  0  0  0  0  0  0  0  0
   57.2900   29.2050   44.7380 C   0  0  0  0  0  0  0  0  0  0  0  0
   56.9180   29.0810   45.9360 O   0  0  0  0  0  0  0  0  0  0  0  0
   58.6840   29.2080   44.4090 N   0  0  0  0  0  0  0  0  0  0  0  0
   59.7310   29.0440   45.4150 C   0  0  0  0  0  0  0  0  0  0  0  0
   59.9950   30.3500   46.1030 C   0  0  0  0  0  0  0  0  0  0  0  0
   61.0940   30.4920   46.9830 C   0  0  0  0  0  0  0  0  0  0  0  0
   61.3310   31.7390   47.5870 C   0  0  0  0  0  0  0  0  0  0  0  0
   62.4850   31.9280   48.4900 C   0  0  0  0  0  0  0  0  0  0  0  0
   62.4770   31.2870   49.7390 C   0  0  0  0  0  0  0  0  0  0  0  0
   63.5360   31.4620   50.6310 C   0  0  0  0  0  0  0  0  0  0  0  0
   64.6110   32.2840   50.2880 C   0  0  0  0  0  0  0  0  0  0  0  0
   64.6320   32.9280   49.0500 C   0  0  0  0  0  0  0  0  0  0  0  0
   63.5810   32.7510   48.1340 C   0  0  0  0  0  0  0  0  0  0  0  0
   63.6320   33.4580   46.8060 C   0  0  0  0  0  0  0  0  0  0  0  0
   60.4800   32.7580   47.2830 N   0  0  0  0  0  0  0  0  0  0  0  0
   60.3890   34.0440   47.6830 C   0  0  0  0  0  0  0  0  0  0  0  0
   61.1730   34.5910   48.5030 O   0  0  0  0  0  0  0  0  0  0  0  0
   59.3690   34.6680   47.1230 O   0  0  0  0  0  0  0  0  0  0  0  0
   58.7640   33.7920   46.3440 C   0  0  0  0  0  0  0  0  0  0  0  0
   57.5970   34.0590   45.5480 C   0  0  0  0  0  0  0  0  0  0  0  0
   56.6570   34.2740   44.9080 N   0  0  0  0  0  0  0  0  0  0  0  0
   59.4490   32.6030   46.4430 C   0  0  0  0  0  0  0  0  0  0  0  0
   59.1860   31.4190   45.8410 N   0  0  0  0  0  0  0  0  0  0  0  0
   58.3056   33.1845   42.1134 H   0  0  0  0  0  0  0  0  0  0  0  0
   58.4951   31.6363   41.2224 H   0  0  0  0  0  0  0  0  0  0  0  0
   56.9117   32.4845   41.2224 H   0  0  0  0  0  0  0  0  0  0  0  0
   58.2640   30.9272   43.4529 H   0  0  0  0  0  0  0  0  0  0  0  0
   57.0258   32.2052   43.8126 H   0  0  0  0  0  0  0  0  0  0  0  0
   55.2952   30.9915   42.9160 H   0  0  0  0  0  0  0  0  0  0  0  0
   56.3745   30.1162   41.7561 H   0  0  0  0  0  0  0  0  0  0  0  0
   58.9640   29.3450   43.4110 H   0  0  0  0  0  0  0  0  0  0  0  0
   59.4079   28.3002   46.1582 H   0  0  0  0  0  0  0  0  0  0  0  0
   60.6537   28.7044   44.9217 H   0  0  0  0  0  0  0  0  0  0  0  0
   61.7544   29.6375   47.1918 H   0  0  0  0  0  0  0  0  0  0  0  0
   61.6301   30.6423   50.0165 H   0  0  0  0  0  0  0  0  0  0  0  0
   63.5236   30.9517   51.6054 H   0  0  0  0  0  0  0  0  0  0  0  0
   65.4425   32.4243   50.9944 H   0  0  0  0  0  0  0  0  0  0  0  0
   65.4787   33.5799   48.7889 H   0  0  0  0  0  0  0  0  0  0  0  0
   63.7102   34.5428   46.9709 H   0  0  0  0  0  0  0  0  0  0  0  0
   64.5073   33.1093   46.2384 H   0  0  0  0  0  0  0  0  0  0  0  0
   62.7157   33.2386   46.2384 H   0  0  0  0  0  0  0  0  0  0  0  0
  1  2  1  0
  2  3  1  0
  3  4  1  0
  4  5  1  0
  5  6  2  0
  5  7  1  0
  7  8  1  0
  8  9  1  0
  9 10  1  0
 10 11  2  0
 11 12  1  0
 12 13  2  0
 13 14  1  0
 14 15  2  0
 15 16  1  0
 16 17  2  0
 17 18  1  0
 11 19  1  0
 19 20  1  0
 20 21  2  0
 20 22  1  0
 22 23  1  0
 23 24  1  0
 24 25  3  0
 23 26  2  0
 26 27  1  0
 27  9  2  0
 17 12  1  0
 26 19  1  0
  1 28  1  0
  1 29  1  0
  1 30  1  0
  2 31  1  0
  2 32  1  0
  3 33  1  0
  3 34  1  0
  7 35  1  0
  8 36  1  0
  8 37  1  0
 10 38  1  0
 13 39  1  0
 14 40  1  0
 15 41  1  0
 16 42  1  0
 18 43  1  0
 18 44  1  0
 18 45  1  0
M  CHG  1   4  -1
M  END
>  <UniqueID>  (64) 
56

>  <SMILES>  (64) 
CCC[N-]C(=O)NCc1cc(-c2ccccc2C)n2c(=O)oc(C#N)c2n1

>  <Energy>  (64) 
86.7158347317084

>  <Genealogy>  (64) 
CCC[N-]C(=O)NCc1cc(-c2ccccc2C)n2c(=O)oc(C#N)c2n1 (protonated)
CCC[N-]C(=O)NCc1cc(-c2ccccc2C)n2c(=O)oc(C#N)c2n1 (3D coordinates assigned)
CCC[N-]C(=O)NCc1cc(-c2ccccc2C)n2c(=O)oc(C#N)c2n1 (optimized conformer: 86.7158347317084 kcal/mol)

>  <smiles>  (64) 
CCCNC(=O)NCc1cc(-c2ccccc2C)n2c(=O)oc(C#N)c2n1

>  <score_type>  (64) 
oracle

>  <origin>  (64) 
adg

>  <m_score__min__energy>  (64) 
-9.6099999999999994

>  <m_primary>  (64) 
energy

$$$$
64:0
     RDKit          3D

 53 55  0  0  0  0  0  0  0  0999 V2000
   65.5480   33.6090   51.7150 C   0  0  0  0  0  0  0  0  0  0  0  0
   64.4870   34.0020   50.7970 N   0  0  0  0  0  0  0  0  0  0  0  0
   64.1740   33.2240   49.6300 C   0  0  0  0  0  0  0  0  0  0  0  0
   64.9190   32.2570   49.3110 O   0  0  0  0  0  0  0  0  0  0  0  0
   63.0380   33.5480   48.8060 N   0  0  0  0  0  0  0  0  0  0  0  0
   61.8990   34.3030   49.3520 C   0  0  0  0  0  0  0  0  0  0  0  0
   60.5720   33.7910   48.7700 C   0  0  0  0  0  0  0  0  0  0  0  0
   60.6620   33.5390   47.3240 N   0  0  0  0  0  0  0  0  0  0  0  0
   59.5470   32.9400   46.6380 C   0  0  0  0  0  0  0  0  0  0  0  0
   59.6230   31.6150   46.1810 C   0  0  0  0  0  0  0  0  0  0  0  0
   58.5490   31.0430   45.4940 C   0  0  0  0  0  0  0  0  0  0  0  0
   57.3930   31.7980   45.2310 C   0  0  0  0  0  0  0  0  0  0  0  0
   56.2830   31.2380   44.5170 N   0  0  0  0  0  0  0  0  0  0  0  0
   56.1120   29.8440   44.2350 C   0  0  0  0  0  0  0  0  0  0  0  0
   56.3910   29.4120   43.0880 O   0  0  0  0  0  0  0  0  0  0  0  0
   55.6700   28.9230   45.2390 N   0  0  0  0  0  0  0  0  0  0  0  0
   56.3220   27.6510   45.5270 C   0  0  0  0  0  0  0  0  0  0  0  0
   57.7770   27.8900   45.8390 C   0  0  0  0  0  0  0  0  0  0  0  0
   58.1360   28.2710   47.1440 C   0  0  0  0  0  0  0  0  0  0  0  0
   59.4710   28.5180   47.4700 C   0  0  0  0  0  0  0  0  0  0  0  0
   60.4620   28.3990   46.4980 C   0  0  0  0  0  0  0  0  0  0  0  0
   60.1230   28.0390   45.1930 C   0  0  0  0  0  0  0  0  0  0  0  0
   58.7830   27.7930   44.8440 C   0  0  0  0  0  0  0  0  0  0  0  0
   58.4530   27.4150   43.4230 C   0  0  0  0  0  0  0  0  0  0  0  0
   57.3070   33.1100   45.7050 C   0  0  0  0  0  0  0  0  0  0  0  0
   58.3790   33.6830   46.3970 C   0  0  0  0  0  0  0  0  0  0  0  0
   61.9140   33.8190   46.6120 C   0  0  0  0  0  0  0  0  0  0  0  0
   63.0830   33.1990   47.3760 C   0  0  0  0  0  0  0  0  0  0  0  0
   65.2023   33.7371   52.7514 H   0  0  0  0  0  0  0  0  0  0  0  0
   65.8094   32.5544   51.5433 H   0  0  0  0  0  0  0  0  0  0  0  0
   66.4333   34.2388   51.5433 H   0  0  0  0  0  0  0  0  0  0  0  0
   63.9790   34.8950   50.9820 H   0  0  0  0  0  0  0  0  0  0  0  0
   61.8811   34.1870   50.4457 H   0  0  0  0  0  0  0  0  0  0  0  0
   62.0167   35.3623   49.0798 H   0  0  0  0  0  0  0  0  0  0  0  0
   60.3008   32.8533   49.2771 H   0  0  0  0  0  0  0  0  0  0  0  0
   59.8097   34.5674   48.9314 H   0  0  0  0  0  0  0  0  0  0  0  0
   60.5324   31.0240   46.3646 H   0  0  0  0  0  0  0  0  0  0  0  0
   58.6085   29.9974   45.1576 H   0  0  0  0  0  0  0  0  0  0  0  0
   55.8348   27.1771   46.3919 H   0  0  0  0  0  0  0  0  0  0  0  0
   56.2391   26.9906   44.6512 H   0  0  0  0  0  0  0  0  0  0  0  0
   57.3583   28.3754   47.9149 H   0  0  0  0  0  0  0  0  0  0  0  0
   59.7409   28.8072   48.4964 H   0  0  0  0  0  0  0  0  0  0  0  0
   61.5134   28.5891   46.7596 H   0  0  0  0  0  0  0  0  0  0  0  0
   60.9107   27.9468   44.4307 H   0  0  0  0  0  0  0  0  0  0  0  0
   57.7296   26.5864   43.4226 H   0  0  0  0  0  0  0  0  0  0  0  0
   58.0177   28.2820   42.9046 H   0  0  0  0  0  0  0  0  0  0  0  0
   59.3709   27.1007   42.9046 H   0  0  0  0  0  0  0  0  0  0  0  0
   56.3915   33.6950   45.5329 H   0  0  0  0  0  0  0  0  0  0  0  0
   58.3073   34.7208   46.7545 H   0  0  0  0  0  0  0  0  0  0  0  0
   61.8658   33.3870   45.6015 H   0  0  0  0  0  0  0  0  0  0  0  0
   62.0592   34.9069   46.5387 H   0  0  0  0  0  0  0  0  0  0  0  0
   63.0371   32.1048   47.2734 H   0  0  0  0  0  0  0  0  0  0  0  0
   64.0193   33.5926   46.9536 H   0  0  0  0  0  0  0  0  0  0  0  0
  1  2  1  0
  2  3  1  0
  3  4  2  0
  3  5  1  0
  5  6  1  0
  6  7  1  0
  7  8  1  0
  8  9  1  0
  9 10  2  0
 10 11  1  0
 11 12  2  0
 12 13  1  0
 13 14  1  0
 14 15  2  0
 14 16  1  0
 16 17  1  0
 17 18  1  0
 18 19  2  0
 19 20  1  0
 20 21  2  0
 21 22  1  0
 22 23  2  0
 23 24  1  0
 12 25  1  0
 25 26  2  0
  8 27  1  0
 27 28  1  0
 28  5  1  0
 26  9  1  0
 23 18  1  0
  1 29  1  0
  1 30  1  0
  1 31  1  0
  2 32  1  0
  6 33  1  0
  6 34  1  0
  7 35  1  0
  7 36  1  0
 10 37  1  0
 11 38  1  0
 17 39  1  0
 17 40  1  0
 19 41  1  0
 20 42  1  0
 21 43  1  0
 22 44  1  0
 24 45  1  0
 24 46  1  0
 24 47  1  0
 25 48  1  0
 26 49  1  0
 27 50  1  0
 27 51  1  0
 28 52  1  0
 28 53  1  0
M  CHG  2  13  -1  16  -1
M  END
>  <UniqueID>  (65) 
57

>  <SMILES>  (65) 
CNC(=O)N1CCN(c2ccc([N-]C(=O)[N-]Cc3ccccc3C)cc2)CC1

>  <Energy>  (65) 
60.824072954113724

>  <Genealogy>  (65) 
CNC(=O)N1CCN(c2ccc([N-]C(=O)[N-]Cc3ccccc3C)cc2)CC1 (protonated)
CNC(=O)N1CCN(c2ccc([N-]C(=O)[N-]Cc3ccccc3C)cc2)CC1 (3D coordinates assigned)
CNC(=O)N1CCN(c2ccc([N-]C(=O)[N-]Cc3ccccc3C)cc2)CC1 (nonaromatic ring conformer: 60.824072954113724 kcal/mol)

>  <smiles>  (65) 
CNC(=O)N1CCN(c2ccc(NC(=O)NCc3ccccc3C)cc2)CC1

>  <score_type>  (65) 
oracle

>  <origin>  (65) 
adg

>  <m_score__min__energy>  (65) 
-11.460000000000001

>  <m_primary>  (65) 
energy

$$$$
65:0
     RDKit          3D

 40 42  0  0  0  0  0  0  0  0999 V2000
   56.4440   20.7630   42.9830 O   0  0  0  0  0  0  0  0  0  0  0  0
   56.6950   21.0090   44.1920 C   0  0  0  0  0  0  0  0  0  0  0  0
   55.9180   22.0160   44.9540 C   0  0  0  0  0  0  0  0  0  0  0  0
   54.7460   21.5800   45.6010 C   0  0  0  0  0  0  0  0  0  0  0  0
   54.3700   20.2390   45.5630 O   0  0  0  0  0  0  0  0  0  0  0  0
   53.9280   22.4850   46.2740 C   0  0  0  0  0  0  0  0  0  0  0  0
   54.2570   23.8360   46.3160 C   0  0  0  0  0  0  0  0  0  0  0  0
   55.4360   24.3070   45.7130 C   0  0  0  0  0  0  0  0  0  0  0  0
   55.7700   25.6780   45.7800 C   0  0  0  0  0  0  0  0  0  0  0  0
   54.8550   26.5690   46.3550 O   0  0  0  0  0  0  0  0  0  0  0  0
   56.9960   26.1320   45.2420 C   0  0  0  0  0  0  0  0  0  0  0  0
   57.4490   27.5310   45.3790 C   0  0  0  0  0  0  0  0  0  0  0  0
   58.6820   27.7830   45.4570 O   0  0  0  0  0  0  0  0  0  0  0  0
   56.4910   28.5900   45.4980 N   0  0  0  0  0  0  0  0  0  0  0  0
   56.3510   29.6650   44.5230 C   0  0  0  0  0  0  0  0  0  0  0  0
   57.7140   30.2950   44.2230 C   0  0  0  0  0  0  0  0  0  0  0  0
   57.8510   31.6200   44.9240 C   0  0  0  0  0  0  0  0  0  0  0  0
   58.1640   31.6680   46.2930 C   0  0  0  0  0  0  0  0  0  0  0  0
   58.3230   32.9010   46.9360 C   0  0  0  0  0  0  0  0  0  0  0  0
   58.1790   34.0900   46.2150 C   0  0  0  0  0  0  0  0  0  0  0  0
   57.8810   34.0490   44.8500 C   0  0  0  0  0  0  0  0  0  0  0  0
   57.7220   32.8200   44.2040 C   0  0  0  0  0  0  0  0  0  0  0  0
   57.8400   25.2190   44.5970 C   0  0  0  0  0  0  0  0  0  0  0  0
   57.5010   23.8720   44.5020 C   0  0  0  0  0  0  0  0  0  0  0  0
   56.2910   23.3890   45.0380 C   0  0  0  0  0  0  0  0  0  0  0  0
   57.5086   20.4649   44.6940 H   0  0  0  0  0  0  0  0  0  0  0  0
   53.0160   22.1289   46.7754 H   0  0  0  0  0  0  0  0  0  0  0  0
   53.5871   24.5434   46.8267 H   0  0  0  0  0  0  0  0  0  0  0  0
   55.1180   27.4640   46.7460 H   0  0  0  0  0  0  0  0  0  0  0  0
   55.9274   29.2579   43.5930 H   0  0  0  0  0  0  0  0  0  0  0  0
   55.6846   30.4366   44.9361 H   0  0  0  0  0  0  0  0  0  0  0  0
   58.5091   29.6186   44.5698 H   0  0  0  0  0  0  0  0  0  0  0  0
   57.7987   30.4572   43.1383 H   0  0  0  0  0  0  0  0  0  0  0  0
   58.2844   30.7338   46.8611 H   0  0  0  0  0  0  0  0  0  0  0  0
   58.5614   32.9345   48.0093 H   0  0  0  0  0  0  0  0  0  0  0  0
   58.3003   35.0585   46.7222 H   0  0  0  0  0  0  0  0  0  0  0  0
   57.7715   34.9855   44.2834 H   0  0  0  0  0  0  0  0  0  0  0  0
   57.4950   32.7918   43.1280 H   0  0  0  0  0  0  0  0  0  0  0  0
   58.7853   25.5717   44.1587 H   0  0  0  0  0  0  0  0  0  0  0  0
   58.1882   23.1744   44.0009 H   0  0  0  0  0  0  0  0  0  0  0  0
  1  2  2  0
  2  3  1  0
  3  4  2  0
  4  5  1  0
  4  6  1  0
  6  7  2  0
  7  8  1  0
  8  9  2  0
  9 10  1  0
  9 11  1  0
 11 12  1  0
 12 13  2  0
 12 14  1  0
 14 15  1  0
 15 16  1  0
 16 17  1  0
 17 18  2  0
 18 19  1  0
 19 20  2  0
 20 21  1  0
 21 22  2  0
 11 23  2  0
 23 24  1  0
 24 25  2  0
 25  3  1  0
 25  8  1  0
 22 17  1  0
  2 26  1  0
  6 27  1  0
  7 28  1  0
 10 29  1  0
 15 30  1  0
 15 31  1  0
 16 32  1  0
 16 33  1  0
 18 34  1  0
 19 35  1  0
 20 36  1  0
 21 37  1  0
 22 38  1  0
 23 39  1  0
 24 40  1  0
M  CHG  2   5  -1  14  -1
M  END
>  <UniqueID>  (66) 
58

>  <SMILES>  (66) 
O=Cc1c([O-])ccc2c(O)c(C(=O)[N-]CCc3ccccc3)ccc12

>  <Energy>  (66) 
56.46294984297837

>  <Genealogy>  (66) 
O=Cc1c([O-])ccc2c(O)c(C(=O)[N-]CCc3ccccc3)ccc12 (protonated)
O=Cc1c([O-])ccc2c(O)c(C(=O)[N-]CCc3ccccc3)ccc12 (3D coordinates assigned)
O=Cc1c([O-])ccc2c(O)c(C(=O)[N-]CCc3ccccc3)ccc12 (optimized conformer: 56.46294984297837 kcal/mol)

>  <smiles>  (66) 
O=Cc1c(O)ccc2c(O)c(C(=O)NCCc3ccccc3)ccc12

>  <score_type>  (66) 
oracle

>  <origin>  (66) 
adg

>  <m_score__min__energy>  (66) 
-11.710000000000001

>  <m_primary>  (66) 
energy

$$$$
66:0
     RDKit          3D

 30 31  0  0  0  0  0  0  0  0999 V2000
   59.4913   27.8478   43.5177 H   0  0  0  0  0  0  0  0  0  0  0  0
   58.7730   28.3200   44.2040 C   0  0  0  0  0  0  0  0  0  0  0  0
   57.5370   28.5520   43.7450 C   0  0  0  0  0  0  0  0  0  0  0  0
   57.1310   27.8491   43.0026 H   0  0  0  0  0  0  0  0  0  0  0  0
   56.5070   29.9010   44.2400 S   0  0  0  0  0  0  0  0  0  0  0  0
   55.1430   29.3780   44.5930 O   0  0  0  0  0  0  0  0  0  0  0  0
   56.3770   30.8600   43.0910 O   0  0  0  0  0  0  0  0  0  0  0  0
   57.1530   30.7440   45.6120 N   0  0  0  0  0  0  0  0  0  0  0  0
   57.7570   32.0440   45.5820 C   0  0  0  0  0  0  0  0  0  0  0  0
   58.1180   32.5840   44.3400 C   0  0  0  0  0  0  0  0  0  0  0  0
   57.9004   32.0266   43.4170 H   0  0  0  0  0  0  0  0  0  0  0  0
   58.7530   33.8270   44.2680 C   0  0  0  0  0  0  0  0  0  0  0  0
   59.0389   34.2421   43.2903 H   0  0  0  0  0  0  0  0  0  0  0  0
   59.0250   34.5430   45.4370 C   0  0  0  0  0  0  0  0  0  0  0  0
   59.6440   35.7470   45.3630 F   0  0  0  0  0  0  0  0  0  0  0  0
   58.6580   34.0170   46.6790 C   0  0  0  0  0  0  0  0  0  0  0  0
   58.9190   34.7120   47.8140 F   0  0  0  0  0  0  0  0  0  0  0  0
   58.0240   32.7730   46.7540 C   0  0  0  0  0  0  0  0  0  0  0  0
   57.7333   32.3636   47.7327 H   0  0  0  0  0  0  0  0  0  0  0  0
   59.2420   28.6510   45.5620 C   0  0  0  0  0  0  0  0  0  0  0  0
   58.7910   27.9360   46.6840 C   0  0  0  0  0  0  0  0  0  0  0  0
   58.0657   27.1186   46.5581 H   0  0  0  0  0  0  0  0  0  0  0  0
   59.2610   28.2600   47.9600 C   0  0  0  0  0  0  0  0  0  0  0  0
   58.9153   27.6890   48.8343 H   0  0  0  0  0  0  0  0  0  0  0  0
   60.1700   29.3090   48.1260 C   0  0  0  0  0  0  0  0  0  0  0  0
   60.5467   29.5560   49.1295 H   0  0  0  0  0  0  0  0  0  0  0  0
   60.6010   30.0450   47.0170 C   0  0  0  0  0  0  0  0  0  0  0  0
   61.7480   31.3540   47.2240 Cl  0  0  0  0  0  0  0  0  0  0  0  0
   60.1260   29.7260   45.7400 C   0  0  0  0  0  0  0  0  0  0  0  0
   60.4470   30.3206   44.8720 H   0  0  0  0  0  0  0  0  0  0  0  0
  1  2  1  0
  2  3  2  0
  3  4  1  0
  3  5  1  0
  5  6  2  0
  5  7  2  0
  5  8  1  0
  8  9  1  0
  9 10  2  0
 10 11  1  0
 10 12  1  0
 12 13  1  0
 12 14  2  0
 14 15  1  0
 14 16  1  0
 16 17  1  0
 16 18  2  0
 18 19  1  0
  2 20  1  0
 20 21  2  0
 21 22  1  0
 21 23  1  0
 23 24  1  0
 23 25  2  0
 25 26  1  0
 25 27  1  0
 27 28  1  0
 27 29  2  0
 29 30  1  0
 18  9  1  0
 29 20  1  0
M  CHG  1   8  -1
M  END
>  <UniqueID>  (67) 
59

>  <SMILES>  (67) 
O=S(=O)(/C=C\c1cccc(Cl)c1)[N-]c1ccc(F)c(F)c1

>  <Energy>  (67) 
37.79873598652568

>  <Genealogy>  (67) 
O=S(=O)(C=Cc1cccc(Cl)c1)[N-]c1ccc(F)c(F)c1 (protonated)
O=S(=O)(/C=C\c1cccc(Cl)c1)[N-]c1ccc(F)c(F)c1 (cis-trans isomerization)
O=S(=O)(/C=C\c1cccc(Cl)c1)[N-]c1ccc(F)c(F)c1 (3D coordinates assigned)
O=S(=O)(/C=C\c1cccc(Cl)c1)[N-]c1ccc(F)c(F)c1 (optimized conformer: 37.79873598652568 kcal/mol)

>  <smiles>  (67) 
O=S(=O)(C=Cc1cccc(Cl)c1)Nc1ccc(F)c(F)c1

>  <score_type>  (67) 
oracle

>  <origin>  (67) 
adg

>  <m_score__min__energy>  (67) 
-9.0800000000000001

>  <m_primary>  (67) 
energy

$$$$
67:0
     RDKit          3D

 34 36  0  0  0  0  0  0  0  0999 V2000
   59.7690   27.8500   47.4320 O   0  0  0  0  0  0  0  0  0  0  0  0
   58.8450   28.6790   47.1560 C   0  0  0  0  0  0  0  0  0  0  0  0
   57.7090   28.2550   46.2720 C   0  0  0  0  0  0  0  0  0  0  0  0
   57.5340   29.2060   45.1740 N   0  0  0  0  0  0  0  0  0  0  0  0
   56.3780   29.5440   44.5740 C   0  0  0  0  0  0  0  0  0  0  0  0
   55.1480   28.9780   44.8820 O   0  0  0  0  0  0  0  0  0  0  0  0
   56.5780   30.5280   43.6250 C   0  0  0  0  0  0  0  0  0  0  0  0
   57.9300   30.8220   43.6590 C   0  0  0  0  0  0  0  0  0  0  0  0
   58.4780   29.9980   44.6260 C   0  0  0  0  0  0  0  0  0  0  0  0
   59.8180   29.9890   45.0070 O   0  0  0  0  0  0  0  0  0  0  0  0
   58.8700   30.0190   47.6710 N   0  0  0  0  0  0  0  0  0  0  0  0
   60.0200   30.8060   48.0010 C   0  0  0  0  0  0  0  0  0  0  0  0
   61.1110   30.3380   48.7530 C   0  0  0  0  0  0  0  0  0  0  0  0
   62.1580   31.2490   48.8350 C   0  0  0  0  0  0  0  0  0  0  0  0
   61.7390   32.6200   47.9570 S   0  0  0  0  0  0  0  0  0  0  0  0
   60.2160   32.0860   47.4750 C   0  0  0  0  0  0  0  0  0  0  0  0
   59.2720   32.8620   46.6290 C   0  0  0  0  0  0  0  0  0  0  0  0
   59.7620   33.7920   45.6960 C   0  0  0  0  0  0  0  0  0  0  0  0
   58.8800   34.5120   44.8860 C   0  0  0  0  0  0  0  0  0  0  0  0
   57.5010   34.3210   45.0050 C   0  0  0  0  0  0  0  0  0  0  0  0
   57.0000   33.4170   45.9430 C   0  0  0  0  0  0  0  0  0  0  0  0
   57.8780   32.6930   46.7540 C   0  0  0  0  0  0  0  0  0  0  0  0
   57.9244   27.2590   45.8578 H   0  0  0  0  0  0  0  0  0  0  0  0
   56.7852   28.2250   46.8683 H   0  0  0  0  0  0  0  0  0  0  0  0
   55.8174   30.9848   42.9747 H   0  0  0  0  0  0  0  0  0  0  0  0
   58.4615   31.5614   43.0419 H   0  0  0  0  0  0  0  0  0  0  0  0
   60.0960   29.6470   45.9200 H   0  0  0  0  0  0  0  0  0  0  0  0
   61.1343   29.3472   49.2303 H   0  0  0  0  0  0  0  0  0  0  0  0
   63.1006   31.0983   49.3816 H   0  0  0  0  0  0  0  0  0  0  0  0
   60.8460   33.9540   45.6029 H   0  0  0  0  0  0  0  0  0  0  0  0
   59.2725   35.2315   44.1523 H   0  0  0  0  0  0  0  0  0  0  0  0
   56.8102   34.8831   44.3594 H   0  0  0  0  0  0  0  0  0  0  0  0
   55.9140   33.2744   46.0439 H   0  0  0  0  0  0  0  0  0  0  0  0
   57.4783   31.9858   47.4957 H   0  0  0  0  0  0  0  0  0  0  0  0
  1  2  2  0
  2  3  1  0
  3  4  1  0
  4  5  1  0
  5  6  1  0
  5  7  2  0
  7  8  1  0
  8  9  2  0
  9 10  1  0
  2 11  1  0
 11 12  1  0
 12 13  1  0
 13 14  2  0
 14 15  1  0
 15 16  1  0
 16 17  1  0
 17 18  2  0
 18 19  1  0
 19 20  2  0
 20 21  1  0
 21 22  2  0
  9  4  1  0
 16 12  2  0
 22 17  1  0
  3 23  1  0
  3 24  1  0
  7 25  1  0
  8 26  1  0
 10 27  1  0
 13 28  1  0
 14 29  1  0
 18 30  1  0
 19 31  1  0
 20 32  1  0
 21 33  1  0
 22 34  1  0
M  CHG  2   6  -1  11  -1
M  END
>  <UniqueID>  (68) 
60

>  <SMILES>  (68) 
O=C(Cn1c([O-])ccc1O)[N-]c1ccsc1-c1ccccc1

>  <Energy>  (68) 
92.75168340937633

>  <Genealogy>  (68) 
O=C(Cn1c([O-])ccc1O)[N-]c1ccsc1-c1ccccc1 (protonated)
O=C(Cn1c([O-])ccc1O)[N-]c1ccsc1-c1ccccc1 (3D coordinates assigned)
O=C(Cn1c([O-])ccc1O)[N-]c1ccsc1-c1ccccc1 (optimized conformer: 92.75168340937633 kcal/mol)

>  <smiles>  (68) 
O=C(Cn1c(O)ccc1O)Nc1ccsc1-c1ccccc1

>  <score_type>  (68) 
oracle

>  <origin>  (68) 
adg

>  <m_score__min__energy>  (68) 
-11.85

>  <m_primary>  (68) 
energy

$$$$
68:0
     RDKit          3D

 33 35  0  0  0  0  0  0  0  0999 V2000
   61.1930   34.5740   48.1610 N   0  0  0  0  0  0  0  0  0  0  0  0
   60.3820   34.0020   47.5650 C   0  0  0  0  0  0  0  0  0  0  0  0
   59.3730   33.2930   46.8230 C   0  0  0  0  0  0  0  0  0  0  0  0
   59.3200   31.8930   46.8710 C   0  0  0  0  0  0  0  0  0  0  0  0
   58.3400   31.2040   46.1510 C   0  0  0  0  0  0  0  0  0  0  0  0
   57.4000   31.9090   45.3750 C   0  0  0  0  0  0  0  0  0  0  0  0
   56.3980   31.2640   44.6350 O   0  0  0  0  0  0  0  0  0  0  0  0
   56.6440   30.3320   43.5880 C   0  0  0  0  0  0  0  0  0  0  0  0
   57.1950   29.0710   44.1710 C   0  0  0  0  0  0  0  0  0  0  0  0
   57.9570   28.3440   43.4770 O   0  0  0  0  0  0  0  0  0  0  0  0
   56.8770   28.7130   45.5250 N   0  0  0  0  0  0  0  0  0  0  0  0
   57.1870   27.4360   46.1030 C   0  0  0  0  0  0  0  0  0  0  0  0
   58.4220   27.2340   46.7560 C   0  0  0  0  0  0  0  0  0  0  0  0
   58.7260   25.9900   47.3500 C   0  0  0  0  0  0  0  0  0  0  0  0
   57.7940   24.9370   47.3190 C   0  0  0  0  0  0  0  0  0  0  0  0
   56.5740   25.1720   46.6910 C   0  0  0  0  0  0  0  0  0  0  0  0
   55.5330   24.3310   46.5910 N   0  0  0  0  0  0  0  0  0  0  0  0
   54.6190   25.0880   45.9350 C   0  0  0  0  0  0  0  0  0  0  0  0
   53.4750   24.6570   45.6400 O   0  0  0  0  0  0  0  0  0  0  0  0
   55.0240   26.3450   45.6250 N   0  0  0  0  0  0  0  0  0  0  0  0
   56.2770   26.3690   46.1080 C   0  0  0  0  0  0  0  0  0  0  0  0
   57.4600   33.3080   45.3330 C   0  0  0  0  0  0  0  0  0  0  0  0
   58.4420   33.9980   46.0530 C   0  0  0  0  0  0  0  0  0  0  0  0
   60.0506   31.3360   47.4760 H   0  0  0  0  0  0  0  0  0  0  0  0
   58.3028   30.1053   46.1908 H   0  0  0  0  0  0  0  0  0  0  0  0
   55.7032   30.1134   43.0616 H   0  0  0  0  0  0  0  0  0  0  0  0
   57.3680   30.7575   42.8775 H   0  0  0  0  0  0  0  0  0  0  0  0
   56.5040   29.4590   46.1540 H   0  0  0  0  0  0  0  0  0  0  0  0
   59.1543   28.0535   46.8024 H   0  0  0  0  0  0  0  0  0  0  0  0
   59.6993   25.8430   47.8409 H   0  0  0  0  0  0  0  0  0  0  0  0
   58.0211   23.9621   47.7750 H   0  0  0  0  0  0  0  0  0  0  0  0
   56.7302   33.8681   44.7299 H   0  0  0  0  0  0  0  0  0  0  0  0
   58.4818   35.0966   46.0133 H   0  0  0  0  0  0  0  0  0  0  0  0
  1  2  3  0
  2  3  1  0
  3  4  2  0
  4  5  1  0
  5  6  2  0
  6  7  1  0
  7  8  1  0
  8  9  1  0
  9 10  2  0
  9 11  1  0
 11 12  1  0
 12 13  2  0
 13 14  1  0
 14 15  2  0
 15 16  1  0
 16 17  1  0
 17 18  1  0
 18 19  2  0
 18 20  1  0
 20 21  1  0
  6 22  1  0
 22 23  2  0
 23  3  1  0
 21 12  1  0
 21 16  2  0
  4 24  1  0
  5 25  1  0
  8 26  1  0
  8 27  1  0
 11 28  1  0
 13 29  1  0
 14 30  1  0
 15 31  1  0
 22 32  1  0
 23 33  1  0
M  CHG  2  17  -1  20  -1
M  END
>  <UniqueID>  (69) 
61

>  <SMILES>  (69) 
N#Cc1ccc(OCC(=O)Nc2cccc3[n-]c(=O)[n-]c23)cc1

>  <Energy>  (69) 
72.57131320202704

>  <Genealogy>  (69) 
N#Cc1ccc(OCC(=O)Nc2cccc3[n-]c(=O)[n-]c23)cc1 (protonated)
N#Cc1ccc(OCC(=O)Nc2cccc3[n-]c(=O)[n-]c23)cc1 (3D coordinates assigned)
N#Cc1ccc(OCC(=O)Nc2cccc3[n-]c(=O)[n-]c23)cc1 (optimized conformer: 72.57131320202704 kcal/mol)

>  <smiles>  (69) 
N#Cc1ccc(OCC(=O)Nc2cccc3[nH]c(=O)[nH]c23)cc1

>  <score_type>  (69) 
oracle

>  <origin>  (69) 
adg

>  <m_score__min__energy>  (69) 
-11.710000000000001

>  <m_primary>  (69) 
energy

$$$$
69:0
     RDKit          3D

 33 34  0  0  0  0  0  0  0  0999 V2000
   55.9260   29.6830   44.1830 C   0  0  0  0  0  0  0  0  0  0  0  0
   56.0090   28.7060   45.2150 O   0  0  0  0  0  0  0  0  0  0  0  0
   57.1630   28.4350   45.9680 C   0  0  0  0  0  0  0  0  0  0  0  0
   58.0660   29.4540   46.3320 C   0  0  0  0  0  0  0  0  0  0  0  0
   59.2130   29.1550   47.0710 C   0  0  0  0  0  0  0  0  0  0  0  0
   59.4800   27.8370   47.4590 C   0  0  0  0  0  0  0  0  0  0  0  0
   60.7310   27.5230   48.2250 C   0  0  0  0  0  0  0  0  0  0  0  0
   58.5910   26.8170   47.0900 C   0  0  0  0  0  0  0  0  0  0  0  0
   57.4270   27.1100   46.3630 C   0  0  0  0  0  0  0  0  0  0  0  0
   56.3160   25.8040   45.9380 S   0  0  0  0  0  0  0  0  0  0  0  0
   56.4400   24.6620   46.9070 O   0  0  0  0  0  0  0  0  0  0  0  0
   54.9120   26.3330   45.9840 O   0  0  0  0  0  0  0  0  0  0  0  0
   56.6460   25.2170   44.3370 N   0  0  0  0  0  0  0  0  0  0  0  0
   56.8750   23.8330   44.0170 C   0  0  0  0  0  0  0  0  0  0  0  0
   57.9620   23.1100   44.5410 C   0  0  0  0  0  0  0  0  0  0  0  0
   58.1480   21.7720   44.1900 C   0  0  0  0  0  0  0  0  0  0  0  0
   57.2470   21.1620   43.3190 C   0  0  0  0  0  0  0  0  0  0  0  0
   56.2000   21.8680   42.8190 N   0  0  0  0  0  0  0  0  0  0  0  0
   55.9960   23.1720   43.1450 C   0  0  0  0  0  0  0  0  0  0  0  0
   55.8410   30.6838   44.6315 H   0  0  0  0  0  0  0  0  0  0  0  0
   56.8314   29.6361   43.5600 H   0  0  0  0  0  0  0  0  0  0  0  0
   55.0415   29.4841   43.5600 H   0  0  0  0  0  0  0  0  0  0  0  0
   57.8659   30.4931   46.0317 H   0  0  0  0  0  0  0  0  0  0  0  0
   59.9098   29.9593   47.3494 H   0  0  0  0  0  0  0  0  0  0  0  0
   60.5231   27.5752   49.3039 H   0  0  0  0  0  0  0  0  0  0  0  0
   61.0749   26.5107   47.9664 H   0  0  0  0  0  0  0  0  0  0  0  0
   61.5122   28.2529   47.9664 H   0  0  0  0  0  0  0  0  0  0  0  0
   58.8084   25.7766   47.3734 H   0  0  0  0  0  0  0  0  0  0  0  0
   56.7060   25.9300   43.5750 H   0  0  0  0  0  0  0  0  0  0  0  0
   58.6668   23.6001   45.2288 H   0  0  0  0  0  0  0  0  0  0  0  0
   58.9977   21.2042   44.5970 H   0  0  0  0  0  0  0  0  0  0  0  0
   57.3840   20.1078   43.0363 H   0  0  0  0  0  0  0  0  0  0  0  0
   55.1362   23.7127   42.7225 H   0  0  0  0  0  0  0  0  0  0  0  0
  1  2  1  0
  2  3  1  0
  3  4  2  0
  4  5  1  0
  5  6  2  0
  6  7  1  0
  6  8  1  0
  8  9  2  0
  9 10  1  0
 10 11  2  0
 10 12  2  0
 10 13  1  0
 13 14  1  0
 14 15  2  0
 15 16  1  0
 16 17  2  0
 17 18  1  0
 18 19  2  0
  9  3  1  0
 19 14  1  0
  1 20  1  0
  1 21  1  0
  1 22  1  0
  4 23  1  0
  5 24  1  0
  7 25  1  0
  7 26  1  0
  7 27  1  0
  8 28  1  0
 13 29  1  0
 15 30  1  0
 16 31  1  0
 17 32  1  0
 19 33  1  0
M  END
>  <UniqueID>  (70) 
62

>  <SMILES>  (70) 
COc1ccc(C)cc1S(=O)(=O)Nc1cccnc1

>  <Energy>  (70) 
36.1838101219665

>  <Genealogy>  (70) 
COc1ccc(C)cc1S(=O)(=O)Nc1cccnc1 (3D coordinates assigned)
COc1ccc(C)cc1S(=O)(=O)Nc1cccnc1 (optimized conformer: 36.1838101219665 kcal/mol)

>  <smiles>  (70) 
COc1ccc(C)cc1S(=O)(=O)Nc1cccnc1

>  <score_type>  (70) 
oracle

>  <origin>  (70) 
adg

>  <m_score__min__energy>  (70) 
-7.4900000000000002

>  <m_primary>  (70) 
energy

$$$$
70:0
     RDKit          3D

 55 57  0  0  0  0  0  0  0  0999 V2000
   58.1290   26.7250   42.3000 C   0  0  0  0  0  0  0  0  0  0  0  0
   58.2900   27.7260   43.4100 C   0  0  0  0  0  0  0  0  0  0  0  0
   59.4120   27.8590   43.8820 O   0  0  0  0  0  0  0  0  0  0  0  0
   57.1970   28.5310   43.9430 N   0  0  2  0  0  0  0  0  0  0  0  0
   56.5210   29.3710   42.9220 C   0  0  0  0  0  0  0  0  0  0  0  0
   57.1200   30.7760   42.7540 C   0  0  0  0  0  0  0  0  0  0  0  0
   57.2710   31.4840   44.1000 C   0  0  2  0  0  0  0  0  0  0  0  0
   57.9120   32.7290   43.8810 O   0  0  0  0  0  0  0  0  0  0  0  0
   57.3840   33.7260   44.7300 C   0  0  0  0  0  0  0  0  0  0  0  0
   58.2310   33.8030   45.9660 C   0  0  0  0  0  0  0  0  0  0  0  0
   59.4080   34.5670   45.9720 C   0  0  0  0  0  0  0  0  0  0  0  0
   60.2230   34.5940   47.1070 C   0  0  0  0  0  0  0  0  0  0  0  0
   59.8890   33.8380   48.2430 C   0  0  0  0  0  0  0  0  0  0  0  0
   60.7890   33.8550   49.4580 C   0  0  0  0  0  0  0  0  0  0  0  0
   61.9790   32.9840   49.3250 N   0  0  0  0  0  0  0  0  0  0  0  0
   61.8090   31.7930   48.4580 C   0  0  0  0  0  0  0  0  0  0  0  0
   62.9570   31.5970   47.4590 C   0  0  0  0  0  0  0  0  0  0  0  0
   63.3040   32.9270   46.7960 C   0  0  0  0  0  0  0  0  0  0  0  0
   63.7610   33.9700   47.8260 C   0  0  0  0  0  0  0  0  0  0  0  0
   63.2860   33.6740   49.2650 C   0  0  0  0  0  0  0  0  0  0  0  0
   58.7040   33.0850   48.2380 C   0  0  0  0  0  0  0  0  0  0  0  0
   57.8880   33.0570   47.1040 C   0  0  0  0  0  0  0  0  0  0  0  0
   58.1230   30.6280   45.0400 C   0  0  0  0  0  0  0  0  0  0  0  0
   57.5290   29.2220   45.2130 C   0  0  0  0  0  0  0  0  0  0  0  0
   57.9681   25.7248   42.7287 H   0  0  0  0  0  0  0  0  0  0  0  0
   57.2638   27.0015   41.6796 H   0  0  0  0  0  0  0  0  0  0  0  0
   59.0373   26.7162   41.6796 H   0  0  0  0  0  0  0  0  0  0  0  0
   56.4630   27.8330   44.2200 H   0  0  0  0  0  0  0  0  0  0  0  0
   56.5844   28.8526   41.9539 H   0  0  0  0  0  0  0  0  0  0  0  0
   55.4863   29.5115   43.2680 H   0  0  0  0  0  0  0  0  0  0  0  0
   58.1101   30.6886   42.2828 H   0  0  0  0  0  0  0  0  0  0  0  0
   56.4390   31.3692   42.1260 H   0  0  0  0  0  0  0  0  0  0  0  0
   56.2828   31.6405   44.5571 H   0  0  0  0  0  0  0  0  0  0  0  0
   57.3950   34.6967   44.2126 H   0  0  0  0  0  0  0  0  0  0  0  0
   56.3473   33.4772   45.0009 H   0  0  0  0  0  0  0  0  0  0  0  0
   59.6901   35.1465   45.0806 H   0  0  0  0  0  0  0  0  0  0  0  0
   61.1330   35.2120   47.1109 H   0  0  0  0  0  0  0  0  0  0  0  0
   61.1303   34.8875   49.6238 H   0  0  0  0  0  0  0  0  0  0  0  0
   60.1991   33.4693   50.3025 H   0  0  0  0  0  0  0  0  0  0  0  0
   61.7485   30.9010   49.0989 H   0  0  0  0  0  0  0  0  0  0  0  0
   60.8912   31.9469   47.8715 H   0  0  0  0  0  0  0  0  0  0  0  0
   63.8405   31.2131   47.9900 H   0  0  0  0  0  0  0  0  0  0  0  0
   62.6450   30.8787   46.6865 H   0  0  0  0  0  0  0  0  0  0  0  0
   64.1142   32.7633   46.0702 H   0  0  0  0  0  0  0  0  0  0  0  0
   62.4009   33.3087   46.2974 H   0  0  0  0  0  0  0  0  0  0  0  0
   64.8605   34.0016   47.8233 H   0  0  0  0  0  0  0  0  0  0  0  0
   63.3117   34.9298   47.5312 H   0  0  0  0  0  0  0  0  0  0  0  0
   64.0379   33.0388   49.7560 H   0  0  0  0  0  0  0  0  0  0  0  0
   63.1637   34.6430   49.7710 H   0  0  0  0  0  0  0  0  0  0  0  0
   58.4161   32.5134   49.1326 H   0  0  0  0  0  0  0  0  0  0  0  0
   56.9724   32.4473   47.1034 H   0  0  0  0  0  0  0  0  0  0  0  0
   59.1367   30.5390   44.6224 H   0  0  0  0  0  0  0  0  0  0  0  0
   58.1474   31.1165   46.0253 H   0  0  0  0  0  0  0  0  0  0  0  0
   58.2592   28.6058   45.7581 H   0  0  0  0  0  0  0  0  0  0  0  0
   56.5807   29.3490   45.7558 H   0  0  0  0  0  0  0  0  0  0  0  0
  1  2  1  0
  2  3  2  0
  2  4  1  0
  4  5  1  0
  5  6  1  0
  6  7  1  0
  7  8  1  0
  8  9  1  0
  9 10  1  0
 10 11  2  0
 11 12  1  0
 12 13  2  0
 13 14  1  0
 14 15  1  0
 15 16  1  0
 16 17  1  0
 17 18  1  0
 18 19  1  0
 19 20  1  0
 13 21  1  0
 21 22  2  0
  7 23  1  0
 23 24  1  0
 24  4  1  0
 22 10  1  0
 20 15  1  0
  1 25  1  0
  1 26  1  0
  1 27  1  0
  4 28  1  1
  5 29  1  0
  5 30  1  0
  6 31  1  0
  6 32  1  0
  7 33  1  1
  9 34  1  0
  9 35  1  0
 11 36  1  0
 12 37  1  0
 14 38  1  0
 14 39  1  0
 16 40  1  0
 16 41  1  0
 17 42  1  0
 17 43  1  0
 18 44  1  0
 18 45  1  0
 19 46  1  0
 19 47  1  0
 20 48  1  0
 20 49  1  0
 21 50  1  0
 22 51  1  0
 23 52  1  0
 23 53  1  0
 24 54  1  0
 24 55  1  0
M  CHG  1   4   1
M  END
>  <UniqueID>  (71) 
63

>  <SMILES>  (71) 
CC(=O)[NH+]1CCC(OCc2ccc(CN3CCCCC3)cc2)CC1

>  <Energy>  (71) 
74.30231591305572

>  <Genealogy>  (71) 
CC(=O)[NH+]1CCC(OCc2ccc(CN3CCCCC3)cc2)CC1 (protonated)
CC(=O)[NH+]1CCC(OCc2ccc(CN3CCCCC3)cc2)CC1 (3D coordinates assigned)
CC(=O)[NH+]1CCC(OCc2ccc(CN3CCCCC3)cc2)CC1 (nonaromatic ring conformer: 74.30231591305572 kcal/mol)

>  <smiles>  (71) 
CC(=O)N1CCC(OCc2ccc(CN3CCCCC3)cc2)CC1

>  <score_type>  (71) 
oracle

>  <origin>  (71) 
adg

>  <m_score__min__energy>  (71) 
-7.1399999999999997

>  <m_primary>  (71) 
energy

$$$$
71:0
     RDKit          3D

 65 69  0  0  1  0  0  0  0  0999 V2000
   60.6900   27.3860   49.0370 C   0  0  0  0  0  0  0  0  0  0  0  0
   60.4250   28.3780   50.1120 C   0  0  2  0  0  0  0  0  0  0  0  0
   59.1510   28.9770   50.1980 N   0  0  0  0  0  0  0  0  0  0  0  0
   58.6540   29.5490   51.1990 C   0  0  0  0  0  0  0  0  0  0  0  0
   58.4150   28.9100   52.3750 N   0  0  0  0  0  0  0  0  0  0  0  0
   57.8850   29.5410   53.4520 C   0  0  0  0  0  0  0  0  0  0  0  0
   57.5640   30.8410   53.4200 N   0  0  0  0  0  0  0  0  0  0  0  0
   57.7920   31.4970   52.2620 C   0  0  0  0  0  0  0  0  0  0  0  0
   57.4420   32.8780   52.2580 N   0  0  0  0  0  0  0  0  0  0  0  0
   58.3360   30.8720   51.1440 C   0  0  0  0  0  0  0  0  0  0  0  0
   58.5080   31.7280   50.0100 C   0  0  0  0  0  0  0  0  0  0  0  0
   58.6580   32.4500   49.0150 C   0  0  0  0  0  0  0  0  0  0  0  0
   58.8380   33.3060   47.8750 C   0  0  0  0  0  0  0  0  0  0  0  0
   59.6390   34.4260   47.9530 C   0  0  0  0  0  0  0  0  0  0  0  0
   59.7680   35.2100   46.8160 C   0  0  0  0  0  0  0  0  0  0  0  0
   59.1170   34.8740   45.6470 C   0  0  0  0  0  0  0  0  0  0  0  0
   59.2750   35.6770   44.5480 F   0  0  0  0  0  0  0  0  0  0  0  0
   58.3110   33.7570   45.5490 C   0  0  0  0  0  0  0  0  0  0  0  0
   57.6340   33.3940   44.3490 N   0  0  0  0  0  0  0  0  0  0  0  0
   57.5480   31.7720   43.7700 S   0  0  0  0  0  0  0  0  0  0  0  0
   57.3910   31.8060   42.0090 C   0  0  0  0  0  0  0  0  0  0  0  0
   56.3760   31.0660   44.3960 O   0  0  0  0  0  0  0  0  0  0  0  0
   58.7840   31.0540   44.2160 O   0  0  0  0  0  0  0  0  0  0  0  0
   58.1960   32.9890   46.7000 C   0  0  0  0  0  0  0  0  0  0  0  0
   61.1930   29.6060   49.5910 C   0  0  0  0  0  0  0  0  0  0  0  0
   62.1240   30.1960   50.3660 N   0  0  0  0  0  0  0  0  0  0  0  0
   62.8480   31.2500   50.0000 C   0  0  0  0  0  0  0  0  0  0  0  0
   63.7970   31.8340   50.8170 C   0  0  0  0  0  0  0  0  0  0  0  0
   64.5080   32.9250   50.3680 C   0  0  0  0  0  0  0  0  0  0  0  0
   64.3000   33.4630   49.1080 C   0  0  0  0  0  0  0  0  0  0  0  0
   63.3360   32.8500   48.3100 C   0  0  0  0  0  0  0  0  0  0  0  0
   62.9990   33.4600   46.6940 Cl  0  0  0  0  0  0  0  0  0  0  0  0
   62.6160   31.7590   48.7400 C   0  0  0  0  0  0  0  0  0  0  0  0
   61.6740   31.1520   47.9750 C   0  0  0  0  0  0  0  0  0  0  0  0
   61.4620   31.6180   46.8240 O   0  0  0  0  0  0  0  0  0  0  0  0
   60.9420   30.0680   48.3740 N   0  0  0  0  0  0  0  0  0  0  0  0
   60.0150   29.5930   47.4290 C   0  0  0  0  0  0  0  0  0  0  0  0
   58.6470   29.6390   47.5480 C   0  0  0  0  0  0  0  0  0  0  0  0
   57.7850   29.1200   46.5870 C   0  0  0  0  0  0  0  0  0  0  0  0
   58.2870   28.5240   45.4490 C   0  0  0  0  0  0  0  0  0  0  0  0
   59.6580   28.4730   45.3190 C   0  0  0  0  0  0  0  0  0  0  0  0
   60.1670   27.8850   44.1970 F   0  0  0  0  0  0  0  0  0  0  0  0
   60.5170   28.9970   46.2880 C   0  0  0  0  0  0  0  0  0  0  0  0
   60.9489   26.4168   49.4882 H   0  0  0  0  0  0  0  0  0  0  0  0
   59.7909   27.2718   48.4137 H   0  0  0  0  0  0  0  0  0  0  0  0
   61.5263   27.7354   48.4137 H   0  0  0  0  0  0  0  0  0  0  0  0
   60.6382   27.8544   51.0556 H   0  0  0  0  0  0  0  0  0  0  0  0
   58.6160   27.9130   52.5070 H   0  0  0  0  0  0  0  0  0  0  0  0
   57.7142   28.9700   54.3765 H   0  0  0  0  0  0  0  0  0  0  0  0
   57.9870   33.5330   52.8400 H   0  0  0  0  0  0  0  0  0  0  0  0
   56.6370   33.1470   51.6510 H   0  0  0  0  0  0  0  0  0  0  0  0
   60.1585   34.6889   48.8863 H   0  0  0  0  0  0  0  0  0  0  0  0
   60.3976   36.1115   46.8468 H   0  0  0  0  0  0  0  0  0  0  0  0
   57.1820   34.1840   43.8270 H   0  0  0  0  0  0  0  0  0  0  0  0
   56.3490   32.0316   41.7381 H   0  0  0  0  0  0  0  0  0  0  0  0
   58.0532   32.5815   41.5967 H   0  0  0  0  0  0  0  0  0  0  0  0
   57.6730   30.8260   41.5967 H   0  0  0  0  0  0  0  0  0  0  0  0
   57.5647   32.0887   46.6713 H   0  0  0  0  0  0  0  0  0  0  0  0
   63.9841   31.4291   51.8225 H   0  0  0  0  0  0  0  0  0  0  0  0
   65.2611   33.3814   51.0273 H   0  0  0  0  0  0  0  0  0  0  0  0
   64.8701   34.3345   48.7538 H   0  0  0  0  0  0  0  0  0  0  0  0
   58.2135   30.1075   48.4439 H   0  0  0  0  0  0  0  0  0  0  0  0
   56.6971   29.1854   46.7357 H   0  0  0  0  0  0  0  0  0  0  0  0
   57.6217   28.1073   44.6784 H   0  0  0  0  0  0  0  0  0  0  0  0
   61.6053   28.9344   46.1410 H   0  0  0  0  0  0  0  0  0  0  0  0
  1  2  1  0
  2  3  1  0
  3  4  2  0
  4  5  1  0
  5  6  1  0
  6  7  2  0
  7  8  1  0
  8  9  1  0
  8 10  2  0
 10 11  1  0
 11 12  3  0
 12 13  1  0
 13 14  2  0
 14 15  1  0
 15 16  2  0
 16 17  1  0
 16 18  1  0
 18 19  1  0
 19 20  1  0
 20 21  1  0
 20 22  2  0
 20 23  2  0
 18 24  2  0
  2 25  1  0
 25 26  2  0
 26 27  1  0
 27 28  2  0
 28 29  1  0
 29 30  2  0
 30 31  1  0
 31 32  1  0
 31 33  2  0
 33 34  1  0
 34 35  2  0
 34 36  1  0
 36 37  1  0
 37 38  2  0
 38 39  1  0
 39 40  2  0
 40 41  1  0
 41 42  1  0
 41 43  2  0
 10  4  1  0
 24 13  1  0
 36 25  1  0
 43 37  1  0
 33 27  1  0
  1 44  1  0
  1 45  1  0
  1 46  1  0
  2 47  1  1
  5 48  1  0
  6 49  1  0
  9 50  1  0
  9 51  1  0
 14 52  1  0
 15 53  1  0
 19 54  1  0
 21 55  1  0
 21 56  1  0
 21 57  1  0
 24 58  1  0
 28 59  1  0
 29 60  1  0
 30 61  1  0
 38 62  1  0
 39 63  1  0
 40 64  1  0
 43 65  1  0
M  END
>  <smiles>  (72) 
CC(N=c1[nH]cnc(N)c1C#Cc1ccc(F)c(NS(C)(=O)=O)c1)c1nc2cccc(Cl)c2c(=O)n1-c1cccc(F)c1

>  <score_type>  (72) 
oracle

>  <origin>  (72) 
adg

>  <m_score__min__energy>  (72) 
-10.02

>  <m_primary>  (72) 
energy

$$$$
72:0
     RDKit          3D

 45 46  0  0  0  0  0  0  0  0999 V2000
   58.5250   34.3490   47.1200 C   0  0  0  0  0  0  0  0  0  0  0  0
   58.2320   33.9430   45.6590 C   0  0  0  0  0  0  0  0  0  0  0  0
   56.8680   34.5260   45.2280 C   0  0  0  0  0  0  0  0  0  0  0  0
   59.3210   34.5850   44.7660 C   0  0  0  0  0  0  0  0  0  0  0  0
   58.1910   32.4040   45.5500 C   0  0  0  0  0  0  0  0  0  0  0  0
   58.8960   31.6200   46.4920 C   0  0  0  0  0  0  0  0  0  0  0  0
   58.8830   30.2230   46.4250 C   0  0  0  0  0  0  0  0  0  0  0  0
   58.1650   29.5690   45.4130 C   0  0  0  0  0  0  0  0  0  0  0  0
   58.1210   28.1700   45.3020 O   0  0  0  0  0  0  0  0  0  0  0  0
   59.1070   27.2900   45.8320 C   0  0  0  0  0  0  0  0  0  0  0  0
   58.6920   25.8770   45.5770 C   0  0  0  0  0  0  0  0  0  0  0  0
   59.5040   24.9390   45.8040 O   0  0  0  0  0  0  0  0  0  0  0  0
   57.3800   25.6000   45.0680 N   0  0  0  0  0  0  0  0  0  0  0  0
   56.8500   24.2690   44.9400 C   0  0  0  0  0  0  0  0  0  0  0  0
   57.7090   23.2180   44.5710 C   0  0  0  0  0  0  0  0  0  0  0  0
   57.2460   21.9030   44.5230 C   0  0  0  0  0  0  0  0  0  0  0  0
   55.9220   21.6190   44.8560 C   0  0  0  0  0  0  0  0  0  0  0  0
   55.0570   22.6470   45.2310 C   0  0  0  0  0  0  0  0  0  0  0  0
   55.5010   23.9820   45.2730 C   0  0  0  0  0  0  0  0  0  0  0  0
   54.5290   25.0490   45.6230 C   0  0  0  0  0  0  0  0  0  0  0  0
   54.9900   26.3380   46.0250 N   0  0  0  0  0  0  0  0  0  0  0  0
   53.2900   24.8230   45.6000 O   0  0  0  0  0  0  0  0  0  0  0  0
   57.4630   30.3300   44.4760 C   0  0  0  0  0  0  0  0  0  0  0  0
   57.4730   31.7260   44.5380 C   0  0  0  0  0  0  0  0  0  0  0  0
   58.0204   33.6498   47.8031 H   0  0  0  0  0  0  0  0  0  0  0  0
   59.6099   34.3176   47.2988 H   0  0  0  0  0  0  0  0  0  0  0  0
   58.1533   35.3688   47.2988 H   0  0  0  0  0  0  0  0  0  0  0  0
   56.2782   34.7781   46.1216 H   0  0  0  0  0  0  0  0  0  0  0  0
   57.0303   35.4334   44.6277 H   0  0  0  0  0  0  0  0  0  0  0  0
   56.3243   33.7817   44.6277 H   0  0  0  0  0  0  0  0  0  0  0  0
   60.0944   35.0410   45.4015 H   0  0  0  0  0  0  0  0  0  0  0  0
   59.7774   33.8114   44.1309 H   0  0  0  0  0  0  0  0  0  0  0  0
   58.8651   35.3589   44.1309 H   0  0  0  0  0  0  0  0  0  0  0  0
   59.4646   32.1174   47.2915 H   0  0  0  0  0  0  0  0  0  0  0  0
   59.4387   29.6342   47.1697 H   0  0  0  0  0  0  0  0  0  0  0  0
   60.0735   27.4835   45.3438 H   0  0  0  0  0  0  0  0  0  0  0  0
   59.2074   27.4562   46.9147 H   0  0  0  0  0  0  0  0  0  0  0  0
   56.7860   26.4040   44.7650 H   0  0  0  0  0  0  0  0  0  0  0  0
   58.7571   23.4354   44.3176 H   0  0  0  0  0  0  0  0  0  0  0  0
   57.9246   21.0910   44.2228 H   0  0  0  0  0  0  0  0  0  0  0  0
   55.5587   20.5813   44.8229 H   0  0  0  0  0  0  0  0  0  0  0  0
   54.0159   22.4117   45.4970 H   0  0  0  0  0  0  0  0  0  0  0  0
   55.1480   27.0950   45.3240 H   0  0  0  0  0  0  0  0  0  0  0  0
   56.8958   29.8250   43.6802 H   0  0  0  0  0  0  0  0  0  0  0  0
   56.9142   32.3059   43.7887 H   0  0  0  0  0  0  0  0  0  0  0  0
  1  2  1  0
  2  3  1  0
  2  4  1  0
  2  5  1  0
  5  6  2  0
  6  7  1  0
  7  8  2  0
  8  9  1  0
  9 10  1  0
 10 11  1  0
 11 12  2  0
 11 13  1  0
 13 14  1  0
 14 15  2  0
 15 16  1  0
 16 17  2  0
 17 18  1  0
 18 19  2  0
 19 20  1  0
 20 21  1  0
 20 22  2  0
  8 23  1  0
 23 24  2  0
 24  5  1  0
 19 14  1  0
  1 25  1  0
  1 26  1  0
  1 27  1  0
  3 28  1  0
  3 29  1  0
  3 30  1  0
  4 31  1  0
  4 32  1  0
  4 33  1  0
  6 34  1  0
  7 35  1  0
 10 36  1  0
 10 37  1  0
 13 38  1  0
 15 39  1  0
 16 40  1  0
 17 41  1  0
 18 42  1  0
 21 43  1  0
 23 44  1  0
 24 45  1  0
M  CHG  1  21  -1
M  END
>  <UniqueID>  (73) 
64

>  <SMILES>  (73) 
CC(C)(C)c1ccc(OCC(=O)Nc2ccccc2C([NH-])=O)cc1

>  <Energy>  (73) 
51.85640150837709

>  <Genealogy>  (73) 
CC(C)(C)c1ccc(OCC(=O)Nc2ccccc2C([NH-])=O)cc1 (protonated)
CC(C)(C)c1ccc(OCC(=O)Nc2ccccc2C([NH-])=O)cc1 (3D coordinates assigned)
CC(C)(C)c1ccc(OCC(=O)Nc2ccccc2C([NH-])=O)cc1 (optimized conformer: 51.85640150837709 kcal/mol)

>  <smiles>  (73) 
CC(C)(C)c1ccc(OCC(=O)Nc2ccccc2C(N)=O)cc1

>  <score_type>  (73) 
oracle

>  <origin>  (73) 
adg

>  <m_score__min__energy>  (73) 
-11.279999999999999

>  <m_primary>  (73) 
energy

$$$$
73:0
     RDKit          3D

 45 47  0  0  0  0  0  0  0  0999 V2000
   59.0040   34.1960   44.8660 C   0  0  0  0  0  0  0  0  0  0  0  0
   59.6270   33.4930   46.0400 C   0  0  0  0  0  0  0  0  0  0  0  0
   60.8470   33.9340   46.5140 C   0  0  0  0  0  0  0  0  0  0  0  0
   61.4280   33.2980   47.5920 C   0  0  0  0  0  0  0  0  0  0  0  0
   62.9830   33.8340   48.2210 S   0  0  0  0  0  0  0  0  0  0  0  0
   62.8040   34.7880   49.3380 O   0  0  0  0  0  0  0  0  0  0  0  0
   63.7540   34.3840   47.0630 O   0  0  0  0  0  0  0  0  0  0  0  0
   63.8260   32.3350   48.7330 C   0  0  0  0  0  0  0  0  0  0  0  0
   63.0690   31.7370   49.7450 F   0  0  0  0  0  0  0  0  0  0  0  0
   63.7710   31.4760   47.6450 F   0  0  0  0  0  0  0  0  0  0  0  0
   65.1160   32.5740   49.1000 F   0  0  0  0  0  0  0  0  0  0  0  0
   60.8110   32.2410   48.1920 C   0  0  0  0  0  0  0  0  0  0  0  0
   59.5960   31.8280   47.6940 C   0  0  0  0  0  0  0  0  0  0  0  0
   58.9600   32.4100   46.6310 C   0  0  0  0  0  0  0  0  0  0  0  0
   57.7510   32.0220   46.0460 N   0  0  0  0  0  0  0  0  0  0  0  0
   57.4090   30.8390   44.8980 S   0  0  0  0  0  0  0  0  0  0  0  0
   55.9380   30.8410   44.4990 O   0  0  0  0  0  0  0  0  0  0  0  0
   58.1770   31.1450   43.6060 O   0  0  0  0  0  0  0  0  0  0  0  0
   57.8720   29.2210   45.3340 C   0  0  0  0  0  0  0  0  0  0  0  0
   56.8920   28.2440   45.5580 C   0  0  0  0  0  0  0  0  0  0  0  0
   57.1950   26.9420   45.8530 C   0  0  0  0  0  0  0  0  0  0  0  0
   56.2010   26.0020   46.0670 C   0  0  0  0  0  0  0  0  0  0  0  0
   54.9790   26.3340   45.9940 O   0  0  0  0  0  0  0  0  0  0  0  0
   56.5580   24.7290   46.3560 N   0  0  0  0  0  0  0  0  0  0  0  0
   57.8220   24.3420   46.4420 N   0  0  0  0  0  0  0  0  0  0  0  0
   58.8180   25.2220   46.2410 C   0  0  0  0  0  0  0  0  0  0  0  0
   60.0330   24.9000   46.3130 O   0  0  0  0  0  0  0  0  0  0  0  0
   58.5070   26.5260   45.9460 C   0  0  0  0  0  0  0  0  0  0  0  0
   59.4830   27.4470   45.7350 C   0  0  0  0  0  0  0  0  0  0  0  0
   59.1730   28.7820   45.4340 C   0  0  0  0  0  0  0  0  0  0  0  0
   60.3140   29.6930   45.2860 C   0  0  0  0  0  0  0  0  0  0  0  0
   58.3150   34.9735   45.2276 H   0  0  0  0  0  0  0  0  0  0  0  0
   59.7928   34.6601   44.2557 H   0  0  0  0  0  0  0  0  0  0  0  0
   58.4484   33.4687   44.2557 H   0  0  0  0  0  0  0  0  0  0  0  0
   61.3519   34.7862   46.0356 H   0  0  0  0  0  0  0  0  0  0  0  0
   61.2717   31.7316   49.0512 H   0  0  0  0  0  0  0  0  0  0  0  0
   59.1039   30.9741   48.1825 H   0  0  0  0  0  0  0  0  0  0  0  0
   56.9000   32.5970   46.4080 H   0  0  0  0  0  0  0  0  0  0  0  0
   55.8335   28.5363   45.4939 H   0  0  0  0  0  0  0  0  0  0  0  0
   55.8040   24.0220   46.5180 H   0  0  0  0  0  0  0  0  0  0  0  0
   58.0290   23.3470   46.6680 H   0  0  0  0  0  0  0  0  0  0  0  0
   60.5372   27.1402   45.8014 H   0  0  0  0  0  0  0  0  0  0  0  0
   60.6808   29.9859   46.2808 H   0  0  0  0  0  0  0  0  0  0  0  0
   61.1186   29.1861   44.7331 H   0  0  0  0  0  0  0  0  0  0  0  0
   59.9978   30.5899   44.7331 H   0  0  0  0  0  0  0  0  0  0  0  0
  1  2  1  0
  2  3  2  0
  3  4  1  0
  4  5  1  0
  5  6  2  0
  5  7  2  0
  5  8  1  0
  8  9  1  0
  8 10  1  0
  8 11  1  0
  4 12  2  0
 12 13  1  0
 13 14  2  0
 14 15  1  0
 15 16  1  0
 16 17  2  0
 16 18  2  0
 16 19  1  0
 19 20  2  0
 20 21  1  0
 21 22  1  0
 22 23  2  0
 22 24  1  0
 24 25  1  0
 25 26  1  0
 26 27  2  0
 26 28  1  0
 28 29  1  0
 29 30  2  0
 30 31  1  0
 14  2  1  0
 30 19  1  0
 28 21  2  0
  1 32  1  0
  1 33  1  0
  1 34  1  0
  3 35  1  0
 12 36  1  0
 13 37  1  0
 15 38  1  0
 20 39  1  0
 24 40  1  0
 25 41  1  0
 29 42  1  0
 31 43  1  0
 31 44  1  0
 31 45  1  0
M  END
>  <smiles>  (74) 
Cc1cc(S(=O)(=O)C(F)(F)F)ccc1NS(=O)(=O)c1cc2c(=O)[nH][nH]c(=O)c2cc1C

>  <score_type>  (74) 
oracle

>  <origin>  (74) 
adg

>  <m_score__min__energy>  (74) 
-9.9700000000000006

>  <m_primary>  (74) 
energy

$$$$
74:0
     RDKit          3D

 34 36  0  0  0  0  0  0  0  0999 V2000
   58.9020   35.1170   45.5900 O   0  0  0  0  0  0  0  0  0  0  0  0
   58.9710   33.9200   45.9740 C   0  0  0  0  0  0  0  0  0  0  0  0
   59.5610   33.6440   47.2530 N   0  0  0  0  0  0  0  0  0  0  0  0
   60.9660   33.5820   47.5410 C   0  0  0  0  0  0  0  0  0  0  0  0
   61.8750   33.5280   46.4760 C   0  0  0  0  0  0  0  0  0  0  0  0
   63.2500   33.4720   46.7230 C   0  0  0  0  0  0  0  0  0  0  0  0
   63.7270   33.4860   48.0370 C   0  0  0  0  0  0  0  0  0  0  0  0
   62.8290   33.5650   49.1050 C   0  0  0  0  0  0  0  0  0  0  0  0
   61.4530   33.6220   48.8610 C   0  0  0  0  0  0  0  0  0  0  0  0
   58.4910   32.8400   45.0790 C   0  0  0  0  0  0  0  0  0  0  0  0
   58.3410   33.0810   43.7030 C   0  0  0  0  0  0  0  0  0  0  0  0
   57.8810   32.0700   42.8540 C   0  0  0  0  0  0  0  0  0  0  0  0
   57.6880   32.3860   41.1400 Cl  0  0  0  0  0  0  0  0  0  0  0  0
   57.5710   30.8080   43.3700 C   0  0  0  0  0  0  0  0  0  0  0  0
   57.7280   30.5460   44.7390 C   0  0  0  0  0  0  0  0  0  0  0  0
   57.4180   29.2440   45.2730 N   0  0  0  0  0  0  0  0  0  0  0  0
   58.3840   28.5530   45.9480 C   0  0  0  0  0  0  0  0  0  0  0  0
   58.1170   27.2890   46.4720 C   0  0  0  0  0  0  0  0  0  0  0  0
   56.8450   26.7520   46.2950 C   0  0  0  0  0  0  0  0  0  0  0  0
   56.5680   25.6130   46.7520 O   0  0  0  0  0  0  0  0  0  0  0  0
   55.9010   27.4610   45.6280 N   0  0  0  0  0  0  0  0  0  0  0  0
   56.1690   28.6940   45.1210 C   0  0  0  0  0  0  0  0  0  0  0  0
   55.2540   29.3230   44.5270 O   0  0  0  0  0  0  0  0  0  0  0  0
   58.2020   31.5610   45.5860 C   0  0  0  0  0  0  0  0  0  0  0  0
   61.5048   33.5297   45.4402 H   0  0  0  0  0  0  0  0  0  0  0  0
   63.9573   33.4169   45.8824 H   0  0  0  0  0  0  0  0  0  0  0  0
   64.8087   33.4349   48.2303 H   0  0  0  0  0  0  0  0  0  0  0  0
   63.2048   33.5824   50.1387 H   0  0  0  0  0  0  0  0  0  0  0  0
   60.7494   33.6983   49.7031 H   0  0  0  0  0  0  0  0  0  0  0  0
   58.5869   34.0710   43.2913 H   0  0  0  0  0  0  0  0  0  0  0  0
   57.2025   30.0175   42.6997 H   0  0  0  0  0  0  0  0  0  0  0  0
   59.3814   28.9979   46.0792 H   0  0  0  0  0  0  0  0  0  0  0  0
   58.8938   26.7288   47.0130 H   0  0  0  0  0  0  0  0  0  0  0  0
   58.3485   31.3533   46.6562 H   0  0  0  0  0  0  0  0  0  0  0  0
  1  2  2  0
  2  3  1  0
  3  4  1  0
  4  5  2  0
  5  6  1  0
  6  7  2  0
  7  8  1  0
  8  9  2  0
  2 10  1  0
 10 11  2  0
 11 12  1  0
 12 13  1  0
 12 14  2  0
 14 15  1  0
 15 16  1  0
 16 17  1  0
 17 18  2  0
 18 19  1  0
 19 20  2  0
 19 21  1  0
 21 22  1  0
 22 23  2  0
 15 24  2  0
  9  4  1  0
 24 10  1  0
 22 16  1  0
  5 25  1  0
  6 26  1  0
  7 27  1  0
  8 28  1  0
  9 29  1  0
 11 30  1  0
 14 31  1  0
 17 32  1  0
 18 33  1  0
 24 34  1  0
M  CHG  2   3  -1  21  -1
M  END
>  <UniqueID>  (75) 
65

>  <SMILES>  (75) 
O=C([N-]c1ccccc1)c1cc(Cl)cc(-n2ccc(=O)[n-]c2=O)c1

>  <Energy>  (75) 
52.473415490870785

>  <Genealogy>  (75) 
O=C([N-]c1ccccc1)c1cc(Cl)cc(-n2ccc(=O)[n-]c2=O)c1 (protonated)
O=C([N-]c1ccccc1)c1cc(Cl)cc(-n2ccc(=O)[n-]c2=O)c1 (3D coordinates assigned)
O=C([N-]c1ccccc1)c1cc(Cl)cc(-n2ccc(=O)[n-]c2=O)c1 (optimized conformer: 52.473415490870785 kcal/mol)

>  <smiles>  (75) 
O=C(Nc1ccccc1)c1cc(Cl)cc(-n2ccc(=O)[nH]c2=O)c1

>  <score_type>  (75) 
oracle

>  <origin>  (75) 
adg

>  <m_score__min__energy>  (75) 
-11.279999999999999

>  <m_primary>  (75) 
energy

$$$$
75:0
     RDKit          3D

 20 21  0  0  0  0  0  0  0  0999 V2000
   55.1820   29.2910   44.8500 N   0  0  0  0  0  0  0  0  0  0  0  0
   56.8480   29.6000   44.5190 S   0  0  0  0  0  0  0  0  0  0  0  0
   57.0330   29.8420   43.0470 O   0  0  0  0  0  0  0  0  0  0  0  0
   57.2880   30.8270   45.2680 O   0  0  0  0  0  0  0  0  0  0  0  0
   57.8140   28.2160   45.0210 C   0  0  0  0  0  0  0  0  0  0  0  0
   58.9800   28.4090   45.8000 C   0  0  0  0  0  0  0  0  0  0  0  0
   59.7530   27.3110   46.2180 C   0  0  0  0  0  0  0  0  0  0  0  0
   59.3320   26.0350   45.8460 C   0  0  0  0  0  0  0  0  0  0  0  0
   59.9350   24.8690   46.1520 N   0  0  0  0  0  0  0  0  0  0  0  0
   59.1490   23.9310   45.5730 C   0  0  0  0  0  0  0  0  0  0  0  0
   59.4210   22.5690   45.6500 O   0  0  0  0  0  0  0  0  0  0  0  0
   58.0640   24.4930   44.9110 C   0  0  0  0  0  0  0  0  0  0  0  0
   56.7970   23.6570   44.0300 Cl  0  0  0  0  0  0  0  0  0  0  0  0
   58.1980   25.8460   45.0970 C   0  0  0  0  0  0  0  0  0  0  0  0
   57.4110   26.9120   44.6670 C   0  0  0  0  0  0  0  0  0  0  0  0
   55.1490   28.5980   45.6300 H   0  0  0  0  0  0  0  0  0  0  0  0
   59.2845   29.4279   46.0812 H   0  0  0  0  0  0  0  0  0  0  0  0
   60.6622   27.4546   46.8202 H   0  0  0  0  0  0  0  0  0  0  0  0
   59.2730   21.9570   44.8560 H   0  0  0  0  0  0  0  0  0  0  0  0
   56.5031   26.7417   44.0697 H   0  0  0  0  0  0  0  0  0  0  0  0
  1  2  1  0
  2  3  2  0
  2  4  2  0
  2  5  1  0
  5  6  2  0
  6  7  1  0
  7  8  2  0
  8  9  1  0
  9 10  1  0
 10 11  1  0
 10 12  2  0
 12 13  1  0
 12 14  1  0
 14 15  2  0
 15  5  1  0
 14  8  1  0
  1 16  1  0
  6 17  1  0
  7 18  1  0
 11 19  1  0
 15 20  1  0
M  CHG  2   1  -1   9  -1
M  END
>  <UniqueID>  (76) 
66

>  <SMILES>  (76) 
[NH-]S(=O)(=O)c1ccc2[n-]c(O)c(Cl)c2c1

>  <Energy>  (76) 
52.844931032079266

>  <Genealogy>  (76) 
[NH-]S(=O)(=O)c1ccc2[n-]c(O)c(Cl)c2c1 (protonated)
[NH-]S(=O)(=O)c1ccc2[n-]c(O)c(Cl)c2c1 (3D coordinates assigned)
[NH-]S(=O)(=O)c1ccc2[n-]c(O)c(Cl)c2c1 (optimized conformer: 52.844931032079266 kcal/mol)

>  <smiles>  (76) 
NS(=O)(=O)c1ccc2[nH]c(O)c(Cl)c2c1

>  <score_type>  (76) 
oracle

>  <origin>  (76) 
adg

>  <m_score__min__energy>  (76) 
-9.8399999999999999

>  <m_primary>  (76) 
energy

$$$$
76:0
     RDKit          3D

 34 35  0  0  0  0  0  0  0  0999 V2000
   64.3200   33.2190   49.2550 C   0  0  0  0  0  0  0  0  0  0  0  0
   63.1130   33.4970   48.4620 N   0  0  0  0  0  0  0  0  0  0  0  0
   63.1090   33.2550   47.0960 C   0  0  0  0  0  0  0  0  0  0  0  0
   64.1420   32.8210   46.5190 O   0  0  0  0  0  0  0  0  0  0  0  0
   61.9850   33.4800   46.3500 N   0  0  0  0  0  0  0  0  0  0  0  0
   60.8750   33.9280   46.9780 C   0  0  0  0  0  0  0  0  0  0  0  0
   60.8360   34.1500   48.3090 C   0  0  0  0  0  0  0  0  0  0  0  0
   59.6120   34.5830   48.6590 N   0  0  0  0  0  0  0  0  0  0  0  0
   58.9230   34.6100   47.4890 C   0  0  0  0  0  0  0  0  0  0  0  0
   59.6790   34.2060   46.4350 N   0  0  0  0  0  0  0  0  0  0  0  0
   59.2870   34.1390   45.0280 C   0  0  0  0  0  0  0  0  0  0  0  0
   57.8430   33.6460   44.8770 C   0  0  0  0  0  0  0  0  0  0  0  0
   57.7740   32.2330   44.2800 C   0  0  0  0  0  0  0  0  0  0  0  0
   56.9730   31.3450   45.1250 N   0  0  0  0  0  0  0  0  0  0  0  0
   56.4440   29.9180   44.2750 S   0  0  0  0  0  0  0  0  0  0  0  0
   57.7220   28.6850   44.3580 C   0  0  0  0  0  0  0  0  0  0  0  0
   55.1760   29.3560   44.8600 O   0  0  0  0  0  0  0  0  0  0  0  0
   56.2030   30.2710   42.8350 O   0  0  0  0  0  0  0  0  0  0  0  0
   61.9620   33.9300   49.0870 C   0  0  0  0  0  0  0  0  0  0  0  0
   61.9200   34.1210   50.3340 O   0  0  0  0  0  0  0  0  0  0  0  0
   64.0760   33.2752   50.3261 H   0  0  0  0  0  0  0  0  0  0  0  0
   64.6918   32.2117   49.0160 H   0  0  0  0  0  0  0  0  0  0  0  0
   65.0950   33.9622   49.0160 H   0  0  0  0  0  0  0  0  0  0  0  0
   59.2680   34.8440   49.6090 H   0  0  0  0  0  0  0  0  0  0  0  0
   57.8720   34.9234   47.4043 H   0  0  0  0  0  0  0  0  0  0  0  0
   59.3720   35.1417   44.5838 H   0  0  0  0  0  0  0  0  0  0  0  0
   59.9525   33.4294   44.5147 H   0  0  0  0  0  0  0  0  0  0  0  0
   57.3663   33.6358   45.8683 H   0  0  0  0  0  0  0  0  0  0  0  0
   57.3220   34.3294   44.1903 H   0  0  0  0  0  0  0  0  0  0  0  0
   57.3178   32.2866   43.2805 H   0  0  0  0  0  0  0  0  0  0  0  0
   58.7952   31.8292   44.2162 H   0  0  0  0  0  0  0  0  0  0  0  0
   57.9507   28.4643   45.4111 H   0  0  0  0  0  0  0  0  0  0  0  0
   57.3794   27.7675   43.8571 H   0  0  0  0  0  0  0  0  0  0  0  0
   58.6266   29.0602   43.8571 H   0  0  0  0  0  0  0  0  0  0  0  0
  1  2  1  0
  2  3  1  0
  3  4  2  0
  3  5  1  0
  5  6  1  0
  6  7  2  0
  7  8  1  0
  8  9  2  0
  9 10  1  0
 10 11  1  0
 11 12  1  0
 12 13  1  0
 13 14  1  0
 14 15  1  0
 15 16  1  0
 15 17  2  0
 15 18  2  0
  7 19  1  0
 19 20  2  0
 19  2  1  0
 10  6  1  0
  1 21  1  0
  1 22  1  0
  1 23  1  0
  8 24  1  0
  9 25  1  0
 11 26  1  0
 11 27  1  0
 12 28  1  0
 12 29  1  0
 13 30  1  0
 13 31  1  0
 16 32  1  0
 16 33  1  0
 16 34  1  0
M  CHG  3   5  -1   8   1  14  -1
M  END
>  <UniqueID>  (77) 
67

>  <SMILES>  (77) 
Cn1c(=O)[n-]c2c([nH+]cn2CCC[N-]S(C)(=O)=O)c1=O

>  <Energy>  (77) 
70.49431298451859

>  <Genealogy>  (77) 
Cn1c(=O)[n-]c2c([nH+]cn2CCC[N-]S(C)(=O)=O)c1=O (protonated)
Cn1c(=O)[n-]c2c([nH+]cn2CCC[N-]S(C)(=O)=O)c1=O (3D coordinates assigned)
Cn1c(=O)[n-]c2c([nH+]cn2CCC[N-]S(C)(=O)=O)c1=O (optimized conformer: 70.49431298451859 kcal/mol)

>  <smiles>  (77) 
Cn1c(=O)[nH]c2c(ncn2CCCNS(C)(=O)=O)c1=O

>  <score_type>  (77) 
oracle

>  <origin>  (77) 
adg

>  <m_score__min__energy>  (77) 
-7.9800000000000004

>  <m_primary>  (77) 
energy

$$$$
77:0
     RDKit          3D

 45 47  0  0  0  0  0  0  0  0999 V2000
   60.3220   29.1860   45.1780 C   0  0  0  0  0  0  0  0  0  0  0  0
   60.5460   30.3180   46.0110 O   0  0  0  0  0  0  0  0  0  0  0  0
   59.9570   30.5100   47.2710 C   0  0  0  0  0  0  0  0  0  0  0  0
   59.5790   29.4270   48.0890 C   0  0  0  0  0  0  0  0  0  0  0  0
   58.9760   29.6540   49.3280 C   0  0  0  0  0  0  0  0  0  0  0  0
   58.7400   30.9580   49.7650 C   0  0  0  0  0  0  0  0  0  0  0  0
   59.1140   32.0400   48.9650 C   0  0  0  0  0  0  0  0  0  0  0  0
   59.7260   31.8260   47.7220 C   0  0  0  0  0  0  0  0  0  0  0  0
   60.1050   32.9540   46.9190 N   0  0  0  0  0  0  0  0  0  0  0  0
   61.5110   33.3110   46.7460 C   0  0  0  0  0  0  0  0  0  0  0  0
   58.9130   33.7680   45.9540 S   0  0  0  0  0  0  0  0  0  0  0  0
   59.5620   34.9230   45.2460 O   0  0  0  0  0  0  0  0  0  0  0  0
   57.8040   34.2930   46.8250 O   0  0  0  0  0  0  0  0  0  0  0  0
   58.2310   32.6290   44.7990 C   0  0  0  0  0  0  0  0  0  0  0  0
   58.3310   32.8590   43.4210 C   0  0  0  0  0  0  0  0  0  0  0  0
   57.8020   31.9350   42.5180 C   0  0  0  0  0  0  0  0  0  0  0  0
   57.1680   30.7800   42.9830 C   0  0  0  0  0  0  0  0  0  0  0  0
   57.0480   30.5430   44.3630 C   0  0  0  0  0  0  0  0  0  0  0  0
   56.3910   29.3130   44.8670 C   0  0  0  0  0  0  0  0  0  0  0  0
   55.1490   29.1650   44.7080 O   0  0  0  0  0  0  0  0  0  0  0  0
   57.1140   28.3090   45.5910 N   0  0  0  0  0  0  0  0  0  0  0  0
   56.7840   27.0550   45.6800 C   0  0  0  0  0  0  0  0  0  0  0  0
   55.5420   26.6610   46.0320 N   0  0  0  0  0  0  0  0  0  0  0  0
   55.3910   25.3370   46.0260 N   0  0  0  0  0  0  0  0  0  0  0  0
   56.5120   24.6730   45.6650 C   0  0  0  0  0  0  0  0  0  0  0  0
   56.5930   23.1890   45.5470 C   0  0  0  0  0  0  0  0  0  0  0  0
   57.7730   25.7330   45.3130 S   0  0  0  0  0  0  0  0  0  0  0  0
   57.5900   31.4730   45.2660 C   0  0  0  0  0  0  0  0  0  0  0  0
   60.1465   28.2989   45.8043 H   0  0  0  0  0  0  0  0  0  0  0  0
   59.4421   29.3664   44.5429 H   0  0  0  0  0  0  0  0  0  0  0  0
   61.2043   29.0177   44.5429 H   0  0  0  0  0  0  0  0  0  0  0  0
   59.7599   28.3964   47.7497 H   0  0  0  0  0  0  0  0  0  0  0  0
   58.6863   28.8025   49.9612 H   0  0  0  0  0  0  0  0  0  0  0  0
   58.2597   31.1337   50.7389 H   0  0  0  0  0  0  0  0  0  0  0  0
   58.9271   33.0668   49.3125 H   0  0  0  0  0  0  0  0  0  0  0  0
   61.9829   33.4308   47.7324 H   0  0  0  0  0  0  0  0  0  0  0  0
   62.0254   32.5150   46.1877 H   0  0  0  0  0  0  0  0  0  0  0  0
   61.5833   34.2560   46.1877 H   0  0  0  0  0  0  0  0  0  0  0  0
   58.8267   33.7682   43.0500 H   0  0  0  0  0  0  0  0  0  0  0  0
   57.8846   32.1170   41.4363 H   0  0  0  0  0  0  0  0  0  0  0  0
   56.7608   30.0526   42.2654 H   0  0  0  0  0  0  0  0  0  0  0  0
   56.6174   22.7421   46.5518 H   0  0  0  0  0  0  0  0  0  0  0  0
   55.7139   22.8161   45.0011 H   0  0  0  0  0  0  0  0  0  0  0  0
   57.5075   22.9140   45.0011 H   0  0  0  0  0  0  0  0  0  0  0  0
   57.5107   31.2926   46.3482 H   0  0  0  0  0  0  0  0  0  0  0  0
  1  2  1  0
  2  3  1  0
  3  4  2  0
  4  5  1  0
  5  6  2  0
  6  7  1  0
  7  8  2  0
  8  9  1  0
  9 10  1  0
  9 11  1  0
 11 12  2  0
 11 13  2  0
 11 14  1  0
 14 15  2  0
 15 16  1  0
 16 17  2  0
 17 18  1  0
 18 19  1  0
 19 20  2  0
 19 21  1  0
 21 22  2  3
 22 23  1  0
 23 24  1  0
 24 25  2  0
 25 26  1  0
 25 27  1  0
 18 28  2  0
  8  3  1  0
 28 14  1  0
 27 22  1  0
  1 29  1  0
  1 30  1  0
  1 31  1  0
  4 32  1  0
  5 33  1  0
  6 34  1  0
  7 35  1  0
 10 36  1  0
 10 37  1  0
 10 38  1  0
 15 39  1  0
 16 40  1  0
 17 41  1  0
 26 42  1  0
 26 43  1  0
 26 44  1  0
 28 45  1  0
M  CHG  1  23  -1
M  END
>  <UniqueID>  (78) 
68

>  <SMILES>  (78) 
COc1ccccc1N(C)S(=O)(=O)c1cccc(C(=O)N=c2[n-]nc(C)s2)c1

>  <Energy>  (78) 
92.86401185380439

>  <Genealogy>  (78) 
COc1ccccc1N(C)S(=O)(=O)c1cccc(C(=O)N=c2[n-]nc(C)s2)c1 (protonated)
COc1ccccc1N(C)S(=O)(=O)c1cccc(C(=O)N=c2[n-]nc(C)s2)c1 (3D coordinates assigned)
COc1ccccc1N(C)S(=O)(=O)c1cccc(C(=O)N=c2[n-]nc(C)s2)c1 (optimized conformer: 92.86401185380439 kcal/mol)

>  <smiles>  (78) 
COc1ccccc1N(C)S(=O)(=O)c1cccc(C(=O)N=c2[nH]nc(C)s2)c1

>  <score_type>  (78) 
oracle

>  <origin>  (78) 
adg

>  <m_score__min__energy>  (78) 
-11.300000000000001

>  <m_primary>  (78) 
energy

$$$$
78:0
     RDKit          3D

 37 39  0  0  0  0  0  0  0  0999 V2000
   57.5630   21.8470   43.7660 C   0  0  0  0  0  0  0  0  0  0  0  0
   58.8000   22.5120   44.9220 S   0  0  0  0  0  0  0  0  0  0  0  0
   57.7950   23.9290   45.3690 C   0  0  0  0  0  0  0  0  0  0  0  0
   56.4170   23.7770   45.5670 C   0  0  0  0  0  0  0  0  0  0  0  0
   55.6350   24.8820   45.9140 C   0  0  0  0  0  0  0  0  0  0  0  0
   56.2240   26.1410   46.0600 C   0  0  0  0  0  0  0  0  0  0  0  0
   57.6020   26.3030   45.8530 C   0  0  0  0  0  0  0  0  0  0  0  0
   58.2090   27.6000   46.0010 N   0  0  0  0  0  0  0  0  0  0  0  0
   58.3510   28.4270   44.9140 C   0  0  0  0  0  0  0  0  0  0  0  0
   57.7570   27.9580   43.2780 S   0  0  0  0  0  0  0  0  0  0  0  0
   56.7720   29.4750   43.0330 C   0  0  0  0  0  0  0  0  0  0  0  0
   56.0640   29.8480   44.2950 C   0  0  0  0  0  0  0  0  0  0  0  0
   56.2670   30.9700   44.8280 O   0  0  0  0  0  0  0  0  0  0  0  0
   55.1550   28.9670   44.8680 O   0  0  0  0  0  0  0  0  0  0  0  0
   58.9350   29.6450   45.0550 N   0  0  0  0  0  0  0  0  0  0  0  0
   59.3830   30.0830   46.2550 C   0  0  0  0  0  0  0  0  0  0  0  0
   59.9760   31.3450   46.3620 C   0  0  0  0  0  0  0  0  0  0  0  0
   60.4350   31.8010   47.6010 C   0  0  0  0  0  0  0  0  0  0  0  0
   60.3030   30.9950   48.7370 C   0  0  0  0  0  0  0  0  0  0  0  0
   59.7110   29.7310   48.6380 C   0  0  0  0  0  0  0  0  0  0  0  0
   59.2460   29.2660   47.3940 C   0  0  0  0  0  0  0  0  0  0  0  0
   58.6460   28.0050   47.2370 C   0  0  0  0  0  0  0  0  0  0  0  0
   58.5180   27.2420   48.2360 O   0  0  0  0  0  0  0  0  0  0  0  0
   58.3860   25.1900   45.5090 C   0  0  0  0  0  0  0  0  0  0  0  0
   56.7331   21.4009   44.3337 H   0  0  0  0  0  0  0  0  0  0  0  0
   57.1786   22.6601   43.1326 H   0  0  0  0  0  0  0  0  0  0  0  0
   58.0292   21.0779   43.1326 H   0  0  0  0  0  0  0  0  0  0  0  0
   55.9502   22.7879   45.4494 H   0  0  0  0  0  0  0  0  0  0  0  0
   54.5533   24.7606   46.0726 H   0  0  0  0  0  0  0  0  0  0  0  0
   55.6055   27.0071   46.3379 H   0  0  0  0  0  0  0  0  0  0  0  0
   57.4404   30.2967   42.7363 H   0  0  0  0  0  0  0  0  0  0  0  0
   56.0251   29.2914   42.2466 H   0  0  0  0  0  0  0  0  0  0  0  0
   60.0814   31.9797   45.4698 H   0  0  0  0  0  0  0  0  0  0  0  0
   60.9004   32.7943   47.6830 H   0  0  0  0  0  0  0  0  0  0  0  0
   60.6656   31.3560   49.7107 H   0  0  0  0  0  0  0  0  0  0  0  0
   59.6090   29.1003   49.5334 H   0  0  0  0  0  0  0  0  0  0  0  0
   59.4677   25.3095   45.3491 H   0  0  0  0  0  0  0  0  0  0  0  0
  1  2  1  0
  2  3  1  0
  3  4  2  0
  4  5  1  0
  5  6  2  0
  6  7  1  0
  7  8  1  0
  8  9  1  0
  9 10  1  0
 10 11  1  0
 11 12  1  0
 12 13  2  0
 12 14  1  0
  9 15  2  0
 15 16  1  0
 16 17  2  0
 17 18  1  0
 18 19  2  0
 19 20  1  0
 20 21  2  0
 21 22  1  0
 22 23  2  0
  7 24  2  0
 24  3  1  0
 22  8  1  0
 21 16  1  0
  1 25  1  0
  1 26  1  0
  1 27  1  0
  4 28  1  0
  5 29  1  0
  6 30  1  0
 11 31  1  0
 11 32  1  0
 17 33  1  0
 18 34  1  0
 19 35  1  0
 20 36  1  0
 24 37  1  0
M  CHG  1  14  -1
M  END
>  <UniqueID>  (79) 
69

>  <SMILES>  (79) 
CSc1cccc(-n2c(SCC(=O)[O-])nc3ccccc3c2=O)c1

>  <Energy>  (79) 
44.31448123972899

>  <Genealogy>  (79) 
CSc1cccc(-n2c(SCC(=O)[O-])nc3ccccc3c2=O)c1 (protonated)
CSc1cccc(-n2c(SCC(=O)[O-])nc3ccccc3c2=O)c1 (3D coordinates assigned)
CSc1cccc(-n2c(SCC(=O)[O-])nc3ccccc3c2=O)c1 (optimized conformer: 44.31448123972899 kcal/mol)

>  <smiles>  (79) 
CSc1cccc(-n2c(SCC(=O)O)nc3ccccc3c2=O)c1

>  <score_type>  (79) 
oracle

>  <origin>  (79) 
adg

>  <m_score__min__energy>  (79) 
-10.23

>  <m_primary>  (79) 
energy

$$$$
79:0
     RDKit          3D

 43 46  0  0  0  0  0  0  0  0999 V2000
   58.8900   27.3590   43.0290 O   0  0  0  0  0  0  0  0  0  0  0  0
   57.9730   27.1010   43.8580 C   0  0  0  0  0  0  0  0  0  0  0  0
   57.0950   28.1460   44.3120 N   0  0  0  0  0  0  0  0  0  0  0  0
   57.2800   29.5400   44.0110 C   0  0  0  0  0  0  0  0  0  0  0  0
   56.8620   30.0860   42.7850 C   0  0  0  0  0  0  0  0  0  0  0  0
   57.0770   31.4380   42.5080 C   0  0  0  0  0  0  0  0  0  0  0  0
   57.7230   32.2530   43.4400 C   0  0  0  0  0  0  0  0  0  0  0  0
   58.1680   31.7200   44.6590 C   0  0  0  0  0  0  0  0  0  0  0  0
   58.8600   32.5820   45.6370 C   0  0  0  0  0  0  0  0  0  0  0  0
   60.0240   32.2670   46.2380 N   0  0  0  0  0  0  0  0  0  0  0  0
   60.2320   33.3500   47.0190 C   0  0  0  0  0  0  0  0  0  0  0  0
   61.4030   33.5210   47.9110 C   0  0  0  0  0  0  0  0  0  0  0  0
   62.6910   33.1960   47.4450 C   0  0  0  0  0  0  0  0  0  0  0  0
   63.8060   33.3520   48.2740 C   0  0  0  0  0  0  0  0  0  0  0  0
   63.6500   33.8320   49.5750 C   0  0  0  0  0  0  0  0  0  0  0  0
   62.3790   34.1580   50.0500 C   0  0  0  0  0  0  0  0  0  0  0  0
   61.2570   34.0050   49.2290 C   0  0  0  0  0  0  0  0  0  0  0  0
   60.0370   34.3320   49.7260 F   0  0  0  0  0  0  0  0  0  0  0  0
   59.2460   34.2620   46.8940 N   0  0  0  0  0  0  0  0  0  0  0  0
   58.4200   33.7510   46.0320 O   0  0  0  0  0  0  0  0  0  0  0  0
   57.9500   30.3580   44.9340 C   0  0  0  0  0  0  0  0  0  0  0  0
   57.7850   25.7070   44.3180 C   0  0  0  0  0  0  0  0  0  0  0  0
   57.0830   24.7990   43.5040 C   0  0  0  0  0  0  0  0  0  0  0  0
   56.8990   23.4620   43.9030 C   0  0  0  0  0  0  0  0  0  0  0  0
   56.1820   22.5370   43.0630 N   0  0  0  0  0  0  0  0  0  0  0  0
   56.5160   21.3360   43.0070 O   0  0  0  0  0  0  0  0  0  0  0  0
   55.1150   22.9630   42.3050 O   0  0  0  0  0  0  0  0  0  0  0  0
   57.4280   23.0400   45.1320 C   0  0  0  0  0  0  0  0  0  0  0  0
   58.1270   23.9330   45.9460 C   0  0  0  0  0  0  0  0  0  0  0  0
   58.3110   25.2610   45.5490 C   0  0  0  0  0  0  0  0  0  0  0  0
   59.1560   26.3430   46.6520 Cl  0  0  0  0  0  0  0  0  0  0  0  0
   56.2380   27.8810   44.8490 H   0  0  0  0  0  0  0  0  0  0  0  0
   56.3640   29.4465   42.0414 H   0  0  0  0  0  0  0  0  0  0  0  0
   56.7362   31.8624   41.5521 H   0  0  0  0  0  0  0  0  0  0  0  0
   57.8837   33.3181   43.2172 H   0  0  0  0  0  0  0  0  0  0  0  0
   62.8212   32.8164   46.4208 H   0  0  0  0  0  0  0  0  0  0  0  0
   64.8082   33.0959   47.8999 H   0  0  0  0  0  0  0  0  0  0  0  0
   64.5285   33.9533   50.2258 H   0  0  0  0  0  0  0  0  0  0  0  0
   62.2589   34.5373   51.0755 H   0  0  0  0  0  0  0  0  0  0  0  0
   58.3081   29.9297   45.8818 H   0  0  0  0  0  0  0  0  0  0  0  0
   56.6721   25.1391   42.5420 H   0  0  0  0  0  0  0  0  0  0  0  0
   57.2910   21.9979   45.4565 H   0  0  0  0  0  0  0  0  0  0  0  0
   58.5363   23.5892   46.9074 H   0  0  0  0  0  0  0  0  0  0  0  0
  1  2  2  0
  2  3  1  0
  3  4  1  0
  4  5  2  0
  5  6  1  0
  6  7  2  0
  7  8  1  0
  8  9  1  0
  9 10  2  0
 10 11  1  0
 11 12  1  0
 12 13  2  0
 13 14  1  0
 14 15  2  0
 15 16  1  0
 16 17  2  0
 17 18  1  0
 11 19  2  0
 19 20  1  0
  8 21  2  0
  2 22  1  0
 22 23  2  0
 23 24  1  0
 24 25  1  0
 25 26  2  0
 25 27  1  0
 24 28  2  0
 28 29  1  0
 29 30  2  0
 30 31  1  0
 21  4  1  0
 30 22  1  0
 20  9  1  0
 17 12  1  0
  3 32  1  0
  5 33  1  0
  6 34  1  0
  7 35  1  0
 13 36  1  0
 14 37  1  0
 15 38  1  0
 16 39  1  0
 21 40  1  0
 23 41  1  0
 28 42  1  0
 29 43  1  0
M  CHG  2  25   1  27  -1
M  END
>  <UniqueID>  (80) 
70

>  <SMILES>  (80) 
O=C(Nc1cccc(-c2nc(-c3ccccc3F)no2)c1)c1cc([N+](=O)[O-])ccc1Cl

>  <Energy>  (80) 
93.34171561348914

>  <Genealogy>  (80) 
O=C(Nc1cccc(-c2nc(-c3ccccc3F)no2)c1)c1cc([N+](=O)[O-])ccc1Cl (3D coordinates assigned)
O=C(Nc1cccc(-c2nc(-c3ccccc3F)no2)c1)c1cc([N+](=O)[O-])ccc1Cl (optimized conformer: 93.34171561348914 kcal/mol)

>  <smiles>  (80) 
O=C(Nc1cccc(-c2nc(-c3ccccc3F)no2)c1)c1cc([N+](=O)[O-])ccc1Cl

>  <score_type>  (80) 
oracle

>  <origin>  (80) 
adg

>  <m_score__min__energy>  (80) 
-9.9600000000000009

>  <m_primary>  (80) 
energy

$$$$
80:0
     RDKit          3D

 48 49  0  0  0  0  0  0  0  0999 V2000
   55.1560   26.7130   46.0160 N   0  0  0  0  0  0  0  0  0  0  0  0
   55.9450   25.1760   45.9970 S   0  0  0  0  0  0  0  0  0  0  0  0
   55.0970   24.1640   46.7160 O   0  0  0  0  0  0  0  0  0  0  0  0
   56.1270   24.7380   44.5710 O   0  0  0  0  0  0  0  0  0  0  0  0
   57.5100   25.3090   46.7480 N   0  0  0  0  0  0  0  0  0  0  0  0
   58.5630   25.5300   45.7530 C   0  0  0  0  0  0  0  0  0  0  0  0
   59.8660   25.9790   46.4250 C   0  0  0  0  0  0  0  0  0  0  0  0
   60.0630   27.5020   46.3340 C   0  0  0  0  0  0  0  0  0  0  0  0
   59.1010   28.1780   45.3370 C   0  0  0  0  0  0  0  0  0  0  0  0
   58.3920   29.4320   45.9070 C   0  0  1  0  0  0  0  0  0  0  0  0
   59.3320   30.5490   46.0780 N   0  0  0  0  0  0  0  0  0  0  0  0
   60.1900   30.7180   47.2230 C   0  0  0  0  0  0  0  0  0  0  0  0
   60.0010   30.0240   48.2590 O   0  0  0  0  0  0  0  0  0  0  0  0
   61.3030   31.6950   47.2010 C   0  0  0  0  0  0  0  0  0  0  0  0
   62.5830   31.3500   47.6760 C   0  0  0  0  0  0  0  0  0  0  0  0
   63.6170   32.2910   47.6690 C   0  0  0  0  0  0  0  0  0  0  0  0
   63.3870   33.5830   47.1930 C   0  0  0  0  0  0  0  0  0  0  0  0
   62.1200   33.9400   46.7280 C   0  0  0  0  0  0  0  0  0  0  0  0
   61.0810   33.0050   46.7360 C   0  0  0  0  0  0  0  0  0  0  0  0
   57.1970   29.8400   45.0600 C   0  0  0  0  0  0  0  0  0  0  0  0
   56.6340   28.9830   44.3280 O   0  0  0  0  0  0  0  0  0  0  0  0
   56.7040   31.1900   45.0360 N   0  0  0  0  0  0  0  0  0  0  0  0
   57.3950   32.2900   45.1600 C   0  0  0  0  0  0  0  0  0  0  0  0
   57.4050   33.0560   46.3430 C   0  0  0  0  0  0  0  0  0  0  0  0
   58.1830   34.2150   46.4050 C   0  0  0  0  0  0  0  0  0  0  0  0
   58.9150   34.6060   45.3290 N   0  0  0  0  0  0  0  0  0  0  0  0
   58.9090   33.8970   44.1690 C   0  0  0  0  0  0  0  0  0  0  0  0
   58.1420   32.7350   44.0620 C   0  0  0  0  0  0  0  0  0  0  0  0
   55.5670   27.2840   45.2430 H   0  0  0  0  0  0  0  0  0  0  0  0
   58.7442   24.5928   45.2063 H   0  0  0  0  0  0  0  0  0  0  0  0
   58.2335   26.3203   45.0625 H   0  0  0  0  0  0  0  0  0  0  0  0
   59.8385   25.6867   47.4851 H   0  0  0  0  0  0  0  0  0  0  0  0
   60.7038   25.4950   45.9018 H   0  0  0  0  0  0  0  0  0  0  0  0
   59.8964   27.9367   47.3307 H   0  0  0  0  0  0  0  0  0  0  0  0
   61.0869   27.6792   45.9731 H   0  0  0  0  0  0  0  0  0  0  0  0
   59.6763   28.4782   44.4488 H   0  0  0  0  0  0  0  0  0  0  0  0
   58.3158   27.4447   45.1010 H   0  0  0  0  0  0  0  0  0  0  0  0
   58.0089   29.1627   46.9023 H   0  0  0  0  0  0  0  0  0  0  0  0
   59.3680   31.2570   45.3110 H   0  0  0  0  0  0  0  0  0  0  0  0
   62.7704   30.3344   48.0547 H   0  0  0  0  0  0  0  0  0  0  0  0
   64.6145   32.0125   48.0396 H   0  0  0  0  0  0  0  0  0  0  0  0
   64.2039   34.3196   47.1843 H   0  0  0  0  0  0  0  0  0  0  0  0
   61.9390   34.9588   46.3547 H   0  0  0  0  0  0  0  0  0  0  0  0
   60.0827   33.2949   46.3764 H   0  0  0  0  0  0  0  0  0  0  0  0
   56.8051   32.7439   47.2106 H   0  0  0  0  0  0  0  0  0  0  0  0
   58.2030   34.8130   47.3280 H   0  0  0  0  0  0  0  0  0  0  0  0
   59.5094   34.2393   43.3132 H   0  0  0  0  0  0  0  0  0  0  0  0
   58.1245   32.1707   43.1179 H   0  0  0  0  0  0  0  0  0  0  0  0
  1  2  1  0
  2  3  2  0
  2  4  2  0
  2  5  1  0
  5  6  1  0
  6  7  1  0
  7  8  1  0
  8  9  1  0
  9 10  1  0
 10 11  1  0
 11 12  1  0
 12 13  2  0
 12 14  1  0
 14 15  2  0
 15 16  1  0
 16 17  2  0
 17 18  1  0
 18 19  2  0
 10 20  1  0
 20 21  2  0
 20 22  1  0
 22 23  2  3
 23 24  1  0
 24 25  2  0
 25 26  1  0
 26 27  1  0
 27 28  2  0
 19 14  1  0
 28 23  1  0
  1 29  1  0
  6 30  1  0
  6 31  1  0
  7 32  1  0
  7 33  1  0
  8 34  1  0
  8 35  1  0
  9 36  1  0
  9 37  1  0
 10 38  1  1
 11 39  1  0
 15 40  1  0
 16 41  1  0
 17 42  1  0
 18 43  1  0
 19 44  1  0
 24 45  1  0
 25 46  1  0
 27 47  1  0
 28 48  1  0
M  CHG  3   1  -1   5  -1  26  -1
M  END
>  <UniqueID>  (81) 
71

>  <SMILES>  (81) 
[NH-]S(=O)(=O)[N-]CCCC[C@@H](NC(=O)c1ccccc1)C(=O)N=c1cc[n-]cc1

>  <Energy>  (81) 
52.29816164359992

>  <Genealogy>  (81) 
[NH-]S(=O)(=O)[N-]CCCCC(NC(=O)c1ccccc1)C(=O)N=c1cc[n-]cc1 (protonated)
[NH-]S(=O)(=O)[N-]CCCC[C@@H](NC(=O)c1ccccc1)C(=O)N=c1cc[n-]cc1 (chirality)
[NH-]S(=O)(=O)[N-]CCCC[C@@H](NC(=O)c1ccccc1)C(=O)N=c1cc[n-]cc1 (3D coordinates assigned)
[NH-]S(=O)(=O)[N-]CCCC[C@@H](NC(=O)c1ccccc1)C(=O)N=c1cc[n-]cc1 (optimized conformer: 52.29816164359992 kcal/mol)

>  <smiles>  (81) 
NS(=O)(=O)NCCCCC(NC(=O)c1ccccc1)C(=O)N=c1cc[nH]cc1

>  <score_type>  (81) 
oracle

>  <origin>  (81) 
adg

>  <m_score__min__energy>  (81) 
-13.51

>  <m_primary>  (81) 
energy

$$$$
81:0
     RDKit          3D

 82 86  0  0  1  0  0  0  0  0999 V2000
   55.6270   29.8370   43.4880 C   0  0  0  0  0  0  0  0  0  0  0  0
   56.8520   30.0630   44.3190 C   0  0  0  0  0  0  0  0  0  0  0  0
   57.8400   29.1040   44.2930 C   0  0  0  0  0  0  0  0  0  0  0  0
   58.9570   29.3370   45.0670 C   0  0  0  0  0  0  0  0  0  0  0  0
   59.9090   28.4880   45.0840 N   0  0  0  0  0  0  0  0  0  0  0  0
   59.8140   27.1500   45.6050 C   0  0  0  0  0  0  0  0  0  0  0  0
   60.7260   26.9310   46.8090 C   0  0  0  0  0  0  0  0  0  0  0  0
   60.0030   27.4220   48.0520 C   0  0  0  0  0  0  0  0  0  0  0  0
   60.2500   28.8960   48.3040 C   0  0  0  0  0  0  0  0  0  0  0  0
   58.8840   29.4610   48.7160 C   0  0  0  0  0  0  0  0  0  0  0  0
   58.9110   29.8430   50.0590 O   0  0  0  0  0  0  0  0  0  0  0  0
   59.6620   30.8710   50.5750 C   0  0  0  0  0  0  0  0  0  0  0  0
   61.0460   30.7990   50.7310 C   0  0  0  0  0  0  0  0  0  0  0  0
   61.6570   31.9160   51.2640 C   0  0  0  0  0  0  0  0  0  0  0  0
   63.0720   31.9120   51.4500 N   0  0  0  0  0  0  0  0  0  0  0  0
   63.9280   30.7490   51.5890 C   0  0  0  0  0  0  0  0  0  0  0  0
   65.2150   31.2190   50.9490 C   0  0  0  0  0  0  0  0  0  0  0  0
   65.0280   32.6630   50.5760 C   0  0  2  0  0  0  0  0  0  0  0  0
   66.2940   33.4700   50.7310 C   0  0  0  0  0  0  0  0  0  0  0  0
   67.3360   32.6980   50.0370 N   0  0  0  0  0  0  0  0  0  0  0  0
   63.9350   33.0760   51.5360 C   0  0  0  0  0  0  0  0  0  0  0  0
   60.9510   32.9980   51.6070 N   0  0  0  0  0  0  0  0  0  0  0  0
   59.6060   33.0680   51.4560 C   0  0  0  0  0  0  0  0  0  0  0  0
   58.9180   34.0990   51.7810 N   0  0  0  0  0  0  0  0  0  0  0  0
   59.0050   31.9930   50.9400 N   0  0  0  0  0  0  0  0  0  0  0  0
   59.0640   30.4650   45.8170 N   0  0  0  0  0  0  0  0  0  0  0  0
   58.0970   31.4030   45.8430 C   0  0  0  0  0  0  0  0  0  0  0  0
   58.1420   32.6390   46.6280 C   0  0  2  0  0  0  0  0  0  0  0  0
   58.0740   32.4500   48.1160 C   0  0  0  0  0  0  0  0  0  0  0  0
   57.0830   33.6420   46.2150 C   0  0  0  0  0  0  0  0  0  0  0  0
   57.5940   34.1590   44.8650 C   0  0  0  0  0  0  0  0  0  0  0  0
   59.0790   33.9750   45.0170 C   0  0  0  0  0  0  0  0  0  0  0  0
   59.9790   34.2420   44.1650 O   0  0  0  0  0  0  0  0  0  0  0  0
   59.3480   33.4280   46.3250 N   0  0  0  0  0  0  0  0  0  0  0  0
   60.5000   33.6200   47.1230 C   0  0  0  0  0  0  0  0  0  0  0  0
   60.5520   34.4370   48.2290 C   0  0  0  0  0  0  0  0  0  0  0  0
   61.7360   34.5380   48.9210 C   0  0  0  0  0  0  0  0  0  0  0  0
   62.8910   33.8730   48.5870 C   0  0  0  0  0  0  0  0  0  0  0  0
   62.8360   33.0420   47.4610 C   0  0  0  0  0  0  0  0  0  0  0  0
   61.6510   32.9410   46.7670 C   0  0  0  0  0  0  0  0  0  0  0  0
   57.0110   31.1520   45.0740 N   0  0  0  0  0  0  0  0  0  0  0  0
   54.7611   29.6772   44.1473 H   0  0  0  0  0  0  0  0  0  0  0  0
   55.4471   30.7171   42.8531 H   0  0  0  0  0  0  0  0  0  0  0  0
   55.7730   28.9506   42.8531 H   0  0  0  0  0  0  0  0  0  0  0  0
   57.7425   28.1940   43.6828 H   0  0  0  0  0  0  0  0  0  0  0  0
   58.7740   26.9623   45.9102 H   0  0  0  0  0  0  0  0  0  0  0  0
   60.1313   26.4568   44.8120 H   0  0  0  0  0  0  0  0  0  0  0  0
   60.9560   25.8602   46.9113 H   0  0  0  0  0  0  0  0  0  0  0  0
   61.6679   27.4834   46.6759 H   0  0  0  0  0  0  0  0  0  0  0  0
   58.9228   27.2594   47.9227 H   0  0  0  0  0  0  0  0  0  0  0  0
   60.3881   26.8593   48.9151 H   0  0  0  0  0  0  0  0  0  0  0  0
   60.9847   29.0327   49.1112 H   0  0  0  0  0  0  0  0  0  0  0  0
   60.6582   29.4046   47.4182 H   0  0  0  0  0  0  0  0  0  0  0  0
   58.6488   30.3364   48.0928 H   0  0  0  0  0  0  0  0  0  0  0  0
   58.1156   28.6865   48.5761 H   0  0  0  0  0  0  0  0  0  0  0  0
   61.6177   29.9036   50.4457 H   0  0  0  0  0  0  0  0  0  0  0  0
   64.0804   30.4905   52.6473 H   0  0  0  0  0  0  0  0  0  0  0  0
   63.5138   29.8393   51.1297 H   0  0  0  0  0  0  0  0  0  0  0  0
   66.0477   31.1190   51.6608 H   0  0  0  0  0  0  0  0  0  0  0  0
   65.4511   30.6149   50.0605 H   0  0  0  0  0  0  0  0  0  0  0  0
   64.7702   32.8269   49.5193 H   0  0  0  0  0  0  0  0  0  0  0  0
   66.1775   34.4615   50.2691 H   0  0  0  0  0  0  0  0  0  0  0  0
   66.5453   33.6382   51.7886 H   0  0  0  0  0  0  0  0  0  0  0  0
   68.1810   33.3430   50.0680 H   0  0  0  0  0  0  0  0  0  0  0  0
   67.0440   32.7120   49.0230 H   0  0  0  0  0  0  0  0  0  0  0  0
   64.3211   33.2237   52.5554 H   0  0  0  0  0  0  0  0  0  0  0  0
   63.4474   34.0332   51.2993 H   0  0  0  0  0  0  0  0  0  0  0  0
   58.9730   34.9970   51.2490 H   0  0  0  0  0  0  0  0  0  0  0  0
   57.9570   32.0450   50.8220 H   0  0  0  0  0  0  0  0  0  0  0  0
   59.9170   30.5850   46.3680 H   0  0  0  0  0  0  0  0  0  0  0  0
   58.4053   33.3709   48.6181 H   0  0  0  0  0  0  0  0  0  0  0  0
   57.0383   32.2244   48.4100 H   0  0  0  0  0  0  0  0  0  0  0  0
   58.7285   31.6163   48.4100 H   0  0  0  0  0  0  0  0  0  0  0  0
   56.1020   33.1566   46.1053 H   0  0  0  0  0  0  0  0  0  0  0  0
   56.9366   34.4426   46.9550 H   0  0  0  0  0  0  0  0  0  0  0  0
   57.1984   33.5620   44.0301 H   0  0  0  0  0  0  0  0  0  0  0  0
   57.2908   35.1913   44.6358 H   0  0  0  0  0  0  0  0  0  0  0  0
   59.6635   34.9986   48.5534 H   0  0  0  0  0  0  0  0  0  0  0  0
   61.7601   35.1961   49.8021 H   0  0  0  0  0  0  0  0  0  0  0  0
   63.8135   33.9877   49.1751 H   0  0  0  0  0  0  0  0  0  0  0  0
   63.7241   32.4797   47.1366 H   0  0  0  0  0  0  0  0  0  0  0  0
   61.6182   32.2863   45.8836 H   0  0  0  0  0  0  0  0  0  0  0  0
  1  2  1  0
  2  3  2  0
  3  4  1  0
  4  5  2  0
  5  6  1  0
  6  7  1  0
  7  8  1  0
  8  9  1  0
  9 10  1  0
 10 11  1  0
 11 12  1  0
 12 13  2  0
 13 14  1  0
 14 15  1  0
 15 16  1  0
 16 17  1  0
 17 18  1  0
 18 19  1  0
 19 20  1  0
 18 21  1  0
 14 22  2  0
 22 23  1  0
 23 24  2  3
 23 25  1  0
  4 26  1  0
 26 27  1  0
 27 28  1  0
 28 29  1  1
 28 30  1  0
 30 31  1  0
 31 32  1  0
 32 33  2  0
 32 34  1  0
 34 35  1  0
 35 36  2  0
 36 37  1  0
 37 38  2  0
 38 39  1  0
 39 40  2  0
 27 41  2  0
 41  2  1  0
 25 12  1  0
 34 28  1  0
 40 35  1  0
 21 15  1  0
  1 42  1  0
  1 43  1  0
  1 44  1  0
  3 45  1  0
  6 46  1  0
  6 47  1  0
  7 48  1  0
  7 49  1  0
  8 50  1  0
  8 51  1  0
  9 52  1  0
  9 53  1  0
 10 54  1  0
 10 55  1  0
 13 56  1  0
 16 57  1  0
 16 58  1  0
 17 59  1  0
 17 60  1  0
 18 61  1  6
 19 62  1  0
 19 63  1  0
 20 64  1  0
 20 65  1  0
 21 66  1  0
 21 67  1  0
 24 68  1  0
 25 69  1  0
 26 70  1  0
 29 71  1  0
 29 72  1  0
 29 73  1  0
 30 74  1  0
 30 75  1  0
 31 76  1  0
 31 77  1  0
 36 78  1  0
 37 79  1  0
 38 80  1  0
 39 81  1  0
 40 82  1  0
M  END
>  <smiles>  (82) 
Cc1cc(=NCCCCCOc2cc(N3CCC(CN)C3)nc(=N)[nH]2)[nH]c(C2(C)CCC(=O)N2c2ccccc2)n1

>  <score_type>  (82) 
oracle

>  <origin>  (82) 
adg

>  <m_score__min__energy>  (82) 
-9.7300000000000004

>  <m_primary>  (82) 
energy

$$$$
82:0
     RDKit          3D

 44 47  0  0  0  0  0  0  0  0999 V2000
   59.1324   24.1079   45.0574 H   0  0  0  0  0  0  0  0  0  0  0  0
   58.0950   24.4470   44.9200 C   0  0  0  0  0  0  0  0  0  0  0  0
   57.1260   23.5190   44.9140 C   0  0  0  0  0  0  0  0  0  0  0  0
   56.6050   22.7040   43.8050 C   0  0  0  0  0  0  0  0  0  0  0  0
   56.9870   22.7660   42.6070 O   0  0  0  0  0  0  0  0  0  0  0  0
   55.5300   21.8630   44.2240 N   0  0  0  0  0  0  0  0  0  0  0  0
   55.3790   22.1830   45.6040 C   0  0  0  0  0  0  0  0  0  0  0  0
   54.4390   21.6260   46.4710 C   0  0  0  0  0  0  0  0  0  0  0  0
   53.7278   20.8652   46.1169 H   0  0  0  0  0  0  0  0  0  0  0  0
   54.4220   22.0600   47.8080 C   0  0  0  0  0  0  0  0  0  0  0  0
   53.6903   21.6360   48.5114 H   0  0  0  0  0  0  0  0  0  0  0  0
   55.3370   23.0350   48.2520 C   0  0  0  0  0  0  0  0  0  0  0  0
   55.3151   23.3677   49.3002 H   0  0  0  0  0  0  0  0  0  0  0  0
   56.2770   23.5850   47.3650 C   0  0  0  0  0  0  0  0  0  0  0  0
   56.9965   24.3443   47.7053 H   0  0  0  0  0  0  0  0  0  0  0  0
   56.2750   23.1430   46.0390 C   0  0  0  0  0  0  0  0  0  0  0  0
   57.8570   25.8930   44.7540 C   0  0  0  0  0  0  0  0  0  0  0  0
   58.0880   26.4890   43.5070 C   0  0  0  0  0  0  0  0  0  0  0  0
   58.4778   25.8834   42.6756 H   0  0  0  0  0  0  0  0  0  0  0  0
   57.8260   27.8490   43.3130 C   0  0  0  0  0  0  0  0  0  0  0  0
   58.0336   28.3109   42.3365 H   0  0  0  0  0  0  0  0  0  0  0  0
   57.2990   28.6310   44.3570 C   0  0  0  0  0  0  0  0  0  0  0  0
   57.0210   30.0750   44.1710 C   0  0  0  0  0  0  0  0  0  0  0  0
   55.9180   30.5460   44.5630 O   0  0  0  0  0  0  0  0  0  0  0  0
   57.9760   30.9420   43.5360 N   0  0  0  0  0  0  0  0  0  0  0  0
   58.8280   30.5390   43.0850 H   0  0  0  0  0  0  0  0  0  0  0  0
   57.7610   32.3810   43.4100 C   0  0  0  0  0  0  0  0  0  0  0  0
   58.3395   32.7605   42.5548 H   0  0  0  0  0  0  0  0  0  0  0  0
   56.6886   32.5695   43.2540 H   0  0  0  0  0  0  0  0  0  0  0  0
   58.2040   33.0880   44.6610 C   0  0  0  0  0  0  0  0  0  0  0  0
   57.7220   32.6690   45.9130 C   0  0  0  0  0  0  0  0  0  0  0  0
   57.0088   31.8338   45.9737 H   0  0  0  0  0  0  0  0  0  0  0  0
   58.1450   33.3090   47.0810 C   0  0  0  0  0  0  0  0  0  0  0  0
   57.7614   32.9791   48.0577 H   0  0  0  0  0  0  0  0  0  0  0  0
   59.0550   34.3680   47.0100 C   0  0  0  0  0  0  0  0  0  0  0  0
   59.3867   34.8712   47.9302 H   0  0  0  0  0  0  0  0  0  0  0  0
   59.5430   34.7870   45.7690 C   0  0  0  0  0  0  0  0  0  0  0  0
   60.2602   35.6192   45.7135 H   0  0  0  0  0  0  0  0  0  0  0  0
   59.1210   34.1500   44.5980 C   0  0  0  0  0  0  0  0  0  0  0  0
   59.5087   34.4819   43.6236 H   0  0  0  0  0  0  0  0  0  0  0  0
   57.0500   28.0230   45.6010 C   0  0  0  0  0  0  0  0  0  0  0  0
   56.6449   28.6224   46.4296 H   0  0  0  0  0  0  0  0  0  0  0  0
   57.3130   26.6640   45.7930 C   0  0  0  0  0  0  0  0  0  0  0  0
   57.0925   26.1960   46.7637 H   0  0  0  0  0  0  0  0  0  0  0  0
  1  2  1  0
  2  3  2  0
  3  4  1  0
  4  5  2  0
  4  6  1  0
  6  7  1  0
  7  8  2  0
  8  9  1  0
  8 10  1  0
 10 11  1  0
 10 12  2  0
 12 13  1  0
 12 14  1  0
 14 15  1  0
 14 16  2  0
  2 17  1  0
 17 18  2  0
 18 19  1  0
 18 20  1  0
 20 21  1  0
 20 22  2  0
 22 23  1  0
 23 24  2  0
 23 25  1  0
 25 26  1  0
 25 27  1  0
 27 28  1  0
 27 29  1  0
 27 30  1  0
 30 31  2  0
 31 32  1  0
 31 33  1  0
 33 34  1  0
 33 35  2  0
 35 36  1  0
 35 37  1  0
 37 38  1  0
 37 39  2  0
 39 40  1  0
 22 41  1  0
 41 42  1  0
 41 43  2  0
 43 44  1  0
 16  3  1  0
 43 17  1  0
 16  7  1  0
 39 30  1  0
M  CHG  1   6  -1
M  END
>  <UniqueID>  (83) 
72

>  <SMILES>  (83) 
O=C1[N-]c2ccccc2/C1=C/c1ccc(C(=O)NCc2ccccc2)cc1

>  <Energy>  (83) 
84.65725863983117

>  <Genealogy>  (83) 
O=C1[N-]c2ccccc2C1=Cc1ccc(C(=O)NCc2ccccc2)cc1 (protonated)
O=C1[N-]c2ccccc2/C1=C/c1ccc(C(=O)NCc2ccccc2)cc1 (cis-trans isomerization)
O=C1[N-]c2ccccc2/C1=C/c1ccc(C(=O)NCc2ccccc2)cc1 (3D coordinates assigned)
O=C1[N-]c2ccccc2/C1=C/c1ccc(C(=O)NCc2ccccc2)cc1 (nonaromatic ring conformer: 84.65725863983117 kcal/mol)

>  <smiles>  (83) 
O=C1Nc2ccccc2C1=Cc1ccc(C(=O)NCc2ccccc2)cc1

>  <score_type>  (83) 
oracle

>  <origin>  (83) 
adg

>  <m_score__min__energy>  (83) 
-10.68

>  <m_primary>  (83) 
energy

$$$$
83:0
     RDKit          3D

 43 45  0  0  0  0  0  0  0  0999 V2000
   58.8970   35.3220   47.0910 O   0  0  0  0  0  0  0  0  0  0  0  0
   59.5060   34.2230   47.1730 C   0  0  0  0  0  0  0  0  0  0  0  0
   61.0170   34.2200   47.2120 C   0  0  0  0  0  0  0  0  0  0  0  0
   61.5600   33.0000   47.8590 N   0  0  0  0  0  0  0  0  0  0  0  0
   61.6320   33.1640   49.3370 C   0  0  0  0  0  0  0  0  0  0  0  0
   62.6670   32.2370   49.9830 C   0  0  0  0  0  0  0  0  0  0  0  0
   63.9940   32.4920   49.4080 N   0  0  0  0  0  0  0  0  0  0  0  0
   65.1900   32.2170   50.1700 C   0  0  0  0  0  0  0  0  0  0  0  0
   65.2750   31.0720   50.9860 C   0  0  0  0  0  0  0  0  0  0  0  0
   66.4340   30.8090   51.7230 C   0  0  0  0  0  0  0  0  0  0  0  0
   67.5210   31.6820   51.6540 C   0  0  0  0  0  0  0  0  0  0  0  0
   67.4520   32.8210   50.8480 C   0  0  0  0  0  0  0  0  0  0  0  0
   66.2950   33.0890   50.1100 C   0  0  0  0  0  0  0  0  0  0  0  0
   64.0790   33.0440   48.0510 C   0  0  0  0  0  0  0  0  0  0  0  0
   62.8560   32.6100   47.2320 C   0  0  0  0  0  0  0  0  0  0  0  0
   58.7410   33.0170   47.2930 N   0  0  0  0  0  0  0  0  0  0  0  0
   58.4810   32.1110   46.2150 C   0  0  0  0  0  0  0  0  0  0  0  0
   57.8200   32.5480   45.0500 C   0  0  0  0  0  0  0  0  0  0  0  0
   57.2480   34.2040   44.8920 Cl  0  0  0  0  0  0  0  0  0  0  0  0
   57.5730   31.6460   44.0100 C   0  0  0  0  0  0  0  0  0  0  0  0
   57.9650   30.3110   44.1280 C   0  0  0  0  0  0  0  0  0  0  0  0
   58.5950   29.8670   45.2930 C   0  0  0  0  0  0  0  0  0  0  0  0
   58.8460   30.7600   46.3410 C   0  0  0  0  0  0  0  0  0  0  0  0
   59.6470   30.1750   47.7920 Cl  0  0  0  0  0  0  0  0  0  0  0  0
   61.3978   34.2735   46.1814 H   0  0  0  0  0  0  0  0  0  0  0  0
   61.3406   35.0883   47.8047 H   0  0  0  0  0  0  0  0  0  0  0  0
   60.8900   32.2190   47.6650 H   0  0  0  0  0  0  0  0  0  0  0  0
   61.9026   34.2060   49.5631 H   0  0  0  0  0  0  0  0  0  0  0  0
   60.6466   32.9020   49.7497 H   0  0  0  0  0  0  0  0  0  0  0  0
   62.6972   32.4230   51.0667 H   0  0  0  0  0  0  0  0  0  0  0  0
   62.3849   31.1909   49.7931 H   0  0  0  0  0  0  0  0  0  0  0  0
   64.4227   30.3790   51.0440 H   0  0  0  0  0  0  0  0  0  0  0  0
   66.4892   29.9126   52.3582 H   0  0  0  0  0  0  0  0  0  0  0  0
   68.4319   31.4731   52.2342 H   0  0  0  0  0  0  0  0  0  0  0  0
   68.3093   33.5081   50.7939 H   0  0  0  0  0  0  0  0  0  0  0  0
   66.2471   33.9878   49.4776 H   0  0  0  0  0  0  0  0  0  0  0  0
   64.1102   34.1422   48.1055 H   0  0  0  0  0  0  0  0  0  0  0  0
   64.9916   32.6692   47.5645 H   0  0  0  0  0  0  0  0  0  0  0  0
   62.9177   33.0766   46.2378 H   0  0  0  0  0  0  0  0  0  0  0  0
   62.8740   31.5116   47.1751 H   0  0  0  0  0  0  0  0  0  0  0  0
   57.0678   31.9897   43.0953 H   0  0  0  0  0  0  0  0  0  0  0  0
   57.7775   29.6083   43.3027 H   0  0  0  0  0  0  0  0  0  0  0  0
   58.8946   28.8128   45.3870 H   0  0  0  0  0  0  0  0  0  0  0  0
  1  2  2  0
  2  3  1  0
  3  4  1  0
  4  5  1  0
  5  6  1  0
  6  7  1  0
  7  8  1  0
  8  9  2  0
  9 10  1  0
 10 11  2  0
 11 12  1  0
 12 13  2  0
  7 14  1  0
 14 15  1  0
  2 16  1  0
 16 17  1  0
 17 18  2  0
 18 19  1  0
 18 20  1  0
 20 21  2  0
 21 22  1  0
 22 23  2  0
 23 24  1  0
 15  4  1  0
 23 17  1  0
 13  8  1  0
  3 25  1  0
  3 26  1  0
  4 27  1  0
  5 28  1  0
  5 29  1  0
  6 30  1  0
  6 31  1  0
  9 32  1  0
 10 33  1  0
 11 34  1  0
 12 35  1  0
 13 36  1  0
 14 37  1  0
 14 38  1  0
 15 39  1  0
 15 40  1  0
 20 41  1  0
 21 42  1  0
 22 43  1  0
M  CHG  2   4   1  16  -1
M  END
>  <UniqueID>  (84) 
73

>  <SMILES>  (84) 
O=C(C[NH+]1CCN(c2ccccc2)CC1)[N-]c1c(Cl)cccc1Cl

>  <Energy>  (84) 
62.690870956373594

>  <Genealogy>  (84) 
O=C(C[NH+]1CCN(c2ccccc2)CC1)[N-]c1c(Cl)cccc1Cl (protonated)
O=C(C[NH+]1CCN(c2ccccc2)CC1)[N-]c1c(Cl)cccc1Cl (3D coordinates assigned)
O=C(C[NH+]1CCN(c2ccccc2)CC1)[N-]c1c(Cl)cccc1Cl (nonaromatic ring conformer: 62.690870956373594 kcal/mol)

>  <smiles>  (84) 
O=C(CN1CCN(c2ccccc2)CC1)Nc1c(Cl)cccc1Cl

>  <score_type>  (84) 
oracle

>  <origin>  (84) 
adg

>  <m_score__min__energy>  (84) 
-7.75

>  <m_primary>  (84) 
energy

$$$$
84:0
     RDKit          3D

 44 46  0  0  1  0  0  0  0  0999 V2000
   58.4990   28.5250   45.3250 C   0  0  0  0  0  0  0  0  0  0  0  0
   58.3030   29.9720   45.0450 C   0  0  0  0  0  0  0  0  0  0  0  0
   58.3100   30.8980   46.0690 C   0  0  0  0  0  0  0  0  0  0  0  0
   58.1200   32.2190   45.7260 C   0  0  0  0  0  0  0  0  0  0  0  0
   58.1040   33.1850   46.5800 N   0  0  0  0  0  0  0  0  0  0  0  0
   59.2530   34.4570   46.3640 S   0  0  0  0  0  0  0  0  0  0  0  0
   58.9170   35.6850   47.1240 O   0  0  0  0  0  0  0  0  0  0  0  0
   59.4770   34.7350   44.9010 O   0  0  0  0  0  0  0  0  0  0  0  0
   60.7770   33.8280   47.0060 C   0  0  0  0  0  0  0  0  0  0  0  0
   61.9430   33.9110   46.2610 C   0  0  0  0  0  0  0  0  0  0  0  0
   63.0980   33.3940   46.8330 C   0  0  0  0  0  0  0  0  0  0  0  0
   63.0930   32.8190   48.0930 C   0  0  0  0  0  0  0  0  0  0  0  0
   64.2630   32.2840   48.6990 N   0  0  0  0  0  0  0  0  0  0  0  0
   64.7250   32.9190   49.9030 C   0  0  0  0  0  0  0  0  0  0  0  0
   64.0650   33.9000   50.3370 O   0  0  0  0  0  0  0  0  0  0  0  0
   65.9220   32.4090   50.5650 C   0  0  0  0  0  0  0  0  0  0  0  0
   66.3780   31.1260   50.5140 N   0  0  0  0  0  0  0  0  0  0  0  0
   67.4950   31.0990   51.2570 C   0  0  0  0  0  0  0  0  0  0  0  0
   67.7560   32.3560   51.7830 C   0  0  0  0  0  0  0  0  0  0  0  0
   66.7510   33.1400   51.3260 N   0  0  0  0  0  0  0  0  0  0  0  0
   66.6080   34.5630   51.6270 C   0  0  0  0  0  0  0  0  0  0  0  0
   61.9120   32.7500   48.8110 C   0  0  0  0  0  0  0  0  0  0  0  0
   60.7470   33.2540   48.2710 C   0  0  0  0  0  0  0  0  0  0  0  0
   57.9360   32.5800   44.4250 N   0  0  0  0  0  0  0  0  0  0  0  0
   57.9360   31.6400   43.4520 C   0  0  0  0  0  0  0  0  0  0  0  0
   57.7630   31.9620   42.2060 N   0  0  0  0  0  0  0  0  0  0  0  0
   58.1200   30.3310   43.7510 N   0  0  0  0  0  0  0  0  0  0  0  0
   58.5211   28.3617   46.4126 H   0  0  0  0  0  0  0  0  0  0  0  0
   57.6704   27.9508   44.8848 H   0  0  0  0  0  0  0  0  0  0  0  0
   59.4505   28.1919   44.8848 H   0  0  0  0  0  0  0  0  0  0  0  0
   58.4610   30.5939   47.1153 H   0  0  0  0  0  0  0  0  0  0  0  0
   61.9530   34.3667   45.2599 H   0  0  0  0  0  0  0  0  0  0  0  0
   64.0420   33.4424   46.2704 H   0  0  0  0  0  0  0  0  0  0  0  0
   64.7710   31.4670   48.2940 H   0  0  0  0  0  0  0  0  0  0  0  0
   68.1158   30.2067   51.4252 H   0  0  0  0  0  0  0  0  0  0  0  0
   68.5955   32.6511   52.4297 H   0  0  0  0  0  0  0  0  0  0  0  0
   66.5935   34.7075   52.7174 H   0  0  0  0  0  0  0  0  0  0  0  0
   67.4551   35.1161   51.1951 H   0  0  0  0  0  0  0  0  0  0  0  0
   65.6678   34.9365   51.1951 H   0  0  0  0  0  0  0  0  0  0  0  0
   61.9023   32.2935   49.8118 H   0  0  0  0  0  0  0  0  0  0  0  0
   59.8045   33.2021   48.8357 H   0  0  0  0  0  0  0  0  0  0  0  0
   57.7940   33.5840   44.1710 H   0  0  0  0  0  0  0  0  0  0  0  0
   58.0960   31.2340   41.5120 H   0  0  0  0  0  0  0  0  0  0  0  0
   58.1140   29.6380   42.9760 H   0  0  0  0  0  0  0  0  0  0  0  0
  1  2  1  0
  2  3  2  0
  3  4  1  0
  4  5  2  0
  5  6  1  0
  6  7  2  0
  6  8  2  0
  6  9  1  0
  9 10  2  0
 10 11  1  0
 11 12  2  0
 12 13  1  0
 13 14  1  0
 14 15  2  0
 14 16  1  0
 16 17  2  0
 17 18  1  0
 18 19  2  0
 19 20  1  0
 20 21  1  0
 12 22  1  0
 22 23  2  0
  4 24  1  0
 24 25  1  0
 25 26  2  3
 25 27  1  0
 27  2  1  0
 23  9  1  0
 20 16  1  0
  1 28  1  0
  1 29  1  0
  1 30  1  0
  3 31  1  0
 10 32  1  0
 11 33  1  0
 13 34  1  0
 18 35  1  0
 19 36  1  0
 21 37  1  0
 21 38  1  0
 21 39  1  0
 22 40  1  0
 23 41  1  0
 24 42  1  0
 26 43  1  0
 27 44  1  0
M  END
>  <smiles>  (85) 
Cc1cc(=NS(=O)(=O)c2ccc(NC(=O)c3nccn3C)cc2)[nH]c(=N)[nH]1

>  <score_type>  (85) 
oracle

>  <origin>  (85) 
adg

>  <m_score__min__energy>  (85) 
-8.5899999999999999

>  <m_primary>  (85) 
energy

$$$$
85:0
     RDKit          3D

 37 39  0  0  0  0  0  0  0  0999 V2000
   64.4500   32.5870   50.9870 N   0  0  0  0  0  0  0  0  0  0  0  0
   63.7620   32.9090   49.9320 C   0  0  0  0  0  0  0  0  0  0  0  0
   64.2610   32.8020   48.6850 N   0  0  0  0  0  0  0  0  0  0  0  0
   63.4960   33.1520   47.6090 C   0  0  0  0  0  0  0  0  0  0  0  0
   63.9800   33.0480   46.3980 N   0  0  0  0  0  0  0  0  0  0  0  0
   62.1980   33.6200   47.8000 C   0  0  0  0  0  0  0  0  0  0  0  0
   61.3920   33.9860   46.7360 C   0  0  0  0  0  0  0  0  0  0  0  0
   60.1010   34.4480   46.9770 C   0  0  0  0  0  0  0  0  0  0  0  0
   59.2330   34.8360   45.9130 N   0  0  0  0  0  0  0  0  0  0  0  0
   59.3950   34.2310   44.6230 C   0  0  0  0  0  0  0  0  0  0  0  0
   58.5630   33.0420   44.3960 C   0  0  0  0  0  0  0  0  0  0  0  0
   58.1390   32.7150   43.1090 C   0  0  0  0  0  0  0  0  0  0  0  0
   57.3560   31.6070   42.8530 C   0  0  0  0  0  0  0  0  0  0  0  0
   56.9700   30.7830   43.8990 C   0  0  0  0  0  0  0  0  0  0  0  0
   56.1620   29.6430   43.6210 N   0  0  0  0  0  0  0  0  0  0  0  0
   56.3780   29.0190   42.5460 O   0  0  0  0  0  0  0  0  0  0  0  0
   55.1730   29.2370   44.5020 O   0  0  0  0  0  0  0  0  0  0  0  0
   57.3880   31.1020   45.1800 C   0  0  0  0  0  0  0  0  0  0  0  0
   58.1700   32.2120   45.4240 C   0  0  0  0  0  0  0  0  0  0  0  0
   59.6870   34.5190   48.2940 C   0  0  0  0  0  0  0  0  0  0  0  0
   60.4820   34.1590   49.3580 C   0  0  0  0  0  0  0  0  0  0  0  0
   61.7560   33.7020   49.1020 C   0  0  0  0  0  0  0  0  0  0  0  0
   62.5090   33.3580   50.1610 N   0  0  0  0  0  0  0  0  0  0  0  0
   64.8900   31.6790   51.1600 H   0  0  0  0  0  0  0  0  0  0  0  0
   65.2410   32.4460   48.5670 H   0  0  0  0  0  0  0  0  0  0  0  0
   64.8450   32.4800   46.3100 H   0  0  0  0  0  0  0  0  0  0  0  0
   61.7695   33.9122   45.7054 H   0  0  0  0  0  0  0  0  0  0  0  0
   58.5040   35.5580   46.1280 H   0  0  0  0  0  0  0  0  0  0  0  0
   59.1394   34.9795   43.8585 H   0  0  0  0  0  0  0  0  0  0  0  0
   60.4409   33.8950   44.5656 H   0  0  0  0  0  0  0  0  0  0  0  0
   58.4379   33.3607   42.2701 H   0  0  0  0  0  0  0  0  0  0  0  0
   57.0400   31.3792   41.8243 H   0  0  0  0  0  0  0  0  0  0  0  0
   57.0905   30.4572   46.0201 H   0  0  0  0  0  0  0  0  0  0  0  0
   58.4844   32.4380   46.4536 H   0  0  0  0  0  0  0  0  0  0  0  0
   58.6697   34.8820   48.5022 H   0  0  0  0  0  0  0  0  0  0  0  0
   60.1085   34.2345   50.3899 H   0  0  0  0  0  0  0  0  0  0  0  0
   62.1350   33.4340   51.1510 H   0  0  0  0  0  0  0  0  0  0  0  0
  1  2  2  3
  2  3  1  0
  3  4  1  0
  4  5  2  3
  4  6  1  0
  6  7  2  0
  7  8  1  0
  8  9  1  0
  9 10  1  0
 10 11  1  0
 11 12  2  0
 12 13  1  0
 13 14  2  0
 14 15  1  0
 15 16  2  0
 15 17  1  0
 14 18  1  0
 18 19  2  0
  8 20  2  0
 20 21  1  0
 21 22  2  0
 22 23  1  0
 23  2  1  0
 22  6  1  0
 19 11  1  0
  1 24  1  0
  3 25  1  0
  5 26  1  0
  7 27  1  0
  9 28  1  0
 10 29  1  0
 10 30  1  0
 12 31  1  0
 13 32  1  0
 18 33  1  0
 19 34  1  0
 20 35  1  0
 21 36  1  0
 23 37  1  0
M  CHG  2  15   1  17  -1
M  END
>  <smiles>  (86) 
N=c1[nH]c(=N)c2cc(NCc3ccc([N+](=O)[O-])cc3)ccc2[nH]1

>  <score_type>  (86) 
oracle

>  <origin>  (86) 
adg

>  <m_score__min__energy>  (86) 
-7.7199999999999998

>  <m_primary>  (86) 
energy

$$$$
86:0
     RDKit          3D

 62 65  0  0  1  0  0  0  0  0999 V2000
   58.2860   32.6200   47.3110 O   0  0  0  0  0  0  0  0  0  0  0  0
   59.1610   33.4210   46.8270 C   0  0  0  0  0  0  0  0  0  0  0  0
   58.7720   34.0730   45.6300 N   0  0  0  0  0  0  0  0  0  0  0  0
   57.4830   33.7890   45.0870 C   0  0  0  0  0  0  0  0  0  0  0  0
   57.4330   32.6060   44.1450 C   0  0  0  0  0  0  0  0  0  0  0  0
   56.7390   31.4970   44.7060 N   0  0  0  0  0  0  0  0  0  0  0  0
   57.2190   30.3100   44.8260 C   0  0  0  0  0  0  0  0  0  0  0  0
   57.2230   29.4300   43.7740 C   0  0  0  0  0  0  0  0  0  0  0  0
   57.7560   28.1800   43.9960 C   0  0  0  0  0  0  0  0  0  0  0  0
   58.2610   27.8040   45.1820 N   0  0  0  0  0  0  0  0  0  0  0  0
   58.2420   28.6900   46.1930 C   0  0  0  0  0  0  0  0  0  0  0  0
   58.7020   28.4190   47.3640 N   0  0  0  0  0  0  0  0  0  0  0  0
   60.1510   28.3740   47.6160 C   0  0  0  0  0  0  0  0  0  0  0  0
   60.3820   27.8870   49.0040 C   0  0  0  0  0  0  0  0  0  0  0  0
   61.0660   28.8380   49.9310 C   0  0  0  0  0  0  0  0  0  0  0  0
   60.8720   30.2160   49.6880 N   0  0  0  0  0  0  0  0  0  0  0  0
   60.8930   31.0990   50.8000 C   0  0  0  0  0  0  0  0  0  0  0  0
   59.4990   31.3590   51.2450 C   0  0  0  0  0  0  0  0  0  0  0  0
   59.1400   32.6570   51.5950 C   0  0  0  0  0  0  0  0  0  0  0  0
   57.8670   32.9770   52.0130 C   0  0  0  0  0  0  0  0  0  0  0  0
   56.9070   31.9640   52.0870 C   0  0  0  0  0  0  0  0  0  0  0  0
   57.2500   30.6800   51.7420 C   0  0  0  0  0  0  0  0  0  0  0  0
   58.5310   30.3850   51.3270 C   0  0  0  0  0  0  0  0  0  0  0  0
   60.0760   30.5900   48.5730 C   0  0  0  0  0  0  0  0  0  0  0  0
   60.6130   29.7990   47.3830 C   0  0  0  0  0  0  0  0  0  0  0  0
   57.7260   29.9300   46.0170 N   0  0  0  0  0  0  0  0  0  0  0  0
   60.4190   33.5900   47.5070 C   0  0  0  0  0  0  0  0  0  0  0  0
   61.5750   33.1610   46.8470 C   0  0  0  0  0  0  0  0  0  0  0  0
   62.8020   33.2900   47.4280 C   0  0  0  0  0  0  0  0  0  0  0  0
   62.9540   33.8440   48.6830 C   0  0  0  0  0  0  0  0  0  0  0  0
   61.8450   34.2510   49.3090 N   0  0  0  0  0  0  0  0  0  0  0  0
   60.6090   34.1320   48.7470 C   0  0  0  0  0  0  0  0  0  0  0  0
   59.6510   34.5420   49.4160 O   0  0  0  0  0  0  0  0  0  0  0  0
   59.3890   34.7320   45.1550 H   0  0  0  0  0  0  0  0  0  0  0  0
   56.7969   33.5887   45.9232 H   0  0  0  0  0  0  0  0  0  0  0  0
   57.1995   34.6690   44.4910 H   0  0  0  0  0  0  0  0  0  0  0  0
   56.9221   32.9118   43.2201 H   0  0  0  0  0  0  0  0  0  0  0  0
   58.4678   32.2899   43.9470 H   0  0  0  0  0  0  0  0  0  0  0  0
   56.8164   29.7118   42.7915 H   0  0  0  0  0  0  0  0  0  0  0  0
   57.7687   27.4583   43.1660 H   0  0  0  0  0  0  0  0  0  0  0  0
   58.6610   26.8770   45.3590 H   0  0  0  0  0  0  0  0  0  0  0  0
   60.7122   27.6859   46.9667 H   0  0  0  0  0  0  0  0  0  0  0  0
   59.4030   27.6389   49.4400 H   0  0  0  0  0  0  0  0  0  0  0  0
   61.0641   27.0296   48.9056 H   0  0  0  0  0  0  0  0  0  0  0  0
   60.7074   28.6261   50.9491 H   0  0  0  0  0  0  0  0  0  0  0  0
   62.1415   28.6673   49.7758 H   0  0  0  0  0  0  0  0  0  0  0  0
   61.4622   30.6412   51.6224 H   0  0  0  0  0  0  0  0  0  0  0  0
   61.3708   32.0465   50.5101 H   0  0  0  0  0  0  0  0  0  0  0  0
   59.8969   33.4530   51.5360 H   0  0  0  0  0  0  0  0  0  0  0  0
   57.6105   34.0118   52.2838 H   0  0  0  0  0  0  0  0  0  0  0  0
   55.8839   32.1937   52.4193 H   0  0  0  0  0  0  0  0  0  0  0  0
   56.4966   29.8804   51.7972 H   0  0  0  0  0  0  0  0  0  0  0  0
   58.7844   29.3495   51.0558 H   0  0  0  0  0  0  0  0  0  0  0  0
   59.0213   30.3363   48.7550 H   0  0  0  0  0  0  0  0  0  0  0  0
   60.1258   31.6735   48.3899 H   0  0  0  0  0  0  0  0  0  0  0  0
   60.2001   30.1899   46.4413 H   0  0  0  0  0  0  0  0  0  0  0  0
   61.7077   29.8695   47.3011 H   0  0  0  0  0  0  0  0  0  0  0  0
   57.7100   30.6130   46.7920 H   0  0  0  0  0  0  0  0  0  0  0  0
   61.4934   32.7134   45.8455 H   0  0  0  0  0  0  0  0  0  0  0  0
   63.6926   32.9440   46.8830 H   0  0  0  0  0  0  0  0  0  0  0  0
   63.9455   33.9463   49.1484 H   0  0  0  0  0  0  0  0  0  0  0  0
   61.9320   34.6780   50.2700 H   0  0  0  0  0  0  0  0  0  0  0  0
  1  2  2  0
  2  3  1  0
  3  4  1  0
  4  5  1  0
  5  6  1  0
  6  7  2  0
  7  8  1  0
  8  9  2  0
  9 10  1  0
 10 11  1  0
 11 12  2  0
 12 13  1  0
 13 14  1  0
 14 15  1  0
 15 16  1  0
 16 17  1  0
 17 18  1  0
 18 19  2  0
 19 20  1  0
 20 21  2  0
 21 22  1  0
 22 23  2  0
 16 24  1  0
 24 25  1  0
 11 26  1  0
  2 27  1  0
 27 28  2  0
 28 29  1  0
 29 30  2  0
 30 31  1  0
 31 32  1  0
 32 33  2  0
 26  7  1  0
 32 27  1  0
 25 13  1  0
 23 18  1  0
  3 34  1  0
  4 35  1  0
  4 36  1  0
  5 37  1  0
  5 38  1  0
  8 39  1  0
  9 40  1  0
 10 41  1  0
 13 42  1  0
 14 43  1  0
 14 44  1  0
 15 45  1  0
 15 46  1  0
 17 47  1  0
 17 48  1  0
 19 49  1  0
 20 50  1  0
 21 51  1  0
 22 52  1  0
 23 53  1  0
 24 54  1  0
 24 55  1  0
 25 56  1  0
 25 57  1  0
 26 58  1  0
 28 59  1  0
 29 60  1  0
 30 61  1  0
 31 62  1  0
M  END
>  <smiles>  (87) 
O=C(NCCN=c1cc[nH]c(=NC2CCN(Cc3ccccc3)CC2)[nH]1)c1ccc[nH]c1=O

>  <score_type>  (87) 
oracle

>  <origin>  (87) 
adg

>  <m_score__min__energy>  (87) 
-9.5299999999999994

>  <m_primary>  (87) 
energy

$$$$
87:0
     RDKit          3D

 48 50  0  0  1  0  0  0  0  0999 V2000
   60.6770   30.2610   47.1500 C   0  0  0  0  0  0  0  0  0  0  0  0
   59.3390   30.8110   47.3600 N   0  0  0  0  0  0  0  0  0  0  0  0
   58.5880   30.2810   48.4710 C   0  0  0  0  0  0  0  0  0  0  0  0
   58.8670   31.8150   46.4810 C   0  0  0  0  0  0  0  0  0  0  0  0
   59.4950   33.0500   46.4500 C   0  0  0  0  0  0  0  0  0  0  0  0
   59.1160   34.0830   45.6450 C   0  0  0  0  0  0  0  0  0  0  0  0
   58.0450   33.9200   44.7960 C   0  0  0  0  0  0  0  0  0  0  0  0
   57.4040   32.7150   44.8010 C   0  0  0  0  0  0  0  0  0  0  0  0
   57.7950   31.6540   45.6290 C   0  0  0  0  0  0  0  0  0  0  0  0
   57.0930   30.4180   45.5940 N   0  0  0  0  0  0  0  0  0  0  0  0
   57.7630   29.3430   45.4440 C   0  0  0  0  0  0  0  0  0  0  0  0
   58.8780   29.3920   44.6310 C   0  0  0  0  0  0  0  0  0  0  0  0
   59.6420   28.2560   44.4290 C   0  0  0  0  0  0  0  0  0  0  0  0
   59.3030   27.0830   45.0280 N   0  0  0  0  0  0  0  0  0  0  0  0
   58.2030   27.0470   45.8250 C   0  0  0  0  0  0  0  0  0  0  0  0
   57.8510   25.9510   46.4090 N   0  0  0  0  0  0  0  0  0  0  0  0
   57.0350   24.9870   45.7480 C   0  0  0  0  0  0  0  0  0  0  0  0
   57.5440   23.8440   45.1640 C   0  0  0  0  0  0  0  0  0  0  0  0
   56.6850   22.9870   44.5570 C   0  0  0  0  0  0  0  0  0  0  0  0
   57.2730   21.5060   43.7910 S   0  0  0  0  0  0  0  0  0  0  0  0
   57.2130   20.2890   45.0370 N   0  0  0  0  0  0  0  0  0  0  0  0
   56.3850   21.0870   42.6710 O   0  0  0  0  0  0  0  0  0  0  0  0
   58.6870   21.6660   43.3690 O   0  0  0  0  0  0  0  0  0  0  0  0
   55.3070   23.2130   44.4990 C   0  0  0  0  0  0  0  0  0  0  0  0
   54.8190   24.3670   45.0920 C   0  0  0  0  0  0  0  0  0  0  0  0
   55.6730   25.2540   45.7150 C   0  0  0  0  0  0  0  0  0  0  0  0
   55.1670   26.4230   46.3140 O   0  0  0  0  0  0  0  0  0  0  0  0
   57.4720   28.1630   46.0090 N   0  0  0  0  0  0  0  0  0  0  0  0
   61.1504   30.0664   48.1237 H   0  0  0  0  0  0  0  0  0  0  0  0
   60.6022   29.3207   46.5842 H   0  0  0  0  0  0  0  0  0  0  0  0
   61.2852   30.9821   46.5842 H   0  0  0  0  0  0  0  0  0  0  0  0
   59.0499   30.6070   49.4146 H   0  0  0  0  0  0  0  0  0  0  0  0
   57.5527   30.6497   48.4230 H   0  0  0  0  0  0  0  0  0  0  0  0
   58.5885   29.1820   48.4230 H   0  0  0  0  0  0  0  0  0  0  0  0
   60.3547   33.2069   47.1180 H   0  0  0  0  0  0  0  0  0  0  0  0
   59.6612   35.0380   45.6738 H   0  0  0  0  0  0  0  0  0  0  0  0
   57.7161   34.7350   44.1345 H   0  0  0  0  0  0  0  0  0  0  0  0
   56.5459   32.5708   44.1280 H   0  0  0  0  0  0  0  0  0  0  0  0
   59.1597   30.3365   44.1426 H   0  0  0  0  0  0  0  0  0  0  0  0
   60.5289   28.3020   43.7800 H   0  0  0  0  0  0  0  0  0  0  0  0
   59.8850   26.2070   44.8770 H   0  0  0  0  0  0  0  0  0  0  0  0
   58.6232   23.6327   45.1903 H   0  0  0  0  0  0  0  0  0  0  0  0
   58.1470   20.1970   45.4980 H   0  0  0  0  0  0  0  0  0  0  0  0
   56.8510   19.3860   44.6650 H   0  0  0  0  0  0  0  0  0  0  0  0
   54.6335   22.5004   44.0004 H   0  0  0  0  0  0  0  0  0  0  0  0
   53.7397   24.5779   45.0657 H   0  0  0  0  0  0  0  0  0  0  0  0
   55.7360   26.8900   46.9920 H   0  0  0  0  0  0  0  0  0  0  0  0
   56.6350   28.0960   46.6260 H   0  0  0  0  0  0  0  0  0  0  0  0
  1  2  1  0
  2  3  1  0
  2  4  1  0
  4  5  2  0
  5  6  1  0
  6  7  2  0
  7  8  1  0
  8  9  2  0
  9 10  1  0
 10 11  2  0
 11 12  1  0
 12 13  2  0
 13 14  1  0
 14 15  1  0
 15 16  2  0
 16 17  1  0
 17 18  2  0
 18 19  1  0
 19 20  1  0
 20 21  1  0
 20 22  2  0
 20 23  2  0
 19 24  2  0
 24 25  1  0
 25 26  2  0
 26 27  1  0
 15 28  1  0
  9  4  1  0
 28 11  1  0
 26 17  1  0
  1 29  1  0
  1 30  1  0
  1 31  1  0
  3 32  1  0
  3 33  1  0
  3 34  1  0
  5 35  1  0
  6 36  1  0
  7 37  1  0
  8 38  1  0
 12 39  1  0
 13 40  1  0
 14 41  1  0
 18 42  1  0
 21 43  1  0
 21 44  1  0
 24 45  1  0
 25 46  1  0
 27 47  1  0
 28 48  1  0
M  END
>  <smiles>  (88) 
CN(C)c1ccccc1N=c1cc[nH]c(=Nc2cc(S(N)(=O)=O)ccc2O)[nH]1

>  <score_type>  (88) 
oracle

>  <origin>  (88) 
adg

>  <m_score__min__energy>  (88) 
-10.380000000000001

>  <m_primary>  (88) 
energy

$$$$
88:0
     RDKit          3D

 40 42  0  0  0  0  0  0  0  0999 V2000
   55.1580   26.4390   45.9960 N   0  0  0  0  0  0  0  0  0  0  0  0
   56.5680   26.4060   46.2130 C   0  0  0  0  0  0  0  0  0  0  0  0
   57.1240   25.3010   46.4500 O   0  0  0  0  0  0  0  0  0  0  0  0
   57.3350   27.6240   46.1600 N   0  0  0  0  0  0  0  0  0  0  0  0
   58.4480   27.8680   46.8980 C   0  0  0  0  0  0  0  0  0  0  0  0
   58.9430   29.1350   46.6160 C   0  0  0  0  0  0  0  0  0  0  0  0
   60.0700   29.7860   47.2230 N   0  0  0  0  0  0  0  0  0  0  0  0
   59.9810   31.0350   47.9270 C   0  0  0  0  0  0  0  0  0  0  0  0
   58.8690   31.4270   48.3730 O   0  0  0  0  0  0  0  0  0  0  0  0
   61.1660   31.8080   48.1960 N   0  0  0  0  0  0  0  0  0  0  0  0
   61.7910   31.8000   49.5280 C   0  0  0  0  0  0  0  0  0  0  0  0
   62.1170   33.2280   49.9910 C   0  0  0  0  0  0  0  0  0  0  0  0
   62.5030   34.1810   48.8390 C   0  0  0  0  0  0  0  0  0  0  0  0
   62.9590   33.4420   47.5680 C   0  0  1  0  0  0  0  0  0  0  0  0
   64.1900   32.6880   47.8210 N   0  0  0  0  0  0  0  0  0  0  0  0
   61.8320   32.5040   47.0830 C   0  0  0  0  0  0  0  0  0  0  0  0
   58.0880   29.6870   45.6880 C   0  0  0  0  0  0  0  0  0  0  0  0
   58.0950   30.9380   45.0700 C   0  0  0  0  0  0  0  0  0  0  0  0
   57.0760   31.2220   44.1470 C   0  0  0  0  0  0  0  0  0  0  0  0
   56.0840   30.2620   43.8610 C   0  0  0  0  0  0  0  0  0  0  0  0
   56.0980   29.0060   44.4970 C   0  0  0  0  0  0  0  0  0  0  0  0
   57.1220   28.7420   45.4190 C   0  0  0  0  0  0  0  0  0  0  0  0
   54.5120   26.8130   46.7250 H   0  0  0  0  0  0  0  0  0  0  0  0
   58.8937   27.1638   47.6159 H   0  0  0  0  0  0  0  0  0  0  0  0
   60.9850   29.2850   47.2230 H   0  0  0  0  0  0  0  0  0  0  0  0
   61.0991   31.3376   50.2474 H   0  0  0  0  0  0  0  0  0  0  0  0
   62.7282   31.2268   49.4722 H   0  0  0  0  0  0  0  0  0  0  0  0
   61.2324   33.6386   50.4998 H   0  0  0  0  0  0  0  0  0  0  0  0
   62.9897   33.1587   50.6570 H   0  0  0  0  0  0  0  0  0  0  0  0
   61.6284   34.7996   48.5890 H   0  0  0  0  0  0  0  0  0  0  0  0
   63.3521   34.7876   49.1870 H   0  0  0  0  0  0  0  0  0  0  0  0
   63.1729   34.1801   46.7810 H   0  0  0  0  0  0  0  0  0  0  0  0
   64.9990   33.2570   47.4800 H   0  0  0  0  0  0  0  0  0  0  0  0
   64.1760   31.8260   47.2290 H   0  0  0  0  0  0  0  0  0  0  0  0
   61.0838   33.1010   46.5409 H   0  0  0  0  0  0  0  0  0  0  0  0
   62.2857   31.7414   46.4329 H   0  0  0  0  0  0  0  0  0  0  0  0
   58.8751   31.6790   45.2990 H   0  0  0  0  0  0  0  0  0  0  0  0
   57.0515   32.1998   43.6437 H   0  0  0  0  0  0  0  0  0  0  0  0
   55.2920   30.4963   43.1345 H   0  0  0  0  0  0  0  0  0  0  0  0
   55.3274   28.2525   44.2771 H   0  0  0  0  0  0  0  0  0  0  0  0
  1  2  1  0
  2  3  2  0
  2  4  1  0
  4  5  1  0
  5  6  2  0
  6  7  1  0
  7  8  1  0
  8  9  2  0
  8 10  1  0
 10 11  1  0
 11 12  1  0
 12 13  1  0
 13 14  1  0
 14 15  1  0
 14 16  1  0
  6 17  1  0
 17 18  2  0
 18 19  1  0
 19 20  2  0
 20 21  1  0
 21 22  2  0
 22  4  1  0
 16 10  1  0
 22 17  1  0
  1 23  1  0
  5 24  1  0
  7 25  1  0
 11 26  1  0
 11 27  1  0
 12 28  1  0
 12 29  1  0
 13 30  1  0
 13 31  1  0
 14 32  1  6
 15 33  1  0
 15 34  1  0
 16 35  1  0
 16 36  1  0
 18 37  1  0
 19 38  1  0
 20 39  1  0
 21 40  1  0
M  CHG  1   1  -1
M  END
>  <UniqueID>  (89) 
74

>  <SMILES>  (89) 
[NH-]C(=O)n1cc(NC(=O)N2CCC[C@@H](N)C2)c2ccccc21

>  <Energy>  (89) 
82.718917671558

>  <Genealogy>  (89) 
[NH-]C(=O)n1cc(NC(=O)N2CCCC(N)C2)c2ccccc21 (protonated)
[NH-]C(=O)n1cc(NC(=O)N2CCC[C@@H](N)C2)c2ccccc21 (chirality)
[NH-]C(=O)n1cc(NC(=O)N2CCC[C@@H](N)C2)c2ccccc21 (3D coordinates assigned)
[NH-]C(=O)n1cc(NC(=O)N2CCC[C@@H](N)C2)c2ccccc21 (nonaromatic ring conformer: 82.718917671558 kcal/mol)

>  <smiles>  (89) 
NC(=O)n1cc(NC(=O)N2CCCC(N)C2)c2ccccc21

>  <score_type>  (89) 
oracle

>  <origin>  (89) 
adg

>  <m_score__min__energy>  (89) 
-9.5600000000000005

>  <m_primary>  (89) 
energy

$$$$
89:0
     RDKit          3D

 69 72  0  0  0  0  0  0  0  0999 V2000
   57.0550   34.5930   44.9470 C   0  0  0  0  0  0  0  0  0  0  0  0
   58.3090   33.7420   45.2130 C   0  0  0  0  0  0  0  0  0  0  0  0
   59.5610   34.6180   45.0060 C   0  0  0  0  0  0  0  0  0  0  0  0
   58.2450   33.2130   46.6620 C   0  0  0  0  0  0  0  0  0  0  0  0
   58.3000   32.6580   44.2720 O   0  0  0  0  0  0  0  0  0  0  0  0
   57.3820   31.5970   44.2450 C   0  0  0  0  0  0  0  0  0  0  0  0
   56.2730   31.6810   44.8410 O   0  0  0  0  0  0  0  0  0  0  0  0
   57.7240   30.4020   43.5330 N   0  0  0  0  0  0  0  0  0  0  0  0
   56.8170   29.2640   43.4160 C   0  0  0  0  0  0  0  0  0  0  0  0
   55.9470   29.1090   44.6660 C   0  0  0  0  0  0  0  0  0  0  0  0
   56.5280   28.1890   45.5920 O   0  0  0  0  0  0  0  0  0  0  0  0
   57.7790   28.3170   46.2240 C   0  0  0  0  0  0  0  0  0  0  0  0
   58.6260   29.4260   46.0220 C   0  0  0  0  0  0  0  0  0  0  0  0
   59.8850   29.4760   46.6300 C   0  0  0  0  0  0  0  0  0  0  0  0
   60.7700   30.5630   46.3630 N   0  0  0  0  0  0  0  0  0  0  0  0
   61.4300   31.5210   47.6410 S   0  0  0  0  0  0  0  0  0  0  0  0
   61.1200   32.9680   47.3830 O   0  0  0  0  0  0  0  0  0  0  0  0
   62.9220   31.3430   47.6540 O   0  0  0  0  0  0  0  0  0  0  0  0
   60.7400   31.0530   49.1900 C   0  0  0  0  0  0  0  0  0  0  0  0
   61.4010   30.1150   49.9980 C   0  0  0  0  0  0  0  0  0  0  0  0
   60.8500   29.7280   51.2250 C   0  0  0  0  0  0  0  0  0  0  0  0
   61.6990   28.5840   52.2470 Cl  0  0  0  0  0  0  0  0  0  0  0  0
   59.6280   30.2680   51.6430 C   0  0  0  0  0  0  0  0  0  0  0  0
   58.9620   31.1990   50.8370 C   0  0  0  0  0  0  0  0  0  0  0  0
   57.4400   31.8920   51.3660 Cl  0  0  0  0  0  0  0  0  0  0  0  0
   59.5130   31.5850   49.6110 C   0  0  0  0  0  0  0  0  0  0  0  0
   60.3000   28.4310   47.4610 C   0  0  0  0  0  0  0  0  0  0  0  0
   59.4590   27.3410   47.6880 C   0  0  0  0  0  0  0  0  0  0  0  0
   58.2040   27.2740   47.0630 C   0  0  0  0  0  0  0  0  0  0  0  0
   57.3540   26.1390   47.2520 N   0  0  0  0  0  0  0  0  0  0  0  0
   56.4420   25.4070   45.9700 S   0  0  0  0  0  0  0  0  0  0  0  0
   55.0180   25.8870   45.9700 O   0  0  0  0  0  0  0  0  0  0  0  0
   57.0650   25.8010   44.6590 O   0  0  0  0  0  0  0  0  0  0  0  0
   56.4920   23.6440   46.1770 C   0  0  0  0  0  0  0  0  0  0  0  0
   56.5010   23.1300   47.4850 C   0  0  0  0  0  0  0  0  0  0  0  0
   56.4480   21.7540   47.7140 C   0  0  0  0  0  0  0  0  0  0  0  0
   56.3720   20.8650   46.6470 C   0  0  0  0  0  0  0  0  0  0  0  0
   56.3640   21.3470   45.3310 C   0  0  0  0  0  0  0  0  0  0  0  0
   56.2760   20.4530   44.2540 C   0  0  0  0  0  0  0  0  0  0  0  0
   56.2760   20.9190   42.9790 N   0  0  0  0  0  0  0  0  0  0  0  0
   56.3690   22.2460   42.7030 C   0  0  0  0  0  0  0  0  0  0  0  0
   56.4620   23.1750   43.7390 C   0  0  0  0  0  0  0  0  0  0  0  0
   56.4410   22.7420   45.0790 C   0  0  0  0  0  0  0  0  0  0  0  0
   56.6078   34.8965   45.9051 H   0  0  0  0  0  0  0  0  0  0  0  0
   57.3347   35.4886   44.3729 H   0  0  0  0  0  0  0  0  0  0  0  0
   56.3260   34.0023   44.3729 H   0  0  0  0  0  0  0  0  0  0  0  0
   59.9728   34.9061   45.9845 H   0  0  0  0  0  0  0  0  0  0  0  0
   60.3166   34.0505   44.4429 H   0  0  0  0  0  0  0  0  0  0  0  0
   59.2868   35.5223   44.4429 H   0  0  0  0  0  0  0  0  0  0  0  0
   58.3467   34.0537   47.3641 H   0  0  0  0  0  0  0  0  0  0  0  0
   57.2797   32.7121   46.8272 H   0  0  0  0  0  0  0  0  0  0  0  0
   59.0630   32.4963   46.8272 H   0  0  0  0  0  0  0  0  0  0  0  0
   58.6830   30.3160   43.1360 H   0  0  0  0  0  0  0  0  0  0  0  0
   56.1649   29.4150   42.5431 H   0  0  0  0  0  0  0  0  0  0  0  0
   57.4209   28.3519   43.3006 H   0  0  0  0  0  0  0  0  0  0  0  0
   55.8419   30.0896   45.1533 H   0  0  0  0  0  0  0  0  0  0  0  0
   54.9650   28.7195   44.3595 H   0  0  0  0  0  0  0  0  0  0  0  0
   58.2947   30.2572   45.3822 H   0  0  0  0  0  0  0  0  0  0  0  0
   62.3561   29.6822   49.6656 H   0  0  0  0  0  0  0  0  0  0  0  0
   59.1911   29.9609   52.6047 H   0  0  0  0  0  0  0  0  0  0  0  0
   58.9820   32.3084   48.9748 H   0  0  0  0  0  0  0  0  0  0  0  0
   61.2912   28.4682   47.9366 H   0  0  0  0  0  0  0  0  0  0  0  0
   59.7807   26.5312   48.3593 H   0  0  0  0  0  0  0  0  0  0  0  0
   56.5504   23.8210   48.3395 H   0  0  0  0  0  0  0  0  0  0  0  0
   56.4665   21.3704   48.7448 H   0  0  0  0  0  0  0  0  0  0  0  0
   56.3181   19.7827   46.8362 H   0  0  0  0  0  0  0  0  0  0  0  0
   56.2068   19.3715   44.4429 H   0  0  0  0  0  0  0  0  0  0  0  0
   56.3710   22.5892   41.6579 H   0  0  0  0  0  0  0  0  0  0  0  0
   56.5518   24.2470   43.5093 H   0  0  0  0  0  0  0  0  0  0  0  0
  1  2  1  0
  2  3  1  0
  2  4  1  0
  2  5  1  0
  5  6  1  0
  6  7  2  0
  6  8  1  0
  8  9  1  0
  9 10  1  0
 10 11  1  0
 11 12  1  0
 12 13  2  0
 13 14  1  0
 14 15  1  0
 15 16  1  0
 16 17  2  0
 16 18  2  0
 16 19  1  0
 19 20  2  0
 20 21  1  0
 21 22  1  0
 21 23  2  0
 23 24  1  0
 24 25  1  0
 24 26  2  0
 14 27  2  0
 27 28  1  0
 28 29  2  0
 29 30  1  0
 30 31  1  0
 31 32  2  0
 31 33  2  0
 31 34  1  0
 34 35  2  0
 35 36  1  0
 36 37  2  0
 37 38  1  0
 38 39  2  0
 39 40  1  0
 40 41  2  0
 41 42  1  0
 42 43  2  0
 29 12  1  0
 43 34  1  0
 26 19  1  0
 43 38  1  0
  1 44  1  0
  1 45  1  0
  1 46  1  0
  3 47  1  0
  3 48  1  0
  3 49  1  0
  4 50  1  0
  4 51  1  0
  4 52  1  0
  8 53  1  0
  9 54  1  0
  9 55  1  0
 10 56  1  0
 10 57  1  0
 13 58  1  0
 20 59  1  0
 23 60  1  0
 26 61  1  0
 27 62  1  0
 28 63  1  0
 35 64  1  0
 36 65  1  0
 37 66  1  0
 39 67  1  0
 41 68  1  0
 42 69  1  0
M  CHG  2  15  -1  30  -1
M  END
>  <UniqueID>  (90) 
75

>  <SMILES>  (90) 
CC(C)(C)OC(=O)NCCOc1cc([N-]S(=O)(=O)c2cc(Cl)cc(Cl)c2)ccc1[N-]S(=O)(=O)c1cccc2cnccc12

>  <Energy>  (90) 
82.57808312440018

>  <Genealogy>  (90) 
CC(C)(C)OC(=O)NCCOc1cc([N-]S(=O)(=O)c2cc(Cl)cc(Cl)c2)ccc1[N-]S(=O)(=O)c1cccc2cnccc12 (protonated)
CC(C)(C)OC(=O)NCCOc1cc([N-]S(=O)(=O)c2cc(Cl)cc(Cl)c2)ccc1[N-]S(=O)(=O)c1cccc2cnccc12 (3D coordinates assigned)
CC(C)(C)OC(=O)NCCOc1cc([N-]S(=O)(=O)c2cc(Cl)cc(Cl)c2)ccc1[N-]S(=O)(=O)c1cccc2cnccc12 (optimized conformer: 82.57808312440018 kcal/mol)

>  <smiles>  (90) 
CC(C)(C)OC(=O)NCCOc1cc(NS(=O)(=O)c2cc(Cl)cc(Cl)c2)ccc1NS(=O)(=O)c1cccc2cnccc12

>  <score_type>  (90) 
oracle

>  <origin>  (90) 
adg

>  <m_score__min__energy>  (90) 
-13.5

>  <m_primary>  (90) 
energy

$$$$
90:0
     RDKit          3D

 45 47  0  0  1  0  0  0  0  0999 V2000
   60.4430   33.8340   46.0450 C   0  0  0  0  0  0  0  0  0  0  0  0
   59.3670   33.0120   46.6160 N   0  0  0  0  0  0  0  0  0  0  0  0
   59.6100   31.6640   46.2300 C   0  0  0  0  0  0  0  0  0  0  0  0
   59.1980   30.6450   47.2100 C   0  0  0  0  0  0  0  0  0  0  0  0
   58.5160   30.8810   48.2410 O   0  0  0  0  0  0  0  0  0  0  0  0
   59.5970   29.2990   46.9720 N   0  0  0  0  0  0  0  0  0  0  0  0
   58.8170   28.4790   46.3780 C   0  0  0  0  0  0  0  0  0  0  0  0
   59.1010   27.1570   46.1110 C   0  0  0  0  0  0  0  0  0  0  0  0
   58.0170   26.6090   45.4630 C   0  0  0  0  0  0  0  0  0  0  0  0
   57.8960   25.2310   44.9970 C   0  0  0  0  0  0  0  0  0  0  0  0
   57.0610   24.9330   43.9410 C   0  0  0  0  0  0  0  0  0  0  0  0
   56.9610   23.6220   43.5170 C   0  0  0  0  0  0  0  0  0  0  0  0
   57.6720   22.6120   44.1220 C   0  0  0  0  0  0  0  0  0  0  0  0
   58.5060   22.9270   45.1810 C   0  0  0  0  0  0  0  0  0  0  0  0
   58.6130   24.2290   45.6120 C   0  0  0  0  0  0  0  0  0  0  0  0
   57.1010   27.5800   45.3420 N   0  0  0  0  0  0  0  0  0  0  0  0
   57.5870   28.6900   45.8910 N   0  0  0  0  0  0  0  0  0  0  0  0
   58.1320   33.5540   46.0890 C   0  0  0  0  0  0  0  0  0  0  0  0
   57.6710   32.6020   45.0250 C   0  0  0  0  0  0  0  0  0  0  0  0
   58.0630   32.6700   43.7050 C   0  0  0  0  0  0  0  0  0  0  0  0
   57.4210   31.6190   43.0530 C   0  0  0  0  0  0  0  0  0  0  0  0
   56.6700   30.9670   44.0190 C   0  0  0  0  0  0  0  0  0  0  0  0
   55.8260   29.7750   43.7320 C   0  0  0  0  0  0  0  0  0  0  0  0
   55.1530   29.3750   44.8750 O   0  0  0  0  0  0  0  0  0  0  0  0
   56.8550   31.5850   45.1540 O   0  0  0  0  0  0  0  0  0  0  0  0
   61.0317   34.2837   46.8581 H   0  0  0  0  0  0  0  0  0  0  0  0
   61.0966   33.2031   45.4247 H   0  0  0  0  0  0  0  0  0  0  0  0
   60.0061   34.6305   45.4247 H   0  0  0  0  0  0  0  0  0  0  0  0
   59.0647   31.4750   45.2936 H   0  0  0  0  0  0  0  0  0  0  0  0
   60.7013   31.5677   46.1315 H   0  0  0  0  0  0  0  0  0  0  0  0
   60.0318   26.6313   46.3705 H   0  0  0  0  0  0  0  0  0  0  0  0
   56.4836   25.7265   43.4440 H   0  0  0  0  0  0  0  0  0  0  0  0
   56.2963   23.3799   42.6747 H   0  0  0  0  0  0  0  0  0  0  0  0
   57.5797   21.5736   43.7710 H   0  0  0  0  0  0  0  0  0  0  0  0
   59.0843   22.1347   45.6788 H   0  0  0  0  0  0  0  0  0  0  0  0
   59.2768   24.4717   46.4549 H   0  0  0  0  0  0  0  0  0  0  0  0
   56.1720   27.4250   44.8800 H   0  0  0  0  0  0  0  0  0  0  0  0
   57.0760   29.5980   45.9330 H   0  0  0  0  0  0  0  0  0  0  0  0
   57.3779   33.6273   46.8865 H   0  0  0  0  0  0  0  0  0  0  0  0
   58.2821   34.5647   45.6817 H   0  0  0  0  0  0  0  0  0  0  0  0
   58.7459   33.4065   43.2563 H   0  0  0  0  0  0  0  0  0  0  0  0
   57.4951   31.3590   41.9867 H   0  0  0  0  0  0  0  0  0  0  0  0
   55.0946   30.0281   42.9503 H   0  0  0  0  0  0  0  0  0  0  0  0
   56.4726   28.9527   43.3917 H   0  0  0  0  0  0  0  0  0  0  0  0
   55.1830   30.0490   45.6150 H   0  0  0  0  0  0  0  0  0  0  0  0
  1  2  1  0
  2  3  1  0
  3  4  1  0
  4  5  2  0
  4  6  1  0
  6  7  2  0
  7  8  1  0
  8  9  2  0
  9 10  1  0
 10 11  2  0
 11 12  1  0
 12 13  2  0
 13 14  1  0
 14 15  2  0
  9 16  1  0
 16 17  1  0
  2 18  1  0
 18 19  1  0
 19 20  2  0
 20 21  1  0
 21 22  2  0
 22 23  1  0
 23 24  1  0
 22 25  1  0
 17  7  1  0
 25 19  1  0
 15 10  1  0
  1 26  1  0
  1 27  1  0
  1 28  1  0
  3 29  1  0
  3 30  1  0
  8 31  1  0
 11 32  1  0
 12 33  1  0
 13 34  1  0
 14 35  1  0
 15 36  1  0
 16 37  1  0
 17 38  1  0
 18 39  1  0
 18 40  1  0
 20 41  1  0
 21 42  1  0
 23 43  1  0
 23 44  1  0
 24 45  1  0
M  END
>  <smiles>  (91) 
CN(CC(=O)N=c1cc(-c2ccccc2)[nH][nH]1)Cc1ccc(CO)o1

>  <score_type>  (91) 
oracle

>  <origin>  (91) 
adg

>  <m_score__min__energy>  (91) 
-8.5700000000000003

>  <m_primary>  (91) 
energy

$$$$
91:0
     RDKit          3D

 12 12  0  0  0  0  0  0  0  0999 V2000
   54.4170   26.2650   45.9780 O   0  0  0  0  0  0  0  0  0  0  0  0
   55.6750   26.3220   46.0130 C   0  0  0  0  0  0  0  0  0  0  0  0
   56.4000   25.2080   46.4180 O   0  0  0  0  0  0  0  0  0  0  0  0
   56.3750   27.5530   45.6300 C   0  0  0  0  0  0  0  0  0  0  0  0
   57.7490   27.7230   45.6100 C   0  0  0  0  0  0  0  0  0  0  0  0
   57.9700   29.0170   45.1950 C   0  0  0  0  0  0  0  0  0  0  0  0
   56.7190   29.5590   44.9860 C   0  0  0  0  0  0  0  0  0  0  0  0
   56.4770   30.8600   44.5570 O   0  0  0  0  0  0  0  0  0  0  0  0
   55.7370   28.6770   45.2480 N   0  0  0  0  0  0  0  0  0  0  0  0
   58.5110   26.9745   45.8729 H   0  0  0  0  0  0  0  0  0  0  0  0
   58.9414   29.5147   45.0586 H   0  0  0  0  0  0  0  0  0  0  0  0
   56.2600   31.5950   45.2200 H   0  0  0  0  0  0  0  0  0  0  0  0
  1  2  2  0
  2  3  1  0
  2  4  1  0
  4  5  2  0
  5  6  1  0
  6  7  2  0
  7  8  1  0
  7  9  1  0
  9  4  1  0
  5 10  1  0
  6 11  1  0
  8 12  1  0
M  CHG  2   3  -1   9  -1
M  END
>  <UniqueID>  (92) 
76

>  <SMILES>  (92) 
O=C([O-])c1ccc(O)[n-]1

>  <Energy>  (92) 
33.864639797157466

>  <Genealogy>  (92) 
O=C([O-])c1ccc(O)[n-]1 (protonated)
O=C([O-])c1ccc(O)[n-]1 (3D coordinates assigned)
O=C([O-])c1ccc(O)[n-]1 (optimized conformer: 33.864639797157466 kcal/mol)

>  <smiles>  (92) 
O=C(O)c1ccc(O)[nH]1

>  <score_type>  (92) 
oracle

>  <origin>  (92) 
adg

>  <m_score__min__energy>  (92) 
-10.220000000000001

>  <m_primary>  (92) 
energy

$$$$
92:0
     RDKit          3D

 62 65  0  0  1  0  0  0  0  0999 V2000
   56.6260   22.1440   42.6720 C   0  0  0  0  0  0  0  0  0  0  0  0
   56.5790   22.9220   43.7440 C   0  0  0  0  0  0  0  0  0  0  0  0
   57.5500   23.8200   44.4120 C   0  0  0  0  0  0  0  0  0  0  0  0
   56.4200   24.4970   45.0620 N   0  0  0  0  0  0  0  0  0  0  0  0
   56.2470   25.7790   45.6660 C   0  0  0  0  0  0  0  0  0  0  0  0
   55.1560   26.1420   46.1690 O   0  0  0  0  0  0  0  0  0  0  0  0
   57.3590   26.7230   45.7140 C   0  0  0  0  0  0  0  0  0  0  0  0
   58.4090   26.4320   46.5840 C   0  0  0  0  0  0  0  0  0  0  0  0
   59.4400   27.3480   46.6010 C   0  0  0  0  0  0  0  0  0  0  0  0
   59.3970   28.4820   45.7820 C   0  0  0  0  0  0  0  0  0  0  0  0
   60.5080   29.3570   45.8890 N   0  0  0  0  0  0  0  0  0  0  0  0
   60.3570   30.5640   46.3510 C   0  0  0  0  0  0  0  0  0  0  0  0
   59.4500   31.4240   45.8290 N   0  0  0  0  0  0  0  0  0  0  0  0
   59.3870   32.6440   46.3820 C   0  0  0  0  0  0  0  0  0  0  0  0
   58.4470   33.5730   45.8640 N   0  0  0  0  0  0  0  0  0  0  0  0
   57.0680   33.4390   46.3030 C   0  0  0  0  0  0  0  0  0  0  0  0
   58.8230   34.6190   44.9340 C   0  0  0  0  0  0  0  0  0  0  0  0
   60.1820   33.0530   47.4310 C   0  0  0  0  0  0  0  0  0  0  0  0
   60.0440   34.3650   47.9480 N   0  0  0  0  0  0  0  0  0  0  0  0
   61.0920   32.1620   47.9410 C   0  0  0  0  0  0  0  0  0  0  0  0
   61.8690   32.4130   48.8960 N   0  0  0  0  0  0  0  0  0  0  0  0
   63.2630   32.7230   48.6600 C   0  0  0  0  0  0  0  0  0  0  0  0
   63.5980   32.5700   47.1530 C   0  0  0  0  0  0  0  0  0  0  0  0
   63.7090   33.8670   47.8490 C   0  0  0  0  0  0  0  0  0  0  0  0
   61.1500   30.9260   47.3740 N   0  0  0  0  0  0  0  0  0  0  0  0
   58.3520   28.7430   44.9360 C   0  0  0  0  0  0  0  0  0  0  0  0
   58.2060   29.8010   44.1030 O   0  0  0  0  0  0  0  0  0  0  0  0
   57.1740   30.2200   43.2970 C   0  0  0  0  0  0  0  0  0  0  0  0
   55.9100   30.4090   44.1400 C   0  0  0  0  0  0  0  0  0  0  0  0
   57.5230   31.6340   42.7990 C   0  0  0  0  0  0  0  0  0  0  0  0
   57.3420   27.8180   44.9390 N   0  0  0  0  0  0  0  0  0  0  0  0
   55.6400   23.3240   44.8110 C   0  0  0  0  0  0  0  0  0  0  0  0
   55.7419   21.5596   42.3773 H   0  0  0  0  0  0  0  0  0  0  0  0
   57.5491   22.0827   42.0770 H   0  0  0  0  0  0  0  0  0  0  0  0
   58.2361   23.3123   45.1059 H   0  0  0  0  0  0  0  0  0  0  0  0
   58.2953   24.3847   43.8327 H   0  0  0  0  0  0  0  0  0  0  0  0
   58.4147   25.5312   47.2153 H   0  0  0  0  0  0  0  0  0  0  0  0
   60.3030   27.1859   47.2636 H   0  0  0  0  0  0  0  0  0  0  0  0
   58.8520   31.1060   45.0340 H   0  0  0  0  0  0  0  0  0  0  0  0
   57.0319   33.4355   47.4024 H   0  0  0  0  0  0  0  0  0  0  0  0
   56.4773   34.2840   45.9194 H   0  0  0  0  0  0  0  0  0  0  0  0
   56.6511   32.4961   45.9194 H   0  0  0  0  0  0  0  0  0  0  0  0
   59.1433   35.5099   45.4941 H   0  0  0  0  0  0  0  0  0  0  0  0
   59.6508   34.2667   44.3010 H   0  0  0  0  0  0  0  0  0  0  0  0
   57.9604   34.8743   44.3010 H   0  0  0  0  0  0  0  0  0  0  0  0
   59.3640   35.0740   47.6140 H   0  0  0  0  0  0  0  0  0  0  0  0
   60.7000   34.6030   48.7550 H   0  0  0  0  0  0  0  0  0  0  0  0
   63.5878   32.3831   49.6545 H   0  0  0  0  0  0  0  0  0  0  0  0
   64.5029   32.0300   46.8374 H   0  0  0  0  0  0  0  0  0  0  0  0
   63.0726   32.1952   46.2622 H   0  0  0  0  0  0  0  0  0  0  0  0
   64.7040   34.3005   48.0278 H   0  0  0  0  0  0  0  0  0  0  0  0
   63.2921   34.8667   47.6571 H   0  0  0  0  0  0  0  0  0  0  0  0
   61.8490   30.2340   47.7600 H   0  0  0  0  0  0  0  0  0  0  0  0
   57.0233   29.4881   42.4897 H   0  0  0  0  0  0  0  0  0  0  0  0
   56.1720   30.3698   45.2076 H   0  0  0  0  0  0  0  0  0  0  0  0
   55.4577   31.3848   43.9090 H   0  0  0  0  0  0  0  0  0  0  0  0
   55.1921   29.6082   43.9090 H   0  0  0  0  0  0  0  0  0  0  0  0
   57.6865   32.2966   43.6617 H   0  0  0  0  0  0  0  0  0  0  0  0
   58.4379   31.5927   42.1897 H   0  0  0  0  0  0  0  0  0  0  0  0
   56.6940   32.0232   42.1897 H   0  0  0  0  0  0  0  0  0  0  0  0
   55.5978   22.6238   45.6583 H   0  0  0  0  0  0  0  0  0  0  0  0
   54.5636   23.4077   44.6006 H   0  0  0  0  0  0  0  0  0  0  0  0
  1  2  2  0
  2  3  1  0
  3  4  1  0
  4  5  1  0
  5  6  2  0
  5  7  1  0
  7  8  2  0
  8  9  1  0
  9 10  2  0
 10 11  1  0
 11 12  2  0
 12 13  1  0
 13 14  1  0
 14 15  1  0
 15 16  1  0
 15 17  1  0
 14 18  2  0
 18 19  1  0
 18 20  1  0
 20 21  2  0
 21 22  1  0
 22 23  1  0
 23 24  1  0
 20 25  1  0
 10 26  1  0
 26 27  1  0
 27 28  1  0
 28 29  1  0
 28 30  1  0
 26 31  2  0
  4 32  1  0
 32  2  1  0
 31  7  1  0
 25 12  1  0
 24 22  1  0
  1 33  1  0
  1 34  1  0
  3 35  1  0
  3 36  1  0
  8 37  1  0
  9 38  1  0
 13 39  1  0
 16 40  1  0
 16 41  1  0
 16 42  1  0
 17 43  1  0
 17 44  1  0
 17 45  1  0
 19 46  1  0
 19 47  1  0
 22 48  1  0
 23 49  1  0
 23 50  1  0
 24 51  1  0
 24 52  1  0
 25 53  1  0
 28 54  1  0
 29 55  1  0
 29 56  1  0
 29 57  1  0
 30 58  1  0
 30 59  1  0
 30 60  1  0
 32 61  1  0
 32 62  1  0
M  END
>  <smiles>  (93) 
C=C1CN(C(=O)c2ccc(N=c3[nH]c(N(C)C)c(N)c(=NC4CC4)[nH]3)c(OC(C)C)n2)C1

>  <score_type>  (93) 
oracle

>  <origin>  (93) 
adg

>  <m_score__min__energy>  (93) 
-8.3900000000000006

>  <m_primary>  (93) 
energy

$$$$
93:0
     RDKit          3D

 47 50  0  0  0  0  0  0  0  0999 V2000
   58.4400   30.2860   51.1390 H   0  0  0  0  0  0  0  0  0  0  0  0
   58.0010   31.2170   50.9550 N   0  0  0  0  0  0  0  0  0  0  0  0
   58.5070   32.0440   50.1000 C   0  0  0  0  0  0  0  0  0  0  0  0
   58.2030   31.9370   48.7790 N   0  0  0  0  0  0  0  0  0  0  0  0
   58.7250   32.7920   47.8550 C   0  0  0  0  0  0  0  0  0  0  0  0
   58.3560   32.6310   46.4250 C   0  0  0  0  0  0  0  0  0  0  0  0
   57.8490   33.7070   45.6740 C   0  0  0  0  0  0  0  0  0  0  0  0
   57.7082   34.6878   46.1516 H   0  0  0  0  0  0  0  0  0  0  0  0
   57.5230   33.5390   44.3260 C   0  0  0  0  0  0  0  0  0  0  0  0
   57.1212   34.3855   43.7498 H   0  0  0  0  0  0  0  0  0  0  0  0
   57.7050   32.3020   43.7080 C   0  0  0  0  0  0  0  0  0  0  0  0
   57.4463   32.1785   42.6460 H   0  0  0  0  0  0  0  0  0  0  0  0
   58.2160   31.2140   44.4320 C   0  0  0  0  0  0  0  0  0  0  0  0
   58.4320   29.9400   43.7850 N   0  0  0  0  0  0  0  0  0  0  0  0
   57.7400   29.8030   43.0120 H   0  0  0  0  0  0  0  0  0  0  0  0
   59.3720   29.9480   43.3320 H   0  0  0  0  0  0  0  0  0  0  0  0
   58.2780   28.8600   44.7390 C   0  0  0  0  0  0  0  0  0  0  0  0
   57.0040   28.2840   44.9160 C   0  0  0  0  0  0  0  0  0  0  0  0
   56.1546   28.6625   44.3284 H   0  0  0  0  0  0  0  0  0  0  0  0
   56.7990   27.2420   45.8230 C   0  0  0  0  0  0  0  0  0  0  0  0
   55.4750   26.7110   45.9800 N   0  0  0  0  0  0  0  0  0  0  0  0
   55.0500   25.3880   45.6280 C   0  0  0  0  0  0  0  0  0  0  0  0
   53.8200   25.1200   45.6610 O   0  0  0  0  0  0  0  0  0  0  0  0
   56.0040   24.3520   45.1750 C   0  0  0  0  0  0  0  0  0  0  0  0
   56.1230   23.9680   43.8420 C   0  0  0  0  0  0  0  0  0  0  0  0
   55.5335   24.3625   43.0013 H   0  0  0  0  0  0  0  0  0  0  0  0
   57.3240   22.7970   43.7410 S   0  0  0  0  0  0  0  0  0  0  0  0
   57.7160   22.7710   45.3730 C   0  0  0  0  0  0  0  0  0  0  0  0
   58.4820   22.1365   45.8427 H   0  0  0  0  0  0  0  0  0  0  0  0
   56.9060   23.6890   46.0270 C   0  0  0  0  0  0  0  0  0  0  0  0
   56.9639   23.8800   47.1088 H   0  0  0  0  0  0  0  0  0  0  0  0
   57.8730   26.7790   46.5930 C   0  0  0  0  0  0  0  0  0  0  0  0
   57.7110   25.9858   47.3377 H   0  0  0  0  0  0  0  0  0  0  0  0
   59.1470   27.3190   46.4200 C   0  0  0  0  0  0  0  0  0  0  0  0
   59.9865   26.9320   47.0162 H   0  0  0  0  0  0  0  0  0  0  0  0
   59.3720   28.3520   45.4930 C   0  0  0  0  0  0  0  0  0  0  0  0
   60.7780   28.8630   45.3130 C   0  0  0  0  0  0  0  0  0  0  0  0
   61.2366   29.0297   46.2989 H   0  0  0  0  0  0  0  0  0  0  0  0
   61.3687   28.1221   44.7544 H   0  0  0  0  0  0  0  0  0  0  0  0
   60.7551   29.8103   44.7544 H   0  0  0  0  0  0  0  0  0  0  0  0
   58.5430   31.3890   45.7900 C   0  0  0  0  0  0  0  0  0  0  0  0
   58.9505   30.5430   46.3630 H   0  0  0  0  0  0  0  0  0  0  0  0
   59.5860   33.8130   48.2880 C   0  0  0  0  0  0  0  0  0  0  0  0
   60.0160   34.5256   47.5688 H   0  0  0  0  0  0  0  0  0  0  0  0
   59.8860   33.9070   49.6470 C   0  0  0  0  0  0  0  0  0  0  0  0
   60.5614   34.6970   50.0072 H   0  0  0  0  0  0  0  0  0  0  0  0
   59.3450   33.0240   50.5260 N   0  0  0  0  0  0  0  0  0  0  0  0
  1  2  1  0
  2  3  2  0
  3  4  1  0
  4  5  2  0
  5  6  1  0
  6  7  2  0
  7  8  1  0
  7  9  1  0
  9 10  1  0
  9 11  2  0
 11 12  1  0
 11 13  1  0
 13 14  1  0
 14 15  1  0
 14 16  1  0
 14 17  1  0
 17 18  2  0
 18 19  1  0
 18 20  1  0
 20 21  1  0
 21 22  1  0
 22 23  2  0
 22 24  1  0
 24 25  2  0
 25 26  1  0
 25 27  1  0
 27 28  1  0
 28 29  1  0
 28 30  2  0
 30 31  1  0
 20 32  2  0
 32 33  1  0
 32 34  1  0
 34 35  1  0
 34 36  2  0
 36 37  1  0
 37 38  1  0
 37 39  1  0
 37 40  1  0
 13 41  2  0
 41 42  1  0
  5 43  1  0
 43 44  1  0
 43 45  2  0
 45 46  1  0
 45 47  1  0
 47  3  1  0
 41  6  1  0
 36 17  1  0
 30 24  1  0
M  CHG  3  14   1  21  -1  47  -1
M  END
>  <UniqueID>  (94) 
77

>  <SMILES>  (94) 
[H]/N=c1\nc(-c2cccc([NH2+]c3cc([N-]C(=O)c4ccsc4)ccc3C)c2)cc[n-]1

>  <Energy>  (94) 
91.81382986476356

>  <Genealogy>  (94) 
Cc1ccc([N-]C(=O)c2ccsc2)cc1[NH2+]c1cccc(-c2cc[n-]c(=N)n2)c1 (protonated)
[H]/N=c1\nc(-c2cccc([NH2+]c3cc([N-]C(=O)c4ccsc4)ccc3C)c2)cc[n-]1 (cis-trans isomerization)
[H]/N=c1\nc(-c2cccc([NH2+]c3cc([N-]C(=O)c4ccsc4)ccc3C)c2)cc[n-]1 (3D coordinates assigned)
[H]/N=c1\nc(-c2cccc([NH2+]c3cc([N-]C(=O)c4ccsc4)ccc3C)c2)cc[n-]1 (optimized conformer: 91.81382986476356 kcal/mol)

>  <smiles>  (94) 
Cc1ccc(NC(=O)c2ccsc2)cc1Nc1cccc(-c2cc[nH]c(=N)n2)c1

>  <score_type>  (94) 
oracle

>  <origin>  (94) 
adg

>  <m_score__min__energy>  (94) 
-10.710000000000001

>  <m_primary>  (94) 
energy

$$$$
94:0
     RDKit          3D

 20 20  0  0  0  0  0  0  0  0999 V2000
   63.3330   33.8300   46.7120 C   0  0  0  0  0  0  0  0  0  0  0  0
   62.2490   32.9210   47.1010 N   0  0  0  0  0  0  0  0  0  0  0  0
   62.5680   31.5780   47.6000 C   0  0  0  0  0  0  0  0  0  0  0  0
   60.8780   33.3720   46.9830 C   0  0  0  0  0  0  0  0  0  0  0  0
   60.4410   34.5890   47.5430 C   0  0  0  0  0  0  0  0  0  0  0  0
   59.1410   34.9680   47.4020 N   0  0  0  0  0  0  0  0  0  0  0  0
   58.2490   34.1930   46.7300 C   0  0  0  0  0  0  0  0  0  0  0  0
   58.6750   32.9870   46.1710 C   0  0  0  0  0  0  0  0  0  0  0  0
   57.7570   32.1460   45.4540 C   0  0  0  0  0  0  0  0  0  0  0  0
   57.0170   31.4680   44.8750 N   0  0  0  0  0  0  0  0  0  0  0  0
   59.9710   32.6080   46.3100 N   0  0  0  0  0  0  0  0  0  0  0  0
   63.8146   34.2338   47.6148 H   0  0  0  0  0  0  0  0  0  0  0  0
   64.0757   33.2806   46.1148 H   0  0  0  0  0  0  0  0  0  0  0  0
   62.9215   34.6570   46.1148 H   0  0  0  0  0  0  0  0  0  0  0  0
   62.5662   31.5855   48.7000 H   0  0  0  0  0  0  0  0  0  0  0  0
   61.8146   30.8634   47.2370 H   0  0  0  0  0  0  0  0  0  0  0  0
   63.5623   31.2785   47.2370 H   0  0  0  0  0  0  0  0  0  0  0  0
   61.1470   35.2299   48.0915 H   0  0  0  0  0  0  0  0  0  0  0  0
   58.8220   35.8700   47.8210 H   0  0  0  0  0  0  0  0  0  0  0  0
   57.2016   34.5132   46.6277 H   0  0  0  0  0  0  0  0  0  0  0  0
  1  2  1  0
  2  3  1  0
  2  4  1  0
  4  5  2  0
  5  6  1  0
  6  7  2  0
  7  8  1  0
  8  9  1  0
  9 10  3  0
  8 11  2  0
 11  4  1  0
  1 12  1  0
  1 13  1  0
  1 14  1  0
  3 15  1  0
  3 16  1  0
  3 17  1  0
  5 18  1  0
  6 19  1  0
  7 20  1  0
M  CHG  1   6   1
M  END
>  <UniqueID>  (95) 
78

>  <SMILES>  (95) 
CN(C)c1c[nH+]cc(C#N)n1

>  <Energy>  (95) 
17.098482279256345

>  <Genealogy>  (95) 
CN(C)c1c[nH+]cc(C#N)n1 (protonated)
CN(C)c1c[nH+]cc(C#N)n1 (3D coordinates assigned)
CN(C)c1c[nH+]cc(C#N)n1 (optimized conformer: 17.098482279256345 kcal/mol)

>  <smiles>  (95) 
CN(C)c1cncc(C#N)n1

>  <score_type>  (95) 
oracle

>  <origin>  (95) 
adg

>  <m_score__min__energy>  (95) 
-2.48

>  <m_primary>  (95) 
energy

$$$$
95:0
     RDKit          3D

 40 43  0  0  0  0  0  0  0  0999 V2000
   59.9780   33.4430   51.0370 C   0  0  0  0  0  0  0  0  0  0  0  0
   60.8740   33.9370   50.0470 O   0  0  0  0  0  0  0  0  0  0  0  0
   60.5650   34.0540   48.6810 C   0  0  0  0  0  0  0  0  0  0  0  0
   59.2650   34.3570   48.2300 C   0  0  0  0  0  0  0  0  0  0  0  0
   58.9950   34.4450   46.8600 C   0  0  0  0  0  0  0  0  0  0  0  0
   60.0100   34.2180   45.9300 C   0  0  0  0  0  0  0  0  0  0  0  0
   61.3020   33.9120   46.3670 C   0  0  0  0  0  0  0  0  0  0  0  0
   61.5890   33.8440   47.7380 C   0  0  0  0  0  0  0  0  0  0  0  0
   62.9160   33.5250   48.1770 N   0  0  0  0  0  0  0  0  0  0  0  0
   63.4420   32.1730   48.0210 C   0  0  0  0  0  0  0  0  0  0  0  0
   62.3410   31.2150   48.1020 N   0  0  0  0  0  0  0  0  0  0  0  0
   61.4770   30.9890   47.1280 N   0  0  0  0  0  0  0  0  0  0  0  0
   60.4930   30.2280   47.6520 C   0  0  0  0  0  0  0  0  0  0  0  0
   59.2890   29.7660   46.9310 C   0  0  0  0  0  0  0  0  0  0  0  0
   58.8750   28.4130   47.0560 C   0  0  0  0  0  0  0  0  0  0  0  0
   57.7200   27.9490   46.4000 C   0  0  0  0  0  0  0  0  0  0  0  0
   57.0060   28.8590   45.6270 C   0  0  0  0  0  0  0  0  0  0  0  0
   55.8790   28.6430   44.9340 N   0  0  0  0  0  0  0  0  0  0  0  0
   55.6280   29.8610   44.3880 C   0  0  0  0  0  0  0  0  0  0  0  0
   56.5370   30.8190   44.7080 N   0  0  0  0  0  0  0  0  0  0  0  0
   57.3970   30.1530   45.4910 C   0  0  0  0  0  0  0  0  0  0  0  0
   58.5330   30.6520   46.1260 C   0  0  0  0  0  0  0  0  0  0  0  0
   60.7290   29.9820   48.9250 O   0  0  0  0  0  0  0  0  0  0  0  0
   61.8570   30.5980   49.1980 C   0  0  0  0  0  0  0  0  0  0  0  0
   62.5420   30.6310   50.6840 S   0  0  0  0  0  0  0  0  0  0  0  0
   60.3788   33.6640   52.0373 H   0  0  0  0  0  0  0  0  0  0  0  0
   58.9978   33.9282   50.9193 H   0  0  0  0  0  0  0  0  0  0  0  0
   59.8651   32.3552   50.9193 H   0  0  0  0  0  0  0  0  0  0  0  0
   58.4583   34.5252   48.9587 H   0  0  0  0  0  0  0  0  0  0  0  0
   57.9804   34.6937   46.5154 H   0  0  0  0  0  0  0  0  0  0  0  0
   59.7936   34.2798   44.8533 H   0  0  0  0  0  0  0  0  0  0  0  0
   62.0979   33.7235   45.6315 H   0  0  0  0  0  0  0  0  0  0  0  0
   63.3620   34.1320   48.9020 H   0  0  0  0  0  0  0  0  0  0  0  0
   63.9374   32.0818   47.0431 H   0  0  0  0  0  0  0  0  0  0  0  0
   64.1704   31.9662   48.8189 H   0  0  0  0  0  0  0  0  0  0  0  0
   61.5320   31.4030   46.1740 H   0  0  0  0  0  0  0  0  0  0  0  0
   59.4647   27.7194   47.6733 H   0  0  0  0  0  0  0  0  0  0  0  0
   57.3929   26.9031   46.4950 H   0  0  0  0  0  0  0  0  0  0  0  0
   54.7605   30.0559   43.7403 H   0  0  0  0  0  0  0  0  0  0  0  0
   58.8333   31.7033   46.0053 H   0  0  0  0  0  0  0  0  0  0  0  0
  1  2  1  0
  2  3  1  0
  3  4  2  0
  4  5  1  0
  5  6  2  0
  6  7  1  0
  7  8  2  0
  8  9  1  0
  9 10  1  0
 10 11  1  0
 11 12  1  0
 12 13  2  0
 13 14  1  0
 14 15  2  0
 15 16  1  0
 16 17  2  0
 17 18  1  0
 18 19  1  0
 19 20  2  0
 20 21  1  0
 21 22  2  0
 13 23  1  0
 23 24  1  0
 24 25  2  0
  8  3  1  0
 24 11  1  0
 22 14  1  0
 21 17  1  0
  1 26  1  0
  1 27  1  0
  1 28  1  0
  4 29  1  0
  5 30  1  0
  6 31  1  0
  7 32  1  0
  9 33  1  0
 10 34  1  0
 10 35  1  0
 12 36  1  0
 15 37  1  0
 16 38  1  0
 19 39  1  0
 22 40  1  0
M  CHG  2  12   1  18  -1
M  END
>  <UniqueID>  (96) 
79

>  <SMILES>  (96) 
COc1ccccc1NCn1[nH+]c(-c2ccc3[n-]cnc3c2)oc1=S

>  <Energy>  (96) 
118.82044681193052

>  <Genealogy>  (96) 
COc1ccccc1NCn1[nH+]c(-c2ccc3[n-]cnc3c2)oc1=S (protonated)
COc1ccccc1NCn1[nH+]c(-c2ccc3[n-]cnc3c2)oc1=S (3D coordinates assigned)
COc1ccccc1NCn1[nH+]c(-c2ccc3[n-]cnc3c2)oc1=S (optimized conformer: 118.82044681193052 kcal/mol)

>  <smiles>  (96) 
COc1ccccc1NCn1nc(-c2ccc3[nH]cnc3c2)oc1=S

>  <score_type>  (96) 
oracle

>  <origin>  (96) 
adg

>  <m_score__min__energy>  (96) 
-7.2400000000000002

>  <m_primary>  (96) 
energy

$$$$
96:0
     RDKit          3D

 42 44  0  0  0  0  0  0  0  0999 V2000
   56.6640   21.3190   43.7010 C   0  0  0  0  0  0  0  0  0  0  0  0
   55.8930   22.3080   44.3740 O   0  0  0  0  0  0  0  0  0  0  0  0
   56.4030   23.5260   44.8450 C   0  0  0  0  0  0  0  0  0  0  0  0
   57.7820   23.7730   44.9580 C   0  0  0  0  0  0  0  0  0  0  0  0
   58.2410   25.0080   45.4220 C   0  0  0  0  0  0  0  0  0  0  0  0
   57.3360   26.0220   45.7790 C   0  0  0  0  0  0  0  0  0  0  0  0
   57.8760   27.3360   46.1850 C   0  0  0  0  0  0  0  0  0  0  0  0
   59.0670   27.4200   46.5900 O   0  0  0  0  0  0  0  0  0  0  0  0
   57.0560   28.5100   46.1000 N   0  0  0  0  0  0  0  0  0  0  0  0
   57.0310   29.4550   45.0220 C   0  0  0  0  0  0  0  0  0  0  0  0
   56.6910   29.0050   43.7410 C   0  0  0  0  0  0  0  0  0  0  0  0
   56.6820   29.8880   42.6600 C   0  0  0  0  0  0  0  0  0  0  0  0
   57.0180   31.2310   42.8500 C   0  0  0  0  0  0  0  0  0  0  0  0
   57.3650   31.7020   44.1240 C   0  0  0  0  0  0  0  0  0  0  0  0
   57.7500   33.0780   44.2880 N   0  0  0  0  0  0  0  0  0  0  0  0
   58.4260   33.5990   45.4450 C   0  0  0  0  0  0  0  0  0  0  0  0
   58.0940   33.1680   46.7440 C   0  0  0  0  0  0  0  0  0  0  0  0
   58.7490   33.7060   47.8550 C   0  0  0  0  0  0  0  0  0  0  0  0
   59.7280   34.6880   47.6830 C   0  0  0  0  0  0  0  0  0  0  0  0
   60.0470   35.1400   46.4000 C   0  0  0  0  0  0  0  0  0  0  0  0
   59.3930   34.6030   45.2860 C   0  0  0  0  0  0  0  0  0  0  0  0
   57.4000   30.8000   45.2030 C   0  0  0  0  0  0  0  0  0  0  0  0
   55.9460   25.7600   45.7060 C   0  0  0  0  0  0  0  0  0  0  0  0
   54.9860   26.6770   46.1370 O   0  0  0  0  0  0  0  0  0  0  0  0
   55.4990   24.5250   45.2190 C   0  0  0  0  0  0  0  0  0  0  0  0
   57.1642   20.6774   44.4414 H   0  0  0  0  0  0  0  0  0  0  0  0
   56.0035   20.7054   43.0707 H   0  0  0  0  0  0  0  0  0  0  0  0
   57.4202   21.8098   43.0707 H   0  0  0  0  0  0  0  0  0  0  0  0
   58.5030   22.9903   44.6798 H   0  0  0  0  0  0  0  0  0  0  0  0
   59.3226   25.1887   45.5089 H   0  0  0  0  0  0  0  0  0  0  0  0
   56.4291   27.9481   43.5851 H   0  0  0  0  0  0  0  0  0  0  0  0
   56.4101   29.5263   41.6574 H   0  0  0  0  0  0  0  0  0  0  0  0
   57.0102   31.9228   41.9948 H   0  0  0  0  0  0  0  0  0  0  0  0
   57.5240   33.7430   43.5140 H   0  0  0  0  0  0  0  0  0  0  0  0
   57.3152   32.4040   46.8848 H   0  0  0  0  0  0  0  0  0  0  0  0
   58.4936   33.3560   48.8661 H   0  0  0  0  0  0  0  0  0  0  0  0
   60.2478   35.1054   48.5580 H   0  0  0  0  0  0  0  0  0  0  0  0
   60.8126   35.9183   46.2658 H   0  0  0  0  0  0  0  0  0  0  0  0
   59.6386   34.9704   44.2787 H   0  0  0  0  0  0  0  0  0  0  0  0
   57.7185   31.1495   46.1962 H   0  0  0  0  0  0  0  0  0  0  0  0
   55.1960   27.4560   46.7450 H   0  0  0  0  0  0  0  0  0  0  0  0
   54.4187   24.3380   45.1293 H   0  0  0  0  0  0  0  0  0  0  0  0
  1  2  1  0
  2  3  1  0
  3  4  2  0
  4  5  1  0
  5  6  2  0
  6  7  1  0
  7  8  2  0
  7  9  1  0
  9 10  1  0
 10 11  2  0
 11 12  1  0
 12 13  2  0
 13 14  1  0
 14 15  1  0
 15 16  1  0
 16 17  2  0
 17 18  1  0
 18 19  2  0
 19 20  1  0
 20 21  2  0
 14 22  2  0
  6 23  1  0
 23 24  1  0
 23 25  2  0
 25  3  1  0
 22 10  1  0
 21 16  1  0
  1 26  1  0
  1 27  1  0
  1 28  1  0
  4 29  1  0
  5 30  1  0
 11 31  1  0
 12 32  1  0
 13 33  1  0
 15 34  1  0
 17 35  1  0
 18 36  1  0
 19 37  1  0
 20 38  1  0
 21 39  1  0
 22 40  1  0
 24 41  1  0
 25 42  1  0
M  CHG  1   9  -1
M  END
>  <UniqueID>  (97) 
80

>  <SMILES>  (97) 
COc1ccc(C(=O)[N-]c2cccc(Nc3ccccc3)c2)c(O)c1

>  <Energy>  (97) 
58.44245830163504

>  <Genealogy>  (97) 
COc1ccc(C(=O)[N-]c2cccc(Nc3ccccc3)c2)c(O)c1 (protonated)
COc1ccc(C(=O)[N-]c2cccc(Nc3ccccc3)c2)c(O)c1 (3D coordinates assigned)
COc1ccc(C(=O)[N-]c2cccc(Nc3ccccc3)c2)c(O)c1 (optimized conformer: 58.44245830163504 kcal/mol)

>  <smiles>  (97) 
COc1ccc(C(=O)Nc2cccc(Nc3ccccc3)c2)c(O)c1

>  <score_type>  (97) 
oracle

>  <origin>  (97) 
adg

>  <m_score__min__energy>  (97) 
-10.69

>  <m_primary>  (97) 
energy

$$$$
97:0
     RDKit          3D

 46 49  0  0  0  0  0  0  0  0999 V2000
   57.7610   26.8430   46.7690 C   0  0  0  0  0  0  0  0  0  0  0  0
   58.6820   28.0250   46.8990 C   0  0  0  0  0  0  0  0  0  0  0  0
   59.4850   28.1390   48.0430 C   0  0  0  0  0  0  0  0  0  0  0  0
   60.3490   29.2240   48.2000 C   0  0  0  0  0  0  0  0  0  0  0  0
   60.4460   30.2090   47.2040 C   0  0  0  0  0  0  0  0  0  0  0  0
   61.3280   31.3870   47.3790 C   0  0  0  0  0  0  0  0  0  0  0  0
   61.3680   32.2720   46.4800 O   0  0  0  0  0  0  0  0  0  0  0  0
   62.1380   31.5380   48.5550 N   0  0  0  0  0  0  0  0  0  0  0  0
   62.8630   32.7760   48.8220 C   0  0  0  0  0  0  0  0  0  0  0  0
   63.8140   33.1840   47.7110 C   0  0  0  0  0  0  0  0  0  0  0  0
   64.3590   32.5670   48.9900 C   0  0  0  0  0  0  0  0  0  0  0  0
   59.6370   30.0990   46.0590 C   0  0  0  0  0  0  0  0  0  0  0  0
   58.7250   29.0460   45.9210 C   0  0  0  0  0  0  0  0  0  0  0  0
   57.8080   29.0730   44.8180 N   0  0  0  0  0  0  0  0  0  0  0  0
   56.5250   29.7170   44.8560 C   0  0  0  0  0  0  0  0  0  0  0  0
   55.5230   29.0640   45.2460 O   0  0  0  0  0  0  0  0  0  0  0  0
   56.3630   31.0920   44.4790 N   0  0  0  0  0  0  0  0  0  0  0  0
   57.1780   32.1510   44.9890 C   0  0  0  0  0  0  0  0  0  0  0  0
   57.7370   33.1100   44.1150 C   0  0  0  0  0  0  0  0  0  0  0  0
   58.6270   34.0790   44.5970 C   0  0  0  0  0  0  0  0  0  0  0  0
   58.9440   34.0660   45.9510 C   0  0  0  0  0  0  0  0  0  0  0  0
   60.0260   35.0550   46.7710 S   0  0  0  0  0  0  0  0  0  0  0  0
   59.7440   34.2600   48.2350 C   0  0  0  0  0  0  0  0  0  0  0  0
   60.3190   34.5630   49.3140 O   0  0  0  0  0  0  0  0  0  0  0  0
   58.8380   33.2550   48.1190 N   0  0  0  0  0  0  0  0  0  0  0  0
   58.4320   32.3710   49.2160 C   0  0  0  0  0  0  0  0  0  0  0  0
   58.3900   33.1460   46.8330 C   0  0  0  0  0  0  0  0  0  0  0  0
   57.4780   32.1890   46.3630 C   0  0  0  0  0  0  0  0  0  0  0  0
   57.4814   26.4841   47.7705 H   0  0  0  0  0  0  0  0  0  0  0  0
   56.8556   27.1422   46.2207 H   0  0  0  0  0  0  0  0  0  0  0  0
   58.2725   26.0382   46.2207 H   0  0  0  0  0  0  0  0  0  0  0  0
   59.4335   27.3661   48.8240 H   0  0  0  0  0  0  0  0  0  0  0  0
   60.9589   29.3081   49.1115 H   0  0  0  0  0  0  0  0  0  0  0  0
   62.3220   30.7150   49.1700 H   0  0  0  0  0  0  0  0  0  0  0  0
   62.0724   33.2850   49.3928 H   0  0  0  0  0  0  0  0  0  0  0  0
   63.8388   32.6132   46.7710 H   0  0  0  0  0  0  0  0  0  0  0  0
   64.0050   34.1122   47.1524 H   0  0  0  0  0  0  0  0  0  0  0  0
   64.7776   31.5499   48.9754 H   0  0  0  0  0  0  0  0  0  0  0  0
   65.1070   32.8636   49.7400 H   0  0  0  0  0  0  0  0  0  0  0  0
   59.7220   30.8509   45.2606 H   0  0  0  0  0  0  0  0  0  0  0  0
   57.4714   33.0959   43.0476 H   0  0  0  0  0  0  0  0  0  0  0  0
   59.0634   34.8301   43.9222 H   0  0  0  0  0  0  0  0  0  0  0  0
   58.6543   32.8551   50.1784 H   0  0  0  0  0  0  0  0  0  0  0  0
   57.3524   32.1722   49.1463 H   0  0  0  0  0  0  0  0  0  0  0  0
   58.9847   31.4225   49.1463 H   0  0  0  0  0  0  0  0  0  0  0  0
   57.0050   31.4795   47.0579 H   0  0  0  0  0  0  0  0  0  0  0  0
  1  2  1  0
  2  3  2  0
  3  4  1  0
  4  5  2  0
  5  6  1  0
  6  7  2  0
  6  8  1  0
  8  9  1  0
  9 10  1  0
 10 11  1  0
  5 12  1  0
 12 13  2  0
 13 14  1  0
 14 15  1  0
 15 16  2  0
 15 17  1  0
 17 18  1  0
 18 19  2  0
 19 20  1  0
 20 21  2  0
 21 22  1  0
 22 23  1  0
 23 24  2  0
 23 25  1  0
 25 26  1  0
 25 27  1  0
 27 28  2  0
 13  2  1  0
 28 18  1  0
 11  9  1  0
 27 21  1  0
  1 29  1  0
  1 30  1  0
  1 31  1  0
  3 32  1  0
  4 33  1  0
  8 34  1  0
  9 35  1  0
 10 36  1  0
 10 37  1  0
 11 38  1  0
 11 39  1  0
 12 40  1  0
 19 41  1  0
 20 42  1  0
 26 43  1  0
 26 44  1  0
 26 45  1  0
 28 46  1  0
M  CHG  2  14  -1  17  -1
M  END
>  <UniqueID>  (98) 
81

>  <SMILES>  (98) 
Cc1ccc(C(=O)NC2CC2)cc1[N-]C(=O)[N-]c1ccc2sc(=O)n(C)c2c1

>  <Energy>  (98) 
358.48976005482456

>  <Genealogy>  (98) 
Cc1ccc(C(=O)NC2CC2)cc1[N-]C(=O)[N-]c1ccc2sc(=O)n(C)c2c1 (protonated)
Cc1ccc(C(=O)NC2CC2)cc1[N-]C(=O)[N-]c1ccc2sc(=O)n(C)c2c1 (3D coordinates assigned)
Cc1ccc(C(=O)NC2CC2)cc1[N-]C(=O)[N-]c1ccc2sc(=O)n(C)c2c1 (nonaromatic ring conformer: 358.48976005482456 kcal/mol)

>  <smiles>  (98) 
Cc1ccc(C(=O)NC2CC2)cc1NC(=O)Nc1ccc2sc(=O)n(C)c2c1

>  <score_type>  (98) 
oracle

>  <origin>  (98) 
adg

>  <m_score__min__energy>  (98) 
-11.35

>  <m_primary>  (98) 
energy

$$$$
98:0
     RDKit          3D

 65 68  0  0  0  0  0  0  0  0999 V2000
   56.7450   22.1720   45.4810 C   0  0  0  0  0  0  0  0  0  0  0  0
   56.8630   23.6980   45.2800 C   0  0  0  0  0  0  0  0  0  0  0  0
   58.3130   24.1430   45.5940 C   0  0  0  0  0  0  0  0  0  0  0  0
   56.5400   23.9920   43.7750 C   0  0  0  0  0  0  0  0  0  0  0  0
   55.5300   23.0620   43.1560 C   0  0  0  0  0  0  0  0  0  0  0  0
   54.3050   23.3590   43.1320 O   0  0  0  0  0  0  0  0  0  0  0  0
   55.9470   21.8480   42.6230 O   0  0  0  0  0  0  0  0  0  0  0  0
   55.8630   24.3880   46.2200 C   0  0  0  0  0  0  0  0  0  0  0  0
   55.2590   23.7020   47.0910 O   0  0  0  0  0  0  0  0  0  0  0  0
   55.6430   25.8160   46.1940 N   0  0  0  0  0  0  0  0  0  0  0  0
   54.4200   26.3270   45.9210 O   0  0  0  0  0  0  0  0  0  0  0  0
   56.7480   26.7570   46.3870 C   0  0  0  0  0  0  0  0  0  0  0  0
   57.3590   27.1890   45.0480 C   0  0  0  0  0  0  0  0  0  0  0  0
   57.5190   28.6470   44.9940 N   0  0  0  0  0  0  0  0  0  0  0  0
   56.8030   29.4320   44.1500 C   0  0  0  0  0  0  0  0  0  0  0  0
   57.0200   30.7720   44.4120 C   0  0  0  0  0  0  0  0  0  0  0  0
   57.9020   30.7960   45.4650 C   0  0  0  0  0  0  0  0  0  0  0  0
   58.4400   31.8930   46.1280 C   0  0  0  0  0  0  0  0  0  0  0  0
   59.3390   31.6610   47.1830 C   0  0  0  0  0  0  0  0  0  0  0  0
   59.9680   32.7620   47.8680 N   0  0  0  0  0  0  0  0  0  0  0  0
   59.1680   33.6670   48.7100 C   0  0  0  0  0  0  0  0  0  0  0  0
   58.9630   33.0860   50.0870 C   0  0  0  0  0  0  0  0  0  0  0  0
   58.1420   31.9600   50.2710 C   0  0  0  0  0  0  0  0  0  0  0  0
   57.9270   31.4470   51.5540 C   0  0  0  0  0  0  0  0  0  0  0  0
   58.5340   32.0470   52.6600 C   0  0  0  0  0  0  0  0  0  0  0  0
   59.3690   33.1520   52.4850 C   0  0  0  0  0  0  0  0  0  0  0  0
   59.5870   33.6690   51.2030 C   0  0  0  0  0  0  0  0  0  0  0  0
   61.3820   32.9750   47.6870 C   0  0  0  0  0  0  0  0  0  0  0  0
   61.8440   33.7050   46.5790 C   0  0  0  0  0  0  0  0  0  0  0  0
   63.2130   33.9080   46.3860 C   0  0  0  0  0  0  0  0  0  0  0  0
   64.1340   33.3760   47.2930 C   0  0  0  0  0  0  0  0  0  0  0  0
   63.6850   32.6420   48.3940 C   0  0  0  0  0  0  0  0  0  0  0  0
   62.3160   32.4400   48.5920 C   0  0  0  0  0  0  0  0  0  0  0  0
   59.6760   30.3330   47.5310 C   0  0  0  0  0  0  0  0  0  0  0  0
   59.1160   29.2330   46.8550 C   0  0  0  0  0  0  0  0  0  0  0  0
   59.6770   27.6390   47.3280 Cl  0  0  0  0  0  0  0  0  0  0  0  0
   58.2040   29.4960   45.8070 C   0  0  0  0  0  0  0  0  0  0  0  0
   56.7274   21.9442   46.5570 H   0  0  0  0  0  0  0  0  0  0  0  0
   55.8163   21.8115   45.0146 H   0  0  0  0  0  0  0  0  0  0  0  0
   57.6072   21.6730   45.0146 H   0  0  0  0  0  0  0  0  0  0  0  0
   58.4553   24.1867   46.6839 H   0  0  0  0  0  0  0  0  0  0  0  0
   59.0203   23.4206   45.1606 H   0  0  0  0  0  0  0  0  0  0  0  0
   58.4932   25.1378   45.1606 H   0  0  0  0  0  0  0  0  0  0  0  0
   56.1510   25.0183   43.7020 H   0  0  0  0  0  0  0  0  0  0  0  0
   57.4788   23.8452   43.2208 H   0  0  0  0  0  0  0  0  0  0  0  0
   56.3717   27.6474   46.9120 H   0  0  0  0  0  0  0  0  0  0  0  0
   57.5293   26.2555   46.9770 H   0  0  0  0  0  0  0  0  0  0  0  0
   58.3440   26.7136   44.9310 H   0  0  0  0  0  0  0  0  0  0  0  0
   56.6848   26.8781   44.2363 H   0  0  0  0  0  0  0  0  0  0  0  0
   56.1373   29.0521   43.3610 H   0  0  0  0  0  0  0  0  0  0  0  0
   56.5805   31.6343   43.8892 H   0  0  0  0  0  0  0  0  0  0  0  0
   58.1687   32.9177   45.8340 H   0  0  0  0  0  0  0  0  0  0  0  0
   59.6913   34.6303   48.8005 H   0  0  0  0  0  0  0  0  0  0  0  0
   58.1839   33.8052   48.2384 H   0  0  0  0  0  0  0  0  0  0  0  0
   57.6668   31.4805   49.4025 H   0  0  0  0  0  0  0  0  0  0  0  0
   57.2786   30.5693   51.6927 H   0  0  0  0  0  0  0  0  0  0  0  0
   58.3539   31.6485   53.6693 H   0  0  0  0  0  0  0  0  0  0  0  0
   59.8558   33.6165   53.3552 H   0  0  0  0  0  0  0  0  0  0  0  0
   60.2502   34.5362   51.0682 H   0  0  0  0  0  0  0  0  0  0  0  0
   61.1233   34.1195   45.8587 H   0  0  0  0  0  0  0  0  0  0  0  0
   63.5661   34.4868   45.5198 H   0  0  0  0  0  0  0  0  0  0  0  0
   65.2116   33.5351   47.1401 H   0  0  0  0  0  0  0  0  0  0  0  0
   64.4104   32.2222   49.1065 H   0  0  0  0  0  0  0  0  0  0  0  0
   61.9678   31.8601   49.4594 H   0  0  0  0  0  0  0  0  0  0  0  0
   60.3913   30.1556   48.3477 H   0  0  0  0  0  0  0  0  0  0  0  0
  1  2  1  0
  2  3  1  0
  2  4  1  0
  4  5  1  0
  5  6  2  0
  5  7  1  0
  2  8  1  0
  8  9  2  0
  8 10  1  0
 10 11  1  0
 10 12  1  0
 12 13  1  0
 13 14  1  0
 14 15  1  0
 15 16  2  0
 16 17  1  0
 17 18  2  0
 18 19  1  0
 19 20  1  0
 20 21  1  0
 21 22  1  0
 22 23  2  0
 23 24  1  0
 24 25  2  0
 25 26  1  0
 26 27  2  0
 20 28  1  0
 28 29  2  0
 29 30  1  0
 30 31  2  0
 31 32  1  0
 32 33  2  0
 19 34  2  0
 34 35  1  0
 35 36  1  0
 35 37  2  0
 37 14  1  0
 37 17  1  0
 27 22  1  0
 33 28  1  0
  1 38  1  0
  1 39  1  0
  1 40  1  0
  3 41  1  0
  3 42  1  0
  3 43  1  0
  4 44  1  0
  4 45  1  0
 12 46  1  0
 12 47  1  0
 13 48  1  0
 13 49  1  0
 15 50  1  0
 16 51  1  0
 18 52  1  0
 21 53  1  0
 21 54  1  0
 23 55  1  0
 24 56  1  0
 25 57  1  0
 26 58  1  0
 27 59  1  0
 29 60  1  0
 30 61  1  0
 31 62  1  0
 32 63  1  0
 33 64  1  0
 34 65  1  0
M  CHG  2   7  -1  11  -1
M  END
>  <UniqueID>  (99) 
82

>  <SMILES>  (99) 
CC(C)(CC(=O)[O-])C(=O)N([O-])CCn1ccc2cc(N(Cc3ccccc3)c3ccccc3)cc(Cl)c21

>  <Energy>  (99) 
112.9469181174248

>  <Genealogy>  (99) 
CC(C)(CC(=O)[O-])C(=O)N([O-])CCn1ccc2cc(N(Cc3ccccc3)c3ccccc3)cc(Cl)c21 (protonated)
CC(C)(CC(=O)[O-])C(=O)N([O-])CCn1ccc2cc(N(Cc3ccccc3)c3ccccc3)cc(Cl)c21 (3D coordinates assigned)
CC(C)(CC(=O)[O-])C(=O)N([O-])CCn1ccc2cc(N(Cc3ccccc3)c3ccccc3)cc(Cl)c21 (optimized conformer: 112.9469181174248 kcal/mol)

>  <smiles>  (99) 
CC(C)(CC(=O)O)C(=O)N(O)CCn1ccc2cc(N(Cc3ccccc3)c3ccccc3)cc(Cl)c21

>  <score_type>  (99) 
oracle

>  <origin>  (99) 
adg

>  <m_score__min__energy>  (99) 
-16.609999999999999

>  <m_primary>  (99) 
energy

$$$$
