0:0
     RDKit          3D

 41 43  0  0  0  0  0  0  0  0999 V2000
   59.4320   26.1300   47.6060 C   0  0  0  0  0  0  0  0  0  0  0  0
   58.4770   26.6500   46.7990 C   0  0  0  0  0  0  0  0  0  0  0  0
   58.7920   27.7800   46.0030 C   0  0  0  0  0  0  0  0  0  0  0  0
   59.9600   28.2600   46.0210 O   0  0  0  0  0  0  0  0  0  0  0  0
   57.7840   28.3590   45.2020 C   0  0  0  0  0  0  0  0  0  0  0  0
   57.9720   29.4060   44.3740 C   0  0  0  0  0  0  0  0  0  0  0  0
   57.9450   30.8250   44.7740 C   0  0  0  0  0  0  0  0  0  0  0  0
   57.7630   31.8190   43.8030 C   0  0  0  0  0  0  0  0  0  0  0  0
   57.7490   33.1670   44.1740 C   0  0  0  0  0  0  0  0  0  0  0  0
   57.9280   33.5270   45.5120 C   0  0  0  0  0  0  0  0  0  0  0  0
   58.1190   32.5420   46.4830 C   0  0  0  0  0  0  0  0  0  0  0  0
   58.1320   31.1880   46.1200 C   0  0  0  0  0  0  0  0  0  0  0  0
   58.3270   30.2040   47.0880 O   0  0  0  0  0  0  0  0  0  0  0  0
   56.5370   27.8320   45.2550 N   0  0  0  0  0  0  0  0  0  0  0  0
   56.2320   26.7500   46.0070 C   0  0  0  0  0  0  0  0  0  0  0  0
   55.0400   26.3350   46.0040 O   0  0  0  0  0  0  0  0  0  0  0  0
   57.1990   26.1160   46.7470 N   0  0  0  0  0  0  0  0  0  0  0  0
   56.8400   24.8840   47.4870 C   0  0  0  0  0  0  0  0  0  0  0  0
   57.7590   23.8090   47.1280 N   0  0  0  0  0  0  0  0  0  0  0  0
   58.3190   23.6580   45.8170 C   0  0  0  0  0  0  0  0  0  0  0  0
   59.5270   23.9530   45.6110 O   0  0  0  0  0  0  0  0  0  0  0  0
   57.4880   23.1370   44.7120 C   0  0  0  0  0  0  0  0  0  0  0  0
   56.4210   23.8950   44.1950 C   0  0  0  0  0  0  0  0  0  0  0  0
   55.6600   23.3900   43.1390 C   0  0  0  0  0  0  0  0  0  0  0  0
   55.9510   22.1720   42.6160 N   0  0  0  0  0  0  0  0  0  0  0  0
   56.9720   21.4120   43.0970 C   0  0  0  0  0  0  0  0  0  0  0  0
   57.7610   21.8790   44.1540 C   0  0  0  0  0  0  0  0  0  0  0  0
   59.2064   25.2534   48.2310 H   0  0  0  0  0  0  0  0  0  0  0  0
   60.4334   26.5842   47.6365 H   0  0  0  0  0  0  0  0  0  0  0  0
   58.1610   29.1837   43.3134 H   0  0  0  0  0  0  0  0  0  0  0  0
   57.6310   31.5383   42.7476 H   0  0  0  0  0  0  0  0  0  0  0  0
   57.5969   33.9450   43.4114 H   0  0  0  0  0  0  0  0  0  0  0  0
   57.9184   34.5883   45.8010 H   0  0  0  0  0  0  0  0  0  0  0  0
   58.2596   32.8292   47.5355 H   0  0  0  0  0  0  0  0  0  0  0  0
   59.2280   29.7610   47.2210 H   0  0  0  0  0  0  0  0  0  0  0  0
   56.9052   25.0749   48.5683 H   0  0  0  0  0  0  0  0  0  0  0  0
   55.8134   24.5881   47.2253 H   0  0  0  0  0  0  0  0  0  0  0  0
   56.1874   24.8818   44.6213 H   0  0  0  0  0  0  0  0  0  0  0  0
   54.8252   23.9789   42.7312 H   0  0  0  0  0  0  0  0  0  0  0  0
   57.1779   20.4268   42.6532 H   0  0  0  0  0  0  0  0  0  0  0  0
   58.5871   21.2659   44.5436 H   0  0  0  0  0  0  0  0  0  0  0  0
  1  2  2  0
  2  3  1  0
  3  4  2  0
  3  5  1  0
  5  6  2  3
  6  7  1  0
  7  8  2  0
  8  9  1  0
  9 10  2  0
 10 11  1  0
 11 12  2  0
 12 13  1  0
  5 14  1  0
 14 15  1  0
 15 16  2  0
 15 17  1  0
 17 18  1  0
 18 19  1  0
 19 20  1  0
 20 21  2  0
 20 22  1  0
 22 23  2  0
 23 24  1  0
 24 25  2  0
 25 26  1  0
 26 27  2  0
 17  2  1  0
 27 22  1  0
 12  7  1  0
  1 28  1  0
  1 29  1  0
  6 30  1  0
  8 31  1  0
  9 32  1  0
 10 33  1  0
 11 34  1  0
 13 35  1  0
 18 36  1  0
 18 37  1  0
 23 38  1  0
 24 39  1  0
 26 40  1  0
 27 41  1  0
M  CHG  2  14  -1  19  -1
M  END
>  <UniqueID>  (1) 
1

>  <SMILES>  (1) 
C=c1c(=O)c(=Cc2ccccc2O)[n-]c(=O)n1C[N-]C(=O)c1ccncc1

>  <Energy>  (1) 
68.96729558088721

>  <Genealogy>  (1) 
C=c1c(=O)c(=Cc2ccccc2O)[n-]c(=O)n1C[N-]C(=O)c1ccncc1 (protonated)
C=c1c(=O)c(=Cc2ccccc2O)[n-]c(=O)n1C[N-]C(=O)c1ccncc1 (3D coordinates assigned)
C=c1c(=O)c(=Cc2ccccc2O)[n-]c(=O)n1C[N-]C(=O)c1ccncc1 (optimized conformer: 68.96729558088721 kcal/mol)

>  <smiles>  (1) 
C=c1c(=O)c(=Cc2ccccc2O)[nH]c(=O)n1CNC(=O)c1ccncc1

>  <score_type>  (1) 
oracle

>  <origin>  (1) 
adg

>  <m_score__min__energy>  (1) 
-12.26

>  <m_primary>  (1) 
energy

$$$$
1:0
     RDKit          3D

 48 50  0  0  0  0  0  0  0  0999 V2000
   62.5435   33.9681   45.2625 H   0  0  0  0  0  0  0  0  0  0  0  0
   62.5270   33.8410   46.3550 C   0  0  0  0  0  0  0  0  0  0  0  0
   61.4410   34.1940   47.1510 C   0  0  0  0  0  0  0  0  0  0  0  0
   60.1770   34.7750   46.6780 C   0  0  0  0  0  0  0  0  0  0  0  0
   60.1930   35.8360   45.9970 O   0  0  0  0  0  0  0  0  0  0  0  0
   58.9350   34.1580   47.0400 N   0  0  0  0  0  0  0  0  0  0  0  0
   58.5480   32.8020   46.7750 C   0  0  0  0  0  0  0  0  0  0  0  0
   58.8760   31.8150   47.7100 C   0  0  0  0  0  0  0  0  0  0  0  0
   59.4074   32.0923   48.6323 H   0  0  0  0  0  0  0  0  0  0  0  0
   58.5340   30.4790   47.4820 C   0  0  0  0  0  0  0  0  0  0  0  0
   58.7986   29.7128   48.2256 H   0  0  0  0  0  0  0  0  0  0  0  0
   57.8560   30.1090   46.3120 C   0  0  0  0  0  0  0  0  0  0  0  0
   57.5310   28.7250   46.0940 N   0  0  0  0  0  0  0  0  0  0  0  0
   56.5720   28.3960   46.3510 H   0  0  0  0  0  0  0  0  0  0  0  0
   58.3930   27.7850   45.4370 C   0  0  0  0  0  0  0  0  0  0  0  0
   59.4240   28.1830   44.8290 O   0  0  0  0  0  0  0  0  0  0  0  0
   58.0380   26.3940   45.4450 N   0  0  0  0  0  0  0  0  0  0  0  0
   56.8490   25.9080   45.6480 C   0  0  0  0  0  0  0  0  0  0  0  0
   55.7340   26.6450   45.8200 N   0  0  0  0  0  0  0  0  0  0  0  0
   54.7600   25.7980   45.9840 O   0  0  0  0  0  0  0  0  0  0  0  0
   55.1870   24.5530   45.9300 C   0  0  0  0  0  0  0  0  0  0  0  0
   54.2760   23.3470   46.0660 C   0  0  0  0  0  0  0  0  0  0  0  0
   52.8930   23.7090   45.4960 C   0  0  0  0  0  0  0  0  0  0  0  0
   52.1919   23.8925   46.3235 H   0  0  0  0  0  0  0  0  0  0  0  0
   52.9767   24.6155   44.8785 H   0  0  0  0  0  0  0  0  0  0  0  0
   52.5219   22.8777   44.8785 H   0  0  0  0  0  0  0  0  0  0  0  0
   54.1400   22.9900   47.5570 C   0  0  0  0  0  0  0  0  0  0  0  0
   54.4653   23.8438   48.1696 H   0  0  0  0  0  0  0  0  0  0  0  0
   53.0895   22.7553   47.7835 H   0  0  0  0  0  0  0  0  0  0  0  0
   54.7681   22.1158   47.7835 H   0  0  0  0  0  0  0  0  0  0  0  0
   54.8330   22.1240   45.3070 C   0  0  0  0  0  0  0  0  0  0  0  0
   55.1767   21.3693   46.0297 H   0  0  0  0  0  0  0  0  0  0  0  0
   54.0423   21.6933   44.6752 H   0  0  0  0  0  0  0  0  0  0  0  0
   55.6770   22.4378   44.6752 H   0  0  0  0  0  0  0  0  0  0  0  0
   56.5550   24.5670   45.7060 C   0  0  0  0  0  0  0  0  0  0  0  0
   57.2391   23.7121   45.6003 H   0  0  0  0  0  0  0  0  0  0  0  0
   57.5710   31.0920   45.3480 C   0  0  0  0  0  0  0  0  0  0  0  0
   57.0761   30.8083   44.4075 H   0  0  0  0  0  0  0  0  0  0  0  0
   57.9130   32.4280   45.5780 C   0  0  0  0  0  0  0  0  0  0  0  0
   57.6840   33.1901   44.8186 H   0  0  0  0  0  0  0  0  0  0  0  0
   61.8110   33.8500   48.7570 S   0  0  0  0  0  0  0  0  0  0  0  0
   63.3440   33.2300   48.4490 C   0  0  0  0  0  0  0  0  0  0  0  0
   64.3150   32.7810   49.4890 C   0  0  0  0  0  0  0  0  0  0  0  0
   63.8975   32.9741   50.4882 H   0  0  0  0  0  0  0  0  0  0  0  0
   64.5047   31.7037   49.3728 H   0  0  0  0  0  0  0  0  0  0  0  0
   65.2587   33.3342   49.3728 H   0  0  0  0  0  0  0  0  0  0  0  0
   63.5960   33.3080   47.0850 C   0  0  0  0  0  0  0  0  0  0  0  0
   64.5409   32.9834   46.6247 H   0  0  0  0  0  0  0  0  0  0  0  0
  1  2  1  0
  2  3  2  0
  3  4  1  0
  4  5  2  0
  4  6  1  0
  6  7  1  0
  7  8  2  0
  8  9  1  0
  8 10  1  0
 10 11  1  0
 10 12  2  0
 12 13  1  0
 13 14  1  0
 13 15  1  0
 15 16  2  0
 15 17  1  0
 17 18  2  0
 18 19  1  0
 19 20  1  0
 20 21  1  0
 21 22  1  0
 22 23  1  0
 23 24  1  0
 23 25  1  0
 23 26  1  0
 22 27  1  0
 27 28  1  0
 27 29  1  0
 27 30  1  0
 22 31  1  0
 31 32  1  0
 31 33  1  0
 31 34  1  0
 21 35  2  0
 35 36  1  0
 12 37  1  0
 37 38  1  0
 37 39  2  0
 39 40  1  0
  3 41  1  0
 41 42  1  0
 42 43  1  0
 43 44  1  0
 43 45  1  0
 43 46  1  0
 42 47  2  0
 47 48  1  0
 47  2  1  0
 39  7  1  0
 35 18  1  0
M  CHG  2   6  -1  19  -1
M  END
>  <UniqueID>  (2) 
2

>  <SMILES>  (2) 
Cc1ccc(C(=O)[N-]c2ccc(NC(=O)/N=c3/cc(C(C)(C)C)o[n-]3)cc2)s1

>  <Energy>  (2) 
109.32018113051012

>  <Genealogy>  (2) 
Cc1ccc(C(=O)[N-]c2ccc(NC(=O)N=c3cc(C(C)(C)C)o[n-]3)cc2)s1 (protonated)
Cc1ccc(C(=O)[N-]c2ccc(NC(=O)/N=c3/cc(C(C)(C)C)o[n-]3)cc2)s1 (cis-trans isomerization)
Cc1ccc(C(=O)[N-]c2ccc(NC(=O)/N=c3/cc(C(C)(C)C)o[n-]3)cc2)s1 (3D coordinates assigned)
Cc1ccc(C(=O)[N-]c2ccc(NC(=O)/N=c3/cc(C(C)(C)C)o[n-]3)cc2)s1 (optimized conformer: 109.32018113051012 kcal/mol)

>  <smiles>  (2) 
Cc1ccc(C(=O)Nc2ccc(NC(=O)N=c3cc(C(C)(C)C)o[nH]3)cc2)s1

>  <score_type>  (2) 
oracle

>  <origin>  (2) 
adg

>  <m_score__min__energy>  (2) 
-11.199999999999999

>  <m_primary>  (2) 
energy

$$$$
2:0
     RDKit          3D

 34 36  0  0  0  0  0  0  0  0999 V2000
   57.9459   29.7217   47.9071 H   0  0  0  0  0  0  0  0  0  0  0  0
   58.1700   29.5380   46.8460 C   0  0  0  0  0  0  0  0  0  0  0  0
   58.4530   28.2810   46.4750 C   0  0  0  0  0  0  0  0  0  0  0  0
   57.1570   27.0430   46.3310 S   0  0  0  0  0  0  0  0  0  0  0  0
   58.4160   25.8590   45.8390 C   0  0  0  0  0  0  0  0  0  0  0  0
   58.1240   24.6020   45.6800 N   0  0  0  0  0  0  0  0  0  0  0  0
   56.8070   24.0480   45.5450 C   0  0  0  0  0  0  0  0  0  0  0  0
   56.2090   23.8790   44.2840 C   0  0  0  0  0  0  0  0  0  0  0  0
   56.7692   24.1350   43.3726 H   0  0  0  0  0  0  0  0  0  0  0  0
   54.9030   23.3860   44.1850 C   0  0  0  0  0  0  0  0  0  0  0  0
   54.4454   23.2366   43.1959 H   0  0  0  0  0  0  0  0  0  0  0  0
   54.1790   23.0830   45.3430 C   0  0  0  0  0  0  0  0  0  0  0  0
   52.8830   22.5920   45.2440 O   0  0  0  0  0  0  0  0  0  0  0  0
   54.7580   23.2820   46.6000 C   0  0  0  0  0  0  0  0  0  0  0  0
   54.1861   23.0512   47.5108 H   0  0  0  0  0  0  0  0  0  0  0  0
   56.0630   23.7740   46.7010 C   0  0  0  0  0  0  0  0  0  0  0  0
   56.5078   23.9468   47.6921 H   0  0  0  0  0  0  0  0  0  0  0  0
   59.7460   26.3740   45.7620 N   0  0  0  0  0  0  0  0  0  0  0  0
   60.6110   25.8140   45.5980 H   0  0  0  0  0  0  0  0  0  0  0  0
   59.7670   27.7470   46.1030 C   0  0  0  0  0  0  0  0  0  0  0  0
   60.8270   28.4260   46.0510 O   0  0  0  0  0  0  0  0  0  0  0  0
   58.1390   30.6930   45.9250 C   0  0  0  0  0  0  0  0  0  0  0  0
   58.8870   31.8350   46.2610 C   0  0  0  0  0  0  0  0  0  0  0  0
   59.5297   31.8212   47.1536 H   0  0  0  0  0  0  0  0  0  0  0  0
   58.8230   32.9850   45.4750 C   0  0  0  0  0  0  0  0  0  0  0  0
   59.4255   33.8666   45.7389 H   0  0  0  0  0  0  0  0  0  0  0  0
   57.9950   33.0160   44.3550 C   0  0  0  0  0  0  0  0  0  0  0  0
   57.9437   33.9242   43.7365 H   0  0  0  0  0  0  0  0  0  0  0  0
   57.2310   31.9000   44.0150 C   0  0  0  0  0  0  0  0  0  0  0  0
   56.5763   31.9388   43.1319 H   0  0  0  0  0  0  0  0  0  0  0  0
   57.2870   30.7220   44.7890 C   0  0  0  0  0  0  0  0  0  0  0  0
   56.4720   29.5520   44.3680 C   0  0  0  0  0  0  0  0  0  0  0  0
   56.9430   28.7090   43.5600 O   0  0  0  0  0  0  0  0  0  0  0  0
   55.1960   29.3450   44.8760 O   0  0  0  0  0  0  0  0  0  0  0  0
  1  2  1  0
  2  3  2  0
  3  4  1  0
  4  5  1  0
  5  6  2  0
  6  7  1  0
  7  8  2  0
  8  9  1  0
  8 10  1  0
 10 11  1  0
 10 12  2  0
 12 13  1  0
 12 14  1  0
 14 15  1  0
 14 16  2  0
 16 17  1  0
  5 18  1  0
 18 19  1  0
 18 20  1  0
 20 21  2  0
  2 22  1  0
 22 23  2  0
 23 24  1  0
 23 25  1  0
 25 26  1  0
 25 27  2  0
 27 28  1  0
 27 29  1  0
 29 30  1  0
 29 31  2  0
 31 32  1  0
 32 33  2  0
 32 34  1  0
 20  3  1  0
 31 22  1  0
 16  7  1  0
M  CHG  2  13  -1  34  -1
M  END
>  <UniqueID>  (3) 
3

>  <SMILES>  (3) 
O=C1N/C(=N\c2ccc([O-])cc2)S/C1=C/c1ccccc1C(=O)[O-]

>  <Energy>  (3) 
74.29911339557577

>  <Genealogy>  (3) 
O=C1NC(=Nc2ccc([O-])cc2)SC1=Cc1ccccc1C(=O)[O-] (protonated)
O=C1N/C(=N\c2ccc([O-])cc2)S/C1=C/c1ccccc1C(=O)[O-] (cis-trans isomerization)
O=C1N/C(=N\c2ccc([O-])cc2)S/C1=C/c1ccccc1C(=O)[O-] (3D coordinates assigned)
O=C1N/C(=N\c2ccc([O-])cc2)S/C1=C/c1ccccc1C(=O)[O-] (nonaromatic ring conformer: 74.29911339557577 kcal/mol)

>  <smiles>  (3) 
O=C1NC(=Nc2ccc(O)cc2)SC1=Cc1ccccc1C(=O)O

>  <score_type>  (3) 
oracle

>  <origin>  (3) 
adg

>  <m_score__min__energy>  (3) 
-11.630000000000001

>  <m_primary>  (3) 
energy

$$$$
3:0
     RDKit          3D

 53 56  0  0  0  0  0  0  0  0999 V2000
   58.4470   26.9670   47.2850 O   0  0  0  0  0  0  0  0  0  0  0  0
   58.0650   27.9990   46.6690 C   0  0  0  0  0  0  0  0  0  0  0  0
   57.5150   27.8780   45.2830 C   0  0  0  0  0  0  0  0  0  0  0  0
   56.1830   28.4690   45.2450 N   0  0  0  0  0  0  0  0  0  0  0  0
   55.8530   29.5960   44.4220 C   0  0  0  0  0  0  0  0  0  0  0  0
   54.8210   29.5660   43.6970 O   0  0  0  0  0  0  0  0  0  0  0  0
   56.7330   30.7750   44.3750 C   0  0  0  0  0  0  0  0  0  0  0  0
   57.2430   31.2550   43.1590 C   0  0  0  0  0  0  0  0  0  0  0  0
   58.0500   32.3940   43.1600 C   0  0  0  0  0  0  0  0  0  0  0  0
   58.5110   32.8320   42.0700 O   0  0  0  0  0  0  0  0  0  0  0  0
   58.3350   33.0350   44.3770 C   0  0  0  0  0  0  0  0  0  0  0  0
   59.1370   34.1880   44.4500 C   0  0  0  0  0  0  0  0  0  0  0  0
   59.3860   34.7900   45.6880 C   0  0  0  0  0  0  0  0  0  0  0  0
   58.8400   34.2500   46.8560 C   0  0  0  0  0  0  0  0  0  0  0  0
   58.0430   33.1030   46.7940 C   0  0  0  0  0  0  0  0  0  0  0  0
   57.7880   32.4920   45.5620 C   0  0  0  0  0  0  0  0  0  0  0  0
   57.0240   31.4040   45.5120 O   0  0  0  0  0  0  0  0  0  0  0  0
   58.2500   29.2930   47.2530 N   0  0  0  0  0  0  0  0  0  0  0  0
   59.4700   29.6810   47.9030 C   0  0  0  0  0  0  0  0  0  0  0  0
   59.9570   28.9210   48.9750 C   0  0  0  0  0  0  0  0  0  0  0  0
   61.1200   29.3100   49.6450 C   0  0  0  0  0  0  0  0  0  0  0  0
   61.7930   30.4730   49.2650 C   0  0  0  0  0  0  0  0  0  0  0  0
   61.3070   31.2560   48.2090 C   0  0  0  0  0  0  0  0  0  0  0  0
   62.1260   32.7520   47.7570 S   0  0  0  0  0  0  0  0  0  0  0  0
   61.7420   33.1050   46.3460 O   0  0  0  0  0  0  0  0  0  0  0  0
   63.6130   32.5260   47.7820 O   0  0  0  0  0  0  0  0  0  0  0  0
   61.7200   34.0910   48.8100 N   0  0  0  0  0  0  0  0  0  0  0  0
   60.4220   33.9070   49.4920 C   0  0  0  0  0  0  0  0  0  0  0  0
   60.5720   33.4480   50.9520 C   0  0  0  0  0  0  0  0  0  0  0  0
   61.7560   32.7020   51.1150 O   0  0  0  0  0  0  0  0  0  0  0  0
   62.8770   33.5540   50.9840 C   0  0  0  0  0  0  0  0  0  0  0  0
   62.8210   34.4500   49.7240 C   0  0  0  0  0  0  0  0  0  0  0  0
   60.1470   30.8570   47.5310 C   0  0  0  0  0  0  0  0  0  0  0  0
   58.1730   28.4073   44.5781 H   0  0  0  0  0  0  0  0  0  0  0  0
   57.4579   26.8170   44.9983 H   0  0  0  0  0  0  0  0  0  0  0  0
   57.0095   30.7396   42.2157 H   0  0  0  0  0  0  0  0  0  0  0  0
   59.5686   34.6165   43.5334 H   0  0  0  0  0  0  0  0  0  0  0  0
   60.0138   35.6916   45.7425 H   0  0  0  0  0  0  0  0  0  0  0  0
   59.0379   34.7287   47.8264 H   0  0  0  0  0  0  0  0  0  0  0  0
   57.6159   32.6805   47.7155 H   0  0  0  0  0  0  0  0  0  0  0  0
   57.4940   30.0040   47.1330 H   0  0  0  0  0  0  0  0  0  0  0  0
   59.4211   28.0137   49.2906 H   0  0  0  0  0  0  0  0  0  0  0  0
   61.5063   28.6985   50.4738 H   0  0  0  0  0  0  0  0  0  0  0  0
   62.7075   30.7756   49.7961 H   0  0  0  0  0  0  0  0  0  0  0  0
   59.8801   34.8642   49.4791 H   0  0  0  0  0  0  0  0  0  0  0  0
   59.8751   33.1192   48.9532 H   0  0  0  0  0  0  0  0  0  0  0  0
   60.6071   34.3308   51.6073 H   0  0  0  0  0  0  0  0  0  0  0  0
   59.7126   32.8141   51.2160 H   0  0  0  0  0  0  0  0  0  0  0  0
   62.9284   34.2022   51.8713 H   0  0  0  0  0  0  0  0  0  0  0  0
   63.7648   32.9117   50.8877 H   0  0  0  0  0  0  0  0  0  0  0  0
   62.6861   35.4943   50.0422 H   0  0  0  0  0  0  0  0  0  0  0  0
   63.7638   34.3064   49.1759 H   0  0  0  0  0  0  0  0  0  0  0  0
   59.7627   31.4683   46.7012 H   0  0  0  0  0  0  0  0  0  0  0  0
  1  2  2  0
  2  3  1  0
  3  4  1  0
  4  5  1  0
  5  6  2  0
  5  7  1  0
  7  8  2  0
  8  9  1  0
  9 10  2  0
  9 11  1  0
 11 12  2  0
 12 13  1  0
 13 14  2  0
 14 15  1  0
 15 16  2  0
 16 17  1  0
  2 18  1  0
 18 19  1  0
 19 20  2  0
 20 21  1  0
 21 22  2  0
 22 23  1  0
 23 24  1  0
 24 25  2  0
 24 26  2  0
 24 27  1  0
 27 28  1  0
 28 29  1  0
 29 30  1  0
 30 31  1  0
 31 32  1  0
 23 33  2  0
 17  7  1  0
 33 19  1  0
 16 11  1  0
 32 27  1  0
  3 34  1  0
  3 35  1  0
  8 36  1  0
 12 37  1  0
 13 38  1  0
 14 39  1  0
 15 40  1  0
 18 41  1  0
 20 42  1  0
 21 43  1  0
 22 44  1  0
 28 45  1  0
 28 46  1  0
 29 47  1  0
 29 48  1  0
 31 49  1  0
 31 50  1  0
 32 51  1  0
 32 52  1  0
 33 53  1  0
M  CHG  1   4  -1
M  END
>  <UniqueID>  (4) 
4

>  <SMILES>  (4) 
O=C(C[N-]C(=O)c1cc(=O)c2ccccc2o1)Nc1cccc(S(=O)(=O)N2CCOCC2)c1

>  <Energy>  (4) 
71.64410153073052

>  <Genealogy>  (4) 
O=C(C[N-]C(=O)c1cc(=O)c2ccccc2o1)Nc1cccc(S(=O)(=O)N2CCOCC2)c1 (protonated)
O=C(C[N-]C(=O)c1cc(=O)c2ccccc2o1)Nc1cccc(S(=O)(=O)N2CCOCC2)c1 (3D coordinates assigned)
O=C(C[N-]C(=O)c1cc(=O)c2ccccc2o1)Nc1cccc(S(=O)(=O)N2CCOCC2)c1 (nonaromatic ring conformer: 71.64410153073052 kcal/mol)

>  <smiles>  (4) 
O=C(CNC(=O)c1cc(=O)c2ccccc2o1)Nc1cccc(S(=O)(=O)N2CCOCC2)c1

>  <score_type>  (4) 
oracle

>  <origin>  (4) 
adg

>  <m_score__min__energy>  (4) 
-11.23

>  <m_primary>  (4) 
energy

$$$$
4:0
     RDKit          3D

 63 66  0  0  0  0  0  0  0  0999 V2000
   60.7900   28.5430   44.8840 C   0  0  0  0  0  0  0  0  0  0  0  0
   60.5100   28.3780   46.2700 O   0  0  0  0  0  0  0  0  0  0  0  0
   59.9740   29.3800   47.0940 C   0  0  0  0  0  0  0  0  0  0  0  0
   60.0800   29.2260   48.4800 C   0  0  0  0  0  0  0  0  0  0  0  0
   59.5400   30.1870   49.3400 C   0  0  0  0  0  0  0  0  0  0  0  0
   58.9100   31.3200   48.8190 C   0  0  0  0  0  0  0  0  0  0  0  0
   58.8280   31.5110   47.4300 C   0  0  0  0  0  0  0  0  0  0  0  0
   58.1540   32.7470   46.8640 C   0  0  0  0  0  0  0  0  0  0  0  0
   58.7780   33.2740   45.6200 N   0  0  0  0  0  0  0  0  0  0  0  0
   57.8330   33.4530   44.4960 C   0  0  0  0  0  0  0  0  0  0  0  0
   57.3920   32.1310   43.9400 C   0  0  0  0  0  0  0  0  0  0  0  0
   57.6300   31.8450   42.7320 O   0  0  0  0  0  0  0  0  0  0  0  0
   56.6750   31.2180   44.7700 N   0  0  0  0  0  0  0  0  0  0  0  0
   56.2510   29.9060   44.2960 C   0  0  0  0  0  0  0  0  0  0  0  0
   56.6640   28.7630   45.2080 C   0  0  0  0  0  0  0  0  0  0  0  0
   57.4110   29.0100   43.9030 C   0  0  0  0  0  0  0  0  0  0  0  0
   59.6040   34.4800   45.8450 C   0  0  0  0  0  0  0  0  0  0  0  0
   60.6820   34.1960   46.8620 C   0  0  0  0  0  0  0  0  0  0  0  0
   60.4520   34.4710   48.2200 C   0  0  0  0  0  0  0  0  0  0  0  0
   61.4500   34.2340   49.1700 C   0  0  0  0  0  0  0  0  0  0  0  0
   62.6980   33.7150   48.7770 C   0  0  0  0  0  0  0  0  0  0  0  0
   63.7750   33.4870   49.7700 C   0  0  0  0  0  0  0  0  0  0  0  0
   63.5110   33.6010   50.9960 O   0  0  0  0  0  0  0  0  0  0  0  0
   65.1030   33.1270   49.3470 N   0  0  0  0  0  0  0  0  0  0  0  0
   66.1490   32.7590   50.2610 C   0  0  0  0  0  0  0  0  0  0  0  0
   67.3780   33.4440   50.2450 C   0  0  0  0  0  0  0  0  0  0  0  0
   68.4150   33.0600   51.0980 C   0  0  0  0  0  0  0  0  0  0  0  0
   68.2470   31.9740   51.9600 C   0  0  0  0  0  0  0  0  0  0  0  0
   67.0390   31.2740   51.9740 C   0  0  0  0  0  0  0  0  0  0  0  0
   65.9820   31.6590   51.1330 C   0  0  0  0  0  0  0  0  0  0  0  0
   64.7390   30.9450   51.2010 N   0  0  0  0  0  0  0  0  0  0  0  0
   62.9260   33.4410   47.4160 C   0  0  0  0  0  0  0  0  0  0  0  0
   61.9220   33.6640   46.4690 C   0  0  0  0  0  0  0  0  0  0  0  0
   59.3350   30.5210   46.5720 C   0  0  0  0  0  0  0  0  0  0  0  0
   61.7320   29.0981   44.7638 H   0  0  0  0  0  0  0  0  0  0  0  0
   60.8831   27.5554   44.4086 H   0  0  0  0  0  0  0  0  0  0  0  0
   59.9712   29.1030   44.4086 H   0  0  0  0  0  0  0  0  0  0  0  0
   60.5906   28.3447   48.8954 H   0  0  0  0  0  0  0  0  0  0  0  0
   59.6113   30.0508   50.4292 H   0  0  0  0  0  0  0  0  0  0  0  0
   58.4759   32.0665   49.5004 H   0  0  0  0  0  0  0  0  0  0  0  0
   57.1059   32.4964   46.6433 H   0  0  0  0  0  0  0  0  0  0  0  0
   58.2563   33.5355   47.6241 H   0  0  0  0  0  0  0  0  0  0  0  0
   56.9506   34.0038   44.8538 H   0  0  0  0  0  0  0  0  0  0  0  0
   58.3435   34.0127   43.6984 H   0  0  0  0  0  0  0  0  0  0  0  0
   55.3090   30.2204   43.8230 H   0  0  0  0  0  0  0  0  0  0  0  0
   57.1522   28.9756   46.1705 H   0  0  0  0  0  0  0  0  0  0  0  0
   56.1494   27.9023   45.6600 H   0  0  0  0  0  0  0  0  0  0  0  0
   58.4391   29.4005   43.9230 H   0  0  0  0  0  0  0  0  0  0  0  0
   57.6598   28.4008   43.0215 H   0  0  0  0  0  0  0  0  0  0  0  0
   60.0712   34.7817   44.8960 H   0  0  0  0  0  0  0  0  0  0  0  0
   58.9605   35.2882   46.2228 H   0  0  0  0  0  0  0  0  0  0  0  0
   59.4799   34.8756   48.5383 H   0  0  0  0  0  0  0  0  0  0  0  0
   61.2588   34.4544   50.2306 H   0  0  0  0  0  0  0  0  0  0  0  0
   65.3210   33.1060   48.3270 H   0  0  0  0  0  0  0  0  0  0  0  0
   67.5231   34.2885   49.5553 H   0  0  0  0  0  0  0  0  0  0  0  0
   69.3655   33.6137   51.0909 H   0  0  0  0  0  0  0  0  0  0  0  0
   69.0665   31.6701   52.6279 H   0  0  0  0  0  0  0  0  0  0  0  0
   66.9141   30.4144   52.6489 H   0  0  0  0  0  0  0  0  0  0  0  0
   63.8280   31.4620   51.2270 H   0  0  0  0  0  0  0  0  0  0  0  0
   64.7020   29.9030   51.1680 H   0  0  0  0  0  0  0  0  0  0  0  0
   63.9019   33.0482   47.0945 H   0  0  0  0  0  0  0  0  0  0  0  0
   62.1034   33.4219   45.4114 H   0  0  0  0  0  0  0  0  0  0  0  0
   59.2319   30.6381   45.4831 H   0  0  0  0  0  0  0  0  0  0  0  0
  1  2  1  0
  2  3  1  0
  3  4  2  0
  4  5  1  0
  5  6  2  0
  6  7  1  0
  7  8  1  0
  8  9  1  0
  9 10  1  0
 10 11  1  0
 11 12  2  0
 11 13  1  0
 13 14  1  0
 14 15  1  0
 15 16  1  0
  9 17  1  0
 17 18  1  0
 18 19  2  0
 19 20  1  0
 20 21  2  0
 21 22  1  0
 22 23  2  0
 22 24  1  0
 24 25  1  0
 25 26  2  0
 26 27  1  0
 27 28  2  0
 28 29  1  0
 29 30  2  0
 30 31  1  0
 21 32  1  0
 32 33  2  0
  7 34  2  0
 34  3  1  0
 16 14  1  0
 33 18  1  0
 30 25  1  0
  1 35  1  0
  1 36  1  0
  1 37  1  0
  4 38  1  0
  5 39  1  0
  6 40  1  0
  8 41  1  0
  8 42  1  0
 10 43  1  0
 10 44  1  0
 14 45  1  0
 15 46  1  0
 15 47  1  0
 16 48  1  0
 16 49  1  0
 17 50  1  0
 17 51  1  0
 19 52  1  0
 20 53  1  0
 24 54  1  0
 26 55  1  0
 27 56  1  0
 28 57  1  0
 29 58  1  0
 31 59  1  0
 31 60  1  0
 32 61  1  0
 33 62  1  0
 34 63  1  0
M  CHG  1  13  -1
M  END
>  <UniqueID>  (5) 
5

>  <SMILES>  (5) 
COc1cccc(CN(CC(=O)[N-]C2CC2)Cc2ccc(C(=O)Nc3ccccc3N)cc2)c1

>  <Energy>  (5) 
339.67390873736974

>  <Genealogy>  (5) 
COc1cccc(CN(CC(=O)[N-]C2CC2)Cc2ccc(C(=O)Nc3ccccc3N)cc2)c1 (protonated)
COc1cccc(CN(CC(=O)[N-]C2CC2)Cc2ccc(C(=O)Nc3ccccc3N)cc2)c1 (3D coordinates assigned)
COc1cccc(CN(CC(=O)[N-]C2CC2)Cc2ccc(C(=O)Nc3ccccc3N)cc2)c1 (nonaromatic ring conformer: 339.67390873736974 kcal/mol)

>  <smiles>  (5) 
COc1cccc(CN(CC(=O)NC2CC2)Cc2ccc(C(=O)Nc3ccccc3N)cc2)c1

>  <score_type>  (5) 
oracle

>  <origin>  (5) 
adg

>  <m_score__min__energy>  (5) 
-10.08

>  <m_primary>  (5) 
energy

$$$$
5:0
     RDKit          3D

 61 64  0  0  0  0  0  0  0  0999 V2000
   58.5590   29.8550   44.1950 O   0  0  0  0  0  0  0  0  0  0  0  0
   57.3650   29.9220   44.5810 C   0  0  0  0  0  0  0  0  0  0  0  0
   56.6370   31.2420   44.4920 C   0  0  0  0  0  0  0  0  0  0  0  0
   57.4480   32.3760   45.0720 C   0  0  0  0  0  0  0  0  0  0  0  0
   57.4030   33.6480   44.4840 C   0  0  0  0  0  0  0  0  0  0  0  0
   58.1770   34.6910   44.9950 C   0  0  0  0  0  0  0  0  0  0  0  0
   58.9820   34.4910   46.1230 C   0  0  0  0  0  0  0  0  0  0  0  0
   59.7680   35.5370   46.6070 O   0  0  0  0  0  0  0  0  0  0  0  0
   58.9910   33.2360   46.7660 C   0  0  0  0  0  0  0  0  0  0  0  0
   59.8240   32.9950   48.0130 C   0  0  0  0  0  0  0  0  0  0  0  0
   61.2560   32.7360   47.7420 N   0  0  0  0  0  0  0  0  0  0  0  0
   62.0230   32.3220   48.9310 C   0  0  0  0  0  0  0  0  0  0  0  0
   63.4730   31.9770   48.5320 C   0  0  0  0  0  0  0  0  0  0  0  0
   63.6880   32.1330   47.1410 O   0  0  0  0  0  0  0  0  0  0  0  0
   63.4090   33.4720   46.7650 C   0  0  0  0  0  0  0  0  0  0  0  0
   61.9340   33.8370   47.0360 C   0  0  0  0  0  0  0  0  0  0  0  0
   58.2260   32.1840   46.2280 C   0  0  0  0  0  0  0  0  0  0  0  0
   56.7790   28.7640   45.1950 N   0  0  0  0  0  0  0  0  0  0  0  0
   57.4580   27.5800   45.6350 C   0  0  0  0  0  0  0  0  0  0  0  0
   58.8560   27.5870   45.7080 C   0  0  0  0  0  0  0  0  0  0  0  0
   59.5480   26.4360   46.0940 C   0  0  0  0  0  0  0  0  0  0  0  0
   58.8480   25.2640   46.3870 C   0  0  0  0  0  0  0  0  0  0  0  0
   57.4510   25.2310   46.2760 C   0  0  0  0  0  0  0  0  0  0  0  0
   56.5600   23.7450   46.6050 S   0  0  0  0  0  0  0  0  0  0  0  0
   57.3270   22.9380   47.6160 O   0  0  0  0  0  0  0  0  0  0  0  0
   55.2050   24.0690   47.1730 O   0  0  0  0  0  0  0  0  0  0  0  0
   56.3810   22.8280   45.1330 N   0  0  0  0  0  0  0  0  0  0  0  0
   57.6630   22.2100   44.7610 C   0  0  0  0  0  0  0  0  0  0  0  0
   57.5120   21.4310   43.4380 C   0  0  0  0  0  0  0  0  0  0  0  0
   56.2240   21.5880   42.8700 O   0  0  0  0  0  0  0  0  0  0  0  0
   55.9440   22.9630   42.6960 C   0  0  0  0  0  0  0  0  0  0  0  0
   55.9050   23.7020   44.0490 C   0  0  0  0  0  0  0  0  0  0  0  0
   56.7590   26.3900   45.8940 C   0  0  0  0  0  0  0  0  0  0  0  0
   56.4263   31.4607   43.4348 H   0  0  0  0  0  0  0  0  0  0  0  0
   55.7074   31.1570   45.0739 H   0  0  0  0  0  0  0  0  0  0  0  0
   56.7534   33.8251   43.6142 H   0  0  0  0  0  0  0  0  0  0  0  0
   58.1544   35.6771   44.5081 H   0  0  0  0  0  0  0  0  0  0  0  0
   59.3710   36.2850   47.1680 H   0  0  0  0  0  0  0  0  0  0  0  0
   59.7494   33.8846   48.6556 H   0  0  0  0  0  0  0  0  0  0  0  0
   59.4230   32.0899   48.4925 H   0  0  0  0  0  0  0  0  0  0  0  0
   62.0324   33.1437   49.6623 H   0  0  0  0  0  0  0  0  0  0  0  0
   61.5498   31.4330   49.3735 H   0  0  0  0  0  0  0  0  0  0  0  0
   64.1596   32.6430   49.0751 H   0  0  0  0  0  0  0  0  0  0  0  0
   63.6567   30.9235   48.7899 H   0  0  0  0  0  0  0  0  0  0  0  0
   64.0569   34.1482   47.3420 H   0  0  0  0  0  0  0  0  0  0  0  0
   63.5989   33.5756   45.6865 H   0  0  0  0  0  0  0  0  0  0  0  0
   61.8928   34.7451   47.6555 H   0  0  0  0  0  0  0  0  0  0  0  0
   61.4267   34.0124   46.0759 H   0  0  0  0  0  0  0  0  0  0  0  0
   58.2367   31.1992   46.7179 H   0  0  0  0  0  0  0  0  0  0  0  0
   59.4124   28.5030   45.4603 H   0  0  0  0  0  0  0  0  0  0  0  0
   60.6454   26.4533   46.1671 H   0  0  0  0  0  0  0  0  0  0  0  0
   59.3943   24.3640   46.7058 H   0  0  0  0  0  0  0  0  0  0  0  0
   58.4228   22.9955   44.6360 H   0  0  0  0  0  0  0  0  0  0  0  0
   57.9711   21.5142   45.5553 H   0  0  0  0  0  0  0  0  0  0  0  0
   58.2622   21.7988   42.7225 H   0  0  0  0  0  0  0  0  0  0  0  0
   57.6576   20.3627   43.6560 H   0  0  0  0  0  0  0  0  0  0  0  0
   56.7260   23.4110   42.0653 H   0  0  0  0  0  0  0  0  0  0  0  0
   54.9574   23.0590   42.2192 H   0  0  0  0  0  0  0  0  0  0  0  0
   56.5494   24.5917   43.9932 H   0  0  0  0  0  0  0  0  0  0  0  0
   54.8665   23.9957   44.2617 H   0  0  0  0  0  0  0  0  0  0  0  0
   55.6635   26.3665   45.7969 H   0  0  0  0  0  0  0  0  0  0  0  0
  1  2  2  0
  2  3  1  0
  3  4  1  0
  4  5  2  0
  5  6  1  0
  6  7  2  0
  7  8  1  0
  7  9  1  0
  9 10  1  0
 10 11  1  0
 11 12  1  0
 12 13  1  0
 13 14  1  0
 14 15  1  0
 15 16  1  0
  9 17  2  0
  2 18  1  0
 18 19  1  0
 19 20  2  0
 20 21  1  0
 21 22  2  0
 22 23  1  0
 23 24  1  0
 24 25  2  0
 24 26  2  0
 24 27  1  0
 27 28  1  0
 28 29  1  0
 29 30  1  0
 30 31  1  0
 31 32  1  0
 23 33  2  0
 17  4  1  0
 33 19  1  0
 16 11  1  0
 32 27  1  0
  3 34  1  0
  3 35  1  0
  5 36  1  0
  6 37  1  0
  8 38  1  0
 10 39  1  0
 10 40  1  0
 12 41  1  0
 12 42  1  0
 13 43  1  0
 13 44  1  0
 15 45  1  0
 15 46  1  0
 16 47  1  0
 16 48  1  0
 17 49  1  0
 20 50  1  0
 21 51  1  0
 22 52  1  0
 28 53  1  0
 28 54  1  0
 29 55  1  0
 29 56  1  0
 31 57  1  0
 31 58  1  0
 32 59  1  0
 32 60  1  0
 33 61  1  0
M  CHG  1  18  -1
M  END
>  <UniqueID>  (6) 
6

>  <SMILES>  (6) 
O=C(Cc1ccc(O)c(CN2CCOCC2)c1)[N-]c1cccc(S(=O)(=O)N2CCOCC2)c1

>  <Energy>  (6) 
83.72013632632776

>  <Genealogy>  (6) 
O=C(Cc1ccc(O)c(CN2CCOCC2)c1)[N-]c1cccc(S(=O)(=O)N2CCOCC2)c1 (protonated)
O=C(Cc1ccc(O)c(CN2CCOCC2)c1)[N-]c1cccc(S(=O)(=O)N2CCOCC2)c1 (3D coordinates assigned)
O=C(Cc1ccc(O)c(CN2CCOCC2)c1)[N-]c1cccc(S(=O)(=O)N2CCOCC2)c1 (nonaromatic ring conformer: 83.72013632632776 kcal/mol)

>  <smiles>  (6) 
O=C(Cc1ccc(O)c(CN2CCOCC2)c1)Nc1cccc(S(=O)(=O)N2CCOCC2)c1

>  <score_type>  (6) 
oracle

>  <origin>  (6) 
adg

>  <m_score__min__energy>  (6) 
-12.82

>  <m_primary>  (6) 
energy

$$$$
6:0
     RDKit          3D

 40 42  0  0  0  0  0  0  0  0999 V2000
   55.5510   28.6810   45.0400 O   0  0  0  0  0  0  0  0  0  0  0  0
   56.6790   28.3540   45.5010 C   0  0  0  0  0  0  0  0  0  0  0  0
   57.7880   29.2540   45.3630 N   0  0  0  0  0  0  0  0  0  0  0  0
   57.7450   30.5880   44.8360 C   0  0  0  0  0  0  0  0  0  0  0  0
   57.7780   30.7620   43.4470 C   0  0  0  0  0  0  0  0  0  0  0  0
   57.8240   32.0460   42.8960 C   0  0  0  0  0  0  0  0  0  0  0  0
   57.8640   33.1650   43.7290 C   0  0  0  0  0  0  0  0  0  0  0  0
   57.8460   33.0100   45.1230 C   0  0  0  0  0  0  0  0  0  0  0  0
   58.0020   34.2100   46.0170 C   0  0  0  0  0  0  0  0  0  0  0  0
   59.2380   34.8530   45.7520 O   0  0  0  0  0  0  0  0  0  0  0  0
   60.0330   34.9690   46.9200 C   0  0  0  0  0  0  0  0  0  0  0  0
   60.9380   33.7820   47.0960 C   0  0  0  0  0  0  0  0  0  0  0  0
   60.4140   32.5260   47.4420 C   0  0  0  0  0  0  0  0  0  0  0  0
   61.2850   31.4540   47.6430 C   0  0  0  0  0  0  0  0  0  0  0  0
   62.6610   31.6360   47.4900 C   0  0  0  0  0  0  0  0  0  0  0  0
   63.1460   32.8960   47.1320 C   0  0  0  0  0  0  0  0  0  0  0  0
   64.4790   33.0920   46.9820 F   0  0  0  0  0  0  0  0  0  0  0  0
   62.2830   33.9300   46.9450 N   0  0  0  0  0  0  0  0  0  0  0  0
   57.7760   31.7180   45.6720 C   0  0  0  0  0  0  0  0  0  0  0  0
   56.8640   27.0680   46.1390 N   0  0  0  0  0  0  0  0  0  0  0  0
   58.0660   26.7890   46.7350 C   0  0  0  0  0  0  0  0  0  0  0  0
   58.2790   25.5730   47.3810 C   0  0  0  0  0  0  0  0  0  0  0  0
   57.2450   24.6440   47.4070 C   0  0  0  0  0  0  0  0  0  0  0  0
   57.4010   23.5360   47.9830 O   0  0  0  0  0  0  0  0  0  0  0  0
   56.0660   24.9360   46.8070 N   0  0  0  0  0  0  0  0  0  0  0  0
   55.8630   26.1240   46.1790 C   0  0  0  0  0  0  0  0  0  0  0  0
   54.7490   26.3330   45.6280 O   0  0  0  0  0  0  0  0  0  0  0  0
   57.7677   29.8832   42.7855 H   0  0  0  0  0  0  0  0  0  0  0  0
   57.8287   32.1746   41.8036 H   0  0  0  0  0  0  0  0  0  0  0  0
   57.9098   34.1728   43.2906 H   0  0  0  0  0  0  0  0  0  0  0  0
   57.1775   34.9137   45.8299 H   0  0  0  0  0  0  0  0  0  0  0  0
   57.9818   33.8837   47.0673 H   0  0  0  0  0  0  0  0  0  0  0  0
   60.6478   35.8780   46.8440 H   0  0  0  0  0  0  0  0  0  0  0  0
   59.3606   35.0197   47.7891 H   0  0  0  0  0  0  0  0  0  0  0  0
   59.3284   32.3884   47.5535 H   0  0  0  0  0  0  0  0  0  0  0  0
   60.8879   30.4668   47.9217 H   0  0  0  0  0  0  0  0  0  0  0  0
   63.3546   30.7972   47.6495 H   0  0  0  0  0  0  0  0  0  0  0  0
   57.7452   31.5900   46.7641 H   0  0  0  0  0  0  0  0  0  0  0  0
   58.8736   27.5351   46.7030 H   0  0  0  0  0  0  0  0  0  0  0  0
   59.2444   25.3528   47.8601 H   0  0  0  0  0  0  0  0  0  0  0  0
  1  2  2  0
  2  3  1  0
  3  4  1  0
  4  5  2  0
  5  6  1  0
  6  7  2  0
  7  8  1  0
  8  9  1  0
  9 10  1  0
 10 11  1  0
 11 12  1  0
 12 13  2  0
 13 14  1  0
 14 15  2  0
 15 16  1  0
 16 17  1  0
 16 18  2  0
  8 19  2  0
  2 20  1  0
 20 21  1  0
 21 22  2  0
 22 23  1  0
 23 24  2  0
 23 25  1  0
 25 26  1  0
 26 27  2  0
 19  4  1  0
 26 20  1  0
 18 12  1  0
  5 28  1  0
  6 29  1  0
  7 30  1  0
  9 31  1  0
  9 32  1  0
 11 33  1  0
 11 34  1  0
 13 35  1  0
 14 36  1  0
 15 37  1  0
 19 38  1  0
 21 39  1  0
 22 40  1  0
M  CHG  2   3  -1  25  -1
M  END
>  <UniqueID>  (7) 
7

>  <SMILES>  (7) 
O=C([N-]c1cccc(COCc2cccc(F)n2)c1)n1ccc(=O)[n-]c1=O

>  <Energy>  (7) 
51.91840409879365

>  <Genealogy>  (7) 
O=C([N-]c1cccc(COCc2cccc(F)n2)c1)n1ccc(=O)[n-]c1=O (protonated)
O=C([N-]c1cccc(COCc2cccc(F)n2)c1)n1ccc(=O)[n-]c1=O (3D coordinates assigned)
O=C([N-]c1cccc(COCc2cccc(F)n2)c1)n1ccc(=O)[n-]c1=O (optimized conformer: 51.91840409879365 kcal/mol)

>  <smiles>  (7) 
O=C(Nc1cccc(COCc2cccc(F)n2)c1)n1ccc(=O)[nH]c1=O

>  <score_type>  (7) 
oracle

>  <origin>  (7) 
adg

>  <m_score__min__energy>  (7) 
-11.48

>  <m_primary>  (7) 
energy

$$$$
7:0
     RDKit          3D

 51 54  0  0  0  0  0  0  0  0999 V2000
   60.6140   29.3660   45.4510 C   0  0  0  0  0  0  0  0  0  0  0  0
   60.4460   29.1150   46.7580 C   0  0  0  0  0  0  0  0  0  0  0  0
   59.9420   27.9400   47.3210 C   0  0  0  0  0  0  0  0  0  0  0  0
   59.4630   26.8610   46.6740 C   0  0  0  0  0  0  0  0  0  0  0  0
   58.0210   26.6450   46.4270 C   0  0  0  0  0  0  0  0  0  0  0  0
   57.2010   27.6320   45.8400 C   0  0  0  0  0  0  0  0  0  0  0  0
   57.6940   28.8900   45.4900 O   0  0  0  0  0  0  0  0  0  0  0  0
   55.8860   27.3700   45.6240 N   0  0  0  0  0  0  0  0  0  0  0  0
   55.3340   26.1820   45.9790 C   0  0  0  0  0  0  0  0  0  0  0  0
   54.1140   25.9670   45.7650 O   0  0  0  0  0  0  0  0  0  0  0  0
   56.0960   25.2290   46.5730 N   0  0  0  0  0  0  0  0  0  0  0  0
   57.4180   25.4340   46.8080 C   0  0  0  0  0  0  0  0  0  0  0  0
   58.0950   24.5250   47.3590 O   0  0  0  0  0  0  0  0  0  0  0  0
   60.0050   28.1060   48.6970 C   0  0  0  0  0  0  0  0  0  0  0  0
   60.5520   29.3540   48.9210 C   0  0  0  0  0  0  0  0  0  0  0  0
   60.7500   29.9580   50.2780 C   0  0  0  0  0  0  0  0  0  0  0  0
   60.7880   29.9800   47.7450 N   0  0  0  0  0  0  0  0  0  0  0  0
   61.3520   31.2930   47.5860 C   0  0  0  0  0  0  0  0  0  0  0  0
   62.7380   31.4250   47.4480 C   0  0  0  0  0  0  0  0  0  0  0  0
   63.2980   32.6920   47.2840 C   0  0  0  0  0  0  0  0  0  0  0  0
   62.4990   33.7900   47.2550 N   0  0  0  0  0  0  0  0  0  0  0  0
   61.1500   33.6970   47.3850 C   0  0  0  0  0  0  0  0  0  0  0  0
   60.5370   32.4460   47.5600 C   0  0  0  0  0  0  0  0  0  0  0  0
   58.7830   32.3590   47.7590 S   0  0  0  0  0  0  0  0  0  0  0  0
   58.4310   32.5860   49.2010 O   0  0  0  0  0  0  0  0  0  0  0  0
   58.2830   30.9960   47.3650 O   0  0  0  0  0  0  0  0  0  0  0  0
   57.9850   33.5550   46.7870 N   0  0  0  0  0  0  0  0  0  0  0  0
   58.1950   33.7440   45.3830 C   0  0  0  0  0  0  0  0  0  0  0  0
   58.7630   34.7980   44.9940 O   0  0  0  0  0  0  0  0  0  0  0  0
   57.7660   32.7500   44.3800 C   0  0  0  0  0  0  0  0  0  0  0  0
   56.9410   31.6810   44.7620 C   0  0  0  0  0  0  0  0  0  0  0  0
   56.5270   30.7370   43.8160 C   0  0  0  0  0  0  0  0  0  0  0  0
   56.9220   30.8640   42.4810 C   0  0  0  0  0  0  0  0  0  0  0  0
   57.7230   31.9390   42.0890 C   0  0  0  0  0  0  0  0  0  0  0  0
   58.1380   32.8850   43.0320 C   0  0  0  0  0  0  0  0  0  0  0  0
   61.0222   30.3340   45.1249 H   0  0  0  0  0  0  0  0  0  0  0  0
   60.3436   28.6038   44.7054 H   0  0  0  0  0  0  0  0  0  0  0  0
   60.1765   26.1058   46.3127 H   0  0  0  0  0  0  0  0  0  0  0  0
   57.9750   29.5800   46.1750 H   0  0  0  0  0  0  0  0  0  0  0  0
   59.6819   27.3837   49.4612 H   0  0  0  0  0  0  0  0  0  0  0  0
   60.5059   29.2134   51.0500 H   0  0  0  0  0  0  0  0  0  0  0  0
   61.7982   30.2722   50.3901 H   0  0  0  0  0  0  0  0  0  0  0  0
   60.0913   30.8318   50.3901 H   0  0  0  0  0  0  0  0  0  0  0  0
   63.3829   30.5341   47.4687 H   0  0  0  0  0  0  0  0  0  0  0  0
   64.3874   32.8020   47.1781 H   0  0  0  0  0  0  0  0  0  0  0  0
   60.5339   34.6077   47.3530 H   0  0  0  0  0  0  0  0  0  0  0  0
   56.6186   31.5849   45.8093 H   0  0  0  0  0  0  0  0  0  0  0  0
   55.8902   29.8942   44.1229 H   0  0  0  0  0  0  0  0  0  0  0  0
   56.6020   30.1173   41.7393 H   0  0  0  0  0  0  0  0  0  0  0  0
   58.0279   32.0418   41.0371 H   0  0  0  0  0  0  0  0  0  0  0  0
   58.7577   33.7375   42.7171 H   0  0  0  0  0  0  0  0  0  0  0  0
  1  2  2  0
  2  3  1  0
  3  4  2  3
  4  5  1  0
  5  6  2  0
  6  7  1  0
  6  8  1  0
  8  9  1  0
  9 10  2  0
  9 11  1  0
 11 12  1  0
 12 13  2  0
  3 14  1  0
 14 15  2  0
 15 16  1  0
 15 17  1  0
 17 18  1  0
 18 19  2  0
 19 20  1  0
 20 21  2  0
 21 22  1  0
 22 23  2  0
 23 24  1  0
 24 25  2  0
 24 26  2  0
 24 27  1  0
 27 28  1  0
 28 29  2  0
 28 30  1  0
 30 31  2  0
 31 32  1  0
 32 33  2  0
 33 34  1  0
 34 35  2  0
 17  2  1  0
 23 18  1  0
 35 30  1  0
 12  5  1  0
  1 36  1  0
  1 37  1  0
  4 38  1  0
  7 39  1  0
 14 40  1  0
 16 41  1  0
 16 42  1  0
 16 43  1  0
 19 44  1  0
 20 45  1  0
 22 46  1  0
 31 47  1  0
 32 48  1  0
 33 49  1  0
 34 50  1  0
 35 51  1  0
M  CHG  3   8  -1  11  -1  27  -1
M  END
>  <UniqueID>  (8) 
8

>  <SMILES>  (8) 
C=c1c(=Cc2c(O)[n-]c(=O)[n-]c2=O)cc(C)n1-c1ccncc1S(=O)(=O)[N-]C(=O)c1ccccc1

>  <Energy>  (8) 
108.65765722212389

>  <Genealogy>  (8) 
C=c1c(=Cc2c(O)[n-]c(=O)[n-]c2=O)cc(C)n1-c1ccncc1S(=O)(=O)[N-]C(=O)c1ccccc1 (protonated)
C=c1c(=Cc2c(O)[n-]c(=O)[n-]c2=O)cc(C)n1-c1ccncc1S(=O)(=O)[N-]C(=O)c1ccccc1 (3D coordinates assigned)
C=c1c(=Cc2c(O)[n-]c(=O)[n-]c2=O)cc(C)n1-c1ccncc1S(=O)(=O)[N-]C(=O)c1ccccc1 (optimized conformer: 108.65765722212389 kcal/mol)

>  <smiles>  (8) 
C=c1c(=Cc2c(O)[nH]c(=O)[nH]c2=O)cc(C)n1-c1ccncc1S(=O)(=O)NC(=O)c1ccccc1

>  <score_type>  (8) 
oracle

>  <origin>  (8) 
adg

>  <m_score__min__energy>  (8) 
-15.07

>  <m_primary>  (8) 
energy

$$$$
8:0
     RDKit          3D

 48 50  0  0  0  0  0  0  0  0999 V2000
   55.1490   29.9490   44.7100 N   0  0  0  0  0  0  0  0  0  0  0  0
   56.8050   29.8630   44.2270 S   0  0  0  0  0  0  0  0  0  0  0  0
   57.1950   31.1480   43.5510 O   0  0  0  0  0  0  0  0  0  0  0  0
   56.9880   28.7320   43.2540 O   0  0  0  0  0  0  0  0  0  0  0  0
   57.8150   29.5910   45.6440 C   0  0  0  0  0  0  0  0  0  0  0  0
   58.5970   30.6370   46.1520 C   0  0  0  0  0  0  0  0  0  0  0  0
   59.4100   30.4280   47.2700 C   0  0  0  0  0  0  0  0  0  0  0  0
   59.4470   29.1720   47.8960 C   0  0  0  0  0  0  0  0  0  0  0  0
   60.3240   28.9540   49.1020 C   0  0  0  0  0  0  0  0  0  0  0  0
   59.7060   29.5170   50.3010 N   0  0  0  0  0  0  0  0  0  0  0  0
   60.3830   29.8670   51.5160 C   0  0  0  0  0  0  0  0  0  0  0  0
   59.9950   29.3400   52.5930 O   0  0  0  0  0  0  0  0  0  0  0  0
   61.4880   30.8880   51.5610 C   0  0  0  0  0  0  0  0  0  0  0  0
   61.6100   31.5820   50.2670 N   0  0  0  0  0  0  0  0  0  0  0  0
   62.4900   31.1100   49.3380 C   0  0  0  0  0  0  0  0  0  0  0  0
   62.6360   31.7530   48.1180 C   0  0  0  0  0  0  0  0  0  0  0  0
   61.8680   32.8830   47.8550 C   0  0  0  0  0  0  0  0  0  0  0  0
   62.0150   33.4740   46.7500 O   0  0  0  0  0  0  0  0  0  0  0  0
   60.9680   33.3390   48.7840 N   0  0  0  0  0  0  0  0  0  0  0  0
   60.1860   34.5650   48.5200 C   0  0  0  0  0  0  0  0  0  0  0  0
   59.4150   34.4250   47.2330 C   0  0  0  0  0  0  0  0  0  0  0  0
   59.8660   35.0610   46.0640 C   0  0  0  0  0  0  0  0  0  0  0  0
   59.1220   34.9740   44.8830 C   0  0  0  0  0  0  0  0  0  0  0  0
   57.9210   34.2620   44.8610 C   0  0  0  0  0  0  0  0  0  0  0  0
   57.4620   33.6310   46.0210 C   0  0  0  0  0  0  0  0  0  0  0  0
   56.2900   32.9510   46.0020 F   0  0  0  0  0  0  0  0  0  0  0  0
   58.2060   33.7100   47.2030 C   0  0  0  0  0  0  0  0  0  0  0  0
   60.8380   32.6800   49.9840 C   0  0  0  0  0  0  0  0  0  0  0  0
   59.9990   33.0860   50.8370 O   0  0  0  0  0  0  0  0  0  0  0  0
   58.6850   28.1180   47.3660 C   0  0  0  0  0  0  0  0  0  0  0  0
   57.8710   28.3290   46.2490 C   0  0  0  0  0  0  0  0  0  0  0  0
   54.8250   28.9660   44.8540 H   0  0  0  0  0  0  0  0  0  0  0  0
   58.5711   31.6253   45.6698 H   0  0  0  0  0  0  0  0  0  0  0  0
   60.0242   31.2524   47.6614 H   0  0  0  0  0  0  0  0  0  0  0  0
   60.4756   27.8742   49.2474 H   0  0  0  0  0  0  0  0  0  0  0  0
   61.2879   29.4563   48.9328 H   0  0  0  0  0  0  0  0  0  0  0  0
   61.2663   31.6254   52.3466 H   0  0  0  0  0  0  0  0  0  0  0  0
   62.4360   30.3733   51.7766 H   0  0  0  0  0  0  0  0  0  0  0  0
   63.0879   30.2133   49.5579 H   0  0  0  0  0  0  0  0  0  0  0  0
   63.3482   31.3754   47.3696 H   0  0  0  0  0  0  0  0  0  0  0  0
   59.4821   34.7322   49.3486 H   0  0  0  0  0  0  0  0  0  0  0  0
   60.8752   35.4180   48.4339 H   0  0  0  0  0  0  0  0  0  0  0  0
   60.8077   35.6294   46.0778 H   0  0  0  0  0  0  0  0  0  0  0  0
   59.4839   35.4677   43.9691 H   0  0  0  0  0  0  0  0  0  0  0  0
   57.3364   34.1976   43.9314 H   0  0  0  0  0  0  0  0  0  0  0  0
   57.8428   33.2101   48.1130 H   0  0  0  0  0  0  0  0  0  0  0  0
   58.7288   27.1224   47.8316 H   0  0  0  0  0  0  0  0  0  0  0  0
   57.2720   27.5003   45.8436 H   0  0  0  0  0  0  0  0  0  0  0  0
  1  2  1  0
  2  3  2  0
  2  4  2  0
  2  5  1  0
  5  6  2  0
  6  7  1  0
  7  8  2  0
  8  9  1  0
  9 10  1  0
 10 11  1  0
 11 12  2  0
 11 13  1  0
 13 14  1  0
 14 15  1  0
 15 16  2  0
 16 17  1  0
 17 18  2  0
 17 19  1  0
 19 20  1  0
 20 21  1  0
 21 22  2  0
 22 23  1  0
 23 24  2  0
 24 25  1  0
 25 26  1  0
 25 27  2  0
 19 28  1  0
 28 29  2  0
  8 30  1  0
 30 31  2  0
 31  5  1  0
 28 14  1  0
 27 21  1  0
  1 32  1  0
  6 33  1  0
  7 34  1  0
  9 35  1  0
  9 36  1  0
 13 37  1  0
 13 38  1  0
 15 39  1  0
 16 40  1  0
 20 41  1  0
 20 42  1  0
 22 43  1  0
 23 44  1  0
 24 45  1  0
 27 46  1  0
 30 47  1  0
 31 48  1  0
M  CHG  2   1  -1  10  -1
M  END
>  <UniqueID>  (9) 
9

>  <SMILES>  (9) 
[NH-]S(=O)(=O)c1ccc(C[N-]C(=O)Cn2ccc(=O)n(Cc3cccc(F)c3)c2=O)cc1

>  <Energy>  (9) 
50.58918269846454

>  <Genealogy>  (9) 
[NH-]S(=O)(=O)c1ccc(C[N-]C(=O)Cn2ccc(=O)n(Cc3cccc(F)c3)c2=O)cc1 (protonated)
[NH-]S(=O)(=O)c1ccc(C[N-]C(=O)Cn2ccc(=O)n(Cc3cccc(F)c3)c2=O)cc1 (3D coordinates assigned)
[NH-]S(=O)(=O)c1ccc(C[N-]C(=O)Cn2ccc(=O)n(Cc3cccc(F)c3)c2=O)cc1 (optimized conformer: 50.58918269846454 kcal/mol)

>  <smiles>  (9) 
NS(=O)(=O)c1ccc(CNC(=O)Cn2ccc(=O)n(Cc3cccc(F)c3)c2=O)cc1

>  <score_type>  (9) 
oracle

>  <origin>  (9) 
adg

>  <m_score__min__energy>  (9) 
-12.210000000000001

>  <m_primary>  (9) 
energy

$$$$
9:0
     RDKit          3D

 56 58  0  0  0  0  0  0  0  0999 V2000
   60.0380   34.5360   48.2360 C   0  0  0  0  0  0  0  0  0  0  0  0
   59.9420   35.0610   46.4960 S   0  0  0  0  0  0  0  0  0  0  0  0
   58.9390   33.6580   46.0020 C   0  0  0  0  0  0  0  0  0  0  0  0
   58.1610   33.7260   44.8410 C   0  0  0  0  0  0  0  0  0  0  0  0
   57.3810   32.6310   44.4540 C   0  0  0  0  0  0  0  0  0  0  0  0
   57.3850   31.4520   45.2210 C   0  0  0  0  0  0  0  0  0  0  0  0
   56.6080   30.3340   44.8790 O   0  0  0  0  0  0  0  0  0  0  0  0
   57.1130   29.0660   44.5660 C   0  0  0  0  0  0  0  0  0  0  0  0
   57.4480   28.1920   45.6050 C   0  0  0  0  0  0  0  0  0  0  0  0
   57.9840   26.9320   45.3050 C   0  0  0  0  0  0  0  0  0  0  0  0
   58.3100   25.9600   46.4040 C   0  0  0  0  0  0  0  0  0  0  0  0
   58.2730   24.5910   45.8770 N   0  0  0  0  0  0  0  0  0  0  0  0
   56.9430   24.2480   45.3590 C   0  0  0  0  0  0  0  0  0  0  0  0
   56.8160   22.7640   45.1570 C   0  0  0  0  0  0  0  0  0  0  0  0
   57.7910   21.8710   44.7300 C   0  0  0  0  0  0  0  0  0  0  0  0
   59.2190   22.1870   44.4180 C   0  0  0  0  0  0  0  0  0  0  0  0
   57.2770   20.6240   44.7330 N   0  0  0  0  0  0  0  0  0  0  0  0
   56.0130   20.6860   45.1190 N   0  0  0  0  0  0  0  0  0  0  0  0
   55.1490   19.5200   45.2860 C   0  0  0  0  0  0  0  0  0  0  0  0
   55.7050   21.9700   45.3890 C   0  0  0  0  0  0  0  0  0  0  0  0
   54.4420   22.4150   45.9010 N   0  0  0  0  0  0  0  0  0  0  0  0
   54.0390   22.0170   47.2480 C   0  0  0  0  0  0  0  0  0  0  0  0
   53.6580   23.4010   45.1610 C   0  0  0  0  0  0  0  0  0  0  0  0
   58.1600   26.5630   43.9650 C   0  0  0  0  0  0  0  0  0  0  0  0
   57.8210   27.4660   42.9550 C   0  0  0  0  0  0  0  0  0  0  0  0
   57.3160   28.6870   43.2730 N   0  0  0  0  0  0  0  0  0  0  0  0
   58.1550   31.3980   46.3890 C   0  0  0  0  0  0  0  0  0  0  0  0
   58.9350   32.4930   46.7750 C   0  0  0  0  0  0  0  0  0  0  0  0
   59.8790   35.4056   48.8907 H   0  0  0  0  0  0  0  0  0  0  0  0
   59.2630   33.7810   48.4345 H   0  0  0  0  0  0  0  0  0  0  0  0
   61.0300   34.1041   48.4345 H   0  0  0  0  0  0  0  0  0  0  0  0
   58.1627   34.6418   44.2317 H   0  0  0  0  0  0  0  0  0  0  0  0
   56.7623   32.6923   43.5465 H   0  0  0  0  0  0  0  0  0  0  0  0
   57.2918   28.4916   46.6518 H   0  0  0  0  0  0  0  0  0  0  0  0
   59.3151   26.1743   46.7961 H   0  0  0  0  0  0  0  0  0  0  0  0
   57.5705   26.0606   47.2121 H   0  0  0  0  0  0  0  0  0  0  0  0
   58.9440   24.5400   45.0740 H   0  0  0  0  0  0  0  0  0  0  0  0
   56.1792   24.5810   46.0772 H   0  0  0  0  0  0  0  0  0  0  0  0
   56.8016   24.7494   44.3902 H   0  0  0  0  0  0  0  0  0  0  0  0
   59.7804   22.3112   45.3558 H   0  0  0  0  0  0  0  0  0  0  0  0
   59.6576   21.3642   43.8344 H   0  0  0  0  0  0  0  0  0  0  0  0
   59.2694   23.1180   43.8344 H   0  0  0  0  0  0  0  0  0  0  0  0
   57.7850   19.7430   44.4910 H   0  0  0  0  0  0  0  0  0  0  0  0
   55.0027   19.3226   46.3582 H   0  0  0  0  0  0  0  0  0  0  0  0
   54.1752   19.7144   44.8128 H   0  0  0  0  0  0  0  0  0  0  0  0
   55.6185   18.6450   44.8128 H   0  0  0  0  0  0  0  0  0  0  0  0
   54.6181   22.5889   47.9880 H   0  0  0  0  0  0  0  0  0  0  0  0
   52.9667   22.2203   47.3850 H   0  0  0  0  0  0  0  0  0  0  0  0
   54.2289   20.9422   47.3850 H   0  0  0  0  0  0  0  0  0  0  0  0
   53.1343   24.0596   45.8695 H   0  0  0  0  0  0  0  0  0  0  0  0
   54.3277   24.0019   44.5282 H   0  0  0  0  0  0  0  0  0  0  0  0
   52.9217   22.8839   44.5282 H   0  0  0  0  0  0  0  0  0  0  0  0
   58.5616   25.5710   43.7107 H   0  0  0  0  0  0  0  0  0  0  0  0
   57.9630   27.1884   41.9001 H   0  0  0  0  0  0  0  0  0  0  0  0
   58.1465   30.4883   47.0073 H   0  0  0  0  0  0  0  0  0  0  0  0
   59.5461   32.4375   47.6880 H   0  0  0  0  0  0  0  0  0  0  0  0
  1  2  1  0
  2  3  1  0
  3  4  2  0
  4  5  1  0
  5  6  2  0
  6  7  1  0
  7  8  1  0
  8  9  2  0
  9 10  1  0
 10 11  1  0
 11 12  1  0
 12 13  1  0
 13 14  1  0
 14 15  1  0
 15 16  1  0
 15 17  2  0
 17 18  1  0
 18 19  1  0
 18 20  1  0
 20 21  1  0
 21 22  1  0
 21 23  1  0
 10 24  2  0
 24 25  1  0
 25 26  2  0
  6 27  1  0
 27 28  2  0
 28  3  1  0
 26  8  1  0
 20 14  2  0
  1 29  1  0
  1 30  1  0
  1 31  1  0
  4 32  1  0
  5 33  1  0
  9 34  1  0
 11 35  1  0
 11 36  1  0
 12 37  1  0
 13 38  1  0
 13 39  1  0
 16 40  1  0
 16 41  1  0
 16 42  1  0
 17 43  1  0
 19 44  1  0
 19 45  1  0
 19 46  1  0
 22 47  1  0
 22 48  1  0
 22 49  1  0
 23 50  1  0
 23 51  1  0
 23 52  1  0
 24 53  1  0
 25 54  1  0
 27 55  1  0
 28 56  1  0
M  CHG  1  17   1
M  END
>  <UniqueID>  (10) 
10

>  <SMILES>  (10) 
CSc1ccc(Oc2cc(CNCc3c(C)[nH+]n(C)c3N(C)C)ccn2)cc1

>  <Energy>  (10) 
88.20836511384402

>  <Genealogy>  (10) 
CSc1ccc(Oc2cc(CNCc3c(C)[nH+]n(C)c3N(C)C)ccn2)cc1 (protonated)
CSc1ccc(Oc2cc(CNCc3c(C)[nH+]n(C)c3N(C)C)ccn2)cc1 (3D coordinates assigned)
CSc1ccc(Oc2cc(CNCc3c(C)[nH+]n(C)c3N(C)C)ccn2)cc1 (optimized conformer: 88.20836511384402 kcal/mol)

>  <smiles>  (10) 
CSc1ccc(Oc2cc(CNCc3c(C)nn(C)c3N(C)C)ccn2)cc1

>  <score_type>  (10) 
oracle

>  <origin>  (10) 
adg

>  <m_score__min__energy>  (10) 
-7.1399999999999997

>  <m_primary>  (10) 
energy

$$$$
10:0
     RDKit          3D

 64 68  0  0  0  0  0  0  0  0999 V2000
   56.5840   24.0280   43.7200 C   0  0  0  0  0  0  0  0  0  0  0  0
   56.6300   24.3090   45.1150 O   0  0  0  0  0  0  0  0  0  0  0  0
   57.4370   25.2970   45.6980 C   0  0  0  0  0  0  0  0  0  0  0  0
   56.8160   26.4250   46.2440 C   0  0  0  0  0  0  0  0  0  0  0  0
   57.5750   27.4380   46.8360 C   0  0  0  0  0  0  0  0  0  0  0  0
   58.9780   27.3410   46.8940 C   0  0  0  0  0  0  0  0  0  0  0  0
   59.7990   28.4050   47.5200 C   0  0  0  0  0  0  0  0  0  0  0  0
   60.6380   29.3090   46.8610 C   0  0  0  0  0  0  0  0  0  0  0  0
   61.1550   30.0730   47.8840 C   0  0  0  0  0  0  0  0  0  0  0  0
   62.0520   31.1350   47.8500 C   0  0  0  0  0  0  0  0  0  0  0  0
   62.5330   31.5370   46.7540 O   0  0  0  0  0  0  0  0  0  0  0  0
   62.3940   31.7230   49.0450 N   0  0  0  0  0  0  0  0  0  0  0  0
   63.3500   32.8340   49.1050 C   0  0  0  0  0  0  0  0  0  0  0  0
   62.9570   33.9280   48.1480 C   0  0  0  0  0  0  0  0  0  0  0  0
   63.7300   34.2200   47.1970 O   0  0  0  0  0  0  0  0  0  0  0  0
   61.6670   34.5530   48.2010 N   0  0  0  0  0  0  0  0  0  0  0  0
   60.4090   33.8760   48.0880 C   0  0  0  0  0  0  0  0  0  0  0  0
   59.7990   33.7870   46.8310 C   0  0  0  0  0  0  0  0  0  0  0  0
   58.5630   33.1420   46.6830 C   0  0  0  0  0  0  0  0  0  0  0  0
   57.8070   33.0220   45.0910 S   0  0  0  0  0  0  0  0  0  0  0  0
   58.8510   33.2310   44.0290 O   0  0  0  0  0  0  0  0  0  0  0  0
   56.7780   34.1080   44.9500 O   0  0  0  0  0  0  0  0  0  0  0  0
   57.0390   31.4690   44.8560 N   0  0  0  0  0  0  0  0  0  0  0  0
   57.8140   30.3740   45.4810 C   0  0  0  0  0  0  0  0  0  0  0  0
   58.5730   29.5350   44.4380 C   0  0  0  0  0  0  0  0  0  0  0  0
   57.7220   28.9470   43.4640 O   0  0  0  0  0  0  0  0  0  0  0  0
   56.5850   29.7410   43.1400 C   0  0  0  0  0  0  0  0  0  0  0  0
   56.7660   31.2390   43.4240 C   0  0  0  0  0  0  0  0  0  0  0  0
   57.9340   32.5930   47.8080 C   0  0  0  0  0  0  0  0  0  0  0  0
   58.5200   32.7090   49.0700 C   0  0  0  0  0  0  0  0  0  0  0  0
   59.7500   33.3640   49.2200 C   0  0  0  0  0  0  0  0  0  0  0  0
   60.3070   33.5220   50.4880 O   0  0  0  0  0  0  0  0  0  0  0  0
   61.8800   31.2640   50.1970 N   0  0  0  0  0  0  0  0  0  0  0  0
   61.0010   30.2220   50.2250 C   0  0  0  0  0  0  0  0  0  0  0  0
   60.4480   29.7310   51.5250 C   0  0  0  0  0  0  0  0  0  0  0  0
   60.6580   29.6480   49.0470 N   0  0  0  0  0  0  0  0  0  0  0  0
   59.8310   28.6340   48.8560 N   0  0  0  0  0  0  0  0  0  0  0  0
   59.5990   26.2060   46.3430 C   0  0  0  0  0  0  0  0  0  0  0  0
   58.8390   25.1930   45.7510 C   0  0  0  0  0  0  0  0  0  0  0  0
   56.4080   22.9528   43.5682 H   0  0  0  0  0  0  0  0  0  0  0  0
   55.7679   24.6021   43.2570 H   0  0  0  0  0  0  0  0  0  0  0  0
   57.5406   24.3119   43.2570 H   0  0  0  0  0  0  0  0  0  0  0  0
   55.7204   26.5156   46.2071 H   0  0  0  0  0  0  0  0  0  0  0  0
   57.0715   28.3191   47.2605 H   0  0  0  0  0  0  0  0  0  0  0  0
   60.8376   29.3906   45.7824 H   0  0  0  0  0  0  0  0  0  0  0  0
   63.3692   33.2388   50.1276 H   0  0  0  0  0  0  0  0  0  0  0  0
   64.3452   32.4592   48.8236 H   0  0  0  0  0  0  0  0  0  0  0  0
   60.2935   34.2267   45.9523 H   0  0  0  0  0  0  0  0  0  0  0  0
   58.5404   30.8092   46.1831 H   0  0  0  0  0  0  0  0  0  0  0  0
   57.1062   29.7108   45.9999 H   0  0  0  0  0  0  0  0  0  0  0  0
   59.2947   30.1866   43.9236 H   0  0  0  0  0  0  0  0  0  0  0  0
   59.0678   28.7138   44.9773 H   0  0  0  0  0  0  0  0  0  0  0  0
   56.3701   29.6159   42.0685 H   0  0  0  0  0  0  0  0  0  0  0  0
   55.7617   29.3934   43.7814 H   0  0  0  0  0  0  0  0  0  0  0  0
   57.6097   31.6198   42.8298 H   0  0  0  0  0  0  0  0  0  0  0  0
   55.8392   31.7652   43.1516 H   0  0  0  0  0  0  0  0  0  0  0  0
   56.9738   32.0680   47.6965 H   0  0  0  0  0  0  0  0  0  0  0  0
   58.0144   32.2847   49.9499 H   0  0  0  0  0  0  0  0  0  0  0  0
   61.2720   33.2790   50.6790 H   0  0  0  0  0  0  0  0  0  0  0  0
   60.9865   30.2091   52.3565 H   0  0  0  0  0  0  0  0  0  0  0  0
   59.3791   29.9830   51.5873 H   0  0  0  0  0  0  0  0  0  0  0  0
   60.5717   28.6398   51.5873 H   0  0  0  0  0  0  0  0  0  0  0  0
   60.6946   26.1143   46.3782 H   0  0  0  0  0  0  0  0  0  0  0  0
   59.3393   24.3109   45.3248 H   0  0  0  0  0  0  0  0  0  0  0  0
  1  2  1  0
  2  3  1  0
  3  4  2  0
  4  5  1  0
  5  6  2  0
  6  7  1  0
  7  8  1  0
  8  9  2  0
  9 10  1  0
 10 11  2  0
 10 12  1  0
 12 13  1  0
 13 14  1  0
 14 15  2  0
 14 16  1  0
 16 17  1  0
 17 18  2  0
 18 19  1  0
 19 20  1  0
 20 21  2  0
 20 22  2  0
 20 23  1  0
 23 24  1  0
 24 25  1  0
 25 26  1  0
 26 27  1  0
 27 28  1  0
 19 29  2  0
 29 30  1  0
 30 31  2  0
 31 32  1  0
 12 33  1  0
 33 34  2  0
 34 35  1  0
 34 36  1  0
 36 37  1  0
  6 38  1  0
 38 39  2  0
 39  3  1  0
 37  7  2  0
 36  9  1  0
 31 17  1  0
 28 23  1  0
  1 40  1  0
  1 41  1  0
  1 42  1  0
  4 43  1  0
  5 44  1  0
  8 45  1  0
 13 46  1  0
 13 47  1  0
 18 48  1  0
 24 49  1  0
 24 50  1  0
 25 51  1  0
 25 52  1  0
 27 53  1  0
 27 54  1  0
 28 55  1  0
 28 56  1  0
 29 57  1  0
 30 58  1  0
 32 59  1  0
 35 60  1  0
 35 61  1  0
 35 62  1  0
 38 63  1  0
 39 64  1  0
M  CHG  1  16  -1
M  END
>  <UniqueID>  (11) 
11

>  <SMILES>  (11) 
COc1ccc(-c2cc3c(=O)n(CC(=O)[N-]c4cc(S(=O)(=O)N5CCOCC5)ccc4O)nc(C)n3n2)cc1

>  <Energy>  (11) 
124.39693392467933

>  <Genealogy>  (11) 
COc1ccc(-c2cc3c(=O)n(CC(=O)[N-]c4cc(S(=O)(=O)N5CCOCC5)ccc4O)nc(C)n3n2)cc1 (protonated)
COc1ccc(-c2cc3c(=O)n(CC(=O)[N-]c4cc(S(=O)(=O)N5CCOCC5)ccc4O)nc(C)n3n2)cc1 (3D coordinates assigned)
COc1ccc(-c2cc3c(=O)n(CC(=O)[N-]c4cc(S(=O)(=O)N5CCOCC5)ccc4O)nc(C)n3n2)cc1 (nonaromatic ring conformer: 124.39693392467933 kcal/mol)

>  <smiles>  (11) 
COc1ccc(-c2cc3c(=O)n(CC(=O)Nc4cc(S(=O)(=O)N5CCOCC5)ccc4O)nc(C)n3n2)cc1

>  <score_type>  (11) 
oracle

>  <origin>  (11) 
adg

>  <m_score__min__energy>  (11) 
-11.640000000000001

>  <m_primary>  (11) 
energy

$$$$
11:0
     RDKit          3D

 48 51  0  0  0  0  0  0  0  0999 V2000
   56.7520   28.0100   53.9950 H   0  0  0  0  0  0  0  0  0  0  0  0
   57.3860   28.2850   53.2560 O   0  0  0  0  0  0  0  0  0  0  0  0
   57.4040   29.5790   52.7340 C   0  0  0  0  0  0  0  0  0  0  0  0
   57.9150   29.7800   51.4470 C   0  0  0  0  0  0  0  0  0  0  0  0
   58.3028   28.9245   50.8746 H   0  0  0  0  0  0  0  0  0  0  0  0
   57.9370   31.0640   50.8800 C   0  0  0  0  0  0  0  0  0  0  0  0
   58.5180   31.2980   49.5440 C   0  0  0  0  0  0  0  0  0  0  0  0
   58.5787   30.4449   48.8523 H   0  0  0  0  0  0  0  0  0  0  0  0
   58.9770   32.4850   49.1190 C   0  0  0  0  0  0  0  0  0  0  0  0
   59.8130   33.4780   49.8150 C   0  0  0  0  0  0  0  0  0  0  0  0
   60.2800   33.3560   50.9770 O   0  0  0  0  0  0  0  0  0  0  0  0
   60.1150   34.5940   48.9780 N   0  0  0  0  0  0  0  0  0  0  0  0
   59.4710   34.2700   47.7480 C   0  0  0  0  0  0  0  0  0  0  0  0
   59.4790   35.0530   46.5950 C   0  0  0  0  0  0  0  0  0  0  0  0
   60.0084   36.0170   46.5727 H   0  0  0  0  0  0  0  0  0  0  0  0
   58.7950   34.5820   45.4620 C   0  0  0  0  0  0  0  0  0  0  0  0
   58.7861   35.1818   44.5400 H   0  0  0  0  0  0  0  0  0  0  0  0
   58.1200   33.3450   45.5000 C   0  0  0  0  0  0  0  0  0  0  0  0
   57.5876   32.9852   44.6072 H   0  0  0  0  0  0  0  0  0  0  0  0
   58.1230   32.5690   46.6710 C   0  0  0  0  0  0  0  0  0  0  0  0
   57.5973   31.6035   46.7093 H   0  0  0  0  0  0  0  0  0  0  0  0
   58.8110   33.0550   47.7860 C   0  0  0  0  0  0  0  0  0  0  0  0
   57.4910   32.1540   51.6360 C   0  0  0  0  0  0  0  0  0  0  0  0
   57.5447   33.1691   51.2158 H   0  0  0  0  0  0  0  0  0  0  0  0
   56.9780   31.9610   52.9210 C   0  0  0  0  0  0  0  0  0  0  0  0
   56.6121   32.8230   53.4981 H   0  0  0  0  0  0  0  0  0  0  0  0
   56.9260   30.6700   53.4830 C   0  0  0  0  0  0  0  0  0  0  0  0
   56.4160   30.4350   54.7720 O   0  0  0  0  0  0  0  0  0  0  0  0
   55.1130   29.9310   55.0640 C   0  0  0  0  0  0  0  0  0  0  0  0
   54.5048   30.7391   55.4965 H   0  0  0  0  0  0  0  0  0  0  0  0
   55.2142   29.0974   55.7745 H   0  0  0  0  0  0  0  0  0  0  0  0
   54.4340   29.4170   53.8210 C   0  0  0  0  0  0  0  0  0  0  0  0
   54.6690   28.2350   53.4470 O   0  0  0  0  0  0  0  0  0  0  0  0
   53.5310   30.2740   53.0100 C   0  0  0  0  0  0  0  0  0  0  0  0
   53.8530   30.5590   51.6720 C   0  0  0  0  0  0  0  0  0  0  0  0
   54.7739   30.1475   51.2332 H   0  0  0  0  0  0  0  0  0  0  0  0
   53.0140   31.3600   50.8950 C   0  0  0  0  0  0  0  0  0  0  0  0
   53.2751   31.5727   49.8478 H   0  0  0  0  0  0  0  0  0  0  0  0
   51.8450   31.8920   51.4420 C   0  0  0  0  0  0  0  0  0  0  0  0
   51.0190   32.6870   50.6560 O   0  0  0  0  0  0  0  0  0  0  0  0
   51.5050   31.6300   52.7760 C   0  0  0  0  0  0  0  0  0  0  0  0
   50.3220   32.1890   53.2850 O   0  0  0  0  0  0  0  0  0  0  0  0
   50.2660   33.3650   54.0850 C   0  0  0  0  0  0  0  0  0  0  0  0
   50.2793   33.0857   55.1489 H   0  0  0  0  0  0  0  0  0  0  0  0
   51.1348   34.0018   53.8622 H   0  0  0  0  0  0  0  0  0  0  0  0
   49.3406   33.9163   53.8622 H   0  0  0  0  0  0  0  0  0  0  0  0
   52.3540   30.8210   53.5580 C   0  0  0  0  0  0  0  0  0  0  0  0
   52.0949   30.6146   54.6069 H   0  0  0  0  0  0  0  0  0  0  0  0
  1  2  1  0
  2  3  1  0
  3  4  2  0
  4  5  1  0
  4  6  1  0
  6  7  1  0
  7  8  1  0
  7  9  2  0
  9 10  1  0
 10 11  2  0
 10 12  1  0
 12 13  1  0
 13 14  2  0
 14 15  1  0
 14 16  1  0
 16 17  1  0
 16 18  2  0
 18 19  1  0
 18 20  1  0
 20 21  1  0
 20 22  2  0
  6 23  2  0
 23 24  1  0
 23 25  1  0
 25 26  1  0
 25 27  2  0
 27 28  1  0
 28 29  1  0
 29 30  1  0
 29 31  1  0
 29 32  1  0
 32 33  2  0
 32 34  1  0
 34 35  2  0
 35 36  1  0
 35 37  1  0
 37 38  1  0
 37 39  2  0
 39 40  1  0
 39 41  1  0
 41 42  1  0
 42 43  1  0
 43 44  1  0
 43 45  1  0
 43 46  1  0
 41 47  2  0
 47 48  1  0
 27  3  1  0
 47 34  1  0
 22  9  1  0
 22 13  1  0
M  CHG  2  12  -1  40  -1
M  END
>  <UniqueID>  (12) 
12

>  <SMILES>  (12) 
COc1cc(C(=O)COc2ccc(/C=C3\C(=O)[N-]c4ccccc43)cc2O)ccc1[O-]

>  <Energy>  (12) 
90.12636423143896

>  <Genealogy>  (12) 
COc1cc(C(=O)COc2ccc(C=C3C(=O)[N-]c4ccccc43)cc2O)ccc1[O-] (protonated)
COc1cc(C(=O)COc2ccc(/C=C3\C(=O)[N-]c4ccccc43)cc2O)ccc1[O-] (cis-trans isomerization)
COc1cc(C(=O)COc2ccc(/C=C3\C(=O)[N-]c4ccccc43)cc2O)ccc1[O-] (3D coordinates assigned)
COc1cc(C(=O)COc2ccc(/C=C3\C(=O)[N-]c4ccccc43)cc2O)ccc1[O-] (nonaromatic ring conformer: 90.12636423143896 kcal/mol)

>  <smiles>  (12) 
COc1cc(C(=O)COc2ccc(C=C3C(=O)Nc4ccccc43)cc2O)ccc1O

>  <score_type>  (12) 
oracle

>  <origin>  (12) 
adg

>  <m_score__min__energy>  (12) 
-14.16

>  <m_primary>  (12) 
energy

$$$$
12:0
     RDKit          3D

 62 66  0  0  0  0  0  0  0  0999 V2000
   63.6526   34.2758   47.4480 H   0  0  0  0  0  0  0  0  0  0  0  0
   62.7200   33.7640   47.7280 C   0  0  0  0  0  0  0  0  0  0  0  0
   62.4110   33.5820   49.0390 N   0  0  0  0  0  0  0  0  0  0  0  0
   61.2640   32.9480   49.4090 C   0  0  0  0  0  0  0  0  0  0  0  0
   60.9540   32.7880   50.6630 N   0  0  0  0  0  0  0  0  0  0  0  0
   59.6320   32.6880   51.2180 C   0  0  0  0  0  0  0  0  0  0  0  0
   59.0220   33.7660   51.8870 C   0  0  0  0  0  0  0  0  0  0  0  0
   59.5469   34.7294   51.9662 H   0  0  0  0  0  0  0  0  0  0  0  0
   57.7540   33.6170   52.4500 C   0  0  0  0  0  0  0  0  0  0  0  0
   57.2759   34.4678   52.9575 H   0  0  0  0  0  0  0  0  0  0  0  0
   57.0890   32.3890   52.3710 C   0  0  0  0  0  0  0  0  0  0  0  0
   56.0861   32.2789   52.8093 H   0  0  0  0  0  0  0  0  0  0  0  0
   57.7000   31.2940   51.7320 C   0  0  0  0  0  0  0  0  0  0  0  0
   57.0810   30.0390   51.6350 O   0  0  0  0  0  0  0  0  0  0  0  0
   56.3830   29.4020   52.7010 C   0  0  0  0  0  0  0  0  0  0  0  0
   56.7766   29.7612   53.6633 H   0  0  0  0  0  0  0  0  0  0  0  0
   55.3113   29.6399   52.6314 H   0  0  0  0  0  0  0  0  0  0  0  0
   56.5222   28.3131   52.6314 H   0  0  0  0  0  0  0  0  0  0  0  0
   58.9720   31.4530   51.1700 C   0  0  0  0  0  0  0  0  0  0  0  0
   59.4606   30.5959   50.6836 H   0  0  0  0  0  0  0  0  0  0  0  0
   60.4050   32.5050   48.4540 N   0  0  0  0  0  0  0  0  0  0  0  0
   60.6780   32.6640   47.1290 C   0  0  0  0  0  0  0  0  0  0  0  0
   59.7980   32.1900   46.1520 O   0  0  0  0  0  0  0  0  0  0  0  0
   59.4780   30.8350   46.0230 C   0  0  0  0  0  0  0  0  0  0  0  0
   60.1120   29.9150   46.8580 C   0  0  0  0  0  0  0  0  0  0  0  0
   60.8461   30.2658   47.5983 H   0  0  0  0  0  0  0  0  0  0  0  0
   59.8230   28.5550   46.7620 C   0  0  0  0  0  0  0  0  0  0  0  0
   60.3309   27.8426   47.4287 H   0  0  0  0  0  0  0  0  0  0  0  0
   58.8920   28.0850   45.8250 C   0  0  0  0  0  0  0  0  0  0  0  0
   58.6610   26.6720   45.7100 N   0  0  0  0  0  0  0  0  0  0  0  0
   59.3700   26.0810   45.2210 H   0  0  0  0  0  0  0  0  0  0  0  0
   57.4630   26.0400   46.1750 C   0  0  0  0  0  0  0  0  0  0  0  0
   56.5180   26.7250   46.6540 O   0  0  0  0  0  0  0  0  0  0  0  0
   57.3660   24.6140   46.1480 N   0  0  0  0  0  0  0  0  0  0  0  0
   56.9440   23.8170   45.1990 C   0  0  0  0  0  0  0  0  0  0  0  0
   57.7670   22.8670   44.5130 C   0  0  0  0  0  0  0  0  0  0  0  0
   59.2010   22.5650   44.8720 C   0  0  0  0  0  0  0  0  0  0  0  0
   59.3080   22.5425   45.9666 H   0  0  0  0  0  0  0  0  0  0  0  0
   59.4851   21.5873   44.4556 H   0  0  0  0  0  0  0  0  0  0  0  0
   59.8553   23.3450   44.4556 H   0  0  0  0  0  0  0  0  0  0  0  0
   57.2010   22.1200   43.4650 C   0  0  0  0  0  0  0  0  0  0  0  0
   57.8296   21.4175   42.8981 H   0  0  0  0  0  0  0  0  0  0  0  0
   55.8910   22.2540   43.1440 N   0  0  0  0  0  0  0  0  0  0  0  0
   55.0760   23.1060   43.8100 C   0  0  0  0  0  0  0  0  0  0  0  0
   54.0153   23.1796   43.5282 H   0  0  0  0  0  0  0  0  0  0  0  0
   55.5740   23.8940   44.8550 C   0  0  0  0  0  0  0  0  0  0  0  0
   54.6460   24.8460   45.5670 C   0  0  0  0  0  0  0  0  0  0  0  0
   54.7621   24.7268   46.6543 H   0  0  0  0  0  0  0  0  0  0  0  0
   54.8926   25.8797   45.2830 H   0  0  0  0  0  0  0  0  0  0  0  0
   53.6064   24.6258   45.2830 H   0  0  0  0  0  0  0  0  0  0  0  0
   58.2420   29.0040   44.9670 C   0  0  0  0  0  0  0  0  0  0  0  0
   57.2830   28.5780   44.0240 C   0  0  0  0  0  0  0  0  0  0  0  0
   57.0292   27.5104   43.9481 H   0  0  0  0  0  0  0  0  0  0  0  0
   56.6540   29.5000   43.1870 C   0  0  0  0  0  0  0  0  0  0  0  0
   55.9107   29.1545   42.4534 H   0  0  0  0  0  0  0  0  0  0  0  0
   56.9620   30.8560   43.2750 C   0  0  0  0  0  0  0  0  0  0  0  0
   56.4660   31.5758   42.6073 H   0  0  0  0  0  0  0  0  0  0  0  0
   57.8980   31.3030   44.2080 C   0  0  0  0  0  0  0  0  0  0  0  0
   58.1355   32.3751   44.2723 H   0  0  0  0  0  0  0  0  0  0  0  0
   58.5410   30.3920   45.0680 C   0  0  0  0  0  0  0  0  0  0  0  0
   61.8550   33.3020   46.7400 C   0  0  0  0  0  0  0  0  0  0  0  0
   62.0950   33.4374   45.6751 H   0  0  0  0  0  0  0  0  0  0  0  0
  1  2  1  0
  2  3  1  0
  3  4  1  0
  4  5  2  0
  5  6  1  0
  6  7  2  0
  7  8  1  0
  7  9  1  0
  9 10  1  0
  9 11  2  0
 11 12  1  0
 11 13  1  0
 13 14  1  0
 14 15  1  0
 15 16  1  0
 15 17  1  0
 15 18  1  0
 13 19  2  0
 19 20  1  0
  4 21  1  0
 21 22  2  0
 22 23  1  0
 23 24  1  0
 24 25  2  0
 25 26  1  0
 25 27  1  0
 27 28  1  0
 27 29  2  0
 29 30  1  0
 30 31  1  0
 30 32  1  0
 32 33  2  0
 32 34  1  0
 34 35  2  3
 35 36  1  0
 36 37  1  0
 37 38  1  0
 37 39  1  0
 37 40  1  0
 36 41  2  0
 41 42  1  0
 41 43  1  0
 43 44  1  0
 44 45  1  0
 44 46  2  0
 46 47  1  0
 47 48  1  0
 47 49  1  0
 47 50  1  0
 29 51  1  0
 51 52  2  0
 52 53  1  0
 52 54  1  0
 54 55  1  0
 54 56  2  0
 56 57  1  0
 56 58  1  0
 58 59  1  0
 58 60  2  0
 22 61  1  0
 61 62  1  0
 61  2  2  0
 19  6  1  0
 60 24  1  0
 46 35  1  0
 60 51  1  0
M  CHG  2   3  -1  43  -1
M  END
>  <UniqueID>  (13) 
13

>  <SMILES>  (13) 
COc1cccc(/N=c2/nc(Oc3ccc(NC(=O)N=c4c(C)c[n-]cc4C)c4ccccc34)cc[n-]2)c1

>  <Energy>  (13) 
110.51857627740615

>  <Genealogy>  (13) 
COc1cccc(N=c2nc(Oc3ccc(NC(=O)N=c4c(C)c[n-]cc4C)c4ccccc34)cc[n-]2)c1 (protonated)
COc1cccc(/N=c2/nc(Oc3ccc(NC(=O)N=c4c(C)c[n-]cc4C)c4ccccc34)cc[n-]2)c1 (cis-trans isomerization)
COc1cccc(/N=c2/nc(Oc3ccc(NC(=O)N=c4c(C)c[n-]cc4C)c4ccccc34)cc[n-]2)c1 (3D coordinates assigned)
COc1cccc(/N=c2/nc(Oc3ccc(NC(=O)N=c4c(C)c[n-]cc4C)c4ccccc34)cc[n-]2)c1 (optimized conformer: 110.51857627740615 kcal/mol)

>  <smiles>  (13) 
COc1cccc(N=c2nc(Oc3ccc(NC(=O)N=c4c(C)c[nH]cc4C)c4ccccc34)cc[nH]2)c1

>  <score_type>  (13) 
oracle

>  <origin>  (13) 
adg

>  <m_score__min__energy>  (13) 
-12.32

>  <m_primary>  (13) 
energy

$$$$
13:0
     RDKit          3D

 38 40  0  0  0  0  0  0  0  0999 V2000
   58.0940   32.7180   42.1720 N   0  0  0  0  0  0  0  0  0  0  0  0
   58.1510   31.9860   43.0660 C   0  0  0  0  0  0  0  0  0  0  0  0
   58.2220   31.0750   44.1790 C   0  0  0  0  0  0  0  0  0  0  0  0
   57.7340   29.7860   44.1770 C   0  0  0  0  0  0  0  0  0  0  0  0
   57.8850   29.2410   45.4050 N   0  0  0  0  0  0  0  0  0  0  0  0
   57.4960   27.9120   45.8070 C   0  0  0  0  0  0  0  0  0  0  0  0
   58.4300   27.0370   46.3860 C   0  0  0  0  0  0  0  0  0  0  0  0
   58.0530   25.7490   46.7730 C   0  0  0  0  0  0  0  0  0  0  0  0
   56.7330   25.3000   46.5920 C   0  0  0  0  0  0  0  0  0  0  0  0
   56.3680   23.9240   47.0150 C   0  0  0  0  0  0  0  0  0  0  0  0
   55.1630   23.5920   47.1720 O   0  0  0  0  0  0  0  0  0  0  0  0
   57.3580   22.9760   47.2470 O   0  0  0  0  0  0  0  0  0  0  0  0
   55.7910   26.1790   46.0120 C   0  0  0  0  0  0  0  0  0  0  0  0
   54.4710   25.7910   45.8120 O   0  0  0  0  0  0  0  0  0  0  0  0
   56.1760   27.4680   45.6240 C   0  0  0  0  0  0  0  0  0  0  0  0
   58.4600   30.1800   46.1890 C   0  0  0  0  0  0  0  0  0  0  0  0
   58.6870   31.3360   45.4590 C   0  0  0  0  0  0  0  0  0  0  0  0
   59.2800   32.5910   45.9800 C   0  0  0  0  0  0  0  0  0  0  0  0
   58.5190   33.7700   46.0620 C   0  0  0  0  0  0  0  0  0  0  0  0
   59.0920   34.9490   46.5430 C   0  0  0  0  0  0  0  0  0  0  0  0
   60.4300   34.9670   46.9440 C   0  0  0  0  0  0  0  0  0  0  0  0
   61.2030   33.8020   46.8680 C   0  0  0  0  0  0  0  0  0  0  0  0
   62.8940   33.8280   47.3560 S   0  0  0  0  0  0  0  0  0  0  0  0
   63.4890   32.2080   47.4510 N   0  0  0  0  0  0  0  0  0  0  0  0
   63.7020   34.6060   46.3530 O   0  0  0  0  0  0  0  0  0  0  0  0
   63.0260   34.4910   48.6980 O   0  0  0  0  0  0  0  0  0  0  0  0
   60.6290   32.6200   46.3770 C   0  0  0  0  0  0  0  0  0  0  0  0
   57.2894   29.2780   43.3085 H   0  0  0  0  0  0  0  0  0  0  0  0
   59.4678   27.3692   46.5360 H   0  0  0  0  0  0  0  0  0  0  0  0
   58.7980   25.0777   47.2250 H   0  0  0  0  0  0  0  0  0  0  0  0
   55.4348   28.1420   45.1698 H   0  0  0  0  0  0  0  0  0  0  0  0
   58.7112   30.0462   47.2515 H   0  0  0  0  0  0  0  0  0  0  0  0
   57.4656   33.7638   45.7453 H   0  0  0  0  0  0  0  0  0  0  0  0
   58.4881   35.8662   46.6063 H   0  0  0  0  0  0  0  0  0  0  0  0
   60.8774   35.8987   47.3204 H   0  0  0  0  0  0  0  0  0  0  0  0
   64.4810   32.2280   47.1240 H   0  0  0  0  0  0  0  0  0  0  0  0
   63.5090   31.9490   48.4630 H   0  0  0  0  0  0  0  0  0  0  0  0
   61.2392   31.7079   46.3018 H   0  0  0  0  0  0  0  0  0  0  0  0
  1  2  3  0
  2  3  1  0
  3  4  2  0
  4  5  1  0
  5  6  1  0
  6  7  2  0
  7  8  1  0
  8  9  2  0
  9 10  1  0
 10 11  2  0
 10 12  1  0
  9 13  1  0
 13 14  1  0
 13 15  2  0
  5 16  1  0
 16 17  2  0
 17 18  1  0
 18 19  2  0
 19 20  1  0
 20 21  2  0
 21 22  1  0
 22 23  1  0
 23 24  1  0
 23 25  2  0
 23 26  2  0
 22 27  2  0
 17  3  1  0
 27 18  1  0
 15  6  1  0
  4 28  1  0
  7 29  1  0
  8 30  1  0
 15 31  1  0
 16 32  1  0
 19 33  1  0
 20 34  1  0
 21 35  1  0
 24 36  1  0
 24 37  1  0
 27 38  1  0
M  CHG  2  12  -1  14  -1
M  END
>  <UniqueID>  (14) 
14

>  <SMILES>  (14) 
N#Cc1cn(-c2ccc(C(=O)[O-])c([O-])c2)cc1-c1cccc(S(N)(=O)=O)c1

>  <Energy>  (14) 
75.64348856622337

>  <Genealogy>  (14) 
N#Cc1cn(-c2ccc(C(=O)[O-])c([O-])c2)cc1-c1cccc(S(N)(=O)=O)c1 (protonated)
N#Cc1cn(-c2ccc(C(=O)[O-])c([O-])c2)cc1-c1cccc(S(N)(=O)=O)c1 (3D coordinates assigned)
N#Cc1cn(-c2ccc(C(=O)[O-])c([O-])c2)cc1-c1cccc(S(N)(=O)=O)c1 (optimized conformer: 75.64348856622337 kcal/mol)

>  <smiles>  (14) 
N#Cc1cn(-c2ccc(C(=O)O)c(O)c2)cc1-c1cccc(S(N)(=O)=O)c1

>  <score_type>  (14) 
oracle

>  <origin>  (14) 
adg

>  <m_score__min__energy>  (14) 
-13.039999999999999

>  <m_primary>  (14) 
energy

$$$$
14:0
     RDKit          3D

 20 21  0  0  0  0  0  0  0  0999 V2000
   60.9740   28.5600   44.9290 C   0  0  0  0  0  0  0  0  0  0  0  0
   59.8710   28.7580   45.9710 C   0  0  0  0  0  0  0  0  0  0  0  0
   60.4710   29.2700   47.2820 C   0  0  0  0  0  0  0  0  0  0  0  0
   58.9110   29.7620   45.4620 N   0  0  0  0  0  0  0  0  0  0  0  0
   57.6650   29.4510   45.2920 C   0  0  0  0  0  0  0  0  0  0  0  0
   56.6170   30.2130   44.8390 C   0  0  0  0  0  0  0  0  0  0  0  0
   56.6700   31.4200   44.4850 O   0  0  0  0  0  0  0  0  0  0  0  0
   55.4910   29.4620   44.8280 N   0  0  0  0  0  0  0  0  0  0  0  0
   55.8180   28.2480   45.2650 N   0  0  0  0  0  0  0  0  0  0  0  0
   57.1340   28.2330   45.5480 C   0  0  0  0  0  0  0  0  0  0  0  0
   57.8690   27.2330   46.0050 C   0  0  0  0  0  0  0  0  0  0  0  0
   59.2370   27.4770   46.2210 O   0  0  0  0  0  0  0  0  0  0  0  0
   61.9334   28.3878   45.4388 H   0  0  0  0  0  0  0  0  0  0  0  0
   60.7321   27.6909   44.2996 H   0  0  0  0  0  0  0  0  0  0  0  0
   61.0494   29.4590   44.2996 H   0  0  0  0  0  0  0  0  0  0  0  0
   59.9388   28.8159   48.1308 H   0  0  0  0  0  0  0  0  0  0  0  0
   61.5358   28.9979   47.3289 H   0  0  0  0  0  0  0  0  0  0  0  0
   60.3698   30.3643   47.3289 H   0  0  0  0  0  0  0  0  0  0  0  0
   55.1470   27.4540   45.3620 H   0  0  0  0  0  0  0  0  0  0  0  0
   57.4266   26.2467   46.2087 H   0  0  0  0  0  0  0  0  0  0  0  0
  1  2  1  0
  2  3  1  0
  2  4  1  0
  4  5  2  0
  5  6  1  0
  6  7  2  0
  6  8  1  0
  8  9  1  0
  9 10  1  0
 10 11  2  0
 11 12  1  0
 12  2  1  0
 10  5  1  0
  1 13  1  0
  1 14  1  0
  1 15  1  0
  3 16  1  0
  3 17  1  0
  3 18  1  0
  9 19  1  0
 11 20  1  0
M  CHG  1   8  -1
M  END
>  <UniqueID>  (15) 
15

>  <SMILES>  (15) 
CC1(C)N=c2c(=O)[n-][nH]c2=CO1

>  <Energy>  (15) 
59.77601144594463

>  <Genealogy>  (15) 
CC1(C)N=c2c(=O)[n-][nH]c2=CO1 (protonated)
CC1(C)N=c2c(=O)[n-][nH]c2=CO1 (3D coordinates assigned)
CC1(C)N=c2c(=O)[n-][nH]c2=CO1 (nonaromatic ring conformer: 59.77601144594463 kcal/mol)

>  <smiles>  (15) 
CC1(C)N=c2c(=O)[nH][nH]c2=CO1

>  <score_type>  (15) 
oracle

>  <origin>  (15) 
adg

>  <m_score__min__energy>  (15) 
-7.5999999999999996

>  <m_primary>  (15) 
energy

$$$$
15:0
     RDKit          3D

 59 62  0  0  0  0  0  0  0  0999 V2000
   59.6105   25.0082   45.8186 H   0  0  0  0  0  0  0  0  0  0  0  0
   59.9270   25.9390   46.3120 C   0  0  0  0  0  0  0  0  0  0  0  0
   60.9185   26.0015   46.7842 H   0  0  0  0  0  0  0  0  0  0  0  0
   59.0990   27.0040   46.3380 C   0  0  0  0  0  0  0  0  0  0  0  0
   59.5170   28.1970   46.9760 C   0  0  0  0  0  0  0  0  0  0  0  0
   60.6510   28.2650   47.5320 O   0  0  0  0  0  0  0  0  0  0  0  0
   58.6560   29.3110   46.9810 C   0  0  0  0  0  0  0  0  0  0  0  0
   59.0020   30.4630   47.5900 C   0  0  0  0  0  0  0  0  0  0  0  0
   58.2507   30.9484   48.2303 H   0  0  0  0  0  0  0  0  0  0  0  0
   60.3200   31.1200   47.4580 C   0  0  0  0  0  0  0  0  0  0  0  0
   60.5870   32.7480   47.8030 S   0  0  0  0  0  0  0  0  0  0  0  0
   62.2330   32.5790   47.5000 C   0  0  0  0  0  0  0  0  0  0  0  0
   63.4360   33.9010   47.6140 S   0  0  0  0  0  0  0  0  0  0  0  0
   64.0000   33.4810   49.3040 C   0  0  0  0  0  0  0  0  0  0  0  0
   65.0188   33.8705   49.4468 H   0  0  0  0  0  0  0  0  0  0  0  0
   63.3001   33.9344   50.0214 H   0  0  0  0  0  0  0  0  0  0  0  0
   64.0100   31.9660   49.5390 C   0  0  0  0  0  0  0  0  0  0  0  0
   63.2619   31.4949   48.8844 H   0  0  0  0  0  0  0  0  0  0  0  0
   65.0152   31.5813   49.3119 H   0  0  0  0  0  0  0  0  0  0  0  0
   63.6890   31.6490   50.9490 N   0  0  0  0  0  0  0  0  0  0  0  0
   62.3830   32.1950   51.3600 C   0  0  0  0  0  0  0  0  0  0  0  0
   62.2939   32.1208   52.4539 H   0  0  0  0  0  0  0  0  0  0  0  0
   62.3305   33.2431   51.0304 H   0  0  0  0  0  0  0  0  0  0  0  0
   61.2100   31.4250   50.7080 C   0  0  0  0  0  0  0  0  0  0  0  0
   60.4368   31.2530   51.4713 H   0  0  0  0  0  0  0  0  0  0  0  0
   60.8372   32.0392   49.8751 H   0  0  0  0  0  0  0  0  0  0  0  0
   61.5980   30.1730   50.1690 O   0  0  0  0  0  0  0  0  0  0  0  0
   62.4180   29.4840   51.0870 C   0  0  0  0  0  0  0  0  0  0  0  0
   61.9149   29.4469   52.0645 H   0  0  0  0  0  0  0  0  0  0  0  0
   62.5936   28.4651   50.7115 H   0  0  0  0  0  0  0  0  0  0  0  0
   63.7760   30.1990   51.2420 C   0  0  0  0  0  0  0  0  0  0  0  0
   64.1278   30.0683   52.2760 H   0  0  0  0  0  0  0  0  0  0  0  0
   64.4740   29.7525   50.5186 H   0  0  0  0  0  0  0  0  0  0  0  0
   62.5440   31.3110   47.1590 N   0  0  0  0  0  0  0  0  0  0  0  0
   61.4850   30.5030   47.1450 N   0  0  0  0  0  0  0  0  0  0  0  0
   61.5850   29.4830   46.9540 H   0  0  0  0  0  0  0  0  0  0  0  0
   57.4430   29.1980   46.3840 N   0  0  0  0  0  0  0  0  0  0  0  0
   57.0370   28.0590   45.7750 C   0  0  0  0  0  0  0  0  0  0  0  0
   55.8940   28.0300   45.2410 O   0  0  0  0  0  0  0  0  0  0  0  0
   57.8510   26.9590   45.7450 N   0  0  0  0  0  0  0  0  0  0  0  0
   57.3650   25.7680   45.0910 C   0  0  0  0  0  0  0  0  0  0  0  0
   57.6470   25.5560   43.7360 C   0  0  0  0  0  0  0  0  0  0  0  0
   58.2401   26.2957   43.1782 H   0  0  0  0  0  0  0  0  0  0  0  0
   57.1790   24.4100   43.0890 C   0  0  0  0  0  0  0  0  0  0  0  0
   57.4058   24.2507   42.0245 H   0  0  0  0  0  0  0  0  0  0  0  0
   56.4190   23.4590   43.7930 C   0  0  0  0  0  0  0  0  0  0  0  0
   55.9280   22.2940   43.1860 O   0  0  0  0  0  0  0  0  0  0  0  0
   56.6280   21.0560   43.1350 C   0  0  0  0  0  0  0  0  0  0  0  0
   56.8266   20.7047   44.1583 H   0  0  0  0  0  0  0  0  0  0  0  0
   56.0174   20.3111   42.6036 H   0  0  0  0  0  0  0  0  0  0  0  0
   57.5810   21.1953   42.6036 H   0  0  0  0  0  0  0  0  0  0  0  0
   56.1380   23.6730   45.1470 C   0  0  0  0  0  0  0  0  0  0  0  0
   55.5454   22.9314   45.7028 H   0  0  0  0  0  0  0  0  0  0  0  0
   56.6050   24.8270   45.8070 C   0  0  0  0  0  0  0  0  0  0  0  0
   56.3370   25.0720   47.1630 O   0  0  0  0  0  0  0  0  0  0  0  0
   56.7290   24.2150   48.2310 C   0  0  0  0  0  0  0  0  0  0  0  0
   56.5064   24.7016   49.1921 H   0  0  0  0  0  0  0  0  0  0  0  0
   56.1749   23.2672   48.1628 H   0  0  0  0  0  0  0  0  0  0  0  0
   57.8084   24.0144   48.1628 H   0  0  0  0  0  0  0  0  0  0  0  0
  1  2  1  0
  2  3  1  0
  2  4  2  0
  4  5  1  0
  5  6  2  0
  5  7  1  0
  7  8  2  0
  8  9  1  0
  8 10  1  0
 10 11  1  0
 11 12  1  0
 12 13  1  0
 13 14  1  0
 14 15  1  0
 14 16  1  0
 14 17  1  0
 17 18  1  0
 17 19  1  0
 17 20  1  0
 20 21  1  0
 21 22  1  0
 21 23  1  0
 21 24  1  0
 24 25  1  0
 24 26  1  0
 24 27  1  0
 27 28  1  0
 28 29  1  0
 28 30  1  0
 28 31  1  0
 31 32  1  0
 31 33  1  0
 12 34  2  0
 34 35  1  0
 35 36  1  0
  7 37  1  0
 37 38  1  0
 38 39  2  0
 38 40  1  0
 40 41  1  0
 41 42  2  0
 42 43  1  0
 42 44  1  0
 44 45  1  0
 44 46  2  0
 46 47  1  0
 47 48  1  0
 48 49  1  0
 48 50  1  0
 48 51  1  0
 46 52  1  0
 52 53  1  0
 52 54  2  0
 54 55  1  0
 55 56  1  0
 56 57  1  0
 56 58  1  0
 56 59  1  0
 40  4  1  0
 54 41  1  0
 35 10  2  0
 31 20  1  0
M  CHG  2  35   1  37  -1
M  END
>  <UniqueID>  (16) 
16

>  <SMILES>  (16) 
C=c1c(=O)/c(=C/c2[nH+]nc(SCCN3CCOCC3)s2)[n-]c(=O)n1-c1ccc(OC)cc1OC

>  <Energy>  (16) 
122.3959244792937

>  <Genealogy>  (16) 
C=c1c(=O)c(=Cc2[nH+]nc(SCCN3CCOCC3)s2)[n-]c(=O)n1-c1ccc(OC)cc1OC (protonated)
C=c1c(=O)/c(=C/c2[nH+]nc(SCCN3CCOCC3)s2)[n-]c(=O)n1-c1ccc(OC)cc1OC (cis-trans isomerization)
C=c1c(=O)/c(=C/c2[nH+]nc(SCCN3CCOCC3)s2)[n-]c(=O)n1-c1ccc(OC)cc1OC (3D coordinates assigned)
C=c1c(=O)/c(=C/c2[nH+]nc(SCCN3CCOCC3)s2)[n-]c(=O)n1-c1ccc(OC)cc1OC (nonaromatic ring conformer: 122.3959244792937 kcal/mol)

>  <smiles>  (16) 
C=c1c(=O)c(=Cc2nnc(SCCN3CCOCC3)s2)[nH]c(=O)n1-c1ccc(OC)cc1OC

>  <score_type>  (16) 
oracle

>  <origin>  (16) 
adg

>  <m_score__min__energy>  (16) 
-8.6999999999999993

>  <m_primary>  (16) 
energy

$$$$
16:0
     RDKit          3D

 47 49  0  0  0  0  0  0  0  0999 V2000
   55.1640   27.9970   44.7690 H   0  0  0  0  0  0  0  0  0  0  0  0
   55.2680   28.9960   44.4940 N   0  0  0  0  0  0  0  0  0  0  0  0
   56.2480   29.7730   44.8370 C   0  0  0  0  0  0  0  0  0  0  0  0
   56.1580   31.0940   44.5310 N   0  0  0  0  0  0  0  0  0  0  0  0
   57.1000   31.9930   44.9130 C   0  0  0  0  0  0  0  0  0  0  0  0
   56.9958   33.0534   44.6399 H   0  0  0  0  0  0  0  0  0  0  0  0
   58.2070   31.5620   45.6580 C   0  0  0  0  0  0  0  0  0  0  0  0
   59.2520   32.4960   46.1600 C   0  0  0  0  0  0  0  0  0  0  0  0
   59.1080   33.8960   46.0690 C   0  0  0  0  0  0  0  0  0  0  0  0
   58.2117   34.3228   45.5952 H   0  0  0  0  0  0  0  0  0  0  0  0
   60.0950   34.7450   46.5760 C   0  0  0  0  0  0  0  0  0  0  0  0
   59.9712   35.8354   46.5010 H   0  0  0  0  0  0  0  0  0  0  0  0
   61.2370   34.2150   47.1770 C   0  0  0  0  0  0  0  0  0  0  0  0
   62.0046   34.8888   47.5853 H   0  0  0  0  0  0  0  0  0  0  0  0
   61.4090   32.8290   47.2620 C   0  0  0  0  0  0  0  0  0  0  0  0
   62.8590   32.1760   48.0220 S   0  0  0  0  0  0  0  0  0  0  0  0
   63.5470   31.2720   47.0380 O   0  0  0  0  0  0  0  0  0  0  0  0
   63.7940   33.2920   48.3940 O   0  0  0  0  0  0  0  0  0  0  0  0
   62.4710   31.2590   49.4450 N   0  0  0  0  0  0  0  0  0  0  0  0
   63.2760   30.8860   49.9980 H   0  0  0  0  0  0  0  0  0  0  0  0
   61.1310   30.9490   49.8730 C   0  0  0  0  0  0  0  0  0  0  0  0
   60.6330   29.6330   49.8910 C   0  0  0  0  0  0  0  0  0  0  0  0
   61.2669   28.8019   49.5483 H   0  0  0  0  0  0  0  0  0  0  0  0
   59.3700   29.3860   50.3310 N   0  0  0  0  0  0  0  0  0  0  0  0
   58.5520   30.3830   50.7610 C   0  0  0  0  0  0  0  0  0  0  0  0
   57.3910   30.1110   51.1630 O   0  0  0  0  0  0  0  0  0  0  0  0
   59.0000   31.7050   50.7550 C   0  0  0  0  0  0  0  0  0  0  0  0
   58.3424   32.5169   51.0991 H   0  0  0  0  0  0  0  0  0  0  0  0
   60.2930   31.9850   50.3070 C   0  0  0  0  0  0  0  0  0  0  0  0
   60.6552   33.0236   50.2948 H   0  0  0  0  0  0  0  0  0  0  0  0
   60.4260   31.9780   46.7390 C   0  0  0  0  0  0  0  0  0  0  0  0
   60.5740   30.8888   46.7815 H   0  0  0  0  0  0  0  0  0  0  0  0
   58.2990   30.2390   45.9620 N   0  0  0  0  0  0  0  0  0  0  0  0
   57.3740   29.3210   45.5710 C   0  0  0  0  0  0  0  0  0  0  0  0
   57.6250   27.9130   45.9470 C   0  0  0  0  0  0  0  0  0  0  0  0
   58.7860   27.5120   46.2290 O   0  0  0  0  0  0  0  0  0  0  0  0
   56.5130   27.0190   46.0550 N   0  0  0  0  0  0  0  0  0  0  0  0
   56.6010   25.5750   45.8570 C   0  0  0  0  0  0  0  0  0  0  0  0
   57.0598   25.1082   46.7411 H   0  0  0  0  0  0  0  0  0  0  0  0
   57.4660   25.2910   44.6290 C   0  0  0  0  0  0  0  0  0  0  0  0
   58.4650   24.9630   44.9521 H   0  0  0  0  0  0  0  0  0  0  0  0
   56.9975   24.4995   44.0256 H   0  0  0  0  0  0  0  0  0  0  0  0
   57.5579   26.2061   44.0256 H   0  0  0  0  0  0  0  0  0  0  0  0
   55.2000   24.9810   45.6740 C   0  0  0  0  0  0  0  0  0  0  0  0
   54.7508   24.7906   46.6599 H   0  0  0  0  0  0  0  0  0  0  0  0
   54.5712   25.6900   45.1154 H   0  0  0  0  0  0  0  0  0  0  0  0
   55.2724   24.0362   45.1154 H   0  0  0  0  0  0  0  0  0  0  0  0
  1  2  1  0
  2  3  2  0
  3  4  1  0
  4  5  1  0
  5  6  1  0
  5  7  2  0
  7  8  1  0
  8  9  2  0
  9 10  1  0
  9 11  1  0
 11 12  1  0
 11 13  2  0
 13 14  1  0
 13 15  1  0
 15 16  1  0
 16 17  2  0
 16 18  2  0
 16 19  1  0
 19 20  1  0
 19 21  1  0
 21 22  2  0
 22 23  1  0
 22 24  1  0
 24 25  1  0
 25 26  2  0
 25 27  1  0
 27 28  1  0
 27 29  2  0
 29 30  1  0
 15 31  2  0
 31 32  1  0
  7 33  1  0
 33 34  2  0
 34 35  1  0
 35 36  2  0
 35 37  1  0
 37 38  1  0
 38 39  1  0
 38 40  1  0
 40 41  1  0
 40 42  1  0
 40 43  1  0
 38 44  1  0
 44 45  1  0
 44 46  1  0
 44 47  1  0
 34  3  1  0
 31  8  1  0
 29 21  1  0
M  CHG  3   4  -1  24  -1  37  -1
M  END
>  <UniqueID>  (17) 
17

>  <SMILES>  (17) 
[H]/N=c1/[n-]cc(-c2cccc(S(=O)(=O)Nc3ccc(=O)[n-]c3)c2)nc1C(=O)[N-]C(C)C

>  <Energy>  (17) 
56.880475076688256

>  <Genealogy>  (17) 
CC(C)[N-]C(=O)c1nc(-c2cccc(S(=O)(=O)Nc3ccc(=O)[n-]c3)c2)c[n-]c1=N (protonated)
[H]/N=c1/[n-]cc(-c2cccc(S(=O)(=O)Nc3ccc(=O)[n-]c3)c2)nc1C(=O)[N-]C(C)C (cis-trans isomerization)
[H]/N=c1/[n-]cc(-c2cccc(S(=O)(=O)Nc3ccc(=O)[n-]c3)c2)nc1C(=O)[N-]C(C)C (3D coordinates assigned)
[H]/N=c1/[n-]cc(-c2cccc(S(=O)(=O)Nc3ccc(=O)[n-]c3)c2)nc1C(=O)[N-]C(C)C (optimized conformer: 56.880475076688256 kcal/mol)

>  <smiles>  (17) 
CC(C)NC(=O)c1nc(-c2cccc(S(=O)(=O)Nc3ccc(=O)[nH]c3)c2)c[nH]c1=N

>  <score_type>  (17) 
oracle

>  <origin>  (17) 
adg

>  <m_score__min__energy>  (17) 
-13.050000000000001

>  <m_primary>  (17) 
energy

$$$$
17:0
     RDKit          3D

 53 56  0  0  0  0  0  0  0  0999 V2000
   57.5530   25.7230   46.6210 C   0  0  0  0  0  0  0  0  0  0  0  0
   59.0190   25.8440   46.6490 N   0  0  0  0  0  0  0  0  0  0  0  0
   59.5160   26.0720   48.0300 C   0  0  0  0  0  0  0  0  0  0  0  0
   59.6800   27.5620   48.3700 C   0  0  0  0  0  0  0  0  0  0  0  0
   60.4850   28.2430   47.3510 N   0  0  0  0  0  0  0  0  0  0  0  0
   60.6870   29.6600   47.4630 C   0  0  0  0  0  0  0  0  0  0  0  0
   61.7550   30.1110   48.1700 N   0  0  0  0  0  0  0  0  0  0  0  0
   62.0530   31.4290   48.2780 C   0  0  0  0  0  0  0  0  0  0  0  0
   63.1660   31.8240   49.0280 C   0  0  0  0  0  0  0  0  0  0  0  0
   63.4840   33.1770   49.1540 C   0  0  0  0  0  0  0  0  0  0  0  0
   62.6890   34.1430   48.5340 C   0  0  0  0  0  0  0  0  0  0  0  0
   61.5750   33.7600   47.7800 C   0  0  0  0  0  0  0  0  0  0  0  0
   61.2450   32.3950   47.6360 C   0  0  0  0  0  0  0  0  0  0  0  0
   60.1240   31.9590   46.8870 C   0  0  0  0  0  0  0  0  0  0  0  0
   59.2370   32.9370   46.2130 C   0  0  0  0  0  0  0  0  0  0  0  0
   57.8590   32.9370   46.4720 C   0  0  0  0  0  0  0  0  0  0  0  0
   57.0230   33.8510   45.8240 C   0  0  0  0  0  0  0  0  0  0  0  0
   57.5580   34.7680   44.9150 C   0  0  0  0  0  0  0  0  0  0  0  0
   58.9320   34.7710   44.6530 C   0  0  0  0  0  0  0  0  0  0  0  0
   59.7710   33.8580   45.2980 C   0  0  0  0  0  0  0  0  0  0  0  0
   59.8340   30.5740   46.8130 C   0  0  0  0  0  0  0  0  0  0  0  0
   58.6410   30.0910   46.0800 C   0  0  0  0  0  0  0  0  0  0  0  0
   57.6430   29.6730   46.7280 O   0  0  0  0  0  0  0  0  0  0  0  0
   58.6720   29.9520   44.5810 C   0  0  0  0  0  0  0  0  0  0  0  0
   57.4350   29.2840   44.0400 C   0  0  0  0  0  0  0  0  0  0  0  0
   57.5420   28.2530   43.3230 O   0  0  0  0  0  0  0  0  0  0  0  0
   56.0900   29.7690   44.3930 C   0  0  0  0  0  0  0  0  0  0  0  0
   55.1430   28.9590   44.5800 O   0  0  0  0  0  0  0  0  0  0  0  0
   55.8560   31.1320   44.5180 O   0  0  0  0  0  0  0  0  0  0  0  0
   60.7530   27.5680   46.0810 C   0  0  0  0  0  0  0  0  0  0  0  0
   59.4890   26.8270   45.6390 C   0  0  0  0  0  0  0  0  0  0  0  0
   57.1680   25.6912   47.6509 H   0  0  0  0  0  0  0  0  0  0  0  0
   57.1236   26.5888   46.0956 H   0  0  0  0  0  0  0  0  0  0  0  0
   57.2714   24.7986   46.0956 H   0  0  0  0  0  0  0  0  0  0  0  0
   58.8010   25.6274   48.7379 H   0  0  0  0  0  0  0  0  0  0  0  0
   60.5097   25.6060   48.1036 H   0  0  0  0  0  0  0  0  0  0  0  0
   58.6868   28.0323   48.4186 H   0  0  0  0  0  0  0  0  0  0  0  0
   60.1922   27.6481   49.3396 H   0  0  0  0  0  0  0  0  0  0  0  0
   63.7926   31.0655   49.5201 H   0  0  0  0  0  0  0  0  0  0  0  0
   64.3618   33.4827   49.7423 H   0  0  0  0  0  0  0  0  0  0  0  0
   62.9397   35.2089   48.6389 H   0  0  0  0  0  0  0  0  0  0  0  0
   60.9523   34.5270   47.2963 H   0  0  0  0  0  0  0  0  0  0  0  0
   57.4349   32.2163   47.1866 H   0  0  0  0  0  0  0  0  0  0  0  0
   55.9424   33.8485   46.0298 H   0  0  0  0  0  0  0  0  0  0  0  0
   56.8990   35.4868   44.4060 H   0  0  0  0  0  0  0  0  0  0  0  0
   59.3530   35.4932   43.9380 H   0  0  0  0  0  0  0  0  0  0  0  0
   60.8508   33.8611   45.0884 H   0  0  0  0  0  0  0  0  0  0  0  0
   58.7560   30.9540   44.1351 H   0  0  0  0  0  0  0  0  0  0  0  0
   59.5347   29.3211   44.3207 H   0  0  0  0  0  0  0  0  0  0  0  0
   61.0313   28.3110   45.3191 H   0  0  0  0  0  0  0  0  0  0  0  0
   61.5804   26.8538   46.2050 H   0  0  0  0  0  0  0  0  0  0  0  0
   58.6908   27.5640   45.4670 H   0  0  0  0  0  0  0  0  0  0  0  0
   59.7330   26.2708   44.7219 H   0  0  0  0  0  0  0  0  0  0  0  0
  1  2  1  0
  2  3  1  0
  3  4  1  0
  4  5  1  0
  5  6  1  0
  6  7  2  0
  7  8  1  0
  8  9  2  0
  9 10  1  0
 10 11  2  0
 11 12  1  0
 12 13  2  0
 13 14  1  0
 14 15  1  0
 15 16  2  0
 16 17  1  0
 17 18  2  0
 18 19  1  0
 19 20  2  0
 14 21  2  0
 21 22  1  0
 22 23  2  0
 22 24  1  0
 24 25  1  0
 25 26  2  0
 25 27  1  0
 27 28  2  0
 27 29  1  0
  5 30  1  0
 30 31  1  0
 31  2  1  0
 21  6  1  0
 13  8  1  0
 20 15  1  0
  1 32  1  0
  1 33  1  0
  1 34  1  0
  3 35  1  0
  3 36  1  0
  4 37  1  0
  4 38  1  0
  9 39  1  0
 10 40  1  0
 11 41  1  0
 12 42  1  0
 16 43  1  0
 17 44  1  0
 18 45  1  0
 19 46  1  0
 20 47  1  0
 24 48  1  0
 24 49  1  0
 30 50  1  0
 30 51  1  0
 31 52  1  0
 31 53  1  0
M  CHG  1  29  -1
M  END
>  <UniqueID>  (18) 
18

>  <SMILES>  (18) 
CN1CCN(c2nc3ccccc3c(-c3ccccc3)c2C(=O)CC(=O)C(=O)[O-])CC1

>  <Energy>  (18) 
85.80989111189541

>  <Genealogy>  (18) 
CN1CCN(c2nc3ccccc3c(-c3ccccc3)c2C(=O)CC(=O)C(=O)[O-])CC1 (protonated)
CN1CCN(c2nc3ccccc3c(-c3ccccc3)c2C(=O)CC(=O)C(=O)[O-])CC1 (3D coordinates assigned)
CN1CCN(c2nc3ccccc3c(-c3ccccc3)c2C(=O)CC(=O)C(=O)[O-])CC1 (nonaromatic ring conformer: 85.80989111189541 kcal/mol)

>  <smiles>  (18) 
CN1CCN(c2nc3ccccc3c(-c3ccccc3)c2C(=O)CC(=O)C(=O)O)CC1

>  <score_type>  (18) 
oracle

>  <origin>  (18) 
adg

>  <m_score__min__energy>  (18) 
-10.859999999999999

>  <m_primary>  (18) 
energy

$$$$
18:0
     RDKit          3D

 62 65  0  0  0  0  0  0  0  0999 V2000
   55.8000   29.6920   44.8970 O   0  0  0  0  0  0  0  0  0  0  0  0
   56.8420   29.0340   45.1580 C   0  0  0  0  0  0  0  0  0  0  0  0
   58.0780   29.7140   45.4460 N   0  0  0  0  0  0  0  0  0  0  0  0
   58.3380   31.0850   45.1020 C   0  0  0  0  0  0  0  0  0  0  0  0
   57.9350   31.5690   43.8480 C   0  0  0  0  0  0  0  0  0  0  0  0
   58.1600   32.9030   43.4970 C   0  0  0  0  0  0  0  0  0  0  0  0
   58.7860   33.7670   44.3980 C   0  0  0  0  0  0  0  0  0  0  0  0
   59.1820   33.3010   45.6610 C   0  0  0  0  0  0  0  0  0  0  0  0
   59.9680   34.3940   46.7990 S   0  0  0  0  0  0  0  0  0  0  0  0
   58.9870   34.7760   47.8730 O   0  0  0  0  0  0  0  0  0  0  0  0
   60.4020   35.6460   46.0830 O   0  0  0  0  0  0  0  0  0  0  0  0
   61.3400   33.5980   47.5280 N   0  0  0  0  0  0  0  0  0  0  0  0
   62.5510   33.7890   46.7330 C   0  0  0  0  0  0  0  0  0  0  0  0
   63.7100   33.6600   47.6990 C   0  0  0  0  0  0  0  0  0  0  0  0
   63.1580   34.1940   49.0070 C   0  0  0  0  0  0  0  0  0  0  0  0
   61.6380   34.1490   48.8550 C   0  0  0  0  0  0  0  0  0  0  0  0
   58.9410   31.9680   46.0160 C   0  0  0  0  0  0  0  0  0  0  0  0
   56.7500   27.5340   45.2830 C   0  0  0  0  0  0  0  0  0  0  0  0
   57.0290   27.0720   46.7350 C   0  0  0  0  0  0  0  0  0  0  0  0
   58.1300   26.0090   46.8300 C   0  0  0  0  0  0  0  0  0  0  0  0
   57.9630   24.9100   45.8550 N   0  0  0  0  0  0  0  0  0  0  0  0
   56.9000   23.6400   46.4350 S   0  0  0  0  0  0  0  0  0  0  0  0
   57.7480   22.5610   47.0480 O   0  0  0  0  0  0  0  0  0  0  0  0
   56.0030   24.1880   47.5120 O   0  0  0  0  0  0  0  0  0  0  0  0
   55.9170   22.8900   45.1240 C   0  0  0  0  0  0  0  0  0  0  0  0
   54.4330   23.0480   45.3370 C   0  0  0  0  0  0  0  0  0  0  0  0
   53.6970   23.9480   44.5460 C   0  0  0  0  0  0  0  0  0  0  0  0
   52.3140   24.0700   44.7120 C   0  0  0  0  0  0  0  0  0  0  0  0
   51.6520   23.2840   45.6590 C   0  0  0  0  0  0  0  0  0  0  0  0
   52.3710   22.3690   46.4340 C   0  0  0  0  0  0  0  0  0  0  0  0
   53.7540   22.2420   46.2680 C   0  0  0  0  0  0  0  0  0  0  0  0
   57.6460   25.3190   44.4670 C   0  0  0  0  0  0  0  0  0  0  0  0
   57.6650   26.8430   44.2560 C   0  0  0  0  0  0  0  0  0  0  0  0
   58.7990   29.2060   46.0080 H   0  0  0  0  0  0  0  0  0  0  0  0
   57.4383   30.8935   43.1360 H   0  0  0  0  0  0  0  0  0  0  0  0
   57.8438   33.2726   42.5104 H   0  0  0  0  0  0  0  0  0  0  0  0
   58.9690   34.8147   44.1172 H   0  0  0  0  0  0  0  0  0  0  0  0
   62.6191   33.0198   45.9496 H   0  0  0  0  0  0  0  0  0  0  0  0
   62.5526   34.7676   46.2306 H   0  0  0  0  0  0  0  0  0  0  0  0
   64.0165   32.6088   47.8040 H   0  0  0  0  0  0  0  0  0  0  0  0
   64.6044   34.2050   47.3627 H   0  0  0  0  0  0  0  0  0  0  0  0
   63.4796   33.5612   49.8473 H   0  0  0  0  0  0  0  0  0  0  0  0
   63.5179   35.2119   49.2175 H   0  0  0  0  0  0  0  0  0  0  0  0
   61.2021   33.5065   49.6343 H   0  0  0  0  0  0  0  0  0  0  0  0
   61.2097   35.1568   48.9595 H   0  0  0  0  0  0  0  0  0  0  0  0
   59.2251   31.6090   47.0162 H   0  0  0  0  0  0  0  0  0  0  0  0
   55.7189   27.2285   45.0519 H   0  0  0  0  0  0  0  0  0  0  0  0
   57.3356   27.9467   47.3273 H   0  0  0  0  0  0  0  0  0  0  0  0
   56.1027   26.6181   47.1171 H   0  0  0  0  0  0  0  0  0  0  0  0
   59.1006   26.4935   46.6481 H   0  0  0  0  0  0  0  0  0  0  0  0
   58.0717   25.5663   47.8353 H   0  0  0  0  0  0  0  0  0  0  0  0
   56.1865   23.3642   44.1687 H   0  0  0  0  0  0  0  0  0  0  0  0
   56.1365   21.8121   45.1236 H   0  0  0  0  0  0  0  0  0  0  0  0
   54.2127   24.5602   43.7915 H   0  0  0  0  0  0  0  0  0  0  0  0
   51.7471   24.7846   44.0972 H   0  0  0  0  0  0  0  0  0  0  0  0
   50.5651   23.3852   45.7947 H   0  0  0  0  0  0  0  0  0  0  0  0
   51.8479   21.7477   47.1759 H   0  0  0  0  0  0  0  0  0  0  0  0
   54.3127   21.5087   46.8681 H   0  0  0  0  0  0  0  0  0  0  0  0
   58.3869   24.8650   43.7925 H   0  0  0  0  0  0  0  0  0  0  0  0
   56.6226   24.9760   44.2547 H   0  0  0  0  0  0  0  0  0  0  0  0
   58.6934   27.2138   44.3783 H   0  0  0  0  0  0  0  0  0  0  0  0
   57.3018   27.0693   43.2426 H   0  0  0  0  0  0  0  0  0  0  0  0
  1  2  2  0
  2  3  1  0
  3  4  1  0
  4  5  2  0
  5  6  1  0
  6  7  2  0
  7  8  1  0
  8  9  1  0
  9 10  2  0
  9 11  2  0
  9 12  1  0
 12 13  1  0
 13 14  1  0
 14 15  1  0
 15 16  1  0
  8 17  2  0
  2 18  1  0
 18 19  1  0
 19 20  1  0
 20 21  1  0
 21 22  1  0
 22 23  2  0
 22 24  2  0
 22 25  1  0
 25 26  1  0
 26 27  2  0
 27 28  1  0
 28 29  2  0
 29 30  1  0
 30 31  2  0
 21 32  1  0
 32 33  1  0
 17  4  1  0
 33 18  1  0
 16 12  1  0
 31 26  1  0
  3 34  1  0
  5 35  1  0
  6 36  1  0
  7 37  1  0
 13 38  1  0
 13 39  1  0
 14 40  1  0
 14 41  1  0
 15 42  1  0
 15 43  1  0
 16 44  1  0
 16 45  1  0
 17 46  1  0
 18 47  1  0
 19 48  1  0
 19 49  1  0
 20 50  1  0
 20 51  1  0
 25 52  1  0
 25 53  1  0
 27 54  1  0
 28 55  1  0
 29 56  1  0
 30 57  1  0
 31 58  1  0
 32 59  1  0
 32 60  1  0
 33 61  1  0
 33 62  1  0
M  END
>  <UniqueID>  (19) 
19

>  <SMILES>  (19) 
O=C(Nc1cccc(S(=O)(=O)N2CCCC2)c1)C1CCN(S(=O)(=O)Cc2ccccc2)CC1

>  <Energy>  (19) 
74.1973728735528

>  <Genealogy>  (19) 
O=C(Nc1cccc(S(=O)(=O)N2CCCC2)c1)C1CCN(S(=O)(=O)Cc2ccccc2)CC1 (3D coordinates assigned)
O=C(Nc1cccc(S(=O)(=O)N2CCCC2)c1)C1CCN(S(=O)(=O)Cc2ccccc2)CC1 (nonaromatic ring conformer: 74.1973728735528 kcal/mol)

>  <smiles>  (19) 
O=C(Nc1cccc(S(=O)(=O)N2CCCC2)c1)C1CCN(S(=O)(=O)Cc2ccccc2)CC1

>  <score_type>  (19) 
oracle

>  <origin>  (19) 
adg

>  <m_score__min__energy>  (19) 
-11.41

>  <m_primary>  (19) 
energy

$$$$
19:0
     RDKit          3D

 26 27  0  0  0  0  0  0  0  0999 V2000
   53.6390   25.9120   46.3840 H   0  0  0  0  0  0  0  0  0  0  0  0
   54.4190   26.3380   45.8960 O   0  0  0  0  0  0  0  0  0  0  0  0
   55.7340   25.9690   46.1650 C   0  0  0  0  0  0  0  0  0  0  0  0
   55.9780   24.8260   46.8580 N   0  0  0  0  0  0  0  0  0  0  0  0
   57.2410   24.4140   47.1390 C   0  0  0  0  0  0  0  0  0  0  0  0
   57.4240   23.3470   47.7800 O   0  0  0  0  0  0  0  0  0  0  0  0
   58.3360   25.1740   46.7150 C   0  0  0  0  0  0  0  0  0  0  0  0
   59.3597   24.8357   46.9332 H   0  0  0  0  0  0  0  0  0  0  0  0
   58.1250   26.3700   46.0100 C   0  0  0  0  0  0  0  0  0  0  0  0
   59.3060   27.1490   45.5650 C   0  0  0  0  0  0  0  0  0  0  0  0
   60.0693   26.6346   44.9627 H   0  0  0  0  0  0  0  0  0  0  0  0
   59.4970   28.4460   45.8550 C   0  0  0  0  0  0  0  0  0  0  0  0
   60.3151   28.7120   46.5405 H   0  0  0  0  0  0  0  0  0  0  0  0
   58.6620   29.5390   45.2990 C   0  0  0  0  0  0  0  0  0  0  0  0
   57.8550   29.3570   44.1560 C   0  0  0  0  0  0  0  0  0  0  0  0
   57.8251   28.3762   43.6589 H   0  0  0  0  0  0  0  0  0  0  0  0
   57.0930   30.4150   43.6510 C   0  0  0  0  0  0  0  0  0  0  0  0
   56.4613   30.2616   42.7636 H   0  0  0  0  0  0  0  0  0  0  0  0
   57.1320   31.6650   44.2700 C   0  0  0  0  0  0  0  0  0  0  0  0
   56.5269   32.4938   43.8738 H   0  0  0  0  0  0  0  0  0  0  0  0
   57.9380   31.8640   45.3910 C   0  0  0  0  0  0  0  0  0  0  0  0
   57.9706   32.8517   45.8741 H   0  0  0  0  0  0  0  0  0  0  0  0
   58.7050   30.8120   45.9030 C   0  0  0  0  0  0  0  0  0  0  0  0
   59.4760   31.0320   46.9980 F   0  0  0  0  0  0  0  0  0  0  0  0
   56.8030   26.7600   45.7230 C   0  0  0  0  0  0  0  0  0  0  0  0
   56.6101   27.6816   45.1543 H   0  0  0  0  0  0  0  0  0  0  0  0
  1  2  1  0
  2  3  1  0
  3  4  1  0
  4  5  1  0
  5  6  2  0
  5  7  1  0
  7  8  1  0
  7  9  2  0
  9 10  1  0
 10 11  1  0
 10 12  2  0
 12 13  1  0
 12 14  1  0
 14 15  2  0
 15 16  1  0
 15 17  1  0
 17 18  1  0
 17 19  2  0
 19 20  1  0
 19 21  1  0
 21 22  1  0
 21 23  2  0
 23 24  1  0
  9 25  1  0
 25 26  1  0
 25  3  2  0
 23 14  1  0
M  CHG  1   4  -1
M  END
>  <UniqueID>  (20) 
20

>  <SMILES>  (20) 
O=c1cc(/C=C/c2ccccc2F)cc(O)[n-]1

>  <Energy>  (20) 
33.02966802898053

>  <Genealogy>  (20) 
O=c1cc(C=Cc2ccccc2F)cc(O)[n-]1 (protonated)
O=c1cc(/C=C/c2ccccc2F)cc(O)[n-]1 (cis-trans isomerization)
O=c1cc(/C=C/c2ccccc2F)cc(O)[n-]1 (3D coordinates assigned)
O=c1cc(/C=C/c2ccccc2F)cc(O)[n-]1 (optimized conformer: 33.02966802898053 kcal/mol)

>  <smiles>  (20) 
O=c1cc(C=Cc2ccccc2F)cc(O)[nH]1

>  <score_type>  (20) 
oracle

>  <origin>  (20) 
adg

>  <m_score__min__energy>  (20) 
-9.3200000000000003

>  <m_primary>  (20) 
energy

$$$$
20:0
     RDKit          3D

 43 45  0  0  0  0  0  0  0  0999 V2000
   55.8630   28.8590   45.2450 N   0  0  0  0  0  0  0  0  0  0  0  0
   56.4030   29.9130   44.4470 C   0  0  0  0  0  0  0  0  0  0  0  0
   56.0690   30.0010   43.2350 O   0  0  0  0  0  0  0  0  0  0  0  0
   57.3810   30.8730   45.0080 C   0  0  0  0  0  0  0  0  0  0  0  0
   57.0540   32.2400   45.0210 C   0  0  0  0  0  0  0  0  0  0  0  0
   57.9670   33.1860   45.4940 C   0  0  0  0  0  0  0  0  0  0  0  0
   59.2150   32.7780   45.9650 C   0  0  0  0  0  0  0  0  0  0  0  0
   59.5480   31.4230   45.9790 C   0  0  0  0  0  0  0  0  0  0  0  0
   58.6390   30.4580   45.5130 C   0  0  0  0  0  0  0  0  0  0  0  0
   58.9760   29.0630   45.6300 N   0  0  0  0  0  0  0  0  0  0  0  0
   59.1510   28.2340   44.4360 C   0  0  0  0  0  0  0  0  0  0  0  0
   58.0520   27.1740   44.3920 C   0  0  0  0  0  0  0  0  0  0  0  0
   57.9520   26.4850   45.6880 N   0  0  0  0  0  0  0  0  0  0  0  0
   57.6640   25.0730   45.7140 C   0  0  0  0  0  0  0  0  0  0  0  0
   58.2120   24.3130   44.8690 O   0  0  0  0  0  0  0  0  0  0  0  0
   56.7540   24.4730   46.7550 C   0  0  0  0  0  0  0  0  0  0  0  0
   55.4070   24.1230   46.1630 C   0  0  0  0  0  0  0  0  0  0  0  0
   54.4960   25.1330   45.8060 C   0  0  0  0  0  0  0  0  0  0  0  0
   54.8050   26.4720   46.0130 O   0  0  0  0  0  0  0  0  0  0  0  0
   53.3000   24.8050   45.2520 N   0  0  0  0  0  0  0  0  0  0  0  0
   52.9660   23.5100   45.0220 C   0  0  0  0  0  0  0  0  0  0  0  0
   51.8520   23.2300   44.5090 O   0  0  0  0  0  0  0  0  0  0  0  0
   53.8330   22.5170   45.3410 N   0  0  0  0  0  0  0  0  0  0  0  0
   55.0410   22.7900   45.8980 C   0  0  0  0  0  0  0  0  0  0  0  0
   55.8240   21.8400   46.1690 O   0  0  0  0  0  0  0  0  0  0  0  0
   57.8450   27.3010   46.9070 C   0  0  0  0  0  0  0  0  0  0  0  0
   58.9310   28.3810   46.9250 C   0  0  0  0  0  0  0  0  0  0  0  0
   56.2340   28.6610   46.2000 H   0  0  0  0  0  0  0  0  0  0  0  0
   55.1370   28.2210   44.8490 H   0  0  0  0  0  0  0  0  0  0  0  0
   56.0698   32.5682   44.6553 H   0  0  0  0  0  0  0  0  0  0  0  0
   57.7014   34.2535   45.4950 H   0  0  0  0  0  0  0  0  0  0  0  0
   59.9373   33.5251   46.3257 H   0  0  0  0  0  0  0  0  0  0  0  0
   60.5311   31.1073   46.3583 H   0  0  0  0  0  0  0  0  0  0  0  0
   59.0884   28.8657   43.5376 H   0  0  0  0  0  0  0  0  0  0  0  0
   60.1350   27.7435   44.4689 H   0  0  0  0  0  0  0  0  0  0  0  0
   57.0908   27.6577   44.1635 H   0  0  0  0  0  0  0  0  0  0  0  0
   58.2984   26.4366   43.6139 H   0  0  0  0  0  0  0  0  0  0  0  0
   57.2188   23.5600   47.1554 H   0  0  0  0  0  0  0  0  0  0  0  0
   56.6028   25.2123   47.5553 H   0  0  0  0  0  0  0  0  0  0  0  0
   56.8559   27.7814   46.9357 H   0  0  0  0  0  0  0  0  0  0  0  0
   57.9752   26.6501   47.7841 H   0  0  0  0  0  0  0  0  0  0  0  0
   58.7052   29.1124   47.7149 H   0  0  0  0  0  0  0  0  0  0  0  0
   59.9061   27.9113   47.1214 H   0  0  0  0  0  0  0  0  0  0  0  0
  1  2  1  0
  2  3  2  0
  2  4  1  0
  4  5  2  0
  5  6  1  0
  6  7  2  0
  7  8  1  0
  8  9  2  0
  9 10  1  0
 10 11  1  0
 11 12  1  0
 12 13  1  0
 13 14  1  0
 14 15  2  0
 14 16  1  0
 16 17  1  0
 17 18  2  0
 18 19  1  0
 18 20  1  0
 20 21  1  0
 21 22  2  0
 21 23  1  0
 23 24  1  0
 24 25  2  0
 13 26  1  0
 26 27  1  0
  9  4  1  0
 27 10  1  0
 24 17  1  0
  1 28  1  0
  1 29  1  0
  5 30  1  0
  6 31  1  0
  7 32  1  0
  8 33  1  0
 11 34  1  0
 11 35  1  0
 12 36  1  0
 12 37  1  0
 16 38  1  0
 16 39  1  0
 26 40  1  0
 26 41  1  0
 27 42  1  0
 27 43  1  0
M  CHG  3  19  -1  20  -1  23  -1
M  END
>  <UniqueID>  (21) 
21

>  <SMILES>  (21) 
NC(=O)c1ccccc1N1CCN(C(=O)Cc2c([O-])[n-]c(=O)[n-]c2=O)CC1

>  <Energy>  (21) 
56.174606294093735

>  <Genealogy>  (21) 
NC(=O)c1ccccc1N1CCN(C(=O)Cc2c([O-])[n-]c(=O)[n-]c2=O)CC1 (protonated)
NC(=O)c1ccccc1N1CCN(C(=O)Cc2c([O-])[n-]c(=O)[n-]c2=O)CC1 (3D coordinates assigned)
NC(=O)c1ccccc1N1CCN(C(=O)Cc2c([O-])[n-]c(=O)[n-]c2=O)CC1 (nonaromatic ring conformer: 56.174606294093735 kcal/mol)

>  <smiles>  (21) 
NC(=O)c1ccccc1N1CCN(C(=O)Cc2c(O)[nH]c(=O)[nH]c2=O)CC1

>  <score_type>  (21) 
oracle

>  <origin>  (21) 
adg

>  <m_score__min__energy>  (21) 
-15.98

>  <m_primary>  (21) 
energy

$$$$
21:0
     RDKit          3D

 49 52  0  0  0  0  0  0  0  0999 V2000
   57.7870   22.5920   47.5090 H   0  0  0  0  0  0  0  0  0  0  0  0
   57.7300   23.5190   47.9100 O   0  0  0  0  0  0  0  0  0  0  0  0
   57.1790   24.5730   47.1880 C   0  0  0  0  0  0  0  0  0  0  0  0
   55.8760   24.6580   46.8700 N   0  0  0  0  0  0  0  0  0  0  0  0
   55.8010   25.8530   46.2480 C   0  0  0  0  0  0  0  0  0  0  0  0
   54.7210   26.3130   45.7930 O   0  0  0  0  0  0  0  0  0  0  0  0
   56.9710   26.5210   46.1590 N   0  0  0  0  0  0  0  0  0  0  0  0
   57.8520   25.6880   46.7400 C   0  0  0  0  0  0  0  0  0  0  0  0
   59.2700   26.0300   46.9490 C   0  0  0  0  0  0  0  0  0  0  0  0
   60.0287   25.2919   46.6497 H   0  0  0  0  0  0  0  0  0  0  0  0
   59.6940   27.1910   47.4840 C   0  0  0  0  0  0  0  0  0  0  0  0
   60.1510   27.3810   48.7830 C   0  0  0  0  0  0  0  0  0  0  0  0
   60.2063   26.6220   49.5772 H   0  0  0  0  0  0  0  0  0  0  0  0
   60.5220   28.7070   48.8830 C   0  0  0  0  0  0  0  0  0  0  0  0
   61.1090   29.3370   50.1090 C   0  0  0  0  0  0  0  0  0  0  0  0
   60.6741   28.8703   51.0051 H   0  0  0  0  0  0  0  0  0  0  0  0
   62.1990   29.1894   50.1110 H   0  0  0  0  0  0  0  0  0  0  0  0
   60.8848   30.4139   50.1110 H   0  0  0  0  0  0  0  0  0  0  0  0
   60.3320   29.3400   47.7030 N   0  0  0  0  0  0  0  0  0  0  0  0
   60.6260   30.7220   47.4340 C   0  0  0  0  0  0  0  0  0  0  0  0
   61.9520   31.1720   47.4200 C   0  0  0  0  0  0  0  0  0  0  0  0
   62.7726   30.4675   47.6206 H   0  0  0  0  0  0  0  0  0  0  0  0
   62.2350   32.5130   47.1520 C   0  0  0  0  0  0  0  0  0  0  0  0
   63.2782   32.8615   47.1377 H   0  0  0  0  0  0  0  0  0  0  0  0
   61.1960   33.4130   46.9020 C   0  0  0  0  0  0  0  0  0  0  0  0
   61.4258   34.4672   46.6881 H   0  0  0  0  0  0  0  0  0  0  0  0
   59.8590   32.9800   46.9220 C   0  0  0  0  0  0  0  0  0  0  0  0
   58.7570   33.9430   46.6700 C   0  0  0  0  0  0  0  0  0  0  0  0
   58.8950   35.1490   47.0120 O   0  0  0  0  0  0  0  0  0  0  0  0
   57.5610   33.5610   45.9740 N   0  0  0  0  0  0  0  0  0  0  0  0
   57.4620   32.7250   44.9770 C   0  0  0  0  0  0  0  0  0  0  0  0
   56.8020   31.5520   45.1780 N   0  0  0  0  0  0  0  0  0  0  0  0
   56.6520   30.6190   44.1980 C   0  0  0  0  0  0  0  0  0  0  0  0
   55.9060   29.3540   44.4800 C   0  0  0  0  0  0  0  0  0  0  0  0
   55.8224   29.2123   45.5676 H   0  0  0  0  0  0  0  0  0  0  0  0
   54.8998   29.4158   44.0399 H   0  0  0  0  0  0  0  0  0  0  0  0
   56.4470   28.5034   44.0399 H   0  0  0  0  0  0  0  0  0  0  0  0
   57.1890   30.8550   42.9280 C   0  0  0  0  0  0  0  0  0  0  0  0
   57.0633   30.1136   42.1252 H   0  0  0  0  0  0  0  0  0  0  0  0
   57.8850   32.0390   42.6900 C   0  0  0  0  0  0  0  0  0  0  0  0
   58.3169   32.2330   41.6971 H   0  0  0  0  0  0  0  0  0  0  0  0
   58.0340   32.9790   43.7120 C   0  0  0  0  0  0  0  0  0  0  0  0
   58.5925   33.9095   43.5326 H   0  0  0  0  0  0  0  0  0  0  0  0
   59.5840   31.6240   47.1740 C   0  0  0  0  0  0  0  0  0  0  0  0
   58.5432   31.2680   47.1671 H   0  0  0  0  0  0  0  0  0  0  0  0
   59.8300   28.4250   46.8370 C   0  0  0  0  0  0  0  0  0  0  0  0
   59.5430   28.6860   45.5520 C   0  0  0  0  0  0  0  0  0  0  0  0
   59.6904   29.6994   45.1504 H   0  0  0  0  0  0  0  0  0  0  0  0
   59.1604   27.8865   44.9005 H   0  0  0  0  0  0  0  0  0  0  0  0
  1  2  1  0
  2  3  1  0
  3  4  1  0
  4  5  1  0
  5  6  2  0
  5  7  1  0
  7  8  1  0
  8  9  1  0
  9 10  1  0
  9 11  2  0
 11 12  1  0
 12 13  1  0
 12 14  2  0
 14 15  1  0
 15 16  1  0
 15 17  1  0
 15 18  1  0
 14 19  1  0
 19 20  1  0
 20 21  2  0
 21 22  1  0
 21 23  1  0
 23 24  1  0
 23 25  2  0
 25 26  1  0
 25 27  1  0
 27 28  1  0
 28 29  2  0
 28 30  1  0
 30 31  2  3
 31 32  1  0
 32 33  1  0
 33 34  1  0
 34 35  1  0
 34 36  1  0
 34 37  1  0
 33 38  2  0
 38 39  1  0
 38 40  1  0
 40 41  1  0
 40 42  2  0
 42 43  1  0
 27 44  2  0
 44 45  1  0
 19 46  1  0
 46 47  2  0
 47 48  1  0
 47 49  1  0
  8  3  2  0
 46 11  1  0
 44 20  1  0
 42 31  1  0
M  CHG  3   4  -1   7  -1  32  -1
M  END
>  <UniqueID>  (22) 
22

>  <SMILES>  (22) 
C=c1/c(=C/c2[n-]c(=O)[n-]c2O)cc(C)n1-c1cccc(C(=O)N=c2cccc(C)[n-]2)c1

>  <Energy>  (22) 
132.57205031992126

>  <Genealogy>  (22) 
C=c1c(=Cc2[n-]c(=O)[n-]c2O)cc(C)n1-c1cccc(C(=O)N=c2cccc(C)[n-]2)c1 (protonated)
C=c1/c(=C/c2[n-]c(=O)[n-]c2O)cc(C)n1-c1cccc(C(=O)N=c2cccc(C)[n-]2)c1 (cis-trans isomerization)
C=c1/c(=C/c2[n-]c(=O)[n-]c2O)cc(C)n1-c1cccc(C(=O)N=c2cccc(C)[n-]2)c1 (3D coordinates assigned)
C=c1/c(=C/c2[n-]c(=O)[n-]c2O)cc(C)n1-c1cccc(C(=O)N=c2cccc(C)[n-]2)c1 (optimized conformer: 132.57205031992126 kcal/mol)

>  <smiles>  (22) 
C=c1c(=Cc2[nH]c(=O)[nH]c2O)cc(C)n1-c1cccc(C(=O)N=c2cccc(C)[nH]2)c1

>  <score_type>  (22) 
oracle

>  <origin>  (22) 
adg

>  <m_score__min__energy>  (22) 
-15.33

>  <m_primary>  (22) 
energy

$$$$
22:0
     RDKit          3D

 27 28  0  0  0  0  0  0  0  0999 V2000
   56.6020   22.5990   43.0540 C   0  0  0  0  0  0  0  0  0  0  0  0
   55.5360   23.5150   43.6540 C   0  0  0  0  0  0  0  0  0  0  0  0
   55.5990   23.5660   45.1860 C   0  0  0  0  0  0  0  0  0  0  0  0
   56.3170   24.7950   45.6780 C   0  0  0  0  0  0  0  0  0  0  0  0
   55.7480   26.0300   45.9870 C   0  0  0  0  0  0  0  0  0  0  0  0
   54.3890   26.3290   45.9310 O   0  0  0  0  0  0  0  0  0  0  0  0
   56.6770   26.9430   46.3540 N   0  0  0  0  0  0  0  0  0  0  0  0
   57.8470   26.2790   46.2680 C   0  0  0  0  0  0  0  0  0  0  0  0
   57.6740   24.9830   45.8610 C   0  0  0  0  0  0  0  0  0  0  0  0
   58.7810   24.1540   45.7130 C   0  0  0  0  0  0  0  0  0  0  0  0
   58.6690   22.9590   45.3360 O   0  0  0  0  0  0  0  0  0  0  0  0
   60.0100   24.6680   45.9980 N   0  0  0  0  0  0  0  0  0  0  0  0
   60.1700   25.9640   46.4080 C   0  0  0  0  0  0  0  0  0  0  0  0
   61.3300   26.3800   46.6740 O   0  0  0  0  0  0  0  0  0  0  0  0
   59.0820   26.7980   46.5310 N   0  0  0  0  0  0  0  0  0  0  0  0
   59.2330   28.1810   47.0020 C   0  0  0  0  0  0  0  0  0  0  0  0
   57.1666   22.1139   43.8639 H   0  0  0  0  0  0  0  0  0  0  0  0
   56.1180   21.8307   42.4331 H   0  0  0  0  0  0  0  0  0  0  0  0
   57.2887   23.1931   42.4331 H   0  0  0  0  0  0  0  0  0  0  0  0
   55.6830   24.5318   43.2610 H   0  0  0  0  0  0  0  0  0  0  0  0
   54.5521   23.1109   43.3735 H   0  0  0  0  0  0  0  0  0  0  0  0
   54.5736   23.5699   45.5841 H   0  0  0  0  0  0  0  0  0  0  0  0
   56.1561   22.6836   45.5338 H   0  0  0  0  0  0  0  0  0  0  0  0
   53.6960   25.7450   46.3790 H   0  0  0  0  0  0  0  0  0  0  0  0
   59.2346   28.1956   48.1019 H   0  0  0  0  0  0  0  0  0  0  0  0
   60.1816   28.5941   46.6284 H   0  0  0  0  0  0  0  0  0  0  0  0
   58.3959   28.7890   46.6284 H   0  0  0  0  0  0  0  0  0  0  0  0
  1  2  1  0
  2  3  1  0
  3  4  1  0
  4  5  2  0
  5  6  1  0
  5  7  1  0
  7  8  1  0
  8  9  2  0
  9 10  1  0
 10 11  2  0
 10 12  1  0
 12 13  1  0
 13 14  2  0
 13 15  1  0
 15 16  1  0
  9  4  1  0
 15  8  1  0
  1 17  1  0
  1 18  1  0
  1 19  1  0
  2 20  1  0
  2 21  1  0
  3 22  1  0
  3 23  1  0
  6 24  1  0
 16 25  1  0
 16 26  1  0
 16 27  1  0
M  CHG  2   7  -1  12  -1
M  END
>  <UniqueID>  (23) 
23

>  <SMILES>  (23) 
CCCc1c(O)[n-]c2c1c(=O)[n-]c(=O)n2C

>  <Energy>  (23) 
59.2814562888771

>  <Genealogy>  (23) 
CCCc1c(O)[n-]c2c1c(=O)[n-]c(=O)n2C (protonated)
CCCc1c(O)[n-]c2c1c(=O)[n-]c(=O)n2C (3D coordinates assigned)
CCCc1c(O)[n-]c2c1c(=O)[n-]c(=O)n2C (optimized conformer: 59.2814562888771 kcal/mol)

>  <smiles>  (23) 
CCCc1c(O)[nH]c2c1c(=O)[nH]c(=O)n2C

>  <score_type>  (23) 
oracle

>  <origin>  (23) 
adg

>  <m_score__min__energy>  (23) 
-8.2899999999999991

>  <m_primary>  (23) 
energy

$$$$
23:0
     RDKit          3D

 48 50  0  0  0  0  0  0  0  0999 V2000
   63.8366   33.3862   46.7071 H   0  0  0  0  0  0  0  0  0  0  0  0
   62.8300   33.7920   46.8860 C   0  0  0  0  0  0  0  0  0  0  0  0
   62.6314   34.8617   46.7239 H   0  0  0  0  0  0  0  0  0  0  0  0
   61.8490   32.9860   47.3000 C   0  0  0  0  0  0  0  0  0  0  0  0
   62.0630   31.9186   47.4577 H   0  0  0  0  0  0  0  0  0  0  0  0
   60.4600   33.5000   47.5560 C   0  0  0  0  0  0  0  0  0  0  0  0
   60.1570   33.2265   48.5775 H   0  0  0  0  0  0  0  0  0  0  0  0
   60.4615   34.5935   47.4364 H   0  0  0  0  0  0  0  0  0  0  0  0
   59.4790   32.9080   46.5740 C   0  0  0  0  0  0  0  0  0  0  0  0
   59.6840   31.6090   46.0770 C   0  0  0  0  0  0  0  0  0  0  0  0
   60.5548   31.0271   46.4133 H   0  0  0  0  0  0  0  0  0  0  0  0
   58.7880   31.0500   45.1570 C   0  0  0  0  0  0  0  0  0  0  0  0
   59.0470   29.7030   44.6150 C   0  0  0  0  0  0  0  0  0  0  0  0
   58.8255   29.5249   43.5524 H   0  0  0  0  0  0  0  0  0  0  0  0
   59.5380   28.6750   45.3380 C   0  0  0  0  0  0  0  0  0  0  0  0
   59.0200   27.3030   45.1150 C   0  0  0  0  0  0  0  0  0  0  0  0
   58.2650   27.0620   44.1320 O   0  0  0  0  0  0  0  0  0  0  0  0
   59.4500   26.2120   46.0240 C   0  0  0  0  0  0  0  0  0  0  0  0
   58.8530   25.0030   46.0870 C   0  0  0  0  0  0  0  0  0  0  0  0
   59.4586   24.1585   46.4475 H   0  0  0  0  0  0  0  0  0  0  0  0
   57.4520   24.7220   45.7110 C   0  0  0  0  0  0  0  0  0  0  0  0
   57.1200   23.5940   44.9400 C   0  0  0  0  0  0  0  0  0  0  0  0
   57.9051   22.8836   44.6416 H   0  0  0  0  0  0  0  0  0  0  0  0
   55.7940   23.3720   44.5510 C   0  0  0  0  0  0  0  0  0  0  0  0
   55.4700   22.2470   43.8020 O   0  0  0  0  0  0  0  0  0  0  0  0
   54.7980   24.2840   44.9110 C   0  0  0  0  0  0  0  0  0  0  0  0
   53.7548   24.1044   44.6121 H   0  0  0  0  0  0  0  0  0  0  0  0
   55.1260   25.4250   45.6510 C   0  0  0  0  0  0  0  0  0  0  0  0
   54.1370   26.3370   45.9960 O   0  0  0  0  0  0  0  0  0  0  0  0
   56.4520   25.6500   46.0410 C   0  0  0  0  0  0  0  0  0  0  0  0
   56.7106   26.5567   46.6076 H   0  0  0  0  0  0  0  0  0  0  0  0
   60.6920   26.4580   46.8480 C   0  0  0  0  0  0  0  0  0  0  0  0
   61.5769   26.2710   46.2219 H   0  0  0  0  0  0  0  0  0  0  0  0
   60.6671   25.7787   47.7129 H   0  0  0  0  0  0  0  0  0  0  0  0
   60.7510   27.8430   47.3560 N   0  0  0  0  0  0  0  0  0  0  0  0
   59.7070   28.1130   48.3610 C   0  0  0  0  0  0  0  0  0  0  0  0
   60.1319   28.0031   49.3697 H   0  0  0  0  0  0  0  0  0  0  0  0
   59.3299   29.1382   48.2316 H   0  0  0  0  0  0  0  0  0  0  0  0
   58.8802   27.3991   48.2316 H   0  0  0  0  0  0  0  0  0  0  0  0
   60.7350   28.8360   46.2630 C   0  0  0  0  0  0  0  0  0  0  0  0
   61.6548   28.7216   45.6707 H   0  0  0  0  0  0  0  0  0  0  0  0
   60.6669   29.8332   46.7223 H   0  0  0  0  0  0  0  0  0  0  0  0
   57.7090   31.8140   44.6890 C   0  0  0  0  0  0  0  0  0  0  0  0
   57.0222   31.3923   43.9403 H   0  0  0  0  0  0  0  0  0  0  0  0
   57.5040   33.1090   45.1710 C   0  0  0  0  0  0  0  0  0  0  0  0
   56.6474   33.6981   44.8116 H   0  0  0  0  0  0  0  0  0  0  0  0
   58.3830   33.6590   46.1080 C   0  0  0  0  0  0  0  0  0  0  0  0
   58.1640   34.9540   46.5670 O   0  0  0  0  0  0  0  0  0  0  0  0
  1  2  1  0
  2  3  1  0
  2  4  2  0
  4  5  1  0
  4  6  1  0
  6  7  1  0
  6  8  1  0
  6  9  1  0
  9 10  2  0
 10 11  1  0
 10 12  1  0
 12 13  1  0
 13 14  1  0
 13 15  2  3
 15 16  1  0
 16 17  2  0
 16 18  1  0
 18 19  2  0
 19 20  1  0
 19 21  1  0
 21 22  2  0
 22 23  1  0
 22 24  1  0
 24 25  1  0
 24 26  2  0
 26 27  1  0
 26 28  1  0
 28 29  1  0
 28 30  2  0
 30 31  1  0
 18 32  1  0
 32 33  1  0
 32 34  1  0
 32 35  1  0
 35 36  1  0
 36 37  1  0
 36 38  1  0
 36 39  1  0
 35 40  1  0
 40 41  1  0
 40 42  1  0
 12 43  2  0
 43 44  1  0
 43 45  1  0
 45 46  1  0
 45 47  2  0
 47 48  1  0
 47  9  1  0
 40 15  1  0
 30 21  1  0
M  CHG  3  25  -1  29  -1  48  -1
M  END
>  <UniqueID>  (24) 
24

>  <SMILES>  (24) 
C=CCc1cc(C=C2CN(C)C/C(=C/c3cc([O-])cc([O-])c3)C2=O)ccc1[O-]

>  <Energy>  (24) 
69.46123769203453

>  <Genealogy>  (24) 
C=CCc1cc(C=C2CN(C)CC(=Cc3cc([O-])cc([O-])c3)C2=O)ccc1[O-] (protonated)
C=CCc1cc(C=C2CN(C)C/C(=C/c3cc([O-])cc([O-])c3)C2=O)ccc1[O-] (cis-trans isomerization)
C=CCc1cc(C=C2CN(C)C/C(=C/c3cc([O-])cc([O-])c3)C2=O)ccc1[O-] (3D coordinates assigned)
C=CCc1cc(C=C2CN(C)C/C(=C/c3cc([O-])cc([O-])c3)C2=O)ccc1[O-] (nonaromatic ring conformer: 69.46123769203453 kcal/mol)

>  <smiles>  (24) 
C=CCc1cc(C=C2CN(C)CC(=Cc3cc(O)cc(O)c3)C2=O)ccc1O

>  <score_type>  (24) 
oracle

>  <origin>  (24) 
adg

>  <m_score__min__energy>  (24) 
-14.640000000000001

>  <m_primary>  (24) 
energy

$$$$
24:0
     RDKit          3D

 63 66  0  0  0  0  0  0  0  0999 V2000
   60.2943   28.3484   48.7681 H   0  0  0  0  0  0  0  0  0  0  0  0
   59.7110   27.8010   48.0130 C   0  0  0  0  0  0  0  0  0  0  0  0
   59.1260   28.4740   46.9880 N   0  0  0  0  0  0  0  0  0  0  0  0
   58.3940   27.8570   46.0200 C   0  0  0  0  0  0  0  0  0  0  0  0
   57.9250   28.6100   45.0630 N   0  0  0  0  0  0  0  0  0  0  0  0
   57.3170   29.9040   45.1440 C   0  0  0  0  0  0  0  0  0  0  0  0
   56.0980   30.0280   44.8500 O   0  0  0  0  0  0  0  0  0  0  0  0
   58.0540   31.0520   45.6960 C   0  0  0  0  0  0  0  0  0  0  0  0
   57.9020   32.3660   45.2960 C   0  0  0  0  0  0  0  0  0  0  0  0
   57.2308   32.7440   44.5108 H   0  0  0  0  0  0  0  0  0  0  0  0
   58.7630   33.1100   46.0810 C   0  0  0  0  0  0  0  0  0  0  0  0
   58.9300   34.5690   45.9830 C   0  0  0  0  0  0  0  0  0  0  0  0
   58.9050   35.1200   44.8500 O   0  0  0  0  0  0  0  0  0  0  0  0
   59.1780   35.3620   47.1430 N   0  0  0  0  0  0  0  0  0  0  0  0
   59.4300   34.9170   48.0520 H   0  0  0  0  0  0  0  0  0  0  0  0
   59.2260   36.4020   47.0670 H   0  0  0  0  0  0  0  0  0  0  0  0
   59.3820   32.2180   46.9530 C   0  0  0  0  0  0  0  0  0  0  0  0
   60.2760   32.5440   48.1250 C   0  0  0  0  0  0  0  0  0  0  0  0
   60.8825   31.6561   48.3569 H   0  0  0  0  0  0  0  0  0  0  0  0
   59.6202   32.8333   48.9594 H   0  0  0  0  0  0  0  0  0  0  0  0
   61.1890   33.6820   47.8770 N   0  0  0  0  0  0  0  0  0  0  0  0
   61.6490   34.4070   49.0830 C   0  0  0  0  0  0  0  0  0  0  0  0
   60.9973   34.1317   49.9253 H   0  0  0  0  0  0  0  0  0  0  0  0
   61.6004   35.4819   48.8545 H   0  0  0  0  0  0  0  0  0  0  0  0
   63.1050   34.0890   49.4680 C   0  0  0  0  0  0  0  0  0  0  0  0
   63.1850   34.0291   50.5635 H   0  0  0  0  0  0  0  0  0  0  0  0
   63.7572   34.8869   49.0833 H   0  0  0  0  0  0  0  0  0  0  0  0
   63.5240   32.8090   48.8820 N   0  0  0  0  0  0  0  0  0  0  0  0
   64.8430   32.4110   49.3950 C   0  0  0  0  0  0  0  0  0  0  0  0
   64.8255   32.4163   50.4948 H   0  0  0  0  0  0  0  0  0  0  0  0
   65.0857   31.3996   49.0370 H   0  0  0  0  0  0  0  0  0  0  0  0
   65.6047   33.1193   49.0370 H   0  0  0  0  0  0  0  0  0  0  0  0
   63.5540   32.9140   47.4130 C   0  0  0  0  0  0  0  0  0  0  0  0
   63.7365   31.9155   46.9890 H   0  0  0  0  0  0  0  0  0  0  0  0
   64.3560   33.6148   47.1381 H   0  0  0  0  0  0  0  0  0  0  0  0
   62.2250   33.4620   46.8460 C   0  0  0  0  0  0  0  0  0  0  0  0
   61.8369   32.7415   46.1109 H   0  0  0  0  0  0  0  0  0  0  0  0
   62.4453   34.4410   46.3954 H   0  0  0  0  0  0  0  0  0  0  0  0
   58.9490   30.9680   46.7000 N   0  0  0  0  0  0  0  0  0  0  0  0
   59.2280   30.1030   47.2150 H   0  0  0  0  0  0  0  0  0  0  0  0
   58.1930   26.4460   46.1070 C   0  0  0  0  0  0  0  0  0  0  0  0
   57.2590   25.7340   45.2750 N   0  0  0  0  0  0  0  0  0  0  0  0
   56.3380   24.7930   45.9300 C   0  0  0  0  0  0  0  0  0  0  0  0
   56.9055   23.9217   46.2889 H   0  0  0  0  0  0  0  0  0  0  0  0
   55.8505   25.3021   46.7745 H   0  0  0  0  0  0  0  0  0  0  0  0
   55.2610   24.3230   44.9460 C   0  0  0  0  0  0  0  0  0  0  0  0
   54.6216   23.5822   45.4483 H   0  0  0  0  0  0  0  0  0  0  0  0
   54.6829   25.2048   44.6324 H   0  0  0  0  0  0  0  0  0  0  0  0
   55.8710   23.6750   43.6710 C   0  0  0  0  0  0  0  0  0  0  0  0
   55.2342   24.0033   42.8363 H   0  0  0  0  0  0  0  0  0  0  0  0
   55.8510   22.2130   43.7580 N   0  0  0  0  0  0  0  0  0  0  0  0
   55.5320   21.8170   42.8440 H   0  0  0  0  0  0  0  0  0  0  0  0
   56.8270   21.8740   43.9220 H   0  0  0  0  0  0  0  0  0  0  0  0
   57.3100   24.1550   43.3760 C   0  0  0  0  0  0  0  0  0  0  0  0
   58.0195   23.5033   43.9070 H   0  0  0  0  0  0  0  0  0  0  0  0
   57.4717   24.1089   42.2889 H   0  0  0  0  0  0  0  0  0  0  0  0
   57.5270   25.6000   43.8310 C   0  0  0  0  0  0  0  0  0  0  0  0
   58.5682   25.8907   43.6278 H   0  0  0  0  0  0  0  0  0  0  0  0
   56.8355   26.2537   43.2793 H   0  0  0  0  0  0  0  0  0  0  0  0
   58.8040   25.7500   47.1620 C   0  0  0  0  0  0  0  0  0  0  0  0
   58.6736   24.6607   47.2421 H   0  0  0  0  0  0  0  0  0  0  0  0
   59.5730   26.4220   48.1080 C   0  0  0  0  0  0  0  0  0  0  0  0
   60.0653   25.8679   48.9207 H   0  0  0  0  0  0  0  0  0  0  0  0
  1  2  1  0
  2  3  1  0
  3  4  1  0
  4  5  2  0
  5  6  1  0
  6  7  2  0
  6  8  1  0
  8  9  2  0
  9 10  1  0
  9 11  1  0
 11 12  1  0
 12 13  2  0
 12 14  1  0
 14 15  1  0
 14 16  1  0
 11 17  2  0
 17 18  1  0
 18 19  1  0
 18 20  1  0
 18 21  1  0
 21 22  1  0
 22 23  1  0
 22 24  1  0
 22 25  1  0
 25 26  1  0
 25 27  1  0
 25 28  1  0
 28 29  1  0
 29 30  1  0
 29 31  1  0
 29 32  1  0
 28 33  1  0
 33 34  1  0
 33 35  1  0
 33 36  1  0
 36 37  1  0
 36 38  1  0
 17 39  1  0
 39 40  1  0
  4 41  1  0
 41 42  1  0
 42 43  1  0
 43 44  1  0
 43 45  1  0
 43 46  1  0
 46 47  1  0
 46 48  1  0
 46 49  1  0
 49 50  1  0
 49 51  1  0
 51 52  1  0
 51 53  1  0
 49 54  1  0
 54 55  1  0
 54 56  1  0
 54 57  1  0
 57 58  1  0
 57 59  1  0
 41 60  2  0
 60 61  1  0
 60 62  1  0
 62 63  1  0
 62  2  2  0
 39  8  1  0
 57 42  1  0
 36 21  1  0
M  CHG  1   3  -1
M  END
>  <UniqueID>  (25) 
25

>  <SMILES>  (25) 
CN1CCN(Cc2[nH]c(C(=O)/N=c3/[n-]cccc3N3CCC(N)CC3)cc2C(N)=O)CC1

>  <Energy>  (25) 
123.84949427198309

>  <Genealogy>  (25) 
CN1CCN(Cc2[nH]c(C(=O)N=c3[n-]cccc3N3CCC(N)CC3)cc2C(N)=O)CC1 (protonated)
CN1CCN(Cc2[nH]c(C(=O)/N=c3/[n-]cccc3N3CCC(N)CC3)cc2C(N)=O)CC1 (cis-trans isomerization)
CN1CCN(Cc2[nH]c(C(=O)/N=c3/[n-]cccc3N3CCC(N)CC3)cc2C(N)=O)CC1 (3D coordinates assigned)
CN1CCN(Cc2[nH]c(C(=O)/N=c3/[n-]cccc3N3CCC(N)CC3)cc2C(N)=O)CC1 (nonaromatic ring conformer: 123.84949427198309 kcal/mol)

>  <smiles>  (25) 
CN1CCN(Cc2[nH]c(C(=O)N=c3[nH]cccc3N3CCC(N)CC3)cc2C(N)=O)CC1

>  <score_type>  (25) 
oracle

>  <origin>  (25) 
adg

>  <m_score__min__energy>  (25) 
-10.1

>  <m_primary>  (25) 
energy

$$$$
25:0
     RDKit          3D

 30 32  0  0  0  0  0  0  0  0999 V2000
   50.6440   32.7120   51.6110 O   0  0  0  0  0  0  0  0  0  0  0  0
   51.6620   31.8310   51.9570 C   0  0  0  0  0  0  0  0  0  0  0  0
   51.6410   31.1890   53.2000 C   0  0  0  0  0  0  0  0  0  0  0  0
   52.6670   30.3060   53.5500 C   0  0  0  0  0  0  0  0  0  0  0  0
   53.7210   30.0670   52.6580 C   0  0  0  0  0  0  0  0  0  0  0  0
   55.0510   28.9500   53.1130 S   0  0  0  0  0  0  0  0  0  0  0  0
   56.2730   30.2700   53.4320 C   0  0  0  0  0  0  0  0  0  0  0  0
   57.1600   30.4710   52.2440 C   0  0  0  0  0  0  0  0  0  0  0  0
   57.7460   29.4570   51.5600 N   0  0  0  0  0  0  0  0  0  0  0  0
   58.3770   30.0880   50.5460 C   0  0  0  0  0  0  0  0  0  0  0  0
   59.1280   29.4720   49.5480 C   0  0  0  0  0  0  0  0  0  0  0  0
   59.7020   30.2920   48.5610 C   0  0  0  0  0  0  0  0  0  0  0  0
   59.5120   31.6860   48.5950 C   0  0  0  0  0  0  0  0  0  0  0  0
   58.7430   32.2540   49.6230 C   0  0  0  0  0  0  0  0  0  0  0  0
   58.2100   31.4250   50.5570 N   0  0  0  0  0  0  0  0  0  0  0  0
   57.4400   31.6760   51.6250 C   0  0  0  0  0  0  0  0  0  0  0  0
   56.9870   32.9310   52.0230 O   0  0  0  0  0  0  0  0  0  0  0  0
   53.7340   30.7000   51.4090 C   0  0  0  0  0  0  0  0  0  0  0  0
   52.7080   31.5850   51.0600 C   0  0  0  0  0  0  0  0  0  0  0  0
   50.8163   31.3792   53.9027 H   0  0  0  0  0  0  0  0  0  0  0  0
   52.6468   29.7988   54.5259 H   0  0  0  0  0  0  0  0  0  0  0  0
   55.7418   31.2086   53.6484 H   0  0  0  0  0  0  0  0  0  0  0  0
   56.8946   29.9752   54.2904 H   0  0  0  0  0  0  0  0  0  0  0  0
   59.2673   28.3810   49.5326 H   0  0  0  0  0  0  0  0  0  0  0  0
   60.3031   29.8415   47.7575 H   0  0  0  0  0  0  0  0  0  0  0  0
   59.9627   32.3257   47.8219 H   0  0  0  0  0  0  0  0  0  0  0  0
   58.5769   33.3403   49.6705 H   0  0  0  0  0  0  0  0  0  0  0  0
   56.0130   33.1940   51.9450 H   0  0  0  0  0  0  0  0  0  0  0  0
   54.5521   30.5012   50.7011 H   0  0  0  0  0  0  0  0  0  0  0  0
   52.7234   32.0871   50.0814 H   0  0  0  0  0  0  0  0  0  0  0  0
  1  2  1  0
  2  3  2  0
  3  4  1  0
  4  5  2  0
  5  6  1  0
  6  7  1  0
  7  8  1  0
  8  9  1  0
  9 10  2  0
 10 11  1  0
 11 12  2  0
 12 13  1  0
 13 14  2  0
 14 15  1  0
 15 16  1  0
 16 17  1  0
  5 18  1  0
 18 19  2  0
 19  2  1  0
 16  8  2  0
 15 10  1  0
  3 20  1  0
  4 21  1  0
  7 22  1  0
  7 23  1  0
 11 24  1  0
 12 25  1  0
 13 26  1  0
 14 27  1  0
 17 28  1  0
 18 29  1  0
 19 30  1  0
M  CHG  1   1  -1
M  END
>  <UniqueID>  (26) 
26

>  <SMILES>  (26) 
[O-]c1ccc(SCc2nc3ccccn3c2O)cc1

>  <Energy>  (26) 
62.68086886500025

>  <Genealogy>  (26) 
[O-]c1ccc(SCc2nc3ccccn3c2O)cc1 (protonated)
[O-]c1ccc(SCc2nc3ccccn3c2O)cc1 (3D coordinates assigned)
[O-]c1ccc(SCc2nc3ccccn3c2O)cc1 (optimized conformer: 62.68086886500025 kcal/mol)

>  <smiles>  (26) 
Oc1ccc(SCc2nc3ccccn3c2O)cc1

>  <score_type>  (26) 
oracle

>  <origin>  (26) 
adg

>  <m_score__min__energy>  (26) 
-10.16

>  <m_primary>  (26) 
energy

$$$$
26:0
     RDKit          3D

 47 50  0  0  0  0  0  0  0  0999 V2000
   56.5920   26.2480   46.5870 C   0  0  0  0  0  0  0  0  0  0  0  0
   56.9520   25.9360   45.3360 C   0  0  0  0  0  0  0  0  0  0  0  0
   56.7850   24.6950   44.7090 C   0  0  0  0  0  0  0  0  0  0  0  0
   56.1490   23.6110   45.1980 C   0  0  0  0  0  0  0  0  0  0  0  0
   56.5540   22.9230   46.4320 C   0  0  0  0  0  0  0  0  0  0  0  0
   56.5280   23.5030   47.6460 N   0  0  0  0  0  0  0  0  0  0  0  0
   57.0130   22.5390   48.4570 C   0  0  0  0  0  0  0  0  0  0  0  0
   57.1080   22.6900   49.7030 O   0  0  0  0  0  0  0  0  0  0  0  0
   57.3710   21.3960   47.8290 N   0  0  0  0  0  0  0  0  0  0  0  0
   57.0880   21.6620   46.5430 C   0  0  0  0  0  0  0  0  0  0  0  0
   57.3440   20.7920   45.4860 O   0  0  0  0  0  0  0  0  0  0  0  0
   57.3360   24.8200   43.4430 C   0  0  0  0  0  0  0  0  0  0  0  0
   57.7980   26.1170   43.3410 C   0  0  0  0  0  0  0  0  0  0  0  0
   58.4540   26.6910   42.1230 C   0  0  0  0  0  0  0  0  0  0  0  0
   57.5820   26.7910   44.4930 N   0  0  0  0  0  0  0  0  0  0  0  0
   57.8830   28.1780   44.7210 C   0  0  0  0  0  0  0  0  0  0  0  0
   59.2140   28.6020   44.7620 C   0  0  0  0  0  0  0  0  0  0  0  0
   59.5200   29.9350   45.0550 C   0  0  0  0  0  0  0  0  0  0  0  0
   58.4930   30.8650   45.2960 C   0  0  0  0  0  0  0  0  0  0  0  0
   58.8160   32.2250   45.6490 N   0  0  0  0  0  0  0  0  0  0  0  0
   58.3910   33.3160   44.7620 C   0  0  0  0  0  0  0  0  0  0  0  0
   59.0120   34.6360   45.2120 C   0  0  0  0  0  0  0  0  0  0  0  0
   58.7870   34.7970   46.5980 O   0  0  0  0  0  0  0  0  0  0  0  0
   59.5870   33.8950   47.3520 C   0  0  0  0  0  0  0  0  0  0  0  0
   59.7950   32.4990   46.7100 C   0  0  0  0  0  0  0  0  0  0  0  0
   57.1520   30.4390   45.2230 C   0  0  0  0  0  0  0  0  0  0  0  0
   56.8490   29.1030   44.9420 C   0  0  0  0  0  0  0  0  0  0  0  0
   55.5200   28.6980   44.8940 O   0  0  0  0  0  0  0  0  0  0  0  0
   56.7738   27.2610   46.9752 H   0  0  0  0  0  0  0  0  0  0  0  0
   56.1144   25.4913   47.2268 H   0  0  0  0  0  0  0  0  0  0  0  0
   55.2819   23.2214   44.6445 H   0  0  0  0  0  0  0  0  0  0  0  0
   58.2420   20.3350   45.3970 H   0  0  0  0  0  0  0  0  0  0  0  0
   57.3938   24.0387   42.6709 H   0  0  0  0  0  0  0  0  0  0  0  0
   59.2493   27.3869   42.4284 H   0  0  0  0  0  0  0  0  0  0  0  0
   58.8887   25.8779   41.5230 H   0  0  0  0  0  0  0  0  0  0  0  0
   57.7058   27.2298   41.5230 H   0  0  0  0  0  0  0  0  0  0  0  0
   60.0240   27.8848   44.5631 H   0  0  0  0  0  0  0  0  0  0  0  0
   60.5707   30.2580   45.0972 H   0  0  0  0  0  0  0  0  0  0  0  0
   58.7138   33.0947   43.7340 H   0  0  0  0  0  0  0  0  0  0  0  0
   57.2952   33.4037   44.8018 H   0  0  0  0  0  0  0  0  0  0  0  0
   60.0936   34.6226   45.0123 H   0  0  0  0  0  0  0  0  0  0  0  0
   58.5553   35.4708   44.6601 H   0  0  0  0  0  0  0  0  0  0  0  0
   60.5762   34.3548   47.4936 H   0  0  0  0  0  0  0  0  0  0  0  0
   59.0440   33.7197   48.2925 H   0  0  0  0  0  0  0  0  0  0  0  0
   60.8062   32.4542   46.2793 H   0  0  0  0  0  0  0  0  0  0  0  0
   59.6613   31.7420   47.4968 H   0  0  0  0  0  0  0  0  0  0  0  0
   56.3389   31.1613   45.3879 H   0  0  0  0  0  0  0  0  0  0  0  0
  1  2  2  0
  2  3  1  0
  3  4  2  3
  4  5  1  0
  5  6  1  0
  6  7  1  0
  7  8  2  0
  7  9  1  0
  9 10  1  0
 10 11  1  0
  3 12  1  0
 12 13  2  0
 13 14  1  0
 13 15  1  0
 15 16  1  0
 16 17  2  0
 17 18  1  0
 18 19  2  0
 19 20  1  0
 20 21  1  0
 21 22  1  0
 22 23  1  0
 23 24  1  0
 24 25  1  0
 19 26  1  0
 26 27  2  0
 27 28  1  0
 15  2  1  0
 27 16  1  0
 10  5  2  0
 25 20  1  0
  1 29  1  0
  1 30  1  0
  4 31  1  0
 11 32  1  0
 12 33  1  0
 14 34  1  0
 14 35  1  0
 14 36  1  0
 17 37  1  0
 18 38  1  0
 21 39  1  0
 21 40  1  0
 22 41  1  0
 22 42  1  0
 24 43  1  0
 24 44  1  0
 25 45  1  0
 25 46  1  0
 26 47  1  0
M  CHG  3   6  -1   9  -1  28  -1
M  END
>  <UniqueID>  (27) 
27

>  <SMILES>  (27) 
C=c1c(=Cc2[n-]c(=O)[n-]c2O)cc(C)n1-c1ccc(N2CCOCC2)cc1[O-]

>  <Energy>  (27) 
131.58010486363872

>  <Genealogy>  (27) 
C=c1c(=Cc2[n-]c(=O)[n-]c2O)cc(C)n1-c1ccc(N2CCOCC2)cc1[O-] (protonated)
C=c1c(=Cc2[n-]c(=O)[n-]c2O)cc(C)n1-c1ccc(N2CCOCC2)cc1[O-] (3D coordinates assigned)
C=c1c(=Cc2[n-]c(=O)[n-]c2O)cc(C)n1-c1ccc(N2CCOCC2)cc1[O-] (nonaromatic ring conformer: 131.58010486363872 kcal/mol)

>  <smiles>  (27) 
C=c1c(=Cc2[nH]c(=O)[nH]c2O)cc(C)n1-c1ccc(N2CCOCC2)cc1O

>  <score_type>  (27) 
oracle

>  <origin>  (27) 
adg

>  <m_score__min__energy>  (27) 
-15.58

>  <m_primary>  (27) 
energy

$$$$
27:0
     RDKit          3D

 45 47  0  0  0  0  0  0  0  0999 V2000
   56.3307   25.9615   45.1662 H   0  0  0  0  0  0  0  0  0  0  0  0
   56.8540   25.6160   46.0700 C   0  0  0  0  0  0  0  0  0  0  0  0
   56.5054   24.7156   46.5970 H   0  0  0  0  0  0  0  0  0  0  0  0
   57.9160   26.2920   46.5290 C   0  0  0  0  0  0  0  0  0  0  0  0
   58.5010   27.4360   45.9740 C   0  0  0  0  0  0  0  0  0  0  0  0
   58.0660   28.0790   44.8680 C   0  0  0  0  0  0  0  0  0  0  0  0
   58.0992   27.5272   43.9170 H   0  0  0  0  0  0  0  0  0  0  0  0
   57.5520   29.4560   44.8320 C   0  0  0  0  0  0  0  0  0  0  0  0
   58.3130   30.5450   44.6250 N   0  0  0  0  0  0  0  0  0  0  0  0
   57.4060   31.5400   44.5130 C   0  0  0  0  0  0  0  0  0  0  0  0
   57.7360   32.7400   44.3280 O   0  0  0  0  0  0  0  0  0  0  0  0
   56.1170   31.1450   44.6020 N   0  0  0  0  0  0  0  0  0  0  0  0
   56.2300   29.8200   44.7860 C   0  0  0  0  0  0  0  0  0  0  0  0
   55.1460   28.9610   44.9060 O   0  0  0  0  0  0  0  0  0  0  0  0
   59.5710   27.7640   46.8260 C   0  0  0  0  0  0  0  0  0  0  0  0
   60.3940   29.0360   46.8760 C   0  0  0  0  0  0  0  0  0  0  0  0
   61.3156   28.8374   47.4428 H   0  0  0  0  0  0  0  0  0  0  0  0
   60.6115   29.3332   45.8395 H   0  0  0  0  0  0  0  0  0  0  0  0
   59.6450   30.1980   47.5460 C   0  0  0  0  0  0  0  0  0  0  0  0
   58.5968   30.1841   47.2126 H   0  0  0  0  0  0  0  0  0  0  0  0
   59.7177   30.0659   48.6356 H   0  0  0  0  0  0  0  0  0  0  0  0
   60.2500   31.5370   47.1970 C   0  0  0  0  0  0  0  0  0  0  0  0
   61.4330   31.7340   47.4450 O   0  0  0  0  0  0  0  0  0  0  0  0
   59.4400   32.5970   46.6210 N   0  0  0  0  0  0  0  0  0  0  0  0
   58.7570   32.1710   45.9510 H   0  0  0  0  0  0  0  0  0  0  0  0
   58.6500   33.2930   47.6720 C   0  0  0  0  0  0  0  0  0  0  0  0
   57.6164   33.4160   47.3163 H   0  0  0  0  0  0  0  0  0  0  0  0
   58.6863   32.6812   48.5854 H   0  0  0  0  0  0  0  0  0  0  0  0
   59.2290   34.6790   48.0050 C   0  0  0  0  0  0  0  0  0  0  0  0
   58.5972   35.1467   48.7745 H   0  0  0  0  0  0  0  0  0  0  0  0
   60.2608   34.5279   48.3551 H   0  0  0  0  0  0  0  0  0  0  0  0
   59.2860   35.5440   46.8800 O   0  0  0  0  0  0  0  0  0  0  0  0
   59.5880   34.8790   45.6570 C   0  0  0  0  0  0  0  0  0  0  0  0
   58.6466   34.7116   45.1132 H   0  0  0  0  0  0  0  0  0  0  0  0
   60.2864   35.5272   45.1074 H   0  0  0  0  0  0  0  0  0  0  0  0
   60.2900   33.5220   45.8370 C   0  0  0  0  0  0  0  0  0  0  0  0
   60.4865   33.0823   44.8480 H   0  0  0  0  0  0  0  0  0  0  0  0
   61.2352   33.6799   46.3771 H   0  0  0  0  0  0  0  0  0  0  0  0
   59.5880   26.7850   47.8150 C   0  0  0  0  0  0  0  0  0  0  0  0
   60.5290   26.7150   48.9780 C   0  0  0  0  0  0  0  0  0  0  0  0
   59.9562   26.7576   49.9162 H   0  0  0  0  0  0  0  0  0  0  0  0
   61.0943   25.7723   48.9360 H   0  0  0  0  0  0  0  0  0  0  0  0
   61.2276   27.5637   48.9360 H   0  0  0  0  0  0  0  0  0  0  0  0
   58.5870   25.9070   47.6300 N   0  0  0  0  0  0  0  0  0  0  0  0
   58.3680   25.0870   48.2400 H   0  0  0  0  0  0  0  0  0  0  0  0
  1  2  1  0
  2  3  1  0
  2  4  2  0
  4  5  1  0
  5  6  2  0
  6  7  1  0
  6  8  1  0
  8  9  1  0
  9 10  1  0
 10 11  2  0
 10 12  1  0
 12 13  1  0
 13 14  1  0
  5 15  1  0
 15 16  1  0
 16 17  1  0
 16 18  1  0
 16 19  1  0
 19 20  1  0
 19 21  1  0
 19 22  1  0
 22 23  2  0
 22 24  1  0
 24 25  1  0
 24 26  1  0
 26 27  1  0
 26 28  1  0
 26 29  1  0
 29 30  1  0
 29 31  1  0
 29 32  1  0
 32 33  1  0
 33 34  1  0
 33 35  1  0
 33 36  1  0
 36 37  1  0
 36 38  1  0
 15 39  2  0
 39 40  1  0
 40 41  1  0
 40 42  1  0
 40 43  1  0
 39 44  1  0
 44 45  1  0
 44  4  1  0
 13  8  2  0
 36 24  1  0
M  CHG  4   9  -1  12  -1  14  -1  24   1
M  END
>  <UniqueID>  (28) 
28

>  <SMILES>  (28) 
C=c1[nH]c(C)c(CCC(=O)[NH+]2CCOCC2)/c1=C\c1[n-]c(=O)[n-]c1[O-]

>  <Energy>  (28) 
123.90534755363461

>  <Genealogy>  (28) 
C=c1[nH]c(C)c(CCC(=O)[NH+]2CCOCC2)c1=Cc1[n-]c(=O)[n-]c1[O-] (protonated)
C=c1[nH]c(C)c(CCC(=O)[NH+]2CCOCC2)/c1=C\c1[n-]c(=O)[n-]c1[O-] (cis-trans isomerization)
C=c1[nH]c(C)c(CCC(=O)[NH+]2CCOCC2)/c1=C\c1[n-]c(=O)[n-]c1[O-] (3D coordinates assigned)
C=c1[nH]c(C)c(CCC(=O)[NH+]2CCOCC2)/c1=C\c1[n-]c(=O)[n-]c1[O-] (nonaromatic ring conformer: 123.90534755363461 kcal/mol)

>  <smiles>  (28) 
C=c1[nH]c(C)c(CCC(=O)N2CCOCC2)c1=Cc1[nH]c(=O)[nH]c1O

>  <score_type>  (28) 
oracle

>  <origin>  (28) 
adg

>  <m_score__min__energy>  (28) 
-14.58

>  <m_primary>  (28) 
energy

$$$$
28:0
     RDKit          3D

 43 45  0  0  0  0  0  0  0  0999 V2000
   56.6210   30.4050   42.8050 C   0  0  0  0  0  0  0  0  0  0  0  0
   57.3400   31.3230   43.7550 C   0  0  0  0  0  0  0  0  0  0  0  0
   57.8690   32.5360   43.2900 C   0  0  0  0  0  0  0  0  0  0  0  0
   58.5460   33.3930   44.1610 C   0  0  0  0  0  0  0  0  0  0  0  0
   58.6920   33.0540   45.5110 C   0  0  0  0  0  0  0  0  0  0  0  0
   59.5360   34.1460   46.6130 S   0  0  0  0  0  0  0  0  0  0  0  0
   59.6210   35.5090   45.9870 O   0  0  0  0  0  0  0  0  0  0  0  0
   58.7480   34.2680   47.8880 O   0  0  0  0  0  0  0  0  0  0  0  0
   61.1470   33.5790   46.9800 N   0  0  0  0  0  0  0  0  0  0  0  0
   61.1580   32.1160   47.1230 C   0  0  0  0  0  0  0  0  0  0  0  0
   62.5840   31.6280   47.4570 C   0  0  0  0  0  0  0  0  0  0  0  0
   63.4860   32.7050   47.6430 O   0  0  0  0  0  0  0  0  0  0  0  0
   62.9890   33.5780   48.6380 C   0  0  0  0  0  0  0  0  0  0  0  0
   61.6490   34.2120   48.2100 C   0  0  0  0  0  0  0  0  0  0  0  0
   58.1640   31.8450   45.9820 C   0  0  0  0  0  0  0  0  0  0  0  0
   57.5080   30.9610   45.1070 C   0  0  0  0  0  0  0  0  0  0  0  0
   56.9610   29.7180   45.5760 N   0  0  0  0  0  0  0  0  0  0  0  0
   57.7000   28.5650   45.9960 C   0  0  0  0  0  0  0  0  0  0  0  0
   58.4420   28.6070   47.0140 O   0  0  0  0  0  0  0  0  0  0  0  0
   57.6750   27.3340   45.1500 C   0  0  0  0  0  0  0  0  0  0  0  0
   57.1810   26.1730   45.9530 C   0  0  0  0  0  0  0  0  0  0  0  0
   57.9620   25.1660   46.3850 N   0  0  0  0  0  0  0  0  0  0  0  0
   57.0870   24.3330   46.9920 C   0  0  0  0  0  0  0  0  0  0  0  0
   57.4440   23.2590   47.5400 O   0  0  0  0  0  0  0  0  0  0  0  0
   55.8000   24.7420   46.9610 N   0  0  0  0  0  0  0  0  0  0  0  0
   55.8760   25.9040   46.2940 C   0  0  0  0  0  0  0  0  0  0  0  0
   54.7770   26.6990   45.9950 O   0  0  0  0  0  0  0  0  0  0  0  0
   56.0418   29.6655   43.3774 H   0  0  0  0  0  0  0  0  0  0  0  0
   55.9406   30.9929   42.1714 H   0  0  0  0  0  0  0  0  0  0  0  0
   57.3548   29.8853   42.1714 H   0  0  0  0  0  0  0  0  0  0  0  0
   57.7500   32.8143   42.2325 H   0  0  0  0  0  0  0  0  0  0  0  0
   58.9658   34.3375   43.7845 H   0  0  0  0  0  0  0  0  0  0  0  0
   60.4741   31.8242   47.9336 H   0  0  0  0  0  0  0  0  0  0  0  0
   60.8325   31.6586   46.1770 H   0  0  0  0  0  0  0  0  0  0  0  0
   62.5477   31.0321   48.3809 H   0  0  0  0  0  0  0  0  0  0  0  0
   62.9439   31.0274   46.6087 H   0  0  0  0  0  0  0  0  0  0  0  0
   62.8361   33.0110   49.5681 H   0  0  0  0  0  0  0  0  0  0  0  0
   63.7216   34.3844   48.7894 H   0  0  0  0  0  0  0  0  0  0  0  0
   60.9110   34.0754   49.0142 H   0  0  0  0  0  0  0  0  0  0  0  0
   61.8083   35.2834   48.0184 H   0  0  0  0  0  0  0  0  0  0  0  0
   58.2635   31.5847   47.0461 H   0  0  0  0  0  0  0  0  0  0  0  0
   57.0057   27.4949   44.2920 H   0  0  0  0  0  0  0  0  0  0  0  0
   58.6932   27.1198   44.7931 H   0  0  0  0  0  0  0  0  0  0  0  0
  1  2  1  0
  2  3  2  0
  3  4  1  0
  4  5  2  0
  5  6  1  0
  6  7  2  0
  6  8  2  0
  6  9  1  0
  9 10  1  0
 10 11  1  0
 11 12  1  0
 12 13  1  0
 13 14  1  0
  5 15  1  0
 15 16  2  0
 16 17  1  0
 17 18  1  0
 18 19  2  0
 18 20  1  0
 20 21  1  0
 21 22  1  0
 22 23  1  0
 23 24  2  0
 23 25  1  0
 25 26  1  0
 26 27  1  0
 16  2  1  0
 26 21  2  0
 14  9  1  0
  1 28  1  0
  1 29  1  0
  1 30  1  0
  3 31  1  0
  4 32  1  0
 10 33  1  0
 10 34  1  0
 11 35  1  0
 11 36  1  0
 13 37  1  0
 13 38  1  0
 14 39  1  0
 14 40  1  0
 15 41  1  0
 20 42  1  0
 20 43  1  0
M  CHG  4  17  -1  22  -1  25  -1  27  -1
M  END
>  <UniqueID>  (29) 
29

>  <SMILES>  (29) 
Cc1ccc(S(=O)(=O)N2CCOCC2)cc1[N-]C(=O)Cc1[n-]c(=O)[n-]c1[O-]

>  <Energy>  (29) 
81.01233651136664

>  <Genealogy>  (29) 
Cc1ccc(S(=O)(=O)N2CCOCC2)cc1[N-]C(=O)Cc1[n-]c(=O)[n-]c1[O-] (protonated)
Cc1ccc(S(=O)(=O)N2CCOCC2)cc1[N-]C(=O)Cc1[n-]c(=O)[n-]c1[O-] (3D coordinates assigned)
Cc1ccc(S(=O)(=O)N2CCOCC2)cc1[N-]C(=O)Cc1[n-]c(=O)[n-]c1[O-] (nonaromatic ring conformer: 81.01233651136664 kcal/mol)

>  <smiles>  (29) 
Cc1ccc(S(=O)(=O)N2CCOCC2)cc1NC(=O)Cc1[nH]c(=O)[nH]c1O

>  <score_type>  (29) 
oracle

>  <origin>  (29) 
adg

>  <m_score__min__energy>  (29) 
-18.18

>  <m_primary>  (29) 
energy

$$$$
29:0
     RDKit          3D

 62 67  0  0  1  0  0  0  0  0999 V2000
   56.2590   31.4680   44.5210 O   0  0  0  0  0  0  0  0  0  0  0  0
   57.4340   31.3870   45.0050 C   0  0  0  0  0  0  0  0  0  0  0  0
   58.1670   32.6130   45.2520 C   0  0  0  0  0  0  0  0  0  0  0  0
   57.9310   33.8040   44.6050 C   0  0  0  0  0  0  0  0  0  0  0  0
   58.6620   34.9580   44.8950 C   0  0  0  0  0  0  0  0  0  0  0  0
   59.6370   34.9150   45.8420 C   0  0  0  0  0  0  0  0  0  0  0  0
   59.9030   33.7370   46.5110 C   0  0  0  0  0  0  0  0  0  0  0  0
   60.9360   33.7630   47.4880 N   0  0  0  0  0  0  0  0  0  0  0  0
   61.9820   32.8270   47.5590 C   0  0  0  0  0  0  0  0  0  0  0  0
   62.1010   31.8680   46.7520 O   0  0  0  0  0  0  0  0  0  0  0  0
   62.9920   32.9640   48.6200 C   0  0  0  0  0  0  0  0  0  0  0  0
   62.8690   33.6690   49.7680 N   0  0  0  0  0  0  0  0  0  0  0  0
   64.0010   33.5520   50.4750 C   0  0  0  0  0  0  0  0  0  0  0  0
   64.2700   34.1600   51.7670 C   0  0  0  0  0  0  0  0  0  0  0  0
   65.3730   34.9570   51.9910 C   0  0  0  0  0  0  0  0  0  0  0  0
   65.5970   35.5230   53.2400 C   0  0  0  0  0  0  0  0  0  0  0  0
   64.7230   35.3070   54.2970 C   0  0  0  0  0  0  0  0  0  0  0  0
   63.6070   34.5050   54.0800 C   0  0  0  0  0  0  0  0  0  0  0  0
   63.4150   33.9590   52.8300 C   0  0  0  0  0  0  0  0  0  0  0  0
   64.8630   32.7580   49.7710 C   0  0  0  0  0  0  0  0  0  0  0  0
   64.2150   32.4170   48.6440 N   0  0  0  0  0  0  0  0  0  0  0  0
   59.1720   32.6150   46.2100 C   0  0  0  0  0  0  0  0  0  0  0  0
   57.9280   30.0500   45.2640 C   0  0  0  0  0  0  0  0  0  0  0  0
   57.0230   29.0070   45.3170 C   0  0  0  0  0  0  0  0  0  0  0  0
   57.4150   27.7110   45.5420 C   0  0  0  0  0  0  0  0  0  0  0  0
   58.7180   27.3770   45.7270 C   0  0  0  0  0  0  0  0  0  0  0  0
   59.3720   26.2010   45.9540 C   0  0  0  0  0  0  0  0  0  0  0  0
   58.9510   24.8440   46.1320 C   0  0  0  0  0  0  0  0  0  0  0  0
   57.7770   24.3010   45.9950 C   0  0  0  0  0  0  0  0  0  0  0  0
   57.3550   23.4910   44.8490 C   0  0  0  0  0  0  0  0  0  0  0  0
   58.0430   22.3110   44.5430 C   0  0  0  0  0  0  0  0  0  0  0  0
   57.6750   21.5160   43.4690 C   0  0  0  0  0  0  0  0  0  0  0  0
   56.6190   21.8580   42.6640 C   0  0  0  0  0  0  0  0  0  0  0  0
   55.9400   23.0120   42.9550 C   0  0  0  0  0  0  0  0  0  0  0  0
   56.3040   23.8080   44.0260 C   0  0  0  0  0  0  0  0  0  0  0  0
   60.6900   26.5780   46.0330 N   0  0  0  0  0  0  0  0  0  0  0  0
   60.8250   27.8580   45.8720 N   0  0  0  0  0  0  0  0  0  0  0  0
   59.6480   28.4140   45.6770 C   0  0  0  0  0  0  0  0  0  0  0  0
   59.2540   29.7320   45.4490 C   0  0  0  0  0  0  0  0  0  0  0  0
   57.1442   33.8485   43.8375 H   0  0  0  0  0  0  0  0  0  0  0  0
   58.4504   35.8960   44.3607 H   0  0  0  0  0  0  0  0  0  0  0  0
   60.2152   35.8211   46.0756 H   0  0  0  0  0  0  0  0  0  0  0  0
   60.9010   34.5440   48.1980 H   0  0  0  0  0  0  0  0  0  0  0  0
   66.0828   35.1466   51.1723 H   0  0  0  0  0  0  0  0  0  0  0  0
   66.4842   36.1546   53.3944 H   0  0  0  0  0  0  0  0  0  0  0  0
   64.9085   35.7592   55.2825 H   0  0  0  0  0  0  0  0  0  0  0  0
   62.8909   34.3104   54.8920 H   0  0  0  0  0  0  0  0  0  0  0  0
   62.5292   33.3266   52.6707 H   0  0  0  0  0  0  0  0  0  0  0  0
   65.8795   32.4592   50.0666 H   0  0  0  0  0  0  0  0  0  0  0  0
   64.6040   31.8030   47.8750 H   0  0  0  0  0  0  0  0  0  0  0  0
   59.3908   31.6812   46.7486 H   0  0  0  0  0  0  0  0  0  0  0  0
   55.9538   29.2224   45.1742 H   0  0  0  0  0  0  0  0  0  0  0  0
   56.6513   26.9199   45.5734 H   0  0  0  0  0  0  0  0  0  0  0  0
   59.7487   24.1490   46.4330 H   0  0  0  0  0  0  0  0  0  0  0  0
   57.0454   24.4620   46.8005 H   0  0  0  0  0  0  0  0  0  0  0  0
   58.8951   22.0078   45.1691 H   0  0  0  0  0  0  0  0  0  0  0  0
   58.2394   20.5955   43.2589 H   0  0  0  0  0  0  0  0  0  0  0  0
   56.3264   21.2264   41.8122 H   0  0  0  0  0  0  0  0  0  0  0  0
   55.0893   23.3110   42.3250 H   0  0  0  0  0  0  0  0  0  0  0  0
   55.7316   24.7261   44.2246 H   0  0  0  0  0  0  0  0  0  0  0  0
   61.5230   25.9440   46.2040 H   0  0  0  0  0  0  0  0  0  0  0  0
   60.0128   30.5277   45.4166 H   0  0  0  0  0  0  0  0  0  0  0  0
  1  2  2  0
  2  3  1  0
  3  4  2  0
  4  5  1  0
  5  6  2  0
  6  7  1  0
  7  8  1  0
  8  9  1  0
  9 10  2  0
  9 11  1  0
 11 12  2  0
 12 13  1  0
 13 14  1  0
 14 15  2  0
 15 16  1  0
 16 17  2  0
 17 18  1  0
 18 19  2  0
 13 20  2  0
 20 21  1  0
  7 22  2  0
  2 23  1  0
 23 24  1  0
 24 25  2  0
 25 26  1  0
 26 27  2  0
 27 28  1  0
 28 29  2  0
 29 30  1  0
 30 31  2  0
 31 32  1  0
 32 33  2  0
 33 34  1  0
 34 35  2  0
 27 36  1  0
 36 37  1  0
 37 38  2  0
 38 39  1  0
 22  3  1  0
 39 23  2  0
 21 11  1  0
 38 26  1  0
 19 14  1  0
 35 30  1  0
  4 40  1  0
  5 41  1  0
  6 42  1  0
  8 43  1  0
 15 44  1  0
 16 45  1  0
 17 46  1  0
 18 47  1  0
 19 48  1  0
 20 49  1  0
 21 50  1  0
 22 51  1  0
 24 52  1  0
 25 53  1  0
 28 54  1  0
 29 55  1  0
 31 56  1  0
 32 57  1  0
 33 58  1  0
 34 59  1  0
 35 60  1  0
 36 61  1  0
 39 62  1  0
M  END
>  <smiles>  (30) 
O=C(c1cccc(NC(=O)c2nc(-c3ccccc3)c[nH]2)c1)c1ccc2c(C=Cc3ccccc3)[nH]nc2c1

>  <score_type>  (30) 
oracle

>  <origin>  (30) 
adg

>  <m_score__min__energy>  (30) 
-11.779999999999999

>  <m_primary>  (30) 
energy

$$$$
30:0
     RDKit          3D

 65 68  0  0  0  0  0  0  0  0999 V2000
   58.9621   24.2009   46.7722 H   0  0  0  0  0  0  0  0  0  0  0  0
   59.0060   25.2650   46.4970 C   0  0  0  0  0  0  0  0  0  0  0  0
   60.1780   25.8980   46.5650 C   0  0  0  0  0  0  0  0  0  0  0  0
   61.0293   25.5318   45.9725 H   0  0  0  0  0  0  0  0  0  0  0  0
   60.2760   29.5520   47.8450 C   0  0  0  0  0  0  0  0  0  0  0  0
   60.2917   29.2400   48.8997 H   0  0  0  0  0  0  0  0  0  0  0  0
   61.1428   30.1978   47.6407 H   0  0  0  0  0  0  0  0  0  0  0  0
   59.3487   30.1074   47.6407 H   0  0  0  0  0  0  0  0  0  0  0  0
   60.3370   28.3410   46.9650 C   0  0  0  0  0  0  0  0  0  0  0  0
   60.3776   28.4930   45.8763 H   0  0  0  0  0  0  0  0  0  0  0  0
   60.3450   27.0850   47.4270 C   0  0  0  0  0  0  0  0  0  0  0  0
   60.4834   26.9286   48.5070 H   0  0  0  0  0  0  0  0  0  0  0  0
   57.7680   25.9380   46.0670 C   0  0  0  0  0  0  0  0  0  0  0  0
   56.6630   25.4210   46.3860 O   0  0  0  0  0  0  0  0  0  0  0  0
   57.7820   27.1470   45.2790 N   0  0  0  0  0  0  0  0  0  0  0  0
   57.1100   28.3570   45.7270 C   0  0  0  0  0  0  0  0  0  0  0  0
   56.0286   28.1832   45.8284 H   0  0  0  0  0  0  0  0  0  0  0  0
   57.4704   28.6882   46.7121 H   0  0  0  0  0  0  0  0  0  0  0  0
   57.3880   29.3950   44.6350 C   0  0  1  0  0  0  0  0  0  0  0  0
   56.2680   30.2530   44.4710 O   0  0  0  0  0  0  0  0  0  0  0  0
   56.5390   31.5450   44.8360 N   0  0  0  0  0  0  0  0  0  0  0  0
   57.7850   31.6580   45.1440 C   0  0  0  0  0  0  0  0  0  0  0  0
   58.3710   32.9180   45.6320 C   0  0  0  0  0  0  0  0  0  0  0  0
   58.7710   33.9050   44.7200 C   0  0  0  0  0  0  0  0  0  0  0  0
   58.6860   33.7202   43.6390 H   0  0  0  0  0  0  0  0  0  0  0  0
   59.2770   35.1220   45.1810 C   0  0  0  0  0  0  0  0  0  0  0  0
   59.5842   35.8960   44.4623 H   0  0  0  0  0  0  0  0  0  0  0  0
   59.3940   35.3590   46.5530 C   0  0  0  0  0  0  0  0  0  0  0  0
   59.7881   36.3221   46.9094 H   0  0  0  0  0  0  0  0  0  0  0  0
   59.0130   34.3790   47.4770 C   0  0  0  0  0  0  0  0  0  0  0  0
   59.2700   34.6170   48.8680 N   0  0  0  0  0  0  0  0  0  0  0  0
   60.0840   33.8330   49.7560 C   0  0  0  0  0  0  0  0  0  0  0  0
   59.6070   33.5200   50.8820 O   0  0  0  0  0  0  0  0  0  0  0  0
   61.4300   33.3310   49.3770 C   0  0  0  0  0  0  0  0  0  0  0  0
   61.9410   33.6030   48.0960 C   0  0  0  0  0  0  0  0  0  0  0  0
   61.3353   34.1771   47.3794 H   0  0  0  0  0  0  0  0  0  0  0  0
   63.2130   33.1510   47.7220 C   0  0  0  0  0  0  0  0  0  0  0  0
   63.7300   33.4060   46.3360 C   0  0  0  0  0  0  0  0  0  0  0  0
   64.7151   33.8919   46.3957 H   0  0  0  0  0  0  0  0  0  0  0  0
   63.8242   32.4510   45.7983 H   0  0  0  0  0  0  0  0  0  0  0  0
   63.0296   34.0620   45.7983 H   0  0  0  0  0  0  0  0  0  0  0  0
   63.9750   32.3990   48.6300 C   0  0  0  0  0  0  0  0  0  0  0  0
   64.9623   32.0170   48.3310 H   0  0  0  0  0  0  0  0  0  0  0  0
   63.4840   32.1320   49.9170 C   0  0  0  0  0  0  0  0  0  0  0  0
   64.2770   31.2820   50.8620 C   0  0  0  0  0  0  0  0  0  0  0  0
   64.0248   31.5523   51.8980 H   0  0  0  0  0  0  0  0  0  0  0  0
   64.0375   30.2221   50.6909 H   0  0  0  0  0  0  0  0  0  0  0  0
   65.3509   31.4475   50.6909 H   0  0  0  0  0  0  0  0  0  0  0  0
   62.2160   32.6020   50.2870 C   0  0  0  0  0  0  0  0  0  0  0  0
   61.8327   32.3987   51.2978 H   0  0  0  0  0  0  0  0  0  0  0  0
   58.5070   33.1520   47.0100 C   0  0  0  0  0  0  0  0  0  0  0  0
   58.2162   32.3715   47.7285 H   0  0  0  0  0  0  0  0  0  0  0  0
   58.5340   30.3730   45.0020 C   0  0  0  0  0  0  0  0  0  0  0  0
   59.0231   30.0853   45.9443 H   0  0  0  0  0  0  0  0  0  0  0  0
   59.3518   30.4061   44.2671 H   0  0  0  0  0  0  0  0  0  0  0  0
   57.6740   28.5710   43.3720 C   0  0  0  0  0  0  0  0  0  0  0  0
   56.7487   28.4012   42.8018 H   0  0  0  0  0  0  0  0  0  0  0  0
   58.3707   29.0816   42.6909 H   0  0  0  0  0  0  0  0  0  0  0  0
   58.2400   27.2430   43.8930 C   0  0  2  0  0  0  0  0  0  0  0  0
   59.3374   27.2192   43.8215 H   0  0  0  0  0  0  0  0  0  0  0  0
   57.7630   26.0680   43.0730 C   0  0  0  0  0  0  0  0  0  0  0  0
   58.1270   25.9490   41.8720 O   0  0  0  0  0  0  0  0  0  0  0  0
   56.8690   25.1100   43.6350 N   0  0  0  0  0  0  0  0  0  0  0  0
   56.5630   25.1810   44.6310 H   0  0  0  0  0  0  0  0  0  0  0  0
   56.4950   24.3350   43.0430 H   0  0  0  0  0  0  0  0  0  0  0  0
  1  2  1  0
  2  3  2  0
  3  4  1  0
  3  5  1  0
  5  6  1  0
  5  7  1  0
  5  8  1  0
  2  9  1  0
  9 10  1  0
  9 11  2  0
 11 12  1  0
 11 13  1  0
 13 14  2  0
 13 15  1  0
 15 16  1  0
 16 17  1  0
 16 18  1  0
 16 19  1  0
 19 20  1  6
 20 21  1  0
 21 22  2  0
 22 23  1  0
 23 24  2  0
 24 25  1  0
 24 26  1  0
 26 27  1  0
 26 28  2  0
 28 29  1  0
 28 30  1  0
 30 31  1  0
 31 32  1  0
 32 33  2  0
 32 34  1  0
 34 35  2  0
 35 36  1  0
 35 37  1  0
 37 38  1  0
 38 39  1  0
 38 40  1  0
 38 41  1  0
 37 42  2  0
 42 43  1  0
 42 44  1  0
 44 45  1  0
 45 46  1  0
 45 47  1  0
 45 48  1  0
 44 49  2  0
 49 50  1  0
 30 51  2  0
 51 52  1  0
 22 53  1  0
 53 54  1  0
 53 55  1  0
 19 56  1  0
 56 57  1  0
 56 58  1  0
 56 59  1  0
 59 60  1  1
 59 61  1  0
 61 62  2  0
 61 63  1  0
 63 64  1  0
 63 65  1  0
 59 15  1  0
 53 19  1  0
 51 23  1  0
 49 34  1  0
M  CHG  1  31  -1
M  END
>  <UniqueID>  (31) 
30

>  <SMILES>  (31) 
CC=C/C=C/C(=O)N1C[C@@]2(CC(c3cccc([N-]C(=O)c4cc(C)cc(C)c4)c3)=NO2)C[C@@H]1C(N)=O

>  <Energy>  (31) 
88.31555233622356

>  <Genealogy>  (31) 
CC=CC=CC(=O)N1CC2(CC(c3cccc([N-]C(=O)c4cc(C)cc(C)c4)c3)=NO2)CC1C(N)=O (protonated)
CC=CC=CC(=O)N1C[C@@]2(CC(c3cccc([N-]C(=O)c4cc(C)cc(C)c4)c3)=NO2)C[C@@H]1C(N)=O (chirality)
CC=C/C=C/C(=O)N1C[C@@]2(CC(c3cccc([N-]C(=O)c4cc(C)cc(C)c4)c3)=NO2)C[C@@H]1C(N)=O (cis-trans isomerization)
CC=C/C=C/C(=O)N1C[C@@]2(CC(c3cccc([N-]C(=O)c4cc(C)cc(C)c4)c3)=NO2)C[C@@H]1C(N)=O (3D coordinates assigned)
CC=C/C=C/C(=O)N1C[C@@]2(CC(c3cccc([N-]C(=O)c4cc(C)cc(C)c4)c3)=NO2)C[C@@H]1C(N)=O (nonaromatic ring conformer: 88.31555233622356 kcal/mol)

>  <smiles>  (31) 
CC=CC=CC(=O)N1CC2(CC(c3cccc(NC(=O)c4cc(C)cc(C)c4)c3)=NO2)CC1C(N)=O

>  <score_type>  (31) 
oracle

>  <origin>  (31) 
adg

>  <m_score__min__energy>  (31) 
-11.4

>  <m_primary>  (31) 
energy

$$$$
31:0
     RDKit          3D

 45 47  0  0  0  0  0  0  0  0999 V2000
   52.7225   24.1870   45.5108 H   0  0  0  0  0  0  0  0  0  0  0  0
   53.7270   24.4590   45.8670 C   0  0  0  0  0  0  0  0  0  0  0  0
   54.2220   25.6990   45.6180 N   0  0  0  0  0  0  0  0  0  0  0  0
   55.4610   26.0590   46.0400 C   0  0  0  0  0  0  0  0  0  0  0  0
   55.8970   27.2570   45.7860 N   0  0  0  0  0  0  0  0  0  0  0  0
   57.2530   27.5760   45.3370 C   0  0  0  0  0  0  0  0  0  0  0  0
   57.4695   27.0162   44.4152 H   0  0  0  0  0  0  0  0  0  0  0  0
   57.9634   27.2957   46.1287 H   0  0  0  0  0  0  0  0  0  0  0  0
   57.3890   29.0540   45.0630 C   0  0  0  0  0  0  0  0  0  0  0  0
   56.9070   29.5660   43.8490 C   0  0  0  0  0  0  0  0  0  0  0  0
   56.4210   28.8919   43.1283 H   0  0  0  0  0  0  0  0  0  0  0  0
   57.0380   30.9210   43.5470 C   0  0  0  0  0  0  0  0  0  0  0  0
   56.6511   31.3068   42.5923 H   0  0  0  0  0  0  0  0  0  0  0  0
   57.6560   31.7920   44.4460 C   0  0  0  0  0  0  0  0  0  0  0  0
   57.7640   33.1450   44.0920 O   0  0  0  0  0  0  0  0  0  0  0  0
   58.0320   34.2010   45.0100 C   0  0  0  0  0  0  0  0  0  0  0  0
   57.9366   33.8251   46.0393 H   0  0  0  0  0  0  0  0  0  0  0  0
   59.0537   34.5757   44.8497 H   0  0  0  0  0  0  0  0  0  0  0  0
   57.3126   35.0176   44.8497 H   0  0  0  0  0  0  0  0  0  0  0  0
   58.1470   31.2890   45.6660 C   0  0  0  0  0  0  0  0  0  0  0  0
   58.6350   31.9697   46.3792 H   0  0  0  0  0  0  0  0  0  0  0  0
   58.0190   29.9210   45.9820 C   0  0  0  0  0  0  0  0  0  0  0  0
   58.5040   29.3960   47.1920 O   0  0  0  0  0  0  0  0  0  0  0  0
   59.7150   28.6580   47.3290 C   0  0  0  0  0  0  0  0  0  0  0  0
   59.9415   28.5200   48.3965 H   0  0  0  0  0  0  0  0  0  0  0  0
   59.6018   27.6752   46.8481 H   0  0  0  0  0  0  0  0  0  0  0  0
   60.5366   29.2091   46.8481 H   0  0  0  0  0  0  0  0  0  0  0  0
   56.2250   25.1640   46.7240 N   0  0  0  0  0  0  0  0  0  0  0  0
   55.7760   23.9120   46.9950 C   0  0  0  0  0  0  0  0  0  0  0  0
   56.5140   23.1150   47.6330 O   0  0  0  0  0  0  0  0  0  0  0  0
   54.4930   23.5270   46.5760 C   0  0  0  0  0  0  0  0  0  0  0  0
   53.9610   22.1800   46.8680 C   0  0  0  0  0  0  0  0  0  0  0  0
   53.3260   21.9910   47.9390 O   0  0  0  0  0  0  0  0  0  0  0  0
   54.1120   21.0890   45.9500 N   0  0  0  0  0  0  0  0  0  0  0  0
   55.3650   20.4030   45.6450 C   0  0  0  0  0  0  0  0  0  0  0  0
   55.8949   20.1847   46.5839 H   0  0  0  0  0  0  0  0  0  0  0  0
   55.1359   19.4696   45.1100 H   0  0  0  0  0  0  0  0  0  0  0  0
   56.2370   21.2550   44.7750 C   0  0  0  0  0  0  0  0  0  0  0  0
   55.8990   21.6650   43.5750 O   0  0  0  0  0  0  0  0  0  0  0  0
   56.8940   22.3610   43.0760 C   0  0  0  0  0  0  0  0  0  0  0  0
   56.9014   22.8333   42.0826 H   0  0  0  0  0  0  0  0  0  0  0  0
   57.9290   22.4100   43.9870 C   0  0  0  0  0  0  0  0  0  0  0  0
   58.8970   22.9168   43.8604 H   0  0  0  0  0  0  0  0  0  0  0  0
   57.5060   21.6960   45.0880 C   0  0  0  0  0  0  0  0  0  0  0  0
   58.0629   21.5160   46.0194 H   0  0  0  0  0  0  0  0  0  0  0  0
  1  2  1  0
  2  3  1  0
  3  4  1  0
  4  5  2  0
  5  6  1  0
  6  7  1  0
  6  8  1  0
  6  9  1  0
  9 10  2  0
 10 11  1  0
 10 12  1  0
 12 13  1  0
 12 14  2  0
 14 15  1  0
 15 16  1  0
 16 17  1  0
 16 18  1  0
 16 19  1  0
 14 20  1  0
 20 21  1  0
 20 22  2  0
 22 23  1  0
 23 24  1  0
 24 25  1  0
 24 26  1  0
 24 27  1  0
  4 28  1  0
 28 29  1  0
 29 30  2  0
 29 31  1  0
 31 32  1  0
 32 33  2  0
 32 34  1  0
 34 35  1  0
 35 36  1  0
 35 37  1  0
 35 38  1  0
 38 39  1  0
 39 40  1  0
 40 41  1  0
 40 42  2  0
 42 43  1  0
 42 44  1  0
 44 45  1  0
 31  2  2  0
 44 38  2  0
 22  9  1  0
M  CHG  3   3  -1  28  -1  34  -1
M  END
>  <UniqueID>  (32) 
31

>  <SMILES>  (32) 
COc1ccc(C/N=c2/[n-]cc(C(=O)[N-]Cc3ccco3)c(=O)[n-]2)c(OC)c1

>  <Energy>  (32) 
75.40974508832413

>  <Genealogy>  (32) 
COc1ccc(CN=c2[n-]cc(C(=O)[N-]Cc3ccco3)c(=O)[n-]2)c(OC)c1 (protonated)
COc1ccc(C/N=c2/[n-]cc(C(=O)[N-]Cc3ccco3)c(=O)[n-]2)c(OC)c1 (cis-trans isomerization)
COc1ccc(C/N=c2/[n-]cc(C(=O)[N-]Cc3ccco3)c(=O)[n-]2)c(OC)c1 (3D coordinates assigned)
COc1ccc(C/N=c2/[n-]cc(C(=O)[N-]Cc3ccco3)c(=O)[n-]2)c(OC)c1 (optimized conformer: 75.40974508832413 kcal/mol)

>  <smiles>  (32) 
COc1ccc(CN=c2[nH]cc(C(=O)NCc3ccco3)c(=O)[nH]2)c(OC)c1

>  <score_type>  (32) 
oracle

>  <origin>  (32) 
adg

>  <m_score__min__energy>  (32) 
-12.23

>  <m_primary>  (32) 
energy

$$$$
32:0
     RDKit          3D

 66 69  0  0  0  0  0  0  0  0999 V2000
   65.5680   30.9100   51.2520 C   0  0  0  0  0  0  0  0  0  0  0  0
   66.1930   32.2920   51.4310 C   0  0  0  0  0  0  0  0  0  0  0  0
   66.8890   32.7250   50.1360 C   0  0  0  0  0  0  0  0  0  0  0  0
   65.1570   33.2180   51.7700 O   0  0  0  0  0  0  0  0  0  0  0  0
   63.8730   33.2590   51.2000 C   0  0  0  0  0  0  0  0  0  0  0  0
   62.7850   33.4970   52.0430 C   0  0  0  0  0  0  0  0  0  0  0  0
   61.4840   33.5220   51.5390 C   0  0  0  0  0  0  0  0  0  0  0  0
   61.2470   33.3170   50.1680 C   0  0  0  0  0  0  0  0  0  0  0  0
   59.9460   33.3030   49.6420 O   0  0  0  0  0  0  0  0  0  0  0  0
   59.4700   34.1910   48.6340 C   0  0  0  0  0  0  0  0  0  0  0  0
   58.6520   33.4370   47.6190 C   0  0  0  0  0  0  0  0  0  0  0  0
   57.4440   33.3450   47.7950 O   0  0  0  0  0  0  0  0  0  0  0  0
   59.2870   32.7490   46.5020 N   0  0  2  0  0  0  0  0  0  0  0  0
   59.5930   33.7010   45.4100 C   0  0  0  0  0  0  0  0  0  0  0  0
   58.3470   34.1520   44.6180 C   0  0  0  0  0  0  0  0  0  0  0  0
   57.2980   33.0420   44.4450 C   0  0  0  0  0  0  0  0  0  0  0  0
   57.8860   31.6520   44.6710 C   0  0  0  0  0  0  0  0  0  0  0  0
   56.8810   30.7060   44.5480 F   0  0  0  0  0  0  0  0  0  0  0  0
   58.8470   31.3880   43.7080 F   0  0  0  0  0  0  0  0  0  0  0  0
   58.5120   31.5450   46.0770 C   0  0  0  0  0  0  0  0  0  0  0  0
   62.3370   33.1000   49.3020 C   0  0  0  0  0  0  0  0  0  0  0  0
   62.1290   32.8820   47.8480 C   0  0  0  0  0  0  0  0  0  0  0  0
   61.8260   33.8570   47.1120 O   0  0  0  0  0  0  0  0  0  0  0  0
   62.3490   31.6040   47.2350 N   0  0  0  0  0  0  0  0  0  0  0  0
   61.4900   30.6290   47.1700 C   0  0  0  0  0  0  0  0  0  0  0  0
   61.1730   30.0360   45.9950 N   0  0  0  0  0  0  0  0  0  0  0  0
   60.2540   29.0520   46.1810 C   0  0  0  0  0  0  0  0  0  0  0  0
   59.7480   28.2460   45.1640 C   0  0  0  0  0  0  0  0  0  0  0  0
   58.8160   27.2470   45.4910 C   0  0  0  0  0  0  0  0  0  0  0  0
   58.4010   27.0570   46.8340 C   0  0  0  0  0  0  0  0  0  0  0  0
   57.4770   26.0270   47.2100 N   0  0  0  0  0  0  0  0  0  0  0  0
   56.1350   25.4750   46.2590 S   0  0  0  0  0  0  0  0  0  0  0  0
   56.7160   24.8060   44.7150 C   0  0  0  0  0  0  0  0  0  0  0  0
   55.4230   24.3880   47.0120 O   0  0  0  0  0  0  0  0  0  0  0  0
   55.1770   26.6060   46.0150 O   0  0  0  0  0  0  0  0  0  0  0  0
   58.9140   27.8920   47.8430 C   0  0  0  0  0  0  0  0  0  0  0  0
   59.8350   28.8730   47.4890 C   0  0  0  0  0  0  0  0  0  0  0  0
   60.6190   29.9790   48.4790 S   0  0  0  0  0  0  0  0  0  0  0  0
   63.6440   33.0800   49.8240 C   0  0  0  0  0  0  0  0  0  0  0  0
   65.3679   30.4675   52.2390 H   0  0  0  0  0  0  0  0  0  0  0  0
   64.6246   31.0037   50.6941 H   0  0  0  0  0  0  0  0  0  0  0  0
   66.2613   30.2635   50.6941 H   0  0  0  0  0  0  0  0  0  0  0  0
   66.9449   32.2643   52.2334 H   0  0  0  0  0  0  0  0  0  0  0  0
   67.7996   33.2915   50.3809 H   0  0  0  0  0  0  0  0  0  0  0  0
   67.1579   31.8345   49.5488 H   0  0  0  0  0  0  0  0  0  0  0  0
   66.2090   33.3598   49.5488 H   0  0  0  0  0  0  0  0  0  0  0  0
   62.9557   33.6667   53.1164 H   0  0  0  0  0  0  0  0  0  0  0  0
   60.6382   33.7032   52.2186 H   0  0  0  0  0  0  0  0  0  0  0  0
   58.8451   34.9674   49.0996 H   0  0  0  0  0  0  0  0  0  0  0  0
   60.3305   34.6537   48.1286 H   0  0  0  0  0  0  0  0  0  0  0  0
   60.2150   32.3950   46.8330 H   0  0  0  0  0  0  0  0  0  0  0  0
   60.0684   34.5913   45.8475 H   0  0  0  0  0  0  0  0  0  0  0  0
   60.2544   33.1795   44.7025 H   0  0  0  0  0  0  0  0  0  0  0  0
   57.8800   34.9927   45.1520 H   0  0  0  0  0  0  0  0  0  0  0  0
   58.6877   34.4361   43.6114 H   0  0  0  0  0  0  0  0  0  0  0  0
   56.4867   33.2054   45.1696 H   0  0  0  0  0  0  0  0  0  0  0  0
   56.9265   33.0871   43.4106 H   0  0  0  0  0  0  0  0  0  0  0  0
   57.7013   31.3841   46.8029 H   0  0  0  0  0  0  0  0  0  0  0  0
   59.2267   30.7097   46.0391 H   0  0  0  0  0  0  0  0  0  0  0  0
   60.0725   28.3892   44.1228 H   0  0  0  0  0  0  0  0  0  0  0  0
   58.4040   26.6058   44.6978 H   0  0  0  0  0  0  0  0  0  0  0  0
   57.4255   23.9891   44.9132 H   0  0  0  0  0  0  0  0  0  0  0  0
   55.8627   24.4189   44.1389 H   0  0  0  0  0  0  0  0  0  0  0  0
   57.2189   25.5967   44.1389 H   0  0  0  0  0  0  0  0  0  0  0  0
   58.5942   27.7721   48.8886 H   0  0  0  0  0  0  0  0  0  0  0  0
   64.4968   32.9224   49.1474 H   0  0  0  0  0  0  0  0  0  0  0  0
  1  2  1  0
  2  3  1  0
  2  4  1  0
  4  5  1  0
  5  6  2  0
  6  7  1  0
  7  8  2  0
  8  9  1  0
  9 10  1  0
 10 11  1  0
 11 12  2  0
 11 13  1  0
 13 14  1  0
 14 15  1  0
 15 16  1  0
 16 17  1  0
 17 18  1  0
 17 19  1  0
 17 20  1  0
  8 21  1  0
 21 22  1  0
 22 23  2  0
 22 24  1  0
 24 25  2  3
 25 26  1  0
 26 27  1  0
 27 28  2  0
 28 29  1  0
 29 30  2  0
 30 31  1  0
 31 32  1  0
 32 33  1  0
 32 34  2  0
 32 35  2  0
 30 36  1  0
 36 37  2  0
 37 38  1  0
 21 39  2  0
 39  5  1  0
 20 13  1  0
 38 25  1  0
 37 27  1  0
  1 40  1  0
  1 41  1  0
  1 42  1  0
  2 43  1  0
  3 44  1  0
  3 45  1  0
  3 46  1  0
  6 47  1  0
  7 48  1  0
 10 49  1  0
 10 50  1  0
 13 51  1  1
 14 52  1  0
 14 53  1  0
 15 54  1  0
 15 55  1  0
 16 56  1  0
 16 57  1  0
 20 58  1  0
 20 59  1  0
 28 60  1  0
 29 61  1  0
 33 62  1  0
 33 63  1  0
 33 64  1  0
 36 65  1  0
 39 66  1  0
M  CHG  3  13   1  26  -1  31  -1
M  END
>  <UniqueID>  (33) 
32

>  <SMILES>  (33) 
CC(C)Oc1ccc(OCC(=O)[N@@H+]2CCCC(F)(F)C2)c(C(=O)N=c2[n-]c3ccc([N-]S(C)(=O)=O)cc3s2)c1

>  <Energy>  (33) 
115.98287425524887

>  <Genealogy>  (33) 
CC(C)Oc1ccc(OCC(=O)[NH+]2CCCC(F)(F)C2)c(C(=O)N=c2[n-]c3ccc([N-]S(C)(=O)=O)cc3s2)c1 (protonated)
CC(C)Oc1ccc(OCC(=O)[N@@H+]2CCCC(F)(F)C2)c(C(=O)N=c2[n-]c3ccc([N-]S(C)(=O)=O)cc3s2)c1 (chirality)
CC(C)Oc1ccc(OCC(=O)[N@@H+]2CCCC(F)(F)C2)c(C(=O)N=c2[n-]c3ccc([N-]S(C)(=O)=O)cc3s2)c1 (3D coordinates assigned)
CC(C)Oc1ccc(OCC(=O)[N@@H+]2CCCC(F)(F)C2)c(C(=O)N=c2[n-]c3ccc([N-]S(C)(=O)=O)cc3s2)c1 (nonaromatic ring conformer: 115.98287425524887 kcal/mol)

>  <smiles>  (33) 
CC(C)Oc1ccc(OCC(=O)N2CCCC(F)(F)C2)c(C(=O)N=c2[nH]c3ccc(NS(C)(=O)=O)cc3s2)c1

>  <score_type>  (33) 
oracle

>  <origin>  (33) 
adg

>  <m_score__min__energy>  (33) 
-10.17

>  <m_primary>  (33) 
energy

$$$$
33:0
     RDKit          3D

 78 82  0  0  0  0  0  0  0  0999 V2000
   57.7620   32.8720   53.4730 O   0  0  0  0  0  0  0  0  0  0  0  0
   58.5490   32.9110   52.4890 C   0  0  0  0  0  0  0  0  0  0  0  0
   60.0090   33.1660   52.7140 C   0  0  0  0  0  0  0  0  0  0  0  0
   60.6770   31.9590   53.3140 C   0  0  0  0  0  0  0  0  0  0  0  0
   60.2650   31.5040   54.4170 O   0  0  0  0  0  0  0  0  0  0  0  0
   61.7580   31.2550   52.5970 C   0  0  0  0  0  0  0  0  0  0  0  0
   61.5680   29.9130   52.2340 C   0  0  0  0  0  0  0  0  0  0  0  0
   62.5960   29.1900   51.6270 C   0  0  0  0  0  0  0  0  0  0  0  0
   63.8240   29.7980   51.3710 C   0  0  0  0  0  0  0  0  0  0  0  0
   64.0300   31.1450   51.7020 C   0  0  0  0  0  0  0  0  0  0  0  0
   65.3300   31.7790   51.3900 C   0  0  0  0  0  0  0  0  0  0  0  0
   66.5280   31.1200   51.7200 C   0  0  0  0  0  0  0  0  0  0  0  0
   67.7600   31.7220   51.4510 C   0  0  0  0  0  0  0  0  0  0  0  0
   67.8080   32.9780   50.8410 C   0  0  0  0  0  0  0  0  0  0  0  0
   66.6220   33.6390   50.5040 C   0  0  0  0  0  0  0  0  0  0  0  0
   65.3840   33.0470   50.7770 C   0  0  0  0  0  0  0  0  0  0  0  0
   64.2150   33.7170   50.4250 O   0  0  0  0  0  0  0  0  0  0  0  0
   62.9940   31.8850   52.3090 C   0  0  0  0  0  0  0  0  0  0  0  0
   63.2120   33.2360   52.6030 O   0  0  0  0  0  0  0  0  0  0  0  0
   58.0540   32.7270   51.1580 N   0  0  0  0  0  0  0  0  0  0  0  0
   58.4800   31.6420   50.2820 C   0  0  0  0  0  0  0  0  0  0  0  0
   59.8050   31.9830   49.6460 C   0  0  0  0  0  0  0  0  0  0  0  0
   60.1320   33.3280   49.3990 C   0  0  0  0  0  0  0  0  0  0  0  0
   61.3260   33.6590   48.7580 C   0  0  0  0  0  0  0  0  0  0  0  0
   62.1940   32.6510   48.3340 C   0  0  0  0  0  0  0  0  0  0  0  0
   63.6770   33.0700   47.5010 Cl  0  0  0  0  0  0  0  0  0  0  0  0
   61.8750   31.3080   48.5610 C   0  0  0  0  0  0  0  0  0  0  0  0
   60.6980   30.9640   49.2480 C   0  0  0  0  0  0  0  0  0  0  0  0
   60.3420   29.5890   49.4660 N   0  0  0  0  0  0  0  0  0  0  0  0
   60.3710   28.5120   48.5200 C   0  0  0  0  0  0  0  0  0  0  0  0
   60.4440   27.3310   48.9560 O   0  0  0  0  0  0  0  0  0  0  0  0
   60.4060   28.7450   47.0320 C   0  0  0  0  0  0  0  0  0  0  0  0
   59.0340   28.5650   46.4350 C   0  0  0  0  0  0  0  0  0  0  0  0
   58.4540   27.2900   46.3610 C   0  0  0  0  0  0  0  0  0  0  0  0
   57.2010   27.1190   45.7690 C   0  0  0  0  0  0  0  0  0  0  0  0
   56.5080   28.2200   45.2580 C   0  0  0  0  0  0  0  0  0  0  0  0
   57.0680   29.5090   45.3430 C   0  0  0  0  0  0  0  0  0  0  0  0
   56.4080   30.6680   44.8130 N   0  0  0  0  0  0  0  0  0  0  0  0
   57.0060   31.9300   44.4800 C   0  0  0  0  0  0  0  0  0  0  0  0
   57.5110   32.1220   43.3400 O   0  0  0  0  0  0  0  0  0  0  0  0
   57.0190   33.0280   45.5160 C   0  0  1  0  0  0  0  0  0  0  0  0
   57.9470   32.6540   46.6860 C   0  0  0  0  0  0  0  0  0  0  0  0
   59.4350   32.7840   46.3180 C   0  0  0  0  0  0  0  0  0  0  0  0
   59.7170   33.9650   45.3640 C   0  0  0  0  0  0  0  0  0  0  0  0
   58.6470   34.9710   45.3950 N   0  0  0  0  0  0  0  0  0  0  0  0
   57.3720   34.4200   44.9050 C   0  0  0  0  0  0  0  0  0  0  0  0
   58.3410   29.6670   45.9060 C   0  0  0  0  0  0  0  0  0  0  0  0
   60.4864   33.4009   51.7512 H   0  0  0  0  0  0  0  0  0  0  0  0
   60.1156   34.0103   53.4110 H   0  0  0  0  0  0  0  0  0  0  0  0
   60.6009   29.4267   52.4294 H   0  0  0  0  0  0  0  0  0  0  0  0
   62.4367   28.1375   51.3498 H   0  0  0  0  0  0  0  0  0  0  0  0
   64.6355   29.2182   50.9070 H   0  0  0  0  0  0  0  0  0  0  0  0
   66.4949   30.1268   52.1917 H   0  0  0  0  0  0  0  0  0  0  0  0
   68.6936   31.2062   51.7200 H   0  0  0  0  0  0  0  0  0  0  0  0
   68.7791   33.4475   50.6255 H   0  0  0  0  0  0  0  0  0  0  0  0
   66.6629   34.6273   50.0228 H   0  0  0  0  0  0  0  0  0  0  0  0
   63.5880   33.8960   51.9350 H   0  0  0  0  0  0  0  0  0  0  0  0
   58.5852   30.7186   50.8704 H   0  0  0  0  0  0  0  0  0  0  0  0
   57.7271   31.4977   49.4932 H   0  0  0  0  0  0  0  0  0  0  0  0
   59.4417   34.1246   49.7133 H   0  0  0  0  0  0  0  0  0  0  0  0
   61.5837   34.7146   48.5866 H   0  0  0  0  0  0  0  0  0  0  0  0
   62.5488   30.5170   48.2000 H   0  0  0  0  0  0  0  0  0  0  0  0
   60.7547   29.7694   46.8345 H   0  0  0  0  0  0  0  0  0  0  0  0
   61.0905   28.0155   46.5746 H   0  0  0  0  0  0  0  0  0  0  0  0
   58.9888   26.4207   46.7713 H   0  0  0  0  0  0  0  0  0  0  0  0
   56.7578   26.1143   45.7046 H   0  0  0  0  0  0  0  0  0  0  0  0
   55.5232   28.0792   44.7885 H   0  0  0  0  0  0  0  0  0  0  0  0
   55.9973   33.1255   45.9117 H   0  0  0  0  0  0  0  0  0  0  0  0
   57.7331   33.3212   47.5340 H   0  0  0  0  0  0  0  0  0  0  0  0
   57.7555   31.6018   46.9433 H   0  0  0  0  0  0  0  0  0  0  0  0
   60.0133   32.9332   47.2418 H   0  0  0  0  0  0  0  0  0  0  0  0
   59.7279   31.8610   45.7963 H   0  0  0  0  0  0  0  0  0  0  0  0
   60.6617   34.4433   45.6620 H   0  0  0  0  0  0  0  0  0  0  0  0
   59.7757   33.5659   44.3406 H   0  0  0  0  0  0  0  0  0  0  0  0
   58.5280   35.3160   46.3760 H   0  0  0  0  0  0  0  0  0  0  0  0
   56.5673   35.1257   45.1589 H   0  0  0  0  0  0  0  0  0  0  0  0
   57.4767   34.2793   43.8191 H   0  0  0  0  0  0  0  0  0  0  0  0
   58.8032   30.6648   45.9343 H   0  0  0  0  0  0  0  0  0  0  0  0
  1  2  2  0
  2  3  1  0
  3  4  1  0
  4  5  2  0
  4  6  1  0
  6  7  2  0
  7  8  1  0
  8  9  2  0
  9 10  1  0
 10 11  1  0
 11 12  2  0
 12 13  1  0
 13 14  2  0
 14 15  1  0
 15 16  2  0
 16 17  1  0
 10 18  2  0
 18 19  1  0
  2 20  1  0
 20 21  1  0
 21 22  1  0
 22 23  2  0
 23 24  1  0
 24 25  2  0
 25 26  1  0
 25 27  1  0
 27 28  2  0
 28 29  1  0
 29 30  1  0
 30 31  2  0
 30 32  1  0
 32 33  1  0
 33 34  2  0
 34 35  1  0
 35 36  2  0
 36 37  1  0
 37 38  1  0
 38 39  1  0
 39 40  2  0
 39 41  1  0
 41 42  1  0
 42 43  1  0
 43 44  1  0
 44 45  1  0
 45 46  1  0
 37 47  2  0
 18  6  1  0
 28 22  1  0
 47 33  1  0
 16 11  1  0
 46 41  1  0
  3 48  1  0
  3 49  1  0
  7 50  1  0
  8 51  1  0
  9 52  1  0
 12 53  1  0
 13 54  1  0
 14 55  1  0
 15 56  1  0
 19 57  1  0
 21 58  1  0
 21 59  1  0
 23 60  1  0
 24 61  1  0
 27 62  1  0
 32 63  1  0
 32 64  1  0
 34 65  1  0
 35 66  1  0
 36 67  1  0
 41 68  1  1
 42 69  1  0
 42 70  1  0
 43 71  1  0
 43 72  1  0
 44 73  1  0
 44 74  1  0
 45 75  1  0
 46 76  1  0
 46 77  1  0
 47 78  1  0
M  CHG  4  17  -1  20  -1  29  -1  38  -1
M  END
>  <UniqueID>  (34) 
33

>  <SMILES>  (34) 
O=C(CC(=O)c1cccc(-c2ccccc2[O-])c1O)[N-]Cc1ccc(Cl)cc1[N-]C(=O)Cc1cccc([N-]C(=O)[C@H]2CCCNC2)c1

>  <Energy>  (34) 
107.65394721955762

>  <Genealogy>  (34) 
O=C(CC(=O)c1cccc(-c2ccccc2[O-])c1O)[N-]Cc1ccc(Cl)cc1[N-]C(=O)Cc1cccc([N-]C(=O)C2CCCNC2)c1 (protonated)
O=C(CC(=O)c1cccc(-c2ccccc2[O-])c1O)[N-]Cc1ccc(Cl)cc1[N-]C(=O)Cc1cccc([N-]C(=O)[C@H]2CCCNC2)c1 (chirality)
O=C(CC(=O)c1cccc(-c2ccccc2[O-])c1O)[N-]Cc1ccc(Cl)cc1[N-]C(=O)Cc1cccc([N-]C(=O)[C@H]2CCCNC2)c1 (3D coordinates assigned)
O=C(CC(=O)c1cccc(-c2ccccc2[O-])c1O)[N-]Cc1ccc(Cl)cc1[N-]C(=O)Cc1cccc([N-]C(=O)[C@H]2CCCNC2)c1 (nonaromatic ring conformer: 107.65394721955762 kcal/mol)

>  <smiles>  (34) 
O=C(CC(=O)c1cccc(-c2ccccc2O)c1O)NCc1ccc(Cl)cc1NC(=O)Cc1cccc(NC(=O)C2CCCNC2)c1

>  <score_type>  (34) 
oracle

>  <origin>  (34) 
adg

>  <m_score__min__energy>  (34) 
-16.210000000000001

>  <m_primary>  (34) 
energy

$$$$
34:0
     RDKit          3D

 25 27  0  0  0  0  0  0  0  0999 V2000
   55.9810   27.8790   45.3240 N   0  0  0  0  0  0  0  0  0  0  0  0
   56.7300   29.0910   45.1860 C   0  0  0  0  0  0  0  0  0  0  0  0
   56.2010   30.1660   44.4570 C   0  0  0  0  0  0  0  0  0  0  0  0
   56.9270   31.3550   44.3300 C   0  0  0  0  0  0  0  0  0  0  0  0
   58.1900   31.4780   44.9250 C   0  0  0  0  0  0  0  0  0  0  0  0
   58.7370   30.3850   45.6210 C   0  0  0  0  0  0  0  0  0  0  0  0
   58.0010   29.2040   45.7660 C   0  0  0  0  0  0  0  0  0  0  0  0
   60.4370   30.4540   46.1950 S   0  0  0  0  0  0  0  0  0  0  0  0
   60.3050   32.1250   46.8350 C   0  0  0  0  0  0  0  0  0  0  0  0
   60.9340   32.4610   48.0390 C   0  0  0  0  0  0  0  0  0  0  0  0
   60.9640   33.7930   48.4650 C   0  0  0  0  0  0  0  0  0  0  0  0
   61.7690   34.2170   49.9660 Cl  0  0  0  0  0  0  0  0  0  0  0  0
   60.3670   34.7910   47.6850 C   0  0  0  0  0  0  0  0  0  0  0  0
   59.7180   34.4550   46.4940 C   0  0  0  0  0  0  0  0  0  0  0  0
   59.6670   33.1190   46.0700 C   0  0  0  0  0  0  0  0  0  0  0  0
   58.8570   32.7500   44.9430 N   0  0  0  0  0  0  0  0  0  0  0  0
   56.2590   27.0180   44.8040 H   0  0  0  0  0  0  0  0  0  0  0  0
   55.1450   27.8360   45.9480 H   0  0  0  0  0  0  0  0  0  0  0  0
   55.2123   30.0739   43.9837 H   0  0  0  0  0  0  0  0  0  0  0  0
   56.5050   32.1966   43.7610 H   0  0  0  0  0  0  0  0  0  0  0  0
   58.4207   28.3623   46.3364 H   0  0  0  0  0  0  0  0  0  0  0  0
   61.4050   31.6774   48.6506 H   0  0  0  0  0  0  0  0  0  0  0  0
   60.4090   35.8410   48.0103 H   0  0  0  0  0  0  0  0  0  0  0  0
   59.2454   35.2411   45.8868 H   0  0  0  0  0  0  0  0  0  0  0  0
   58.5190   33.5030   44.3000 H   0  0  0  0  0  0  0  0  0  0  0  0
  1  2  1  0
  2  3  2  0
  3  4  1  0
  4  5  2  0
  5  6  1  0
  6  7  2  0
  6  8  1  0
  8  9  1  0
  9 10  2  0
 10 11  1  0
 11 12  1  0
 11 13  2  0
 13 14  1  0
 14 15  2  0
 15 16  1  0
  7  2  1  0
 15  9  1  0
 16  5  1  0
  1 17  1  0
  1 18  1  0
  3 19  1  0
  4 20  1  0
  7 21  1  0
 10 22  1  0
 13 23  1  0
 14 24  1  0
 16 25  1  0
M  END
>  <UniqueID>  (35) 
34

>  <SMILES>  (35) 
Nc1ccc2c(c1)Sc1cc(Cl)ccc1N2

>  <Energy>  (35) 
40.75900962500867

>  <Genealogy>  (35) 
Nc1ccc2c(c1)Sc1cc(Cl)ccc1N2 (3D coordinates assigned)
Nc1ccc2c(c1)Sc1cc(Cl)ccc1N2 (nonaromatic ring conformer: 40.75900962500867 kcal/mol)

>  <smiles>  (35) 
Nc1ccc2c(c1)Sc1cc(Cl)ccc1N2

>  <score_type>  (35) 
oracle

>  <origin>  (35) 
adg

>  <m_score__min__energy>  (35) 
-6.3899999999999997

>  <m_primary>  (35) 
energy

$$$$
35:0
     RDKit          3D

 59 61  0  0  0  0  0  0  0  0999 V2000
   58.4520   34.5990   44.8800 C   0  0  0  0  0  0  0  0  0  0  0  0
   57.1500   33.9660   45.3580 C   0  0  0  0  0  0  0  0  0  0  0  0
   57.3620   33.2060   46.5480 O   0  0  0  0  0  0  0  0  0  0  0  0
   58.6140   32.8700   47.0920 C   0  0  0  0  0  0  0  0  0  0  0  0
   59.1570   33.5180   48.2140 C   0  0  0  0  0  0  0  0  0  0  0  0
   60.4040   33.1390   48.7120 C   0  0  0  0  0  0  0  0  0  0  0  0
   61.1320   32.0960   48.1080 C   0  0  0  0  0  0  0  0  0  0  0  0
   62.3830   31.6750   48.5960 O   0  0  0  0  0  0  0  0  0  0  0  0
   63.6350   32.3160   48.3530 C   0  0  0  0  0  0  0  0  0  0  0  0
   63.5710   33.1670   47.0900 C   0  0  0  0  0  0  0  0  0  0  0  0
   60.5860   31.4310   46.9910 C   0  0  0  0  0  0  0  0  0  0  0  0
   61.3090   30.3450   46.3820 N   0  0  0  0  0  0  0  0  0  0  0  0
   60.5780   29.2260   45.2750 S   0  0  0  0  0  0  0  0  0  0  0  0
   61.6510   28.5930   44.4360 O   0  0  0  0  0  0  0  0  0  0  0  0
   59.6430   29.9890   44.3790 O   0  0  0  0  0  0  0  0  0  0  0  0
   59.7550   27.9500   46.1980 C   0  0  0  0  0  0  0  0  0  0  0  0
   60.2990   27.6120   47.4440 C   0  0  0  0  0  0  0  0  0  0  0  0
   59.6730   26.6740   48.2620 C   0  0  0  0  0  0  0  0  0  0  0  0
   58.4950   26.0600   47.8490 C   0  0  0  0  0  0  0  0  0  0  0  0
   57.9310   26.3640   46.6010 C   0  0  0  0  0  0  0  0  0  0  0  0
   56.4250   25.5590   46.1240 S   0  0  0  0  0  0  0  0  0  0  0  0
   55.1540   26.7200   45.9700 N   0  0  0  0  0  0  0  0  0  0  0  0
   56.6010   24.8610   44.8050 O   0  0  0  0  0  0  0  0  0  0  0  0
   56.0530   24.5400   47.1630 O   0  0  0  0  0  0  0  0  0  0  0  0
   58.5680   27.3090   45.7580 C   0  0  0  0  0  0  0  0  0  0  0  0
   58.0010   27.6020   44.4290 C   0  0  0  0  0  0  0  0  0  0  0  0
   58.1930   26.7870   43.4870 O   0  0  0  0  0  0  0  0  0  0  0  0
   57.2460   28.8040   44.1990 N   0  0  0  0  0  0  0  0  0  0  0  0
   56.6800   29.1440   42.9060 C   0  0  0  0  0  0  0  0  0  0  0  0
   55.8980   30.4310   43.1300 C   0  0  0  0  0  0  0  0  0  0  0  0
   56.3970   31.0000   44.4560 C   0  0  0  0  0  0  0  0  0  0  0  0
   57.0240   29.8300   45.2010 C   0  0  0  0  0  0  0  0  0  0  0  0
   59.3360   31.8370   46.4880 C   0  0  0  0  0  0  0  0  0  0  0  0
   59.0576   34.8934   45.7498 H   0  0  0  0  0  0  0  0  0  0  0  0
   59.0116   33.8724   44.2726 H   0  0  0  0  0  0  0  0  0  0  0  0
   58.2262   35.4879   44.2726 H   0  0  0  0  0  0  0  0  0  0  0  0
   56.4171   34.7602   45.5632 H   0  0  0  0  0  0  0  0  0  0  0  0
   56.7761   33.2932   44.5722 H   0  0  0  0  0  0  0  0  0  0  0  0
   58.5961   34.3284   48.7025 H   0  0  0  0  0  0  0  0  0  0  0  0
   60.8227   33.6603   49.5854 H   0  0  0  0  0  0  0  0  0  0  0  0
   63.8827   32.9600   49.2097 H   0  0  0  0  0  0  0  0  0  0  0  0
   64.4066   31.5435   48.2191 H   0  0  0  0  0  0  0  0  0  0  0  0
   63.4912   34.2286   47.3668 H   0  0  0  0  0  0  0  0  0  0  0  0
   64.4834   33.0106   46.4959 H   0  0  0  0  0  0  0  0  0  0  0  0
   62.6922   32.8759   46.4959 H   0  0  0  0  0  0  0  0  0  0  0  0
   62.2760   30.1200   46.7050 H   0  0  0  0  0  0  0  0  0  0  0  0
   61.2299   28.0921   47.7799 H   0  0  0  0  0  0  0  0  0  0  0  0
   60.1117   26.4180   49.2377 H   0  0  0  0  0  0  0  0  0  0  0  0
   58.0014   25.3296   48.5069 H   0  0  0  0  0  0  0  0  0  0  0  0
   55.4830   27.4440   45.2930 H   0  0  0  0  0  0  0  0  0  0  0  0
   57.4787   29.3032   42.1666 H   0  0  0  0  0  0  0  0  0  0  0  0
   56.0388   28.3394   42.5169 H   0  0  0  0  0  0  0  0  0  0  0  0
   56.0893   31.1419   42.3127 H   0  0  0  0  0  0  0  0  0  0  0  0
   54.8140   30.2455   43.1531 H   0  0  0  0  0  0  0  0  0  0  0  0
   57.1458   31.7859   44.2778 H   0  0  0  0  0  0  0  0  0  0  0  0
   55.5794   31.4558   45.0337 H   0  0  0  0  0  0  0  0  0  0  0  0
   57.9774   30.1326   45.6586 H   0  0  0  0  0  0  0  0  0  0  0  0
   56.3765   29.4713   46.0147 H   0  0  0  0  0  0  0  0  0  0  0  0
   58.9198   31.3323   45.6037 H   0  0  0  0  0  0  0  0  0  0  0  0
  1  2  1  0
  2  3  1  0
  3  4  1  0
  4  5  2  0
  5  6  1  0
  6  7  2  0
  7  8  1  0
  8  9  1  0
  9 10  1  0
  7 11  1  0
 11 12  1  0
 12 13  1  0
 13 14  2  0
 13 15  2  0
 13 16  1  0
 16 17  2  0
 17 18  1  0
 18 19  2  0
 19 20  1  0
 20 21  1  0
 21 22  1  0
 21 23  2  0
 21 24  2  0
 20 25  2  0
 25 26  1  0
 26 27  2  0
 26 28  1  0
 28 29  1  0
 29 30  1  0
 30 31  1  0
 31 32  1  0
 11 33  2  0
 33  4  1  0
 25 16  1  0
 32 28  1  0
  1 34  1  0
  1 35  1  0
  1 36  1  0
  2 37  1  0
  2 38  1  0
  5 39  1  0
  6 40  1  0
  9 41  1  0
  9 42  1  0
 10 43  1  0
 10 44  1  0
 10 45  1  0
 12 46  1  0
 17 47  1  0
 18 48  1  0
 19 49  1  0
 22 50  1  0
 29 51  1  0
 29 52  1  0
 30 53  1  0
 30 54  1  0
 31 55  1  0
 31 56  1  0
 32 57  1  0
 32 58  1  0
 33 59  1  0
M  CHG  1  22  -1
M  END
>  <UniqueID>  (36) 
35

>  <SMILES>  (36) 
CCOc1ccc(OCC)c(NS(=O)(=O)c2cccc(S([NH-])(=O)=O)c2C(=O)N2CCCC2)c1

>  <Energy>  (36) 
66.58605460497462

>  <Genealogy>  (36) 
CCOc1ccc(OCC)c(NS(=O)(=O)c2cccc(S([NH-])(=O)=O)c2C(=O)N2CCCC2)c1 (protonated)
CCOc1ccc(OCC)c(NS(=O)(=O)c2cccc(S([NH-])(=O)=O)c2C(=O)N2CCCC2)c1 (3D coordinates assigned)
CCOc1ccc(OCC)c(NS(=O)(=O)c2cccc(S([NH-])(=O)=O)c2C(=O)N2CCCC2)c1 (nonaromatic ring conformer: 66.58605460497462 kcal/mol)

>  <smiles>  (36) 
CCOc1ccc(OCC)c(NS(=O)(=O)c2cccc(S(N)(=O)=O)c2C(=O)N2CCCC2)c1

>  <score_type>  (36) 
oracle

>  <origin>  (36) 
adg

>  <m_score__min__energy>  (36) 
-11.390000000000001

>  <m_primary>  (36) 
energy

$$$$
36:0
     RDKit          3D

 27 28  0  0  0  0  0  0  0  0999 V2000
   55.8930   28.8300   45.2300 O   0  0  0  0  0  0  0  0  0  0  0  0
   57.0450   28.3560   45.4050 C   0  0  0  0  0  0  0  0  0  0  0  0
   58.1860   29.1420   45.0330 N   0  0  0  0  0  0  0  0  0  0  0  0
   58.9370   30.0180   45.9290 C   0  0  0  0  0  0  0  0  0  0  0  0
   58.6250   31.4660   45.6490 C   0  0  0  0  0  0  0  0  0  0  0  0
   57.7010   31.8120   44.6480 C   0  0  0  0  0  0  0  0  0  0  0  0
   57.3870   33.1530   44.4110 C   0  0  0  0  0  0  0  0  0  0  0  0
   57.9970   34.1590   45.1640 C   0  0  0  0  0  0  0  0  0  0  0  0
   58.9240   33.8260   46.1550 C   0  0  0  0  0  0  0  0  0  0  0  0
   59.2400   32.4860   46.3990 C   0  0  0  0  0  0  0  0  0  0  0  0
   60.1400   32.1810   47.3690 F   0  0  0  0  0  0  0  0  0  0  0  0
   57.1840   26.9940   45.9470 C   0  0  0  0  0  0  0  0  0  0  0  0
   58.4600   26.4420   46.1230 C   0  0  0  0  0  0  0  0  0  0  0  0
   58.5990   25.1650   46.6680 C   0  0  0  0  0  0  0  0  0  0  0  0
   57.4560   24.4420   47.0190 C   0  0  0  0  0  0  0  0  0  0  0  0
   57.5620   23.2900   47.5150 O   0  0  0  0  0  0  0  0  0  0  0  0
   56.2230   24.9820   46.8200 N   0  0  0  0  0  0  0  0  0  0  0  0
   56.0600   26.2250   46.2930 C   0  0  0  0  0  0  0  0  0  0  0  0
   54.7750   26.7150   46.0900 O   0  0  0  0  0  0  0  0  0  0  0  0
   58.6672   29.7859   46.9698 H   0  0  0  0  0  0  0  0  0  0  0  0
   60.0119   29.8513   45.7653 H   0  0  0  0  0  0  0  0  0  0  0  0
   57.2228   31.0236   44.0483 H   0  0  0  0  0  0  0  0  0  0  0  0
   56.6584   33.4167   43.6303 H   0  0  0  0  0  0  0  0  0  0  0  0
   57.7475   35.2138   44.9767 H   0  0  0  0  0  0  0  0  0  0  0  0
   59.4062   34.6197   46.7445 H   0  0  0  0  0  0  0  0  0  0  0  0
   59.3522   27.0155   45.8315 H   0  0  0  0  0  0  0  0  0  0  0  0
   59.5986   24.7317   46.8198 H   0  0  0  0  0  0  0  0  0  0  0  0
  1  2  2  0
  2  3  1  0
  3  4  1  0
  4  5  1  0
  5  6  2  0
  6  7  1  0
  7  8  2  0
  8  9  1  0
  9 10  2  0
 10 11  1  0
  2 12  1  0
 12 13  1  0
 13 14  2  0
 14 15  1  0
 15 16  2  0
 15 17  1  0
 17 18  1  0
 18 19  1  0
 10  5  1  0
 18 12  2  0
  4 20  1  0
  4 21  1  0
  6 22  1  0
  7 23  1  0
  8 24  1  0
  9 25  1  0
 13 26  1  0
 14 27  1  0
M  CHG  3   3  -1  17  -1  19  -1
M  END
>  <UniqueID>  (37) 
36

>  <SMILES>  (37) 
O=C([N-]Cc1ccccc1F)c1ccc(=O)[n-]c1[O-]

>  <Energy>  (37) 
32.519309807499084

>  <Genealogy>  (37) 
O=C([N-]Cc1ccccc1F)c1ccc(=O)[n-]c1[O-] (protonated)
O=C([N-]Cc1ccccc1F)c1ccc(=O)[n-]c1[O-] (3D coordinates assigned)
O=C([N-]Cc1ccccc1F)c1ccc(=O)[n-]c1[O-] (optimized conformer: 32.519309807499084 kcal/mol)

>  <smiles>  (37) 
O=C(NCc1ccccc1F)c1ccc(=O)[nH]c1O

>  <score_type>  (37) 
oracle

>  <origin>  (37) 
adg

>  <m_score__min__energy>  (37) 
-14.130000000000001

>  <m_primary>  (37) 
energy

$$$$
37:0
     RDKit          3D

 49 51  0  0  0  0  0  0  0  0999 V2000
   59.4490   27.7750   46.9570 C   0  0  0  0  0  0  0  0  0  0  0  0
   58.6050   28.4020   46.1230 C   0  0  0  0  0  0  0  0  0  0  0  0
   57.9010   27.8360   45.0470 C   0  0  0  0  0  0  0  0  0  0  0  0
   57.6940   26.5490   44.7070 C   0  0  0  0  0  0  0  0  0  0  0  0
   57.0600   25.5290   45.5590 C   0  0  0  0  0  0  0  0  0  0  0  0
   57.6700   24.4160   46.0070 N   0  0  0  0  0  0  0  0  0  0  0  0
   56.7590   23.8780   46.8460 C   0  0  0  0  0  0  0  0  0  0  0  0
   56.9590   22.7990   47.4620 O   0  0  0  0  0  0  0  0  0  0  0  0
   55.6210   24.5920   46.9820 N   0  0  0  0  0  0  0  0  0  0  0  0
   55.8350   25.6420   46.1710 C   0  0  0  0  0  0  0  0  0  0  0  0
   54.9320   26.6830   45.9990 O   0  0  0  0  0  0  0  0  0  0  0  0
   57.3880   28.8970   44.3190 C   0  0  0  0  0  0  0  0  0  0  0  0
   57.7180   30.0490   45.0030 C   0  0  0  0  0  0  0  0  0  0  0  0
   57.3490   31.4340   44.5660 C   0  0  0  0  0  0  0  0  0  0  0  0
   58.4540   29.7510   46.0970 N   0  0  0  0  0  0  0  0  0  0  0  0
   59.0180   30.7060   47.0140 C   0  0  0  0  0  0  0  0  0  0  0  0
   59.6900   31.8330   46.5280 C   0  0  0  0  0  0  0  0  0  0  0  0
   60.2460   32.7770   47.4090 C   0  0  0  0  0  0  0  0  0  0  0  0
   60.9190   33.9290   46.8670 N   0  0  0  0  0  0  0  0  0  0  0  0
   60.1190   35.0380   46.3450 C   0  0  0  0  0  0  0  0  0  0  0  0
   62.3430   33.8500   46.4990 C   0  0  0  0  0  0  0  0  0  0  0  0
   63.0830   32.8170   47.3470 C   0  0  0  0  0  0  0  0  0  0  0  0
   63.6370   33.4240   48.4810 O   0  0  0  0  0  0  0  0  0  0  0  0
   60.1100   32.5860   48.8070 C   0  0  0  0  0  0  0  0  0  0  0  0
   60.7540   33.7320   49.9940 S   0  0  0  0  0  0  0  0  0  0  0  0
   59.5100   34.1950   51.1030 N   0  0  0  0  0  0  0  0  0  0  0  0
   61.8700   33.1140   50.7850 O   0  0  0  0  0  0  0  0  0  0  0  0
   61.2670   34.9520   49.2840 O   0  0  0  0  0  0  0  0  0  0  0  0
   59.4240   31.4560   49.2810 C   0  0  0  0  0  0  0  0  0  0  0  0
   58.8870   30.5220   48.3950 C   0  0  0  0  0  0  0  0  0  0  0  0
   58.2200   29.4440   48.8810 F   0  0  0  0  0  0  0  0  0  0  0  0
   59.9405   28.3354   47.7659 H   0  0  0  0  0  0  0  0  0  0  0  0
   59.6493   26.7007   46.8317 H   0  0  0  0  0  0  0  0  0  0  0  0
   58.0271   26.2331   43.7074 H   0  0  0  0  0  0  0  0  0  0  0  0
   56.8252   28.8333   43.3760 H   0  0  0  0  0  0  0  0  0  0  0  0
   57.1808   32.0652   45.4511 H   0  0  0  0  0  0  0  0  0  0  0  0
   58.1655   31.8580   43.9631 H   0  0  0  0  0  0  0  0  0  0  0  0
   56.4298   31.3956   43.9631 H   0  0  0  0  0  0  0  0  0  0  0  0
   59.7845   31.9823   45.4423 H   0  0  0  0  0  0  0  0  0  0  0  0
   59.7022   35.6158   47.1831 H   0  0  0  0  0  0  0  0  0  0  0  0
   60.7552   35.6913   45.7298 H   0  0  0  0  0  0  0  0  0  0  0  0
   59.2984   34.6404   45.7298 H   0  0  0  0  0  0  0  0  0  0  0  0
   62.4233   33.5664   45.4392 H   0  0  0  0  0  0  0  0  0  0  0  0
   62.8008   34.8344   46.6762 H   0  0  0  0  0  0  0  0  0  0  0  0
   62.3774   32.0345   47.6628 H   0  0  0  0  0  0  0  0  0  0  0  0
   63.8923   32.3757   46.7467 H   0  0  0  0  0  0  0  0  0  0  0  0
   62.8720   33.7730   49.0090 H   0  0  0  0  0  0  0  0  0  0  0  0
   59.1560   35.1300   50.8000 H   0  0  0  0  0  0  0  0  0  0  0  0
   59.3087   31.3055   50.3645 H   0  0  0  0  0  0  0  0  0  0  0  0
  1  2  2  0
  2  3  1  0
  3  4  2  3
  4  5  1  0
  5  6  1  0
  6  7  1  0
  7  8  2  0
  7  9  1  0
  9 10  1  0
 10 11  1  0
  3 12  1  0
 12 13  2  0
 13 14  1  0
 13 15  1  0
 15 16  1  0
 16 17  2  0
 17 18  1  0
 18 19  1  0
 19 20  1  0
 19 21  1  0
 21 22  1  0
 22 23  1  0
 18 24  2  0
 24 25  1  0
 25 26  1  0
 25 27  2  0
 25 28  2  0
 24 29  1  0
 29 30  2  0
 30 31  1  0
 15  2  1  0
 30 16  1  0
 10  5  2  0
  1 32  1  0
  1 33  1  0
  4 34  1  0
 12 35  1  0
 14 36  1  0
 14 37  1  0
 14 38  1  0
 17 39  1  0
 20 40  1  0
 20 41  1  0
 20 42  1  0
 21 43  1  0
 21 44  1  0
 22 45  1  0
 22 46  1  0
 23 47  1  0
 26 48  1  0
 29 49  1  0
M  CHG  4   6  -1   9  -1  11  -1  26  -1
M  END
>  <UniqueID>  (38) 
37

>  <SMILES>  (38) 
C=c1c(=Cc2[n-]c(=O)[n-]c2[O-])cc(C)n1-c1cc(N(C)CCO)c(S([NH-])(=O)=O)cc1F

>  <Energy>  (38) 
128.17246867722747

>  <Genealogy>  (38) 
C=c1c(=Cc2[n-]c(=O)[n-]c2[O-])cc(C)n1-c1cc(N(C)CCO)c(S([NH-])(=O)=O)cc1F (protonated)
C=c1c(=Cc2[n-]c(=O)[n-]c2[O-])cc(C)n1-c1cc(N(C)CCO)c(S([NH-])(=O)=O)cc1F (3D coordinates assigned)
C=c1c(=Cc2[n-]c(=O)[n-]c2[O-])cc(C)n1-c1cc(N(C)CCO)c(S([NH-])(=O)=O)cc1F (optimized conformer: 128.17246867722747 kcal/mol)

>  <smiles>  (38) 
C=c1c(=Cc2[nH]c(=O)[nH]c2O)cc(C)n1-c1cc(N(C)CCO)c(S(N)(=O)=O)cc1F

>  <score_type>  (38) 
oracle

>  <origin>  (38) 
adg

>  <m_score__min__energy>  (38) 
-14.94

>  <m_primary>  (38) 
energy

$$$$
38:0
     RDKit          3D

 50 52  0  0  0  0  0  0  0  0999 V2000
   54.0340   25.9570   45.7670 N   0  0  0  0  0  0  0  0  0  0  0  0
   55.1420   24.6460   45.9660 S   0  0  0  0  0  0  0  0  0  0  0  0
   54.8080   23.8890   47.2210 O   0  0  0  0  0  0  0  0  0  0  0  0
   55.0300   23.7130   44.7930 O   0  0  0  0  0  0  0  0  0  0  0  0
   56.7810   25.2800   46.0800 C   0  0  0  0  0  0  0  0  0  0  0  0
   57.0090   26.5820   46.5480 C   0  0  0  0  0  0  0  0  0  0  0  0
   58.3130   27.0760   46.6420 C   0  0  0  0  0  0  0  0  0  0  0  0
   59.4050   26.2710   46.2800 C   0  0  0  0  0  0  0  0  0  0  0  0
   60.8030   26.8190   46.3600 C   0  0  0  0  0  0  0  0  0  0  0  0
   60.7670   28.2790   46.4280 N   0  0  0  0  0  0  0  0  0  0  0  0
   60.6530   28.9860   47.6740 C   0  0  0  0  0  0  0  0  0  0  0  0
   60.4040   28.3470   48.7330 O   0  0  0  0  0  0  0  0  0  0  0  0
   60.7900   30.4590   47.7280 C   0  0  0  0  0  0  0  0  0  0  0  0
   62.0150   31.0610   48.0660 C   0  0  0  0  0  0  0  0  0  0  0  0
   62.1370   32.4530   48.0800 C   0  0  0  0  0  0  0  0  0  0  0  0
   61.0460   33.2580   47.7480 C   0  0  0  0  0  0  0  0  0  0  0  0
   59.8180   32.6730   47.4140 C   0  0  0  0  0  0  0  0  0  0  0  0
   58.4530   33.6660   46.9100 S   0  0  0  0  0  0  0  0  0  0  0  0
   57.1940   33.0790   47.4820 O   0  0  0  0  0  0  0  0  0  0  0  0
   58.6070   35.0710   47.4260 O   0  0  0  0  0  0  0  0  0  0  0  0
   58.3290   33.6930   45.1730 N   0  0  0  0  0  0  0  0  0  0  0  0
   57.0800   33.0790   44.7140 C   0  0  0  0  0  0  0  0  0  0  0  0
   57.2640   31.6050   44.4590 C   0  0  0  0  0  0  0  0  0  0  0  0
   58.5390   31.0210   44.5350 C   0  0  0  0  0  0  0  0  0  0  0  0
   58.6960   29.6450   44.3410 C   0  0  0  0  0  0  0  0  0  0  0  0
   57.5840   28.8450   44.0610 C   0  0  0  0  0  0  0  0  0  0  0  0
   56.3150   29.4210   43.9680 C   0  0  0  0  0  0  0  0  0  0  0  0
   56.1530   30.7970   44.1610 C   0  0  0  0  0  0  0  0  0  0  0  0
   59.6880   31.2780   47.4280 C   0  0  0  0  0  0  0  0  0  0  0  0
   59.1730   24.9670   45.8120 C   0  0  0  0  0  0  0  0  0  0  0  0
   57.8680   24.4750   45.7180 C   0  0  0  0  0  0  0  0  0  0  0  0
   54.3540   26.7260   46.3970 H   0  0  0  0  0  0  0  0  0  0  0  0
   56.1595   27.2161   46.8418 H   0  0  0  0  0  0  0  0  0  0  0  0
   58.4848   28.1013   47.0016 H   0  0  0  0  0  0  0  0  0  0  0  0
   61.2973   26.4249   47.2602 H   0  0  0  0  0  0  0  0  0  0  0  0
   61.3613   26.5140   45.4626 H   0  0  0  0  0  0  0  0  0  0  0  0
   60.7680   28.8100   45.5290 H   0  0  0  0  0  0  0  0  0  0  0  0
   62.8815   30.4331   48.3206 H   0  0  0  0  0  0  0  0  0  0  0  0
   63.0965   32.9162   48.3537 H   0  0  0  0  0  0  0  0  0  0  0  0
   61.1508   34.3530   47.7487 H   0  0  0  0  0  0  0  0  0  0  0  0
   56.3071   33.2169   45.4844 H   0  0  0  0  0  0  0  0  0  0  0  0
   56.7773   33.5621   43.7733 H   0  0  0  0  0  0  0  0  0  0  0  0
   59.4173   31.6482   44.7479 H   0  0  0  0  0  0  0  0  0  0  0  0
   59.6958   29.1914   44.4088 H   0  0  0  0  0  0  0  0  0  0  0  0
   57.7086   27.7620   43.9140 H   0  0  0  0  0  0  0  0  0  0  0  0
   55.4415   28.7916   43.7426 H   0  0  0  0  0  0  0  0  0  0  0  0
   55.1531   31.2481   44.0793 H   0  0  0  0  0  0  0  0  0  0  0  0
   58.7140   30.8194   47.2020 H   0  0  0  0  0  0  0  0  0  0  0  0
   60.0211   24.3309   45.5185 H   0  0  0  0  0  0  0  0  0  0  0  0
   57.6941   23.4503   45.3578 H   0  0  0  0  0  0  0  0  0  0  0  0
  1  2  1  0
  2  3  2  0
  2  4  2  0
  2  5  1  0
  5  6  2  0
  6  7  1  0
  7  8  2  0
  8  9  1  0
  9 10  1  0
 10 11  1  0
 11 12  2  0
 11 13  1  0
 13 14  2  0
 14 15  1  0
 15 16  2  0
 16 17  1  0
 17 18  1  0
 18 19  2  0
 18 20  2  0
 18 21  1  0
 21 22  1  0
 22 23  1  0
 23 24  2  0
 24 25  1  0
 25 26  2  0
 26 27  1  0
 27 28  2  0
 17 29  2  0
  8 30  1  0
 30 31  2  0
 31  5  1  0
 29 13  1  0
 28 23  1  0
  1 32  1  0
  6 33  1  0
  7 34  1  0
  9 35  1  0
  9 36  1  0
 10 37  1  0
 14 38  1  0
 15 39  1  0
 16 40  1  0
 22 41  1  0
 22 42  1  0
 24 43  1  0
 25 44  1  0
 26 45  1  0
 27 46  1  0
 28 47  1  0
 29 48  1  0
 30 49  1  0
 31 50  1  0
M  CHG  2   1  -1  21  -1
M  END
>  <UniqueID>  (39) 
38

>  <SMILES>  (39) 
[NH-]S(=O)(=O)c1ccc(CNC(=O)c2cccc(S(=O)(=O)[N-]Cc3ccccc3)c2)cc1

>  <Energy>  (39) 
46.86389457963665

>  <Genealogy>  (39) 
[NH-]S(=O)(=O)c1ccc(CNC(=O)c2cccc(S(=O)(=O)[N-]Cc3ccccc3)c2)cc1 (protonated)
[NH-]S(=O)(=O)c1ccc(CNC(=O)c2cccc(S(=O)(=O)[N-]Cc3ccccc3)c2)cc1 (3D coordinates assigned)
[NH-]S(=O)(=O)c1ccc(CNC(=O)c2cccc(S(=O)(=O)[N-]Cc3ccccc3)c2)cc1 (optimized conformer: 46.86389457963665 kcal/mol)

>  <smiles>  (39) 
NS(=O)(=O)c1ccc(CNC(=O)c2cccc(S(=O)(=O)NCc3ccccc3)c2)cc1

>  <score_type>  (39) 
oracle

>  <origin>  (39) 
adg

>  <m_score__min__energy>  (39) 
-12.880000000000001

>  <m_primary>  (39) 
energy

$$$$
39:0
     RDKit          3D

 39 41  0  0  0  0  0  0  0  0999 V2000
   54.8970   30.5930   51.6220 O   0  0  0  0  0  0  0  0  0  0  0  0
   55.1200   30.2520   52.8150 C   0  0  0  0  0  0  0  0  0  0  0  0
   54.2260   29.5940   53.5860 N   0  0  0  0  0  0  0  0  0  0  0  0
   52.8570   29.2190   53.2430 C   0  0  0  0  0  0  0  0  0  0  0  0
   52.3140   30.1580   52.2020 C   0  0  0  0  0  0  0  0  0  0  0  0
   52.3060   29.7830   50.8480 C   0  0  0  0  0  0  0  0  0  0  0  0
   51.7640   30.6380   49.8840 C   0  0  0  0  0  0  0  0  0  0  0  0
   51.2160   31.8670   50.2640 C   0  0  0  0  0  0  0  0  0  0  0  0
   50.6790   32.7130   49.3000 O   0  0  0  0  0  0  0  0  0  0  0  0
   51.2070   32.2420   51.6140 C   0  0  0  0  0  0  0  0  0  0  0  0
   50.6580   33.4590   51.9970 O   0  0  0  0  0  0  0  0  0  0  0  0
   51.7500   31.3870   52.5800 C   0  0  0  0  0  0  0  0  0  0  0  0
   54.8350   29.4190   54.7780 C   0  0  0  0  0  0  0  0  0  0  0  0
   56.0990   29.9640   54.6860 C   0  0  0  0  0  0  0  0  0  0  0  0
   57.0540   29.9700   55.6960 O   0  0  0  0  0  0  0  0  0  0  0  0
   56.2800   30.4940   53.4610 N   0  0  0  0  0  0  0  0  0  0  0  0
   57.4970   31.1050   52.9250 C   0  0  0  0  0  0  0  0  0  0  0  0
   57.1880   31.9460   51.6810 C   0  0  0  0  0  0  0  0  0  0  0  0
   57.9890   31.4870   50.4910 C   0  0  0  0  0  0  0  0  0  0  0  0
   58.5000   30.1800   50.4440 C   0  0  0  0  0  0  0  0  0  0  0  0
   59.2850   29.7680   49.3630 C   0  0  0  0  0  0  0  0  0  0  0  0
   59.5730   30.6600   48.3250 C   0  0  0  0  0  0  0  0  0  0  0  0
   60.3560   30.2500   47.2540 O   0  0  0  0  0  0  0  0  0  0  0  0
   59.0740   31.9650   48.3690 C   0  0  0  0  0  0  0  0  0  0  0  0
   58.2860   32.3800   49.4470 C   0  0  0  0  0  0  0  0  0  0  0  0
   52.8483   28.1924   52.8481 H   0  0  0  0  0  0  0  0  0  0  0  0
   52.2294   29.2763   54.1446 H   0  0  0  0  0  0  0  0  0  0  0  0
   52.7277   28.8132   50.5454 H   0  0  0  0  0  0  0  0  0  0  0  0
   51.7686   30.3433   48.8242 H   0  0  0  0  0  0  0  0  0  0  0  0
   51.7348   31.6793   53.6404 H   0  0  0  0  0  0  0  0  0  0  0  0
   54.4016   28.9301   55.6629 H   0  0  0  0  0  0  0  0  0  0  0  0
   57.9437   31.7518   53.6945 H   0  0  0  0  0  0  0  0  0  0  0  0
   58.1956   30.3040   52.6416 H   0  0  0  0  0  0  0  0  0  0  0  0
   56.1169   31.8572   51.4466 H   0  0  0  0  0  0  0  0  0  0  0  0
   57.4568   32.9909   51.8955 H   0  0  0  0  0  0  0  0  0  0  0  0
   58.2817   29.4771   51.2614 H   0  0  0  0  0  0  0  0  0  0  0  0
   59.6767   28.7407   49.3288 H   0  0  0  0  0  0  0  0  0  0  0  0
   59.3018   32.6672   47.5535 H   0  0  0  0  0  0  0  0  0  0  0  0
   57.8973   33.4086   49.4781 H   0  0  0  0  0  0  0  0  0  0  0  0
  1  2  2  0
  2  3  1  0
  3  4  1  0
  4  5  1  0
  5  6  2  0
  6  7  1  0
  7  8  2  0
  8  9  1  0
  8 10  1  0
 10 11  1  0
 10 12  2  0
  3 13  1  0
 13 14  2  0
 14 15  1  0
 14 16  1  0
 16 17  1  0
 17 18  1  0
 18 19  1  0
 19 20  2  0
 20 21  1  0
 21 22  2  0
 22 23  1  0
 22 24  1  0
 24 25  2  0
 16  2  1  0
 25 19  1  0
 12  5  1  0
  4 26  1  0
  4 27  1  0
  6 28  1  0
  7 29  1  0
 12 30  1  0
 13 31  1  0
 17 32  1  0
 17 33  1  0
 18 34  1  0
 18 35  1  0
 20 36  1  0
 21 37  1  0
 24 38  1  0
 25 39  1  0
M  CHG  4   9  -1  11  -1  15  -1  23  -1
M  END
>  <UniqueID>  (40) 
39

>  <SMILES>  (40) 
O=c1n(Cc2ccc([O-])c([O-])c2)cc([O-])n1CCc1ccc([O-])cc1

>  <Energy>  (40) 
70.0933553641695

>  <Genealogy>  (40) 
O=c1n(Cc2ccc([O-])c([O-])c2)cc([O-])n1CCc1ccc([O-])cc1 (protonated)
O=c1n(Cc2ccc([O-])c([O-])c2)cc([O-])n1CCc1ccc([O-])cc1 (3D coordinates assigned)
O=c1n(Cc2ccc([O-])c([O-])c2)cc([O-])n1CCc1ccc([O-])cc1 (optimized conformer: 70.0933553641695 kcal/mol)

>  <smiles>  (40) 
O=c1n(Cc2ccc(O)c(O)c2)cc(O)n1CCc1ccc(O)cc1

>  <score_type>  (40) 
oracle

>  <origin>  (40) 
adg

>  <m_score__min__energy>  (40) 
-17.010000000000002

>  <m_primary>  (40) 
energy

$$$$
40:0
     RDKit          3D

 70 74  0  0  0  0  0  0  0  0999 V2000
   56.2790   29.6960   44.8780 O   0  0  0  0  0  0  0  0  0  0  0  0
   57.4830   29.9570   45.1470 C   0  0  0  0  0  0  0  0  0  0  0  0
   58.4180   28.8870   45.3600 N   0  0  0  0  0  0  0  0  0  0  0  0
   58.0270   27.5430   45.6840 C   0  0  0  0  0  0  0  0  0  0  0  0
   57.4210   26.7450   44.7020 C   0  0  0  0  0  0  0  0  0  0  0  0
   57.0560   25.4270   44.9880 C   0  0  0  0  0  0  0  0  0  0  0  0
   57.3130   24.8820   46.2530 C   0  0  0  0  0  0  0  0  0  0  0  0
   56.8830   23.2100   46.6100 S   0  0  0  0  0  0  0  0  0  0  0  0
   55.4500   22.9670   46.2200 O   0  0  0  0  0  0  0  0  0  0  0  0
   57.0170   22.9880   48.0920 O   0  0  0  0  0  0  0  0  0  0  0  0
   57.9610   22.1410   45.7330 N   0  0  0  0  0  0  0  0  0  0  0  0
   58.1710   22.5920   44.3380 C   0  0  0  0  0  0  0  0  0  0  0  0
   57.2700   21.8530   43.3310 C   0  0  0  0  0  0  0  0  0  0  0  0
   56.0480   21.4910   43.9340 O   0  0  0  0  0  0  0  0  0  0  0  0
   56.2610   20.4910   44.9150 C   0  0  0  0  0  0  0  0  0  0  0  0
   57.5110   20.7400   45.7930 C   0  0  0  0  0  0  0  0  0  0  0  0
   57.9410   25.6670   47.2280 C   0  0  0  0  0  0  0  0  0  0  0  0
   58.2950   26.9890   46.9480 C   0  0  0  0  0  0  0  0  0  0  0  0
   57.9350   31.3660   45.1810 C   0  0  0  0  0  0  0  0  0  0  0  0
   57.6430   32.2320   44.1120 C   0  0  0  0  0  0  0  0  0  0  0  0
   58.0940   33.5540   44.1300 C   0  0  0  0  0  0  0  0  0  0  0  0
   58.8330   34.0290   45.2160 C   0  0  0  0  0  0  0  0  0  0  0  0
   59.1100   33.1860   46.3000 C   0  0  0  0  0  0  0  0  0  0  0  0
   60.0450   33.7870   47.6680 S   0  0  0  0  0  0  0  0  0  0  0  0
   61.3900   34.2450   47.1760 O   0  0  0  0  0  0  0  0  0  0  0  0
   59.3400   34.9630   48.2860 O   0  0  0  0  0  0  0  0  0  0  0  0
   60.2440   32.5100   48.8460 N   0  0  0  0  0  0  0  0  0  0  0  0
   61.0500   31.4180   48.2730 C   0  0  0  0  0  0  0  0  0  0  0  0
   61.4280   30.3970   49.3610 C   0  0  0  0  0  0  0  0  0  0  0  0
   60.4370   30.3950   50.5350 C   0  0  0  0  0  0  0  0  0  0  0  0
   59.0050   30.6690   50.0430 C   0  0  1  0  0  0  0  0  0  0  0  0
   58.0050   30.5930   51.1820 C   0  0  0  0  0  0  0  0  0  0  0  0
   58.0160   29.5120   52.0870 C   0  0  0  0  0  0  0  0  0  0  0  0
   57.0760   29.4420   53.1190 C   0  0  0  0  0  0  0  0  0  0  0  0
   56.1210   30.4510   53.2650 C   0  0  0  0  0  0  0  0  0  0  0  0
   56.1060   31.5320   52.3800 C   0  0  0  0  0  0  0  0  0  0  0  0
   57.0410   31.6050   51.3440 C   0  0  0  0  0  0  0  0  0  0  0  0
   58.9170   32.0200   49.2790 C   0  0  0  0  0  0  0  0  0  0  0  0
   58.6590   31.8590   46.2800 C   0  0  0  0  0  0  0  0  0  0  0  0
   59.4290   29.0700   45.1660 H   0  0  0  0  0  0  0  0  0  0  0  0
   57.2321   27.1595   43.7008 H   0  0  0  0  0  0  0  0  0  0  0  0
   56.5650   24.8149   44.2171 H   0  0  0  0  0  0  0  0  0  0  0  0
   57.9537   23.6688   44.2801 H   0  0  0  0  0  0  0  0  0  0  0  0
   59.2155   22.3722   44.0720 H   0  0  0  0  0  0  0  0  0  0  0  0
   57.0692   22.5121   42.4735 H   0  0  0  0  0  0  0  0  0  0  0  0
   57.7851   20.9407   42.9959 H   0  0  0  0  0  0  0  0  0  0  0  0
   55.3781   20.4528   45.5700 H   0  0  0  0  0  0  0  0  0  0  0  0
   56.4264   19.5443   44.3797 H   0  0  0  0  0  0  0  0  0  0  0  0
   57.2670   20.4904   46.8361 H   0  0  0  0  0  0  0  0  0  0  0  0
   58.3249   20.1065   45.4104 H   0  0  0  0  0  0  0  0  0  0  0  0
   58.1565   25.2406   48.2188 H   0  0  0  0  0  0  0  0  0  0  0  0
   58.7858   27.5995   47.7203 H   0  0  0  0  0  0  0  0  0  0  0  0
   57.0560   31.8662   43.2567 H   0  0  0  0  0  0  0  0  0  0  0  0
   57.8666   34.2227   43.2867 H   0  0  0  0  0  0  0  0  0  0  0  0
   59.1980   35.0667   45.2200 H   0  0  0  0  0  0  0  0  0  0  0  0
   60.4680   30.9120   47.4886 H   0  0  0  0  0  0  0  0  0  0  0  0
   61.9718   31.8421   47.8482 H   0  0  0  0  0  0  0  0  0  0  0  0
   61.4452   29.3930   48.9120 H   0  0  0  0  0  0  0  0  0  0  0  0
   62.4147   30.6797   49.7567 H   0  0  0  0  0  0  0  0  0  0  0  0
   60.4664   29.4130   51.0299 H   0  0  0  0  0  0  0  0  0  0  0  0
   60.7249   31.1885   51.2403 H   0  0  0  0  0  0  0  0  0  0  0  0
   58.7392   29.8768   49.3276 H   0  0  0  0  0  0  0  0  0  0  0  0
   58.7698   28.7180   51.9801 H   0  0  0  0  0  0  0  0  0  0  0  0
   57.0882   28.5917   53.8168 H   0  0  0  0  0  0  0  0  0  0  0  0
   55.3808   30.3944   54.0767 H   0  0  0  0  0  0  0  0  0  0  0  0
   55.3561   32.3279   52.4990 H   0  0  0  0  0  0  0  0  0  0  0  0
   57.0232   32.4590   50.6509 H   0  0  0  0  0  0  0  0  0  0  0  0
   58.2838   31.8827   48.3901 H   0  0  0  0  0  0  0  0  0  0  0  0
   58.4912   32.7666   49.9655 H   0  0  0  0  0  0  0  0  0  0  0  0
   58.8737   31.1975   47.1322 H   0  0  0  0  0  0  0  0  0  0  0  0
  1  2  2  0
  2  3  1  0
  3  4  1  0
  4  5  2  0
  5  6  1  0
  6  7  2  0
  7  8  1  0
  8  9  2  0
  8 10  2  0
  8 11  1  0
 11 12  1  0
 12 13  1  0
 13 14  1  0
 14 15  1  0
 15 16  1  0
  7 17  1  0
 17 18  2  0
  2 19  1  0
 19 20  2  0
 20 21  1  0
 21 22  2  0
 22 23  1  0
 23 24  1  0
 24 25  2  0
 24 26  2  0
 24 27  1  0
 27 28  1  0
 28 29  1  0
 29 30  1  0
 30 31  1  0
 31 32  1  0
 32 33  2  0
 33 34  1  0
 34 35  2  0
 35 36  1  0
 36 37  2  0
 31 38  1  0
 23 39  2  0
 18  4  1  0
 39 19  1  0
 16 11  1  0
 38 27  1  0
 37 32  1  0
  3 40  1  0
  5 41  1  0
  6 42  1  0
 12 43  1  0
 12 44  1  0
 13 45  1  0
 13 46  1  0
 15 47  1  0
 15 48  1  0
 16 49  1  0
 16 50  1  0
 17 51  1  0
 18 52  1  0
 20 53  1  0
 21 54  1  0
 22 55  1  0
 28 56  1  0
 28 57  1  0
 29 58  1  0
 29 59  1  0
 30 60  1  0
 30 61  1  0
 31 62  1  6
 33 63  1  0
 34 64  1  0
 35 65  1  0
 36 66  1  0
 37 67  1  0
 38 68  1  0
 38 69  1  0
 39 70  1  0
M  END
>  <UniqueID>  (41) 
40

>  <SMILES>  (41) 
O=C(Nc1ccc(S(=O)(=O)N2CCOCC2)cc1)c1cccc(S(=O)(=O)N2CCC[C@@H](c3ccccc3)C2)c1

>  <Energy>  (41) 
96.2538561424707

>  <Genealogy>  (41) 
O=C(Nc1ccc(S(=O)(=O)N2CCOCC2)cc1)c1cccc(S(=O)(=O)N2CCC[C@@H](c3ccccc3)C2)c1 (chirality)
O=C(Nc1ccc(S(=O)(=O)N2CCOCC2)cc1)c1cccc(S(=O)(=O)N2CCC[C@@H](c3ccccc3)C2)c1 (3D coordinates assigned)
O=C(Nc1ccc(S(=O)(=O)N2CCOCC2)cc1)c1cccc(S(=O)(=O)N2CCC[C@@H](c3ccccc3)C2)c1 (nonaromatic ring conformer: 96.2538561424707 kcal/mol)

>  <smiles>  (41) 
O=C(Nc1ccc(S(=O)(=O)N2CCOCC2)cc1)c1cccc(S(=O)(=O)N2CCCC(c3ccccc3)C2)c1

>  <score_type>  (41) 
oracle

>  <origin>  (41) 
adg

>  <m_score__min__energy>  (41) 
-12.359999999999999

>  <m_primary>  (41) 
energy

$$$$
41:0
     RDKit          3D

 37 39  0  0  0  0  0  0  0  0999 V2000
   59.3379   31.0640   48.4551 H   0  0  0  0  0  0  0  0  0  0  0  0
   59.1130   30.3260   47.6710 C   0  0  0  0  0  0  0  0  0  0  0  0
   59.3930   29.2716   47.8116 H   0  0  0  0  0  0  0  0  0  0  0  0
   58.4970   30.7120   46.5430 C   0  0  0  0  0  0  0  0  0  0  0  0
   58.1330   29.9190   45.4440 C   0  0  0  0  0  0  0  0  0  0  0  0
   58.3970   28.6290   45.1480 C   0  0  0  0  0  0  0  0  0  0  0  0
   59.2910   28.4226   44.5413 H   0  0  0  0  0  0  0  0  0  0  0  0
   57.5840   27.4730   45.5720 C   0  0  0  0  0  0  0  0  0  0  0  0
   56.1820   27.5500   45.6260 C   0  0  0  0  0  0  0  0  0  0  0  0
   55.5190   28.7100   45.2420 O   0  0  0  0  0  0  0  0  0  0  0  0
   55.4620   26.4840   46.0620 N   0  0  0  0  0  0  0  0  0  0  0  0
   56.0750   25.3420   46.4660 C   0  0  0  0  0  0  0  0  0  0  0  0
   55.3880   24.3660   46.8630 O   0  0  0  0  0  0  0  0  0  0  0  0
   57.4300   25.2540   46.4490 N   0  0  0  0  0  0  0  0  0  0  0  0
   58.1950   26.2920   46.0210 C   0  0  0  0  0  0  0  0  0  0  0  0
   59.4500   26.1780   46.0250 O   0  0  0  0  0  0  0  0  0  0  0  0
   57.3970   30.7820   44.6380 C   0  0  0  0  0  0  0  0  0  0  0  0
   56.7570   30.4590   43.3240 C   0  0  0  0  0  0  0  0  0  0  0  0
   55.7875   29.9697   43.4988 H   0  0  0  0  0  0  0  0  0  0  0  0
   56.6019   31.3868   42.7538 H   0  0  0  0  0  0  0  0  0  0  0  0
   57.4113   29.7832   42.7538 H   0  0  0  0  0  0  0  0  0  0  0  0
   57.3560   32.0080   45.1910 N   0  0  0  0  0  0  0  0  0  0  0  0
   58.0270   31.9680   46.3310 N   0  0  0  0  0  0  0  0  0  0  0  0
   58.1160   33.1260   47.2230 C   0  0  0  0  0  0  0  0  0  0  0  0
   57.6773   34.0023   46.7233 H   0  0  0  0  0  0  0  0  0  0  0  0
   57.5674   32.9035   48.1501 H   0  0  0  0  0  0  0  0  0  0  0  0
   59.5520   33.4190   47.5660 C   0  0  0  0  0  0  0  0  0  0  0  0
   59.9430   33.6320   48.8990 C   0  0  0  0  0  0  0  0  0  0  0  0
   59.1953   33.5799   49.7042 H   0  0  0  0  0  0  0  0  0  0  0  0
   61.2790   33.9100   49.2060 C   0  0  0  0  0  0  0  0  0  0  0  0
   61.5794   34.0768   50.2509 H   0  0  0  0  0  0  0  0  0  0  0  0
   62.2320   33.9760   48.1870 C   0  0  0  0  0  0  0  0  0  0  0  0
   63.2818   34.1969   48.4303 H   0  0  0  0  0  0  0  0  0  0  0  0
   61.8540   33.7620   46.8600 C   0  0  0  0  0  0  0  0  0  0  0  0
   62.6064   33.8137   46.0592 H   0  0  0  0  0  0  0  0  0  0  0  0
   60.5200   33.4820   46.5480 C   0  0  0  0  0  0  0  0  0  0  0  0
   60.2266   33.3103   45.5018 H   0  0  0  0  0  0  0  0  0  0  0  0
  1  2  1  0
  2  3  1  0
  2  4  2  0
  4  5  1  0
  5  6  2  0
  6  7  1  0
  6  8  1  0
  8  9  2  0
  9 10  1  0
  9 11  1  0
 11 12  1  0
 12 13  2  0
 12 14  1  0
 14 15  1  0
 15 16  2  0
  5 17  1  0
 17 18  1  0
 18 19  1  0
 18 20  1  0
 18 21  1  0
 17 22  2  0
 22 23  1  0
 23 24  1  0
 24 25  1  0
 24 26  1  0
 24 27  1  0
 27 28  2  0
 28 29  1  0
 28 30  1  0
 30 31  1  0
 30 32  2  0
 32 33  1  0
 32 34  1  0
 34 35  1  0
 34 36  2  0
 36 37  1  0
 23  4  1  0
 36 27  1  0
 15  8  1  0
M  CHG  3  10  -1  11  -1  14  -1
M  END
>  <UniqueID>  (42) 
41

>  <SMILES>  (42) 
C=c1/c(=C\c2c([O-])[n-]c(=O)[n-]c2=O)c(C)nn1Cc1ccccc1

>  <Energy>  (42) 
84.87833219900531

>  <Genealogy>  (42) 
C=c1c(=Cc2c([O-])[n-]c(=O)[n-]c2=O)c(C)nn1Cc1ccccc1 (protonated)
C=c1/c(=C\c2c([O-])[n-]c(=O)[n-]c2=O)c(C)nn1Cc1ccccc1 (cis-trans isomerization)
C=c1/c(=C\c2c([O-])[n-]c(=O)[n-]c2=O)c(C)nn1Cc1ccccc1 (3D coordinates assigned)
C=c1/c(=C\c2c([O-])[n-]c(=O)[n-]c2=O)c(C)nn1Cc1ccccc1 (optimized conformer: 84.87833219900531 kcal/mol)

>  <smiles>  (42) 
C=c1c(=Cc2c(O)[nH]c(=O)[nH]c2=O)c(C)nn1Cc1ccccc1

>  <score_type>  (42) 
oracle

>  <origin>  (42) 
adg

>  <m_score__min__energy>  (42) 
-15.970000000000001

>  <m_primary>  (42) 
energy

$$$$
42:0
     RDKit          3D

 38 39  0  0  0  0  0  0  0  0999 V2000
   57.3790   31.9410   50.4920 C   0  0  0  0  0  0  0  0  0  0  0  0
   57.7610   30.7580   51.3500 C   0  0  0  0  0  0  0  0  0  0  0  0
   58.9590   30.0410   51.1100 C   0  0  0  0  0  0  0  0  0  0  0  0
   59.8190   30.3540   50.0060 N   0  0  0  0  0  0  0  0  0  0  0  0
   59.7410   29.7470   48.7090 C   0  0  0  0  0  0  0  0  0  0  0  0
   60.4070   28.7020   48.4870 O   0  0  0  0  0  0  0  0  0  0  0  0
   58.8270   30.2720   47.6320 C   0  0  0  0  0  0  0  0  0  0  0  0
   58.7040   29.2850   46.4650 C   0  0  0  0  0  0  0  0  0  0  0  0
   57.4020   29.4490   45.7410 C   0  0  0  0  0  0  0  0  0  0  0  0
   57.0820   30.5650   45.2550 O   0  0  0  0  0  0  0  0  0  0  0  0
   56.5570   28.3590   45.5800 O   0  0  0  0  0  0  0  0  0  0  0  0
   59.3480   29.0230   51.9880 C   0  0  0  0  0  0  0  0  0  0  0  0
   58.5370   28.6700   53.0650 C   0  0  0  0  0  0  0  0  0  0  0  0
   57.3220   29.3220   53.2670 C   0  0  0  0  0  0  0  0  0  0  0  0
   56.9030   30.3360   52.3910 C   0  0  0  0  0  0  0  0  0  0  0  0
   55.6480   31.0010   52.6000 N   0  0  0  0  0  0  0  0  0  0  0  0
   54.3390   30.4250   52.4620 C   0  0  0  0  0  0  0  0  0  0  0  0
   54.2400   29.1710   52.3850 O   0  0  0  0  0  0  0  0  0  0  0  0
   53.0790   31.2470   52.5490 C   0  0  0  0  0  0  0  0  0  0  0  0
   52.3510   31.2790   51.2370 C   0  0  0  0  0  0  0  0  0  0  0  0
   52.4190   30.0890   50.0410 S   0  0  0  0  0  0  0  0  0  0  0  0
   51.2390   30.8300   49.1060 C   0  0  0  0  0  0  0  0  0  0  0  0
   50.8270   30.3880   48.0030 O   0  0  0  0  0  0  0  0  0  0  0  0
   50.7580   31.9550   49.6760 N   0  0  0  0  0  0  0  0  0  0  0  0
   51.3740   32.2020   50.8630 C   0  0  0  0  0  0  0  0  0  0  0  0
   51.0360   33.3010   51.6410 O   0  0  0  0  0  0  0  0  0  0  0  0
   57.1053   32.7888   51.1373 H   0  0  0  0  0  0  0  0  0  0  0  0
   58.2315   32.2239   49.8570 H   0  0  0  0  0  0  0  0  0  0  0  0
   56.5221   31.6719   49.8570 H   0  0  0  0  0  0  0  0  0  0  0  0
   57.8291   30.4420   48.0624 H   0  0  0  0  0  0  0  0  0  0  0  0
   59.2534   31.2096   47.2459 H   0  0  0  0  0  0  0  0  0  0  0  0
   59.5296   29.4609   45.7597 H   0  0  0  0  0  0  0  0  0  0  0  0
   58.7464   28.2636   46.8712 H   0  0  0  0  0  0  0  0  0  0  0  0
   60.3009   28.4976   51.8269 H   0  0  0  0  0  0  0  0  0  0  0  0
   58.8562   27.8761   53.7562 H   0  0  0  0  0  0  0  0  0  0  0  0
   56.6864   29.0400   54.1193 H   0  0  0  0  0  0  0  0  0  0  0  0
   52.4193   30.8101   53.3132 H   0  0  0  0  0  0  0  0  0  0  0  0
   53.3571   32.2776   52.8144 H   0  0  0  0  0  0  0  0  0  0  0  0
  1  2  1  0
  2  3  2  0
  3  4  1  0
  4  5  1  0
  5  6  2  0
  5  7  1  0
  7  8  1  0
  8  9  1  0
  9 10  2  0
  9 11  1  0
  3 12  1  0
 12 13  2  0
 13 14  1  0
 14 15  2  0
 15 16  1  0
 16 17  1  0
 17 18  2  0
 17 19  1  0
 19 20  1  0
 20 21  1  0
 21 22  1  0
 22 23  2  0
 22 24  1  0
 24 25  1  0
 25 26  1  0
 15  2  1  0
 25 20  2  0
  1 27  1  0
  1 28  1  0
  1 29  1  0
  7 30  1  0
  7 31  1  0
  8 32  1  0
  8 33  1  0
 12 34  1  0
 13 35  1  0
 14 36  1  0
 19 37  1  0
 19 38  1  0
M  CHG  5   4  -1  11  -1  16  -1  24  -1  26  -1
M  END
>  <UniqueID>  (43) 
42

>  <SMILES>  (43) 
Cc1c([N-]C(=O)CCC(=O)[O-])cccc1[N-]C(=O)Cc1sc(=O)[n-]c1[O-]

>  <Energy>  (43) 
76.22533834727845

>  <Genealogy>  (43) 
Cc1c([N-]C(=O)CCC(=O)[O-])cccc1[N-]C(=O)Cc1sc(=O)[n-]c1[O-] (protonated)
Cc1c([N-]C(=O)CCC(=O)[O-])cccc1[N-]C(=O)Cc1sc(=O)[n-]c1[O-] (3D coordinates assigned)
Cc1c([N-]C(=O)CCC(=O)[O-])cccc1[N-]C(=O)Cc1sc(=O)[n-]c1[O-] (optimized conformer: 76.22533834727845 kcal/mol)

>  <smiles>  (43) 
Cc1c(NC(=O)CCC(=O)O)cccc1NC(=O)Cc1sc(=O)[nH]c1O

>  <score_type>  (43) 
oracle

>  <origin>  (43) 
adg

>  <m_score__min__energy>  (43) 
-16.969999999999999

>  <m_primary>  (43) 
energy

$$$$
43:0
     RDKit          3D

 42 44  0  0  0  0  0  0  0  0999 V2000
   60.0412   25.3970   45.6557 H   0  0  0  0  0  0  0  0  0  0  0  0
   58.9760   25.6610   45.7310 C   0  0  0  0  0  0  0  0  0  0  0  0
   58.6020   26.9680   45.7890 N   0  0  0  0  0  0  0  0  0  0  0  0
   57.2940   27.3410   45.8830 C   0  0  0  0  0  0  0  0  0  0  0  0
   56.9520   28.5970   45.9370 N   0  0  0  0  0  0  0  0  0  0  0  0
   56.2880   29.3660   44.9180 C   0  0  0  0  0  0  0  0  0  0  0  0
   55.1460   29.0290   44.5000 O   0  0  0  0  0  0  0  0  0  0  0  0
   56.9510   30.5690   44.3590 C   0  0  0  0  0  0  0  0  0  0  0  0
   57.0080   30.7750   42.9680 C   0  0  0  0  0  0  0  0  0  0  0  0
   56.5647   30.0336   42.2870 H   0  0  0  0  0  0  0  0  0  0  0  0
   57.6240   31.9150   42.4470 C   0  0  0  0  0  0  0  0  0  0  0  0
   57.6652   32.0669   41.3583 H   0  0  0  0  0  0  0  0  0  0  0  0
   58.1880   32.8630   43.3040 C   0  0  0  0  0  0  0  0  0  0  0  0
   58.6696   33.7604   42.8884 H   0  0  0  0  0  0  0  0  0  0  0  0
   58.1420   32.6740   44.6900 C   0  0  0  0  0  0  0  0  0  0  0  0
   58.8560   33.8800   45.7570 S   0  0  0  0  0  0  0  0  0  0  0  0
   57.7660   34.6010   46.5010 O   0  0  0  0  0  0  0  0  0  0  0  0
   59.6180   34.8810   44.9340 O   0  0  0  0  0  0  0  0  0  0  0  0
   59.9400   33.1310   46.8990 N   0  0  0  0  0  0  0  0  0  0  0  0
   59.4420   32.2510   47.9300 C   0  0  0  0  0  0  0  0  0  0  0  0
   58.9050   32.7760   49.1210 C   0  0  0  0  0  0  0  0  0  0  0  0
   58.8513   33.8657   49.2612 H   0  0  0  0  0  0  0  0  0  0  0  0
   58.4390   31.9230   50.1280 C   0  0  0  0  0  0  0  0  0  0  0  0
   58.0192   32.3441   51.0535 H   0  0  0  0  0  0  0  0  0  0  0  0
   58.5060   30.5380   49.9600 C   0  0  0  0  0  0  0  0  0  0  0  0
   58.0420   29.6930   50.9600 O   0  0  0  0  0  0  0  0  0  0  0  0
   59.0400   30.0040   48.7850 C   0  0  0  0  0  0  0  0  0  0  0  0
   59.0940   28.9133   48.6532 H   0  0  0  0  0  0  0  0  0  0  0  0
   59.5060   30.8520   47.7760 C   0  0  0  0  0  0  0  0  0  0  0  0
   59.9261   30.4234   46.8542 H   0  0  0  0  0  0  0  0  0  0  0  0
   61.3790   33.3580   46.7520 C   0  0  0  0  0  0  0  0  0  0  0  0
   61.8422   33.4311   47.7470 H   0  0  0  0  0  0  0  0  0  0  0  0
   61.8279   32.5196   46.1993 H   0  0  0  0  0  0  0  0  0  0  0  0
   61.5480   34.2939   46.1993 H   0  0  0  0  0  0  0  0  0  0  0  0
   57.5270   31.5270   45.2130 C   0  0  0  0  0  0  0  0  0  0  0  0
   57.4948   31.3751   46.3020 H   0  0  0  0  0  0  0  0  0  0  0  0
   56.2970   26.3540   45.9200 C   0  0  0  0  0  0  0  0  0  0  0  0
   54.9530   26.7040   46.0110 O   0  0  0  0  0  0  0  0  0  0  0  0
   56.6610   25.0070   45.8630 C   0  0  0  0  0  0  0  0  0  0  0  0
   55.8878   24.2252   45.8936 H   0  0  0  0  0  0  0  0  0  0  0  0
   58.0090   24.6550   45.7670 C   0  0  0  0  0  0  0  0  0  0  0  0
   58.3055   23.5967   45.7203 H   0  0  0  0  0  0  0  0  0  0  0  0
  1  2  1  0
  2  3  1  0
  3  4  1  0
  4  5  2  0
  5  6  1  0
  6  7  2  0
  6  8  1  0
  8  9  2  0
  9 10  1  0
  9 11  1  0
 11 12  1  0
 11 13  2  0
 13 14  1  0
 13 15  1  0
 15 16  1  0
 16 17  2  0
 16 18  2  0
 16 19  1  0
 19 20  1  0
 20 21  2  0
 21 22  1  0
 21 23  1  0
 23 24  1  0
 23 25  2  0
 25 26  1  0
 25 27  1  0
 27 28  1  0
 27 29  2  0
 29 30  1  0
 19 31  1  0
 31 32  1  0
 31 33  1  0
 31 34  1  0
 15 35  2  0
 35 36  1  0
  4 37  1  0
 37 38  1  0
 37 39  2  0
 39 40  1  0
 39 41  1  0
 41 42  1  0
 41  2  2  0
 35  8  1  0
 29 20  1  0
M  CHG  3   3  -1  26  -1  38  -1
M  END
>  <UniqueID>  (44) 
43

>  <SMILES>  (44) 
CN(c1ccc([O-])cc1)S(=O)(=O)c1cccc(C(=O)/N=c2\[n-]cccc2[O-])c1

>  <Energy>  (44) 
53.144325764983016

>  <Genealogy>  (44) 
CN(c1ccc([O-])cc1)S(=O)(=O)c1cccc(C(=O)N=c2[n-]cccc2[O-])c1 (protonated)
CN(c1ccc([O-])cc1)S(=O)(=O)c1cccc(C(=O)/N=c2\[n-]cccc2[O-])c1 (cis-trans isomerization)
CN(c1ccc([O-])cc1)S(=O)(=O)c1cccc(C(=O)/N=c2\[n-]cccc2[O-])c1 (3D coordinates assigned)
CN(c1ccc([O-])cc1)S(=O)(=O)c1cccc(C(=O)/N=c2\[n-]cccc2[O-])c1 (optimized conformer: 53.144325764983016 kcal/mol)

>  <smiles>  (44) 
CN(c1ccc(O)cc1)S(=O)(=O)c1cccc(C(=O)N=c2[nH]cccc2O)c1

>  <score_type>  (44) 
oracle

>  <origin>  (44) 
adg

>  <m_score__min__energy>  (44) 
-15.51

>  <m_primary>  (44) 
energy

$$$$
44:0
     RDKit          3D

 42 45  0  0  0  0  0  0  0  0999 V2000
   58.6430   34.2758   47.2481 H   0  0  0  0  0  0  0  0  0  0  0  0
   59.2330   33.4120   46.9080 C   0  0  0  0  0  0  0  0  0  0  0  0
   60.6060   33.2700   47.4280 C   0  0  0  0  0  0  0  0  0  0  0  0
   61.6750   33.8100   46.7130 C   0  0  0  0  0  0  0  0  0  0  0  0
   61.4893   34.3641   45.7811 H   0  0  0  0  0  0  0  0  0  0  0  0
   62.9750   33.6480   47.1780 C   0  0  0  0  0  0  0  0  0  0  0  0
   63.8157   34.0962   46.6281 H   0  0  0  0  0  0  0  0  0  0  0  0
   63.2150   32.9120   48.3500 C   0  0  0  0  0  0  0  0  0  0  0  0
   64.5590   32.7900   48.8520 N   0  0  0  0  0  0  0  0  0  0  0  0
   65.2780   32.3260   48.2520 H   0  0  0  0  0  0  0  0  0  0  0  0
   64.9870   33.3440   50.1060 C   0  0  0  0  0  0  0  0  0  0  0  0
   64.2350   34.1210   50.7540 O   0  0  0  0  0  0  0  0  0  0  0  0
   66.3660   33.0670   50.6110 C   0  0  0  0  0  0  0  0  0  0  0  0
   67.1030   33.4155   49.8725 H   0  0  0  0  0  0  0  0  0  0  0  0
   66.5193   33.5965   51.5629 H   0  0  0  0  0  0  0  0  0  0  0  0
   66.5680   31.3180   50.8690 Cl  0  0  0  0  0  0  0  0  0  0  0  0
   62.1580   32.3520   49.0290 N   0  0  0  0  0  0  0  0  0  0  0  0
   62.3860   31.5710   50.2520 C   0  0  0  0  0  0  0  0  0  0  0  0
   62.2009   32.2049   51.1317 H   0  0  0  0  0  0  0  0  0  0  0  0
   61.7017   30.7099   50.2701 H   0  0  0  0  0  0  0  0  0  0  0  0
   63.4261   31.2133   50.2701 H   0  0  0  0  0  0  0  0  0  0  0  0
   60.8750   32.5200   48.5820 C   0  0  0  0  0  0  0  0  0  0  0  0
   60.0433   32.0602   49.1359 H   0  0  0  0  0  0  0  0  0  0  0  0
   58.6530   32.5570   46.0460 C   0  0  0  0  0  0  0  0  0  0  0  0
   58.0900   32.8290   44.7790 C   0  0  0  0  0  0  0  0  0  0  0  0
   58.0460   33.9470   44.2000 O   0  0  0  0  0  0  0  0  0  0  0  0
   57.6300   31.6420   44.2340 C   0  0  0  0  0  0  0  0  0  0  0  0
   57.0060   31.3280   43.0240 C   0  0  0  0  0  0  0  0  0  0  0  0
   56.7757   32.1080   42.2833 H   0  0  0  0  0  0  0  0  0  0  0  0
   56.6800   29.9700   42.7840 C   0  0  0  0  0  0  0  0  0  0  0  0
   56.1845   29.6885   41.8431 H   0  0  0  0  0  0  0  0  0  0  0  0
   56.9850   28.9680   43.7430 C   0  0  0  0  0  0  0  0  0  0  0  0
   56.7267   27.9171   43.5459 H   0  0  0  0  0  0  0  0  0  0  0  0
   57.6200   29.3270   44.9480 C   0  0  0  0  0  0  0  0  0  0  0  0
   57.9850   28.4390   45.9760 C   0  0  0  0  0  0  0  0  0  0  0  0
   57.7721   27.3641   45.8798 H   0  0  0  0  0  0  0  0  0  0  0  0
   58.6300   28.9380   47.1390 C   0  0  0  0  0  0  0  0  0  0  0  0
   58.9148   28.2429   47.9426 H   0  0  0  0  0  0  0  0  0  0  0  0
   58.9110   30.3190   47.2770 C   0  0  0  0  0  0  0  0  0  0  0  0
   59.4109   30.7076   48.1765 H   0  0  0  0  0  0  0  0  0  0  0  0
   58.5340   31.1760   46.2350 C   0  0  0  0  0  0  0  0  0  0  0  0
   57.9130   30.6670   45.1340 C   0  0  0  0  0  0  0  0  0  0  0  0
  1  2  1  0
  2  3  1  0
  3  4  2  0
  4  5  1  0
  4  6  1  0
  6  7  1  0
  6  8  2  0
  8  9  1  0
  9 10  1  0
  9 11  1  0
 11 12  2  0
 11 13  1  0
 13 14  1  0
 13 15  1  0
 13 16  1  0
  8 17  1  0
 17 18  1  0
 18 19  1  0
 18 20  1  0
 18 21  1  0
 17 22  2  0
 22 23  1  0
  2 24  2  0
 24 25  1  0
 25 26  2  0
 25 27  1  0
 27 28  2  0
 28 29  1  0
 28 30  1  0
 30 31  1  0
 30 32  2  0
 32 33  1  0
 32 34  1  0
 34 35  2  0
 35 36  1  0
 35 37  1  0
 37 38  1  0
 37 39  2  0
 39 40  1  0
 39 41  1  0
 41 42  2  0
 22  3  1  0
 41 24  1  0
 42 27  1  0
 42 34  1  0
M  CHG  1  17   1
M  END
>  <UniqueID>  (45) 
44

>  <SMILES>  (45) 
C[n+]1cc(/C=c2\c(=O)c3cccc4cccc2c43)ccc1NC(=O)CCl

>  <Energy>  (45) 
102.41420207680089

>  <Genealogy>  (45) 
C[n+]1cc(/C=c2\c(=O)c3cccc4cccc2c43)ccc1NC(=O)CCl (cis-trans isomerization)
C[n+]1cc(/C=c2\c(=O)c3cccc4cccc2c43)ccc1NC(=O)CCl (3D coordinates assigned)
C[n+]1cc(/C=c2\c(=O)c3cccc4cccc2c43)ccc1NC(=O)CCl (optimized conformer: 102.41420207680089 kcal/mol)

>  <smiles>  (45) 
C[n+]1cc(C=c2c(=O)c3cccc4cccc2c43)ccc1NC(=O)CCl

>  <score_type>  (45) 
oracle

>  <origin>  (45) 
adg

>  <m_score__min__energy>  (45) 
-7.4699999999999998

>  <m_primary>  (45) 
energy

$$$$
45:0
     RDKit          3D

 57 59  0  0  0  0  0  0  0  0999 V2000
   60.2950   27.6380   48.7330 N   0  0  0  0  0  0  0  0  0  0  0  0
   60.3440   27.1540   47.3570 C   0  0  0  0  0  0  0  0  0  0  0  0
   59.3460   27.9080   46.5070 C   0  0  0  0  0  0  0  0  0  0  0  0
   58.0480   27.3880   46.3720 C   0  0  0  0  0  0  0  0  0  0  0  0
   57.0890   28.0570   45.6070 C   0  0  0  0  0  0  0  0  0  0  0  0
   57.4130   29.2550   44.9680 C   0  0  0  0  0  0  0  0  0  0  0  0
   56.2070   30.0850   43.9980 Cl  0  0  0  0  0  0  0  0  0  0  0  0
   58.6940   29.7960   45.1050 C   0  0  0  0  0  0  0  0  0  0  0  0
   59.6670   29.1450   45.8880 C   0  0  0  0  0  0  0  0  0  0  0  0
   61.0440   29.7620   45.9960 C   0  0  0  0  0  0  0  0  0  0  0  0
   61.3250   30.1570   47.3760 N   0  0  0  0  0  0  0  0  0  0  0  0
   62.2180   31.2380   47.6750 C   0  0  0  0  0  0  0  0  0  0  0  0
   62.8370   31.8230   46.7460 O   0  0  0  0  0  0  0  0  0  0  0  0
   62.4470   31.6560   49.1050 C   0  0  1  0  0  0  0  0  0  0  0  0
   63.3160   32.9130   49.1820 C   0  0  0  0  0  0  0  0  0  0  0  0
   62.3460   34.0700   49.4110 C   0  0  0  0  0  0  0  0  0  0  0  0
   61.0950   33.4460   50.0190 C   0  0  0  0  0  0  0  0  0  0  0  0
   61.1840   32.0210   49.7340 N   0  0  0  0  0  0  0  0  0  0  0  0
   60.1620   31.0590   50.0660 C   0  0  0  0  0  0  0  0  0  0  0  0
   60.4430   29.8290   50.0540 O   0  0  0  0  0  0  0  0  0  0  0  0
   58.7410   31.4870   50.3470 C   0  0  0  0  0  0  0  0  0  0  0  0
   58.1500   32.3080   49.1920 C   0  0  0  0  0  0  0  0  0  0  0  0
   58.5710   31.7300   47.8360 C   0  0  0  0  0  0  0  0  0  0  0  0
   58.7040   32.8260   46.8130 C   0  0  0  0  0  0  0  0  0  0  0  0
   59.7650   33.7440   46.8900 C   0  0  0  0  0  0  0  0  0  0  0  0
   59.8730   34.7780   45.9540 C   0  0  0  0  0  0  0  0  0  0  0  0
   58.9180   34.9080   44.9420 C   0  0  0  0  0  0  0  0  0  0  0  0
   57.8510   34.0080   44.8680 C   0  0  0  0  0  0  0  0  0  0  0  0
   57.7410   32.9710   45.8010 C   0  0  0  0  0  0  0  0  0  0  0  0
   61.1860   28.1470   48.9320 H   0  0  0  0  0  0  0  0  0  0  0  0
   59.5270   28.3470   48.7920 H   0  0  0  0  0  0  0  0  0  0  0  0
   61.3556   27.3070   46.9529 H   0  0  0  0  0  0  0  0  0  0  0  0
   60.0941   26.0829   47.3422 H   0  0  0  0  0  0  0  0  0  0  0  0
   57.7840   26.4451   46.8733 H   0  0  0  0  0  0  0  0  0  0  0  0
   56.0765   27.6387   45.5081 H   0  0  0  0  0  0  0  0  0  0  0  0
   58.9448   30.7388   44.5968 H   0  0  0  0  0  0  0  0  0  0  0  0
   61.7955   29.0279   45.6701 H   0  0  0  0  0  0  0  0  0  0  0  0
   61.0828   30.6562   45.3566 H   0  0  0  0  0  0  0  0  0  0  0  0
   60.8600   29.6530   48.1650 H   0  0  0  0  0  0  0  0  0  0  0  0
   62.9301   30.8039   49.6055 H   0  0  0  0  0  0  0  0  0  0  0  0
   64.0274   32.8373   50.0176 H   0  0  0  0  0  0  0  0  0  0  0  0
   63.9090   33.0544   48.2663 H   0  0  0  0  0  0  0  0  0  0  0  0
   62.7827   34.8053   50.1028 H   0  0  0  0  0  0  0  0  0  0  0  0
   62.1203   34.6017   48.4748 H   0  0  0  0  0  0  0  0  0  0  0  0
   61.0700   33.6186   51.1051 H   0  0  0  0  0  0  0  0  0  0  0  0
   60.1782   33.8863   49.5998 H   0  0  0  0  0  0  0  0  0  0  0  0
   58.1228   30.5897   50.4979 H   0  0  0  0  0  0  0  0  0  0  0  0
   58.7478   32.1205   51.2462 H   0  0  0  0  0  0  0  0  0  0  0  0
   57.0525   32.2928   49.2645 H   0  0  0  0  0  0  0  0  0  0  0  0
   58.5266   33.3389   49.2659 H   0  0  0  0  0  0  0  0  0  0  0  0
   59.5384   31.2180   47.9456 H   0  0  0  0  0  0  0  0  0  0  0  0
   57.8017   31.0200   47.4981 H   0  0  0  0  0  0  0  0  0  0  0  0
   60.5141   33.6492   47.6899 H   0  0  0  0  0  0  0  0  0  0  0  0
   60.7100   35.4891   46.0146 H   0  0  0  0  0  0  0  0  0  0  0  0
   59.0060   35.7186   44.2036 H   0  0  0  0  0  0  0  0  0  0  0  0
   57.0964   34.1152   44.0748 H   0  0  0  0  0  0  0  0  0  0  0  0
   56.8977   32.2672   45.7417 H   0  0  0  0  0  0  0  0  0  0  0  0
  1  2  1  0
  2  3  1  0
  3  4  2  0
  4  5  1  0
  5  6  2  0
  6  7  1  0
  6  8  1  0
  8  9  2  0
  9 10  1  0
 10 11  1  0
 11 12  1  0
 12 13  2  0
 12 14  1  0
 14 15  1  0
 15 16  1  0
 16 17  1  0
 17 18  1  0
 18 19  1  0
 19 20  2  0
 19 21  1  0
 21 22  1  0
 22 23  1  0
 23 24  1  0
 24 25  2  0
 25 26  1  0
 26 27  2  0
 27 28  1  0
 28 29  2  0
  9  3  1  0
 18 14  1  0
 29 24  1  0
  1 30  1  0
  1 31  1  0
  2 32  1  0
  2 33  1  0
  4 34  1  0
  5 35  1  0
  8 36  1  0
 10 37  1  0
 10 38  1  0
 11 39  1  0
 14 40  1  1
 15 41  1  0
 15 42  1  0
 16 43  1  0
 16 44  1  0
 17 45  1  0
 17 46  1  0
 21 47  1  0
 21 48  1  0
 22 49  1  0
 22 50  1  0
 23 51  1  0
 23 52  1  0
 25 53  1  0
 26 54  1  0
 27 55  1  0
 28 56  1  0
 29 57  1  0
M  END
>  <UniqueID>  (46) 
45

>  <SMILES>  (46) 
NCc1ccc(Cl)cc1CNC(=O)[C@H]1CCCN1C(=O)CCCc1ccccc1

>  <Energy>  (46) 
49.580987390536436

>  <Genealogy>  (46) 
NCc1ccc(Cl)cc1CNC(=O)[C@H]1CCCN1C(=O)CCCc1ccccc1 (chirality)
NCc1ccc(Cl)cc1CNC(=O)[C@H]1CCCN1C(=O)CCCc1ccccc1 (3D coordinates assigned)
NCc1ccc(Cl)cc1CNC(=O)[C@H]1CCCN1C(=O)CCCc1ccccc1 (nonaromatic ring conformer: 49.580987390536436 kcal/mol)

>  <smiles>  (46) 
NCc1ccc(Cl)cc1CNC(=O)C1CCCN1C(=O)CCCc1ccccc1

>  <score_type>  (46) 
oracle

>  <origin>  (46) 
adg

>  <m_score__min__energy>  (46) 
-9.0199999999999996

>  <m_primary>  (46) 
energy

$$$$
46:0
     RDKit          3D

 58 62  0  0  1  0  0  0  0  0999 V2000
   56.2800   29.5320   42.6050 C   0  0  0  0  0  0  0  0  0  0  0  0
   56.2980   30.7810   43.2380 O   0  0  0  0  0  0  0  0  0  0  0  0
   56.3720   30.9670   44.6000 N   0  0  0  0  0  0  0  0  0  0  0  0
   57.4630   30.6730   45.2270 C   0  0  0  0  0  0  0  0  0  0  0  0
   58.5230   31.6790   45.5210 C   0  0  0  0  0  0  0  0  0  0  0  0
   59.1330   31.4570   46.8810 C   0  0  2  0  0  0  0  0  0  0  0  0
   60.2920   32.3670   47.0680 C   0  0  0  0  0  0  0  0  0  0  0  0
   60.9150   33.2940   46.3650 C   0  0  0  0  0  0  0  0  0  0  0  0
   62.0310   33.8390   47.1490 C   0  0  0  0  0  0  0  0  0  0  0  0
   62.0870   33.2380   48.3340 C   0  0  0  0  0  0  0  0  0  0  0  0
   63.0710   33.5390   49.3500 C   0  0  0  0  0  0  0  0  0  0  0  0
   64.3510   32.9880   49.3590 C   0  0  0  0  0  0  0  0  0  0  0  0
   65.0290   33.4780   50.4540 C   0  0  0  0  0  0  0  0  0  0  0  0
   66.4280   33.1480   50.8420 C   0  0  0  0  0  0  0  0  0  0  0  0
   66.3750   32.1000   51.7400 F   0  0  0  0  0  0  0  0  0  0  0  0
   67.0310   34.2080   51.4790 F   0  0  0  0  0  0  0  0  0  0  0  0
   67.1660   32.7230   49.7600 F   0  0  0  0  0  0  0  0  0  0  0  0
   64.1730   34.3070   51.0900 N   0  0  0  0  0  0  0  0  0  0  0  0
   63.0180   34.3260   50.4160 N   0  0  0  0  0  0  0  0  0  0  0  0
   60.9980   32.2620   48.3930 C   0  0  1  0  0  0  0  0  0  0  0  0
   59.9970   32.6910   49.4460 C   0  0  0  0  0  0  0  0  0  0  0  0
   61.4220   30.8360   48.5560 C   0  0  0  0  0  0  0  0  0  0  0  0
   61.0370   29.9990   47.3570 C   0  0  0  0  0  0  0  0  0  0  0  0
   59.5120   30.0520   47.1910 C   0  0  2  0  0  0  0  0  0  0  0  0
   59.0710   29.0060   46.2150 C   0  0  1  0  0  0  0  0  0  0  0  0
   60.0400   28.7910   45.0810 C   0  0  0  0  0  0  0  0  0  0  0  0
   59.0420   27.6960   46.9760 C   0  0  0  0  0  0  0  0  0  0  0  0
   58.2900   26.6050   46.2760 C   0  0  0  0  0  0  0  0  0  0  0  0
   56.8920   27.0670   46.0570 C   0  0  0  0  0  0  0  0  0  0  0  0
   55.8830   26.3690   46.2210 O   0  0  0  0  0  0  0  0  0  0  0  0
   56.7330   28.4540   45.6160 C   0  0  0  0  0  0  0  0  0  0  0  0
   57.7360   29.3030   45.7010 C   0  0  0  0  0  0  0  0  0  0  0  0
   56.2685   28.7362   43.3643 H   0  0  0  0  0  0  0  0  0  0  0  0
   55.3806   29.4523   41.9767 H   0  0  0  0  0  0  0  0  0  0  0  0
   57.1767   29.4264   41.9767 H   0  0  0  0  0  0  0  0  0  0  0  0
   59.3118   31.6005   44.7583 H   0  0  0  0  0  0  0  0  0  0  0  0
   58.0636   32.6784   45.5077 H   0  0  0  0  0  0  0  0  0  0  0  0
   58.3347   31.6905   47.6008 H   0  0  0  0  0  0  0  0  0  0  0  0
   60.6405   33.6100   45.3478 H   0  0  0  0  0  0  0  0  0  0  0  0
   62.7181   34.6269   46.8070 H   0  0  0  0  0  0  0  0  0  0  0  0
   64.7522   32.2815   48.6175 H   0  0  0  0  0  0  0  0  0  0  0  0
   62.2110   34.8880   50.7120 H   0  0  0  0  0  0  0  0  0  0  0  0
   60.4173   32.5109   50.4464 H   0  0  0  0  0  0  0  0  0  0  0  0
   59.7772   33.7624   49.3281 H   0  0  0  0  0  0  0  0  0  0  0  0
   59.0696   32.1113   49.3281 H   0  0  0  0  0  0  0  0  0  0  0  0
   62.5144   30.8006   48.6798 H   0  0  0  0  0  0  0  0  0  0  0  0
   60.9123   30.4249   49.4398 H   0  0  0  0  0  0  0  0  0  0  0  0
   61.5220   30.3995   46.4546 H   0  0  0  0  0  0  0  0  0  0  0  0
   61.3626   28.9588   47.5051 H   0  0  0  0  0  0  0  0  0  0  0  0
   58.9683   29.7936   48.1117 H   0  0  0  0  0  0  0  0  0  0  0  0
   61.0376   28.5697   45.4882 H   0  0  0  0  0  0  0  0  0  0  0  0
   59.7003   27.9464   44.4636 H   0  0  0  0  0  0  0  0  0  0  0  0
   60.0894   29.7000   44.4636 H   0  0  0  0  0  0  0  0  0  0  0  0
   60.0785   27.3603   47.1277 H   0  0  0  0  0  0  0  0  0  0  0  0
   58.5180   27.8883   47.9239 H   0  0  0  0  0  0  0  0  0  0  0  0
   58.7656   26.3871   45.3084 H   0  0  0  0  0  0  0  0  0  0  0  0
   58.2954   25.6895   46.8858 H   0  0  0  0  0  0  0  0  0  0  0  0
   55.7673   28.7898   45.2101 H   0  0  0  0  0  0  0  0  0  0  0  0
  1  2  1  0
  2  3  1  0
  3  4  2  0
  4  5  1  0
  5  6  1  0
  6  7  1  0
  7  8  2  0
  8  9  1  0
  9 10  2  0
 10 11  1  0
 11 12  2  0
 12 13  1  0
 13 14  1  0
 14 15  1  0
 14 16  1  0
 14 17  1  0
 13 18  2  0
 18 19  1  0
 10 20  1  0
 20 21  1  1
 20 22  1  0
 22 23  1  0
 23 24  1  0
 24 25  1  0
 25 26  1  6
 25 27  1  0
 27 28  1  0
 28 29  1  0
 29 30  2  0
 29 31  1  0
 31 32  2  0
 32  4  1  0
 24  6  1  0
 32 25  1  0
 20  7  1  0
 19 11  1  0
  1 33  1  0
  1 34  1  0
  1 35  1  0
  5 36  1  0
  5 37  1  0
  6 38  1  1
  8 39  1  0
  9 40  1  0
 12 41  1  0
 19 42  1  0
 21 43  1  0
 21 44  1  0
 21 45  1  0
 22 46  1  0
 22 47  1  0
 23 48  1  0
 23 49  1  0
 24 50  1  1
 26 51  1  0
 26 52  1  0
 26 53  1  0
 27 54  1  0
 27 55  1  0
 28 56  1  0
 28 57  1  0
 31 58  1  0
M  END
>  <smiles>  (47) 
CON=C1CC2C3=CC=C(c4cc(C(F)(F)F)n[nH]4)C3(C)CCC2C2(C)CCC(=O)C=C12

>  <score_type>  (47) 
oracle

>  <origin>  (47) 
adg

>  <m_score__min__energy>  (47) 
-10.539999999999999

>  <m_primary>  (47) 
energy

$$$$
47:0
     RDKit          3D

 66 70  0  0  0  0  0  0  0  0999 V2000
   56.1440   27.8170   44.7740 H   0  0  0  0  0  0  0  0  0  0  0  0
   55.7220   27.4490   45.6160 O   0  0  0  0  0  0  0  0  0  0  0  0
   56.3930   26.5280   46.4170 C   0  0  0  0  0  0  0  0  0  0  0  0
   55.9530   25.2750   46.6210 N   0  0  0  0  0  0  0  0  0  0  0  0
   56.9200   24.7440   47.4020 C   0  0  0  0  0  0  0  0  0  0  0  0
   56.8800   23.5550   47.8130 O   0  0  0  0  0  0  0  0  0  0  0  0
   57.9370   25.5810   47.6970 N   0  0  0  0  0  0  0  0  0  0  0  0
   57.5830   26.7280   47.0900 C   0  0  0  0  0  0  0  0  0  0  0  0
   58.4570   27.9100   47.0350 C   0  0  0  0  0  0  0  0  0  0  0  0
   58.6757   28.3224   46.0390 H   0  0  0  0  0  0  0  0  0  0  0  0
   59.0150   28.5350   48.0910 C   0  0  0  0  0  0  0  0  0  0  0  0
   58.5040   29.7130   48.6150 C   0  0  0  0  0  0  0  0  0  0  0  0
   57.6373   30.2754   48.2375 H   0  0  0  0  0  0  0  0  0  0  0  0
   59.2880   30.0450   49.6980 C   0  0  0  0  0  0  0  0  0  0  0  0
   59.0400   31.2240   50.5930 C   0  0  0  0  0  0  0  0  0  0  0  0
   59.1067   30.9068   51.6442 H   0  0  0  0  0  0  0  0  0  0  0  0
   59.7947   31.9995   50.3954 H   0  0  0  0  0  0  0  0  0  0  0  0
   58.0369   31.6298   50.3954 H   0  0  0  0  0  0  0  0  0  0  0  0
   60.2620   29.1260   49.8700 N   0  0  0  0  0  0  0  0  0  0  0  0
   61.3140   29.1990   50.8460 C   0  0  0  0  0  0  0  0  0  0  0  0
   62.4720   29.9930   50.6510 C   0  0  0  0  0  0  0  0  0  0  0  0
   62.6770   30.8500   49.4500 C   0  0  0  0  0  0  0  0  0  0  0  0
   63.7420   31.5120   49.3090 O   0  0  0  0  0  0  0  0  0  0  0  0
   61.6480   31.0130   48.4660 N   0  0  0  0  0  0  0  0  0  0  0  0
   60.9640   32.2350   48.1610 C   0  0  0  0  0  0  0  0  0  0  0  0
   61.2260   33.4160   48.8730 C   0  0  0  0  0  0  0  0  0  0  0  0
   61.9981   33.4251   49.6564 H   0  0  0  0  0  0  0  0  0  0  0  0
   60.5070   34.5810   48.5880 C   0  0  0  0  0  0  0  0  0  0  0  0
   60.7128   35.5036   49.1505 H   0  0  0  0  0  0  0  0  0  0  0  0
   59.5270   34.5770   47.5900 C   0  0  0  0  0  0  0  0  0  0  0  0
   58.9592   35.4942   47.3746 H   0  0  0  0  0  0  0  0  0  0  0  0
   59.2670   33.4070   46.8640 C   0  0  0  0  0  0  0  0  0  0  0  0
   58.0580   33.4100   45.5810 S   0  0  0  0  0  0  0  0  0  0  0  0
   58.1100   34.7290   44.8590 O   0  0  0  0  0  0  0  0  0  0  0  0
   56.6940   33.2800   46.2060 O   0  0  0  0  0  0  0  0  0  0  0  0
   58.3770   32.0610   44.4950 N   0  0  0  0  0  0  0  0  0  0  0  0
   57.4470   32.0650   43.3350 C   0  0  0  0  0  0  0  0  0  0  0  0
   56.4916   32.5101   43.6499 H   0  0  0  0  0  0  0  0  0  0  0  0
   57.9179   32.6483   42.5300 H   0  0  0  0  0  0  0  0  0  0  0  0
   57.1780   30.6500   42.7930 C   0  0  0  0  0  0  0  0  0  0  0  0
   56.4639   30.7196   41.9592 H   0  0  0  0  0  0  0  0  0  0  0  0
   58.1379   30.2262   42.4629 H   0  0  0  0  0  0  0  0  0  0  0  0
   56.6140   29.7490   43.8330 N   0  0  0  0  0  0  0  0  0  0  0  0
   55.1450   29.7020   43.7720 C   0  0  0  0  0  0  0  0  0  0  0  0
   54.7359   29.6889   44.7930 H   0  0  0  0  0  0  0  0  0  0  0  0
   54.7716   30.5887   43.2387 H   0  0  0  0  0  0  0  0  0  0  0  0
   54.8290   28.7933   43.2387 H   0  0  0  0  0  0  0  0  0  0  0  0
   57.0700   30.0670   45.2090 C   0  0  0  0  0  0  0  0  0  0  0  0
   56.3349   30.7331   45.6843 H   0  0  0  0  0  0  0  0  0  0  0  0
   57.1632   29.1245   45.7684 H   0  0  0  0  0  0  0  0  0  0  0  0
   58.4390   30.7600   45.2010 C   0  0  0  0  0  0  0  0  0  0  0  0
   58.7611   30.9301   46.2389 H   0  0  0  0  0  0  0  0  0  0  0  0
   59.1545   30.1116   44.6741 H   0  0  0  0  0  0  0  0  0  0  0  0
   59.9770   32.2320   47.1690 C   0  0  0  0  0  0  0  0  0  0  0  0
   59.7547   31.3031   46.6234 H   0  0  0  0  0  0  0  0  0  0  0  0
   63.4600   29.9480   51.5900 N   0  0  0  0  0  0  0  0  0  0  0  0
   63.3700   29.1970   52.7190 C   0  0  0  0  0  0  0  0  0  0  0  0
   64.1935   29.1999   53.4483 H   0  0  0  0  0  0  0  0  0  0  0  0
   62.2360   28.4240   52.9530 C   0  0  0  0  0  0  0  0  0  0  0  0
   62.1514   27.8220   53.8697 H   0  0  0  0  0  0  0  0  0  0  0  0
   61.2090   28.4230   52.0100 C   0  0  0  0  0  0  0  0  0  0  0  0
   60.3113   27.8103   52.1797 H   0  0  0  0  0  0  0  0  0  0  0  0
   60.1390   28.2130   48.8740 C   0  0  0  0  0  0  0  0  0  0  0  0
   61.0360   27.2380   48.6580 C   0  0  0  0  0  0  0  0  0  0  0  0
   61.8736   27.0966   49.3569 H   0  0  0  0  0  0  0  0  0  0  0  0
   60.9334   26.5805   47.7821 H   0  0  0  0  0  0  0  0  0  0  0  0
  1  2  1  0
  2  3  1  0
  3  4  1  0
  4  5  1  0
  5  6  2  0
  5  7  1  0
  7  8  1  0
  8  9  1  0
  9 10  1  0
  9 11  2  0
 11 12  1  0
 12 13  1  0
 12 14  2  0
 14 15  1  0
 15 16  1  0
 15 17  1  0
 15 18  1  0
 14 19  1  0
 19 20  1  0
 20 21  1  0
 21 22  1  0
 22 23  2  0
 22 24  1  0
 24 25  1  0
 25 26  2  0
 26 27  1  0
 26 28  1  0
 28 29  1  0
 28 30  2  0
 30 31  1  0
 30 32  1  0
 32 33  1  0
 33 34  2  0
 33 35  2  0
 33 36  1  0
 36 37  1  0
 37 38  1  0
 37 39  1  0
 37 40  1  0
 40 41  1  0
 40 42  1  0
 40 43  1  0
 43 44  1  0
 44 45  1  0
 44 46  1  0
 44 47  1  0
 43 48  1  0
 48 49  1  0
 48 50  1  0
 48 51  1  0
 51 52  1  0
 51 53  1  0
 32 54  2  0
 54 55  1  0
 21 56  2  0
 56 57  1  0
 57 58  1  0
 57 59  2  0
 59 60  1  0
 59 61  1  0
 61 62  1  0
 19 63  1  0
 63 64  2  0
 64 65  1  0
 64 66  1  0
  8  3  2  0
 63 11  1  0
 61 20  2  0
 54 25  1  0
 51 36  1  0
M  CHG  3   4  -1   7  -1  24  -1
M  END
>  <UniqueID>  (48) 
46

>  <SMILES>  (48) 
C=c1/c(=C\c2[n-]c(=O)[n-]c2O)cc(C)n1-c1cccnc1C(=O)[N-]c1cccc(S(=O)(=O)N2CCN(C)CC2)c1

>  <Energy>  (48) 
170.90029706710456

>  <Genealogy>  (48) 
C=c1c(=Cc2[n-]c(=O)[n-]c2O)cc(C)n1-c1cccnc1C(=O)[N-]c1cccc(S(=O)(=O)N2CCN(C)CC2)c1 (protonated)
C=c1/c(=C\c2[n-]c(=O)[n-]c2O)cc(C)n1-c1cccnc1C(=O)[N-]c1cccc(S(=O)(=O)N2CCN(C)CC2)c1 (cis-trans isomerization)
C=c1/c(=C\c2[n-]c(=O)[n-]c2O)cc(C)n1-c1cccnc1C(=O)[N-]c1cccc(S(=O)(=O)N2CCN(C)CC2)c1 (3D coordinates assigned)
C=c1/c(=C\c2[n-]c(=O)[n-]c2O)cc(C)n1-c1cccnc1C(=O)[N-]c1cccc(S(=O)(=O)N2CCN(C)CC2)c1 (nonaromatic ring conformer: 170.90029706710456 kcal/mol)

>  <smiles>  (48) 
C=c1c(=Cc2[nH]c(=O)[nH]c2O)cc(C)n1-c1cccnc1C(=O)Nc1cccc(S(=O)(=O)N2CCN(C)CC2)c1

>  <score_type>  (48) 
oracle

>  <origin>  (48) 
adg

>  <m_score__min__energy>  (48) 
-16.5

>  <m_primary>  (48) 
energy

$$$$
48:0
     RDKit          3D

 45 48  0  0  0  0  0  0  0  0999 V2000
   50.9790   32.4550   49.3350 O   0  0  0  0  0  0  0  0  0  0  0  0
   51.2560   31.9880   50.4690 C   0  0  0  0  0  0  0  0  0  0  0  0
   51.0370   32.6550   51.6150 N   0  0  0  0  0  0  0  0  0  0  0  0
   51.4480   31.8580   52.5860 N   0  0  0  0  0  0  0  0  0  0  0  0
   51.8960   30.7310   51.9990 C   0  0  0  0  0  0  0  0  0  0  0  0
   52.4980   29.5900   52.7520 C   0  0  0  0  0  0  0  0  0  0  0  0
   53.9460   29.8730   53.0440 C   0  0  0  0  0  0  0  0  0  0  0  0
   54.3720   30.0850   54.3640 C   0  0  0  0  0  0  0  0  0  0  0  0
   55.7130   30.3750   54.6310 C   0  0  0  0  0  0  0  0  0  0  0  0
   56.6330   30.4720   53.5830 C   0  0  0  0  0  0  0  0  0  0  0  0
   56.2110   30.2980   52.2530 C   0  0  0  0  0  0  0  0  0  0  0  0
   57.1030   30.3800   51.1730 O   0  0  0  0  0  0  0  0  0  0  0  0
   58.3970   30.9200   51.2240 C   0  0  0  0  0  0  0  0  0  0  0  0
   59.3390   30.5040   52.1830 C   0  0  0  0  0  0  0  0  0  0  0  0
   60.6120   31.0740   52.2120 C   0  0  0  0  0  0  0  0  0  0  0  0
   60.9560   32.0700   51.2940 C   0  0  0  0  0  0  0  0  0  0  0  0
   60.0220   32.5070   50.3440 C   0  0  0  0  0  0  0  0  0  0  0  0
   60.4480   33.7760   49.1950 S   0  0  0  0  0  0  0  0  0  0  0  0
   59.4530   34.8960   49.3260 O   0  0  0  0  0  0  0  0  0  0  0  0
   61.8350   34.2770   49.4920 O   0  0  0  0  0  0  0  0  0  0  0  0
   60.4030   33.1080   47.5900 N   0  0  0  0  0  0  0  0  0  0  0  0
   59.4500   33.1410   46.7000 C   0  0  0  0  0  0  0  0  0  0  0  0
   58.9850   31.9470   46.2400 N   0  0  0  0  0  0  0  0  0  0  0  0
   58.0000   31.8470   45.3110 C   0  0  0  0  0  0  0  0  0  0  0  0
   57.4190   32.9970   44.7860 C   0  0  0  0  0  0  0  0  0  0  0  0
   57.8610   34.2430   45.2260 C   0  0  0  0  0  0  0  0  0  0  0  0
   58.8790   34.3370   46.1870 C   0  0  0  0  0  0  0  0  0  0  0  0
   59.2940   35.6000   46.6030 O   0  0  0  0  0  0  0  0  0  0  0  0
   58.7380   31.9360   50.3210 C   0  0  0  0  0  0  0  0  0  0  0  0
   57.8160   32.3630   49.4210 F   0  0  0  0  0  0  0  0  0  0  0  0
   54.8700   29.9870   51.9930 C   0  0  0  0  0  0  0  0  0  0  0  0
   51.8020   30.7710   50.6530 N   0  0  0  0  0  0  0  0  0  0  0  0
   51.9557   29.4520   53.6990 H   0  0  0  0  0  0  0  0  0  0  0  0
   52.4243   28.6768   52.1433 H   0  0  0  0  0  0  0  0  0  0  0  0
   53.6489   30.0228   55.1906 H   0  0  0  0  0  0  0  0  0  0  0  0
   56.0453   30.5273   55.6685 H   0  0  0  0  0  0  0  0  0  0  0  0
   57.6902   30.6851   53.7994 H   0  0  0  0  0  0  0  0  0  0  0  0
   59.0705   29.7261   52.9129 H   0  0  0  0  0  0  0  0  0  0  0  0
   61.3465   30.7388   52.9590 H   0  0  0  0  0  0  0  0  0  0  0  0
   61.9628   32.5125   51.3168 H   0  0  0  0  0  0  0  0  0  0  0  0
   57.6612   30.8565   44.9733 H   0  0  0  0  0  0  0  0  0  0  0  0
   56.6206   32.9235   44.0329 H   0  0  0  0  0  0  0  0  0  0  0  0
   57.4090   35.1588   44.8174 H   0  0  0  0  0  0  0  0  0  0  0  0
   59.6900   35.7560   47.5220 H   0  0  0  0  0  0  0  0  0  0  0  0
   54.5379   29.8307   50.9560 H   0  0  0  0  0  0  0  0  0  0  0  0
  1  2  2  0
  2  3  1  0
  3  4  1  0
  4  5  2  0
  5  6  1  0
  6  7  1  0
  7  8  2  0
  8  9  1  0
  9 10  2  0
 10 11  1  0
 11 12  1  0
 12 13  1  0
 13 14  2  0
 14 15  1  0
 15 16  2  0
 16 17  1  0
 17 18  1  0
 18 19  2  0
 18 20  2  0
 18 21  1  0
 21 22  2  3
 22 23  1  0
 23 24  1  0
 24 25  2  0
 25 26  1  0
 26 27  2  0
 27 28  1  0
 17 29  2  0
 29 30  1  0
 11 31  2  0
  5 32  1  0
 32  2  1  0
 31  7  1  0
 29 13  1  0
 27 22  1  0
  6 33  1  0
  6 34  1  0
  8 35  1  0
  9 36  1  0
 10 37  1  0
 14 38  1  0
 15 39  1  0
 16 40  1  0
 24 41  1  0
 25 42  1  0
 26 43  1  0
 28 44  1  0
 31 45  1  0
M  CHG  3   3  -1  23  -1  32  -1
M  END
>  <UniqueID>  (49) 
47

>  <SMILES>  (49) 
O=c1[n-]nc(Cc2cccc(Oc3cccc(S(=O)(=O)N=c4[n-]cccc4O)c3F)c2)[n-]1

>  <Energy>  (49) 
98.72132459441434

>  <Genealogy>  (49) 
O=c1[n-]nc(Cc2cccc(Oc3cccc(S(=O)(=O)N=c4[n-]cccc4O)c3F)c2)[n-]1 (protonated)
O=c1[n-]nc(Cc2cccc(Oc3cccc(S(=O)(=O)N=c4[n-]cccc4O)c3F)c2)[n-]1 (3D coordinates assigned)
O=c1[n-]nc(Cc2cccc(Oc3cccc(S(=O)(=O)N=c4[n-]cccc4O)c3F)c2)[n-]1 (optimized conformer: 98.72132459441434 kcal/mol)

>  <smiles>  (49) 
O=c1[nH]nc(Cc2cccc(Oc3cccc(S(=O)(=O)N=c4[nH]cccc4O)c3F)c2)[nH]1

>  <score_type>  (49) 
oracle

>  <origin>  (49) 
adg

>  <m_score__min__energy>  (49) 
-14.68

>  <m_primary>  (49) 
energy

$$$$
49:0
     RDKit          3D

 77 82  0  0  0  0  0  0  0  0999 V2000
   55.8270   30.4820   44.7640 O   0  0  0  0  0  0  0  0  0  0  0  0
   56.9700   30.8960   44.4350 C   0  0  0  0  0  0  0  0  0  0  0  0
   58.0260   29.8880   44.0650 C   0  0  0  0  0  0  0  0  0  0  0  0
   58.3890   29.0370   45.2520 C   0  0  0  0  0  0  0  0  0  0  0  0
   59.3300   29.4970   46.1880 C   0  0  0  0  0  0  0  0  0  0  0  0
   59.7230   28.6830   47.2640 C   0  0  0  0  0  0  0  0  0  0  0  0
   60.7620   29.1670   48.2450 C   0  0  0  0  0  0  0  0  0  0  0  0
   60.4760   30.5600   48.6540 N   0  0  0  0  0  0  0  0  0  0  0  0
   59.0830   30.7070   49.1150 C   0  0  0  0  0  0  0  0  0  0  0  0
   59.0960   31.6310   50.3170 C   0  0  0  0  0  0  0  0  0  0  0  0
   60.4580   31.4100   50.9280 C   0  0  0  0  0  0  0  0  0  0  0  0
   61.3420   31.0160   49.7570 C   0  0  0  0  0  0  0  0  0  0  0  0
   59.1450   27.4100   47.4140 C   0  0  0  0  0  0  0  0  0  0  0  0
   59.5270   26.5890   48.4730 O   0  0  0  0  0  0  0  0  0  0  0  0
   58.1770   26.9600   46.5000 C   0  0  0  0  0  0  0  0  0  0  0  0
   57.6310   25.6450   46.6330 N   0  0  0  0  0  0  0  0  0  0  0  0
   56.1130   25.1760   45.9430 S   0  0  0  0  0  0  0  0  0  0  0  0
   56.3240   24.8070   44.4980 O   0  0  0  0  0  0  0  0  0  0  0  0
   55.1720   26.3460   46.0050 O   0  0  0  0  0  0  0  0  0  0  0  0
   55.4060   23.7870   46.7810 C   0  0  0  0  0  0  0  0  0  0  0  0
   56.1500   23.1130   47.7620 C   0  0  0  0  0  0  0  0  0  0  0  0
   55.6020   22.0240   48.4460 C   0  0  0  0  0  0  0  0  0  0  0  0
   54.3070   21.5800   48.1530 C   0  0  0  0  0  0  0  0  0  0  0  0
   53.5510   22.2390   47.1720 C   0  0  0  0  0  0  0  0  0  0  0  0
   52.2550   21.8120   46.8570 C   0  0  0  0  0  0  0  0  0  0  0  0
   51.5210   22.4900   45.8820 C   0  0  0  0  0  0  0  0  0  0  0  0
   52.0850   23.5970   45.2410 C   0  0  0  0  0  0  0  0  0  0  0  0
   53.3440   23.9980   45.5550 N   0  0  0  0  0  0  0  0  0  0  0  0
   54.0960   23.3520   46.4870 C   0  0  0  0  0  0  0  0  0  0  0  0
   57.8070   27.7740   45.4200 C   0  0  0  0  0  0  0  0  0  0  0  0
   57.2530   32.3100   44.4870 N   0  0  0  0  0  0  0  0  0  0  0  0
   58.1020   32.9810   43.4990 C   0  0  0  0  0  0  0  0  0  0  0  0
   59.2660   33.6230   44.2450 C   0  0  0  0  0  0  0  0  0  0  0  0
   58.8110   34.6060   45.2600 N   0  0  0  0  0  0  0  0  0  0  0  0
   59.8220   34.8030   46.3310 C   0  0  1  0  0  0  0  0  0  0  0  0
   59.2660   34.6840   47.7310 C   0  0  0  0  0  0  0  0  0  0  0  0
   60.4370   34.1070   48.5250 C   0  0  0  0  0  0  0  0  0  0  0  0
   61.5110   33.8330   47.6460 O   0  0  0  0  0  0  0  0  0  0  0  0
   60.9740   33.8110   46.3490 C   0  0  0  0  0  0  0  0  0  0  0  0
   57.3820   34.5050   45.6720 C   0  0  0  0  0  0  0  0  0  0  0  0
   56.8380   33.0610   45.6810 C   0  0  0  0  0  0  0  0  0  0  0  0
   57.6426   29.2420   43.2614 H   0  0  0  0  0  0  0  0  0  0  0  0
   58.9245   30.4252   43.7273 H   0  0  0  0  0  0  0  0  0  0  0  0
   59.7627   30.5023   46.0778 H   0  0  0  0  0  0  0  0  0  0  0  0
   60.7511   28.5188   49.1337 H   0  0  0  0  0  0  0  0  0  0  0  0
   61.7506   29.1322   47.7638 H   0  0  0  0  0  0  0  0  0  0  0  0
   58.4662   31.1410   48.3143 H   0  0  0  0  0  0  0  0  0  0  0  0
   58.6583   29.7284   49.3831 H   0  0  0  0  0  0  0  0  0  0  0  0
   58.9713   32.6790   50.0068 H   0  0  0  0  0  0  0  0  0  0  0  0
   58.2761   31.4243   51.0206 H   0  0  0  0  0  0  0  0  0  0  0  0
   60.8266   32.3327   51.4000 H   0  0  0  0  0  0  0  0  0  0  0  0
   60.4428   30.6433   51.7166 H   0  0  0  0  0  0  0  0  0  0  0  0
   61.9344   31.8833   49.4302 H   0  0  0  0  0  0  0  0  0  0  0  0
   62.0294   30.2109   50.0560 H   0  0  0  0  0  0  0  0  0  0  0  0
   58.0810   24.9800   47.3040 H   0  0  0  0  0  0  0  0  0  0  0  0
   57.1728   23.4445   47.9945 H   0  0  0  0  0  0  0  0  0  0  0  0
   56.1926   21.5122   49.2201 H   0  0  0  0  0  0  0  0  0  0  0  0
   53.8840   20.7180   48.6897 H   0  0  0  0  0  0  0  0  0  0  0  0
   51.8173   20.9462   47.3755 H   0  0  0  0  0  0  0  0  0  0  0  0
   50.5063   22.1556   45.6201 H   0  0  0  0  0  0  0  0  0  0  0  0
   51.5080   24.1442   44.4810 H   0  0  0  0  0  0  0  0  0  0  0  0
   57.0550   27.4186   44.7002 H   0  0  0  0  0  0  0  0  0  0  0  0
   58.4820   32.2477   42.7724 H   0  0  0  0  0  0  0  0  0  0  0  0
   57.5275   33.7440   42.9533 H   0  0  0  0  0  0  0  0  0  0  0  0
   59.8410   32.8331   44.7504 H   0  0  0  0  0  0  0  0  0  0  0  0
   59.8822   34.1601   43.5089 H   0  0  0  0  0  0  0  0  0  0  0  0
   60.1632   35.8171   46.0756 H   0  0  0  0  0  0  0  0  0  0  0  0
   58.9708   35.6685   48.1230 H   0  0  0  0  0  0  0  0  0  0  0  0
   58.3609   34.0610   47.7838 H   0  0  0  0  0  0  0  0  0  0  0  0
   60.7602   34.8350   49.2836 H   0  0  0  0  0  0  0  0  0  0  0  0
   60.1219   33.1772   49.0212 H   0  0  0  0  0  0  0  0  0  0  0  0
   61.7400   34.1076   45.6174 H   0  0  0  0  0  0  0  0  0  0  0  0
   60.6282   32.8012   46.0832 H   0  0  0  0  0  0  0  0  0  0  0  0
   57.2832   34.9194   46.6862 H   0  0  0  0  0  0  0  0  0  0  0  0
   56.7938   35.0648   44.9299 H   0  0  0  0  0  0  0  0  0  0  0  0
   57.2165   32.5442   46.5752 H   0  0  0  0  0  0  0  0  0  0  0  0
   55.7392   33.1113   45.6866 H   0  0  0  0  0  0  0  0  0  0  0  0
  1  2  2  0
  2  3  1  0
  3  4  1  0
  4  5  2  0
  5  6  1  0
  6  7  1  0
  7  8  1  0
  8  9  1  0
  9 10  1  0
 10 11  1  0
 11 12  1  0
  6 13  2  0
 13 14  1  0
 13 15  1  0
 15 16  1  0
 16 17  1  0
 17 18  2  0
 17 19  2  0
 17 20  1  0
 20 21  2  0
 21 22  1  0
 22 23  2  0
 23 24  1  0
 24 25  2  0
 25 26  1  0
 26 27  2  0
 27 28  1  0
 28 29  2  0
 15 30  2  0
  2 31  1  0
 31 32  1  0
 32 33  1  0
 33 34  1  0
 34 35  1  0
 35 36  1  0
 36 37  1  0
 37 38  1  0
 38 39  1  0
 34 40  1  0
 40 41  1  0
 30  4  1  0
 41 31  1  0
 12  8  1  0
 29 20  1  0
 39 35  1  0
 29 24  1  0
  3 42  1  0
  3 43  1  0
  5 44  1  0
  7 45  1  0
  7 46  1  0
  9 47  1  0
  9 48  1  0
 10 49  1  0
 10 50  1  0
 11 51  1  0
 11 52  1  0
 12 53  1  0
 12 54  1  0
 16 55  1  0
 21 56  1  0
 22 57  1  0
 23 58  1  0
 25 59  1  0
 26 60  1  0
 27 61  1  0
 30 62  1  0
 32 63  1  0
 32 64  1  0
 33 65  1  0
 33 66  1  0
 35 67  1  1
 36 68  1  0
 36 69  1  0
 37 70  1  0
 37 71  1  0
 39 72  1  0
 39 73  1  0
 40 74  1  0
 40 75  1  0
 41 76  1  0
 41 77  1  0
M  CHG  1  14  -1
M  END
>  <UniqueID>  (50) 
48

>  <SMILES>  (50) 
O=C(Cc1cc(CN2CCCC2)c([O-])c(NS(=O)(=O)c2cccc3cccnc23)c1)N1CCN([C@H]2CCOC2)CC1

>  <Energy>  (50) 
105.52208696105555

>  <Genealogy>  (50) 
O=C(Cc1cc(CN2CCCC2)c([O-])c(NS(=O)(=O)c2cccc3cccnc23)c1)N1CCN(C2CCOC2)CC1 (protonated)
O=C(Cc1cc(CN2CCCC2)c([O-])c(NS(=O)(=O)c2cccc3cccnc23)c1)N1CCN([C@H]2CCOC2)CC1 (chirality)
O=C(Cc1cc(CN2CCCC2)c([O-])c(NS(=O)(=O)c2cccc3cccnc23)c1)N1CCN([C@H]2CCOC2)CC1 (3D coordinates assigned)
O=C(Cc1cc(CN2CCCC2)c([O-])c(NS(=O)(=O)c2cccc3cccnc23)c1)N1CCN([C@H]2CCOC2)CC1 (nonaromatic ring conformer: 105.52208696105555 kcal/mol)

>  <smiles>  (50) 
O=C(Cc1cc(CN2CCCC2)c(O)c(NS(=O)(=O)c2cccc3cccnc23)c1)N1CCN(C2CCOC2)CC1

>  <score_type>  (50) 
oracle

>  <origin>  (50) 
adg

>  <m_score__min__energy>  (50) 
-14.710000000000001

>  <m_primary>  (50) 
energy

$$$$
50:0
     RDKit          3D

 44 46  0  0  0  0  0  0  0  0999 V2000
   58.6500   21.8570   45.2440 C   0  0  0  0  0  0  0  0  0  0  0  0
   58.5430   23.1880   44.5020 C   0  0  0  0  0  0  0  0  0  0  0  0
   57.2460   23.9120   44.8550 C   0  0  0  0  0  0  0  0  0  0  0  0
   56.0290   23.4870   44.2520 C   0  0  0  0  0  0  0  0  0  0  0  0
   55.9970   22.4340   43.1630 C   0  0  0  0  0  0  0  0  0  0  0  0
   54.8370   24.1000   44.6630 C   0  0  0  0  0  0  0  0  0  0  0  0
   53.7300   23.7790   44.1550 O   0  0  0  0  0  0  0  0  0  0  0  0
   54.8630   25.0480   45.6220 N   0  0  0  0  0  0  0  0  0  0  0  0
   56.0170   25.4570   46.1960 C   0  0  0  0  0  0  0  0  0  0  0  0
   55.9590   26.3470   47.0880 O   0  0  0  0  0  0  0  0  0  0  0  0
   57.2230   24.9200   45.8090 N   0  0  0  0  0  0  0  0  0  0  0  0
   58.4710   25.4410   46.4210 C   0  0  0  0  0  0  0  0  0  0  0  0
   58.5540   26.9540   46.3630 C   0  0  0  0  0  0  0  0  0  0  0  0
   58.1770   27.6190   45.1830 C   0  0  0  0  0  0  0  0  0  0  0  0
   58.2650   29.0090   45.0870 C   0  0  0  0  0  0  0  0  0  0  0  0
   58.7550   29.7660   46.1620 C   0  0  0  0  0  0  0  0  0  0  0  0
   58.8390   31.2460   46.0710 C   0  0  0  0  0  0  0  0  0  0  0  0
   60.0090   31.9010   46.4820 C   0  0  0  0  0  0  0  0  0  0  0  0
   60.0970   33.2880   46.4100 C   0  0  0  0  0  0  0  0  0  0  0  0
   59.0140   34.0190   45.9260 C   0  0  0  0  0  0  0  0  0  0  0  0
   57.8790   33.3880   45.5170 N   0  0  0  0  0  0  0  0  0  0  0  0
   56.8420   34.1640   45.0380 O   0  0  0  0  0  0  0  0  0  0  0  0
   57.7700   32.0230   45.5730 C   0  0  0  0  0  0  0  0  0  0  0  0
   56.7190   31.4600   45.1610 O   0  0  0  0  0  0  0  0  0  0  0  0
   59.1550   29.1050   47.3340 C   0  0  0  0  0  0  0  0  0  0  0  0
   59.0690   27.7130   47.4330 C   0  0  0  0  0  0  0  0  0  0  0  0
   59.5010   27.1170   48.5700 F   0  0  0  0  0  0  0  0  0  0  0  0
   58.6353   22.0397   46.3286 H   0  0  0  0  0  0  0  0  0  0  0  0
   57.8006   21.2145   44.9688 H   0  0  0  0  0  0  0  0  0  0  0  0
   59.5911   21.3584   44.9688 H   0  0  0  0  0  0  0  0  0  0  0  0
   59.3964   23.8239   44.7801 H   0  0  0  0  0  0  0  0  0  0  0  0
   58.5470   22.9862   43.4207 H   0  0  0  0  0  0  0  0  0  0  0  0
   55.9666   21.4341   43.6205 H   0  0  0  0  0  0  0  0  0  0  0  0
   55.1028   22.5790   42.5389 H   0  0  0  0  0  0  0  0  0  0  0  0
   56.8983   22.5244   42.5389 H   0  0  0  0  0  0  0  0  0  0  0  0
   58.5069   25.1251   47.4741 H   0  0  0  0  0  0  0  0  0  0  0  0
   59.3196   25.0359   45.8502 H   0  0  0  0  0  0  0  0  0  0  0  0
   57.8084   27.0372   44.3253 H   0  0  0  0  0  0  0  0  0  0  0  0
   57.9481   29.5140   44.1626 H   0  0  0  0  0  0  0  0  0  0  0  0
   60.8597   31.3166   46.8624 H   0  0  0  0  0  0  0  0  0  0  0  0
   61.0139   33.8030   46.7325 H   0  0  0  0  0  0  0  0  0  0  0  0
   59.0766   35.1160   45.8739 H   0  0  0  0  0  0  0  0  0  0  0  0
   55.9320   33.7730   44.8210 H   0  0  0  0  0  0  0  0  0  0  0  0
   59.5401   29.6883   48.1834 H   0  0  0  0  0  0  0  0  0  0  0  0
  1  2  1  0
  2  3  1  0
  3  4  2  0
  4  5  1  0
  4  6  1  0
  6  7  2  0
  6  8  1  0
  8  9  1  0
  9 10  2  0
  9 11  1  0
 11 12  1  0
 12 13  1  0
 13 14  2  0
 14 15  1  0
 15 16  2  0
 16 17  1  0
 17 18  2  0
 18 19  1  0
 19 20  2  0
 20 21  1  0
 21 22  1  0
 21 23  1  0
 23 24  2  0
 16 25  1  0
 25 26  2  0
 26 27  1  0
 11  3  1  0
 26 13  1  0
 23 17  1  0
  1 28  1  0
  1 29  1  0
  1 30  1  0
  2 31  1  0
  2 32  1  0
  5 33  1  0
  5 34  1  0
  5 35  1  0
 12 36  1  0
 12 37  1  0
 14 38  1  0
 15 39  1  0
 18 40  1  0
 19 41  1  0
 20 42  1  0
 22 43  1  0
 25 44  1  0
M  CHG  1   8  -1
M  END
>  <UniqueID>  (51) 
49

>  <SMILES>  (51) 
CCc1c(C)c(=O)[n-]c(=O)n1Cc1ccc(-c2cccn(O)c2=O)cc1F

>  <Energy>  (51) 
63.8157019380805

>  <Genealogy>  (51) 
CCc1c(C)c(=O)[n-]c(=O)n1Cc1ccc(-c2cccn(O)c2=O)cc1F (protonated)
CCc1c(C)c(=O)[n-]c(=O)n1Cc1ccc(-c2cccn(O)c2=O)cc1F (3D coordinates assigned)
CCc1c(C)c(=O)[n-]c(=O)n1Cc1ccc(-c2cccn(O)c2=O)cc1F (optimized conformer: 63.8157019380805 kcal/mol)

>  <smiles>  (51) 
CCc1c(C)c(=O)[nH]c(=O)n1Cc1ccc(-c2cccn(O)c2=O)cc1F

>  <score_type>  (51) 
oracle

>  <origin>  (51) 
adg

>  <m_score__min__energy>  (51) 
-8.9100000000000001

>  <m_primary>  (51) 
energy

$$$$
51:0
     RDKit          3D

 58 61  0  0  0  0  0  0  0  0999 V2000
   59.6324   34.7147   44.4856 H   0  0  0  0  0  0  0  0  0  0  0  0
   58.9660   34.0060   44.9990 C   0  0  0  0  0  0  0  0  0  0  0  0
   58.0820   33.2170   44.3340 N   0  0  0  0  0  0  0  0  0  0  0  0
   57.3640   32.4490   45.1870 C   0  0  0  0  0  0  0  0  0  0  0  0
   56.4640   31.5930   44.8120 N   0  0  0  0  0  0  0  0  0  0  0  0
   56.6420   30.1740   44.8660 C   0  0  0  0  0  0  0  0  0  0  0  0
   56.1100   29.4540   43.9810 O   0  0  0  0  0  0  0  0  0  0  0  0
   57.4550   29.5590   45.8710 N   0  0  0  0  0  0  0  0  0  0  0  0
   58.9110   29.5110   45.8230 C   0  0  0  0  0  0  0  0  0  0  0  0
   59.2961   30.4536   45.4067 H   0  0  0  0  0  0  0  0  0  0  0  0
   59.2309   28.6731   45.1861 H   0  0  0  0  0  0  0  0  0  0  0  0
   59.4480   29.3200   47.2120 C   0  0  0  0  0  0  0  0  0  0  0  0
   59.8390   28.0460   47.6510 C   0  0  0  0  0  0  0  0  0  0  0  0
   59.7324   27.1794   46.9820 H   0  0  0  0  0  0  0  0  0  0  0  0
   60.3630   27.8740   48.9340 C   0  0  0  0  0  0  0  0  0  0  0  0
   60.6569   26.8709   49.2765 H   0  0  0  0  0  0  0  0  0  0  0  0
   60.5150   28.9730   49.7840 C   0  0  0  0  0  0  0  0  0  0  0  0
   60.9222   28.8310   50.7960 H   0  0  0  0  0  0  0  0  0  0  0  0
   60.1500   30.2570   49.3510 C   0  0  0  0  0  0  0  0  0  0  0  0
   60.3100   31.4370   50.2740 C   0  0  0  0  0  0  0  0  0  0  0  0
   61.2315   31.9772   50.0112 H   0  0  0  0  0  0  0  0  0  0  0  0
   60.3621   31.0686   51.3092 H   0  0  0  0  0  0  0  0  0  0  0  0
   59.1570   32.3600   50.1580 N   0  0  0  0  0  0  0  0  0  0  0  0
   59.3710   33.6370   50.8710 C   0  0  0  0  0  0  0  0  0  0  0  0
   60.3632   34.0291   50.6029 H   0  0  0  0  0  0  0  0  0  0  0  0
   58.5693   34.3272   50.5697 H   0  0  0  0  0  0  0  0  0  0  0  0
   59.3000   33.4750   52.4060 C   0  0  0  0  0  0  0  0  0  0  0  0
   60.3057   33.2276   52.7767 H   0  0  0  0  0  0  0  0  0  0  0  0
   58.9265   34.4256   52.8144 H   0  0  0  0  0  0  0  0  0  0  0  0
   58.3690   32.4200   52.8440 N   0  0  0  0  0  0  0  0  0  0  0  0
   58.9000   31.5250   52.9680 H   0  0  0  0  0  0  0  0  0  0  0  0
   57.2910   32.2050   51.8720 C   0  0  2  0  0  0  0  0  0  0  0  0
   56.7780   33.1607   51.6890 H   0  0  0  0  0  0  0  0  0  0  0  0
   56.2680   31.2140   52.4340 C   0  0  0  0  0  0  0  0  0  0  0  0
   56.2964   31.2415   53.5333 H   0  0  0  0  0  0  0  0  0  0  0  0
   55.2614   31.4894   52.0862 H   0  0  0  0  0  0  0  0  0  0  0  0
   56.5112   30.1992   52.0862 H   0  0  0  0  0  0  0  0  0  0  0  0
   57.8670   31.7160   50.5180 C   0  0  0  0  0  0  0  0  0  0  0  0
   58.0249   30.6291   50.5785 H   0  0  0  0  0  0  0  0  0  0  0  0
   57.1398   31.9879   49.7387 H   0  0  0  0  0  0  0  0  0  0  0  0
   59.6160   30.4250   48.0610 C   0  0  0  0  0  0  0  0  0  0  0  0
   59.3281   31.4287   47.7151 H   0  0  0  0  0  0  0  0  0  0  0  0
   57.7980   32.6990   46.7910 S   0  0  0  0  0  0  0  0  0  0  0  0
   58.9610   33.8460   46.3810 C   0  0  0  0  0  0  0  0  0  0  0  0
   59.7740   34.6380   47.3550 C   0  0  0  0  0  0  0  0  0  0  0  0
   60.0110   35.6195   46.9185 H   0  0  0  0  0  0  0  0  0  0  0  0
   59.1974   34.7715   48.2822 H   0  0  0  0  0  0  0  0  0  0  0  0
   61.0520   33.9110   47.6690 C   0  0  0  0  0  0  0  0  0  0  0  0
   61.4990   32.8710   46.8350 C   0  0  0  0  0  0  0  0  0  0  0  0
   60.9279   32.6073   45.9326 H   0  0  0  0  0  0  0  0  0  0  0  0
   62.6680   32.1710   47.1500 C   0  0  0  0  0  0  0  0  0  0  0  0
   63.0188   31.3639   46.4901 H   0  0  0  0  0  0  0  0  0  0  0  0
   63.3910   32.4940   48.3000 C   0  0  0  0  0  0  0  0  0  0  0  0
   64.3111   31.9427   48.5438 H   0  0  0  0  0  0  0  0  0  0  0  0
   62.9460   33.5180   49.1420 C   0  0  0  0  0  0  0  0  0  0  0  0
   63.5147   33.7700   50.0492 H   0  0  0  0  0  0  0  0  0  0  0  0
   61.7780   34.2220   48.8310 C   0  0  0  0  0  0  0  0  0  0  0  0
   61.4265   35.0223   49.4988 H   0  0  0  0  0  0  0  0  0  0  0  0
  1  2  1  0
  2  3  1  0
  3  4  1  0
  4  5  2  0
  5  6  1  0
  6  7  2  0
  6  8  1  0
  8  9  1  0
  9 10  1  0
  9 11  1  0
  9 12  1  0
 12 13  2  0
 13 14  1  0
 13 15  1  0
 15 16  1  0
 15 17  2  0
 17 18  1  0
 17 19  1  0
 19 20  1  0
 20 21  1  0
 20 22  1  0
 20 23  1  0
 23 24  1  0
 24 25  1  0
 24 26  1  0
 24 27  1  0
 27 28  1  0
 27 29  1  0
 27 30  1  0
 30 31  1  0
 30 32  1  0
 32 33  1  6
 32 34  1  0
 34 35  1  0
 34 36  1  0
 34 37  1  0
 32 38  1  0
 38 39  1  0
 38 40  1  0
 19 41  2  0
 41 42  1  0
  4 43  1  0
 43 44  1  0
 44 45  1  0
 45 46  1  0
 45 47  1  0
 45 48  1  0
 48 49  2  0
 49 50  1  0
 49 51  1  0
 51 52  1  0
 51 53  2  0
 53 54  1  0
 53 55  1  0
 55 56  1  0
 55 57  2  0
 57 58  1  0
 44  2  2  0
 57 48  1  0
 41 12  1  0
 38 23  1  0
M  CHG  2   3  -1   8  -1
M  END
>  <UniqueID>  (52) 
50

>  <SMILES>  (52) 
C[C@@H]1CN(Cc2cccc(C[N-]C(=O)/N=c3\[n-]cc(Cc4ccccc4)s3)c2)CCN1

>  <Energy>  (52) 
102.97257971612468

>  <Genealogy>  (52) 
CC1CN(Cc2cccc(C[N-]C(=O)N=c3[n-]cc(Cc4ccccc4)s3)c2)CCN1 (protonated)
C[C@@H]1CN(Cc2cccc(C[N-]C(=O)N=c3[n-]cc(Cc4ccccc4)s3)c2)CCN1 (chirality)
C[C@@H]1CN(Cc2cccc(C[N-]C(=O)/N=c3\[n-]cc(Cc4ccccc4)s3)c2)CCN1 (cis-trans isomerization)
C[C@@H]1CN(Cc2cccc(C[N-]C(=O)/N=c3\[n-]cc(Cc4ccccc4)s3)c2)CCN1 (3D coordinates assigned)
C[C@@H]1CN(Cc2cccc(C[N-]C(=O)/N=c3\[n-]cc(Cc4ccccc4)s3)c2)CCN1 (nonaromatic ring conformer: 102.97257971612468 kcal/mol)

>  <smiles>  (52) 
CC1CN(Cc2cccc(CNC(=O)N=c3[nH]cc(Cc4ccccc4)s3)c2)CCN1

>  <score_type>  (52) 
oracle

>  <origin>  (52) 
adg

>  <m_score__min__energy>  (52) 
-12.34

>  <m_primary>  (52) 
energy

$$$$
52:0
     RDKit          3D

 59 62  0  0  0  0  0  0  0  0999 V2000
   64.6430   33.4200   50.4350 C   0  0  0  0  0  0  0  0  0  0  0  0
   63.5020   33.4720   49.4610 C   0  0  0  0  0  0  0  0  0  0  0  0
   62.1810   33.4390   49.9150 C   0  0  0  0  0  0  0  0  0  0  0  0
   61.1200   33.5360   49.0010 C   0  0  0  0  0  0  0  0  0  0  0  0
   59.7070   33.5080   49.5310 C   0  0  0  0  0  0  0  0  0  0  0  0
   61.3850   33.6440   47.6530 N   0  0  0  0  0  0  0  0  0  0  0  0
   60.3120   33.7120   46.6960 C   0  0  0  0  0  0  0  0  0  0  0  0
   59.9460   34.9350   46.1220 C   0  0  0  0  0  0  0  0  0  0  0  0
   58.8880   34.9730   45.2170 C   0  0  0  0  0  0  0  0  0  0  0  0
   58.1990   33.8010   44.8960 C   0  0  0  0  0  0  0  0  0  0  0  0
   58.5780   32.5820   45.4940 C   0  0  0  0  0  0  0  0  0  0  0  0
   57.8830   31.3400   45.2060 N   0  0  0  0  0  0  0  0  0  0  0  0
   56.7630   31.3160   44.2480 C   0  0  0  0  0  0  0  0  0  0  0  0
   56.9200   30.1560   43.2530 C   0  0  0  0  0  0  0  0  0  0  0  0
   57.3780   28.8320   43.9040 C   0  0  0  0  0  0  0  0  0  0  0  0
   57.3960   28.8990   45.4410 C   0  0  1  0  0  0  0  0  0  0  0  0
   57.8930   27.6050   46.0390 C   0  0  0  0  0  0  0  0  0  0  0  0
   57.8460   27.4500   47.2900 O   0  0  0  0  0  0  0  0  0  0  0  0
   58.4130   26.5560   45.2060 N   0  0  0  0  0  0  0  0  0  0  0  0
   58.7610   25.2390   45.7360 C   0  0  0  0  0  0  0  0  0  0  0  0
   58.0970   24.1610   44.9230 C   0  0  0  0  0  0  0  0  0  0  0  0
   57.0200   24.4650   44.0740 C   0  0  0  0  0  0  0  0  0  0  0  0
   56.4250   23.4600   43.3040 C   0  0  0  0  0  0  0  0  0  0  0  0
   56.9020   22.1480   43.3720 C   0  0  0  0  0  0  0  0  0  0  0  0
   56.3250   21.1760   42.6230 F   0  0  0  0  0  0  0  0  0  0  0  0
   57.9790   21.8390   44.2100 C   0  0  0  0  0  0  0  0  0  0  0  0
   58.5750   22.8410   44.9820 C   0  0  0  0  0  0  0  0  0  0  0  0
   58.2390   30.0970   45.9170 C   0  0  0  0  0  0  0  0  0  0  0  0
   59.6200   32.5850   46.3740 N   0  0  0  0  0  0  0  0  0  0  0  0
   62.6790   33.7080   47.2010 C   0  0  0  0  0  0  0  0  0  0  0  0
   62.9240   33.8310   45.9690 O   0  0  0  0  0  0  0  0  0  0  0  0
   63.7480   33.6320   48.0960 C   0  0  0  0  0  0  0  0  0  0  0  0
   64.2495   33.4379   51.4620 H   0  0  0  0  0  0  0  0  0  0  0  0
   65.2169   32.4948   50.2784 H   0  0  0  0  0  0  0  0  0  0  0  0
   65.2987   34.2892   50.2784 H   0  0  0  0  0  0  0  0  0  0  0  0
   61.9721   33.3369   50.9901 H   0  0  0  0  0  0  0  0  0  0  0  0
   59.7278   33.5084   50.6308 H   0  0  0  0  0  0  0  0  0  0  0  0
   59.1639   34.3956   49.1742 H   0  0  0  0  0  0  0  0  0  0  0  0
   59.1995   32.5996   49.1742 H   0  0  0  0  0  0  0  0  0  0  0  0
   60.4880   35.8560   46.3828 H   0  0  0  0  0  0  0  0  0  0  0  0
   58.5946   35.9270   44.7545 H   0  0  0  0  0  0  0  0  0  0  0  0
   57.3645   33.8292   44.1799 H   0  0  0  0  0  0  0  0  0  0  0  0
   55.8194   31.1926   44.7996 H   0  0  0  0  0  0  0  0  0  0  0  0
   56.7584   32.2626   43.6877 H   0  0  0  0  0  0  0  0  0  0  0  0
   55.9494   29.9845   42.7647 H   0  0  0  0  0  0  0  0  0  0  0  0
   57.7045   30.4500   42.5402 H   0  0  0  0  0  0  0  0  0  0  0  0
   56.6895   28.0317   43.5950 H   0  0  0  0  0  0  0  0  0  0  0  0
   58.4072   28.6364   43.5687 H   0  0  0  0  0  0  0  0  0  0  0  0
   56.3638   29.0457   45.7917 H   0  0  0  0  0  0  0  0  0  0  0  0
   58.5250   26.7160   44.1800 H   0  0  0  0  0  0  0  0  0  0  0  0
   59.8522   25.1066   45.6932 H   0  0  0  0  0  0  0  0  0  0  0  0
   58.4152   25.1680   46.7778 H   0  0  0  0  0  0  0  0  0  0  0  0
   56.6432   25.4967   44.0144 H   0  0  0  0  0  0  0  0  0  0  0  0
   55.5797   23.7029   42.6434 H   0  0  0  0  0  0  0  0  0  0  0  0
   58.3571   20.8073   44.2615 H   0  0  0  0  0  0  0  0  0  0  0  0
   59.4223   22.5947   45.6388 H   0  0  0  0  0  0  0  0  0  0  0  0
   58.0716   30.2435   46.9943 H   0  0  0  0  0  0  0  0  0  0  0  0
   59.2954   29.8749   45.7054 H   0  0  0  0  0  0  0  0  0  0  0  0
   64.7819   33.6981   47.7264 H   0  0  0  0  0  0  0  0  0  0  0  0
  1  2  1  0
  2  3  1  0
  3  4  2  0
  4  5  1  0
  4  6  1  0
  6  7  1  0
  7  8  2  0
  8  9  1  0
  9 10  2  0
 10 11  1  0
 11 12  1  0
 12 13  1  0
 13 14  1  0
 14 15  1  0
 15 16  1  0
 16 17  1  0
 17 18  2  0
 17 19  1  0
 19 20  1  0
 20 21  1  0
 21 22  2  0
 22 23  1  0
 23 24  2  0
 24 25  1  0
 24 26  1  0
 26 27  2  0
 16 28  1  0
 11 29  2  0
  6 30  1  0
 30 31  2  0
 30 32  1  0
 32  2  2  0
 29  7  1  0
 28 12  1  0
 27 21  1  0
  1 33  1  0
  1 34  1  0
  1 35  1  0
  3 36  1  0
  5 37  1  0
  5 38  1  0
  5 39  1  0
  8 40  1  0
  9 41  1  0
 10 42  1  0
 13 43  1  0
 13 44  1  0
 14 45  1  0
 14 46  1  0
 15 47  1  0
 15 48  1  0
 16 49  1  1
 19 50  1  0
 20 51  1  0
 20 52  1  0
 22 53  1  0
 23 54  1  0
 26 55  1  0
 27 56  1  0
 28 57  1  0
 28 58  1  0
 32 59  1  0
M  END
>  <UniqueID>  (53) 
51

>  <SMILES>  (53) 
Cc1cc(C)n(-c2cccc(N3CCC[C@@H](C(=O)NCc4ccc(F)cc4)C3)n2)c(=O)c1

>  <Energy>  (53) 
73.31855339839132

>  <Genealogy>  (53) 
Cc1cc(C)n(-c2cccc(N3CCC[C@@H](C(=O)NCc4ccc(F)cc4)C3)n2)c(=O)c1 (chirality)
Cc1cc(C)n(-c2cccc(N3CCC[C@@H](C(=O)NCc4ccc(F)cc4)C3)n2)c(=O)c1 (3D coordinates assigned)
Cc1cc(C)n(-c2cccc(N3CCC[C@@H](C(=O)NCc4ccc(F)cc4)C3)n2)c(=O)c1 (nonaromatic ring conformer: 73.31855339839132 kcal/mol)

>  <smiles>  (53) 
Cc1cc(C)n(-c2cccc(N3CCCC(C(=O)NCc4ccc(F)cc4)C3)n2)c(=O)c1

>  <score_type>  (53) 
oracle

>  <origin>  (53) 
adg

>  <m_score__min__energy>  (53) 
-9.8499999999999996

>  <m_primary>  (53) 
energy

$$$$
53:0
     RDKit          3D

 57 60  0  0  0  0  0  0  0  0999 V2000
   60.5710   29.8920   45.9340 C   0  0  0  0  0  0  0  0  0  0  0  0
   59.6730   30.8900   45.9920 C   0  0  0  0  0  0  0  0  0  0  0  0
   58.3170   30.8390   45.6260 C   0  0  0  0  0  0  0  0  0  0  0  0
   57.5810   29.8660   45.0510 C   0  0  0  0  0  0  0  0  0  0  0  0
   57.1060   28.6350   45.6950 C   0  0  0  0  0  0  0  0  0  0  0  0
   56.0410   27.9380   45.2610 N   0  0  0  0  0  0  0  0  0  0  0  0
   56.0380   26.8440   46.0520 C   0  0  0  0  0  0  0  0  0  0  0  0
   55.1650   25.9440   45.9600 O   0  0  0  0  0  0  0  0  0  0  0  0
   57.0500   26.7860   46.9440 N   0  0  0  0  0  0  0  0  0  0  0  0
   57.7280   27.9180   46.6970 C   0  0  0  0  0  0  0  0  0  0  0  0
   58.8980   28.2690   47.3640 O   0  0  0  0  0  0  0  0  0  0  0  0
   57.7750   32.0590   45.9940 C   0  0  0  0  0  0  0  0  0  0  0  0
   58.7930   32.8070   46.5420 C   0  0  0  0  0  0  0  0  0  0  0  0
   58.6080   34.1720   47.1370 C   0  0  0  0  0  0  0  0  0  0  0  0
   59.9570   32.1180   46.5070 N   0  0  0  0  0  0  0  0  0  0  0  0
   61.2070   32.5550   47.0810 C   0  0  0  0  0  0  0  0  0  0  0  0
   62.0030   33.4680   46.3680 C   0  0  0  0  0  0  0  0  0  0  0  0
   63.2470   33.8630   46.8600 C   0  0  0  0  0  0  0  0  0  0  0  0
   63.7220   33.3390   48.0620 C   0  0  0  0  0  0  0  0  0  0  0  0
   62.9530   32.4180   48.7760 C   0  0  0  0  0  0  0  0  0  0  0  0
   61.6890   32.0250   48.3050 C   0  0  0  0  0  0  0  0  0  0  0  0
   60.9220   31.0340   49.0910 C   0  0  0  0  0  0  0  0  0  0  0  0
   60.9410   29.8260   48.7290 O   0  0  0  0  0  0  0  0  0  0  0  0
   60.1740   31.4130   50.2600 N   0  0  0  0  0  0  0  0  0  0  0  0
   59.1860   32.4920   50.1530 C   0  0  0  0  0  0  0  0  0  0  0  0
   58.7230   32.9910   51.5290 C   0  0  0  0  0  0  0  0  0  0  0  0
   58.4300   31.9150   52.5110 N   0  0  0  0  0  0  0  0  0  0  0  0
   57.0680   31.9860   53.0590 C   0  0  0  0  0  0  0  0  0  0  0  0
   58.9070   30.5440   52.1920 C   0  0  1  0  0  0  0  0  0  0  0  0
   57.8870   29.7010   51.3850 C   0  0  0  0  0  0  0  0  0  0  0  0
   58.2080   29.7270   50.0210 O   0  0  0  0  0  0  0  0  0  0  0  0
   60.2720   30.6190   51.4890 C   0  0  0  0  0  0  0  0  0  0  0  0
   61.6089   30.0668   46.2537 H   0  0  0  0  0  0  0  0  0  0  0  0
   60.2682   28.9003   45.5669 H   0  0  0  0  0  0  0  0  0  0  0  0
   57.3096   30.0089   43.9946 H   0  0  0  0  0  0  0  0  0  0  0  0
   58.8970   28.9860   48.0770 H   0  0  0  0  0  0  0  0  0  0  0  0
   56.7276   32.3719   45.8715 H   0  0  0  0  0  0  0  0  0  0  0  0
   58.6180   34.0980   48.2345 H   0  0  0  0  0  0  0  0  0  0  0  0
   59.4252   34.8299   46.8064 H   0  0  0  0  0  0  0  0  0  0  0  0
   57.6452   34.5887   46.8064 H   0  0  0  0  0  0  0  0  0  0  0  0
   61.6413   33.8752   45.4123 H   0  0  0  0  0  0  0  0  0  0  0  0
   63.8542   34.5888   46.2992 H   0  0  0  0  0  0  0  0  0  0  0  0
   64.7035   33.6516   48.4479 H   0  0  0  0  0  0  0  0  0  0  0  0
   63.3401   31.9964   49.7154 H   0  0  0  0  0  0  0  0  0  0  0  0
   59.6367   33.3322   49.6044 H   0  0  0  0  0  0  0  0  0  0  0  0
   58.3072   32.0948   49.6239 H   0  0  0  0  0  0  0  0  0  0  0  0
   59.5150   33.6301   51.9465 H   0  0  0  0  0  0  0  0  0  0  0  0
   57.7773   33.5280   51.3637 H   0  0  0  0  0  0  0  0  0  0  0  0
   57.1144   31.9836   54.1580 H   0  0  0  0  0  0  0  0  0  0  0  0
   56.5819   32.9107   52.7145 H   0  0  0  0  0  0  0  0  0  0  0  0
   56.4884   31.1168   52.7145 H   0  0  0  0  0  0  0  0  0  0  0  0
   59.0209   30.0095   53.1467 H   0  0  0  0  0  0  0  0  0  0  0  0
   57.9104   28.6614   51.7439 H   0  0  0  0  0  0  0  0  0  0  0  0
   56.8815   30.1245   51.5248 H   0  0  0  0  0  0  0  0  0  0  0  0
   59.1460   29.4080   49.9490 H   0  0  0  0  0  0  0  0  0  0  0  0
   61.0022   31.0874   52.1653 H   0  0  0  0  0  0  0  0  0  0  0  0
   60.5948   29.6000   51.2293 H   0  0  0  0  0  0  0  0  0  0  0  0
  1  2  2  0
  2  3  1  0
  3  4  2  3
  4  5  1  0
  5  6  1  0
  6  7  1  0
  7  8  2  0
  7  9  1  0
  9 10  1  0
 10 11  1  0
  3 12  1  0
 12 13  2  0
 13 14  1  0
 13 15  1  0
 15 16  1  0
 16 17  2  0
 17 18  1  0
 18 19  2  0
 19 20  1  0
 20 21  2  0
 21 22  1  0
 22 23  2  0
 22 24  1  0
 24 25  1  0
 25 26  1  0
 26 27  1  0
 27 28  1  0
 27 29  1  0
 29 30  1  0
 30 31  1  0
 29 32  1  0
 15  2  1  0
 21 16  1  0
 32 24  1  0
 10  5  2  0
  1 33  1  0
  1 34  1  0
  4 35  1  0
 11 36  1  0
 12 37  1  0
 14 38  1  0
 14 39  1  0
 14 40  1  0
 17 41  1  0
 18 42  1  0
 19 43  1  0
 20 44  1  0
 25 45  1  0
 25 46  1  0
 26 47  1  0
 26 48  1  0
 28 49  1  0
 28 50  1  0
 28 51  1  0
 29 52  1  1
 30 53  1  0
 30 54  1  0
 31 55  1  0
 32 56  1  0
 32 57  1  0
M  CHG  2   6  -1   9  -1
M  END
>  <UniqueID>  (54) 
52

>  <SMILES>  (54) 
C=c1c(=Cc2[n-]c(=O)[n-]c2O)cc(C)n1-c1ccccc1C(=O)N1CCN(C)[C@@H](CO)C1

>  <Energy>  (54) 
149.80433886030227

>  <Genealogy>  (54) 
C=c1c(=Cc2[n-]c(=O)[n-]c2O)cc(C)n1-c1ccccc1C(=O)N1CCN(C)C(CO)C1 (protonated)
C=c1c(=Cc2[n-]c(=O)[n-]c2O)cc(C)n1-c1ccccc1C(=O)N1CCN(C)[C@@H](CO)C1 (chirality)
C=c1c(=Cc2[n-]c(=O)[n-]c2O)cc(C)n1-c1ccccc1C(=O)N1CCN(C)[C@@H](CO)C1 (3D coordinates assigned)
C=c1c(=Cc2[n-]c(=O)[n-]c2O)cc(C)n1-c1ccccc1C(=O)N1CCN(C)[C@@H](CO)C1 (nonaromatic ring conformer: 149.80433886030227 kcal/mol)

>  <smiles>  (54) 
C=c1c(=Cc2[nH]c(=O)[nH]c2O)cc(C)n1-c1ccccc1C(=O)N1CCN(C)C(CO)C1

>  <score_type>  (54) 
oracle

>  <origin>  (54) 
adg

>  <m_score__min__energy>  (54) 
-14.220000000000001

>  <m_primary>  (54) 
energy

$$$$
54:0
     RDKit          3D

 40 43  0  0  0  0  0  0  0  0999 V2000
   58.5550   28.5560   47.7670 C   0  0  0  0  0  0  0  0  0  0  0  0
   58.2600   27.5330   46.7180 C   0  0  0  0  0  0  0  0  0  0  0  0
   57.5790   26.3950   47.0260 N   0  0  0  0  0  0  0  0  0  0  0  0
   57.4310   25.5830   45.9600 C   0  0  0  0  0  0  0  0  0  0  0  0
   56.7320   24.3720   46.0320 O   0  0  0  0  0  0  0  0  0  0  0  0
   56.7460   23.3750   45.0480 C   0  0  0  0  0  0  0  0  0  0  0  0
   57.3400   22.1420   45.3490 C   0  0  0  0  0  0  0  0  0  0  0  0
   57.3840   21.1250   44.3900 C   0  0  0  0  0  0  0  0  0  0  0  0
   56.8460   21.3390   43.1180 C   0  0  0  0  0  0  0  0  0  0  0  0
   56.2700   22.5730   42.8020 C   0  0  0  0  0  0  0  0  0  0  0  0
   56.2250   23.5910   43.7590 C   0  0  0  0  0  0  0  0  0  0  0  0
   58.1240   26.2500   44.5770 S   0  0  0  0  0  0  0  0  0  0  0  0
   58.6330   27.6470   45.3710 C   0  0  0  0  0  0  0  0  0  0  0  0
   59.4400   28.7370   44.7140 C   0  0  0  0  0  0  0  0  0  0  0  0
   59.0340   30.0820   45.1720 N   0  0  0  0  0  0  0  0  0  0  0  0
   57.8280   30.6140   44.7730 C   0  0  0  0  0  0  0  0  0  0  0  0
   56.6410   29.7090   43.5660 Br  0  0  0  0  0  0  0  0  0  0  0  0
   57.4390   31.8390   45.2070 N   0  0  0  0  0  0  0  0  0  0  0  0
   58.2150   32.5830   46.0290 C   0  0  0  0  0  0  0  0  0  0  0  0
   57.7740   33.8400   46.4620 C   0  0  0  0  0  0  0  0  0  0  0  0
   58.5800   34.6120   47.3030 C   0  0  0  0  0  0  0  0  0  0  0  0
   59.8270   34.1320   47.7120 C   0  0  0  0  0  0  0  0  0  0  0  0
   60.2740   32.8780   47.2830 C   0  0  0  0  0  0  0  0  0  0  0  0
   59.4670   32.0930   46.4360 C   0  0  0  0  0  0  0  0  0  0  0  0
   59.8670   30.8260   45.9780 C   0  0  0  0  0  0  0  0  0  0  0  0
   60.9980   30.3760   46.3170 O   0  0  0  0  0  0  0  0  0  0  0  0
   58.4257   28.1076   48.7631 H   0  0  0  0  0  0  0  0  0  0  0  0
   59.5912   28.9078   47.6550 H   0  0  0  0  0  0  0  0  0  0  0  0
   57.8652   29.4055   47.6550 H   0  0  0  0  0  0  0  0  0  0  0  0
   57.7742   21.9730   46.3454 H   0  0  0  0  0  0  0  0  0  0  0  0
   57.8423   20.1560   44.6370 H   0  0  0  0  0  0  0  0  0  0  0  0
   56.8758   20.5369   42.3659 H   0  0  0  0  0  0  0  0  0  0  0  0
   55.8516   22.7431   41.7990 H   0  0  0  0  0  0  0  0  0  0  0  0
   55.7807   24.5643   43.5034 H   0  0  0  0  0  0  0  0  0  0  0  0
   60.5026   28.5860   44.9550 H   0  0  0  0  0  0  0  0  0  0  0  0
   59.2650   28.6813   43.6294 H   0  0  0  0  0  0  0  0  0  0  0  0
   56.7930   34.2195   46.1400 H   0  0  0  0  0  0  0  0  0  0  0  0
   58.2324   35.5986   47.6434 H   0  0  0  0  0  0  0  0  0  0  0  0
   60.4592   34.7424   48.3736 H   0  0  0  0  0  0  0  0  0  0  0  0
   61.2565   32.5044   47.6072 H   0  0  0  0  0  0  0  0  0  0  0  0
  1  2  1  0
  2  3  1  0
  3  4  2  0
  4  5  1  0
  5  6  1  0
  6  7  2  0
  7  8  1  0
  8  9  2  0
  9 10  1  0
 10 11  2  0
  4 12  1  0
 12 13  1  0
 13 14  1  0
 14 15  1  0
 15 16  1  0
 16 17  1  0
 16 18  2  0
 18 19  1  0
 19 20  2  0
 20 21  1  0
 21 22  2  0
 22 23  1  0
 23 24  2  0
 24 25  1  0
 25 26  2  0
 13  2  2  0
 25 15  1  0
 11  6  1  0
 24 19  1  0
  1 27  1  0
  1 28  1  0
  1 29  1  0
  7 30  1  0
  8 31  1  0
  9 32  1  0
 10 33  1  0
 11 34  1  0
 14 35  1  0
 14 36  1  0
 20 37  1  0
 21 38  1  0
 22 39  1  0
 23 40  1  0
M  END
>  <UniqueID>  (55) 
53

>  <SMILES>  (55) 
Cc1nc(Oc2ccccc2)sc1Cn1c(Br)nc2ccccc2c1=O

>  <Energy>  (55) 
87.85806586033804

>  <Genealogy>  (55) 
Cc1nc(Oc2ccccc2)sc1Cn1c(Br)nc2ccccc2c1=O (3D coordinates assigned)
Cc1nc(Oc2ccccc2)sc1Cn1c(Br)nc2ccccc2c1=O (optimized conformer: 87.85806586033804 kcal/mol)

>  <smiles>  (55) 
Cc1nc(Oc2ccccc2)sc1Cn1c(Br)nc2ccccc2c1=O

>  <score_type>  (55) 
oracle

>  <origin>  (55) 
adg

>  <m_score__min__energy>  (55) 
-8.0999999999999996

>  <m_primary>  (55) 
energy

$$$$
55:0
     RDKit          3D

 60 63  0  0  1  0  0  0  0  0999 V2000
   63.0390   34.2320   47.0670 O   0  0  0  0  0  0  0  0  0  0  0  0
   62.6140   33.5360   48.0220 C   0  0  0  0  0  0  0  0  0  0  0  0
   62.8670   32.1370   47.9580 N   0  0  0  0  0  0  0  0  0  0  0  0
   61.9490   31.2480   47.9790 C   0  0  0  0  0  0  0  0  0  0  0  0
   61.6710   30.5030   46.8930 N   0  0  0  0  0  0  0  0  0  0  0  0
   60.7010   29.5590   46.9040 C   0  0  0  0  0  0  0  0  0  0  0  0
   60.3970   28.7350   45.6810 C   0  0  0  0  0  0  0  0  0  0  0  0
   58.9800   29.0190   45.3370 C   0  0  0  0  0  0  0  0  0  0  0  0
   58.4860   30.2840   45.1210 C   0  0  0  0  0  0  0  0  0  0  0  0
   57.1480   30.4290   44.8060 C   0  0  0  0  0  0  0  0  0  0  0  0
   56.6250   31.5710   44.5930 O   0  0  0  0  0  0  0  0  0  0  0  0
   56.3710   29.2920   44.7240 C   0  0  0  0  0  0  0  0  0  0  0  0
   55.1600   29.3640   44.4430 O   0  0  0  0  0  0  0  0  0  0  0  0
   56.8900   28.0750   44.9420 N   0  0  0  0  0  0  0  0  0  0  0  0
   58.1610   27.9400   45.2400 N   0  0  0  0  0  0  0  0  0  0  0  0
   59.9820   29.3570   48.0540 C   0  0  0  0  0  0  0  0  0  0  0  0
   60.2120   30.0910   49.2230 C   0  0  0  0  0  0  0  0  0  0  0  0
   59.4210   29.8490   50.4580 C   0  0  0  0  0  0  0  0  0  0  0  0
   59.2690   30.9600   51.2990 N   0  0  0  0  0  0  0  0  0  0  0  0
   58.2830   31.9220   51.0330 C   0  0  0  0  0  0  0  0  0  0  0  0
   58.6330   33.3240   51.4740 C   0  0  0  0  0  0  0  0  0  0  0  0
   60.0220   33.3840   51.9450 N   0  0  0  0  0  0  0  0  0  0  0  0
   60.0770   32.4470   53.0700 C   0  0  0  0  0  0  0  0  0  0  0  0
   59.9980   31.0520   52.4920 C   0  0  0  0  0  0  0  0  0  0  0  0
   61.2130   31.0350   49.1420 C   0  0  0  0  0  0  0  0  0  0  0  0
   61.5160   31.8070   50.2310 O   0  0  0  0  0  0  0  0  0  0  0  0
   61.9420   34.1460   49.0590 O   0  0  0  0  0  0  0  0  0  0  0  0
   60.6280   34.5890   49.0870 C   0  0  0  0  0  0  0  0  0  0  0  0
   59.8620   34.3600   47.8650 C   0  0  0  0  0  0  0  0  0  0  0  0
   60.0240   35.0050   46.6720 C   0  0  0  0  0  0  0  0  0  0  0  0
   59.2690   34.7210   45.5730 C   0  0  0  0  0  0  0  0  0  0  0  0
   58.2880   33.7630   45.5840 C   0  0  0  0  0  0  0  0  0  0  0  0
   58.0980   33.0840   46.7870 C   0  0  0  0  0  0  0  0  0  0  0  0
   58.8670   33.3760   47.9020 C   0  0  0  0  0  0  0  0  0  0  0  0
   62.2010   30.6310   45.9970 H   0  0  0  0  0  0  0  0  0  0  0  0
   61.0574   29.0256   44.8507 H   0  0  0  0  0  0  0  0  0  0  0  0
   60.5591   27.6631   45.8672 H   0  0  0  0  0  0  0  0  0  0  0  0
   59.1427   31.1632   45.1974 H   0  0  0  0  0  0  0  0  0  0  0  0
   56.2650   27.2210   44.8710 H   0  0  0  0  0  0  0  0  0  0  0  0
   58.5110   26.9700   45.3990 H   0  0  0  0  0  0  0  0  0  0  0  0
   59.1946   28.5889   48.0578 H   0  0  0  0  0  0  0  0  0  0  0  0
   58.4184   29.5098   50.1585 H   0  0  0  0  0  0  0  0  0  0  0  0
   59.9835   29.1028   51.0383 H   0  0  0  0  0  0  0  0  0  0  0  0
   58.1047   31.9388   49.9477 H   0  0  0  0  0  0  0  0  0  0  0  0
   57.3963   31.6264   51.6130 H   0  0  0  0  0  0  0  0  0  0  0  0
   58.5089   34.0120   50.6248 H   0  0  0  0  0  0  0  0  0  0  0  0
   57.9653   33.6143   52.2985 H   0  0  0  0  0  0  0  0  0  0  0  0
   60.6760   33.1640   51.1880 H   0  0  0  0  0  0  0  0  0  0  0  0
   61.0205   32.5741   53.6210 H   0  0  0  0  0  0  0  0  0  0  0  0
   59.2484   32.6277   53.7705 H   0  0  0  0  0  0  0  0  0  0  0  0
   61.0224   30.7019   52.2970 H   0  0  0  0  0  0  0  0  0  0  0  0
   59.4675   30.4351   53.2323 H   0  0  0  0  0  0  0  0  0  0  0  0
   62.1720   32.5950   50.1170 H   0  0  0  0  0  0  0  0  0  0  0  0
   60.1137   34.0730   49.9112 H   0  0  0  0  0  0  0  0  0  0  0  0
   60.6796   35.6807   49.2114 H   0  0  0  0  0  0  0  0  0  0  0  0
   60.7952   35.7856   46.5948 H   0  0  0  0  0  0  0  0  0  0  0  0
   59.4534   35.2805   44.6440 H   0  0  0  0  0  0  0  0  0  0  0  0
   57.6835   33.5421   44.6919 H   0  0  0  0  0  0  0  0  0  0  0  0
   57.3251   32.3039   46.8519 H   0  0  0  0  0  0  0  0  0  0  0  0
   58.6919   32.8227   48.8364 H   0  0  0  0  0  0  0  0  0  0  0  0
  1  2  2  0
  2  3  1  0
  3  4  2  0
  4  5  1  0
  5  6  1  0
  6  7  1  0
  7  8  1  0
  8  9  2  0
  9 10  1  0
 10 11  2  0
 10 12  1  0
 12 13  2  0
 12 14  1  0
 14 15  1  0
  6 16  2  0
 16 17  1  0
 17 18  1  0
 18 19  1  0
 19 20  1  0
 20 21  1  0
 21 22  1  0
 22 23  1  0
 23 24  1  0
 17 25  2  0
 25 26  1  0
  2 27  1  0
 27 28  1  0
 28 29  1  0
 29 30  2  0
 30 31  1  0
 31 32  2  0
 32 33  1  0
 33 34  2  0
 25  4  1  0
 34 29  1  0
 15  8  1  0
 24 19  1  0
  5 35  1  0
  7 36  1  0
  7 37  1  0
  9 38  1  0
 14 39  1  0
 15 40  1  0
 16 41  1  0
 18 42  1  0
 18 43  1  0
 20 44  1  0
 20 45  1  0
 21 46  1  0
 21 47  1  0
 22 48  1  0
 23 49  1  0
 23 50  1  0
 24 51  1  0
 24 52  1  0
 26 53  1  0
 28 54  1  0
 28 55  1  0
 30 56  1  0
 31 57  1  0
 32 58  1  0
 33 59  1  0
 34 60  1  0
M  END
>  <smiles>  (56) 
O=C(N=c1[nH]c(Cc2cc(=O)c(=O)[nH][nH]2)cc(CN2CCNCC2)c1O)OCc1ccccc1

>  <score_type>  (56) 
oracle

>  <origin>  (56) 
adg

>  <m_score__min__energy>  (56) 
-9.4900000000000002

>  <m_primary>  (56) 
energy

$$$$
56:0
     RDKit          3D

 60 63  0  0  0  0  0  0  0  0999 V2000
   62.1550   32.6340   51.3700 C   0  0  0  0  0  0  0  0  0  0  0  0
   61.6900   33.2350   50.1180 N   0  0  0  0  0  0  0  0  0  0  0  0
   60.4830   33.8150   49.8400 C   0  0  0  0  0  0  0  0  0  0  0  0
   59.3840   34.0140   50.8650 C   0  0  0  0  0  0  0  0  0  0  0  0
   58.6680   32.7230   51.1730 C   0  0  0  0  0  0  0  0  0  0  0  0
   58.9900   31.5460   50.4750 C   0  0  0  0  0  0  0  0  0  0  0  0
   58.3350   30.3460   50.7740 C   0  0  0  0  0  0  0  0  0  0  0  0
   57.3490   30.3140   51.7630 C   0  0  0  0  0  0  0  0  0  0  0  0
   57.0140   31.4820   52.4540 C   0  0  0  0  0  0  0  0  0  0  0  0
   57.6680   32.6820   52.1600 C   0  0  0  0  0  0  0  0  0  0  0  0
   60.3900   34.1830   48.5250 N   0  0  0  0  0  0  0  0  0  0  0  0
   59.2680   34.8120   47.8130 C   0  0  0  0  0  0  0  0  0  0  0  0
   58.5130   33.8360   46.9430 C   0  0  0  0  0  0  0  0  0  0  0  0
   57.6660   33.0780   47.4940 O   0  0  0  0  0  0  0  0  0  0  0  0
   58.7820   33.6640   45.5010 C   0  0  0  0  0  0  0  0  0  0  0  0
   59.2590   34.6290   44.8440 O   0  0  0  0  0  0  0  0  0  0  0  0
   58.5020   32.4480   44.8680 O   0  0  0  0  0  0  0  0  0  0  0  0
   57.7350   32.3240   43.6720 C   0  0  0  0  0  0  0  0  0  0  0  0
   57.1640   30.9160   43.5300 C   0  0  0  0  0  0  0  0  0  0  0  0
   56.4620   30.5680   44.7050 O   0  0  0  0  0  0  0  0  0  0  0  0
   56.9670   29.3610   45.2420 C   0  0  0  0  0  0  0  0  0  0  0  0
   58.3490   29.5700   45.8040 C   0  0  0  0  0  0  0  0  0  0  0  0
   58.5240   30.3060   46.9900 C   0  0  0  0  0  0  0  0  0  0  0  0
   59.8090   30.5420   47.4910 C   0  0  0  0  0  0  0  0  0  0  0  0
   60.9260   30.0490   46.8080 C   0  0  0  0  0  0  0  0  0  0  0  0
   60.7610   29.3030   45.6350 C   0  0  0  0  0  0  0  0  0  0  0  0
   59.4770   29.0610   45.1340 C   0  0  0  0  0  0  0  0  0  0  0  0
   61.5750   33.8300   47.9870 C   0  0  0  0  0  0  0  0  0  0  0  0
   62.0240   34.0000   46.6740 C   0  0  0  0  0  0  0  0  0  0  0  0
   63.3170   33.5440   46.3620 C   0  0  0  0  0  0  0  0  0  0  0  0
   64.1090   32.9080   47.3410 C   0  0  0  0  0  0  0  0  0  0  0  0
   63.6280   32.7480   48.6530 C   0  0  0  0  0  0  0  0  0  0  0  0
   62.3520   33.2410   48.9430 C   0  0  0  0  0  0  0  0  0  0  0  0
   61.7289   33.1847   52.2215 H   0  0  0  0  0  0  0  0  0  0  0  0
   61.8323   31.5833   51.4144 H   0  0  0  0  0  0  0  0  0  0  0  0
   63.2530   32.6825   51.4144 H   0  0  0  0  0  0  0  0  0  0  0  0
   59.8280   34.4054   51.7922 H   0  0  0  0  0  0  0  0  0  0  0  0
   58.6515   34.7216   50.4493 H   0  0  0  0  0  0  0  0  0  0  0  0
   59.7604   31.5684   49.6901 H   0  0  0  0  0  0  0  0  0  0  0  0
   58.5969   29.4268   50.2295 H   0  0  0  0  0  0  0  0  0  0  0  0
   56.8362   29.3697   51.9980 H   0  0  0  0  0  0  0  0  0  0  0  0
   56.2348   31.4568   53.2300 H   0  0  0  0  0  0  0  0  0  0  0  0
   57.3986   33.5993   52.7041 H   0  0  0  0  0  0  0  0  0  0  0  0
   58.5731   35.2345   48.5536 H   0  0  0  0  0  0  0  0  0  0  0  0
   59.6840   35.5908   47.1570 H   0  0  0  0  0  0  0  0  0  0  0  0
   56.9063   33.0468   43.6999 H   0  0  0  0  0  0  0  0  0  0  0  0
   58.3923   32.5231   42.8128 H   0  0  0  0  0  0  0  0  0  0  0  0
   56.4779   30.8843   42.6708 H   0  0  0  0  0  0  0  0  0  0  0  0
   57.9864   30.2029   43.3714 H   0  0  0  0  0  0  0  0  0  0  0  0
   56.2988   29.0143   46.0441 H   0  0  0  0  0  0  0  0  0  0  0  0
   57.0193   28.6097   44.4402 H   0  0  0  0  0  0  0  0  0  0  0  0
   57.6468   30.6977   47.5259 H   0  0  0  0  0  0  0  0  0  0  0  0
   59.9408   31.1146   48.4209 H   0  0  0  0  0  0  0  0  0  0  0  0
   61.9367   30.2481   47.1938 H   0  0  0  0  0  0  0  0  0  0  0  0
   61.6409   28.9069   45.1069 H   0  0  0  0  0  0  0  0  0  0  0  0
   59.3491   28.4714   44.2142 H   0  0  0  0  0  0  0  0  0  0  0  0
   61.3881   34.4739   45.9117 H   0  0  0  0  0  0  0  0  0  0  0  0
   63.7144   33.6844   45.3459 H   0  0  0  0  0  0  0  0  0  0  0  0
   65.1094   32.5347   47.0765 H   0  0  0  0  0  0  0  0  0  0  0  0
   64.2349   32.2519   49.4247 H   0  0  0  0  0  0  0  0  0  0  0  0
  1  2  1  0
  2  3  1  0
  3  4  1  0
  4  5  1  0
  5  6  2  0
  6  7  1  0
  7  8  2  0
  8  9  1  0
  9 10  2  0
  3 11  2  0
 11 12  1  0
 12 13  1  0
 13 14  2  0
 13 15  1  0
 15 16  2  0
 15 17  1  0
 17 18  1  0
 18 19  1  0
 19 20  1  0
 20 21  1  0
 21 22  1  0
 22 23  2  0
 23 24  1  0
 24 25  2  0
 25 26  1  0
 26 27  2  0
 11 28  1  0
 28 29  2  0
 29 30  1  0
 30 31  2  0
 31 32  1  0
 32 33  2  0
 33  2  1  0
 10  5  1  0
 27 22  1  0
 33 28  1  0
  1 34  1  0
  1 35  1  0
  1 36  1  0
  4 37  1  0
  4 38  1  0
  6 39  1  0
  7 40  1  0
  8 41  1  0
  9 42  1  0
 10 43  1  0
 12 44  1  0
 12 45  1  0
 18 46  1  0
 18 47  1  0
 19 48  1  0
 19 49  1  0
 21 50  1  0
 21 51  1  0
 23 52  1  0
 24 53  1  0
 25 54  1  0
 26 55  1  0
 27 56  1  0
 29 57  1  0
 30 58  1  0
 31 59  1  0
 32 60  1  0
M  CHG  1  11   1
M  END
>  <UniqueID>  (57) 
54

>  <SMILES>  (57) 
Cn1c(Cc2ccccc2)[n+](CC(=O)C(=O)OCCOCc2ccccc2)c2ccccc21

>  <Energy>  (57) 
94.6375817436789

>  <Genealogy>  (57) 
Cn1c(Cc2ccccc2)[n+](CC(=O)C(=O)OCCOCc2ccccc2)c2ccccc21 (3D coordinates assigned)
Cn1c(Cc2ccccc2)[n+](CC(=O)C(=O)OCCOCc2ccccc2)c2ccccc21 (optimized conformer: 94.6375817436789 kcal/mol)

>  <smiles>  (57) 
Cn1c(Cc2ccccc2)[n+](CC(=O)C(=O)OCCOCc2ccccc2)c2ccccc21

>  <score_type>  (57) 
oracle

>  <origin>  (57) 
adg

>  <m_score__min__energy>  (57) 
-7

>  <m_primary>  (57) 
energy

$$$$
57:0
     RDKit          3D

 52 55  0  0  0  0  0  0  0  0999 V2000
   61.5240   34.6300   48.7660 O   0  0  0  0  0  0  0  0  0  0  0  0
   60.3650   34.1870   48.9900 C   0  0  0  0  0  0  0  0  0  0  0  0
   59.9410   34.0330   50.3530 N   0  0  0  0  0  0  0  0  0  0  0  0
   59.3960   32.8370   50.9310 C   0  0  0  0  0  0  0  0  0  0  0  0
   58.1690   32.8470   51.6130 C   0  0  0  0  0  0  0  0  0  0  0  0
   57.6530   31.6660   52.1460 C   0  0  0  0  0  0  0  0  0  0  0  0
   58.3600   30.4680   52.0140 C   0  0  0  0  0  0  0  0  0  0  0  0
   59.6080   30.4360   51.3560 C   0  0  0  0  0  0  0  0  0  0  0  0
   60.3500   29.1980   51.2360 N   0  0  0  0  0  0  0  0  0  0  0  0
   61.1720   28.6320   52.2950 C   0  0  0  0  0  0  0  0  0  0  0  0
   61.8410   27.4050   51.6900 C   0  0  0  0  0  0  0  0  0  0  0  0
   61.0260   27.0630   50.4450 C   0  0  0  0  0  0  0  0  0  0  0  0
   60.3060   28.3450   50.0570 C   0  0  0  0  0  0  0  0  0  0  0  0
   60.1190   31.6390   50.8210 C   0  0  0  0  0  0  0  0  0  0  0  0
   59.5120   33.7640   47.8510 C   0  0  0  0  0  0  0  0  0  0  0  0
   59.8890   34.0380   46.5230 C   0  0  0  0  0  0  0  0  0  0  0  0
   59.0850   33.6270   45.4550 C   0  0  0  0  0  0  0  0  0  0  0  0
   57.8760   32.9560   45.6950 C   0  0  0  0  0  0  0  0  0  0  0  0
   57.0240   32.5310   44.6230 N   0  0  0  0  0  0  0  0  0  0  0  0
   56.7400   30.8730   44.2000 S   0  0  0  0  0  0  0  0  0  0  0  0
   57.1470   30.5980   42.7780 O   0  0  0  0  0  0  0  0  0  0  0  0
   55.2660   30.5960   44.3220 O   0  0  0  0  0  0  0  0  0  0  0  0
   57.6200   29.8360   45.3300 C   0  0  0  0  0  0  0  0  0  0  0  0
   58.8700   30.2610   45.8120 C   0  0  0  0  0  0  0  0  0  0  0  0
   59.6150   29.4450   46.6710 C   0  0  0  0  0  0  0  0  0  0  0  0
   61.1720   29.9930   47.2740 Cl  0  0  0  0  0  0  0  0  0  0  0  0
   59.1160   28.1980   47.0520 C   0  0  0  0  0  0  0  0  0  0  0  0
   57.8760   27.7610   46.5740 C   0  0  0  0  0  0  0  0  0  0  0  0
   57.1230   28.5740   45.7080 C   0  0  0  0  0  0  0  0  0  0  0  0
   55.8900   28.1270   45.2320 O   0  0  0  0  0  0  0  0  0  0  0  0
   57.4700   32.7300   47.0160 C   0  0  0  0  0  0  0  0  0  0  0  0
   58.2850   33.1200   48.0860 C   0  0  0  0  0  0  0  0  0  0  0  0
   57.6129   33.7891   51.7273 H   0  0  0  0  0  0  0  0  0  0  0  0
   56.6868   31.6777   52.6717 H   0  0  0  0  0  0  0  0  0  0  0  0
   57.9392   29.5396   52.4275 H   0  0  0  0  0  0  0  0  0  0  0  0
   61.9297   29.3593   52.6220 H   0  0  0  0  0  0  0  0  0  0  0  0
   60.5709   28.3711   53.1785 H   0  0  0  0  0  0  0  0  0  0  0  0
   62.8823   27.6312   51.4168 H   0  0  0  0  0  0  0  0  0  0  0  0
   61.8692   26.5657   52.4005 H   0  0  0  0  0  0  0  0  0  0  0  0
   61.6892   26.7346   49.6311 H   0  0  0  0  0  0  0  0  0  0  0  0
   60.3183   26.2430   50.6366 H   0  0  0  0  0  0  0  0  0  0  0  0
   60.8177   28.8312   49.2133 H   0  0  0  0  0  0  0  0  0  0  0  0
   59.2717   28.1476   49.7389 H   0  0  0  0  0  0  0  0  0  0  0  0
   61.0944   31.6371   50.3125 H   0  0  0  0  0  0  0  0  0  0  0  0
   60.8248   34.5805   46.3232 H   0  0  0  0  0  0  0  0  0  0  0  0
   59.4019   33.8307   44.4215 H   0  0  0  0  0  0  0  0  0  0  0  0
   59.2658   31.2424   45.5118 H   0  0  0  0  0  0  0  0  0  0  0  0
   59.6994   27.5575   47.7298 H   0  0  0  0  0  0  0  0  0  0  0  0
   57.4882   26.7772   46.8768 H   0  0  0  0  0  0  0  0  0  0  0  0
   55.5390   28.4020   44.3130 H   0  0  0  0  0  0  0  0  0  0  0  0
   56.5041   32.2427   47.2146 H   0  0  0  0  0  0  0  0  0  0  0  0
   57.9623   32.9207   49.1186 H   0  0  0  0  0  0  0  0  0  0  0  0
  1  2  2  0
  2  3  1  0
  3  4  1  0
  4  5  2  0
  5  6  1  0
  6  7  2  0
  7  8  1  0
  8  9  1  0
  9 10  1  0
 10 11  1  0
 11 12  1  0
 12 13  1  0
  8 14  2  0
  2 15  1  0
 15 16  2  0
 16 17  1  0
 17 18  2  0
 18 19  1  0
 19 20  1  0
 20 21  2  0
 20 22  2  0
 20 23  1  0
 23 24  2  0
 24 25  1  0
 25 26  1  0
 25 27  2  0
 27 28  1  0
 28 29  2  0
 29 30  1  0
 18 31  1  0
 31 32  2  0
 14  4  1  0
 32 15  1  0
 13  9  1  0
 29 23  1  0
  5 33  1  0
  6 34  1  0
  7 35  1  0
 10 36  1  0
 10 37  1  0
 11 38  1  0
 11 39  1  0
 12 40  1  0
 12 41  1  0
 13 42  1  0
 13 43  1  0
 14 44  1  0
 16 45  1  0
 17 46  1  0
 24 47  1  0
 27 48  1  0
 28 49  1  0
 30 50  1  0
 31 51  1  0
 32 52  1  0
M  CHG  2   3  -1  19  -1
M  END
>  <UniqueID>  (58) 
55

>  <SMILES>  (58) 
O=C([N-]c1cccc(N2CCCC2)c1)c1ccc([N-]S(=O)(=O)c2cc(Cl)ccc2O)cc1

>  <Energy>  (58) 
69.65883074868123

>  <Genealogy>  (58) 
O=C([N-]c1cccc(N2CCCC2)c1)c1ccc([N-]S(=O)(=O)c2cc(Cl)ccc2O)cc1 (protonated)
O=C([N-]c1cccc(N2CCCC2)c1)c1ccc([N-]S(=O)(=O)c2cc(Cl)ccc2O)cc1 (3D coordinates assigned)
O=C([N-]c1cccc(N2CCCC2)c1)c1ccc([N-]S(=O)(=O)c2cc(Cl)ccc2O)cc1 (nonaromatic ring conformer: 69.65883074868123 kcal/mol)

>  <smiles>  (58) 
O=C(Nc1cccc(N2CCCC2)c1)c1ccc(NS(=O)(=O)c2cc(Cl)ccc2O)cc1

>  <score_type>  (58) 
oracle

>  <origin>  (58) 
adg

>  <m_score__min__energy>  (58) 
-11.710000000000001

>  <m_primary>  (58) 
energy

$$$$
58:0
     RDKit          3D

 63 67  0  0  0  0  0  0  0  0999 V2000
   57.6021   32.6379   42.4609 H   0  0  0  0  0  0  0  0  0  0  0  0
   57.8330   32.4750   43.5240 C   0  0  0  0  0  0  0  0  0  0  0  0
   58.3380   33.5100   44.2100 C   0  0  0  0  0  0  0  0  0  0  0  0
   58.3874   34.4812   43.6959 H   0  0  0  0  0  0  0  0  0  0  0  0
   58.8330   33.4520   45.5990 C   0  0  0  0  0  0  0  0  0  0  0  0
   58.0350   33.1470   46.6980 C   0  0  0  0  0  0  0  0  0  0  0  0
   56.9707   32.8690   46.6960 H   0  0  0  0  0  0  0  0  0  0  0  0
   58.8680   33.2690   47.7890 C   0  0  0  0  0  0  0  0  0  0  0  0
   58.6160   33.0840   49.1460 C   0  0  0  0  0  0  0  0  0  0  0  0
   57.6193   32.7841   49.5018 H   0  0  0  0  0  0  0  0  0  0  0  0
   59.6780   33.2930   50.0500 C   0  0  0  0  0  0  0  0  0  0  0  0
   59.4260   33.0580   51.7810 S   0  0  0  0  0  0  0  0  0  0  0  0
   60.6950   32.5400   52.3970 O   0  0  0  0  0  0  0  0  0  0  0  0
   59.1030   34.3800   52.4200 O   0  0  0  0  0  0  0  0  0  0  0  0
   58.1320   31.9270   52.0950 N   0  0  0  0  0  0  0  0  0  0  0  0
   58.5150   30.5710   51.6600 C   0  0  0  0  0  0  0  0  0  0  0  0
   58.4677   30.5235   50.5620 H   0  0  0  0  0  0  0  0  0  0  0  0
   59.5343   30.3726   52.0229 H   0  0  0  0  0  0  0  0  0  0  0  0
   57.5800   29.4900   52.2470 C   0  0  0  0  0  0  0  0  0  0  0  0
   57.3755   28.7405   51.4682 H   0  0  0  0  0  0  0  0  0  0  0  0
   58.0889   29.0451   53.1148 H   0  0  0  0  0  0  0  0  0  0  0  0
   56.2930   30.0460   52.7190 N   0  0  0  0  0  0  0  0  0  0  0  0
   55.4150   30.4920   51.6120 C   0  0  0  0  0  0  0  0  0  0  0  0
   55.7988   31.4399   51.2069 H   0  0  0  0  0  0  0  0  0  0  0  0
   55.4096   29.7164   50.8320 H   0  0  0  0  0  0  0  0  0  0  0  0
   54.0030   30.6980   52.0980 C   0  0  0  0  0  0  0  0  0  0  0  0
   53.5270   30.0070   53.2250 C   0  0  0  0  0  0  0  0  0  0  0  0
   54.1840   29.2982   53.7503 H   0  0  0  0  0  0  0  0  0  0  0  0
   52.2220   30.2160   53.6820 C   0  0  0  0  0  0  0  0  0  0  0  0
   51.8549   29.6717   54.5646 H   0  0  0  0  0  0  0  0  0  0  0  0
   51.3840   31.1160   53.0180 C   0  0  0  0  0  0  0  0  0  0  0  0
   50.3567   31.2777   53.3765 H   0  0  0  0  0  0  0  0  0  0  0  0
   51.8510   31.8110   51.8980 C   0  0  0  0  0  0  0  0  0  0  0  0
   51.0200   32.7110   51.2420 O   0  0  0  0  0  0  0  0  0  0  0  0
   53.1570   31.6030   51.4380 C   0  0  0  0  0  0  0  0  0  0  0  0
   53.5213   32.1507   50.5563 H   0  0  0  0  0  0  0  0  0  0  0  0
   56.4970   31.0990   53.7450 C   0  0  0  0  0  0  0  0  0  0  0  0
   55.6286   31.7740   53.7295 H   0  0  0  0  0  0  0  0  0  0  0  0
   56.6111   30.5909   54.7139 H   0  0  0  0  0  0  0  0  0  0  0  0
   57.7720   31.9370   53.5170 C   0  0  0  0  0  0  0  0  0  0  0  0
   57.5894   32.9728   53.8392 H   0  0  0  0  0  0  0  0  0  0  0  0
   58.5975   31.5043   54.1012 H   0  0  0  0  0  0  0  0  0  0  0  0
   60.9500   33.6880   49.5680 C   0  0  0  0  0  0  0  0  0  0  0  0
   61.7744   33.8525   50.2774 H   0  0  0  0  0  0  0  0  0  0  0  0
   61.1690   33.8720   48.1900 C   0  0  0  0  0  0  0  0  0  0  0  0
   62.1528   34.1818   47.8076 H   0  0  0  0  0  0  0  0  0  0  0  0
   60.0990   33.6490   47.3260 C   0  0  0  0  0  0  0  0  0  0  0  0
   60.0920   33.7760   45.9890 N   0  0  0  0  0  0  0  0  0  0  0  0
   60.8850   34.1010   45.3920 H   0  0  0  0  0  0  0  0  0  0  0  0
   57.5610   31.1320   44.0800 C   0  0  0  0  0  0  0  0  0  0  0  0
   56.2620   30.5900   44.0850 C   0  0  0  0  0  0  0  0  0  0  0  0
   55.4218   31.1781   43.6873 H   0  0  0  0  0  0  0  0  0  0  0  0
   56.0350   29.3080   44.5930 C   0  0  0  0  0  0  0  0  0  0  0  0
   55.0162   28.8933   44.5971 H   0  0  0  0  0  0  0  0  0  0  0  0
   57.1010   28.5470   45.0980 C   0  0  0  0  0  0  0  0  0  0  0  0
   56.8630   27.1580   45.6090 C   0  0  0  0  0  0  0  0  0  0  0  0
   56.8645   27.1667   46.7090 H   0  0  0  0  0  0  0  0  0  0  0  0
   55.8897   26.7957   45.2465 H   0  0  0  0  0  0  0  0  0  0  0  0
   57.6602   26.4923   45.2465 H   0  0  0  0  0  0  0  0  0  0  0  0
   58.4030   29.0690   45.0480 C   0  0  0  0  0  0  0  0  0  0  0  0
   59.2484   28.4662   45.4112 H   0  0  0  0  0  0  0  0  0  0  0  0
   58.6310   30.3510   44.5390 C   0  0  0  0  0  0  0  0  0  0  0  0
   59.6556   30.7491   44.4984 H   0  0  0  0  0  0  0  0  0  0  0  0
  1  2  1  0
  2  3  2  0
  3  4  1  0
  3  5  1  0
  5  6  2  0
  6  7  1  0
  6  8  1  0
  8  9  2  0
  9 10  1  0
  9 11  1  0
 11 12  1  0
 12 13  2  0
 12 14  2  0
 12 15  1  0
 15 16  1  0
 16 17  1  0
 16 18  1  0
 16 19  1  0
 19 20  1  0
 19 21  1  0
 19 22  1  0
 22 23  1  0
 23 24  1  0
 23 25  1  0
 23 26  1  0
 26 27  2  0
 27 28  1  0
 27 29  1  0
 29 30  1  0
 29 31  2  0
 31 32  1  0
 31 33  1  0
 33 34  1  0
 33 35  2  0
 35 36  1  0
 22 37  1  0
 37 38  1  0
 37 39  1  0
 37 40  1  0
 40 41  1  0
 40 42  1  0
 11 43  2  0
 43 44  1  0
 43 45  1  0
 45 46  1  0
 45 47  2  0
 47 48  1  0
 48 49  1  0
  2 50  1  0
 50 51  2  0
 51 52  1  0
 51 53  1  0
 53 54  1  0
 53 55  2  0
 55 56  1  0
 56 57  1  0
 56 58  1  0
 56 59  1  0
 55 60  1  0
 60 61  1  0
 60 62  2  0
 62 63  1  0
 48  5  1  0
 62 50  1  0
 47  8  1  0
 40 15  1  0
 35 26  1  0
M  CHG  1  34  -1
M  END
>  <UniqueID>  (59) 
56

>  <SMILES>  (59) 
Cc1ccc(/C=C\c2cc3cc(S(=O)(=O)N4CCN(Cc5cccc([O-])c5)CC4)ccc3[nH]2)cc1

>  <Energy>  (59) 
116.8642052313506

>  <Genealogy>  (59) 
Cc1ccc(C=Cc2cc3cc(S(=O)(=O)N4CCN(Cc5cccc([O-])c5)CC4)ccc3[nH]2)cc1 (protonated)
Cc1ccc(/C=C\c2cc3cc(S(=O)(=O)N4CCN(Cc5cccc([O-])c5)CC4)ccc3[nH]2)cc1 (cis-trans isomerization)
Cc1ccc(/C=C\c2cc3cc(S(=O)(=O)N4CCN(Cc5cccc([O-])c5)CC4)ccc3[nH]2)cc1 (3D coordinates assigned)
Cc1ccc(/C=C\c2cc3cc(S(=O)(=O)N4CCN(Cc5cccc([O-])c5)CC4)ccc3[nH]2)cc1 (nonaromatic ring conformer: 116.8642052313506 kcal/mol)

>  <smiles>  (59) 
Cc1ccc(C=Cc2cc3cc(S(=O)(=O)N4CCN(Cc5cccc(O)c5)CC4)ccc3[nH]2)cc1

>  <score_type>  (59) 
oracle

>  <origin>  (59) 
adg

>  <m_score__min__energy>  (59) 
-14.800000000000001

>  <m_primary>  (59) 
energy

$$$$
59:0
     RDKit          3D

 52 55  0  0  0  0  0  0  0  0999 V2000
   60.6762   25.0849   46.2947 H   0  0  0  0  0  0  0  0  0  0  0  0
   59.8280   25.7810   46.3720 C   0  0  0  0  0  0  0  0  0  0  0  0
   58.5660   25.2970   46.5040 N   0  0  0  0  0  0  0  0  0  0  0  0
   57.4830   26.1100   46.6170 C   0  0  0  0  0  0  0  0  0  0  0  0
   56.3070   25.5560   46.7240 N   0  0  0  0  0  0  0  0  0  0  0  0
   55.3500   25.3010   45.6880 C   0  0  0  0  0  0  0  0  0  0  0  0
   54.2820   25.9640   45.6190 O   0  0  0  0  0  0  0  0  0  0  0  0
   55.6090   24.1780   44.7240 C   0  0  0  0  0  0  0  0  0  0  0  0
   54.5473   23.9345   44.5706 H   0  0  0  0  0  0  0  0  0  0  0  0
   56.8690   23.3500   44.9600 C   0  0  0  0  0  0  0  0  0  0  0  0
   57.4917   23.5355   45.8476 H   0  0  0  0  0  0  0  0  0  0  0  0
   57.0941   22.2754   45.0280 H   0  0  0  0  0  0  0  0  0  0  0  0
   56.8230   24.3730   43.8340 C   0  0  0  0  0  0  0  0  0  0  0  0
   57.4149   25.2973   43.9071 H   0  0  0  0  0  0  0  0  0  0  0  0
   57.0033   24.3421   42.7493 H   0  0  0  0  0  0  0  0  0  0  0  0
   57.6760   27.5090   46.5660 C   0  0  0  0  0  0  0  0  0  0  0  0
   56.8105   28.1854   46.6246 H   0  0  0  0  0  0  0  0  0  0  0  0
   58.9670   28.0350   46.4410 C   0  0  0  0  0  0  0  0  0  0  0  0
   59.1380   29.4560   46.3100 N   0  0  0  0  0  0  0  0  0  0  0  0
   60.0820   29.8320   46.5470 H   0  0  0  0  0  0  0  0  0  0  0  0
   58.0820   30.3630   45.9380 C   0  0  0  0  0  0  0  0  0  0  0  0
   56.9880   29.9130   45.4930 O   0  0  0  0  0  0  0  0  0  0  0  0
   58.2440   31.8290   46.0920 C   0  0  0  0  0  0  0  0  0  0  0  0
   58.6390   32.3530   47.3360 C   0  0  0  0  0  0  0  0  0  0  0  0
   58.7580   31.6782   48.1965 H   0  0  0  0  0  0  0  0  0  0  0  0
   58.8830   33.7250   47.4930 C   0  0  0  0  0  0  0  0  0  0  0  0
   59.3300   34.2770   48.7380 N   0  0  0  0  0  0  0  0  0  0  0  0
   59.3630   33.3980   50.2350 S   0  0  0  0  0  0  0  0  0  0  0  0
   59.0300   34.3430   51.3510 O   0  0  0  0  0  0  0  0  0  0  0  0
   58.3220   32.3220   50.2020 O   0  0  0  0  0  0  0  0  0  0  0  0
   60.9690   32.6790   50.5250 C   0  0  0  0  0  0  0  0  0  0  0  0
   61.4776   33.2369   51.3250 H   0  0  0  0  0  0  0  0  0  0  0  0
   60.8429   31.6273   50.8218 H   0  0  0  0  0  0  0  0  0  0  0  0
   61.8010   32.7390   49.2700 C   0  0  0  0  0  0  0  0  0  0  0  0
   62.5550   33.8850   48.9760 C   0  0  0  0  0  0  0  0  0  0  0  0
   62.4917   34.7663   49.6313 H   0  0  0  0  0  0  0  0  0  0  0  0
   63.3870   33.9100   47.8520 C   0  0  0  0  0  0  0  0  0  0  0  0
   63.9739   34.8122   47.6250 H   0  0  0  0  0  0  0  0  0  0  0  0
   63.4760   32.7920   47.0150 C   0  0  0  0  0  0  0  0  0  0  0  0
   64.1332   32.8149   46.1332 H   0  0  0  0  0  0  0  0  0  0  0  0
   62.7290   31.6470   47.3010 C   0  0  0  0  0  0  0  0  0  0  0  0
   62.7986   30.7664   46.6455 H   0  0  0  0  0  0  0  0  0  0  0  0
   61.8920   31.6210   48.4220 C   0  0  0  0  0  0  0  0  0  0  0  0
   61.3010   30.7196   48.6415 H   0  0  0  0  0  0  0  0  0  0  0  0
   58.7100   34.5800   46.4030 C   0  0  0  0  0  0  0  0  0  0  0  0
   58.9403   35.6508   46.5044 H   0  0  0  0  0  0  0  0  0  0  0  0
   58.2470   34.0820   45.1880 C   0  0  0  0  0  0  0  0  0  0  0  0
   58.0644   34.7708   44.3500 H   0  0  0  0  0  0  0  0  0  0  0  0
   58.0130   32.7170   45.0250 C   0  0  0  0  0  0  0  0  0  0  0  0
   57.5030   32.2880   43.8430 F   0  0  0  0  0  0  0  0  0  0  0  0
   60.0530   27.1560   46.3340 C   0  0  0  0  0  0  0  0  0  0  0  0
   61.0746   27.5479   46.2210 H   0  0  0  0  0  0  0  0  0  0  0  0
  1  2  1  0
  2  3  1  0
  3  4  1  0
  4  5  2  0
  5  6  1  0
  6  7  2  0
  6  8  1  0
  8  9  1  0
  8 10  1  0
 10 11  1  0
 10 12  1  0
 10 13  1  0
 13 14  1  0
 13 15  1  0
  4 16  1  0
 16 17  1  0
 16 18  2  0
 18 19  1  0
 19 20  1  0
 19 21  1  0
 21 22  2  0
 21 23  1  0
 23 24  2  0
 24 25  1  0
 24 26  1  0
 26 27  1  0
 27 28  1  0
 28 29  2  0
 28 30  2  0
 28 31  1  0
 31 32  1  0
 31 33  1  0
 31 34  1  0
 34 35  2  0
 35 36  1  0
 35 37  1  0
 37 38  1  0
 37 39  2  0
 39 40  1  0
 39 41  1  0
 41 42  1  0
 41 43  2  0
 43 44  1  0
 26 45  2  0
 45 46  1  0
 45 47  1  0
 47 48  1  0
 47 49  2  0
 49 50  1  0
 18 51  1  0
 51 52  1  0
 51  2  2  0
 13  8  1  0
 49 23  1  0
 43 34  1  0
M  CHG  2   3  -1  27  -1
M  END
>  <UniqueID>  (60) 
57

>  <SMILES>  (60) 
O=C(Nc1cc[n-]/c(=N/C(=O)C2CC2)c1)c1cc([N-]S(=O)(=O)Cc2ccccc2)ccc1F

>  <Energy>  (60) 
338.236151568979

>  <Genealogy>  (60) 
O=C(Nc1cc[n-]c(=NC(=O)C2CC2)c1)c1cc([N-]S(=O)(=O)Cc2ccccc2)ccc1F (protonated)
O=C(Nc1cc[n-]/c(=N/C(=O)C2CC2)c1)c1cc([N-]S(=O)(=O)Cc2ccccc2)ccc1F (cis-trans isomerization)
O=C(Nc1cc[n-]/c(=N/C(=O)C2CC2)c1)c1cc([N-]S(=O)(=O)Cc2ccccc2)ccc1F (3D coordinates assigned)
O=C(Nc1cc[n-]/c(=N/C(=O)C2CC2)c1)c1cc([N-]S(=O)(=O)Cc2ccccc2)ccc1F (nonaromatic ring conformer: 338.236151568979 kcal/mol)

>  <smiles>  (60) 
O=C(Nc1cc[nH]c(=NC(=O)C2CC2)c1)c1cc(NS(=O)(=O)Cc2ccccc2)ccc1F

>  <score_type>  (60) 
oracle

>  <origin>  (60) 
adg

>  <m_score__min__energy>  (60) 
-12.4

>  <m_primary>  (60) 
energy

$$$$
60:0
     RDKit          3D

 60 63  0  0  0  0  0  0  0  0999 V2000
   57.4440   33.8850   45.9640 C   0  0  0  0  0  0  0  0  0  0  0  0
   57.3850   32.8290   44.9050 C   0  0  0  0  0  0  0  0  0  0  0  0
   57.7890   33.1120   43.5980 C   0  0  0  0  0  0  0  0  0  0  0  0
   57.7260   32.0950   42.6440 C   0  0  0  0  0  0  0  0  0  0  0  0
   58.1530   32.3480   41.2340 C   0  0  0  0  0  0  0  0  0  0  0  0
   57.2530   30.8680   42.9970 N   0  0  0  0  0  0  0  0  0  0  0  0
   56.8560   30.6100   44.2690 C   0  0  0  0  0  0  0  0  0  0  0  0
   56.3000   28.9700   44.7240 S   0  0  0  0  0  0  0  0  0  0  0  0
   57.8250   28.1350   44.1630 C   0  0  0  0  0  0  0  0  0  0  0  0
   58.8060   28.0130   45.2930 C   0  0  0  0  0  0  0  0  0  0  0  0
   59.9630   28.7040   45.3240 N   0  0  0  0  0  0  0  0  0  0  0  0
   60.5890   28.3620   46.4390 N   0  0  0  0  0  0  0  0  0  0  0  0
   59.8010   27.4790   47.0770 C   0  0  0  0  0  0  0  0  0  0  0  0
   60.2270   26.7390   48.6590 S   0  0  0  0  0  0  0  0  0  0  0  0
   60.7730   28.3140   49.4010 C   0  0  0  0  0  0  0  0  0  0  0  0
   59.7590   29.3870   49.1280 C   0  0  0  0  0  0  0  0  0  0  0  0
   58.5770   29.0590   48.8470 O   0  0  0  0  0  0  0  0  0  0  0  0
   60.0670   30.7780   49.2880 N   0  0  0  0  0  0  0  0  0  0  0  0
   61.2870   31.4350   48.9170 C   0  0  0  0  0  0  0  0  0  0  0  0
   62.3880   31.4300   49.7940 C   0  0  0  0  0  0  0  0  0  0  0  0
   63.5760   32.0710   49.4440 C   0  0  0  0  0  0  0  0  0  0  0  0
   63.6800   32.7300   48.2190 C   0  0  0  0  0  0  0  0  0  0  0  0
   62.6030   32.7260   47.3280 C   0  0  0  0  0  0  0  0  0  0  0  0
   61.4090   32.0550   47.6500 C   0  0  0  0  0  0  0  0  0  0  0  0
   60.2980   32.0570   46.6630 C   0  0  0  0  0  0  0  0  0  0  0  0
   59.3580   30.9840   46.5930 N   0  0  0  0  0  0  0  0  0  0  0  0
   60.1970   33.0090   45.8460 O   0  0  0  0  0  0  0  0  0  0  0  0
   58.6680   27.2350   46.3910 N   0  0  0  0  0  0  0  0  0  0  0  0
   57.6090   26.2810   46.7380 C   0  0  0  0  0  0  0  0  0  0  0  0
   57.6690   25.0730   45.8390 C   0  0  0  0  0  0  0  0  0  0  0  0
   58.7120   24.1380   45.9650 C   0  0  0  0  0  0  0  0  0  0  0  0
   58.7530   23.0090   45.1390 C   0  0  0  0  0  0  0  0  0  0  0  0
   57.7580   22.8060   44.1800 C   0  0  0  0  0  0  0  0  0  0  0  0
   56.7190   23.7330   44.0450 C   0  0  0  0  0  0  0  0  0  0  0  0
   56.6740   24.8620   44.8690 C   0  0  0  0  0  0  0  0  0  0  0  0
   56.9300   31.5860   45.2130 N   0  0  0  0  0  0  0  0  0  0  0  0
   57.4175   33.4110   46.9563 H   0  0  0  0  0  0  0  0  0  0  0  0
   58.3757   34.4599   45.8570 H   0  0  0  0  0  0  0  0  0  0  0  0
   56.5822   34.5601   45.8570 H   0  0  0  0  0  0  0  0  0  0  0  0
   58.1492   34.1152   43.3264 H   0  0  0  0  0  0  0  0  0  0  0  0
   59.0994   32.9087   41.2325 H   0  0  0  0  0  0  0  0  0  0  0  0
   58.2948   31.3880   40.7160 H   0  0  0  0  0  0  0  0  0  0  0  0
   57.3791   32.9334   40.7160 H   0  0  0  0  0  0  0  0  0  0  0  0
   57.5722   27.1302   43.7935 H   0  0  0  0  0  0  0  0  0  0  0  0
   58.2814   28.7318   43.3596 H   0  0  0  0  0  0  0  0  0  0  0  0
   60.8845   28.1857   50.4878 H   0  0  0  0  0  0  0  0  0  0  0  0
   61.7372   28.6067   48.9599 H   0  0  0  0  0  0  0  0  0  0  0  0
   62.3107   30.9162   50.7635 H   0  0  0  0  0  0  0  0  0  0  0  0
   64.4320   32.0569   50.1347 H   0  0  0  0  0  0  0  0  0  0  0  0
   64.6105   33.2534   47.9539 H   0  0  0  0  0  0  0  0  0  0  0  0
   62.6898   33.2524   46.3660 H   0  0  0  0  0  0  0  0  0  0  0  0
   58.5450   31.0440   45.9460 H   0  0  0  0  0  0  0  0  0  0  0  0
   59.5190   30.0900   47.1000 H   0  0  0  0  0  0  0  0  0  0  0  0
   57.7383   25.9613   47.7825 H   0  0  0  0  0  0  0  0  0  0  0  0
   56.6330   26.7716   46.6087 H   0  0  0  0  0  0  0  0  0  0  0  0
   59.4996   24.2949   46.7167 H   0  0  0  0  0  0  0  0  0  0  0  0
   59.5701   22.2803   45.2452 H   0  0  0  0  0  0  0  0  0  0  0  0
   57.7913   21.9181   43.5315 H   0  0  0  0  0  0  0  0  0  0  0  0
   55.9359   23.5735   43.2892 H   0  0  0  0  0  0  0  0  0  0  0  0
   55.8557   25.5886   44.7574 H   0  0  0  0  0  0  0  0  0  0  0  0
  1  2  1  0
  2  3  2  0
  3  4  1  0
  4  5  1  0
  4  6  2  0
  6  7  1  0
  7  8  1  0
  8  9  1  0
  9 10  1  0
 10 11  2  0
 11 12  1  0
 12 13  2  0
 13 14  1  0
 14 15  1  0
 15 16  1  0
 16 17  2  0
 16 18  1  0
 18 19  1  0
 19 20  2  0
 20 21  1  0
 21 22  2  0
 22 23  1  0
 23 24  2  0
 24 25  1  0
 25 26  1  0
 25 27  2  0
 13 28  1  0
 28 29  1  0
 29 30  1  0
 30 31  2  0
 31 32  1  0
 32 33  2  0
 33 34  1  0
 34 35  2  0
  7 36  2  0
 36  2  1  0
 28 10  1  0
 35 30  1  0
 24 19  1  0
  1 37  1  0
  1 38  1  0
  1 39  1  0
  3 40  1  0
  5 41  1  0
  5 42  1  0
  5 43  1  0
  9 44  1  0
  9 45  1  0
 15 46  1  0
 15 47  1  0
 20 48  1  0
 21 49  1  0
 22 50  1  0
 23 51  1  0
 26 52  1  0
 26 53  1  0
 29 54  1  0
 29 55  1  0
 31 56  1  0
 32 57  1  0
 33 58  1  0
 34 59  1  0
 35 60  1  0
M  CHG  1  18  -1
M  END
>  <UniqueID>  (61) 
58

>  <SMILES>  (61) 
Cc1cc(C)nc(SCc2nnc(SCC(=O)[N-]c3ccccc3C(N)=O)n2Cc2ccccc2)n1

>  <Energy>  (61) 
88.74298680458537

>  <Genealogy>  (61) 
Cc1cc(C)nc(SCc2nnc(SCC(=O)[N-]c3ccccc3C(N)=O)n2Cc2ccccc2)n1 (protonated)
Cc1cc(C)nc(SCc2nnc(SCC(=O)[N-]c3ccccc3C(N)=O)n2Cc2ccccc2)n1 (3D coordinates assigned)
Cc1cc(C)nc(SCc2nnc(SCC(=O)[N-]c3ccccc3C(N)=O)n2Cc2ccccc2)n1 (optimized conformer: 88.74298680458537 kcal/mol)

>  <smiles>  (61) 
Cc1cc(C)nc(SCc2nnc(SCC(=O)Nc3ccccc3C(N)=O)n2Cc2ccccc2)n1

>  <score_type>  (61) 
oracle

>  <origin>  (61) 
adg

>  <m_score__min__energy>  (61) 
-12.42

>  <m_primary>  (61) 
energy

$$$$
61:0
     RDKit          3D

 42 43  0  0  0  0  0  0  0  0999 V2000
   57.7080   26.9980   45.6790 C   0  0  0  0  0  0  0  0  0  0  0  0
   56.2690   27.4090   45.6240 C   0  0  0  0  0  0  0  0  0  0  0  0
   55.3800   26.6020   46.0020 O   0  0  0  0  0  0  0  0  0  0  0  0
   55.8780   28.7030   45.1530 N   0  0  0  0  0  0  0  0  0  0  0  0
   56.4630   29.3530   43.9860 C   0  0  0  0  0  0  0  0  0  0  0  0
   57.2320   30.5660   44.4260 C   0  0  0  0  0  0  0  0  0  0  0  0
   57.7830   30.6230   45.7160 C   0  0  0  0  0  0  0  0  0  0  0  0
   58.4640   31.7670   46.1410 C   0  0  0  0  0  0  0  0  0  0  0  0
   58.5880   32.8710   45.2870 C   0  0  0  0  0  0  0  0  0  0  0  0
   59.4280   34.3160   45.8420 S   0  0  0  0  0  0  0  0  0  0  0  0
   58.8720   34.7860   47.1570 O   0  0  0  0  0  0  0  0  0  0  0  0
   59.2490   35.4020   44.8190 O   0  0  0  0  0  0  0  0  0  0  0  0
   61.1200   33.9790   46.0290 N   0  0  0  0  0  0  0  0  0  0  0  0
   61.7400   33.6600   47.2890 C   0  0  0  0  0  0  0  0  0  0  0  0
   63.0600   33.1770   47.3670 C   0  0  0  0  0  0  0  0  0  0  0  0
   63.6370   32.8950   48.6070 C   0  0  0  0  0  0  0  0  0  0  0  0
   62.9030   33.0760   49.7810 C   0  0  0  0  0  0  0  0  0  0  0  0
   61.5730   33.5250   49.7210 C   0  0  0  0  0  0  0  0  0  0  0  0
   60.8060   33.7440   50.9180 N   0  0  0  0  0  0  0  0  0  0  0  0
   59.6240   33.0080   51.2770 C   0  0  0  0  0  0  0  0  0  0  0  0
   59.1760   33.0230   52.6320 N   0  0  0  0  0  0  0  0  0  0  0  0
   58.6560   32.3470   50.1260 S   0  0  0  0  0  0  0  0  0  0  0  0
   61.0080   33.8310   48.4750 C   0  0  0  0  0  0  0  0  0  0  0  0
   58.0310   32.8210   44.0020 C   0  0  0  0  0  0  0  0  0  0  0  0
   57.3490   31.6770   43.5760 C   0  0  0  0  0  0  0  0  0  0  0  0
   58.0237   26.9078   46.7289 H   0  0  0  0  0  0  0  0  0  0  0  0
   57.8320   26.0285   45.1743 H   0  0  0  0  0  0  0  0  0  0  0  0
   58.3253   27.7557   45.1743 H   0  0  0  0  0  0  0  0  0  0  0  0
   57.1415   28.6526   43.4770 H   0  0  0  0  0  0  0  0  0  0  0  0
   55.6636   29.6550   43.2934 H   0  0  0  0  0  0  0  0  0  0  0  0
   57.6783   29.7639   46.3949 H   0  0  0  0  0  0  0  0  0  0  0  0
   58.9039   31.8009   47.1487 H   0  0  0  0  0  0  0  0  0  0  0  0
   61.6910   33.9240   45.1560 H   0  0  0  0  0  0  0  0  0  0  0  0
   63.6404   33.0208   46.4457 H   0  0  0  0  0  0  0  0  0  0  0  0
   64.6731   32.5291   48.6591 H   0  0  0  0  0  0  0  0  0  0  0  0
   63.3675   32.8664   50.7558 H   0  0  0  0  0  0  0  0  0  0  0  0
   61.1050   34.5160   51.5550 H   0  0  0  0  0  0  0  0  0  0  0  0
   59.7450   33.4940   53.3710 H   0  0  0  0  0  0  0  0  0  0  0  0
   58.2840   32.5540   52.9070 H   0  0  0  0  0  0  0  0  0  0  0  0
   59.9767   34.2104   48.4257 H   0  0  0  0  0  0  0  0  0  0  0  0
   58.1305   33.6837   43.3269 H   0  0  0  0  0  0  0  0  0  0  0  0
   56.9025   31.6476   42.5711 H   0  0  0  0  0  0  0  0  0  0  0  0
  1  2  1  0
  2  3  2  0
  2  4  1  0
  4  5  1  0
  5  6  1  0
  6  7  2  0
  7  8  1  0
  8  9  2  0
  9 10  1  0
 10 11  2  0
 10 12  2  0
 10 13  1  0
 13 14  1  0
 14 15  2  0
 15 16  1  0
 16 17  2  0
 17 18  1  0
 18 19  1  0
 19 20  1  0
 20 21  1  0
 20 22  2  0
 18 23  2  0
  9 24  1  0
 24 25  2  0
 25  6  1  0
 23 14  1  0
  1 26  1  0
  1 27  1  0
  1 28  1  0
  5 29  1  0
  5 30  1  0
  7 31  1  0
  8 32  1  0
 13 33  1  0
 15 34  1  0
 16 35  1  0
 17 36  1  0
 19 37  1  0
 21 38  1  0
 21 39  1  0
 23 40  1  0
 24 41  1  0
 25 42  1  0
M  CHG  1   4  -1
M  END
>  <UniqueID>  (62) 
59

>  <SMILES>  (62) 
CC(=O)[N-]Cc1ccc(S(=O)(=O)Nc2cccc(NC(N)=S)c2)cc1

>  <Energy>  (62) 
44.05289051188182

>  <Genealogy>  (62) 
CC(=O)[N-]Cc1ccc(S(=O)(=O)Nc2cccc(NC(N)=S)c2)cc1 (protonated)
CC(=O)[N-]Cc1ccc(S(=O)(=O)Nc2cccc(NC(N)=S)c2)cc1 (3D coordinates assigned)
CC(=O)[N-]Cc1ccc(S(=O)(=O)Nc2cccc(NC(N)=S)c2)cc1 (optimized conformer: 44.05289051188182 kcal/mol)

>  <smiles>  (62) 
CC(=O)NCc1ccc(S(=O)(=O)Nc2cccc(NC(N)=S)c2)cc1

>  <score_type>  (62) 
oracle

>  <origin>  (62) 
adg

>  <m_score__min__energy>  (62) 
-10.199999999999999

>  <m_primary>  (62) 
energy

$$$$
62:0
     RDKit          3D

 60 63  0  0  1  0  0  0  0  0999 V2000
   63.7690   33.0540   46.7650 C   0  0  0  0  0  0  0  0  0  0  0  0
   63.3710   34.1200   47.7530 C   0  0  0  0  0  0  0  0  0  0  0  0
   61.9310   34.0360   48.1210 C   0  0  0  0  0  0  0  0  0  0  0  0
   60.9530   34.2160   47.1670 C   0  0  0  0  0  0  0  0  0  0  0  0
   59.5930   34.1460   47.4740 C   0  0  0  0  0  0  0  0  0  0  0  0
   58.6330   34.3570   46.3740 C   0  0  0  0  0  0  0  0  0  0  0  0
   58.8590   33.3980   45.3310 N   0  0  0  0  0  0  0  0  0  0  0  0
   57.7390   33.4170   44.4090 C   0  0  0  0  0  0  0  0  0  0  0  0
   57.4560   32.0700   43.8200 C   0  0  0  0  0  0  0  0  0  0  0  0
   57.0210   31.1650   44.8750 N   0  0  0  0  0  0  0  0  0  0  0  0
   57.0840   29.7820   44.4010 C   0  0  0  0  0  0  0  0  0  0  0  0
   57.8180   31.3120   46.0840 C   0  0  0  0  0  0  0  0  0  0  0  0
   59.0980   32.0660   45.7850 C   0  0  0  0  0  0  0  0  0  0  0  0
   59.2420   33.8930   48.7470 N   0  0  0  0  0  0  0  0  0  0  0  0
   60.2000   33.7230   49.6500 C   0  0  0  0  0  0  0  0  0  0  0  0
   59.8770   33.4820   50.8730 N   0  0  0  0  0  0  0  0  0  0  0  0
   58.8030   32.6400   51.2760 C   0  0  0  0  0  0  0  0  0  0  0  0
   57.7390   33.0900   52.0380 C   0  0  0  0  0  0  0  0  0  0  0  0
   56.7440   32.1770   52.3720 C   0  0  0  0  0  0  0  0  0  0  0  0
   56.7880   30.8550   51.9710 C   0  0  0  0  0  0  0  0  0  0  0  0
   57.8690   30.4370   51.2060 C   0  0  0  0  0  0  0  0  0  0  0  0
   58.8850   31.3120   50.8490 C   0  0  0  0  0  0  0  0  0  0  0  0
   60.0050   30.8710   50.0560 N   0  0  0  0  0  0  0  0  0  0  0  0
   61.3650   30.8180   50.5340 C   0  0  0  0  0  0  0  0  0  0  0  0
   62.2470   30.8130   49.3220 C   0  0  0  0  0  0  0  0  0  0  0  0
   61.3330   30.7750   48.1100 C   0  0  0  0  0  0  0  0  0  0  0  0
   59.9830   30.4100   48.6750 C   0  0  0  0  0  0  0  0  0  0  0  0
   61.5220   33.7870   49.3790 N   0  0  0  0  0  0  0  0  0  0  0  0
   64.1037   32.1576   47.3077 H   0  0  0  0  0  0  0  0  0  0  0  0
   62.9055   32.7990   46.1331 H   0  0  0  0  0  0  0  0  0  0  0  0
   64.5883   33.4273   46.1331 H   0  0  0  0  0  0  0  0  0  0  0  0
   63.9768   34.0030   48.6637 H   0  0  0  0  0  0  0  0  0  0  0  0
   63.5425   35.0988   47.2812 H   0  0  0  0  0  0  0  0  0  0  0  0
   61.2540   34.4217   46.1292 H   0  0  0  0  0  0  0  0  0  0  0  0
   57.6087   34.2420   46.7581 H   0  0  0  0  0  0  0  0  0  0  0  0
   58.7689   35.3699   45.9671 H   0  0  0  0  0  0  0  0  0  0  0  0
   56.8442   33.7608   44.9485 H   0  0  0  0  0  0  0  0  0  0  0  0
   57.9991   34.0944   43.5823 H   0  0  0  0  0  0  0  0  0  0  0  0
   56.6633   32.1593   43.0626 H   0  0  0  0  0  0  0  0  0  0  0  0
   58.3680   31.6750   43.3485 H   0  0  0  0  0  0  0  0  0  0  0  0
   57.1151   29.0999   45.2634 H   0  0  0  0  0  0  0  0  0  0  0  0
   56.1949   29.5624   43.7916 H   0  0  0  0  0  0  0  0  0  0  0  0
   57.9894   29.6441   43.7916 H   0  0  0  0  0  0  0  0  0  0  0  0
   57.2375   31.8673   46.8354 H   0  0  0  0  0  0  0  0  0  0  0  0
   58.0737   30.3128   46.4663 H   0  0  0  0  0  0  0  0  0  0  0  0
   59.7031   32.1101   46.7026 H   0  0  0  0  0  0  0  0  0  0  0  0
   59.6198   31.5288   44.9793 H   0  0  0  0  0  0  0  0  0  0  0  0
   57.6818   34.1374   52.3693 H   0  0  0  0  0  0  0  0  0  0  0  0
   55.8915   32.5195   52.9770 H   0  0  0  0  0  0  0  0  0  0  0  0
   55.9884   30.1530   52.2502 H   0  0  0  0  0  0  0  0  0  0  0  0
   57.9210   29.3890   50.8757 H   0  0  0  0  0  0  0  0  0  0  0  0
   61.5824   31.6977   51.1575 H   0  0  0  0  0  0  0  0  0  0  0  0
   61.5335   29.9224   51.1500 H   0  0  0  0  0  0  0  0  0  0  0  0
   62.8655   31.7224   49.3007 H   0  0  0  0  0  0  0  0  0  0  0  0
   62.9236   29.9458   49.3316 H   0  0  0  0  0  0  0  0  0  0  0  0
   61.2969   31.7581   47.6178 H   0  0  0  0  0  0  0  0  0  0  0  0
   61.6764   30.0621   47.3459 H   0  0  0  0  0  0  0  0  0  0  0  0
   59.1819   30.9134   48.1138 H   0  0  0  0  0  0  0  0  0  0  0  0
   59.7895   29.3293   48.6073 H   0  0  0  0  0  0  0  0  0  0  0  0
   62.2360   33.6440   50.1320 H   0  0  0  0  0  0  0  0  0  0  0  0
  1  2  1  0
  2  3  1  0
  3  4  2  0
  4  5  1  0
  5  6  1  0
  6  7  1  0
  7  8  1  0
  8  9  1  0
  9 10  1  0
 10 11  1  0
 10 12  1  0
 12 13  1  0
  5 14  2  0
 14 15  1  0
 15 16  2  0
 16 17  1  0
 17 18  2  0
 18 19  1  0
 19 20  2  0
 20 21  1  0
 21 22  2  0
 22 23  1  0
 23 24  1  0
 24 25  1  0
 25 26  1  0
 26 27  1  0
 15 28  1  0
 28  3  1  0
 13  7  1  0
 22 17  1  0
 27 23  1  0
  1 29  1  0
  1 30  1  0
  1 31  1  0
  2 32  1  0
  2 33  1  0
  4 34  1  0
  6 35  1  0
  6 36  1  0
  8 37  1  0
  8 38  1  0
  9 39  1  0
  9 40  1  0
 11 41  1  0
 11 42  1  0
 11 43  1  0
 12 44  1  0
 12 45  1  0
 13 46  1  0
 13 47  1  0
 18 48  1  0
 19 49  1  0
 20 50  1  0
 21 51  1  0
 24 52  1  0
 24 53  1  0
 25 54  1  0
 25 55  1  0
 26 56  1  0
 26 57  1  0
 27 58  1  0
 27 59  1  0
 28 60  1  0
M  END
>  <smiles>  (63) 
CCc1cc(CN2CCN(C)CC2)nc(=Nc2ccccc2N2CCCC2)[nH]1

>  <score_type>  (63) 
oracle

>  <origin>  (63) 
adg

>  <m_score__min__energy>  (63) 
-8.6899999999999995

>  <m_primary>  (63) 
energy

$$$$
63:0
     RDKit          3D

 56 59  0  0  0  0  0  0  0  0999 V2000
   58.4278   24.2271   45.9113 H   0  0  0  0  0  0  0  0  0  0  0  0
   58.3280   25.2740   46.2340 C   0  0  0  0  0  0  0  0  0  0  0  0
   57.1510   25.9760   45.9770 C   0  0  0  0  0  0  0  0  0  0  0  0
   56.3190   25.4901   45.4463 H   0  0  0  0  0  0  0  0  0  0  0  0
   57.0390   27.3020   46.4000 C   0  0  0  0  0  0  0  0  0  0  0  0
   56.1129   27.8629   46.2057 H   0  0  0  0  0  0  0  0  0  0  0  0
   58.0720   27.9030   47.0520 N   0  0  0  0  0  0  0  0  0  0  0  0
   57.9560   28.8930   47.3680 H   0  0  0  0  0  0  0  0  0  0  0  0
   59.2390   27.2420   47.3040 C   0  0  0  0  0  0  0  0  0  0  0  0
   60.3420   27.9210   48.0720 C   0  0  0  0  0  0  0  0  0  0  0  0
   61.2754   27.3541   47.9400 H   0  0  0  0  0  0  0  0  0  0  0  0
   60.0622   27.9552   49.1353 H   0  0  0  0  0  0  0  0  0  0  0  0
   60.5490   29.3490   47.5740 C   0  0  0  0  0  0  0  0  0  0  0  0
   60.7408   29.3338   46.4910 H   0  0  0  0  0  0  0  0  0  0  0  0
   61.4082   29.7947   48.0966 H   0  0  0  0  0  0  0  0  0  0  0  0
   59.3840   30.1260   47.8370 O   0  0  0  0  0  0  0  0  0  0  0  0
   58.8430   31.0240   46.9120 C   0  0  0  0  0  0  0  0  0  0  0  0
   57.8290   30.6310   46.0920 N   0  0  0  0  0  0  0  0  0  0  0  0
   57.2440   31.4710   45.1940 C   0  0  0  0  0  0  0  0  0  0  0  0
   56.2760   31.0590   44.4300 N   0  0  0  0  0  0  0  0  0  0  0  0
   56.0920   29.6980   44.0160 C   0  0  0  0  0  0  0  0  0  0  0  0
   55.1510   29.0290   44.5140 O   0  0  0  0  0  0  0  0  0  0  0  0
   56.9800   29.0680   43.0850 N   0  0  0  0  0  0  0  0  0  0  0  0
   57.8260   27.9230   43.4040 C   0  0  0  0  0  0  0  0  0  0  0  0
   58.1187   27.4138   42.4739 H   0  0  0  0  0  0  0  0  0  0  0  0
   57.2690   27.2252   44.0465 H   0  0  0  0  0  0  0  0  0  0  0  0
   59.0720   28.3970   44.1350 C   0  0  0  0  0  0  0  0  0  0  0  0
   58.9064   28.3340   45.2206 H   0  0  0  0  0  0  0  0  0  0  0  0
   59.9249   27.7605   43.8566 H   0  0  0  0  0  0  0  0  0  0  0  0
   59.2862   29.4394   43.8566 H   0  0  0  0  0  0  0  0  0  0  0  0
   57.7060   32.7850   45.0750 C   0  0  0  0  0  0  0  0  0  0  0  0
   57.2510   33.4675   44.3421 H   0  0  0  0  0  0  0  0  0  0  0  0
   58.7520   33.2270   45.8950 C   0  0  0  0  0  0  0  0  0  0  0  0
   59.2250   34.5430   45.8020 C   0  0  0  0  0  0  0  0  0  0  0  0
   58.7764   35.2358   45.0748 H   0  0  0  0  0  0  0  0  0  0  0  0
   60.2630   34.9790   46.6280 C   0  0  0  0  0  0  0  0  0  0  0  0
   60.6283   36.0134   46.5469 H   0  0  0  0  0  0  0  0  0  0  0  0
   60.8450   34.1030   47.5640 C   0  0  0  0  0  0  0  0  0  0  0  0
   61.8880   34.4940   48.4190 O   0  0  0  0  0  0  0  0  0  0  0  0
   63.2670   34.1530   48.2500 C   0  0  2  0  0  0  0  0  0  0  0  0
   63.8351   35.0873   48.3701 H   0  0  0  0  0  0  0  0  0  0  0  0
   63.5030   33.4830   46.9040 C   0  0  0  0  0  0  0  0  0  0  0  0
   64.4821   33.7915   46.5087 H   0  0  0  0  0  0  0  0  0  0  0  0
   62.7102   33.7839   46.2034 H   0  0  0  0  0  0  0  0  0  0  0  0
   63.4810   32.0820   47.0600 O   0  0  0  0  0  0  0  0  0  0  0  0
   63.3790   31.8060   48.4380 C   0  0  0  0  0  0  0  0  0  0  0  0
   64.1212   31.0432   48.7161 H   0  0  0  0  0  0  0  0  0  0  0  0
   62.3698   31.4322   48.6656 H   0  0  0  0  0  0  0  0  0  0  0  0
   63.6390   33.0730   49.2210 C   0  0  0  0  0  0  0  0  0  0  0  0
   64.6977   33.1488   49.5099 H   0  0  0  0  0  0  0  0  0  0  0  0
   63.0732   33.1238   50.1630 H   0  0  0  0  0  0  0  0  0  0  0  0
   60.3740   32.7890   47.6580 C   0  0  0  0  0  0  0  0  0  0  0  0
   60.8244   32.1003   48.3880 H   0  0  0  0  0  0  0  0  0  0  0  0
   59.3320   32.3400   46.8300 C   0  0  0  0  0  0  0  0  0  0  0  0
   59.3790   25.9040   46.9020 C   0  0  0  0  0  0  0  0  0  0  0  0
   60.3098   25.3566   47.1119 H   0  0  0  0  0  0  0  0  0  0  0  0
  1  2  1  0
  2  3  2  0
  3  4  1  0
  3  5  1  0
  5  6  1  0
  5  7  2  0
  7  8  1  0
  7  9  1  0
  9 10  1  0
 10 11  1  0
 10 12  1  0
 10 13  1  0
 13 14  1  0
 13 15  1  0
 13 16  1  0
 16 17  1  0
 17 18  1  0
 18 19  1  0
 19 20  2  0
 20 21  1  0
 21 22  2  0
 21 23  1  0
 23 24  1  0
 24 25  1  0
 24 26  1  0
 24 27  1  0
 27 28  1  0
 27 29  1  0
 27 30  1  0
 19 31  1  0
 31 32  1  0
 31 33  2  0
 33 34  1  0
 34 35  1  0
 34 36  2  0
 36 37  1  0
 36 38  1  0
 38 39  1  0
 39 40  1  0
 40 41  1  1
 40 42  1  0
 42 43  1  0
 42 44  1  0
 42 45  1  0
 45 46  1  0
 46 47  1  0
 46 48  1  0
 46 49  1  0
 49 50  1  0
 49 51  1  0
 38 52  2  0
 52 53  1  0
 52 54  1  0
  9 55  2  0
 55 56  1  0
 55  2  1  0
 54 17  2  0
 54 33  1  0
 49 40  1  0
M  CHG  3   7   1  18  -1  23  -1
M  END
>  <UniqueID>  (64) 
60

>  <SMILES>  (64) 
CC[N-]C(=O)/N=c1/cc2ccc(O[C@H]3CCOC3)cc2c(OCCc2cccc[nH+]2)[n-]1

>  <Energy>  (64) 
59.60412888404816

>  <Genealogy>  (64) 
CC[N-]C(=O)N=c1cc2ccc(OC3CCOC3)cc2c(OCCc2cccc[nH+]2)[n-]1 (protonated)
CC[N-]C(=O)N=c1cc2ccc(O[C@H]3CCOC3)cc2c(OCCc2cccc[nH+]2)[n-]1 (chirality)
CC[N-]C(=O)/N=c1/cc2ccc(O[C@H]3CCOC3)cc2c(OCCc2cccc[nH+]2)[n-]1 (cis-trans isomerization)
CC[N-]C(=O)/N=c1/cc2ccc(O[C@H]3CCOC3)cc2c(OCCc2cccc[nH+]2)[n-]1 (3D coordinates assigned)
CC[N-]C(=O)/N=c1/cc2ccc(O[C@H]3CCOC3)cc2c(OCCc2cccc[nH+]2)[n-]1 (nonaromatic ring conformer: 59.60412888404816 kcal/mol)

>  <smiles>  (64) 
CCNC(=O)N=c1cc2ccc(OC3CCOC3)cc2c(OCCc2ccccn2)[nH]1

>  <score_type>  (64) 
oracle

>  <origin>  (64) 
adg

>  <m_score__min__energy>  (64) 
-10.279999999999999

>  <m_primary>  (64) 
energy

$$$$
64:0
     RDKit          3D

 64 68  0  0  0  0  0  0  0  0999 V2000
   55.1690   26.7240   45.9910 N   0  0  0  0  0  0  0  0  0  0  0  0
   55.8420   25.5110   46.3220 C   0  0  0  0  0  0  0  0  0  0  0  0
   55.1910   24.4340   46.3950 O   0  0  0  0  0  0  0  0  0  0  0  0
   57.3250   25.5130   46.5660 C   0  0  1  0  0  0  0  0  0  0  0  0
   57.8980   24.0840   46.5240 C   0  0  0  0  0  0  0  0  0  0  0  0
   57.4600   23.3290   45.2940 C   0  0  0  0  0  0  0  0  0  0  0  0
   57.4060   21.9240   45.3030 C   0  0  0  0  0  0  0  0  0  0  0  0
   57.0010   21.2270   44.1580 C   0  0  0  0  0  0  0  0  0  0  0  0
   56.6360   21.9270   43.0050 C   0  0  0  0  0  0  0  0  0  0  0  0
   56.6710   23.3260   42.9940 C   0  0  0  0  0  0  0  0  0  0  0  0
   57.0810   24.0260   44.1330 C   0  0  0  0  0  0  0  0  0  0  0  0
   57.9840   26.3430   45.5550 N   0  0  0  0  0  0  0  0  0  0  0  0
   57.8790   27.7740   45.5510 C   0  0  0  0  0  0  0  0  0  0  0  0
   57.1700   28.3610   46.4140 O   0  0  0  0  0  0  0  0  0  0  0  0
   58.6720   28.5780   44.5470 C   0  0  2  0  0  0  0  0  0  0  0  0
   60.1870   28.4380   44.8150 C   0  0  0  0  0  0  0  0  0  0  0  0
   60.4650   27.9360   46.2050 C   0  0  0  0  0  0  0  0  0  0  0  0
   60.7190   26.6170   46.5750 C   0  0  0  0  0  0  0  0  0  0  0  0
   60.8310   26.5160   47.9190 N   0  0  0  0  0  0  0  0  0  0  0  0
   60.6400   27.7560   48.4010 C   0  0  0  0  0  0  0  0  0  0  0  0
   60.6410   28.1500   49.7400 C   0  0  0  0  0  0  0  0  0  0  0  0
   60.3910   29.5060   50.0250 C   0  0  0  0  0  0  0  0  0  0  0  0
   60.1480   30.4260   48.9810 C   0  0  0  0  0  0  0  0  0  0  0  0
   60.1530   29.9990   47.6400 C   0  0  0  0  0  0  0  0  0  0  0  0
   60.4100   28.6510   47.3870 C   0  0  0  0  0  0  0  0  0  0  0  0
   58.2210   30.0240   44.5530 C   0  0  0  0  0  0  0  0  0  0  0  0
   57.7590   30.6230   43.3700 C   0  0  0  0  0  0  0  0  0  0  0  0
   57.3100   31.9430   43.4000 C   0  0  0  0  0  0  0  0  0  0  0  0
   57.3330   32.6620   44.5960 C   0  0  0  0  0  0  0  0  0  0  0  0
   57.8110   32.0430   45.7610 C   0  0  0  0  0  0  0  0  0  0  0  0
   57.8390   32.7730   47.0730 C   0  0  0  0  0  0  0  0  0  0  0  0
   59.2180   33.2990   47.3400 C   0  0  0  0  0  0  0  0  0  0  0  0
   60.2300   33.3380   46.3640 C   0  0  0  0  0  0  0  0  0  0  0  0
   61.4390   33.8300   46.8380 C   0  0  0  0  0  0  0  0  0  0  0  0
   61.2500   34.1950   48.4680 S   0  0  0  0  0  0  0  0  0  0  0  0
   59.6370   33.7390   48.5920 C   0  0  0  0  0  0  0  0  0  0  0  0
   58.2250   30.7480   45.7100 N   0  0  0  0  0  0  0  0  0  0  0  0
   55.5760   27.3940   45.3020 H   0  0  0  0  0  0  0  0  0  0  0  0
   57.5127   25.9259   47.5682 H   0  0  0  0  0  0  0  0  0  0  0  0
   58.9964   24.1427   46.5309 H   0  0  0  0  0  0  0  0  0  0  0  0
   57.5198   23.5432   47.4040 H   0  0  0  0  0  0  0  0  0  0  0  0
   57.6828   21.3706   46.2124 H   0  0  0  0  0  0  0  0  0  0  0  0
   56.9702   20.1275   44.1662 H   0  0  0  0  0  0  0  0  0  0  0  0
   56.3209   21.3780   42.1054 H   0  0  0  0  0  0  0  0  0  0  0  0
   56.3756   23.8757   42.0882 H   0  0  0  0  0  0  0  0  0  0  0  0
   57.1071   25.1256   44.1207 H   0  0  0  0  0  0  0  0  0  0  0  0
   58.5840   25.8870   44.8310 H   0  0  0  0  0  0  0  0  0  0  0  0
   58.4827   28.1805   43.5389 H   0  0  0  0  0  0  0  0  0  0  0  0
   60.6129   27.7298   44.0890 H   0  0  0  0  0  0  0  0  0  0  0  0
   60.6453   29.4328   44.7131 H   0  0  0  0  0  0  0  0  0  0  0  0
   60.8150   25.7759   45.8726 H   0  0  0  0  0  0  0  0  0  0  0  0
   61.0180   25.6450   48.4670 H   0  0  0  0  0  0  0  0  0  0  0  0
   60.8307   27.4254   50.5456 H   0  0  0  0  0  0  0  0  0  0  0  0
   60.3849   29.8518   51.0692 H   0  0  0  0  0  0  0  0  0  0  0  0
   59.9537   31.4825   49.2176 H   0  0  0  0  0  0  0  0  0  0  0  0
   59.9607   30.7046   46.8184 H   0  0  0  0  0  0  0  0  0  0  0  0
   57.7513   30.0558   42.4275 H   0  0  0  0  0  0  0  0  0  0  0  0
   56.9374   32.4178   42.4804 H   0  0  0  0  0  0  0  0  0  0  0  0
   56.9800   33.7034   44.6250 H   0  0  0  0  0  0  0  0  0  0  0  0
   57.1296   33.6130   47.0374 H   0  0  0  0  0  0  0  0  0  0  0  0
   57.5561   32.0786   47.8778 H   0  0  0  0  0  0  0  0  0  0  0  0
   60.0784   33.0102   45.3250 H   0  0  0  0  0  0  0  0  0  0  0  0
   62.3595   33.9584   46.2497 H   0  0  0  0  0  0  0  0  0  0  0  0
   59.0211   33.7810   49.5024 H   0  0  0  0  0  0  0  0  0  0  0  0
  1  2  1  0
  2  3  2  0
  2  4  1  0
  4  5  1  0
  5  6  1  0
  6  7  2  0
  7  8  1  0
  8  9  2  0
  9 10  1  0
 10 11  2  0
  4 12  1  0
 12 13  1  0
 13 14  2  0
 13 15  1  0
 15 16  1  0
 16 17  1  0
 17 18  2  0
 18 19  1  0
 19 20  1  0
 20 21  2  0
 21 22  1  0
 22 23  2  0
 23 24  1  0
 24 25  2  0
 15 26  1  0
 26 27  2  0
 27 28  1  0
 28 29  2  0
 29 30  1  0
 30 31  1  0
 31 32  1  0
 32 33  1  0
 33 34  2  0
 34 35  1  0
 35 36  1  0
 30 37  2  0
 11  6  1  0
 25 17  1  0
 37 26  1  0
 25 20  1  0
 36 32  2  0
  1 38  1  0
  4 39  1  1
  5 40  1  0
  5 41  1  0
  7 42  1  0
  8 43  1  0
  9 44  1  0
 10 45  1  0
 11 46  1  0
 12 47  1  0
 15 48  1  6
 16 49  1  0
 16 50  1  0
 18 51  1  0
 19 52  1  0
 21 53  1  0
 22 54  1  0
 23 55  1  0
 24 56  1  0
 27 57  1  0
 28 58  1  0
 29 59  1  0
 31 60  1  0
 31 61  1  0
 33 62  1  0
 34 63  1  0
 36 64  1  0
M  CHG  1   1  -1
M  END
>  <UniqueID>  (65) 
61

>  <SMILES>  (65) 
[NH-]C(=O)[C@@H](Cc1ccccc1)NC(=O)[C@H](Cc1c[nH]c2ccccc12)c1cccc(Cc2ccsc2)n1

>  <Energy>  (65) 
115.72984168807035

>  <Genealogy>  (65) 
[NH-]C(=O)C(Cc1ccccc1)NC(=O)C(Cc1c[nH]c2ccccc12)c1cccc(Cc2ccsc2)n1 (protonated)
[NH-]C(=O)[C@@H](Cc1ccccc1)NC(=O)[C@H](Cc1c[nH]c2ccccc12)c1cccc(Cc2ccsc2)n1 (chirality)
[NH-]C(=O)[C@@H](Cc1ccccc1)NC(=O)[C@H](Cc1c[nH]c2ccccc12)c1cccc(Cc2ccsc2)n1 (3D coordinates assigned)
[NH-]C(=O)[C@@H](Cc1ccccc1)NC(=O)[C@H](Cc1c[nH]c2ccccc12)c1cccc(Cc2ccsc2)n1 (optimized conformer: 115.72984168807035 kcal/mol)

>  <smiles>  (65) 
NC(=O)C(Cc1ccccc1)NC(=O)C(Cc1c[nH]c2ccccc12)c1cccc(Cc2ccsc2)n1

>  <score_type>  (65) 
oracle

>  <origin>  (65) 
adg

>  <m_score__min__energy>  (65) 
-14.42

>  <m_primary>  (65) 
energy

$$$$
65:0
     RDKit          3D

 68 71  0  0  0  0  0  0  0  0999 V2000
   53.9180   24.6080   45.3990 C   0  0  0  0  0  0  0  0  0  0  0  0
   54.3220   25.9580   45.6260 O   0  0  0  0  0  0  0  0  0  0  0  0
   55.6120   26.2980   46.0400 C   0  0  0  0  0  0  0  0  0  0  0  0
   56.2850   25.5100   46.7650 O   0  0  0  0  0  0  0  0  0  0  0  0
   56.1680   27.5450   45.6150 N   0  0  0  0  0  0  0  0  0  0  0  0
   57.5990   27.8240   45.5350 C   0  0  0  0  0  0  0  0  0  0  0  0
   58.1480   28.2320   46.9050 C   0  0  0  0  0  0  0  0  0  0  0  0
   59.5000   27.1780   47.4070 S   0  0  0  0  0  0  0  0  0  0  0  0
   58.9280   25.8830   47.9110 O   0  0  0  0  0  0  0  0  0  0  0  0
   60.4130   26.9030   46.2460 O   0  0  0  0  0  0  0  0  0  0  0  0
   60.3890   27.9950   48.6550 N   0  0  0  0  0  0  0  0  0  0  0  0
   59.8530   28.9010   49.6230 C   0  0  0  0  0  0  0  0  0  0  0  0
   58.6110   29.1050   49.6380 O   0  0  0  0  0  0  0  0  0  0  0  0
   60.7120   29.6420   50.5750 C   0  0  0  0  0  0  0  0  0  0  0  0
   60.6620   31.0430   50.5570 C   0  0  0  0  0  0  0  0  0  0  0  0
   61.3910   31.7840   51.4850 C   0  0  0  0  0  0  0  0  0  0  0  0
   61.3400   33.1840   51.4030 O   0  0  0  0  0  0  0  0  0  0  0  0
   61.3420   33.9440   50.1930 C   0  0  1  0  0  0  0  0  0  0  0  0
   62.6100   33.6680   49.3910 C   0  0  0  0  0  0  0  0  0  0  0  0
   62.1930   33.7990   47.9330 C   0  0  0  0  0  0  0  0  0  0  0  0
   60.7510   33.6030   47.9240 N   0  0  0  0  0  0  0  0  0  0  0  0
   59.9690   33.4080   46.7280 C   0  0  0  0  0  0  0  0  0  0  0  0
   59.5240   32.1190   46.3760 C   0  0  0  0  0  0  0  0  0  0  0  0
   58.7710   31.9150   45.2170 C   0  0  0  0  0  0  0  0  0  0  0  0
   58.4320   33.0030   44.3940 C   0  0  0  0  0  0  0  0  0  0  0  0
   57.6510   32.8670   43.2370 O   0  0  0  0  0  0  0  0  0  0  0  0
   57.7560   31.8130   42.2800 C   0  0  0  0  0  0  0  0  0  0  0  0
   56.6160   30.7910   42.4440 C   0  0  0  0  0  0  0  0  0  0  0  0
   57.0270   29.4270   42.9940 C   0  0  0  0  0  0  0  0  0  0  0  0
   56.2830   30.4050   43.8820 C   0  0  0  0  0  0  0  0  0  0  0  0
   58.8750   34.2850   44.7410 C   0  0  0  0  0  0  0  0  0  0  0  0
   59.6420   34.4930   45.8910 C   0  0  0  0  0  0  0  0  0  0  0  0
   60.0290   35.7570   46.1920 F   0  0  0  0  0  0  0  0  0  0  0  0
   60.1970   33.5380   49.2680 C   0  0  0  0  0  0  0  0  0  0  0  0
   62.1410   31.1040   52.4530 C   0  0  0  0  0  0  0  0  0  0  0  0
   62.1920   29.7050   52.4440 C   0  0  0  0  0  0  0  0  0  0  0  0
   62.8790   29.1190   53.3270 O   0  0  0  0  0  0  0  0  0  0  0  0
   61.5090   28.9860   51.4930 N   0  0  0  0  0  0  0  0  0  0  0  0
   61.6030   27.5130   51.4750 C   0  0  0  0  0  0  0  0  0  0  0  0
   53.7669   24.1032   46.3646 H   0  0  0  0  0  0  0  0  0  0  0  0
   52.9774   24.5977   44.8287 H   0  0  0  0  0  0  0  0  0  0  0  0
   54.6983   24.0827   44.8287 H   0  0  0  0  0  0  0  0  0  0  0  0
   58.1242   26.9213   45.1897 H   0  0  0  0  0  0  0  0  0  0  0  0
   57.7591   28.6521   44.8288 H   0  0  0  0  0  0  0  0  0  0  0  0
   58.5051   29.2711   46.8523 H   0  0  0  0  0  0  0  0  0  0  0  0
   57.3398   28.1335   47.6446 H   0  0  0  0  0  0  0  0  0  0  0  0
   60.0447   31.5594   49.8072 H   0  0  0  0  0  0  0  0  0  0  0  0
   61.2560   34.9970   50.4993 H   0  0  0  0  0  0  0  0  0  0  0  0
   63.3903   34.4032   49.6371 H   0  0  0  0  0  0  0  0  0  0  0  0
   63.0299   32.6756   49.6122 H   0  0  0  0  0  0  0  0  0  0  0  0
   62.4480   34.7974   47.5480 H   0  0  0  0  0  0  0  0  0  0  0  0
   62.7090   33.0683   47.2929 H   0  0  0  0  0  0  0  0  0  0  0  0
   59.7721   31.2631   47.0209 H   0  0  0  0  0  0  0  0  0  0  0  0
   58.4425   30.9003   44.9478 H   0  0  0  0  0  0  0  0  0  0  0  0
   57.7094   32.2421   41.2682 H   0  0  0  0  0  0  0  0  0  0  0  0
   58.7126   31.2939   42.4397 H   0  0  0  0  0  0  0  0  0  0  0  0
   56.0408   31.1417   41.5744 H   0  0  0  0  0  0  0  0  0  0  0  0
   56.5237   28.5163   42.6372 H   0  0  0  0  0  0  0  0  0  0  0  0
   57.9748   28.8740   43.0709 H   0  0  0  0  0  0  0  0  0  0  0  0
   55.2406   30.2028   44.1691 H   0  0  0  0  0  0  0  0  0  0  0  0
   56.4689   30.8536   44.8690 H   0  0  0  0  0  0  0  0  0  0  0  0
   58.6159   35.1404   44.0998 H   0  0  0  0  0  0  0  0  0  0  0  0
   59.3522   34.2349   49.3711 H   0  0  0  0  0  0  0  0  0  0  0  0
   59.8120   32.5354   49.5060 H   0  0  0  0  0  0  0  0  0  0  0  0
   62.6900   31.6693   53.2204 H   0  0  0  0  0  0  0  0  0  0  0  0
   61.6272   27.1345   52.5075 H   0  0  0  0  0  0  0  0  0  0  0  0
   60.7296   27.0962   50.9520 H   0  0  0  0  0  0  0  0  0  0  0  0
   62.5223   27.2106   50.9520 H   0  0  0  0  0  0  0  0  0  0  0  0
  1  2  1  0
  2  3  1  0
  3  4  2  0
  3  5  1  0
  5  6  1  0
  6  7  1  0
  7  8  1  0
  8  9  2  0
  8 10  2  0
  8 11  1  0
 11 12  1  0
 12 13  2  0
 12 14  1  0
 14 15  2  0
 15 16  1  0
 16 17  1  0
 17 18  1  0
 18 19  1  0
 19 20  1  0
 20 21  1  0
 21 22  1  0
 22 23  2  0
 23 24  1  0
 24 25  2  0
 25 26  1  0
 26 27  1  0
 27 28  1  0
 28 29  1  0
 29 30  1  0
 25 31  1  0
 31 32  2  0
 32 33  1  0
 21 34  1  0
 16 35  2  0
 35 36  1  0
 36 37  2  0
 36 38  1  0
 38 39  1  0
 38 14  1  0
 34 18  1  0
 32 22  1  0
 30 28  1  0
  1 40  1  0
  1 41  1  0
  1 42  1  0
  6 43  1  0
  6 44  1  0
  7 45  1  0
  7 46  1  0
 15 47  1  0
 18 48  1  1
 19 49  1  0
 19 50  1  0
 20 51  1  0
 20 52  1  0
 23 53  1  0
 24 54  1  0
 27 55  1  0
 27 56  1  0
 28 57  1  0
 29 58  1  0
 29 59  1  0
 30 60  1  0
 30 61  1  0
 31 62  1  0
 34 63  1  0
 34 64  1  0
 35 65  1  0
 39 66  1  0
 39 67  1  0
 39 68  1  0
M  CHG  2   5  -1  11  -1
M  END
>  <UniqueID>  (66) 
62

>  <SMILES>  (66) 
COC(=O)[N-]CCS(=O)(=O)[N-]C(=O)c1cc(O[C@H]2CCN(c3ccc(OCC4CC4)cc3F)C2)cc(=O)n1C

>  <Energy>  (66) 
344.57394253870916

>  <Genealogy>  (66) 
COC(=O)[N-]CCS(=O)(=O)[N-]C(=O)c1cc(OC2CCN(c3ccc(OCC4CC4)cc3F)C2)cc(=O)n1C (protonated)
COC(=O)[N-]CCS(=O)(=O)[N-]C(=O)c1cc(O[C@H]2CCN(c3ccc(OCC4CC4)cc3F)C2)cc(=O)n1C (chirality)
COC(=O)[N-]CCS(=O)(=O)[N-]C(=O)c1cc(O[C@H]2CCN(c3ccc(OCC4CC4)cc3F)C2)cc(=O)n1C (3D coordinates assigned)
COC(=O)[N-]CCS(=O)(=O)[N-]C(=O)c1cc(O[C@H]2CCN(c3ccc(OCC4CC4)cc3F)C2)cc(=O)n1C (nonaromatic ring conformer: 344.57394253870916 kcal/mol)

>  <smiles>  (66) 
COC(=O)NCCS(=O)(=O)NC(=O)c1cc(OC2CCN(c3ccc(OCC4CC4)cc3F)C2)cc(=O)n1C

>  <score_type>  (66) 
oracle

>  <origin>  (66) 
adg

>  <m_score__min__energy>  (66) 
-12.68

>  <m_primary>  (66) 
energy

$$$$
66:0
     RDKit          3D

 58 60  0  0  0  0  0  0  0  0999 V2000
   55.1800   23.5960   46.0530 C   0  0  0  0  0  0  0  0  0  0  0  0
   56.0870   24.4820   45.3240 N   0  0  0  0  0  0  0  0  0  0  0  0
   56.5920   24.0780   44.0100 C   0  0  0  0  0  0  0  0  0  0  0  0
   56.2140   25.8530   45.7320 C   0  0  0  0  0  0  0  0  0  0  0  0
   55.1730   26.5140   45.9990 O   0  0  0  0  0  0  0  0  0  0  0  0
   57.5440   26.4910   45.8750 C   0  0  0  0  0  0  0  0  0  0  0  0
   58.6150   25.7800   46.4420 C   0  0  0  0  0  0  0  0  0  0  0  0
   59.8840   26.3610   46.5240 C   0  0  0  0  0  0  0  0  0  0  0  0
   60.1030   27.6450   46.0220 C   0  0  0  0  0  0  0  0  0  0  0  0
   59.0490   28.3620   45.4370 C   0  0  0  0  0  0  0  0  0  0  0  0
   59.2940   29.7330   44.8630 C   0  0  0  0  0  0  0  0  0  0  0  0
   58.1480   30.1860   44.0490 N   0  0  0  0  0  0  0  0  0  0  0  0
   57.5200   31.4730   44.4380 C   0  0  0  0  0  0  0  0  0  0  0  0
   57.7700   31.8240   45.9180 C   0  0  0  0  0  0  0  0  0  0  0  0
   57.3890   33.2850   46.1820 C   0  0  0  0  0  0  0  0  0  0  0  0
   58.2030   34.2450   45.3880 N   0  0  0  0  0  0  0  0  0  0  0  0
   59.2680   34.8790   46.1980 C   0  0  0  0  0  0  0  0  0  0  0  0
   60.5720   34.0720   46.1250 C   0  0  0  0  0  0  0  0  0  0  0  0
   60.6990   33.1340   47.2960 C   0  0  0  0  0  0  0  0  0  0  0  0
   61.2670   31.8630   47.1310 C   0  0  0  0  0  0  0  0  0  0  0  0
   61.3430   30.9970   48.2240 C   0  0  0  0  0  0  0  0  0  0  0  0
   60.8630   31.3810   49.4380 N   0  0  0  0  0  0  0  0  0  0  0  0
   60.2960   32.6050   49.6210 C   0  0  0  0  0  0  0  0  0  0  0  0
   60.1990   33.5010   48.5540 C   0  0  0  0  0  0  0  0  0  0  0  0
   58.7660   33.6860   44.1340 C   0  0  0  0  0  0  0  0  0  0  0  0
   57.8330   32.6550   43.4800 C   0  0  0  0  0  0  0  0  0  0  0  0
   57.7670   27.7890   45.3850 C   0  0  0  0  0  0  0  0  0  0  0  0
   55.3224   23.7351   47.1348 H   0  0  0  0  0  0  0  0  0  0  0  0
   54.1401   23.8357   45.7862 H   0  0  0  0  0  0  0  0  0  0  0  0
   55.3953   22.5508   45.7862 H   0  0  0  0  0  0  0  0  0  0  0  0
   57.4450   23.3956   44.1390 H   0  0  0  0  0  0  0  0  0  0  0  0
   55.7941   23.5662   43.4520 H   0  0  0  0  0  0  0  0  0  0  0  0
   56.9162   24.9688   43.4520 H   0  0  0  0  0  0  0  0  0  0  0  0
   58.4542   24.7608   46.8234 H   0  0  0  0  0  0  0  0  0  0  0  0
   60.7128   25.8043   46.9857 H   0  0  0  0  0  0  0  0  0  0  0  0
   61.1045   28.0955   46.0854 H   0  0  0  0  0  0  0  0  0  0  0  0
   59.4513   30.4439   45.6875 H   0  0  0  0  0  0  0  0  0  0  0  0
   60.1823   29.6851   44.2160 H   0  0  0  0  0  0  0  0  0  0  0  0
   58.4780   30.2850   43.0590 H   0  0  0  0  0  0  0  0  0  0  0  0
   56.4385   31.3062   44.3263 H   0  0  0  0  0  0  0  0  0  0  0  0
   57.1602   31.1675   46.5561 H   0  0  0  0  0  0  0  0  0  0  0  0
   58.8363   31.6818   46.1476 H   0  0  0  0  0  0  0  0  0  0  0  0
   56.3291   33.4243   45.9228 H   0  0  0  0  0  0  0  0  0  0  0  0
   57.5789   33.4901   47.2459 H   0  0  0  0  0  0  0  0  0  0  0  0
   59.4522   35.8946   45.8177 H   0  0  0  0  0  0  0  0  0  0  0  0
   58.9363   34.9131   47.2463 H   0  0  0  0  0  0  0  0  0  0  0  0
   60.5797   33.4864   45.1939 H   0  0  0  0  0  0  0  0  0  0  0  0
   61.4179   34.7747   46.1487 H   0  0  0  0  0  0  0  0  0  0  0  0
   61.6498   31.5503   46.1483 H   0  0  0  0  0  0  0  0  0  0  0  0
   61.7927   30.0004   48.1030 H   0  0  0  0  0  0  0  0  0  0  0  0
   60.9270   30.7210   50.2450 H   0  0  0  0  0  0  0  0  0  0  0  0
   59.9131   32.8892   50.6122 H   0  0  0  0  0  0  0  0  0  0  0  0
   59.7339   34.4872   48.6992 H   0  0  0  0  0  0  0  0  0  0  0  0
   58.9344   34.5097   43.4247 H   0  0  0  0  0  0  0  0  0  0  0  0
   59.7056   33.1736   44.3881 H   0  0  0  0  0  0  0  0  0  0  0  0
   56.8901   33.1509   43.2061 H   0  0  0  0  0  0  0  0  0  0  0  0
   58.3390   32.2506   42.5909 H   0  0  0  0  0  0  0  0  0  0  0  0
   56.9308   28.3614   44.9570 H   0  0  0  0  0  0  0  0  0  0  0  0
  1  2  1  0
  2  3  1  0
  2  4  1  0
  4  5  2  0
  4  6  1  0
  6  7  2  0
  7  8  1  0
  8  9  2  0
  9 10  1  0
 10 11  1  0
 11 12  1  0
 12 13  1  0
 13 14  1  0
 14 15  1  0
 15 16  1  0
 16 17  1  0
 17 18  1  0
 18 19  1  0
 19 20  2  0
 20 21  1  0
 21 22  2  0
 22 23  1  0
 23 24  2  0
 16 25  1  0
 25 26  1  0
 10 27  2  0
 27  6  1  0
 26 13  1  0
 24 19  1  0
  1 28  1  0
  1 29  1  0
  1 30  1  0
  3 31  1  0
  3 32  1  0
  3 33  1  0
  7 34  1  0
  8 35  1  0
  9 36  1  0
 11 37  1  0
 11 38  1  0
 12 39  1  0
 13 40  1  0
 14 41  1  0
 14 42  1  0
 15 43  1  0
 15 44  1  0
 17 45  1  0
 17 46  1  0
 18 47  1  0
 18 48  1  0
 20 49  1  0
 21 50  1  0
 22 51  1  0
 23 52  1  0
 24 53  1  0
 25 54  1  0
 25 55  1  0
 26 56  1  0
 26 57  1  0
 27 58  1  0
M  CHG  1  22   1
M  END
>  <UniqueID>  (67) 
63

>  <SMILES>  (67) 
CN(C)C(=O)c1cccc(CNC2CCN(CCc3cc[nH+]cc3)CC2)c1

>  <Energy>  (67) 
72.29613063159786

>  <Genealogy>  (67) 
CN(C)C(=O)c1cccc(CNC2CCN(CCc3cc[nH+]cc3)CC2)c1 (protonated)
CN(C)C(=O)c1cccc(CNC2CCN(CCc3cc[nH+]cc3)CC2)c1 (3D coordinates assigned)
CN(C)C(=O)c1cccc(CNC2CCN(CCc3cc[nH+]cc3)CC2)c1 (nonaromatic ring conformer: 72.29613063159786 kcal/mol)

>  <smiles>  (67) 
CN(C)C(=O)c1cccc(CNC2CCN(CCc3ccncc3)CC2)c1

>  <score_type>  (67) 
oracle

>  <origin>  (67) 
adg

>  <m_score__min__energy>  (67) 
-8.3000000000000007

>  <m_primary>  (67) 
energy

$$$$
67:0
     RDKit          3D

 43 44  0  0  0  0  0  0  0  0999 V2000
   59.1650   31.1470   45.7950 C   0  0  0  0  0  0  0  0  0  0  0  0
   58.3070   30.7360   44.6040 C   0  0  0  0  0  0  0  0  0  0  0  0
   56.9500   30.5570   44.9970 O   0  0  0  0  0  0  0  0  0  0  0  0
   56.3050   29.3150   45.0050 C   0  0  0  0  0  0  0  0  0  0  0  0
   55.1830   29.1700   44.4520 O   0  0  0  0  0  0  0  0  0  0  0  0
   56.9410   28.1660   45.6630 C   0  0  0  0  0  0  0  0  0  0  0  0
   58.2520   28.1240   45.9780 N   0  0  0  0  0  0  0  0  0  0  0  0
   58.4450   26.9310   46.5800 C   0  0  0  0  0  0  0  0  0  0  0  0
   59.7000   26.5650   47.1810 N   0  0  0  0  0  0  0  0  0  0  0  0
   60.7240   26.3810   46.1480 C   0  0  0  0  0  0  0  0  0  0  0  0
   57.2560   26.2150   46.6780 C   0  0  0  0  0  0  0  0  0  0  0  0
   57.0440   24.9180   47.3530 C   0  0  0  0  0  0  0  0  0  0  0  0
   57.7610   24.6060   48.3420 O   0  0  0  0  0  0  0  0  0  0  0  0
   55.9250   23.9980   46.9540 C   0  0  0  0  0  0  0  0  0  0  0  0
   56.2830   23.2800   45.6790 C   0  0  0  0  0  0  0  0  0  0  0  0
   55.9280   23.8450   44.4420 C   0  0  0  0  0  0  0  0  0  0  0  0
   56.2960   23.2210   43.2490 C   0  0  0  0  0  0  0  0  0  0  0  0
   57.0280   22.0330   43.2780 C   0  0  0  0  0  0  0  0  0  0  0  0
   57.4010   21.4670   44.5000 C   0  0  0  0  0  0  0  0  0  0  0  0
   57.0370   22.0860   45.7130 C   0  0  0  0  0  0  0  0  0  0  0  0
   57.4150   21.5520   46.9550 O   0  0  0  0  0  0  0  0  0  0  0  0
   57.3700   20.1700   47.2910 C   0  0  0  0  0  0  0  0  0  0  0  0
   56.3070   27.0130   46.0760 C   0  0  0  0  0  0  0  0  0  0  0  0
   54.9600   26.7160   45.9040 O   0  0  0  0  0  0  0  0  0  0  0  0
   58.6406   30.8958   46.7288 H   0  0  0  0  0  0  0  0  0  0  0  0
   60.1248   30.6109   45.7579 H   0  0  0  0  0  0  0  0  0  0  0  0
   59.3488   32.2309   45.7579 H   0  0  0  0  0  0  0  0  0  0  0  0
   58.3592   31.5199   43.8341 H   0  0  0  0  0  0  0  0  0  0  0  0
   58.6879   29.7836   44.2066 H   0  0  0  0  0  0  0  0  0  0  0  0
   60.0090   27.2970   47.8590 H   0  0  0  0  0  0  0  0  0  0  0  0
   59.5780   25.6660   47.7030 H   0  0  0  0  0  0  0  0  0  0  0  0
   61.6993   26.2058   46.6256 H   0  0  0  0  0  0  0  0  0  0  0  0
   60.4617   25.5156   45.5217 H   0  0  0  0  0  0  0  0  0  0  0  0
   60.7793   27.2836   45.5217 H   0  0  0  0  0  0  0  0  0  0  0  0
   55.7561   23.2609   47.7529 H   0  0  0  0  0  0  0  0  0  0  0  0
   55.0104   24.5877   46.7936 H   0  0  0  0  0  0  0  0  0  0  0  0
   55.3567   24.7846   44.4139 H   0  0  0  0  0  0  0  0  0  0  0  0
   56.0088   23.6660   42.2849 H   0  0  0  0  0  0  0  0  0  0  0  0
   57.3121   21.5408   42.3362 H   0  0  0  0  0  0  0  0  0  0  0  0
   57.9820   20.5331   44.5154 H   0  0  0  0  0  0  0  0  0  0  0  0
   57.3664   20.0586   48.3853 H   0  0  0  0  0  0  0  0  0  0  0  0
   56.4567   19.7207   46.8737 H   0  0  0  0  0  0  0  0  0  0  0  0
   58.2521   19.6623   46.8737 H   0  0  0  0  0  0  0  0  0  0  0  0
  1  2  1  0
  2  3  1  0
  3  4  1  0
  4  5  2  0
  4  6  1  0
  6  7  1  0
  7  8  1  0
  8  9  1  0
  9 10  1  0
  8 11  2  0
 11 12  1  0
 12 13  2  0
 12 14  1  0
 14 15  1  0
 15 16  2  0
 16 17  1  0
 17 18  2  0
 18 19  1  0
 19 20  2  0
 20 21  1  0
 21 22  1  0
 11 23  1  0
 23 24  1  0
 23  6  2  0
 20 15  1  0
  1 25  1  0
  1 26  1  0
  1 27  1  0
  2 28  1  0
  2 29  1  0
  9 30  1  0
  9 31  1  0
 10 32  1  0
 10 33  1  0
 10 34  1  0
 14 35  1  0
 14 36  1  0
 16 37  1  0
 17 38  1  0
 18 39  1  0
 19 40  1  0
 22 41  1  0
 22 42  1  0
 22 43  1  0
M  CHG  3   7  -1   9   1  24  -1
M  END
>  <UniqueID>  (68) 
64

>  <SMILES>  (68) 
CCOC(=O)c1[n-]c([NH2+]C)c(C(=O)Cc2ccccc2OC)c1[O-]

>  <Energy>  (68) 
63.98431276189187

>  <Genealogy>  (68) 
CCOC(=O)c1[n-]c([NH2+]C)c(C(=O)Cc2ccccc2OC)c1[O-] (protonated)
CCOC(=O)c1[n-]c([NH2+]C)c(C(=O)Cc2ccccc2OC)c1[O-] (3D coordinates assigned)
CCOC(=O)c1[n-]c([NH2+]C)c(C(=O)Cc2ccccc2OC)c1[O-] (optimized conformer: 63.98431276189187 kcal/mol)

>  <smiles>  (68) 
CCOC(=O)c1[nH]c(NC)c(C(=O)Cc2ccccc2OC)c1O

>  <score_type>  (68) 
oracle

>  <origin>  (68) 
adg

>  <m_score__min__energy>  (68) 
-11.01

>  <m_primary>  (68) 
energy

$$$$
68:0
     RDKit          3D

 56 59  0  0  0  0  0  0  0  0999 V2000
   55.1460   29.3500   44.9940 N   0  0  0  0  0  0  0  0  0  0  0  0
   56.5040   29.4190   44.5620 C   0  0  0  0  0  0  0  0  0  0  0  0
   57.1590   28.3520   44.4240 O   0  0  0  0  0  0  0  0  0  0  0  0
   57.1390   30.7290   44.2840 C   0  0  0  0  0  0  0  0  0  0  0  0
   57.4120   31.1260   42.9630 C   0  0  0  0  0  0  0  0  0  0  0  0
   58.0010   32.3670   42.7050 C   0  0  0  0  0  0  0  0  0  0  0  0
   58.3230   33.2260   43.7580 C   0  0  0  0  0  0  0  0  0  0  0  0
   58.0580   32.8480   45.0810 C   0  0  0  0  0  0  0  0  0  0  0  0
   58.3980   33.7690   46.2230 C   0  0  0  0  0  0  0  0  0  0  0  0
   59.6180   33.3000   46.9070 N   0  0  0  0  0  0  0  0  0  0  0  0
   59.4290   33.2260   48.3690 C   0  0  0  0  0  0  0  0  0  0  0  0
   60.6140   32.4950   49.0350 C   0  0  0  0  0  0  0  0  0  0  0  0
   61.8700   32.4480   48.1340 C   0  0  0  0  0  0  0  0  0  0  0  0
   61.7700   31.3450   47.1650 N   0  0  0  0  0  0  0  0  0  0  0  0
   60.8890   30.2130   47.2990 C   0  0  0  0  0  0  0  0  0  0  0  0
   60.8180   29.5460   48.5310 C   0  0  0  0  0  0  0  0  0  0  0  0
   59.9690   28.4480   48.6980 C   0  0  0  0  0  0  0  0  0  0  0  0
   59.1910   27.9840   47.6330 C   0  0  0  0  0  0  0  0  0  0  0  0
   58.3370   26.8930   47.8470 O   0  0  0  0  0  0  0  0  0  0  0  0
   57.7800   26.0870   46.8450 C   0  0  0  0  0  0  0  0  0  0  0  0
   56.3990   26.0790   46.5760 C   0  0  0  0  0  0  0  0  0  0  0  0
   55.8850   25.2730   45.5570 C   0  0  0  0  0  0  0  0  0  0  0  0
   56.7440   24.4830   44.7870 C   0  0  0  0  0  0  0  0  0  0  0  0
   58.1180   24.5030   45.0340 C   0  0  0  0  0  0  0  0  0  0  0  0
   58.6350   25.3070   46.0550 C   0  0  0  0  0  0  0  0  0  0  0  0
   59.2530   28.6500   46.3980 C   0  0  0  0  0  0  0  0  0  0  0  0
   60.1000   29.7500   46.2280 C   0  0  0  0  0  0  0  0  0  0  0  0
   62.0270   33.7980   47.4080 C   0  0  0  0  0  0  0  0  0  0  0  0
   60.7750   34.1590   46.5750 C   0  0  0  0  0  0  0  0  0  0  0  0
   57.4740   31.5970   45.3390 C   0  0  0  0  0  0  0  0  0  0  0  0
   54.3640   29.3500   44.3030 H   0  0  0  0  0  0  0  0  0  0  0  0
   57.1605   30.4559   42.1277 H   0  0  0  0  0  0  0  0  0  0  0  0
   58.2118   32.6683   41.6683 H   0  0  0  0  0  0  0  0  0  0  0  0
   58.7858   34.2016   43.5483 H   0  0  0  0  0  0  0  0  0  0  0  0
   58.5665   34.7840   45.8339 H   0  0  0  0  0  0  0  0  0  0  0  0
   57.5638   33.7765   46.9399 H   0  0  0  0  0  0  0  0  0  0  0  0
   59.3585   34.2454   48.7762 H   0  0  0  0  0  0  0  0  0  0  0  0
   58.5051   32.6670   48.5787 H   0  0  0  0  0  0  0  0  0  0  0  0
   60.8700   33.0178   49.9684 H   0  0  0  0  0  0  0  0  0  0  0  0
   60.3008   31.4573   49.2221 H   0  0  0  0  0  0  0  0  0  0  0  0
   62.7579   32.2689   48.7581 H   0  0  0  0  0  0  0  0  0  0  0  0
   62.4150   31.3500   46.3410 H   0  0  0  0  0  0  0  0  0  0  0  0
   61.4360   29.8901   49.3734 H   0  0  0  0  0  0  0  0  0  0  0  0
   59.9126   27.9452   49.6748 H   0  0  0  0  0  0  0  0  0  0  0  0
   55.7214   26.7097   47.1702 H   0  0  0  0  0  0  0  0  0  0  0  0
   54.8028   25.2600   45.3602 H   0  0  0  0  0  0  0  0  0  0  0  0
   56.3376   23.8463   43.9873 H   0  0  0  0  0  0  0  0  0  0  0  0
   58.7947   23.8857   44.4249 H   0  0  0  0  0  0  0  0  0  0  0  0
   59.7193   25.3271   46.2390 H   0  0  0  0  0  0  0  0  0  0  0  0
   58.6314   28.3042   45.5589 H   0  0  0  0  0  0  0  0  0  0  0  0
   60.1502   30.2562   45.2527 H   0  0  0  0  0  0  0  0  0  0  0  0
   62.1943   34.5862   48.1568 H   0  0  0  0  0  0  0  0  0  0  0  0
   62.8803   33.7150   46.7188 H   0  0  0  0  0  0  0  0  0  0  0  0
   60.5070   35.2071   46.7739 H   0  0  0  0  0  0  0  0  0  0  0  0
   61.0184   34.0032   45.5136 H   0  0  0  0  0  0  0  0  0  0  0  0
   57.2764   31.2927   46.3774 H   0  0  0  0  0  0  0  0  0  0  0  0
  1  2  1  0
  2  3  2  0
  2  4  1  0
  4  5  2  0
  5  6  1  0
  6  7  2  0
  7  8  1  0
  8  9  1  0
  9 10  1  0
 10 11  1  0
 11 12  1  0
 12 13  1  0
 13 14  1  0
 14 15  1  0
 15 16  2  0
 16 17  1  0
 17 18  2  0
 18 19  1  0
 19 20  1  0
 20 21  2  0
 21 22  1  0
 22 23  2  0
 23 24  1  0
 24 25  2  0
 18 26  1  0
 26 27  2  0
 13 28  1  0
 28 29  1  0
  8 30  2  0
 30  4  1  0
 29 10  1  0
 27 15  1  0
 25 20  1  0
  1 31  1  0
  5 32  1  0
  6 33  1  0
  7 34  1  0
  9 35  1  0
  9 36  1  0
 11 37  1  0
 11 38  1  0
 12 39  1  0
 12 40  1  0
 13 41  1  0
 14 42  1  0
 16 43  1  0
 17 44  1  0
 21 45  1  0
 22 46  1  0
 23 47  1  0
 24 48  1  0
 25 49  1  0
 26 50  1  0
 27 51  1  0
 28 52  1  0
 28 53  1  0
 29 54  1  0
 29 55  1  0
 30 56  1  0
M  CHG  1   1  -1
M  END
>  <UniqueID>  (69) 
65

>  <SMILES>  (69) 
[NH-]C(=O)c1cccc(CN2CCC(Nc3ccc(Oc4ccccc4)cc3)CC2)c1

>  <Energy>  (69) 
71.87150121358678

>  <Genealogy>  (69) 
[NH-]C(=O)c1cccc(CN2CCC(Nc3ccc(Oc4ccccc4)cc3)CC2)c1 (protonated)
[NH-]C(=O)c1cccc(CN2CCC(Nc3ccc(Oc4ccccc4)cc3)CC2)c1 (3D coordinates assigned)
[NH-]C(=O)c1cccc(CN2CCC(Nc3ccc(Oc4ccccc4)cc3)CC2)c1 (nonaromatic ring conformer: 71.87150121358678 kcal/mol)

>  <smiles>  (69) 
NC(=O)c1cccc(CN2CCC(Nc3ccc(Oc4ccccc4)cc3)CC2)c1

>  <score_type>  (69) 
oracle

>  <origin>  (69) 
adg

>  <m_score__min__energy>  (69) 
-12.880000000000001

>  <m_primary>  (69) 
energy

$$$$
69:0
     RDKit          3D

 54 57  0  0  0  0  0  0  0  0999 V2000
   56.2650   31.5700   52.6910 C   0  0  0  0  0  0  0  0  0  0  0  0
   55.5120   30.4610   52.7490 C   0  0  0  0  0  0  0  0  0  0  0  0
   54.1110   30.3800   52.7060 C   0  0  0  0  0  0  0  0  0  0  0  0
   53.1790   31.3110   52.4180 C   0  0  0  0  0  0  0  0  0  0  0  0
   52.2600   31.2770   51.2710 C   0  0  0  0  0  0  0  0  0  0  0  0
   52.3200   30.3500   50.2980 N   0  0  0  0  0  0  0  0  0  0  0  0
   51.3980   30.7740   49.4060 C   0  0  0  0  0  0  0  0  0  0  0  0
   51.1440   30.1480   48.3450 O   0  0  0  0  0  0  0  0  0  0  0  0
   50.7780   31.9280   49.7350 N   0  0  0  0  0  0  0  0  0  0  0  0
   51.3460   32.2420   50.9100 C   0  0  0  0  0  0  0  0  0  0  0  0
   51.0550   33.3980   51.6230 O   0  0  0  0  0  0  0  0  0  0  0  0
   53.7870   29.0720   53.0280 C   0  0  0  0  0  0  0  0  0  0  0  0
   54.9760   28.3920   53.1840 C   0  0  0  0  0  0  0  0  0  0  0  0
   55.0840   26.9380   53.5340 C   0  0  0  0  0  0  0  0  0  0  0  0
   56.0220   29.2330   53.0210 N   0  0  0  0  0  0  0  0  0  0  0  0
   57.4110   28.8840   53.1540 C   0  0  0  0  0  0  0  0  0  0  0  0
   57.8670   28.2660   54.3240 C   0  0  0  0  0  0  0  0  0  0  0  0
   59.1780   27.9360   54.4630 N   0  0  0  0  0  0  0  0  0  0  0  0
   60.0840   28.1690   53.4690 C   0  0  0  0  0  0  0  0  0  0  0  0
   61.5010   27.7840   53.6580 C   0  0  0  0  0  0  0  0  0  0  0  0
   62.1220   28.2230   54.6630 O   0  0  0  0  0  0  0  0  0  0  0  0
   62.1790   26.9120   52.7320 N   0  0  0  0  0  0  0  0  0  0  0  0
   61.4780   25.8140   52.0590 C   0  0  0  0  0  0  0  0  0  0  0  0
   62.3880   24.5830   52.0130 C   0  0  0  0  0  0  0  0  0  0  0  0
   63.6450   24.9080   51.4480 O   0  0  0  0  0  0  0  0  0  0  0  0
   64.3270   25.8220   52.2880 C   0  0  0  0  0  0  0  0  0  0  0  0
   63.5770   27.1560   52.3670 C   0  0  0  0  0  0  0  0  0  0  0  0
   59.6690   28.8020   52.2880 C   0  0  0  0  0  0  0  0  0  0  0  0
   58.3230   29.1690   52.1270 C   0  0  0  0  0  0  0  0  0  0  0  0
   57.8530   29.7700   50.9490 O   0  0  0  0  0  0  0  0  0  0  0  0
   58.6410   30.4700   50.0290 C   0  0  0  0  0  0  0  0  0  0  0  0
   58.5940   31.9600   50.0170 C   0  0  0  0  0  0  0  0  0  0  0  0
   59.4640   29.8690   49.2860 O   0  0  0  0  0  0  0  0  0  0  0  0
   57.3614   31.4933   52.7353 H   0  0  0  0  0  0  0  0  0  0  0  0
   55.7859   32.5559   52.5991 H   0  0  0  0  0  0  0  0  0  0  0  0
   53.0995   32.1702   53.1003 H   0  0  0  0  0  0  0  0  0  0  0  0
   52.7748   28.6558   53.1381 H   0  0  0  0  0  0  0  0  0  0  0  0
   55.0925   26.8239   54.6280 H   0  0  0  0  0  0  0  0  0  0  0  0
   54.2237   26.3952   53.1154 H   0  0  0  0  0  0  0  0  0  0  0  0
   56.0151   26.5283   53.1154 H   0  0  0  0  0  0  0  0  0  0  0  0
   57.1593   28.0458   55.1368 H   0  0  0  0  0  0  0  0  0  0  0  0
   59.4810   27.4720   55.3490 H   0  0  0  0  0  0  0  0  0  0  0  0
   60.5592   25.5709   52.6128 H   0  0  0  0  0  0  0  0  0  0  0  0
   61.2175   26.1173   51.0342 H   0  0  0  0  0  0  0  0  0  0  0  0
   62.5386   24.2074   53.0359 H   0  0  0  0  0  0  0  0  0  0  0  0
   61.9093   23.8137   51.3893 H   0  0  0  0  0  0  0  0  0  0  0  0
   64.4063   25.3930   53.2978 H   0  0  0  0  0  0  0  0  0  0  0  0
   65.3274   26.0054   51.8690 H   0  0  0  0  0  0  0  0  0  0  0  0
   64.0477   27.7963   53.1275 H   0  0  0  0  0  0  0  0  0  0  0  0
   63.6174   27.6568   51.3884 H   0  0  0  0  0  0  0  0  0  0  0  0
   60.3964   29.0105   51.4896 H   0  0  0  0  0  0  0  0  0  0  0  0
   58.5822   32.3348   51.0511 H   0  0  0  0  0  0  0  0  0  0  0  0
   59.4803   32.3506   49.4955 H   0  0  0  0  0  0  0  0  0  0  0  0
   57.6849   32.2940   49.4955 H   0  0  0  0  0  0  0  0  0  0  0  0
  1  2  2  0
  2  3  1  0
  3  4  2  3
  4  5  1  0
  5  6  1  0
  6  7  1  0
  7  8  2  0
  7  9  1  0
  9 10  1  0
 10 11  1  0
  3 12  1  0
 12 13  2  0
 13 14  1  0
 13 15  1  0
 15 16  1  0
 16 17  2  0
 17 18  1  0
 18 19  2  0
 19 20  1  0
 20 21  2  0
 20 22  1  0
 22 23  1  0
 23 24  1  0
 24 25  1  0
 25 26  1  0
 26 27  1  0
 19 28  1  0
 28 29  2  0
 29 30  1  0
 30 31  1  0
 31 32  1  0
 31 33  2  0
 15  2  1  0
 29 16  1  0
 10  5  2  0
 27 22  1  0
  1 34  1  0
  1 35  1  0
  4 36  1  0
 12 37  1  0
 14 38  1  0
 14 39  1  0
 14 40  1  0
 17 41  1  0
 18 42  1  0
 23 43  1  0
 23 44  1  0
 24 45  1  0
 24 46  1  0
 26 47  1  0
 26 48  1  0
 27 49  1  0
 27 50  1  0
 28 51  1  0
 32 52  1  0
 32 53  1  0
 32 54  1  0
M  CHG  4   6  -1   9  -1  11  -1  18   1
M  END
>  <UniqueID>  (70) 
66

>  <SMILES>  (70) 
C=c1c(=Cc2[n-]c(=O)[n-]c2[O-])cc(C)n1-c1c[nH+]c(C(=O)N2CCOCC2)cc1OC(C)=O

>  <Energy>  (70) 
141.47865138680643

>  <Genealogy>  (70) 
C=c1c(=Cc2[n-]c(=O)[n-]c2[O-])cc(C)n1-c1c[nH+]c(C(=O)N2CCOCC2)cc1OC(C)=O (protonated)
C=c1c(=Cc2[n-]c(=O)[n-]c2[O-])cc(C)n1-c1c[nH+]c(C(=O)N2CCOCC2)cc1OC(C)=O (3D coordinates assigned)
C=c1c(=Cc2[n-]c(=O)[n-]c2[O-])cc(C)n1-c1c[nH+]c(C(=O)N2CCOCC2)cc1OC(C)=O (nonaromatic ring conformer: 141.47865138680643 kcal/mol)

>  <smiles>  (70) 
C=c1c(=Cc2[nH]c(=O)[nH]c2O)cc(C)n1-c1cnc(C(=O)N2CCOCC2)cc1OC(C)=O

>  <score_type>  (70) 
oracle

>  <origin>  (70) 
adg

>  <m_score__min__energy>  (70) 
-15.24

>  <m_primary>  (70) 
energy

$$$$
70:0
     RDKit          3D

 51 54  0  0  0  0  0  0  0  0999 V2000
   58.9220   27.8660   45.1240 O   0  0  0  0  0  0  0  0  0  0  0  0
   57.7530   28.0450   45.5560 C   0  0  0  0  0  0  0  0  0  0  0  0
   57.1580   27.0530   46.5220 C   0  0  0  0  0  0  0  0  0  0  0  0
   56.7720   25.7780   45.8150 C   0  0  0  0  0  0  0  0  0  0  0  0
   57.7730   24.8750   45.4170 C   0  0  0  0  0  0  0  0  0  0  0  0
   57.4320   23.6740   44.7860 C   0  0  0  0  0  0  0  0  0  0  0  0
   56.0910   23.3620   44.5520 C   0  0  0  0  0  0  0  0  0  0  0  0
   55.0880   24.2460   44.9550 C   0  0  0  0  0  0  0  0  0  0  0  0
   55.4190   25.4490   45.5900 C   0  0  0  0  0  0  0  0  0  0  0  0
   54.4010   26.3070   45.9940 O   0  0  0  0  0  0  0  0  0  0  0  0
   57.0070   29.1760   45.0890 N   0  0  0  0  0  0  0  0  0  0  0  0
   57.4060   30.4140   45.1110 C   0  0  0  0  0  0  0  0  0  0  0  0
   57.2690   31.2290   44.0420 N   0  0  0  0  0  0  0  0  0  0  0  0
   57.8150   32.4530   44.2670 C   0  0  0  0  0  0  0  0  0  0  0  0
   58.4060   32.6030   45.5160 C   0  0  0  0  0  0  0  0  0  0  0  0
   59.2520   34.0310   46.0960 S   0  0  0  0  0  0  0  0  0  0  0  0
   59.7120   34.8460   44.9170 O   0  0  0  0  0  0  0  0  0  0  0  0
   58.2950   34.8650   46.9040 O   0  0  0  0  0  0  0  0  0  0  0  0
   60.6170   33.6040   47.1010 N   0  0  0  0  0  0  0  0  0  0  0  0
   61.8690   34.0570   46.4780 C   0  0  0  0  0  0  0  0  0  0  0  0
   63.0410   33.3940   47.2000 C   0  0  0  0  0  0  0  0  0  0  0  0
   62.8130   33.3570   48.6500 N   0  0  0  0  0  0  0  0  0  0  0  0
   63.8010   32.7390   49.4920 C   0  0  0  0  0  0  0  0  0  0  0  0
   65.1530   33.0980   49.3630 C   0  0  0  0  0  0  0  0  0  0  0  0
   66.1220   32.4900   50.1670 C   0  0  0  0  0  0  0  0  0  0  0  0
   65.7490   31.5260   51.1080 C   0  0  0  0  0  0  0  0  0  0  0  0
   64.4060   31.1640   51.2420 C   0  0  0  0  0  0  0  0  0  0  0  0
   63.4300   31.7690   50.4420 C   0  0  0  0  0  0  0  0  0  0  0  0
   62.0950   31.4150   50.6050 O   0  0  0  0  0  0  0  0  0  0  0  0
   61.7760   34.2020   49.2590 C   0  0  0  0  0  0  0  0  0  0  0  0
   60.4560   34.1690   48.4570 C   0  0  0  0  0  0  0  0  0  0  0  0
   58.2380   31.1680   46.3740 S   0  0  0  0  0  0  0  0  0  0  0  0
   57.8980   26.8221   47.3025 H   0  0  0  0  0  0  0  0  0  0  0  0
   56.2546   27.4950   46.9675 H   0  0  0  0  0  0  0  0  0  0  0  0
   58.8305   25.1141   45.6028 H   0  0  0  0  0  0  0  0  0  0  0  0
   58.2212   22.9743   44.4737 H   0  0  0  0  0  0  0  0  0  0  0  0
   55.8249   22.4200   44.0503 H   0  0  0  0  0  0  0  0  0  0  0  0
   54.0325   23.9959   44.7726 H   0  0  0  0  0  0  0  0  0  0  0  0
   57.7911   33.2604   43.5203 H   0  0  0  0  0  0  0  0  0  0  0  0
   61.8788   33.7714   45.4158 H   0  0  0  0  0  0  0  0  0  0  0  0
   61.9517   35.1513   46.5537 H   0  0  0  0  0  0  0  0  0  0  0  0
   63.1573   32.3654   46.8278 H   0  0  0  0  0  0  0  0  0  0  0  0
   63.9507   33.9803   47.0032 H   0  0  0  0  0  0  0  0  0  0  0  0
   65.4503   33.8598   48.6272 H   0  0  0  0  0  0  0  0  0  0  0  0
   67.1800   32.7709   50.0588 H   0  0  0  0  0  0  0  0  0  0  0  0
   66.5124   31.0525   51.7428 H   0  0  0  0  0  0  0  0  0  0  0  0
   64.1149   30.4009   51.9788 H   0  0  0  0  0  0  0  0  0  0  0  0
   61.5800   33.8428   50.2801 H   0  0  0  0  0  0  0  0  0  0  0  0
   62.1435   35.2388   49.2649 H   0  0  0  0  0  0  0  0  0  0  0  0
   59.7268   33.5564   49.0075 H   0  0  0  0  0  0  0  0  0  0  0  0
   60.1156   35.2086   48.3415 H   0  0  0  0  0  0  0  0  0  0  0  0
  1  2  2  0
  2  3  1  0
  3  4  1  0
  4  5  2  0
  5  6  1  0
  6  7  2  0
  7  8  1  0
  8  9  2  0
  9 10  1  0
  2 11  1  0
 11 12  2  3
 12 13  1  0
 13 14  1  0
 14 15  2  0
 15 16  1  0
 16 17  2  0
 16 18  2  0
 16 19  1  0
 19 20  1  0
 20 21  1  0
 21 22  1  0
 22 23  1  0
 23 24  2  0
 24 25  1  0
 25 26  2  0
 26 27  1  0
 27 28  2  0
 28 29  1  0
 22 30  1  0
 30 31  1  0
 15 32  1  0
  9  4  1  0
 32 12  1  0
 31 19  1  0
 28 23  1  0
  3 33  1  0
  3 34  1  0
  5 35  1  0
  6 36  1  0
  7 37  1  0
  8 38  1  0
 14 39  1  0
 20 40  1  0
 20 41  1  0
 21 42  1  0
 21 43  1  0
 24 44  1  0
 25 45  1  0
 26 46  1  0
 27 47  1  0
 30 48  1  0
 30 49  1  0
 31 50  1  0
 31 51  1  0
M  CHG  3  10  -1  13  -1  29  -1
M  END
>  <UniqueID>  (71) 
67

>  <SMILES>  (71) 
O=C(Cc1ccccc1[O-])N=c1[n-]cc(S(=O)(=O)N2CCN(c3ccccc3[O-])CC2)s1

>  <Energy>  (71) 
100.59244730160572

>  <Genealogy>  (71) 
O=C(Cc1ccccc1[O-])N=c1[n-]cc(S(=O)(=O)N2CCN(c3ccccc3[O-])CC2)s1 (protonated)
O=C(Cc1ccccc1[O-])N=c1[n-]cc(S(=O)(=O)N2CCN(c3ccccc3[O-])CC2)s1 (3D coordinates assigned)
O=C(Cc1ccccc1[O-])N=c1[n-]cc(S(=O)(=O)N2CCN(c3ccccc3[O-])CC2)s1 (nonaromatic ring conformer: 100.59244730160572 kcal/mol)

>  <smiles>  (71) 
O=C(Cc1ccccc1O)N=c1[nH]cc(S(=O)(=O)N2CCN(c3ccccc3O)CC2)s1

>  <score_type>  (71) 
oracle

>  <origin>  (71) 
adg

>  <m_score__min__energy>  (71) 
-16.460000000000001

>  <m_primary>  (71) 
energy

$$$$
71:0
     RDKit          3D

 62 65  0  0  0  0  0  0  0  0999 V2000
   60.1800   27.9480   47.2223 H   0  0  0  0  0  0  0  0  0  0  0  0
   59.4830   27.4630   46.5230 C   0  0  0  0  0  0  0  0  0  0  0  0
   59.3825   26.3676   46.5177 H   0  0  0  0  0  0  0  0  0  0  0  0
   58.7550   28.2080   45.6760 C   0  0  0  0  0  0  0  0  0  0  0  0
   57.8330   27.7370   44.7350 C   0  0  0  0  0  0  0  0  0  0  0  0
   57.5080   26.4530   44.4840 C   0  0  0  0  0  0  0  0  0  0  0  0
   57.6899   26.0632   43.4716 H   0  0  0  0  0  0  0  0  0  0  0  0
   56.9240   25.5390   45.4820 C   0  0  0  0  0  0  0  0  0  0  0  0
   57.5780   24.4720   45.9740 N   0  0  0  0  0  0  0  0  0  0  0  0
   56.7270   23.9830   46.9020 C   0  0  0  0  0  0  0  0  0  0  0  0
   56.9860   22.9570   47.5840 O   0  0  0  0  0  0  0  0  0  0  0  0
   55.5850   24.6860   47.0520 N   0  0  0  0  0  0  0  0  0  0  0  0
   55.7300   25.6760   46.1560 C   0  0  0  0  0  0  0  0  0  0  0  0
   54.8120   26.7080   45.9990 O   0  0  0  0  0  0  0  0  0  0  0  0
   57.3640   28.8540   44.0570 C   0  0  0  0  0  0  0  0  0  0  0  0
   56.6357   28.8640   43.2327 H   0  0  0  0  0  0  0  0  0  0  0  0
   57.9890   29.9500   44.6180 C   0  0  0  0  0  0  0  0  0  0  0  0
   57.7910   31.3660   44.1670 C   0  0  0  0  0  0  0  0  0  0  0  0
   57.6994   32.0213   45.0458 H   0  0  0  0  0  0  0  0  0  0  0  0
   58.6537   31.6822   43.5622 H   0  0  0  0  0  0  0  0  0  0  0  0
   56.8747   31.4334   43.5622 H   0  0  0  0  0  0  0  0  0  0  0  0
   58.8370   29.5600   45.5950 N   0  0  0  0  0  0  0  0  0  0  0  0
   59.6630   30.4320   46.3870 C   0  0  0  0  0  0  0  0  0  0  0  0
   61.0570   30.2930   46.3670 C   0  0  0  0  0  0  0  0  0  0  0  0
   61.5207   29.5076   45.7520 H   0  0  0  0  0  0  0  0  0  0  0  0
   61.8610   31.1490   47.1260 C   0  0  0  0  0  0  0  0  0  0  0  0
   62.9545   31.0306   47.1074 H   0  0  0  0  0  0  0  0  0  0  0  0
   61.2820   32.1590   47.9120 C   0  0  0  0  0  0  0  0  0  0  0  0
   62.1090   33.0290   48.7070 N   0  0  0  0  0  0  0  0  0  0  0  0
   61.9210   33.0740   50.1670 C   0  0  0  0  0  0  0  0  0  0  0  0
   60.9800   33.5978   50.3910 H   0  0  0  0  0  0  0  0  0  0  0  0
   61.8916   32.0414   50.5449 H   0  0  0  0  0  0  0  0  0  0  0  0
   63.0770   33.8080   50.8560 C   0  0  0  0  0  0  0  0  0  0  0  0
   62.9471   34.8932   50.7319 H   0  0  0  0  0  0  0  0  0  0  0  0
   63.0817   33.5574   51.9271 H   0  0  0  0  0  0  0  0  0  0  0  0
   64.3530   33.3960   50.2530 N   0  0  0  0  0  0  0  0  0  0  0  0
   65.4590   32.9670   51.0630 C   0  0  0  0  0  0  0  0  0  0  0  0
   66.6180   33.3910   50.8070 O   0  0  0  0  0  0  0  0  0  0  0  0
   65.2770   31.9620   52.1700 C   0  0  0  0  0  0  0  0  0  0  0  0
   66.0368   32.1449   52.9441 H   0  0  0  0  0  0  0  0  0  0  0  0
   64.2608   32.0815   52.5738 H   0  0  0  0  0  0  0  0  0  0  0  0
   65.4180   30.5420   51.6740 C   0  0  0  0  0  0  0  0  0  0  0  0
   64.3990   29.9410   51.2280 O   0  0  0  0  0  0  0  0  0  0  0  0
   66.6730   29.8320   51.7680 N   0  0  0  0  0  0  0  0  0  0  0  0
   67.8440   30.4530   52.3970 C   0  0  0  0  0  0  0  0  0  0  0  0
   67.7438   30.3999   53.4911 H   0  0  0  0  0  0  0  0  0  0  0  0
   68.7538   29.9189   52.0857 H   0  0  0  0  0  0  0  0  0  0  0  0
   67.9123   31.5058   52.0857 H   0  0  0  0  0  0  0  0  0  0  0  0
   66.7600   28.4650   51.2440 C   0  0  0  0  0  0  0  0  0  0  0  0
   66.8053   27.7534   52.0816 H   0  0  0  0  0  0  0  0  0  0  0  0
   65.8737   28.2511   50.6287 H   0  0  0  0  0  0  0  0  0  0  0  0
   67.6663   28.3652   50.6287 H   0  0  0  0  0  0  0  0  0  0  0  0
   64.5250   33.4640   48.7950 C   0  0  0  0  0  0  0  0  0  0  0  0
   65.2629   34.2445   48.5574 H   0  0  0  0  0  0  0  0  0  0  0  0
   64.8693   32.4814   48.4402 H   0  0  0  0  0  0  0  0  0  0  0  0
   63.2030   33.7960   48.0920 C   0  0  0  0  0  0  0  0  0  0  0  0
   62.9962   34.8718   48.1910 H   0  0  0  0  0  0  0  0  0  0  0  0
   63.2799   33.5315   47.0271 H   0  0  0  0  0  0  0  0  0  0  0  0
   59.8830   32.2890   47.9340 C   0  0  0  0  0  0  0  0  0  0  0  0
   59.4163   33.0683   48.5545 H   0  0  0  0  0  0  0  0  0  0  0  0
   59.0810   31.4350   47.1730 C   0  0  0  0  0  0  0  0  0  0  0  0
   57.9873   31.5507   47.1911 H   0  0  0  0  0  0  0  0  0  0  0  0
  1  2  1  0
  2  3  1  0
  2  4  2  0
  4  5  1  0
  5  6  2  0
  6  7  1  0
  6  8  1  0
  8  9  1  0
  9 10  1  0
 10 11  2  0
 10 12  1  0
 12 13  1  0
 13 14  1  0
  5 15  1  0
 15 16  1  0
 15 17  2  0
 17 18  1  0
 18 19  1  0
 18 20  1  0
 18 21  1  0
 17 22  1  0
 22 23  1  0
 23 24  2  0
 24 25  1  0
 24 26  1  0
 26 27  1  0
 26 28  2  0
 28 29  1  0
 29 30  1  0
 30 31  1  0
 30 32  1  0
 30 33  1  0
 33 34  1  0
 33 35  1  0
 33 36  1  0
 36 37  1  0
 37 38  2  0
 37 39  1  0
 39 40  1  0
 39 41  1  0
 39 42  1  0
 42 43  2  0
 42 44  1  0
 44 45  1  0
 45 46  1  0
 45 47  1  0
 45 48  1  0
 44 49  1  0
 49 50  1  0
 49 51  1  0
 49 52  1  0
 36 53  1  0
 53 54  1  0
 53 55  1  0
 53 56  1  0
 56 57  1  0
 56 58  1  0
 28 59  1  0
 59 60  1  0
 59 61  2  0
 61 62  1  0
 22  4  1  0
 61 23  1  0
 13  8  2  0
 56 29  1  0
M  CHG  3   9  -1  12  -1  14  -1
M  END
>  <UniqueID>  (72) 
68

>  <SMILES>  (72) 
C=c1/c(=C/c2[n-]c(=O)[n-]c2[O-])cc(C)n1-c1ccc(N2CCN(C(=O)CC(=O)N(C)C)CC2)cc1

>  <Energy>  (72) 
140.78621261208988

>  <Genealogy>  (72) 
C=c1c(=Cc2[n-]c(=O)[n-]c2[O-])cc(C)n1-c1ccc(N2CCN(C(=O)CC(=O)N(C)C)CC2)cc1 (protonated)
C=c1/c(=C/c2[n-]c(=O)[n-]c2[O-])cc(C)n1-c1ccc(N2CCN(C(=O)CC(=O)N(C)C)CC2)cc1 (cis-trans isomerization)
C=c1/c(=C/c2[n-]c(=O)[n-]c2[O-])cc(C)n1-c1ccc(N2CCN(C(=O)CC(=O)N(C)C)CC2)cc1 (3D coordinates assigned)
C=c1/c(=C/c2[n-]c(=O)[n-]c2[O-])cc(C)n1-c1ccc(N2CCN(C(=O)CC(=O)N(C)C)CC2)cc1 (nonaromatic ring conformer: 140.78621261208988 kcal/mol)

>  <smiles>  (72) 
C=c1c(=Cc2[nH]c(=O)[nH]c2O)cc(C)n1-c1ccc(N2CCN(C(=O)CC(=O)N(C)C)CC2)cc1

>  <score_type>  (72) 
oracle

>  <origin>  (72) 
adg

>  <m_score__min__energy>  (72) 
-16.890000000000001

>  <m_primary>  (72) 
energy

$$$$
72:0
     RDKit          3D

 37 39  0  0  0  0  0  0  0  0999 V2000
   56.6430   29.3370   42.7290 N   0  0  0  0  0  0  0  0  0  0  0  0
   56.5410   29.7960   44.3920 S   0  0  0  0  0  0  0  0  0  0  0  0
   55.6080   28.8650   45.1140 O   0  0  0  0  0  0  0  0  0  0  0  0
   55.9980   31.1940   44.4920 O   0  0  0  0  0  0  0  0  0  0  0  0
   58.1410   29.7210   45.1250 C   0  0  0  0  0  0  0  0  0  0  0  0
   58.8900   28.5400   45.0620 C   0  0  0  0  0  0  0  0  0  0  0  0
   60.1510   28.4770   45.6580 C   0  0  0  0  0  0  0  0  0  0  0  0
   60.6690   29.5910   46.3250 C   0  0  0  0  0  0  0  0  0  0  0  0
   59.9260   30.7830   46.4050 C   0  0  0  0  0  0  0  0  0  0  0  0
   60.4740   31.9670   47.1150 C   0  0  0  0  0  0  0  0  0  0  0  0
   59.6110   32.9000   47.7190 C   0  0  0  0  0  0  0  0  0  0  0  0
   60.1290   34.0080   48.3950 C   0  0  0  0  0  0  0  0  0  0  0  0
   61.5090   34.2010   48.4740 C   0  0  0  0  0  0  0  0  0  0  0  0
   62.3850   33.2900   47.8660 C   0  0  0  0  0  0  0  0  0  0  0  0
   63.8720   33.4700   47.9920 C   0  0  0  0  0  0  0  0  0  0  0  0
   64.3610   32.7580   49.1690 N   0  0  0  0  0  0  0  0  0  0  0  0
   65.5590   32.8980   49.7570 C   0  0  0  0  0  0  0  0  0  0  0  0
   65.6360   31.9780   50.7780 C   0  0  0  0  0  0  0  0  0  0  0  0
   64.4990   31.2540   50.8230 N   0  0  0  0  0  0  0  0  0  0  0  0
   63.7450   31.7550   49.8220 C   0  0  0  0  0  0  0  0  0  0  0  0
   61.8640   32.1700   47.2000 C   0  0  0  0  0  0  0  0  0  0  0  0
   58.6560   30.8360   45.8000 C   0  0  0  0  0  0  0  0  0  0  0  0
   56.5360   28.2970   42.6920 H   0  0  0  0  0  0  0  0  0  0  0  0
   57.6140   29.5510   42.4120 H   0  0  0  0  0  0  0  0  0  0  0  0
   58.4842   27.6598   44.5418 H   0  0  0  0  0  0  0  0  0  0  0  0
   60.7383   27.5486   45.6026 H   0  0  0  0  0  0  0  0  0  0  0  0
   61.6641   29.5352   46.7904 H   0  0  0  0  0  0  0  0  0  0  0  0
   58.5221   32.7563   47.6587 H   0  0  0  0  0  0  0  0  0  0  0  0
   59.4467   34.7306   48.8665 H   0  0  0  0  0  0  0  0  0  0  0  0
   61.9109   35.0704   49.0149 H   0  0  0  0  0  0  0  0  0  0  0  0
   64.3651   33.0709   47.0934 H   0  0  0  0  0  0  0  0  0  0  0  0
   64.0995   34.5412   48.0964 H   0  0  0  0  0  0  0  0  0  0  0  0
   66.3399   33.6191   49.4738 H   0  0  0  0  0  0  0  0  0  0  0  0
   66.4944   31.8524   51.4544 H   0  0  0  0  0  0  0  0  0  0  0  0
   62.7405   31.3854   49.5684 H   0  0  0  0  0  0  0  0  0  0  0  0
   62.5493   31.4431   46.7396 H   0  0  0  0  0  0  0  0  0  0  0  0
   58.0628   31.7605   45.8576 H   0  0  0  0  0  0  0  0  0  0  0  0
  1  2  1  0
  2  3  2  0
  2  4  2  0
  2  5  1  0
  5  6  2  0
  6  7  1  0
  7  8  2  0
  8  9  1  0
  9 10  1  0
 10 11  2  0
 11 12  1  0
 12 13  2  0
 13 14  1  0
 14 15  1  0
 15 16  1  0
 16 17  1  0
 17 18  2  0
 18 19  1  0
 19 20  2  0
 14 21  2  0
  9 22  2  0
 22  5  1  0
 21 10  1  0
 20 16  1  0
  1 23  1  0
  1 24  1  0
  6 25  1  0
  7 26  1  0
  8 27  1  0
 11 28  1  0
 12 29  1  0
 13 30  1  0
 15 31  1  0
 15 32  1  0
 17 33  1  0
 18 34  1  0
 20 35  1  0
 21 36  1  0
 22 37  1  0
M  END
>  <UniqueID>  (73) 
69

>  <SMILES>  (73) 
NS(=O)(=O)c1cccc(-c2cccc(Cn3ccnc3)c2)c1

>  <Energy>  (73) 
70.3101629240395

>  <Genealogy>  (73) 
NS(=O)(=O)c1cccc(-c2cccc(Cn3ccnc3)c2)c1 (3D coordinates assigned)
NS(=O)(=O)c1cccc(-c2cccc(Cn3ccnc3)c2)c1 (optimized conformer: 70.3101629240395 kcal/mol)

>  <smiles>  (73) 
NS(=O)(=O)c1cccc(-c2cccc(Cn3ccnc3)c2)c1

>  <score_type>  (73) 
oracle

>  <origin>  (73) 
adg

>  <m_score__min__energy>  (73) 
-8.4900000000000002

>  <m_primary>  (73) 
energy

$$$$
73:0
     RDKit          3D

 60 63  0  0  0  0  0  0  0  0999 V2000
   55.4880   25.4190   45.2200 H   0  0  0  0  0  0  0  0  0  0  0  0
   55.0630   25.1370   46.0940 O   0  0  0  0  0  0  0  0  0  0  0  0
   55.5820   24.0690   46.8220 C   0  0  0  0  0  0  0  0  0  0  0  0
   54.8370   23.0600   47.3010 N   0  0  0  0  0  0  0  0  0  0  0  0
   55.7600   22.2490   47.8610 C   0  0  0  0  0  0  0  0  0  0  0  0
   55.4570   21.1660   48.4250 O   0  0  0  0  0  0  0  0  0  0  0  0
   57.0330   22.6860   47.7590 N   0  0  0  0  0  0  0  0  0  0  0  0
   56.9120   23.8600   47.1170 C   0  0  0  0  0  0  0  0  0  0  0  0
   58.0660   24.6810   46.7070 C   0  0  0  0  0  0  0  0  0  0  0  0
   59.0352   24.4873   47.1899 H   0  0  0  0  0  0  0  0  0  0  0  0
   58.0060   25.6540   45.7770 C   0  0  0  0  0  0  0  0  0  0  0  0
   57.9740   25.4770   44.3980 C   0  0  0  0  0  0  0  0  0  0  0  0
   58.0221   24.5206   43.8567 H   0  0  0  0  0  0  0  0  0  0  0  0
   57.8700   26.7360   43.8410 C   0  0  0  0  0  0  0  0  0  0  0  0
   57.7730   27.0190   42.3720 C   0  0  0  0  0  0  0  0  0  0  0  0
   57.4198   28.0495   42.2197 H   0  0  0  0  0  0  0  0  0  0  0  0
   58.7636   26.8988   41.9092 H   0  0  0  0  0  0  0  0  0  0  0  0
   57.0644   26.3163   41.9092 H   0  0  0  0  0  0  0  0  0  0  0  0
   57.8180   27.6760   44.8090 N   0  0  0  0  0  0  0  0  0  0  0  0
   57.6940   29.0900   44.5900 C   0  0  0  0  0  0  0  0  0  0  0  0
   58.8380   29.8650   44.3670 C   0  0  0  0  0  0  0  0  0  0  0  0
   59.8240   29.3809   44.3088 H   0  0  0  0  0  0  0  0  0  0  0  0
   58.7340   31.2500   44.2180 C   0  0  0  0  0  0  0  0  0  0  0  0
   59.6359   31.8479   44.0204 H   0  0  0  0  0  0  0  0  0  0  0  0
   57.4840   31.8840   44.3190 C   0  0  0  0  0  0  0  0  0  0  0  0
   57.3770   33.3930   44.2490 C   0  0  0  0  0  0  0  0  0  0  0  0
   57.9396   33.7405   43.3700 H   0  0  0  0  0  0  0  0  0  0  0  0
   56.3062   33.6365   44.1855 H   0  0  0  0  0  0  0  0  0  0  0  0
   57.9080   34.0850   45.4480 N   0  0  0  0  0  0  0  0  0  0  0  0
   59.1730   34.8290   45.2300 C   0  0  0  0  0  0  0  0  0  0  0  0
   59.3192   34.9705   44.1490 H   0  0  0  0  0  0  0  0  0  0  0  0
   59.0922   35.7938   45.7522 H   0  0  0  0  0  0  0  0  0  0  0  0
   60.3900   34.0830   45.8010 C   0  0  0  0  0  0  0  0  0  0  0  0
   60.4964   33.1279   45.2657 H   0  0  0  0  0  0  0  0  0  0  0  0
   61.2649   34.7355   45.6641 H   0  0  0  0  0  0  0  0  0  0  0  0
   60.2720   33.7840   47.3280 C   0  0  0  0  0  0  0  0  0  0  0  0
   60.8065   34.5525   47.9057 H   0  0  0  0  0  0  0  0  0  0  0  0
   60.9250   32.4770   47.6500 N   0  0  0  0  0  0  0  0  0  0  0  0
   62.3670   32.4660   47.3230 C   0  0  0  0  0  0  0  0  0  0  0  0
   62.9539   32.4615   48.2533 H   0  0  0  0  0  0  0  0  0  0  0  0
   62.6031   31.5660   46.7362 H   0  0  0  0  0  0  0  0  0  0  0  0
   62.6168   33.3623   46.7362 H   0  0  0  0  0  0  0  0  0  0  0  0
   60.2770   31.3700   46.9110 C   0  0  0  0  0  0  0  0  0  0  0  0
   59.8550   30.6490   47.6266 H   0  0  0  0  0  0  0  0  0  0  0  0
   59.4722   31.7729   46.2786 H   0  0  0  0  0  0  0  0  0  0  0  0
   61.0224   30.8655   46.2786 H   0  0  0  0  0  0  0  0  0  0  0  0
   58.7750   33.8450   47.7650 C   0  0  0  0  0  0  0  0  0  0  0  0
   58.6464   33.2662   48.6915 H   0  0  0  0  0  0  0  0  0  0  0  0
   58.4990   34.8973   47.9279 H   0  0  0  0  0  0  0  0  0  0  0  0
   57.8650   33.2630   46.6800 C   0  0  0  0  0  0  0  0  0  0  0  0
   58.1979   32.2419   46.4420 H   0  0  0  0  0  0  0  0  0  0  0  0
   56.8321   33.2556   47.0583 H   0  0  0  0  0  0  0  0  0  0  0  0
   56.3320   31.0960   44.4890 C   0  0  0  0  0  0  0  0  0  0  0  0
   55.3413   31.5738   44.5049 H   0  0  0  0  0  0  0  0  0  0  0  0
   56.4360   29.7100   44.6380 C   0  0  0  0  0  0  0  0  0  0  0  0
   55.2880   28.9540   44.8520 O   0  0  0  0  0  0  0  0  0  0  0  0
   57.8980   27.0310   45.9990 C   0  0  0  0  0  0  0  0  0  0  0  0
   57.8620   27.6500   47.1890 C   0  0  0  0  0  0  0  0  0  0  0  0
   57.7746   28.7455   47.2367 H   0  0  0  0  0  0  0  0  0  0  0  0
   57.9199   27.0620   48.1168 H   0  0  0  0  0  0  0  0  0  0  0  0
  1  2  1  0
  2  3  1  0
  3  4  1  0
  4  5  1  0
  5  6  2  0
  5  7  1  0
  7  8  1  0
  8  9  1  0
  9 10  1  0
  9 11  2  0
 11 12  1  0
 12 13  1  0
 12 14  2  0
 14 15  1  0
 15 16  1  0
 15 17  1  0
 15 18  1  0
 14 19  1  0
 19 20  1  0
 20 21  2  0
 21 22  1  0
 21 23  1  0
 23 24  1  0
 23 25  2  0
 25 26  1  0
 26 27  1  0
 26 28  1  0
 26 29  1  0
 29 30  1  0
 30 31  1  0
 30 32  1  0
 30 33  1  0
 33 34  1  0
 33 35  1  0
 33 36  1  0
 36 37  1  0
 36 38  1  0
 38 39  1  0
 39 40  1  0
 39 41  1  0
 39 42  1  0
 38 43  1  0
 43 44  1  0
 43 45  1  0
 43 46  1  0
 36 47  1  0
 47 48  1  0
 47 49  1  0
 47 50  1  0
 50 51  1  0
 50 52  1  0
 25 53  1  0
 53 54  1  0
 53 55  2  0
 55 56  1  0
 19 57  1  0
 57 58  2  0
 58 59  1  0
 58 60  1  0
  8  3  2  0
 57 11  1  0
 55 20  1  0
 50 29  1  0
M  CHG  3   4  -1   7  -1  56  -1
M  END
>  <UniqueID>  (74) 
70

>  <SMILES>  (74) 
C=c1/c(=C/c2[n-]c(=O)[n-]c2O)cc(C)n1-c1ccc(CN2CCC(N(C)C)CC2)cc1[O-]

>  <Energy>  (74) 
150.41947706762062

>  <Genealogy>  (74) 
C=c1c(=Cc2[n-]c(=O)[n-]c2O)cc(C)n1-c1ccc(CN2CCC(N(C)C)CC2)cc1[O-] (protonated)
C=c1/c(=C/c2[n-]c(=O)[n-]c2O)cc(C)n1-c1ccc(CN2CCC(N(C)C)CC2)cc1[O-] (cis-trans isomerization)
C=c1/c(=C/c2[n-]c(=O)[n-]c2O)cc(C)n1-c1ccc(CN2CCC(N(C)C)CC2)cc1[O-] (3D coordinates assigned)
C=c1/c(=C/c2[n-]c(=O)[n-]c2O)cc(C)n1-c1ccc(CN2CCC(N(C)C)CC2)cc1[O-] (nonaromatic ring conformer: 150.41947706762062 kcal/mol)

>  <smiles>  (74) 
C=c1c(=Cc2[nH]c(=O)[nH]c2O)cc(C)n1-c1ccc(CN2CCC(N(C)C)CC2)cc1O

>  <score_type>  (74) 
oracle

>  <origin>  (74) 
adg

>  <m_score__min__energy>  (74) 
-16.210000000000001

>  <m_primary>  (74) 
energy

$$$$
74:0
     RDKit          3D

 14 14  0  0  0  0  0  0  0  0999 V2000
   55.1460   28.0780   45.1870 H   0  0  0  0  0  0  0  0  0  0  0  0
   55.8390   27.4340   45.6210 N   0  0  0  0  0  0  0  0  0  0  0  0
   55.4580   26.2880   46.1830 N   0  0  0  0  0  0  0  0  0  0  0  0
   56.4850   25.6190   46.7500 C   0  0  0  0  0  0  0  0  0  0  0  0
   56.3110   24.1900   47.5190 S   0  0  0  0  0  0  0  0  0  0  0  0
   57.9440   26.4450   46.5880 S   0  0  0  0  0  0  0  0  0  0  0  0
   57.1690   27.6730   45.7380 C   0  0  0  0  0  0  0  0  0  0  0  0
   57.7810   28.7390   45.3080 N   0  0  0  0  0  0  0  0  0  0  0  0
   57.1800   29.9210   44.7620 C   0  0  0  0  0  0  0  0  0  0  0  0
   55.9360   30.0750   44.8670 O   0  0  0  0  0  0  0  0  0  0  0  0
   57.9980   31.0240   44.1620 C   0  0  0  0  0  0  0  0  0  0  0  0
   58.4455   31.6274   44.9655 H   0  0  0  0  0  0  0  0  0  0  0  0
   58.7959   30.5921   43.5400 H   0  0  0  0  0  0  0  0  0  0  0  0
   57.3531   31.6621   43.5400 H   0  0  0  0  0  0  0  0  0  0  0  0
  1  2  1  0
  2  3  1  0
  3  4  1  0
  4  5  2  0
  4  6  1  0
  6  7  1  0
  7  8  2  0
  8  9  1  0
  9 10  2  0
  9 11  1  0
 11 12  1  0
 11 13  1  0
 11 14  1  0
  7  2  1  0
M  CHG  1   3  -1
M  END
>  <UniqueID>  (75) 
71

>  <SMILES>  (75) 
CC(=O)/N=c1\[nH][n-]c(=S)s1

>  <Energy>  (75) 
52.069298754661844

>  <Genealogy>  (75) 
CC(=O)N=c1[nH][n-]c(=S)s1 (protonated)
CC(=O)/N=c1\[nH][n-]c(=S)s1 (cis-trans isomerization)
CC(=O)/N=c1\[nH][n-]c(=S)s1 (3D coordinates assigned)
CC(=O)/N=c1\[nH][n-]c(=S)s1 (optimized conformer: 52.069298754661844 kcal/mol)

>  <smiles>  (75) 
CC(=O)N=c1[nH][nH]c(=S)s1

>  <score_type>  (75) 
oracle

>  <origin>  (75) 
adg

>  <m_score__min__energy>  (75) 
-7.4400000000000004

>  <m_primary>  (75) 
energy

$$$$
75:0
     RDKit          3D

 71 75  0  0  0  0  0  0  0  0999 V2000
   56.6080   30.8670   42.5810 O   0  0  0  0  0  0  0  0  0  0  0  0
   56.8930   30.2550   43.6450 C   0  0  0  0  0  0  0  0  0  0  0  0
   57.2030   28.7840   43.5910 C   0  0  0  0  0  0  0  0  0  0  0  0
   58.1530   28.3860   44.6900 C   0  0  0  0  0  0  0  0  0  0  0  0
   57.8440   27.3030   45.5270 C   0  0  0  0  0  0  0  0  0  0  0  0
   58.7120   26.9360   46.5550 C   0  0  0  0  0  0  0  0  0  0  0  0
   59.9200   27.6200   46.7410 C   0  0  0  0  0  0  0  0  0  0  0  0
   60.7590   27.2370   47.8370 N   0  0  0  0  0  0  0  0  0  0  0  0
   60.6780   27.7380   49.1820 C   0  0  0  0  0  0  0  0  0  0  0  0
   60.6010   26.9470   50.1570 O   0  0  0  0  0  0  0  0  0  0  0  0
   60.7670   29.2240   49.4370 C   0  0  1  0  0  0  0  0  0  0  0  0
   59.3650   29.8830   49.3130 C   0  0  0  0  0  0  0  0  0  0  0  0
   58.6400   29.9440   50.6690 C   0  0  0  0  0  0  0  0  0  0  0  0
   59.4490   30.7440   51.7160 C   0  0  0  0  0  0  0  0  0  0  0  0
   60.8820   30.7720   51.3640 N   0  0  0  0  0  0  0  0  0  0  0  0
   61.6790   31.9770   51.4640 C   0  0  0  0  0  0  0  0  0  0  0  0
   61.1270   33.1050   51.3770 O   0  0  0  0  0  0  0  0  0  0  0  0
   63.1610   31.9080   51.7290 C   0  0  0  0  0  0  0  0  0  0  0  0
   64.0330   33.0250   51.1590 C   0  0  0  0  0  0  0  0  0  0  0  0
   63.9810   31.6730   50.4700 C   0  0  0  0  0  0  0  0  0  0  0  0
   61.4460   29.5380   50.7960 C   0  0  0  0  0  0  0  0  0  0  0  0
   60.2310   28.7060   45.9040 C   0  0  0  0  0  0  0  0  0  0  0  0
   59.3590   29.0800   44.8790 C   0  0  0  0  0  0  0  0  0  0  0  0
   56.9020   30.9860   44.8800 N   0  0  0  0  0  0  0  0  0  0  0  0
   57.7170   32.1260   45.1950 C   0  0  0  0  0  0  0  0  0  0  0  0
   57.9600   33.1390   44.2500 C   0  0  0  0  0  0  0  0  0  0  0  0
   58.7440   34.2460   44.5930 C   0  0  0  0  0  0  0  0  0  0  0  0
   59.2740   34.3600   45.8820 C   0  0  0  0  0  0  0  0  0  0  0  0
   59.0190   33.3700   46.8430 C   0  0  0  0  0  0  0  0  0  0  0  0
   59.7150   33.4960   48.4670 S   0  0  0  0  0  0  0  0  0  0  0  0
   59.7630   34.9430   48.8750 O   0  0  0  0  0  0  0  0  0  0  0  0
   58.8420   32.7630   49.4490 O   0  0  0  0  0  0  0  0  0  0  0  0
   61.3340   32.8370   48.5300 N   0  0  0  0  0  0  0  0  0  0  0  0
   62.3610   33.8940   48.4050 C   0  0  0  0  0  0  0  0  0  0  0  0
   63.0520   33.8730   47.0290 C   0  0  0  0  0  0  0  0  0  0  0  0
   63.6810   32.6320   46.7390 O   0  0  0  0  0  0  0  0  0  0  0  0
   62.9790   31.5060   47.2520 C   0  0  0  0  0  0  0  0  0  0  0  0
   61.4880   31.7630   47.5350 C   0  0  0  0  0  0  0  0  0  0  0  0
   58.2310   32.2600   46.4940 C   0  0  0  0  0  0  0  0  0  0  0  0
   56.2676   28.2160   43.7024 H   0  0  0  0  0  0  0  0  0  0  0  0
   57.6781   28.5638   42.6237 H   0  0  0  0  0  0  0  0  0  0  0  0
   56.9118   26.7402   45.3714 H   0  0  0  0  0  0  0  0  0  0  0  0
   58.4463   26.1042   47.2239 H   0  0  0  0  0  0  0  0  0  0  0  0
   61.4125   29.6649   48.6631 H   0  0  0  0  0  0  0  0  0  0  0  0
   59.4854   30.9061   48.9273 H   0  0  0  0  0  0  0  0  0  0  0  0
   58.7590   29.2711   48.6286 H   0  0  0  0  0  0  0  0  0  0  0  0
   57.6622   30.4279   50.5287 H   0  0  0  0  0  0  0  0  0  0  0  0
   58.5218   28.9154   51.0406 H   0  0  0  0  0  0  0  0  0  0  0  0
   59.0674   31.7749   51.7552 H   0  0  0  0  0  0  0  0  0  0  0  0
   59.3368   30.2557   52.6953 H   0  0  0  0  0  0  0  0  0  0  0  0
   63.0691   31.4564   52.7278 H   0  0  0  0  0  0  0  0  0  0  0  0
   63.5653   33.9016   50.6868 H   0  0  0  0  0  0  0  0  0  0  0  0
   64.8340   33.6663   51.5554 H   0  0  0  0  0  0  0  0  0  0  0  0
   63.4770   31.5714   49.4975 H   0  0  0  0  0  0  0  0  0  0  0  0
   64.7314   30.9308   50.1602 H   0  0  0  0  0  0  0  0  0  0  0  0
   62.5273   29.6683   50.6420 H   0  0  0  0  0  0  0  0  0  0  0  0
   61.2673   28.7046   51.4913 H   0  0  0  0  0  0  0  0  0  0  0  0
   61.1663   29.2643   46.0572 H   0  0  0  0  0  0  0  0  0  0  0  0
   59.6177   29.9204   44.2181 H   0  0  0  0  0  0  0  0  0  0  0  0
   57.5329   33.0608   43.2393 H   0  0  0  0  0  0  0  0  0  0  0  0
   58.9440   35.0288   43.8466 H   0  0  0  0  0  0  0  0  0  0  0  0
   59.8939   35.2301   46.1439 H   0  0  0  0  0  0  0  0  0  0  0  0
   61.8803   34.8734   48.5452 H   0  0  0  0  0  0  0  0  0  0  0  0
   63.1286   33.7117   49.1715 H   0  0  0  0  0  0  0  0  0  0  0  0
   62.2962   34.0716   46.2548 H   0  0  0  0  0  0  0  0  0  0  0  0
   63.8377   34.6427   47.0452 H   0  0  0  0  0  0  0  0  0  0  0  0
   63.0545   30.6897   46.5185 H   0  0  0  0  0  0  0  0  0  0  0  0
   63.4443   31.2583   48.2175 H   0  0  0  0  0  0  0  0  0  0  0  0
   60.9873   32.0589   46.6013 H   0  0  0  0  0  0  0  0  0  0  0  0
   61.0351   30.8418   47.9302 H   0  0  0  0  0  0  0  0  0  0  0  0
   58.0147   31.4879   47.2471 H   0  0  0  0  0  0  0  0  0  0  0  0
  1  2  2  0
  2  3  1  0
  3  4  1  0
  4  5  2  0
  5  6  1  0
  6  7  2  0
  7  8  1  0
  8  9  1  0
  9 10  2  0
  9 11  1  0
 11 12  1  0
 12 13  1  0
 13 14  1  0
 14 15  1  0
 15 16  1  0
 16 17  2  0
 16 18  1  0
 18 19  1  0
 19 20  1  0
 15 21  1  0
  7 22  1  0
 22 23  2  0
  2 24  1  0
 24 25  1  0
 25 26  2  0
 26 27  1  0
 27 28  2  0
 28 29  1  0
 29 30  1  0
 30 31  2  0
 30 32  2  0
 30 33  1  0
 33 34  1  0
 34 35  1  0
 35 36  1  0
 36 37  1  0
 37 38  1  0
 29 39  2  0
 23  4  1  0
 39 25  1  0
 21 11  1  0
 38 33  1  0
 20 18  1  0
  3 40  1  0
  3 41  1  0
  5 42  1  0
  6 43  1  0
 11 44  1  6
 12 45  1  0
 12 46  1  0
 13 47  1  0
 13 48  1  0
 14 49  1  0
 14 50  1  0
 18 51  1  0
 19 52  1  0
 19 53  1  0
 20 54  1  0
 20 55  1  0
 21 56  1  0
 21 57  1  0
 22 58  1  0
 23 59  1  0
 26 60  1  0
 27 61  1  0
 28 62  1  0
 34 63  1  0
 34 64  1  0
 35 65  1  0
 35 66  1  0
 37 67  1  0
 37 68  1  0
 38 69  1  0
 38 70  1  0
 39 71  1  0
M  CHG  2   8  -1  24  -1
M  END
>  <UniqueID>  (76) 
72

>  <SMILES>  (76) 
O=C(Cc1ccc([N-]C(=O)[C@H]2CCCN(C(=O)C3CC3)C2)cc1)[N-]c1cccc(S(=O)(=O)N2CCOCC2)c1

>  <Energy>  (76) 
362.7151506512349

>  <Genealogy>  (76) 
O=C(Cc1ccc([N-]C(=O)C2CCCN(C(=O)C3CC3)C2)cc1)[N-]c1cccc(S(=O)(=O)N2CCOCC2)c1 (protonated)
O=C(Cc1ccc([N-]C(=O)[C@H]2CCCN(C(=O)C3CC3)C2)cc1)[N-]c1cccc(S(=O)(=O)N2CCOCC2)c1 (chirality)
O=C(Cc1ccc([N-]C(=O)[C@H]2CCCN(C(=O)C3CC3)C2)cc1)[N-]c1cccc(S(=O)(=O)N2CCOCC2)c1 (3D coordinates assigned)
O=C(Cc1ccc([N-]C(=O)[C@H]2CCCN(C(=O)C3CC3)C2)cc1)[N-]c1cccc(S(=O)(=O)N2CCOCC2)c1 (nonaromatic ring conformer: 362.7151506512349 kcal/mol)

>  <smiles>  (76) 
O=C(Cc1ccc(NC(=O)C2CCCN(C(=O)C3CC3)C2)cc1)Nc1cccc(S(=O)(=O)N2CCOCC2)c1

>  <score_type>  (76) 
oracle

>  <origin>  (76) 
adg

>  <m_score__min__energy>  (76) 
-13.02

>  <m_primary>  (76) 
energy

$$$$
76:0
     RDKit          3D

 40 42  0  0  0  0  0  0  0  0999 V2000
   57.7650   22.2160   47.5070 H   0  0  0  0  0  0  0  0  0  0  0  0
   57.6740   23.2250   47.5340 O   0  0  0  0  0  0  0  0  0  0  0  0
   56.6180   23.8640   46.8900 C   0  0  0  0  0  0  0  0  0  0  0  0
   55.5290   23.1480   46.5030 N   0  0  0  0  0  0  0  0  0  0  0  0
   54.4810   23.7460   45.8800 C   0  0  0  0  0  0  0  0  0  0  0  0
   53.4860   23.0620   45.5260 O   0  0  0  0  0  0  0  0  0  0  0  0
   54.5030   25.0830   45.6420 N   0  0  0  0  0  0  0  0  0  0  0  0
   55.5670   25.8430   46.0090 C   0  0  0  0  0  0  0  0  0  0  0  0
   55.5550   27.0810   45.7780 O   0  0  0  0  0  0  0  0  0  0  0  0
   56.6710   25.2420   46.6340 C   0  0  0  0  0  0  0  0  0  0  0  0
   57.8280   26.0430   47.0710 C   0  0  0  0  0  0  0  0  0  0  0  0
   58.3060   25.7794   48.0260 H   0  0  0  0  0  0  0  0  0  0  0  0
   58.3380   27.0790   46.3740 C   0  0  0  0  0  0  0  0  0  0  0  0
   58.4450   27.2450   44.9890 C   0  0  0  0  0  0  0  0  0  0  0  0
   58.0230   26.3060   43.9010 C   0  0  0  0  0  0  0  0  0  0  0  0
   57.6109   25.3890   44.3475 H   0  0  0  0  0  0  0  0  0  0  0  0
   57.2549   26.7879   43.2783 H   0  0  0  0  0  0  0  0  0  0  0  0
   58.8933   26.0515   43.2783 H   0  0  0  0  0  0  0  0  0  0  0  0
   59.0200   28.4330   44.7210 N   0  0  0  0  0  0  0  0  0  0  0  0
   59.2720   29.0470   45.8670 N   0  0  0  0  0  0  0  0  0  0  0  0
   59.9430   30.3500   45.9580 C   0  0  0  0  0  0  0  0  0  0  0  0
   60.4214   30.4375   46.9446 H   0  0  0  0  0  0  0  0  0  0  0  0
   60.6907   30.4100   45.1534 H   0  0  0  0  0  0  0  0  0  0  0  0
   58.9650   31.4910   45.7830 C   0  0  0  0  0  0  0  0  0  0  0  0
   58.7660   32.3890   46.8480 C   0  0  0  0  0  0  0  0  0  0  0  0
   59.3127   32.2450   47.7916 H   0  0  0  0  0  0  0  0  0  0  0  0
   57.8810   33.4610   46.7180 C   0  0  0  0  0  0  0  0  0  0  0  0
   57.7302   34.1533   47.5594 H   0  0  0  0  0  0  0  0  0  0  0  0
   57.1880   33.6560   45.5240 C   0  0  0  0  0  0  0  0  0  0  0  0
   56.4895   34.5000   45.4254 H   0  0  0  0  0  0  0  0  0  0  0  0
   57.3800   32.7810   44.4540 C   0  0  0  0  0  0  0  0  0  0  0  0
   56.8308   32.9409   43.5144 H   0  0  0  0  0  0  0  0  0  0  0  0
   58.2670   31.6990   44.5650 C   0  0  0  0  0  0  0  0  0  0  0  0
   58.4520   30.8340   43.4350 N   0  0  0  0  0  0  0  0  0  0  0  0
   58.1930   31.1570   42.4760 H   0  0  0  0  0  0  0  0  0  0  0  0
   58.8620   29.8800   43.5200 H   0  0  0  0  0  0  0  0  0  0  0  0
   58.8900   28.2510   46.8970 C   0  0  0  0  0  0  0  0  0  0  0  0
   59.0550   28.5560   48.1930 C   0  0  0  0  0  0  0  0  0  0  0  0
   59.5055   29.5180   48.4786 H   0  0  0  0  0  0  0  0  0  0  0  0
   58.7398   27.8440   48.9700 H   0  0  0  0  0  0  0  0  0  0  0  0
  1  2  1  0
  2  3  1  0
  3  4  1  0
  4  5  1  0
  5  6  2  0
  5  7  1  0
  7  8  1  0
  8  9  2  0
  8 10  1  0
 10 11  1  0
 11 12  1  0
 11 13  2  0
 13 14  1  0
 14 15  1  0
 15 16  1  0
 15 17  1  0
 15 18  1  0
 14 19  2  0
 19 20  1  0
 20 21  1  0
 21 22  1  0
 21 23  1  0
 21 24  1  0
 24 25  2  0
 25 26  1  0
 25 27  1  0
 27 28  1  0
 27 29  2  0
 29 30  1  0
 29 31  1  0
 31 32  1  0
 31 33  2  0
 33 34  1  0
 34 35  1  0
 34 36  1  0
 20 37  1  0
 37 38  2  0
 38 39  1  0
 38 40  1  0
 10  3  2  0
 37 13  1  0
 33 24  1  0
M  CHG  2   4  -1   7  -1
M  END
>  <UniqueID>  (77) 
73

>  <SMILES>  (77) 
C=c1/c(=C/c2c(O)[n-]c(=O)[n-]c2=O)c(C)nn1Cc1ccccc1N

>  <Energy>  (77) 
88.00632406083524

>  <Genealogy>  (77) 
C=c1c(=Cc2c(O)[n-]c(=O)[n-]c2=O)c(C)nn1Cc1ccccc1N (protonated)
C=c1/c(=C/c2c(O)[n-]c(=O)[n-]c2=O)c(C)nn1Cc1ccccc1N (cis-trans isomerization)
C=c1/c(=C/c2c(O)[n-]c(=O)[n-]c2=O)c(C)nn1Cc1ccccc1N (3D coordinates assigned)
C=c1/c(=C/c2c(O)[n-]c(=O)[n-]c2=O)c(C)nn1Cc1ccccc1N (optimized conformer: 88.00632406083524 kcal/mol)

>  <smiles>  (77) 
C=c1c(=Cc2c(O)[nH]c(=O)[nH]c2=O)c(C)nn1Cc1ccccc1N

>  <score_type>  (77) 
oracle

>  <origin>  (77) 
adg

>  <m_score__min__energy>  (77) 
-13.16

>  <m_primary>  (77) 
energy

$$$$
77:0
     RDKit          3D

 58 61  0  0  0  0  0  0  0  0999 V2000
   56.8090   28.4220   54.7060 C   0  0  0  0  0  0  0  0  0  0  0  0
   57.8090   28.6300   53.5950 C   0  0  0  0  0  0  0  0  0  0  0  0
   58.9720   27.8400   53.5730 C   0  0  0  0  0  0  0  0  0  0  0  0
   59.9380   28.0230   52.5820 C   0  0  0  0  0  0  0  0  0  0  0  0
   59.7500   28.9850   51.5840 C   0  0  0  0  0  0  0  0  0  0  0  0
   60.9830   29.2420   50.3550 S   0  0  0  0  0  0  0  0  0  0  0  0
   62.3370   28.9440   50.9380 O   0  0  0  0  0  0  0  0  0  0  0  0
   60.7330   28.3270   49.1880 O   0  0  0  0  0  0  0  0  0  0  0  0
   60.9110   30.8960   49.8370 N   0  0  0  0  0  0  0  0  0  0  0  0
   60.1230   31.3790   48.7410 C   0  0  0  0  0  0  0  0  0  0  0  0
   58.9060   32.0570   48.9360 C   0  0  0  0  0  0  0  0  0  0  0  0
   58.1420   32.4640   47.8370 C   0  0  0  0  0  0  0  0  0  0  0  0
   58.5770   32.1930   46.5340 C   0  0  0  0  0  0  0  0  0  0  0  0
   57.5330   32.5880   45.1730 S   0  0  0  0  0  0  0  0  0  0  0  0
   58.3550   32.9780   43.9750 O   0  0  0  0  0  0  0  0  0  0  0  0
   56.6610   33.7500   45.5550 O   0  0  0  0  0  0  0  0  0  0  0  0
   56.5200   31.2270   44.7740 N   0  0  0  0  0  0  0  0  0  0  0  0
   57.2430   30.2370   43.9690 C   0  0  0  0  0  0  0  0  0  0  0  0
   58.0040   29.2740   44.8420 C   0  0  0  0  0  0  0  0  0  0  0  0
   57.4160   28.7400   45.9980 C   0  0  0  0  0  0  0  0  0  0  0  0
   58.1430   27.8700   46.8150 C   0  0  0  0  0  0  0  0  0  0  0  0
   59.4480   27.5270   46.4590 C   0  0  0  0  0  0  0  0  0  0  0  0
   60.0000   28.0350   45.3260 N   0  0  0  0  0  0  0  0  0  0  0  0
   59.3140   28.8870   44.5160 C   0  0  0  0  0  0  0  0  0  0  0  0
   59.8080   31.5520   46.3370 C   0  0  0  0  0  0  0  0  0  0  0  0
   60.5760   31.1520   47.4360 C   0  0  0  0  0  0  0  0  0  0  0  0
   58.5900   29.7670   51.5860 C   0  0  0  0  0  0  0  0  0  0  0  0
   57.6100   29.6020   52.5810 C   0  0  0  0  0  0  0  0  0  0  0  0
   56.4030   30.4650   52.5400 C   0  0  0  0  0  0  0  0  0  0  0  0
   56.5340   31.7140   52.4390 O   0  0  0  0  0  0  0  0  0  0  0  0
   55.0840   29.9220   52.6970 N   0  0  0  0  0  0  0  0  0  0  0  0
   53.8550   30.6210   52.4520 C   0  0  0  0  0  0  0  0  0  0  0  0
   53.5810   31.0790   51.1570 C   0  0  0  0  0  0  0  0  0  0  0  0
   52.3960   31.7720   50.8890 C   0  0  0  0  0  0  0  0  0  0  0  0
   51.4680   31.9970   51.9110 C   0  0  0  0  0  0  0  0  0  0  0  0
   50.2960   32.6930   51.6450 O   0  0  0  0  0  0  0  0  0  0  0  0
   51.7210   31.5170   53.2000 C   0  0  0  0  0  0  0  0  0  0  0  0
   52.9050   30.8230   53.4700 C   0  0  0  0  0  0  0  0  0  0  0  0
   57.3135   28.5269   55.6778 H   0  0  0  0  0  0  0  0  0  0  0  0
   56.0094   29.1731   54.6250 H   0  0  0  0  0  0  0  0  0  0  0  0
   56.3752   27.4144   54.6250 H   0  0  0  0  0  0  0  0  0  0  0  0
   59.1221   27.0702   54.3443 H   0  0  0  0  0  0  0  0  0  0  0  0
   60.8503   27.4085   52.5859 H   0  0  0  0  0  0  0  0  0  0  0  0
   58.5537   32.2680   49.9565 H   0  0  0  0  0  0  0  0  0  0  0  0
   57.1947   32.9997   47.9974 H   0  0  0  0  0  0  0  0  0  0  0  0
   56.5208   29.6743   43.3592 H   0  0  0  0  0  0  0  0  0  0  0  0
   57.9621   30.7682   43.3281 H   0  0  0  0  0  0  0  0  0  0  0  0
   56.3818   29.0062   46.2617 H   0  0  0  0  0  0  0  0  0  0  0  0
   57.6909   27.4595   47.7299 H   0  0  0  0  0  0  0  0  0  0  0  0
   60.0302   26.8449   47.0960 H   0  0  0  0  0  0  0  0  0  0  0  0
   59.7878   29.2742   43.6019 H   0  0  0  0  0  0  0  0  0  0  0  0
   60.1710   31.3630   45.3160 H   0  0  0  0  0  0  0  0  0  0  0  0
   61.5438   30.6550   47.2733 H   0  0  0  0  0  0  0  0  0  0  0  0
   58.4425   30.5210   50.7988 H   0  0  0  0  0  0  0  0  0  0  0  0
   54.3013   30.8928   50.3468 H   0  0  0  0  0  0  0  0  0  0  0  0
   52.1935   32.1407   49.8726 H   0  0  0  0  0  0  0  0  0  0  0  0
   50.9879   31.6855   54.0026 H   0  0  0  0  0  0  0  0  0  0  0  0
   53.0940   30.4339   54.4814 H   0  0  0  0  0  0  0  0  0  0  0  0
  1  2  1  0
  2  3  2  0
  3  4  1  0
  4  5  2  0
  5  6  1  0
  6  7  2  0
  6  8  2  0
  6  9  1  0
  9 10  1  0
 10 11  2  0
 11 12  1  0
 12 13  2  0
 13 14  1  0
 14 15  2  0
 14 16  2  0
 14 17  1  0
 17 18  1  0
 18 19  1  0
 19 20  2  0
 20 21  1  0
 21 22  2  0
 22 23  1  0
 23 24  2  0
 13 25  1  0
 25 26  2  0
  5 27  1  0
 27 28  2  0
 28 29  1  0
 29 30  2  0
 29 31  1  0
 31 32  1  0
 32 33  2  0
 33 34  1  0
 34 35  2  0
 35 36  1  0
 35 37  1  0
 37 38  2  0
 28  2  1  0
 38 32  1  0
 26 10  1  0
 24 19  1  0
  1 39  1  0
  1 40  1  0
  1 41  1  0
  3 42  1  0
  4 43  1  0
 11 44  1  0
 12 45  1  0
 18 46  1  0
 18 47  1  0
 20 48  1  0
 21 49  1  0
 22 50  1  0
 24 51  1  0
 25 52  1  0
 26 53  1  0
 27 54  1  0
 33 55  1  0
 34 56  1  0
 37 57  1  0
 38 58  1  0
M  CHG  4   9  -1  17  -1  31  -1  36  -1
M  END
>  <UniqueID>  (78) 
74

>  <SMILES>  (78) 
Cc1ccc(S(=O)(=O)[N-]c2ccc(S(=O)(=O)[N-]Cc3cccnc3)cc2)cc1C(=O)[N-]c1ccc([O-])cc1

>  <Energy>  (78) 
71.33624156624052

>  <Genealogy>  (78) 
Cc1ccc(S(=O)(=O)[N-]c2ccc(S(=O)(=O)[N-]Cc3cccnc3)cc2)cc1C(=O)[N-]c1ccc([O-])cc1 (protonated)
Cc1ccc(S(=O)(=O)[N-]c2ccc(S(=O)(=O)[N-]Cc3cccnc3)cc2)cc1C(=O)[N-]c1ccc([O-])cc1 (3D coordinates assigned)
Cc1ccc(S(=O)(=O)[N-]c2ccc(S(=O)(=O)[N-]Cc3cccnc3)cc2)cc1C(=O)[N-]c1ccc([O-])cc1 (optimized conformer: 71.33624156624052 kcal/mol)

>  <smiles>  (78) 
Cc1ccc(S(=O)(=O)Nc2ccc(S(=O)(=O)NCc3cccnc3)cc2)cc1C(=O)Nc1ccc(O)cc1

>  <score_type>  (78) 
oracle

>  <origin>  (78) 
adg

>  <m_score__min__energy>  (78) 
-17.050000000000001

>  <m_primary>  (78) 
energy

$$$$
78:0
     RDKit          3D

 47 49  0  0  0  0  0  0  0  0999 V2000
   53.6610   25.8860   46.3790 H   0  0  0  0  0  0  0  0  0  0  0  0
   54.5080   25.9300   45.8290 O   0  0  0  0  0  0  0  0  0  0  0  0
   55.6090   26.6010   46.3120 N   0  0  0  0  0  0  0  0  0  0  0  0
   56.7880   26.4800   45.7790 C   0  0  0  0  0  0  0  0  0  0  0  0
   57.7440   27.6110   45.7880 C   0  0  0  0  0  0  0  0  0  0  0  0
   59.0760   27.4100   46.1820 C   0  0  0  0  0  0  0  0  0  0  0  0
   59.4144   26.4056   46.4763 H   0  0  0  0  0  0  0  0  0  0  0  0
   59.9740   28.4800   46.2020 C   0  0  0  0  0  0  0  0  0  0  0  0
   61.0158   28.3162   46.5146 H   0  0  0  0  0  0  0  0  0  0  0  0
   59.5520   29.7570   45.8260 C   0  0  0  0  0  0  0  0  0  0  0  0
   60.2610   30.5978   45.8458 H   0  0  0  0  0  0  0  0  0  0  0  0
   58.2250   29.9690   45.4230 C   0  0  0  0  0  0  0  0  0  0  0  0
   57.6690   31.5820   44.9800 S   0  0  0  0  0  0  0  0  0  0  0  0
   56.2500   31.4750   44.4950 O   0  0  0  0  0  0  0  0  0  0  0  0
   58.5130   32.1250   43.8610 O   0  0  0  0  0  0  0  0  0  0  0  0
   57.7270   32.6550   46.3640 N   0  0  0  0  0  0  0  0  0  0  0  0
   58.8320   32.3190   47.2850 C   0  0  0  0  0  0  0  0  0  0  0  0
   58.6681   32.8447   48.2373 H   0  0  0  0  0  0  0  0  0  0  0  0
   58.8330   31.2269   47.4168 H   0  0  0  0  0  0  0  0  0  0  0  0
   60.2130   32.7210   46.7320 C   0  0  0  0  0  0  0  0  0  0  0  0
   60.9218   32.7821   47.5710 H   0  0  0  0  0  0  0  0  0  0  0  0
   60.5079   31.9561   45.9985 H   0  0  0  0  0  0  0  0  0  0  0  0
   60.2000   34.0760   46.0020 C   0  0  0  0  0  0  0  0  0  0  0  0
   61.0815   34.6556   46.3134 H   0  0  0  0  0  0  0  0  0  0  0  0
   60.2151   33.8790   44.9199 H   0  0  0  0  0  0  0  0  0  0  0  0
   58.9420   34.8840   46.3170 C   0  0  0  0  0  0  0  0  0  0  0  0
   58.9260   35.1234   47.3905 H   0  0  0  0  0  0  0  0  0  0  0  0
   58.9564   35.8078   45.7201 H   0  0  0  0  0  0  0  0  0  0  0  0
   57.6770   34.0830   45.9590 C   0  0  0  0  0  0  0  0  0  0  0  0
   56.8175   34.5536   46.4588 H   0  0  0  0  0  0  0  0  0  0  0  0
   57.5924   34.0983   44.8624 H   0  0  0  0  0  0  0  0  0  0  0  0
   57.3250   28.8970   45.4080 C   0  0  0  0  0  0  0  0  0  0  0  0
   56.2830   29.0625   45.0967 H   0  0  0  0  0  0  0  0  0  0  0  0
   57.1650   25.1880   45.1670 C   0  0  0  0  0  0  0  0  0  0  0  0
   58.5520   24.3000   45.5350 S   0  0  0  0  0  0  0  0  0  0  0  0
   58.1680   23.0450   44.4820 C   0  0  0  0  0  0  0  0  0  0  0  0
   59.0150   21.8380   44.2410 C   0  0  0  0  0  0  0  0  0  0  0  0
   59.3189   21.4049   45.2054 H   0  0  0  0  0  0  0  0  0  0  0  0
   58.4396   21.0943   43.6701 H   0  0  0  0  0  0  0  0  0  0  0  0
   59.9100   22.1262   43.6701 H   0  0  0  0  0  0  0  0  0  0  0  0
   56.9610   23.3560   43.8530 C   0  0  0  0  0  0  0  0  0  0  0  0
   56.2960   22.4620   42.8530 C   0  0  0  0  0  0  0  0  0  0  0  0
   55.7197   21.6872   43.3799 H   0  0  0  0  0  0  0  0  0  0  0  0
   55.6192   23.0570   42.2222 H   0  0  0  0  0  0  0  0  0  0  0  0
   57.0605   21.9849   42.2222 H   0  0  0  0  0  0  0  0  0  0  0  0
   56.4100   24.5370   44.2500 N   0  0  0  0  0  0  0  0  0  0  0  0
   55.5020   24.9000   43.8830 H   0  0  0  0  0  0  0  0  0  0  0  0
  1  2  1  0
  2  3  1  0
  3  4  2  0
  4  5  1  0
  5  6  2  0
  6  7  1  0
  6  8  1  0
  8  9  1  0
  8 10  2  0
 10 11  1  0
 10 12  1  0
 12 13  1  0
 13 14  2  0
 13 15  2  0
 13 16  1  0
 16 17  1  0
 17 18  1  0
 17 19  1  0
 17 20  1  0
 20 21  1  0
 20 22  1  0
 20 23  1  0
 23 24  1  0
 23 25  1  0
 23 26  1  0
 26 27  1  0
 26 28  1  0
 26 29  1  0
 29 30  1  0
 29 31  1  0
 12 32  2  0
 32 33  1  0
  4 34  1  0
 34 35  1  0
 35 36  1  0
 36 37  1  0
 37 38  1  0
 37 39  1  0
 37 40  1  0
 36 41  2  0
 41 42  1  0
 42 43  1  0
 42 44  1  0
 42 45  1  0
 41 46  1  0
 46 47  1  0
 32  5  1  0
 46 34  2  0
 29 16  1  0
M  CHG  1  46   1
M  END
>  <UniqueID>  (79) 
75

>  <SMILES>  (79) 
Cc1[nH+]c(/C(=N/O)c2cccc(S(=O)(=O)N3CCCCC3)c2)sc1C

>  <Energy>  (79) 
86.70623023428028

>  <Genealogy>  (79) 
Cc1[nH+]c(C(=NO)c2cccc(S(=O)(=O)N3CCCCC3)c2)sc1C (protonated)
Cc1[nH+]c(/C(=N/O)c2cccc(S(=O)(=O)N3CCCCC3)c2)sc1C (cis-trans isomerization)
Cc1[nH+]c(/C(=N/O)c2cccc(S(=O)(=O)N3CCCCC3)c2)sc1C (3D coordinates assigned)
Cc1[nH+]c(/C(=N/O)c2cccc(S(=O)(=O)N3CCCCC3)c2)sc1C (nonaromatic ring conformer: 86.70623023428028 kcal/mol)

>  <smiles>  (79) 
Cc1nc(C(=NO)c2cccc(S(=O)(=O)N3CCCCC3)c2)sc1C

>  <score_type>  (79) 
oracle

>  <origin>  (79) 
adg

>  <m_score__min__energy>  (79) 
-9.4100000000000001

>  <m_primary>  (79) 
energy

$$$$
79:0
     RDKit          3D

 27 28  0  0  0  0  0  0  0  0999 V2000
   59.3770   35.0280   46.2490 C   0  0  0  0  0  0  0  0  0  0  0  0
   58.9270   33.7020   45.8470 N   0  0  0  0  0  0  0  0  0  0  0  0
   57.4230   33.3290   45.2430 S   0  0  0  0  0  0  0  0  0  0  0  0
   57.6760   31.6840   45.1750 C   0  0  0  0  0  0  0  0  0  0  0  0
   56.8230   30.8310   44.8120 O   0  0  0  0  0  0  0  0  0  0  0  0
   58.9280   31.3910   45.6130 N   0  0  0  0  0  0  0  0  0  0  0  0
   59.4640   30.0650   45.7620 C   0  0  0  0  0  0  0  0  0  0  0  0
   59.0190   29.0040   45.0700 C   0  0  0  0  0  0  0  0  0  0  0  0
   58.2940   27.8550   45.6530 C   0  0  0  0  0  0  0  0  0  0  0  0
   58.9620   26.8400   46.3620 C   0  0  0  0  0  0  0  0  0  0  0  0
   58.2460   25.7780   46.9200 C   0  0  0  0  0  0  0  0  0  0  0  0
   56.8510   25.7280   46.7960 C   0  0  0  0  0  0  0  0  0  0  0  0
   56.1300   24.6690   47.3490 O   0  0  0  0  0  0  0  0  0  0  0  0
   56.1770   26.7500   46.1180 C   0  0  0  0  0  0  0  0  0  0  0  0
   54.7920   26.7120   45.9970 O   0  0  0  0  0  0  0  0  0  0  0  0
   56.8940   27.8120   45.5580 C   0  0  0  0  0  0  0  0  0  0  0  0
   59.5920   32.5240   46.0100 C   0  0  0  0  0  0  0  0  0  0  0  0
   60.7540   32.4810   46.4980 O   0  0  0  0  0  0  0  0  0  0  0  0
   59.3983   35.0907   47.3470 H   0  0  0  0  0  0  0  0  0  0  0  0
   60.3867   35.2086   45.8518 H   0  0  0  0  0  0  0  0  0  0  0  0
   58.6857   35.7859   45.8518 H   0  0  0  0  0  0  0  0  0  0  0  0
   60.2821   29.9118   46.4812 H   0  0  0  0  0  0  0  0  0  0  0  0
   59.2083   28.9884   43.9865 H   0  0  0  0  0  0  0  0  0  0  0  0
   60.0551   26.8828   46.4778 H   0  0  0  0  0  0  0  0  0  0  0  0
   58.7783   24.9795   47.4577 H   0  0  0  0  0  0  0  0  0  0  0  0
   55.1310   24.7330   47.5020 H   0  0  0  0  0  0  0  0  0  0  0  0
   56.3570   28.6197   45.0392 H   0  0  0  0  0  0  0  0  0  0  0  0
  1  2  1  0
  2  3  1  0
  3  4  1  0
  4  5  2  0
  4  6  1  0
  6  7  1  0
  7  8  2  3
  8  9  1  0
  9 10  2  0
 10 11  1  0
 11 12  2  0
 12 13  1  0
 12 14  1  0
 14 15  1  0
 14 16  2  0
  6 17  1  0
 17 18  2  0
 17  2  1  0
 16  9  1  0
  1 19  1  0
  1 20  1  0
  1 21  1  0
  7 22  1  0
  8 23  1  0
 10 24  1  0
 11 25  1  0
 13 26  1  0
 16 27  1  0
M  CHG  1  15  -1
M  END
>  <UniqueID>  (80) 
76

>  <SMILES>  (80) 
Cn1sc(=O)n(C=Cc2ccc(O)c([O-])c2)c1=O

>  <Energy>  (80) 
77.26346304460651

>  <Genealogy>  (80) 
Cn1sc(=O)n(C=Cc2ccc(O)c([O-])c2)c1=O (protonated)
Cn1sc(=O)n(C=Cc2ccc(O)c([O-])c2)c1=O (3D coordinates assigned)
Cn1sc(=O)n(C=Cc2ccc(O)c([O-])c2)c1=O (optimized conformer: 77.26346304460651 kcal/mol)

>  <smiles>  (80) 
Cn1sc(=O)n(C=Cc2ccc(O)c(O)c2)c1=O

>  <score_type>  (80) 
oracle

>  <origin>  (80) 
adg

>  <m_score__min__energy>  (80) 
-10.48

>  <m_primary>  (80) 
energy

$$$$
80:0
     RDKit          3D

 50 52  0  0  0  0  0  0  0  0999 V2000
   57.0160   31.2830   42.7620 C   0  0  0  0  0  0  0  0  0  0  0  0
   57.3850   31.6080   44.0120 C   0  0  0  0  0  0  0  0  0  0  0  0
   57.1040   32.8730   44.4070 N   0  0  0  0  0  0  0  0  0  0  0  0
   57.4360   33.3550   45.6240 C   0  0  0  0  0  0  0  0  0  0  0  0
   57.1590   34.5540   45.8980 O   0  0  0  0  0  0  0  0  0  0  0  0
   58.0610   32.5530   46.5350 N   0  0  0  0  0  0  0  0  0  0  0  0
   58.4370   33.0940   47.8580 C   0  0  0  0  0  0  0  0  0  0  0  0
   59.4560   34.2260   47.6960 C   0  0  0  0  0  0  0  0  0  0  0  0
   60.8450   33.7400   48.0160 C   0  0  0  0  0  0  0  0  0  0  0  0
   61.8580   33.8160   47.0510 C   0  0  0  0  0  0  0  0  0  0  0  0
   63.1550   33.3980   47.3570 C   0  0  0  0  0  0  0  0  0  0  0  0
   63.4610   32.9050   48.6390 C   0  0  0  0  0  0  0  0  0  0  0  0
   64.7520   32.4750   48.9830 O   0  0  0  0  0  0  0  0  0  0  0  0
   65.5470   33.0540   50.0120 C   0  0  0  0  0  0  0  0  0  0  0  0
   62.4550   32.8400   49.6150 C   0  0  0  0  0  0  0  0  0  0  0  0
   62.7920   32.3510   50.8880 O   0  0  0  0  0  0  0  0  0  0  0  0
   62.8900   30.9710   51.2230 C   0  0  0  0  0  0  0  0  0  0  0  0
   61.1490   33.2640   49.2990 C   0  0  0  0  0  0  0  0  0  0  0  0
   58.3810   31.2590   46.2040 C   0  0  0  0  0  0  0  0  0  0  0  0
   58.9250   30.5270   47.0770 O   0  0  0  0  0  0  0  0  0  0  0  0
   58.0740   30.7330   44.9120 C   0  0  0  0  0  0  0  0  0  0  0  0
   58.3950   29.4520   44.5580 C   0  0  0  0  0  0  0  0  0  0  0  0
   57.9720   28.2250   45.2660 C   0  0  0  0  0  0  0  0  0  0  0  0
   58.9430   27.4120   45.8670 C   0  0  0  0  0  0  0  0  0  0  0  0
   58.5650   26.2660   46.5690 C   0  0  0  0  0  0  0  0  0  0  0  0
   57.2130   25.9300   46.6940 C   0  0  0  0  0  0  0  0  0  0  0  0
   56.8560   24.7830   47.3930 O   0  0  0  0  0  0  0  0  0  0  0  0
   56.2290   26.7520   46.1200 C   0  0  0  0  0  0  0  0  0  0  0  0
   54.8750   26.4410   46.2420 O   0  0  0  0  0  0  0  0  0  0  0  0
   56.6080   27.9040   45.4160 C   0  0  0  0  0  0  0  0  0  0  0  0
   55.6290   28.7280   44.8700 O   0  0  0  0  0  0  0  0  0  0  0  0
   57.2133   30.2722   42.3755 H   0  0  0  0  0  0  0  0  0  0  0  0
   56.5165   32.0277   42.1248 H   0  0  0  0  0  0  0  0  0  0  0  0
   57.5389   33.4826   48.3603 H   0  0  0  0  0  0  0  0  0  0  0  0
   58.8858   32.2903   48.4602 H   0  0  0  0  0  0  0  0  0  0  0  0
   59.4305   34.5893   46.6580 H   0  0  0  0  0  0  0  0  0  0  0  0
   59.1962   35.0385   48.3906 H   0  0  0  0  0  0  0  0  0  0  0  0
   61.6308   34.2066   46.0481 H   0  0  0  0  0  0  0  0  0  0  0  0
   63.9424   33.4545   46.5910 H   0  0  0  0  0  0  0  0  0  0  0  0
   65.1458   32.7618   50.9936 H   0  0  0  0  0  0  0  0  0  0  0  0
   66.5836   32.6978   49.9188 H   0  0  0  0  0  0  0  0  0  0  0  0
   65.5260   34.1498   49.9188 H   0  0  0  0  0  0  0  0  0  0  0  0
   62.8980   30.8590   52.3173 H   0  0  0  0  0  0  0  0  0  0  0  0
   62.0280   30.4302   50.8053 H   0  0  0  0  0  0  0  0  0  0  0  0
   63.8198   30.5574   50.8053 H   0  0  0  0  0  0  0  0  0  0  0  0
   60.3613   33.2211   50.0656 H   0  0  0  0  0  0  0  0  0  0  0  0
   59.0250   29.3226   43.6656 H   0  0  0  0  0  0  0  0  0  0  0  0
   60.0072   27.6781   45.7852 H   0  0  0  0  0  0  0  0  0  0  0  0
   59.3334   25.6248   47.0256 H   0  0  0  0  0  0  0  0  0  0  0  0
   54.1950   26.7120   45.5420 H   0  0  0  0  0  0  0  0  0  0  0  0
  1  2  2  0
  2  3  1  0
  3  4  1  0
  4  5  2  0
  4  6  1  0
  6  7  1  0
  7  8  1  0
  8  9  1  0
  9 10  2  0
 10 11  1  0
 11 12  2  0
 12 13  1  0
 13 14  1  0
 12 15  1  0
 15 16  1  0
 16 17  1  0
 15 18  2  0
  6 19  1  0
 19 20  2  0
 19 21  1  0
 21 22  2  3
 22 23  1  0
 23 24  2  0
 24 25  1  0
 25 26  2  0
 26 27  1  0
 26 28  1  0
 28 29  1  0
 28 30  2  0
 30 31  1  0
 21  2  1  0
 30 23  1  0
 18  9  1  0
  1 32  1  0
  1 33  1  0
  7 34  1  0
  7 35  1  0
  8 36  1  0
  8 37  1  0
 10 38  1  0
 11 39  1  0
 14 40  1  0
 14 41  1  0
 14 42  1  0
 17 43  1  0
 17 44  1  0
 17 45  1  0
 18 46  1  0
 22 47  1  0
 24 48  1  0
 25 49  1  0
 29 50  1  0
M  CHG  3   3  -1  27  -1  31  -1
M  END
>  <UniqueID>  (81) 
77

>  <SMILES>  (81) 
C=c1[n-]c(=O)n(CCc2ccc(OC)c(OC)c2)c(=O)c1=Cc1ccc([O-])c(O)c1[O-]

>  <Energy>  (81) 
74.70919378642056

>  <Genealogy>  (81) 
C=c1[n-]c(=O)n(CCc2ccc(OC)c(OC)c2)c(=O)c1=Cc1ccc([O-])c(O)c1[O-] (protonated)
C=c1[n-]c(=O)n(CCc2ccc(OC)c(OC)c2)c(=O)c1=Cc1ccc([O-])c(O)c1[O-] (3D coordinates assigned)
C=c1[n-]c(=O)n(CCc2ccc(OC)c(OC)c2)c(=O)c1=Cc1ccc([O-])c(O)c1[O-] (optimized conformer: 74.70919378642056 kcal/mol)

>  <smiles>  (81) 
C=c1[nH]c(=O)n(CCc2ccc(OC)c(OC)c2)c(=O)c1=Cc1ccc(O)c(O)c1O

>  <score_type>  (81) 
oracle

>  <origin>  (81) 
adg

>  <m_score__min__energy>  (81) 
-15.92

>  <m_primary>  (81) 
energy

$$$$
81:0
     RDKit          3D

 50 52  0  0  0  0  0  0  0  0999 V2000
   64.7320   32.4980   46.9010 H   0  0  0  0  0  0  0  0  0  0  0  0
   64.1260   33.1510   47.3390 O   0  0  0  0  0  0  0  0  0  0  0  0
   62.8260   32.6690   47.1360 C   0  0  0  0  0  0  0  0  0  0  0  0
   62.8680   31.7640   46.5122 H   0  0  0  0  0  0  0  0  0  0  0  0
   62.2310   33.4461   46.6339 H   0  0  0  0  0  0  0  0  0  0  0  0
   62.1690   32.3280   48.4770 C   0  0  0  0  0  0  0  0  0  0  0  0
   62.9325   31.8972   49.1415 H   0  0  0  0  0  0  0  0  0  0  0  0
   61.3539   31.6184   48.2720 H   0  0  0  0  0  0  0  0  0  0  0  0
   61.5490   33.5500   49.1720 C   0  0  0  0  0  0  0  0  0  0  0  0
   61.1770   34.2464   48.4061 H   0  0  0  0  0  0  0  0  0  0  0  0
   62.3243   34.0261   49.7902 H   0  0  0  0  0  0  0  0  0  0  0  0
   60.4320   33.1620   50.0490 N   0  0  0  0  0  0  0  0  0  0  0  0
   59.1340   32.8520   49.5080 C   0  0  0  0  0  0  0  0  0  0  0  0
   58.1650   32.6640   50.2920 O   0  0  0  0  0  0  0  0  0  0  0  0
   58.9030   32.7620   48.0480 C   0  0  0  0  0  0  0  0  0  0  0  0
   59.0140   33.9070   47.2430 C   0  0  0  0  0  0  0  0  0  0  0  0
   59.2741   34.8734   47.6996 H   0  0  0  0  0  0  0  0  0  0  0  0
   58.7960   33.8260   45.8650 C   0  0  0  0  0  0  0  0  0  0  0  0
   58.8780   34.7289   45.2421 H   0  0  0  0  0  0  0  0  0  0  0  0
   58.4740   32.6000   45.2770 C   0  0  0  0  0  0  0  0  0  0  0  0
   58.2931   32.5418   44.1935 H   0  0  0  0  0  0  0  0  0  0  0  0
   58.3810   31.4450   46.0640 C   0  0  0  0  0  0  0  0  0  0  0  0
   58.0430   30.1840   45.4620 N   0  0  0  0  0  0  0  0  0  0  0  0
   57.2570   30.0160   44.3750 C   0  0  0  0  0  0  0  0  0  0  0  0
   56.6360   31.1290   43.5860 C   0  0  0  0  0  0  0  0  0  0  0  0
   56.2181   31.8780   44.2748 H   0  0  0  0  0  0  0  0  0  0  0  0
   57.4014   31.6005   42.9521 H   0  0  0  0  0  0  0  0  0  0  0  0
   55.8328   30.7253   42.9521 H   0  0  0  0  0  0  0  0  0  0  0  0
   57.1450   28.6760   44.0640 C   0  0  0  0  0  0  0  0  0  0  0  0
   56.5798   28.2423   43.2259 H   0  0  0  0  0  0  0  0  0  0  0  0
   57.8850   27.9790   45.0150 C   0  0  0  0  0  0  0  0  0  0  0  0
   58.0730   26.6430   45.0820 C   0  0  0  0  0  0  0  0  0  0  0  0
   58.8052   26.2018   44.3897 H   0  0  0  0  0  0  0  0  0  0  0  0
   57.3770   25.7240   46.0080 C   0  0  0  0  0  0  0  0  0  0  0  0
   57.9180   24.6480   46.6070 N   0  0  0  0  0  0  0  0  0  0  0  0
   56.8870   24.1180   47.2980 C   0  0  0  0  0  0  0  0  0  0  0  0
   57.0040   23.0850   48.0050 O   0  0  0  0  0  0  0  0  0  0  0  0
   55.7180   24.7840   47.1710 N   0  0  0  0  0  0  0  0  0  0  0  0
   56.0450   25.7920   46.3480 C   0  0  0  0  0  0  0  0  0  0  0  0
   55.1440   26.7600   45.9180 O   0  0  0  0  0  0  0  0  0  0  0  0
   58.4320   28.9490   45.8670 C   0  0  0  0  0  0  0  0  0  0  0  0
   59.2400   28.7270   46.9150 C   0  0  0  0  0  0  0  0  0  0  0  0
   59.6089   29.5727   47.5139 H   0  0  0  0  0  0  0  0  0  0  0  0
   59.5335   27.6993   47.1752 H   0  0  0  0  0  0  0  0  0  0  0  0
   58.6000   31.5280   47.4460 C   0  0  0  0  0  0  0  0  0  0  0  0
   58.5343   30.6207   48.0644 H   0  0  0  0  0  0  0  0  0  0  0  0
   60.6850   32.9050   51.4680 C   0  0  0  0  0  0  0  0  0  0  0  0
   60.0432   33.5569   52.0788 H   0  0  0  0  0  0  0  0  0  0  0  0
   60.4609   31.8524   51.6956 H   0  0  0  0  0  0  0  0  0  0  0  0
   61.7410   33.1126   51.6956 H   0  0  0  0  0  0  0  0  0  0  0  0
  1  2  1  0
  2  3  1  0
  3  4  1  0
  3  5  1  0
  3  6  1  0
  6  7  1  0
  6  8  1  0
  6  9  1  0
  9 10  1  0
  9 11  1  0
  9 12  1  0
 12 13  1  0
 13 14  2  0
 13 15  1  0
 15 16  2  0
 16 17  1  0
 16 18  1  0
 18 19  1  0
 18 20  2  0
 20 21  1  0
 20 22  1  0
 22 23  1  0
 23 24  1  0
 24 25  1  0
 25 26  1  0
 25 27  1  0
 25 28  1  0
 24 29  2  0
 29 30  1  0
 29 31  1  0
 31 32  2  0
 32 33  1  0
 32 34  1  0
 34 35  1  0
 35 36  1  0
 36 37  2  0
 36 38  1  0
 38 39  1  0
 39 40  1  0
 31 41  1  0
 41 42  2  0
 42 43  1  0
 42 44  1  0
 22 45  2  0
 45 46  1  0
 12 47  1  0
 47 48  1  0
 47 49  1  0
 47 50  1  0
 45 15  1  0
 41 23  1  0
 39 34  2  0
M  CHG  3  35  -1  38  -1  40  -1
M  END
>  <UniqueID>  (82) 
78

>  <SMILES>  (82) 
C=c1/c(=C/c2[n-]c(=O)[n-]c2[O-])cc(C)n1-c1cccc(C(=O)N(C)CCCO)c1

>  <Energy>  (82) 
118.33604872543894

>  <Genealogy>  (82) 
C=c1c(=Cc2[n-]c(=O)[n-]c2[O-])cc(C)n1-c1cccc(C(=O)N(C)CCCO)c1 (protonated)
C=c1/c(=C/c2[n-]c(=O)[n-]c2[O-])cc(C)n1-c1cccc(C(=O)N(C)CCCO)c1 (cis-trans isomerization)
C=c1/c(=C/c2[n-]c(=O)[n-]c2[O-])cc(C)n1-c1cccc(C(=O)N(C)CCCO)c1 (3D coordinates assigned)
C=c1/c(=C/c2[n-]c(=O)[n-]c2[O-])cc(C)n1-c1cccc(C(=O)N(C)CCCO)c1 (optimized conformer: 118.33604872543894 kcal/mol)

>  <smiles>  (82) 
C=c1c(=Cc2[nH]c(=O)[nH]c2O)cc(C)n1-c1cccc(C(=O)N(C)CCCO)c1

>  <score_type>  (82) 
oracle

>  <origin>  (82) 
adg

>  <m_score__min__energy>  (82) 
-15.93

>  <m_primary>  (82) 
energy

$$$$
82:0
     RDKit          3D

 62 65  0  0  0  0  0  0  0  0999 V2000
   60.7550   30.0230   50.6470 O   0  0  0  0  0  0  0  0  0  0  0  0
   60.1640   29.6230   49.6060 C   0  0  0  0  0  0  0  0  0  0  0  0
   59.8870   28.2200   49.4730 N   0  0  0  0  0  0  0  0  0  0  0  0
   59.7640   27.4810   48.2460 C   0  0  0  0  0  0  0  0  0  0  0  0
   60.8260   26.6570   47.8410 C   0  0  0  0  0  0  0  0  0  0  0  0
   60.7190   25.8910   46.6760 C   0  0  0  0  0  0  0  0  0  0  0  0
   59.5530   25.9400   45.9060 C   0  0  0  0  0  0  0  0  0  0  0  0
   58.4980   26.7810   46.2840 C   0  0  0  0  0  0  0  0  0  0  0  0
   56.9730   26.7500   45.4080 S   0  0  0  0  0  0  0  0  0  0  0  0
   56.6420   28.1080   44.8450 O   0  0  0  0  0  0  0  0  0  0  0  0
   55.8620   26.3540   46.3450 O   0  0  0  0  0  0  0  0  0  0  0  0
   57.1070   25.5600   44.1480 N   0  0  0  0  0  0  0  0  0  0  0  0
   57.0340   24.2670   44.3400 C   0  0  0  0  0  0  0  0  0  0  0  0
   57.1780   23.7480   45.7580 C   0  0  0  0  0  0  0  0  0  0  0  0
   57.5480   22.2650   45.8530 C   0  0  0  0  0  0  0  0  0  0  0  0
   56.4490   21.3310   45.3020 C   0  0  0  0  0  0  0  0  0  0  0  0
   56.6370   20.9400   43.8260 C   0  0  0  0  0  0  0  0  0  0  0  0
   57.3560   22.0370   43.0180 C   0  0  0  0  0  0  0  0  0  0  0  0
   56.7820   23.3750   43.2240 N   0  0  0  0  0  0  0  0  0  0  0  0
   58.6110   27.5580   47.4470 C   0  0  0  0  0  0  0  0  0  0  0  0
   59.7540   30.6080   48.5690 C   0  0  0  0  0  0  0  0  0  0  0  0
   60.1250   30.4190   47.2280 C   0  0  0  0  0  0  0  0  0  0  0  0
   59.7560   31.3510   46.2500 C   0  0  0  0  0  0  0  0  0  0  0  0
   59.0250   32.4900   46.6010 C   0  0  0  0  0  0  0  0  0  0  0  0
   58.5730   33.6570   45.3620 S   0  0  0  0  0  0  0  0  0  0  0  0
   59.8150   34.1590   44.6860 O   0  0  0  0  0  0  0  0  0  0  0  0
   57.8550   34.8170   45.9940 O   0  0  0  0  0  0  0  0  0  0  0  0
   57.5390   32.8800   44.1860 N   0  0  0  0  0  0  0  0  0  0  0  0
   58.2430   32.6950   42.9160 C   0  0  0  0  0  0  0  0  0  0  0  0
   57.5990   31.4980   42.2330 C   0  0  0  0  0  0  0  0  0  0  0  0
   56.9210   30.7200   43.3510 C   0  0  0  0  0  0  0  0  0  0  0  0
   57.1630   31.5360   44.6170 C   0  0  0  0  0  0  0  0  0  0  0  0
   58.6740   32.6970   47.9390 C   0  0  0  0  0  0  0  0  0  0  0  0
   59.0310   31.7610   48.9150 C   0  0  0  0  0  0  0  0  0  0  0  0
   61.7460   26.6137   48.4425 H   0  0  0  0  0  0  0  0  0  0  0  0
   61.5551   25.2477   46.3643 H   0  0  0  0  0  0  0  0  0  0  0  0
   59.4639   25.3181   45.0031 H   0  0  0  0  0  0  0  0  0  0  0  0
   57.0730   25.9320   43.1720 H   0  0  0  0  0  0  0  0  0  0  0  0
   57.9636   24.3317   46.2601 H   0  0  0  0  0  0  0  0  0  0  0  0
   56.1926   23.8574   46.2345 H   0  0  0  0  0  0  0  0  0  0  0  0
   58.4710   22.0968   45.2787 H   0  0  0  0  0  0  0  0  0  0  0  0
   57.6776   22.0265   46.9190 H   0  0  0  0  0  0  0  0  0  0  0  0
   56.4438   20.4109   45.9049 H   0  0  0  0  0  0  0  0  0  0  0  0
   55.5013   21.8860   45.3643 H   0  0  0  0  0  0  0  0  0  0  0  0
   57.2332   20.0168   43.7777 H   0  0  0  0  0  0  0  0  0  0  0  0
   55.6391   20.7970   43.3858 H   0  0  0  0  0  0  0  0  0  0  0  0
   58.4131   22.0591   43.3212 H   0  0  0  0  0  0  0  0  0  0  0  0
   57.2382   21.7901   41.9526 H   0  0  0  0  0  0  0  0  0  0  0  0
   56.0660   23.6580   42.5210 H   0  0  0  0  0  0  0  0  0  0  0  0
   57.7910   28.2322   47.7351 H   0  0  0  0  0  0  0  0  0  0  0  0
   60.7100   29.5320   46.9434 H   0  0  0  0  0  0  0  0  0  0  0  0
   60.0426   31.1862   45.2009 H   0  0  0  0  0  0  0  0  0  0  0  0
   58.1368   33.5924   42.2888 H   0  0  0  0  0  0  0  0  0  0  0  0
   59.3180   32.5281   43.0788 H   0  0  0  0  0  0  0  0  0  0  0  0
   56.8590   31.8296   41.4897 H   0  0  0  0  0  0  0  0  0  0  0  0
   58.3366   30.8855   41.6937 H   0  0  0  0  0  0  0  0  0  0  0  0
   55.8429   30.6249   43.1547 H   0  0  0  0  0  0  0  0  0  0  0  0
   57.3208   29.6991   43.4397 H   0  0  0  0  0  0  0  0  0  0  0  0
   56.2462   31.5752   45.2235 H   0  0  0  0  0  0  0  0  0  0  0  0
   57.9532   31.0833   45.2339 H   0  0  0  0  0  0  0  0  0  0  0  0
   58.1147   33.6000   48.2249 H   0  0  0  0  0  0  0  0  0  0  0  0
   58.7428   31.9296   49.9631 H   0  0  0  0  0  0  0  0  0  0  0  0
  1  2  2  0
  2  3  1  0
  3  4  1  0
  4  5  2  0
  5  6  1  0
  6  7  2  0
  7  8  1  0
  8  9  1  0
  9 10  2  0
  9 11  2  0
  9 12  1  0
 12 13  2  3
 13 14  1  0
 14 15  1  0
 15 16  1  0
 16 17  1  0
 17 18  1  0
 18 19  1  0
  8 20  2  0
  2 21  1  0
 21 22  2  0
 22 23  1  0
 23 24  2  0
 24 25  1  0
 25 26  2  0
 25 27  2  0
 25 28  1  0
 28 29  1  0
 29 30  1  0
 30 31  1  0
 31 32  1  0
 24 33  1  0
 33 34  2  0
 20  4  1  0
 34 21  1  0
 19 13  1  0
 32 28  1  0
  5 35  1  0
  6 36  1  0
  7 37  1  0
 12 38  1  0
 14 39  1  0
 14 40  1  0
 15 41  1  0
 15 42  1  0
 16 43  1  0
 16 44  1  0
 17 45  1  0
 17 46  1  0
 18 47  1  0
 18 48  1  0
 19 49  1  0
 20 50  1  0
 22 51  1  0
 23 52  1  0
 29 53  1  0
 29 54  1  0
 30 55  1  0
 30 56  1  0
 31 57  1  0
 31 58  1  0
 32 59  1  0
 32 60  1  0
 33 61  1  0
 34 62  1  0
M  CHG  2   3  -1  12   1
M  END
>  <UniqueID>  (83) 
79

>  <SMILES>  (83) 
O=C([N-]c1cccc(S(=O)(=O)[NH+]=C2CCCCCN2)c1)c1ccc(S(=O)(=O)N2CCCC2)cc1

>  <Energy>  (83) 
75.79482187251655

>  <Genealogy>  (83) 
O=C([N-]c1cccc(S(=O)(=O)[NH+]=C2CCCCCN2)c1)c1ccc(S(=O)(=O)N2CCCC2)cc1 (protonated)
O=C([N-]c1cccc(S(=O)(=O)[NH+]=C2CCCCCN2)c1)c1ccc(S(=O)(=O)N2CCCC2)cc1 (3D coordinates assigned)
O=C([N-]c1cccc(S(=O)(=O)[NH+]=C2CCCCCN2)c1)c1ccc(S(=O)(=O)N2CCCC2)cc1 (nonaromatic ring conformer: 75.79482187251655 kcal/mol)

>  <smiles>  (83) 
O=C(Nc1cccc(S(=O)(=O)N=C2CCCCCN2)c1)c1ccc(S(=O)(=O)N2CCCC2)cc1

>  <score_type>  (83) 
oracle

>  <origin>  (83) 
adg

>  <m_score__min__energy>  (83) 
-7.9500000000000002

>  <m_primary>  (83) 
energy

$$$$
83:0
     RDKit          3D

 53 54  0  0  0  0  0  0  0  0999 V2000
   57.8767   29.8773   43.7460 H   0  0  0  0  0  0  0  0  0  0  0  0
   57.7530   29.5230   44.7800 C   0  0  0  0  0  0  0  0  0  0  0  0
   58.5820   30.1660   45.8230 C   0  0  0  0  0  0  0  0  0  0  0  0
   58.6310   31.4250   45.8780 O   0  0  0  0  0  0  0  0  0  0  0  0
   59.2660   29.3790   46.8010 N   0  0  0  0  0  0  0  0  0  0  0  0
   58.7930   29.1710   48.1630 C   0  0  0  0  0  0  0  0  0  0  0  0
   58.1437   30.0091   48.4562 H   0  0  0  0  0  0  0  0  0  0  0  0
   58.2267   28.2292   48.2111 H   0  0  0  0  0  0  0  0  0  0  0  0
   59.9900   29.0930   49.1230 C   0  0  0  0  0  0  0  0  0  0  0  0
   60.0540   28.0675   49.5158 H   0  0  0  0  0  0  0  0  0  0  0  0
   60.8831   29.3781   48.5476 H   0  0  0  0  0  0  0  0  0  0  0  0
   59.8920   30.0650   50.3140 C   0  0  0  0  0  0  0  0  0  0  0  0
   60.8519   30.5929   50.4139 H   0  0  0  0  0  0  0  0  0  0  0  0
   59.0603   30.7539   50.1051 H   0  0  0  0  0  0  0  0  0  0  0  0
   59.5790   29.3630   51.6480 C   0  0  0  0  0  0  0  0  0  0  0  0
   59.3534   28.3053   51.4473 H   0  0  0  0  0  0  0  0  0  0  0  0
   60.4590   29.4678   52.2996 H   0  0  0  0  0  0  0  0  0  0  0  0
   58.3770   29.9980   52.3710 C   0  0  0  0  0  0  0  0  0  0  0  0
   58.7059   30.9359   52.8423 H   0  0  0  0  0  0  0  0  0  0  0  0
   57.5928   30.1717   51.6194 H   0  0  0  0  0  0  0  0  0  0  0  0
   57.7840   29.0860   53.4550 C   0  0  0  0  0  0  0  0  0  0  0  0
   58.4178   28.1930   53.5597 H   0  0  0  0  0  0  0  0  0  0  0  0
   57.7464   29.6457   54.4012 H   0  0  0  0  0  0  0  0  0  0  0  0
   56.4290   28.6710   53.1070 N   0  0  0  0  0  0  0  0  0  0  0  0
   55.2930   29.5400   53.1740 C   0  0  0  0  0  0  0  0  0  0  0  0
   55.4520   30.7920   53.2220 O   0  0  0  0  0  0  0  0  0  0  0  0
   53.9140   28.9650   53.1030 C   0  0  0  0  0  0  0  0  0  0  0  0
   53.8825   28.2045   52.3088 H   0  0  0  0  0  0  0  0  0  0  0  0
   53.6722   28.5167   54.0780 H   0  0  0  0  0  0  0  0  0  0  0  0
   52.8950   30.0330   52.8020 C   0  0  0  0  0  0  0  0  0  0  0  0
   52.9630   30.7580   51.6000 C   0  0  0  0  0  0  0  0  0  0  0  0
   53.7518   30.5316   50.8675 H   0  0  0  0  0  0  0  0  0  0  0  0
   52.0300   31.7680   51.3310 C   0  0  0  0  0  0  0  0  0  0  0  0
   52.0842   32.3259   50.3845 H   0  0  0  0  0  0  0  0  0  0  0  0
   51.0290   32.0700   52.2620 C   0  0  0  0  0  0  0  0  0  0  0  0
   50.1020   33.0730   51.9930 O   0  0  0  0  0  0  0  0  0  0  0  0
   50.9630   31.3600   53.4670 C   0  0  0  0  0  0  0  0  0  0  0  0
   50.1780   31.5956   54.2007 H   0  0  0  0  0  0  0  0  0  0  0  0
   51.8950   30.3500   53.7400 C   0  0  0  0  0  0  0  0  0  0  0  0
   51.8447   29.8020   54.6925 H   0  0  0  0  0  0  0  0  0  0  0  0
   56.8610   28.5410   44.9940 C   0  0  0  0  0  0  0  0  0  0  0  0
   55.8074   28.7506   44.7573 H   0  0  0  0  0  0  0  0  0  0  0  0
   57.1890   27.1990   45.5240 C   0  0  0  0  0  0  0  0  0  0  0  0
   58.5340   26.8040   45.6040 C   0  0  0  0  0  0  0  0  0  0  0  0
   59.3276   27.4947   45.2831 H   0  0  0  0  0  0  0  0  0  0  0  0
   58.8690   25.5360   46.0900 C   0  0  0  0  0  0  0  0  0  0  0  0
   59.9229   25.2231   46.1275 H   0  0  0  0  0  0  0  0  0  0  0  0
   57.8670   24.6660   46.5280 C   0  0  0  0  0  0  0  0  0  0  0  0
   58.1328   23.6684   46.9078 H   0  0  0  0  0  0  0  0  0  0  0  0
   56.5280   25.0620   46.4840 C   0  0  0  0  0  0  0  0  0  0  0  0
   55.7418   24.3779   46.8358 H   0  0  0  0  0  0  0  0  0  0  0  0
   56.1840   26.3280   45.9930 C   0  0  0  0  0  0  0  0  0  0  0  0
   54.8440   26.7100   45.9730 O   0  0  0  0  0  0  0  0  0  0  0  0
  1  2  1  0
  2  3  1  0
  3  4  2  0
  3  5  1  0
  5  6  1  0
  6  7  1  0
  6  8  1  0
  6  9  1  0
  9 10  1  0
  9 11  1  0
  9 12  1  0
 12 13  1  0
 12 14  1  0
 12 15  1  0
 15 16  1  0
 15 17  1  0
 15 18  1  0
 18 19  1  0
 18 20  1  0
 18 21  1  0
 21 22  1  0
 21 23  1  0
 21 24  1  0
 24 25  1  0
 25 26  2  0
 25 27  1  0
 27 28  1  0
 27 29  1  0
 27 30  1  0
 30 31  2  0
 31 32  1  0
 31 33  1  0
 33 34  1  0
 33 35  2  0
 35 36  1  0
 35 37  1  0
 37 38  1  0
 37 39  2  0
 39 40  1  0
  2 41  2  0
 41 42  1  0
 41 43  1  0
 43 44  2  0
 44 45  1  0
 44 46  1  0
 46 47  1  0
 46 48  2  0
 48 49  1  0
 48 50  1  0
 50 51  1  0
 50 52  2  0
 52 53  1  0
 39 30  1  0
 52 43  1  0
M  CHG  4   5  -1  24  -1  36  -1  53  -1
M  END
>  <UniqueID>  (84) 
80

>  <SMILES>  (84) 
O=C(/C=C\c1ccccc1[O-])[N-]CCCCCC[N-]C(=O)Cc1ccc([O-])cc1

>  <Energy>  (84) 
46.00737274109929

>  <Genealogy>  (84) 
O=C(C=Cc1ccccc1[O-])[N-]CCCCCC[N-]C(=O)Cc1ccc([O-])cc1 (protonated)
O=C(/C=C\c1ccccc1[O-])[N-]CCCCCC[N-]C(=O)Cc1ccc([O-])cc1 (cis-trans isomerization)
O=C(/C=C\c1ccccc1[O-])[N-]CCCCCC[N-]C(=O)Cc1ccc([O-])cc1 (3D coordinates assigned)
O=C(/C=C\c1ccccc1[O-])[N-]CCCCCC[N-]C(=O)Cc1ccc([O-])cc1 (optimized conformer: 46.00737274109929 kcal/mol)

>  <smiles>  (84) 
O=C(C=Cc1ccccc1O)NCCCCCCNC(=O)Cc1ccc(O)cc1

>  <score_type>  (84) 
oracle

>  <origin>  (84) 
adg

>  <m_score__min__energy>  (84) 
-17.84

>  <m_primary>  (84) 
energy

$$$$
84:0
     RDKit          3D

 48 50  0  0  0  0  0  0  0  0999 V2000
   59.2380   34.4550   54.1890 C   0  0  0  0  0  0  0  0  0  0  0  0
   58.7220   33.0380   54.3780 C   0  0  0  0  0  0  0  0  0  0  0  0
   59.2370   32.2070   53.3420 O   0  0  0  0  0  0  0  0  0  0  0  0
   59.0690   32.4430   51.9670 C   0  0  0  0  0  0  0  0  0  0  0  0
   59.9360   33.2850   51.2480 C   0  0  0  0  0  0  0  0  0  0  0  0
   59.7450   33.4990   49.8820 C   0  0  0  0  0  0  0  0  0  0  0  0
   58.6890   32.8720   49.2040 C   0  0  0  0  0  0  0  0  0  0  0  0
   58.4960   33.1050   47.7530 C   0  0  0  0  0  0  0  0  0  0  0  0
   58.8740   34.1940   47.2460 O   0  0  0  0  0  0  0  0  0  0  0  0
   57.8440   32.1460   46.9080 N   0  0  0  0  0  0  0  0  0  0  0  0
   57.8820   32.1180   45.4720 C   0  0  0  0  0  0  0  0  0  0  0  0
   58.4620   33.1640   44.7320 C   0  0  0  0  0  0  0  0  0  0  0  0
   58.4760   33.1180   43.3360 C   0  0  0  0  0  0  0  0  0  0  0  0
   57.8970   32.0370   42.6660 C   0  0  0  0  0  0  0  0  0  0  0  0
   57.2970   31.0050   43.3920 C   0  0  0  0  0  0  0  0  0  0  0  0
   57.2830   31.0440   44.7940 C   0  0  0  0  0  0  0  0  0  0  0  0
   56.6800   30.0170   45.5180 O   0  0  0  0  0  0  0  0  0  0  0  0
   57.8090   32.0490   49.9250 C   0  0  0  0  0  0  0  0  0  0  0  0
   57.9960   31.8240   51.2980 C   0  0  0  0  0  0  0  0  0  0  0  0
   57.0450   30.9330   52.0520 C   0  0  0  0  0  0  0  0  0  0  0  0
   55.7210   31.4340   51.9050 O   0  0  0  0  0  0  0  0  0  0  0  0
   54.5850   30.6210   51.9680 C   0  0  0  0  0  0  0  0  0  0  0  0
   54.6830   29.3720   51.8250 O   0  0  0  0  0  0  0  0  0  0  0  0
   53.2480   31.2260   52.2700 C   0  0  0  0  0  0  0  0  0  0  0  0
   52.3830   31.2670   51.0460 C   0  0  0  0  0  0  0  0  0  0  0  0
   52.3870   30.1110   49.8180 S   0  0  0  0  0  0  0  0  0  0  0  0
   51.1070   30.8450   49.0130 C   0  0  0  0  0  0  0  0  0  0  0  0
   50.6120   30.4230   47.9360 O   0  0  0  0  0  0  0  0  0  0  0  0
   50.6510   31.9430   49.6510 N   0  0  0  0  0  0  0  0  0  0  0  0
   51.3570   32.1730   50.7890 C   0  0  0  0  0  0  0  0  0  0  0  0
   51.0590   33.2360   51.6310 O   0  0  0  0  0  0  0  0  0  0  0  0
   59.4066   34.9180   55.1724 H   0  0  0  0  0  0  0  0  0  0  0  0
   60.1844   34.4290   53.6289 H   0  0  0  0  0  0  0  0  0  0  0  0
   58.4965   35.0436   53.6289 H   0  0  0  0  0  0  0  0  0  0  0  0
   59.0516   32.6542   55.3548 H   0  0  0  0  0  0  0  0  0  0  0  0
   57.6227   33.0379   54.3381 H   0  0  0  0  0  0  0  0  0  0  0  0
   60.7712   33.7788   51.7662 H   0  0  0  0  0  0  0  0  0  0  0  0
   60.4276   34.1643   49.3330 H   0  0  0  0  0  0  0  0  0  0  0  0
   58.9070   34.0230   45.2555 H   0  0  0  0  0  0  0  0  0  0  0  0
   58.9430   33.9331   42.7638 H   0  0  0  0  0  0  0  0  0  0  0  0
   57.9136   31.9985   41.5668 H   0  0  0  0  0  0  0  0  0  0  0  0
   56.8341   30.1593   42.8624 H   0  0  0  0  0  0  0  0  0  0  0  0
   56.5730   30.0690   46.5240 H   0  0  0  0  0  0  0  0  0  0  0  0
   56.9623   31.5745   49.4074 H   0  0  0  0  0  0  0  0  0  0  0  0
   57.0991   29.9113   51.6481 H   0  0  0  0  0  0  0  0  0  0  0  0
   57.3186   30.9166   53.1173 H   0  0  0  0  0  0  0  0  0  0  0  0
   52.7479   30.6238   53.0429 H   0  0  0  0  0  0  0  0  0  0  0  0
   53.4033   32.2566   52.6217 H   0  0  0  0  0  0  0  0  0  0  0  0
  1  2  1  0
  2  3  1  0
  3  4  1  0
  4  5  2  0
  5  6  1  0
  6  7  2  0
  7  8  1  0
  8  9  2  0
  8 10  1  0
 10 11  1  0
 11 12  2  0
 12 13  1  0
 13 14  2  0
 14 15  1  0
 15 16  2  0
 16 17  1  0
  7 18  1  0
 18 19  2  0
 19 20  1  0
 20 21  1  0
 21 22  1  0
 22 23  2  0
 22 24  1  0
 24 25  1  0
 25 26  1  0
 26 27  1  0
 27 28  2  0
 27 29  1  0
 29 30  1  0
 30 31  1  0
 19  4  1  0
 30 25  2  0
 16 11  1  0
  1 32  1  0
  1 33  1  0
  1 34  1  0
  2 35  1  0
  2 36  1  0
  5 37  1  0
  6 38  1  0
 12 39  1  0
 13 40  1  0
 14 41  1  0
 15 42  1  0
 17 43  1  0
 18 44  1  0
 20 45  1  0
 20 46  1  0
 24 47  1  0
 24 48  1  0
M  CHG  3  10  -1  29  -1  31  -1
M  END
>  <UniqueID>  (85) 
81

>  <SMILES>  (85) 
CCOc1ccc(C(=O)[N-]c2ccccc2O)cc1COC(=O)Cc1sc(=O)[n-]c1[O-]

>  <Energy>  (85) 
79.40300674834953

>  <Genealogy>  (85) 
CCOc1ccc(C(=O)[N-]c2ccccc2O)cc1COC(=O)Cc1sc(=O)[n-]c1[O-] (protonated)
CCOc1ccc(C(=O)[N-]c2ccccc2O)cc1COC(=O)Cc1sc(=O)[n-]c1[O-] (3D coordinates assigned)
CCOc1ccc(C(=O)[N-]c2ccccc2O)cc1COC(=O)Cc1sc(=O)[n-]c1[O-] (optimized conformer: 79.40300674834953 kcal/mol)

>  <smiles>  (85) 
CCOc1ccc(C(=O)Nc2ccccc2O)cc1COC(=O)Cc1sc(=O)[nH]c1O

>  <score_type>  (85) 
oracle

>  <origin>  (85) 
adg

>  <m_score__min__energy>  (85) 
-16.48

>  <m_primary>  (85) 
energy

$$$$
85:0
     RDKit          3D

 47 49  0  0  0  0  0  0  0  0999 V2000
   54.0660   26.5380   46.3270 H   0  0  0  0  0  0  0  0  0  0  0  0
   54.9750   26.2690   45.8880 N   0  0  0  0  0  0  0  0  0  0  0  0
   55.9570   27.1070   45.7990 C   0  0  0  0  0  0  0  0  0  0  0  0
   57.1880   26.7720   46.2680 N   0  0  0  0  0  0  0  0  0  0  0  0
   58.2330   27.6380   46.1920 C   0  0  0  0  0  0  0  0  0  0  0  0
   58.0520   28.8950   45.5880 C   0  0  0  0  0  0  0  0  0  0  0  0
   56.7670   29.2240   45.1240 C   0  0  0  0  0  0  0  0  0  0  0  0
   56.5390   30.3490   44.6060 O   0  0  0  0  0  0  0  0  0  0  0  0
   55.7560   28.3250   45.2360 N   0  0  0  0  0  0  0  0  0  0  0  0
   59.1730   29.9030   45.5350 C   0  0  0  0  0  0  0  0  0  0  0  0
   59.1980   30.3509   44.5306 H   0  0  0  0  0  0  0  0  0  0  0  0
   58.9801   30.6599   46.3095 H   0  0  0  0  0  0  0  0  0  0  0  0
   60.5430   29.2720   45.8280 C   0  0  0  0  0  0  0  0  0  0  0  0
   60.8862   28.7435   44.9264 H   0  0  0  0  0  0  0  0  0  0  0  0
   61.2276   30.0852   46.1109 H   0  0  0  0  0  0  0  0  0  0  0  0
   60.5050   28.3130   46.9510 N   0  0  1  0  0  0  0  0  0  0  0  0
   61.4680   27.9120   47.0440 H   0  0  0  0  0  0  0  0  0  0  0  0
   60.1490   29.0760   48.4890 S   0  0  0  0  0  0  0  0  0  0  0  0
   60.9170   28.3800   49.5770 O   0  0  0  0  0  0  0  0  0  0  0  0
   58.6820   28.9710   48.8070 O   0  0  0  0  0  0  0  0  0  0  0  0
   60.6380   30.7700   48.4640 C   0  0  0  0  0  0  0  0  0  0  0  0
   61.8850   31.1620   48.9660 C   0  0  0  0  0  0  0  0  0  0  0  0
   62.5812   30.4065   49.3592 H   0  0  0  0  0  0  0  0  0  0  0  0
   62.2460   32.5120   48.9680 C   0  0  0  0  0  0  0  0  0  0  0  0
   63.2243   32.8179   49.3672 H   0  0  0  0  0  0  0  0  0  0  0  0
   61.3670   33.4740   48.4640 C   0  0  0  0  0  0  0  0  0  0  0  0
   61.6515   34.5365   48.4779 H   0  0  0  0  0  0  0  0  0  0  0  0
   60.1200   33.0900   47.9390 C   0  0  0  0  0  0  0  0  0  0  0  0
   59.1770   34.0450   47.4350 N   0  0  0  0  0  0  0  0  0  0  0  0
   58.9110   34.3370   46.0570 C   0  0  0  0  0  0  0  0  0  0  0  0
   59.4680   35.3110   45.4830 O   0  0  0  0  0  0  0  0  0  0  0  0
   58.0410   33.4120   45.2660 C   0  0  0  0  0  0  0  0  0  0  0  0
   58.1516   32.3892   45.6553 H   0  0  0  0  0  0  0  0  0  0  0  0
   56.9953   33.7408   45.3575 H   0  0  0  0  0  0  0  0  0  0  0  0
   58.4400   33.4350   43.7910 C   0  0  0  0  0  0  0  0  0  0  0  0
   57.8661   34.2180   43.2737 H   0  0  0  0  0  0  0  0  0  0  0  0
   59.5179   33.6420   43.7190 H   0  0  0  0  0  0  0  0  0  0  0  0
   58.0970   31.8210   43.0050 S   0  0  0  0  0  0  0  0  0  0  0  0
   57.7470   32.4870   41.3450 C   0  0  0  0  0  0  0  0  0  0  0  0
   57.2372   33.4572   41.4392 H   0  0  0  0  0  0  0  0  0  0  0  0
   58.6913   32.6207   40.7970 H   0  0  0  0  0  0  0  0  0  0  0  0
   57.1013   31.7851   40.7970 H   0  0  0  0  0  0  0  0  0  0  0  0
   59.7570   31.7360   47.9630 C   0  0  0  0  0  0  0  0  0  0  0  0
   58.7706   31.4297   47.5846 H   0  0  0  0  0  0  0  0  0  0  0  0
   59.5870   27.1900   46.6750 C   0  0  0  0  0  0  0  0  0  0  0  0
   60.0395   26.5496   45.9035 H   0  0  0  0  0  0  0  0  0  0  0  0
   59.4353   26.6506   47.6216 H   0  0  0  0  0  0  0  0  0  0  0  0
  1  2  1  0
  2  3  2  0
  3  4  1  0
  4  5  1  0
  5  6  2  0
  6  7  1  0
  7  8  2  0
  7  9  1  0
  6 10  1  0
 10 11  1  0
 10 12  1  0
 10 13  1  0
 13 14  1  0
 13 15  1  0
 13 16  1  0
 16 17  1  1
 16 18  1  0
 18 19  2  0
 18 20  2  0
 18 21  1  0
 21 22  2  0
 22 23  1  0
 22 24  1  0
 24 25  1  0
 24 26  2  0
 26 27  1  0
 26 28  1  0
 28 29  1  0
 29 30  1  0
 30 31  2  0
 30 32  1  0
 32 33  1  0
 32 34  1  0
 32 35  1  0
 35 36  1  0
 35 37  1  0
 35 38  1  0
 38 39  1  0
 39 40  1  0
 39 41  1  0
 39 42  1  0
 28 43  2  0
 43 44  1  0
 16 45  1  0
 45 46  1  0
 45 47  1  0
  9  3  1  0
 43 21  1  0
 45  5  1  0
M  CHG  4   4  -1   9  -1  16   1  29  -1
M  END
>  <UniqueID>  (86) 
82

>  <SMILES>  (86) 
[H]/N=c1\[n-]c2c(c(=O)[n-]1)CC[N@@H+](S(=O)(=O)c1cccc([N-]C(=O)CCSC)c1)C2

>  <Energy>  (86) 
50.18653175100652

>  <Genealogy>  (86) 
CSCCC(=O)[N-]c1cccc(S(=O)(=O)[NH+]2CCc3c([n-]c(=N)[n-]c3=O)C2)c1 (protonated)
CSCCC(=O)[N-]c1cccc(S(=O)(=O)[N@@H+]2CCc3c([n-]c(=N)[n-]c3=O)C2)c1 (chirality)
[H]/N=c1\[n-]c2c(c(=O)[n-]1)CC[N@@H+](S(=O)(=O)c1cccc([N-]C(=O)CCSC)c1)C2 (cis-trans isomerization)
[H]/N=c1\[n-]c2c(c(=O)[n-]1)CC[N@@H+](S(=O)(=O)c1cccc([N-]C(=O)CCSC)c1)C2 (3D coordinates assigned)
[H]/N=c1\[n-]c2c(c(=O)[n-]1)CC[N@@H+](S(=O)(=O)c1cccc([N-]C(=O)CCSC)c1)C2 (nonaromatic ring conformer: 50.18653175100652 kcal/mol)

>  <smiles>  (86) 
CSCCC(=O)Nc1cccc(S(=O)(=O)N2CCc3c([nH]c(=N)[nH]c3=O)C2)c1

>  <score_type>  (86) 
oracle

>  <origin>  (86) 
adg

>  <m_score__min__energy>  (86) 
-11.93

>  <m_primary>  (86) 
energy

$$$$
86:0
     RDKit          3D

 42 45  0  0  0  0  0  0  0  0999 V2000
   61.5390   32.3070   49.7890 C   0  0  0  0  0  0  0  0  0  0  0  0
   60.2140   31.8090   50.3030 C   0  0  0  0  0  0  0  0  0  0  0  0
   59.3970   32.6690   51.0560 C   0  0  0  0  0  0  0  0  0  0  0  0
   58.1640   32.2310   51.5440 C   0  0  0  0  0  0  0  0  0  0  0  0
   57.7250   30.9350   51.2730 C   0  0  0  0  0  0  0  0  0  0  0  0
   58.5200   30.0710   50.5180 C   0  0  0  0  0  0  0  0  0  0  0  0
   59.7760   30.4880   50.0400 C   0  0  0  0  0  0  0  0  0  0  0  0
   60.5950   29.5650   49.2180 C   0  0  0  0  0  0  0  0  0  0  0  0
   60.5270   29.4720   47.8810 C   0  0  0  0  0  0  0  0  0  0  0  0
   59.7410   30.3830   47.0120 C   0  0  0  0  0  0  0  0  0  0  0  0
   60.0240   31.7130   47.0460 N   0  0  0  0  0  0  0  0  0  0  0  0
   59.3060   32.6160   46.3410 C   0  0  0  0  0  0  0  0  0  0  0  0
   59.6440   33.9720   46.3920 C   0  0  0  0  0  0  0  0  0  0  0  0
   58.9000   34.9070   45.6680 C   0  0  0  0  0  0  0  0  0  0  0  0
   57.8140   34.4900   44.8940 C   0  0  0  0  0  0  0  0  0  0  0  0
   57.4690   33.1350   44.8380 C   0  0  0  0  0  0  0  0  0  0  0  0
   58.2160   32.1870   45.5640 C   0  0  0  0  0  0  0  0  0  0  0  0
   57.9180   30.8140   45.5390 C   0  0  0  0  0  0  0  0  0  0  0  0
   56.9520   30.3980   44.8390 O   0  0  0  0  0  0  0  0  0  0  0  0
   58.6840   29.9270   46.2570 N   0  0  0  0  0  0  0  0  0  0  0  0
   58.3880   28.5180   46.1720 C   0  0  0  0  0  0  0  0  0  0  0  0
   57.1540   28.0060   46.3750 N   0  0  0  0  0  0  0  0  0  0  0  0
   57.1280   26.6610   46.1760 C   0  0  0  0  0  0  0  0  0  0  0  0
   55.8940   25.8830   46.3450 C   0  0  0  0  0  0  0  0  0  0  0  0
   54.7890   26.3430   45.9520 O   0  0  0  0  0  0  0  0  0  0  0  0
   55.9400   24.6290   46.9390 O   0  0  0  0  0  0  0  0  0  0  0  0
   58.3470   26.0960   45.7980 C   0  0  0  0  0  0  0  0  0  0  0  0
   59.4870   27.3290   45.7110 S   0  0  0  0  0  0  0  0  0  0  0  0
   62.1930   32.5528   50.6387 H   0  0  0  0  0  0  0  0  0  0  0  0
   62.0119   31.5253   49.1764 H   0  0  0  0  0  0  0  0  0  0  0  0
   61.3800   33.2067   49.1764 H   0  0  0  0  0  0  0  0  0  0  0  0
   59.7315   33.6963   51.2630 H   0  0  0  0  0  0  0  0  0  0  0  0
   57.5381   32.9089   52.1429 H   0  0  0  0  0  0  0  0  0  0  0  0
   56.7515   30.5935   51.6546 H   0  0  0  0  0  0  0  0  0  0  0  0
   58.1615   29.0553   50.2948 H   0  0  0  0  0  0  0  0  0  0  0  0
   61.3082   28.9107   49.7407 H   0  0  0  0  0  0  0  0  0  0  0  0
   61.0935   28.6640   47.3950 H   0  0  0  0  0  0  0  0  0  0  0  0
   60.4968   34.3029   47.0030 H   0  0  0  0  0  0  0  0  0  0  0  0
   59.1695   35.9727   45.7073 H   0  0  0  0  0  0  0  0  0  0  0  0
   57.2286   35.2289   44.3271 H   0  0  0  0  0  0  0  0  0  0  0  0
   56.6141   32.8101   44.2268 H   0  0  0  0  0  0  0  0  0  0  0  0
   58.5299   25.0309   45.5930 H   0  0  0  0  0  0  0  0  0  0  0  0
  1  2  1  0
  2  3  2  0
  3  4  1  0
  4  5  2  0
  5  6  1  0
  6  7  2  0
  7  8  1  0
  8  9  2  3
  9 10  1  0
 10 11  2  0
 11 12  1  0
 12 13  2  0
 13 14  1  0
 14 15  2  0
 15 16  1  0
 16 17  2  0
 17 18  1  0
 18 19  2  0
 18 20  1  0
 20 21  1  0
 21 22  2  0
 22 23  1  0
 23 24  1  0
 24 25  2  0
 24 26  1  0
 23 27  2  0
 27 28  1  0
  7  2  1  0
 20 10  1  0
 28 21  1  0
 17 12  1  0
  1 29  1  0
  1 30  1  0
  1 31  1  0
  3 32  1  0
  4 33  1  0
  5 34  1  0
  6 35  1  0
  8 36  1  0
  9 37  1  0
 13 38  1  0
 14 39  1  0
 15 40  1  0
 16 41  1  0
 27 42  1  0
M  CHG  1  26  -1
M  END
>  <UniqueID>  (87) 
83

>  <SMILES>  (87) 
Cc1ccccc1C=Cc1nc2ccccc2c(=O)n1-c1nc(C(=O)[O-])cs1

>  <Energy>  (87) 
98.08473133736057

>  <Genealogy>  (87) 
Cc1ccccc1C=Cc1nc2ccccc2c(=O)n1-c1nc(C(=O)[O-])cs1 (protonated)
Cc1ccccc1C=Cc1nc2ccccc2c(=O)n1-c1nc(C(=O)[O-])cs1 (3D coordinates assigned)
Cc1ccccc1C=Cc1nc2ccccc2c(=O)n1-c1nc(C(=O)[O-])cs1 (optimized conformer: 98.08473133736057 kcal/mol)

>  <smiles>  (87) 
Cc1ccccc1C=Cc1nc2ccccc2c(=O)n1-c1nc(C(=O)O)cs1

>  <score_type>  (87) 
oracle

>  <origin>  (87) 
adg

>  <m_score__min__energy>  (87) 
-11.93

>  <m_primary>  (87) 
energy

$$$$
87:0
     RDKit          3D

 42 44  0  0  0  0  0  0  0  0999 V2000
   50.9810   33.4650   52.0100 N   0  0  0  0  0  0  0  0  0  0  0  0
   51.4390   32.3750   51.4880 C   0  0  0  0  0  0  0  0  0  0  0  0
   52.3620   31.6300   52.1550 N   0  0  0  0  0  0  0  0  0  0  0  0
   52.8620   30.4850   51.6180 C   0  0  0  0  0  0  0  0  0  0  0  0
   53.8550   29.6740   52.3890 C   0  0  0  0  0  0  0  0  0  0  0  0
   55.1050   30.4170   52.5000 N   0  0  0  0  0  0  0  0  0  0  0  0
   56.4050   29.8750   52.2350 C   0  0  0  0  0  0  0  0  0  0  0  0
   56.6750   28.7170   52.6510 O   0  0  0  0  0  0  0  0  0  0  0  0
   57.4190   30.6120   51.4570 C   0  0  0  0  0  0  0  0  0  0  0  0
   57.3330   32.0050   51.3040 C   0  0  0  0  0  0  0  0  0  0  0  0
   58.3100   32.6950   50.5810 C   0  0  0  0  0  0  0  0  0  0  0  0
   59.3840   32.0040   50.0170 C   0  0  0  0  0  0  0  0  0  0  0  0
   59.4930   30.6170   50.1810 C   0  0  0  0  0  0  0  0  0  0  0  0
   60.8620   29.7590   49.4840 S   0  0  0  0  0  0  0  0  0  0  0  0
   61.6770   29.1590   50.5940 O   0  0  0  0  0  0  0  0  0  0  0  0
   61.7320   30.6910   48.6880 O   0  0  0  0  0  0  0  0  0  0  0  0
   60.2960   28.4890   48.4460 N   0  0  0  0  0  0  0  0  0  0  0  0
   59.2030   28.6010   47.5250 C   0  0  0  0  0  0  0  0  0  0  0  0
   58.8640   29.8190   46.9080 C   0  0  0  0  0  0  0  0  0  0  0  0
   57.7870   29.8810   46.0180 C   0  0  0  0  0  0  0  0  0  0  0  0
   57.0400   28.7300   45.7330 C   0  0  0  0  0  0  0  0  0  0  0  0
   55.9650   28.7810   44.8480 O   0  0  0  0  0  0  0  0  0  0  0  0
   57.3780   27.5180   46.3420 C   0  0  0  0  0  0  0  0  0  0  0  0
   58.4540   27.4540   47.2320 C   0  0  0  0  0  0  0  0  0  0  0  0
   58.5120   29.9250   50.9060 C   0  0  0  0  0  0  0  0  0  0  0  0
   52.4090   30.0540   50.3660 C   0  0  0  0  0  0  0  0  0  0  0  0
   51.4610   30.8300   49.6980 C   0  0  0  0  0  0  0  0  0  0  0  0
   51.0340   30.4750   48.5680 O   0  0  0  0  0  0  0  0  0  0  0  0
   50.9970   31.9730   50.2680 N   0  0  0  0  0  0  0  0  0  0  0  0
   50.9790   34.3670   51.4810 H   0  0  0  0  0  0  0  0  0  0  0  0
   53.4595   29.4687   53.3947 H   0  0  0  0  0  0  0  0  0  0  0  0
   54.0377   28.7232   51.8668 H   0  0  0  0  0  0  0  0  0  0  0  0
   56.4938   32.5552   51.7547 H   0  0  0  0  0  0  0  0  0  0  0  0
   58.2325   33.7851   50.4561 H   0  0  0  0  0  0  0  0  0  0  0  0
   60.1466   32.5501   49.4423 H   0  0  0  0  0  0  0  0  0  0  0  0
   59.4478   30.7254   47.1263 H   0  0  0  0  0  0  0  0  0  0  0  0
   57.5253   30.8365   45.5400 H   0  0  0  0  0  0  0  0  0  0  0  0
   55.9760   28.2700   43.9730 H   0  0  0  0  0  0  0  0  0  0  0  0
   56.7954   26.6117   46.1201 H   0  0  0  0  0  0  0  0  0  0  0  0
   58.7145   26.4960   47.7057 H   0  0  0  0  0  0  0  0  0  0  0  0
   58.5997   28.8372   51.0437 H   0  0  0  0  0  0  0  0  0  0  0  0
   52.7915   29.1247   49.9187 H   0  0  0  0  0  0  0  0  0  0  0  0
  1  2  2  3
  2  3  1  0
  3  4  1  0
  4  5  1  0
  5  6  1  0
  6  7  1  0
  7  8  2  0
  7  9  1  0
  9 10  2  0
 10 11  1  0
 11 12  2  0
 12 13  1  0
 13 14  1  0
 14 15  2  0
 14 16  2  0
 14 17  1  0
 17 18  1  0
 18 19  2  0
 19 20  1  0
 20 21  2  0
 21 22  1  0
 21 23  1  0
 23 24  2  0
 13 25  2  0
  4 26  2  0
 26 27  1  0
 27 28  2  0
 27 29  1  0
 29  2  1  0
 25  9  1  0
 24 18  1  0
  1 30  1  0
  5 31  1  0
  5 32  1  0
 10 33  1  0
 11 34  1  0
 12 35  1  0
 19 36  1  0
 20 37  1  0
 22 38  1  0
 23 39  1  0
 24 40  1  0
 25 41  1  0
 26 42  1  0
M  CHG  4   3  -1   6  -1  17  -1  29  -1
M  END
>  <UniqueID>  (88) 
84

>  <SMILES>  (88) 
N=c1[n-]c(C[N-]C(=O)c2cccc(S(=O)(=O)[N-]c3ccc(O)cc3)c2)cc(=O)[n-]1

>  <Energy>  (88) 
51.167429468450365

>  <Genealogy>  (88) 
N=c1[n-]c(C[N-]C(=O)c2cccc(S(=O)(=O)[N-]c3ccc(O)cc3)c2)cc(=O)[n-]1 (protonated)
N=c1[n-]c(C[N-]C(=O)c2cccc(S(=O)(=O)[N-]c3ccc(O)cc3)c2)cc(=O)[n-]1 (3D coordinates assigned)
N=c1[n-]c(C[N-]C(=O)c2cccc(S(=O)(=O)[N-]c3ccc(O)cc3)c2)cc(=O)[n-]1 (optimized conformer: 51.167429468450365 kcal/mol)

>  <smiles>  (88) 
N=c1[nH]c(CNC(=O)c2cccc(S(=O)(=O)Nc3ccc(O)cc3)c2)cc(=O)[nH]1

>  <score_type>  (88) 
oracle

>  <origin>  (88) 
adg

>  <m_score__min__energy>  (88) 
-16.129999999999999

>  <m_primary>  (88) 
energy

$$$$
88:0
     RDKit          3D

 45 47  0  0  1  0  0  0  0  0999 V2000
   63.6310   33.3990   46.5780 O   0  0  0  0  0  0  0  0  0  0  0  0
   62.5160   33.5670   47.1430 C   0  0  0  0  0  0  0  0  0  0  0  0
   61.2160   33.4460   46.4240 C   0  0  0  0  0  0  0  0  0  0  0  0
   60.2850   32.7910   47.3220 N   0  0  0  0  0  0  0  0  0  0  0  0
   60.7940   31.5520   47.8440 C   0  0  0  0  0  0  0  0  0  0  0  0
   60.1070   30.3930   47.2370 C   0  0  0  0  0  0  0  0  0  0  0  0
   59.0720   30.3750   46.3870 C   0  0  0  0  0  0  0  0  0  0  0  0
   58.5940   29.1970   45.9350 C   0  0  0  0  0  0  0  0  0  0  0  0
   57.4650   29.0480   44.9740 C   0  0  0  0  0  0  0  0  0  0  0  0
   57.5100   28.0710   43.9660 O   0  0  0  0  0  0  0  0  0  0  0  0
   56.4190   29.7700   44.9950 N   0  0  0  0  0  0  0  0  0  0  0  0
   55.1330   29.4160   44.7950 O   0  0  0  0  0  0  0  0  0  0  0  0
   59.2240   28.0690   46.3960 C   0  0  0  0  0  0  0  0  0  0  0  0
   58.9740   26.6310   46.1610 C   0  0  0  0  0  0  0  0  0  0  0  0
   58.0240   26.0130   47.1390 C   0  0  0  0  0  0  0  0  0  0  0  0
   57.0850   25.1330   46.3550 C   0  0  0  0  0  0  0  0  0  0  0  0
   57.1690   23.8020   46.1710 N   0  0  0  0  0  0  0  0  0  0  0  0
   56.1140   23.4650   45.4060 C   0  0  0  0  0  0  0  0  0  0  0  0
   55.8990   22.2640   45.0470 O   0  0  0  0  0  0  0  0  0  0  0  0
   55.3750   24.5450   45.1080 N   0  0  0  0  0  0  0  0  0  0  0  0
   55.9640   25.6280   45.6950 C   0  0  0  0  0  0  0  0  0  0  0  0
   55.5260   26.9520   45.6420 O   0  0  0  0  0  0  0  0  0  0  0  0
   60.5330   28.6710   47.5000 S   0  0  0  0  0  0  0  0  0  0  0  0
   59.9620   33.6690   48.4070 C   0  0  0  0  0  0  0  0  0  0  0  0
   61.1550   34.2150   49.1500 C   0  0  0  0  0  0  0  0  0  0  0  0
   62.4250   33.8900   48.5430 N   0  0  0  0  0  0  0  0  0  0  0  0
   60.8403   34.4443   46.1552 H   0  0  0  0  0  0  0  0  0  0  0  0
   61.3364   32.8656   45.4974 H   0  0  0  0  0  0  0  0  0  0  0  0
   61.8700   31.4859   47.6255 H   0  0  0  0  0  0  0  0  0  0  0  0
   60.6163   31.5325   48.9294 H   0  0  0  0  0  0  0  0  0  0  0  0
   58.6126   31.3188   46.0581 H   0  0  0  0  0  0  0  0  0  0  0  0
   56.7090   27.4380   43.8440 H   0  0  0  0  0  0  0  0  0  0  0  0
   54.7680   28.5390   44.4890 H   0  0  0  0  0  0  0  0  0  0  0  0
   58.5563   26.5127   45.1503 H   0  0  0  0  0  0  0  0  0  0  0  0
   59.9379   26.1152   46.2825 H   0  0  0  0  0  0  0  0  0  0  0  0
   58.5787   25.4113   47.8740 H   0  0  0  0  0  0  0  0  0  0  0  0
   57.4670   26.7887   47.6849 H   0  0  0  0  0  0  0  0  0  0  0  0
   57.9290   23.2140   46.5720 H   0  0  0  0  0  0  0  0  0  0  0  0
   54.5000   24.5570   44.5260 H   0  0  0  0  0  0  0  0  0  0  0  0
   55.9070   27.6530   45.0240 H   0  0  0  0  0  0  0  0  0  0  0  0
   59.3916   34.5183   48.0028 H   0  0  0  0  0  0  0  0  0  0  0  0
   59.3905   33.0709   49.1321 H   0  0  0  0  0  0  0  0  0  0  0  0
   61.0631   35.3103   49.1944 H   0  0  0  0  0  0  0  0  0  0  0  0
   61.1500   33.7485   50.1462 H   0  0  0  0  0  0  0  0  0  0  0  0
   63.2710   33.8960   49.1440 H   0  0  0  0  0  0  0  0  0  0  0  0
  1  2  2  0
  2  3  1  0
  3  4  1  0
  4  5  1  0
  5  6  1  0
  6  7  2  0
  7  8  1  0
  8  9  1  0
  9 10  1  0
  9 11  2  0
 11 12  1  0
  8 13  2  0
 13 14  1  0
 14 15  1  0
 15 16  1  0
 16 17  1  0
 17 18  1  0
 18 19  2  0
 18 20  1  0
 20 21  1  0
 21 22  1  0
 13 23  1  0
  4 24  1  0
 24 25  1  0
 25 26  1  0
 26  2  1  0
 23  6  1  0
 21 16  2  0
  3 27  1  0
  3 28  1  0
  5 29  1  0
  5 30  1  0
  7 31  1  0
 10 32  1  0
 12 33  1  0
 14 34  1  0
 14 35  1  0
 15 36  1  0
 15 37  1  0
 17 38  1  0
 20 39  1  0
 22 40  1  0
 24 41  1  0
 24 42  1  0
 25 43  1  0
 25 44  1  0
 26 45  1  0
M  END
>  <smiles>  (89) 
O=C1CN(Cc2cc(C(O)=NO)c(CCc3[nH]c(=O)[nH]c3O)s2)CCN1

>  <score_type>  (89) 
oracle

>  <origin>  (89) 
adg

>  <m_score__min__energy>  (89) 
-8.8399999999999999

>  <m_primary>  (89) 
energy

$$$$
