0:0
     RDKit          3D

 43 44  0  0  0  0  0  0  0  0999 V2000
   57.3250   31.9710   41.6330 C   0  0  0  0  0  0  0  0  0  0  0  0
   58.1910   32.6950   42.6600 C   0  0  0  0  0  0  0  0  0  0  0  0
   57.7190   32.4270   44.0290 N   0  0  0  0  0  0  0  0  0  0  0  0
   57.2550   33.5560   44.8550 C   0  0  0  0  0  0  0  0  0  0  0  0
   58.2950   33.9270   45.8710 C   0  0  0  0  0  0  0  0  0  0  0  0
   58.8980   35.0290   45.7640 O   0  0  0  0  0  0  0  0  0  0  0  0
   58.6530   33.0000   46.9090 N   0  0  0  0  0  0  0  0  0  0  0  0
   59.6900   33.2560   47.8670 C   0  0  0  0  0  0  0  0  0  0  0  0
   59.4530   33.1190   49.2490 C   0  0  0  0  0  0  0  0  0  0  0  0
   58.2420   32.7130   49.7090 F   0  0  0  0  0  0  0  0  0  0  0  0
   60.4830   33.3700   50.1630 C   0  0  0  0  0  0  0  0  0  0  0  0
   61.7530   33.7380   49.7110 C   0  0  0  0  0  0  0  0  0  0  0  0
   61.9990   33.8580   48.3410 C   0  0  0  0  0  0  0  0  0  0  0  0
   60.9760   33.6090   47.4200 C   0  0  0  0  0  0  0  0  0  0  0  0
   61.2280   33.7410   46.0930 F   0  0  0  0  0  0  0  0  0  0  0  0
   57.7910   31.1030   44.6160 C   0  0  0  0  0  0  0  0  0  0  0  0
   57.0280   30.8110   45.5770 O   0  0  0  0  0  0  0  0  0  0  0  0
   58.7810   30.0590   44.1630 C   0  0  0  0  0  0  0  0  0  0  0  0
   58.5510   28.4850   45.0680 S   0  0  0  0  0  0  0  0  0  0  0  0
   59.3840   29.0390   46.5580 C   0  0  0  0  0  0  0  0  0  0  0  0
   58.9060   28.6560   47.8190 C   0  0  0  0  0  0  0  0  0  0  0  0
   59.5330   29.1260   48.9800 C   0  0  0  0  0  0  0  0  0  0  0  0
   60.6500   29.9610   48.8830 C   0  0  0  0  0  0  0  0  0  0  0  0
   61.1540   30.3130   47.6270 C   0  0  0  0  0  0  0  0  0  0  0  0
   60.5230   29.8510   46.4650 C   0  0  0  0  0  0  0  0  0  0  0  0
   56.5815   31.3494   42.1533 H   0  0  0  0  0  0  0  0  0  0  0  0
   56.8086   32.7099   41.0027 H   0  0  0  0  0  0  0  0  0  0  0  0
   57.9607   31.3318   41.0027 H   0  0  0  0  0  0  0  0  0  0  0  0
   59.2303   32.3480   42.5632 H   0  0  0  0  0  0  0  0  0  0  0  0
   58.1277   33.7770   42.4723 H   0  0  0  0  0  0  0  0  0  0  0  0
   57.0578   34.4221   44.2061 H   0  0  0  0  0  0  0  0  0  0  0  0
   56.3355   33.2580   45.3801 H   0  0  0  0  0  0  0  0  0  0  0  0
   58.2220   32.0460   46.8980 H   0  0  0  0  0  0  0  0  0  0  0  0
   60.2918   33.2771   51.2423 H   0  0  0  0  0  0  0  0  0  0  0  0
   62.5589   33.9332   50.4338 H   0  0  0  0  0  0  0  0  0  0  0  0
   62.9987   34.1488   47.9860 H   0  0  0  0  0  0  0  0  0  0  0  0
   58.6423   29.8770   43.0871 H   0  0  0  0  0  0  0  0  0  0  0  0
   59.7956   30.4315   44.3678 H   0  0  0  0  0  0  0  0  0  0  0  0
   58.0374   27.9855   47.8968 H   0  0  0  0  0  0  0  0  0  0  0  0
   59.1463   28.8379   49.9687 H   0  0  0  0  0  0  0  0  0  0  0  0
   61.1328   30.3414   49.7953 H   0  0  0  0  0  0  0  0  0  0  0  0
   62.0458   30.9526   47.5516 H   0  0  0  0  0  0  0  0  0  0  0  0
   60.9220   30.1259   45.4774 H   0  0  0  0  0  0  0  0  0  0  0  0
  1  2  1  0
  2  3  1  0
  3  4  1  0
  4  5  1  0
  5  6  2  0
  5  7  1  0
  7  8  1  0
  8  9  2  0
  9 10  1  0
  9 11  1  0
 11 12  2  0
 12 13  1  0
 13 14  2  0
 14 15  1  0
  3 16  1  0
 16 17  2  0
 16 18  1  0
 18 19  1  0
 19 20  1  0
 20 21  2  0
 21 22  1  0
 22 23  2  0
 23 24  1  0
 24 25  2  0
 14  8  1  0
 25 20  1  0
  1 26  1  0
  1 27  1  0
  1 28  1  0
  2 29  1  0
  2 30  1  0
  4 31  1  0
  4 32  1  0
  7 33  1  0
 11 34  1  0
 12 35  1  0
 13 36  1  0
 18 37  1  0
 18 38  1  0
 21 39  1  0
 22 40  1  0
 23 41  1  0
 24 42  1  0
 25 43  1  0
M  END
>  <UniqueID>  (1) 
1

>  <SMILES>  (1) 
CCN(CC(=O)Nc1c(F)cccc1F)C(=O)CSc1ccccc1

>  <Energy>  (1) 
35.95338447115982

>  <Genealogy>  (1) 
CCN(CC(=O)Nc1c(F)cccc1F)C(=O)CSc1ccccc1 (3D coordinates assigned)
CCN(CC(=O)Nc1c(F)cccc1F)C(=O)CSc1ccccc1 (optimized conformer: 35.95338447115982 kcal/mol)

>  <smiles>  (1) 
CCN(CC(=O)Nc1c(F)cccc1F)C(=O)CSc1ccccc1

>  <score_type>  (1) 
oracle

>  <origin>  (1) 
adg

>  <m_score__min__energy>  (1) 
-8.2200000000000006

>  <m_primary>  (1) 
energy

$$$$
1:0
     RDKit          3D

 28 29  0  0  0  0  0  0  0  0999 V2000
   57.2360   25.9850   46.6070 O   0  0  0  0  0  0  0  0  0  0  0  0
   56.5350   26.9250   46.1470 C   0  0  0  0  0  0  0  0  0  0  0  0
   55.1750   26.7080   45.9540 O   0  0  0  0  0  0  0  0  0  0  0  0
   57.1380   28.2420   45.8170 C   0  0  0  0  0  0  0  0  0  0  0  0
   58.4460   28.5260   46.2500 C   0  0  0  0  0  0  0  0  0  0  0  0
   59.0490   29.7600   45.9620 C   0  0  0  0  0  0  0  0  0  0  0  0
   60.4640   30.0340   46.3980 C   0  0  0  0  0  0  0  0  0  0  0  0
   60.5360   31.3380   47.1440 C   0  0  0  0  0  0  0  0  0  0  0  0
   61.7150   32.1000   47.1270 C   0  0  0  0  0  0  0  0  0  0  0  0
   61.7920   33.2950   47.8510 C   0  0  0  0  0  0  0  0  0  0  0  0
   60.6970   33.7300   48.6030 C   0  0  0  0  0  0  0  0  0  0  0  0
   59.5240   32.9700   48.6350 C   0  0  0  0  0  0  0  0  0  0  0  0
   59.4430   31.7760   47.9120 C   0  0  0  0  0  0  0  0  0  0  0  0
   58.3450   30.7130   45.2160 C   0  0  0  0  0  0  0  0  0  0  0  0
   57.0470   30.4470   44.7800 C   0  0  0  0  0  0  0  0  0  0  0  0
   56.4350   29.2200   45.0750 C   0  0  0  0  0  0  0  0  0  0  0  0
   55.1350   28.9810   44.6270 O   0  0  0  0  0  0  0  0  0  0  0  0
   59.0039   27.7702   46.8223 H   0  0  0  0  0  0  0  0  0  0  0  0
   60.8054   29.2205   47.0550 H   0  0  0  0  0  0  0  0  0  0  0  0
   61.1078   30.0943   45.5081 H   0  0  0  0  0  0  0  0  0  0  0  0
   62.5812   31.7565   46.5425 H   0  0  0  0  0  0  0  0  0  0  0  0
   62.7152   33.8926   47.8283 H   0  0  0  0  0  0  0  0  0  0  0  0
   60.7582   34.6707   49.1699 H   0  0  0  0  0  0  0  0  0  0  0  0
   58.6639   33.3117   49.2296 H   0  0  0  0  0  0  0  0  0  0  0  0
   58.5208   31.1773   47.9442 H   0  0  0  0  0  0  0  0  0  0  0  0
   58.8177   31.6760   44.9726 H   0  0  0  0  0  0  0  0  0  0  0  0
   56.4995   31.2050   44.2006 H   0  0  0  0  0  0  0  0  0  0  0  0
   54.7700   28.0410   44.5290 H   0  0  0  0  0  0  0  0  0  0  0  0
  1  2  2  0
  2  3  1  0
  2  4  1  0
  4  5  2  0
  5  6  1  0
  6  7  1  0
  7  8  1  0
  8  9  2  0
  9 10  1  0
 10 11  2  0
 11 12  1  0
 12 13  2  0
  6 14  2  0
 14 15  1  0
 15 16  2  0
 16 17  1  0
 16  4  1  0
 13  8  1  0
  5 18  1  0
  7 19  1  0
  7 20  1  0
  9 21  1  0
 10 22  1  0
 11 23  1  0
 12 24  1  0
 13 25  1  0
 14 26  1  0
 15 27  1  0
 17 28  1  0
M  CHG  1   3  -1
M  END
>  <UniqueID>  (2) 
2

>  <SMILES>  (2) 
O=C([O-])c1cc(Cc2ccccc2)ccc1O

>  <Energy>  (2) 
29.114847003282932

>  <Genealogy>  (2) 
O=C([O-])c1cc(Cc2ccccc2)ccc1O (protonated)
O=C([O-])c1cc(Cc2ccccc2)ccc1O (3D coordinates assigned)
O=C([O-])c1cc(Cc2ccccc2)ccc1O (optimized conformer: 29.114847003282932 kcal/mol)

>  <smiles>  (2) 
O=C(O)c1cc(Cc2ccccc2)ccc1O

>  <score_type>  (2) 
oracle

>  <origin>  (2) 
adg

>  <m_score__min__energy>  (2) 
-9.6199999999999992

>  <m_primary>  (2) 
energy

$$$$
2:0
     RDKit          3D

 25 26  0  0  0  0  0  0  0  0999 V2000
   58.0560   34.1920   43.6204 H   0  0  0  0  0  0  0  0  0  0  0  0
   57.8750   33.1200   43.7880 C   0  0  0  0  0  0  0  0  0  0  0  0
   57.3750   32.4150   45.2330 S   0  0  0  0  0  0  0  0  0  0  0  0
   57.3500   30.8630   44.5950 C   0  0  0  0  0  0  0  0  0  0  0  0
   57.0380   29.8130   45.3000 N   0  0  0  0  0  0  0  0  0  0  0  0
   57.3950   28.4440   45.0630 C   0  0  0  0  0  0  0  0  0  0  0  0
   57.5640   27.9990   43.8950 O   0  0  0  0  0  0  0  0  0  0  0  0
   57.5530   27.5200   46.2290 C   0  0  0  0  0  0  0  0  0  0  0  0
   58.6072   27.5062   46.5427 H   0  0  0  0  0  0  0  0  0  0  0  0
   56.9219   27.8731   47.0579 H   0  0  0  0  0  0  0  0  0  0  0  0
   57.1290   26.1270   45.8430 C   0  0  0  0  0  0  0  0  0  0  0  0
   58.1050   25.1450   45.5960 C   0  0  0  0  0  0  0  0  0  0  0  0
   59.1716   25.4064   45.6590 H   0  0  0  0  0  0  0  0  0  0  0  0
   57.7280   23.8390   45.2710 C   0  0  0  0  0  0  0  0  0  0  0  0
   58.9540   22.6240   44.9570 Cl  0  0  0  0  0  0  0  0  0  0  0  0
   56.3740   23.4990   45.2000 C   0  0  0  0  0  0  0  0  0  0  0  0
   56.0779   22.4717   44.9410 H   0  0  0  0  0  0  0  0  0  0  0  0
   55.3960   24.4640   45.4580 C   0  0  0  0  0  0  0  0  0  0  0  0
   54.3312   24.1935   45.4036 H   0  0  0  0  0  0  0  0  0  0  0  0
   55.7670   25.7720   45.7850 C   0  0  0  0  0  0  0  0  0  0  0  0
   54.7760   26.7120   46.0510 O   0  0  0  0  0  0  0  0  0  0  0  0
   57.7310   30.8590   43.2940 N   0  0  0  0  0  0  0  0  0  0  0  0
   57.8390   30.0200   42.6870 H   0  0  0  0  0  0  0  0  0  0  0  0
   58.0190   32.1100   42.8440 C   0  0  0  0  0  0  0  0  0  0  0  0
   58.3415   32.3074   41.8110 H   0  0  0  0  0  0  0  0  0  0  0  0
  1  2  1  0
  2  3  1  0
  3  4  1  0
  4  5  2  0
  5  6  1  0
  6  7  2  0
  6  8  1  0
  8  9  1  0
  8 10  1  0
  8 11  1  0
 11 12  2  0
 12 13  1  0
 12 14  1  0
 14 15  1  0
 14 16  2  0
 16 17  1  0
 16 18  1  0
 18 19  1  0
 18 20  2  0
 20 21  1  0
  4 22  1  0
 22 23  1  0
 22 24  1  0
 24 25  1  0
 24  2  2  0
 20 11  1  0
M  CHG  1  21  -1
M  END
>  <UniqueID>  (3) 
3

>  <SMILES>  (3) 
O=C(Cc1cc(Cl)ccc1[O-])/N=c1\[nH]ccs1

>  <Energy>  (3) 
58.80810265972347

>  <Genealogy>  (3) 
O=C(Cc1cc(Cl)ccc1[O-])N=c1[nH]ccs1 (protonated)
O=C(Cc1cc(Cl)ccc1[O-])/N=c1\[nH]ccs1 (cis-trans isomerization)
O=C(Cc1cc(Cl)ccc1[O-])/N=c1\[nH]ccs1 (3D coordinates assigned)
O=C(Cc1cc(Cl)ccc1[O-])/N=c1\[nH]ccs1 (optimized conformer: 58.80810265972347 kcal/mol)

>  <smiles>  (3) 
O=C(Cc1cc(Cl)ccc1O)N=c1[nH]ccs1

>  <score_type>  (3) 
oracle

>  <origin>  (3) 
adg

>  <m_score__min__energy>  (3) 
-10.06

>  <m_primary>  (3) 
energy

$$$$
3:0
     RDKit          3D

 35 36  0  0  0  0  0  0  0  0999 V2000
   58.1490   27.1620   43.6010 C   0  0  0  0  0  0  0  0  0  0  0  0
   58.3690   28.4290   44.3060 N   0  0  0  0  0  0  0  0  0  0  0  0
   57.7450   29.6510   43.7770 C   0  0  0  0  0  0  0  0  0  0  0  0
   56.6100   30.0880   44.6630 C   0  0  0  0  0  0  0  0  0  0  0  0
   55.8870   29.2160   45.2140 O   0  0  0  0  0  0  0  0  0  0  0  0
   56.2980   31.4720   44.8690 N   0  0  0  0  0  0  0  0  0  0  0  0
   57.2320   32.5250   45.1380 C   0  0  0  0  0  0  0  0  0  0  0  0
   57.2250   33.1320   46.4010 C   0  0  0  0  0  0  0  0  0  0  0  0
   58.1430   34.1420   46.7050 C   0  0  0  0  0  0  0  0  0  0  0  0
   59.0880   34.5400   45.7530 C   0  0  0  0  0  0  0  0  0  0  0  0
   59.9790   35.5170   46.0500 F   0  0  0  0  0  0  0  0  0  0  0  0
   59.1200   33.9190   44.5010 C   0  0  0  0  0  0  0  0  0  0  0  0
   58.2030   32.9090   44.1950 C   0  0  0  0  0  0  0  0  0  0  0  0
   59.0860   28.4590   45.5610 C   0  0  0  0  0  0  0  0  0  0  0  0
   58.7220   27.7030   46.5050 O   0  0  0  0  0  0  0  0  0  0  0  0
   60.3050   29.3310   45.7420 C   0  0  0  0  0  0  0  0  0  0  0  0
   60.1050   30.3730   46.7990 C   0  0  0  0  0  0  0  0  0  0  0  0
   59.0670   30.4050   47.7230 C   0  0  0  0  0  0  0  0  0  0  0  0
   59.1750   31.4640   48.6340 C   0  0  0  0  0  0  0  0  0  0  0  0
   60.2990   32.2560   48.4380 C   0  0  0  0  0  0  0  0  0  0  0  0
   61.1610   31.6390   47.1320 S   0  0  0  0  0  0  0  0  0  0  0  0
   58.0087   26.3540   44.3341 H   0  0  0  0  0  0  0  0  0  0  0  0
   57.2517   27.2445   42.9700 H   0  0  0  0  0  0  0  0  0  0  0  0
   59.0215   26.9372   42.9700 H   0  0  0  0  0  0  0  0  0  0  0  0
   58.4979   30.4516   43.7316 H   0  0  0  0  0  0  0  0  0  0  0  0
   57.3518   29.4433   42.7709 H   0  0  0  0  0  0  0  0  0  0  0  0
   56.4933   32.8122   47.1575 H   0  0  0  0  0  0  0  0  0  0  0  0
   58.1222   34.6241   47.6935 H   0  0  0  0  0  0  0  0  0  0  0  0
   59.8681   34.2256   43.7551 H   0  0  0  0  0  0  0  0  0  0  0  0
   58.2408   32.4130   43.2139 H   0  0  0  0  0  0  0  0  0  0  0  0
   61.1557   28.6951   46.0282 H   0  0  0  0  0  0  0  0  0  0  0  0
   60.4936   29.8486   44.7899 H   0  0  0  0  0  0  0  0  0  0  0  0
   58.2452   29.6740   47.7375 H   0  0  0  0  0  0  0  0  0  0  0  0
   58.4388   31.6506   49.4297 H   0  0  0  0  0  0  0  0  0  0  0  0
   60.5780   33.1367   49.0351 H   0  0  0  0  0  0  0  0  0  0  0  0
  1  2  1  0
  2  3  1  0
  3  4  1  0
  4  5  2  0
  4  6  1  0
  6  7  1  0
  7  8  2  0
  8  9  1  0
  9 10  2  0
 10 11  1  0
 10 12  1  0
 12 13  2  0
  2 14  1  0
 14 15  2  0
 14 16  1  0
 16 17  1  0
 17 18  2  0
 18 19  1  0
 19 20  2  0
 20 21  1  0
 13  7  1  0
 21 17  1  0
  1 22  1  0
  1 23  1  0
  1 24  1  0
  3 25  1  0
  3 26  1  0
  8 27  1  0
  9 28  1  0
 12 29  1  0
 13 30  1  0
 16 31  1  0
 16 32  1  0
 18 33  1  0
 19 34  1  0
 20 35  1  0
M  CHG  1   6  -1
M  END
>  <UniqueID>  (4) 
4

>  <SMILES>  (4) 
CN(CC(=O)[N-]c1ccc(F)cc1)C(=O)Cc1cccs1

>  <Energy>  (4) 
63.18579018527695

>  <Genealogy>  (4) 
CN(CC(=O)[N-]c1ccc(F)cc1)C(=O)Cc1cccs1 (protonated)
CN(CC(=O)[N-]c1ccc(F)cc1)C(=O)Cc1cccs1 (3D coordinates assigned)
CN(CC(=O)[N-]c1ccc(F)cc1)C(=O)Cc1cccs1 (optimized conformer: 63.18579018527695 kcal/mol)

>  <smiles>  (4) 
CN(CC(=O)Nc1ccc(F)cc1)C(=O)Cc1cccs1

>  <score_type>  (4) 
oracle

>  <origin>  (4) 
adg

>  <m_score__min__energy>  (4) 
-8.9700000000000006

>  <m_primary>  (4) 
energy

$$$$
4:0
     RDKit          3D

 34 35  0  0  0  0  0  0  0  0999 V2000
   60.4770   29.6780   46.7630 C   0  0  0  0  0  0  0  0  0  0  0  0
   60.5470   30.7880   47.8050 C   0  0  0  0  0  0  0  0  0  0  0  0
   61.5970   31.7950   47.4340 C   0  0  0  0  0  0  0  0  0  0  0  0
   62.8750   31.4010   47.1420 N   0  0  0  0  0  0  0  0  0  0  0  0
   63.7270   32.4060   46.9710 N   0  0  0  0  0  0  0  0  0  0  0  0
   62.9310   33.8380   47.2070 S   0  0  0  0  0  0  0  0  0  0  0  0
   61.4250   33.1840   47.5080 C   0  0  0  0  0  0  0  0  0  0  0  0
   60.2110   33.9440   47.8400 C   0  0  0  0  0  0  0  0  0  0  0  0
   60.0250   34.2920   49.0380 O   0  0  0  0  0  0  0  0  0  0  0  0
   59.2630   34.3330   46.8260 N   0  0  0  0  0  0  0  0  0  0  0  0
   59.6780   35.3010   45.8070 C   0  0  0  0  0  0  0  0  0  0  0  0
   57.9370   33.6990   46.7520 C   0  0  0  0  0  0  0  0  0  0  0  0
   57.8690   32.7550   45.5810 C   0  0  0  0  0  0  0  0  0  0  0  0
   57.8620   33.2480   44.2640 C   0  0  0  0  0  0  0  0  0  0  0  0
   57.7730   32.3660   43.1820 C   0  0  0  0  0  0  0  0  0  0  0  0
   57.6860   30.9890   43.4070 C   0  0  0  0  0  0  0  0  0  0  0  0
   57.6890   30.4920   44.7120 C   0  0  0  0  0  0  0  0  0  0  0  0
   57.7810   31.3700   45.7970 C   0  0  0  0  0  0  0  0  0  0  0  0
   60.4155   28.7033   47.2691 H   0  0  0  0  0  0  0  0  0  0  0  0
   59.5861   29.8213   46.1339 H   0  0  0  0  0  0  0  0  0  0  0  0
   61.3788   29.7082   46.1339 H   0  0  0  0  0  0  0  0  0  0  0  0
   59.5699   31.2898   47.8650 H   0  0  0  0  0  0  0  0  0  0  0  0
   60.8077   30.3456   48.7778 H   0  0  0  0  0  0  0  0  0  0  0  0
   64.7400   32.2880   46.7540 H   0  0  0  0  0  0  0  0  0  0  0  0
   60.0660   36.2060   46.2974 H   0  0  0  0  0  0  0  0  0  0  0  0
   60.4652   34.8579   45.1794 H   0  0  0  0  0  0  0  0  0  0  0  0
   58.8143   35.5657   45.1794 H   0  0  0  0  0  0  0  0  0  0  0  0
   57.7513   33.1386   47.6801 H   0  0  0  0  0  0  0  0  0  0  0  0
   57.1749   34.4817   46.6230 H   0  0  0  0  0  0  0  0  0  0  0  0
   57.9268   34.3312   44.0840 H   0  0  0  0  0  0  0  0  0  0  0  0
   57.7715   32.7561   42.1535 H   0  0  0  0  0  0  0  0  0  0  0  0
   57.6151   30.2964   42.5554 H   0  0  0  0  0  0  0  0  0  0  0  0
   57.6189   29.4083   44.8870 H   0  0  0  0  0  0  0  0  0  0  0  0
   57.7844   30.9742   46.8233 H   0  0  0  0  0  0  0  0  0  0  0  0
  1  2  1  0
  2  3  1  0
  3  4  1  0
  4  5  2  0
  5  6  1  0
  6  7  1  0
  7  8  1  0
  8  9  2  0
  8 10  1  0
 10 11  1  0
 10 12  1  0
 12 13  1  0
 13 14  2  0
 14 15  1  0
 15 16  2  0
 16 17  1  0
 17 18  2  0
  7  3  2  0
 18 13  1  0
  1 19  1  0
  1 20  1  0
  1 21  1  0
  2 22  1  0
  2 23  1  0
  5 24  1  0
 11 25  1  0
 11 26  1  0
 11 27  1  0
 12 28  1  0
 12 29  1  0
 14 30  1  0
 15 31  1  0
 16 32  1  0
 17 33  1  0
 18 34  1  0
M  CHG  1   5   1
M  END
>  <UniqueID>  (5) 
5

>  <SMILES>  (5) 
CCc1n[nH+]sc1C(=O)N(C)Cc1ccccc1

>  <Energy>  (5) 
70.16178599010709

>  <Genealogy>  (5) 
CCc1n[nH+]sc1C(=O)N(C)Cc1ccccc1 (protonated)
CCc1n[nH+]sc1C(=O)N(C)Cc1ccccc1 (3D coordinates assigned)
CCc1n[nH+]sc1C(=O)N(C)Cc1ccccc1 (optimized conformer: 70.16178599010709 kcal/mol)

>  <smiles>  (5) 
CCc1nnsc1C(=O)N(C)Cc1ccccc1

>  <score_type>  (5) 
oracle

>  <origin>  (5) 
adg

>  <m_score__min__energy>  (5) 
-5.6900000000000004

>  <m_primary>  (5) 
energy

$$$$
5:0
     RDKit          3D

 30 31  0  0  0  0  0  0  0  0999 V2000
   57.0510   21.0940   43.0000 C   0  0  0  0  0  0  0  0  0  0  0  0
   55.9100   21.7120   43.5860 O   0  0  0  0  0  0  0  0  0  0  0  0
   55.9200   22.9700   44.2080 C   0  0  0  0  0  0  0  0  0  0  0  0
   57.0560   23.8010   44.2070 C   0  0  0  0  0  0  0  0  0  0  0  0
   57.0190   25.0470   44.8360 C   0  0  0  0  0  0  0  0  0  0  0  0
   55.8490   25.4950   45.4590 C   0  0  0  0  0  0  0  0  0  0  0  0
   55.8590   26.7730   46.1110 N   0  0  0  0  0  0  0  0  0  0  0  0
   56.3250   28.0050   45.5510 C   0  0  0  0  0  0  0  0  0  0  0  0
   55.5220   28.7160   44.8910 O   0  0  0  0  0  0  0  0  0  0  0  0
   57.6830   28.4260   45.7440 N   0  0  0  0  0  0  0  0  0  0  0  0
   58.1340   29.7370   46.1100 C   0  0  0  0  0  0  0  0  0  0  0  0
   58.9600   29.9590   47.2260 C   0  0  0  0  0  0  0  0  0  0  0  0
   59.3950   31.2520   47.5320 C   0  0  0  0  0  0  0  0  0  0  0  0
   59.0270   32.3320   46.7240 C   0  0  0  0  0  0  0  0  0  0  0  0
   59.5970   33.9430   47.1410 Cl  0  0  0  0  0  0  0  0  0  0  0  0
   58.2230   32.1140   45.5930 C   0  0  0  0  0  0  0  0  0  0  0  0
   57.7490   33.4400   44.5400 Cl  0  0  0  0  0  0  0  0  0  0  0  0
   57.7890   30.8180   45.2890 C   0  0  0  0  0  0  0  0  0  0  0  0
   54.7210   24.6560   45.4840 C   0  0  0  0  0  0  0  0  0  0  0  0
   54.7570   23.4060   44.8570 C   0  0  0  0  0  0  0  0  0  0  0  0
   53.6290   22.5930   44.8850 O   0  0  0  0  0  0  0  0  0  0  0  0
   57.7202   20.7316   43.7943 H   0  0  0  0  0  0  0  0  0  0  0  0
   56.7294   20.2467   42.3765 H   0  0  0  0  0  0  0  0  0  0  0  0
   57.5849   21.8262   42.3765 H   0  0  0  0  0  0  0  0  0  0  0  0
   57.9777   23.4671   43.7081 H   0  0  0  0  0  0  0  0  0  0  0  0
   57.9173   25.6818   44.8418 H   0  0  0  0  0  0  0  0  0  0  0  0
   59.2647   29.1132   47.8599 H   0  0  0  0  0  0  0  0  0  0  0  0
   60.0306   31.4206   48.4138 H   0  0  0  0  0  0  0  0  0  0  0  0
   57.1704   30.6470   44.3957 H   0  0  0  0  0  0  0  0  0  0  0  0
   53.8060   24.9840   45.9990 H   0  0  0  0  0  0  0  0  0  0  0  0
  1  2  1  0
  2  3  1  0
  3  4  2  0
  4  5  1  0
  5  6  2  0
  6  7  1  0
  7  8  1  0
  8  9  2  0
  8 10  1  0
 10 11  1  0
 11 12  2  0
 12 13  1  0
 13 14  2  0
 14 15  1  0
 14 16  1  0
 16 17  1  0
 16 18  2  0
  6 19  1  0
 19 20  2  0
 20 21  1  0
 20  3  1  0
 18 11  1  0
  1 22  1  0
  1 23  1  0
  1 24  1  0
  4 25  1  0
  5 26  1  0
 12 27  1  0
 13 28  1  0
 18 29  1  0
 19 30  1  0
M  CHG  3   7  -1  10  -1  21  -1
M  END
>  <UniqueID>  (6) 
6

>  <SMILES>  (6) 
COc1ccc([N-]C(=O)[N-]c2ccc(Cl)c(Cl)c2)cc1[O-]

>  <Energy>  (6) 
38.14753465872514

>  <Genealogy>  (6) 
COc1ccc([N-]C(=O)[N-]c2ccc(Cl)c(Cl)c2)cc1[O-] (protonated)
COc1ccc([N-]C(=O)[N-]c2ccc(Cl)c(Cl)c2)cc1[O-] (3D coordinates assigned)
COc1ccc([N-]C(=O)[N-]c2ccc(Cl)c(Cl)c2)cc1[O-] (optimized conformer: 38.14753465872514 kcal/mol)

>  <smiles>  (6) 
COc1ccc(NC(=O)Nc2ccc(Cl)c(Cl)c2)cc1O

>  <score_type>  (6) 
oracle

>  <origin>  (6) 
adg

>  <m_score__min__energy>  (6) 
-12.84

>  <m_primary>  (6) 
energy

$$$$
6:0
     RDKit          3D

 44 46  0  0  0  0  0  0  0  0999 V2000
   57.7168   34.7031   46.4371 H   0  0  0  0  0  0  0  0  0  0  0  0
   58.0210   33.6460   46.4390 C   0  0  0  0  0  0  0  0  0  0  0  0
   57.4180   32.7480   45.5540 C   0  0  0  0  0  0  0  0  0  0  0  0
   56.6539   33.1042   44.8474 H   0  0  0  0  0  0  0  0  0  0  0  0
   57.7840   31.3940   45.5640 C   0  0  0  0  0  0  0  0  0  0  0  0
   57.0450   30.2530   44.4480 S   0  0  0  0  0  0  0  0  0  0  0  0
   55.5510   30.2560   44.6260 O   0  0  0  0  0  0  0  0  0  0  0  0
   57.3890   30.6540   43.0410 O   0  0  0  0  0  0  0  0  0  0  0  0
   57.6580   28.6640   44.7800 N   0  0  0  0  0  0  0  0  0  0  0  0
   56.9470   27.6970   45.2750 C   0  0  0  0  0  0  0  0  0  0  0  0
   55.6630   27.8010   45.5180 O   0  0  0  0  0  0  0  0  0  0  0  0
   55.1970   26.6910   46.0120 N   0  0  0  0  0  0  0  0  0  0  0  0
   56.2310   25.8280   46.0800 C   0  0  0  0  0  0  0  0  0  0  0  0
   56.1340   24.4530   46.6520 C   0  0  0  0  0  0  0  0  0  0  0  0
   56.1381   24.5117   47.7504 H   0  0  0  0  0  0  0  0  0  0  0  0
   55.2003   23.9801   46.3136 H   0  0  0  0  0  0  0  0  0  0  0  0
   56.9921   23.8537   46.3136 H   0  0  0  0  0  0  0  0  0  0  0  0
   57.3860   26.4360   45.6290 C   0  0  0  0  0  0  0  0  0  0  0  0
   58.4024   26.0198   45.5671 H   0  0  0  0  0  0  0  0  0  0  0  0
   58.7540   30.9480   46.4700 C   0  0  0  0  0  0  0  0  0  0  0  0
   59.0404   29.8861   46.4872 H   0  0  0  0  0  0  0  0  0  0  0  0
   59.3600   31.8470   47.3530 C   0  0  0  0  0  0  0  0  0  0  0  0
   60.1132   31.4878   48.0697 H   0  0  0  0  0  0  0  0  0  0  0  0
   59.0100   33.2080   47.3280 C   0  0  0  0  0  0  0  0  0  0  0  0
   59.6070   34.1560   48.2230 N   0  0  0  0  0  0  0  0  0  0  0  0
   60.4150   33.8330   49.3620 C   0  0  0  0  0  0  0  0  0  0  0  0
   59.9520   34.0370   50.5140 O   0  0  0  0  0  0  0  0  0  0  0  0
   61.7740   33.2780   49.2320 C   0  0  0  0  0  0  0  0  0  0  0  0
   62.5030   32.9090   50.2620 O   0  0  0  0  0  0  0  0  0  0  0  0
   63.6540   32.4840   49.7910 C   0  0  0  0  0  0  0  0  0  0  0  0
   64.7620   31.9640   50.6460 C   0  0  0  0  0  0  0  0  0  0  0  0
   64.4965   32.0886   51.7062 H   0  0  0  0  0  0  0  0  0  0  0  0
   64.9214   30.8971   50.4309 H   0  0  0  0  0  0  0  0  0  0  0  0
   65.6845   32.5232   50.4309 H   0  0  0  0  0  0  0  0  0  0  0  0
   63.7150   32.5630   48.4490 N   0  0  0  0  0  0  0  0  0  0  0  0
   64.5250   32.3230   47.8340 H   0  0  0  0  0  0  0  0  0  0  0  0
   62.5230   33.0680   48.0800 C   0  0  0  0  0  0  0  0  0  0  0  0
   62.1990   33.4850   46.6710 C   0  0  0  0  0  0  0  0  0  0  0  0
   61.3700   34.2077   46.6924 H   0  0  0  0  0  0  0  0  0  0  0  0
   61.9178   32.5887   46.0987 H   0  0  0  0  0  0  0  0  0  0  0  0
   63.4050   34.1310   45.9950 C   0  0  0  0  0  0  0  0  0  0  0  0
   64.0997   34.5031   46.7624 H   0  0  0  0  0  0  0  0  0  0  0  0
   63.9164   33.3860   45.3677 H   0  0  0  0  0  0  0  0  0  0  0  0
   63.0682   34.9695   45.3677 H   0  0  0  0  0  0  0  0  0  0  0  0
  1  2  1  0
  2  3  2  0
  3  4  1  0
  3  5  1  0
  5  6  1  0
  6  7  2  0
  6  8  2  0
  6  9  1  0
  9 10  2  0
 10 11  1  0
 11 12  1  0
 12 13  1  0
 13 14  1  0
 14 15  1  0
 14 16  1  0
 14 17  1  0
 13 18  2  0
 18 19  1  0
  5 20  2  0
 20 21  1  0
 20 22  1  0
 22 23  1  0
 22 24  2  0
 24 25  1  0
 25 26  1  0
 26 27  2  0
 26 28  1  0
 28 29  1  0
 29 30  1  0
 30 31  1  0
 31 32  1  0
 31 33  1  0
 31 34  1  0
 30 35  2  0
 35 36  1  0
 35 37  1  0
 37 38  1  0
 38 39  1  0
 38 40  1  0
 38 41  1  0
 41 42  1  0
 41 43  1  0
 41 44  1  0
 24  2  1  0
 37 28  2  0
 18 10  1  0
M  CHG  3  12  -1  25  -1  35   1
M  END
>  <UniqueID>  (7) 
7

>  <SMILES>  (7) 
CCc1[nH+]c(C)oc1C(=O)[N-]c1ccc(S(=O)(=O)/N=c2\cc(C)[n-]o2)cc1

>  <Energy>  (7) 
112.20409600142865

>  <Genealogy>  (7) 
CCc1[nH+]c(C)oc1C(=O)[N-]c1ccc(S(=O)(=O)N=c2cc(C)[n-]o2)cc1 (protonated)
CCc1[nH+]c(C)oc1C(=O)[N-]c1ccc(S(=O)(=O)/N=c2\cc(C)[n-]o2)cc1 (cis-trans isomerization)
CCc1[nH+]c(C)oc1C(=O)[N-]c1ccc(S(=O)(=O)/N=c2\cc(C)[n-]o2)cc1 (3D coordinates assigned)
CCc1[nH+]c(C)oc1C(=O)[N-]c1ccc(S(=O)(=O)/N=c2\cc(C)[n-]o2)cc1 (optimized conformer: 112.20409600142865 kcal/mol)

>  <smiles>  (7) 
CCc1nc(C)oc1C(=O)Nc1ccc(S(=O)(=O)N=c2cc(C)[nH]o2)cc1

>  <score_type>  (7) 
oracle

>  <origin>  (7) 
adg

>  <m_score__min__energy>  (7) 
-11.5

>  <m_primary>  (7) 
energy

$$$$
7:0
     RDKit          3D

 48 51  0  0  0  0  0  0  0  0999 V2000
   62.2910   33.5240   46.4180 C   0  0  0  0  0  0  0  0  0  0  0  0
   61.7780   32.3730   47.2320 C   0  0  0  0  0  0  0  0  0  0  0  0
   62.5840   31.7940   48.2230 C   0  0  0  0  0  0  0  0  0  0  0  0
   62.0990   30.7370   48.9960 C   0  0  0  0  0  0  0  0  0  0  0  0
   60.7940   30.2700   48.8060 C   0  0  0  0  0  0  0  0  0  0  0  0
   59.9640   30.8550   47.8360 C   0  0  0  0  0  0  0  0  0  0  0  0
   60.4670   31.9070   47.0470 C   0  0  0  0  0  0  0  0  0  0  0  0
   58.6390   30.3340   47.6100 N   0  0  0  0  0  0  0  0  0  0  0  0
   58.7020   29.0980   46.8650 C   0  0  0  0  0  0  0  0  0  0  0  0
   58.0300   28.8350   45.6710 C   0  0  0  0  0  0  0  0  0  0  0  0
   57.1150   29.7300   44.9410 C   0  0  0  0  0  0  0  0  0  0  0  0
   56.3640   29.2670   44.0400 O   0  0  0  0  0  0  0  0  0  0  0  0
   57.0820   31.1260   45.2550 N   0  0  0  0  0  0  0  0  0  0  0  0
   57.5700   32.1670   44.3590 C   0  0  0  0  0  0  0  0  0  0  0  0
   58.1860   33.2870   45.1520 C   0  0  0  0  0  0  0  0  0  0  0  0
   59.0510   34.2080   44.5370 C   0  0  0  0  0  0  0  0  0  0  0  0
   59.6390   35.2300   45.2870 C   0  0  0  0  0  0  0  0  0  0  0  0
   59.3740   35.3370   46.6550 C   0  0  0  0  0  0  0  0  0  0  0  0
   58.5190   34.4220   47.2750 C   0  0  0  0  0  0  0  0  0  0  0  0
   57.9280   33.3980   46.5280 C   0  0  0  0  0  0  0  0  0  0  0  0
   58.4030   27.5540   45.2960 C   0  0  0  0  0  0  0  0  0  0  0  0
   57.9120   26.8500   44.1480 N   0  0  0  0  0  0  0  0  0  0  0  0
   59.2550   27.0300   46.2060 N   0  0  0  0  0  0  0  0  0  0  0  0
   59.8670   25.7650   46.1360 N   0  0  0  0  0  0  0  0  0  0  0  0
   59.4380   27.9450   47.1870 C   0  0  0  0  0  0  0  0  0  0  0  0
   60.3970   27.7210   48.3420 C   0  0  0  0  0  0  0  0  0  0  0  0
   60.1970   28.8680   49.7470 S   0  0  0  0  0  0  0  0  0  0  0  0
   62.6455   34.3193   47.0902 H   0  0  0  0  0  0  0  0  0  0  0  0
   63.1222   33.1827   45.7835 H   0  0  0  0  0  0  0  0  0  0  0  0
   61.4815   33.9140   45.7835 H   0  0  0  0  0  0  0  0  0  0  0  0
   63.6023   32.1740   48.3920 H   0  0  0  0  0  0  0  0  0  0  0  0
   62.7440   30.2709   49.7554 H   0  0  0  0  0  0  0  0  0  0  0  0
   59.8275   32.3674   46.2795 H   0  0  0  0  0  0  0  0  0  0  0  0
   58.0750   31.0480   47.0990 H   0  0  0  0  0  0  0  0  0  0  0  0
   58.1500   30.1660   48.5180 H   0  0  0  0  0  0  0  0  0  0  0  0
   58.3267   31.7404   43.6842 H   0  0  0  0  0  0  0  0  0  0  0  0
   56.7263   32.5624   43.7744 H   0  0  0  0  0  0  0  0  0  0  0  0
   59.2660   34.1242   43.4615 H   0  0  0  0  0  0  0  0  0  0  0  0
   60.3115   35.9514   44.7999 H   0  0  0  0  0  0  0  0  0  0  0  0
   59.8386   36.1417   47.2438 H   0  0  0  0  0  0  0  0  0  0  0  0
   58.3106   34.5072   48.3517 H   0  0  0  0  0  0  0  0  0  0  0  0
   57.2587   32.6769   47.0200 H   0  0  0  0  0  0  0  0  0  0  0  0
   57.1110   27.2080   43.5860 H   0  0  0  0  0  0  0  0  0  0  0  0
   58.3730   25.9770   43.8150 H   0  0  0  0  0  0  0  0  0  0  0  0
   60.8810   25.6580   45.9200 H   0  0  0  0  0  0  0  0  0  0  0  0
   59.3270   24.8920   46.3240 H   0  0  0  0  0  0  0  0  0  0  0  0
   60.2487   26.6967   48.7144 H   0  0  0  0  0  0  0  0  0  0  0  0
   61.4059   27.8995   47.9418 H   0  0  0  0  0  0  0  0  0  0  0  0
  1  2  1  0
  2  3  2  0
  3  4  1  0
  4  5  2  0
  5  6  1  0
  6  7  2  0
  6  8  1  0
  8  9  1  0
  9 10  1  0
 10 11  1  0
 11 12  2  0
 11 13  1  0
 13 14  1  0
 14 15  1  0
 15 16  2  0
 16 17  1  0
 17 18  2  0
 18 19  1  0
 19 20  2  0
 10 21  2  0
 21 22  1  0
 21 23  1  0
 23 24  1  0
 23 25  1  0
 25 26  1  0
 26 27  1  0
  7  2  1  0
 25  9  2  0
 27  5  1  0
 20 15  1  0
  1 28  1  0
  1 29  1  0
  1 30  1  0
  3 31  1  0
  4 32  1  0
  7 33  1  0
  8 34  1  0
  8 35  1  0
 14 36  1  0
 14 37  1  0
 16 38  1  0
 17 39  1  0
 18 40  1  0
 19 41  1  0
 20 42  1  0
 22 43  1  0
 22 44  1  0
 24 45  1  0
 24 46  1  0
 26 47  1  0
 26 48  1  0
M  CHG  2   8   1  13  -1
M  END
>  <UniqueID>  (8) 
8

>  <SMILES>  (8) 
Cc1ccc2c(c1)[NH2+]c1c(C(=O)[N-]Cc3ccccc3)c(N)n(N)c1CS2

>  <Energy>  (8) 
88.06047128020144

>  <Genealogy>  (8) 
Cc1ccc2c(c1)[NH2+]c1c(C(=O)[N-]Cc3ccccc3)c(N)n(N)c1CS2 (protonated)
Cc1ccc2c(c1)[NH2+]c1c(C(=O)[N-]Cc3ccccc3)c(N)n(N)c1CS2 (3D coordinates assigned)
Cc1ccc2c(c1)[NH2+]c1c(C(=O)[N-]Cc3ccccc3)c(N)n(N)c1CS2 (nonaromatic ring conformer: 88.06047128020144 kcal/mol)

>  <smiles>  (8) 
Cc1ccc2c(c1)Nc1c(C(=O)NCc3ccccc3)c(N)n(N)c1CS2

>  <score_type>  (8) 
oracle

>  <origin>  (8) 
adg

>  <m_score__min__energy>  (8) 
-7.6399999999999997

>  <m_primary>  (8) 
energy

$$$$
8:0
     RDKit          3D

 44 46  0  0  0  0  0  0  0  0999 V2000
   61.7500   33.8430   46.7190 C   0  0  0  0  0  0  0  0  0  0  0  0
   60.7080   32.7880   46.9450 C   0  0  0  0  0  0  0  0  0  0  0  0
   60.9470   31.7390   47.8440 C   0  0  0  0  0  0  0  0  0  0  0  0
   59.9890   30.7330   48.0320 C   0  0  0  0  0  0  0  0  0  0  0  0
   60.2620   29.5940   48.9710 C   0  0  0  0  0  0  0  0  0  0  0  0
   58.8060   30.7550   47.2790 C   0  0  0  0  0  0  0  0  0  0  0  0
   58.5640   31.7840   46.3610 C   0  0  0  0  0  0  0  0  0  0  0  0
   57.3510   31.7480   45.5980 N   0  0  0  0  0  0  0  0  0  0  0  0
   56.9130   30.5060   44.4680 S   0  0  0  0  0  0  0  0  0  0  0  0
   57.3340   30.9280   43.0890 O   0  0  0  0  0  0  0  0  0  0  0  0
   55.4210   30.3290   44.4950 O   0  0  0  0  0  0  0  0  0  0  0  0
   57.6720   28.9750   44.8990 C   0  0  0  0  0  0  0  0  0  0  0  0
   59.0520   28.8110   44.7370 C   0  0  0  0  0  0  0  0  0  0  0  0
   59.6610   27.6030   45.0850 C   0  0  0  0  0  0  0  0  0  0  0  0
   58.8940   26.5500   45.5920 C   0  0  0  0  0  0  0  0  0  0  0  0
   57.5030   26.6930   45.7480 C   0  0  0  0  0  0  0  0  0  0  0  0
   56.6930   25.5760   46.2950 C   0  0  0  0  0  0  0  0  0  0  0  0
   57.2470   24.6970   47.0090 O   0  0  0  0  0  0  0  0  0  0  0  0
   55.2710   25.5070   46.1060 N   0  0  0  0  0  0  0  0  0  0  0  0
   54.5600   24.4390   45.8720 C   0  0  0  0  0  0  0  0  0  0  0  0
   54.9910   23.1440   46.2300 C   0  0  0  0  0  0  0  0  0  0  0  0
   54.1760   22.0440   45.9450 C   0  0  0  0  0  0  0  0  0  0  0  0
   52.9730   22.2240   45.3400 N   0  0  0  0  0  0  0  0  0  0  0  0
   52.5260   23.4600   44.9980 C   0  0  0  0  0  0  0  0  0  0  0  0
   53.3070   24.5860   45.2630 C   0  0  0  0  0  0  0  0  0  0  0  0
   56.9010   27.9170   45.4010 C   0  0  0  0  0  0  0  0  0  0  0  0
   59.5200   32.8030   46.1990 C   0  0  0  0  0  0  0  0  0  0  0  0
   62.1145   34.2121   47.6890 H   0  0  0  0  0  0  0  0  0  0  0  0
   62.5888   33.4142   46.1511 H   0  0  0  0  0  0  0  0  0  0  0  0
   61.3108   34.6764   46.1511 H   0  0  0  0  0  0  0  0  0  0  0  0
   61.8923   31.7052   48.4054 H   0  0  0  0  0  0  0  0  0  0  0  0
   60.1775   29.9466   50.0095 H   0  0  0  0  0  0  0  0  0  0  0  0
   59.5309   28.7910   48.7958 H   0  0  0  0  0  0  0  0  0  0  0  0
   61.2777   29.2097   48.7958 H   0  0  0  0  0  0  0  0  0  0  0  0
   58.0613   29.9563   47.4109 H   0  0  0  0  0  0  0  0  0  0  0  0
   59.6589   29.6354   44.3346 H   0  0  0  0  0  0  0  0  0  0  0  0
   60.7469   27.4800   44.9598 H   0  0  0  0  0  0  0  0  0  0  0  0
   59.3809   25.6038   45.8707 H   0  0  0  0  0  0  0  0  0  0  0  0
   55.9606   23.0008   46.7294 H   0  0  0  0  0  0  0  0  0  0  0  0
   54.5098   21.0303   46.2114 H   0  0  0  0  0  0  0  0  0  0  0  0
   51.5463   23.5739   44.5111 H   0  0  0  0  0  0  0  0  0  0  0  0
   52.9392   25.5872   44.9941 H   0  0  0  0  0  0  0  0  0  0  0  0
   55.8155   28.0447   45.5248 H   0  0  0  0  0  0  0  0  0  0  0  0
   59.3349   33.6170   45.4827 H   0  0  0  0  0  0  0  0  0  0  0  0
  1  2  1  0
  2  3  2  0
  3  4  1  0
  4  5  1  0
  4  6  2  0
  6  7  1  0
  7  8  1  0
  8  9  1  0
  9 10  2  0
  9 11  2  0
  9 12  1  0
 12 13  2  0
 13 14  1  0
 14 15  2  0
 15 16  1  0
 16 17  1  0
 17 18  2  0
 17 19  1  0
 19 20  2  3
 20 21  1  0
 21 22  2  0
 22 23  1  0
 23 24  1  0
 24 25  2  0
 16 26  2  0
  7 27  2  0
 27  2  1  0
 26 12  1  0
 25 20  1  0
  1 28  1  0
  1 29  1  0
  1 30  1  0
  3 31  1  0
  5 32  1  0
  5 33  1  0
  5 34  1  0
  6 35  1  0
 13 36  1  0
 14 37  1  0
 15 38  1  0
 21 39  1  0
 22 40  1  0
 24 41  1  0
 25 42  1  0
 26 43  1  0
 27 44  1  0
M  CHG  2   8  -1  23  -1
M  END
>  <UniqueID>  (9) 
9

>  <SMILES>  (9) 
Cc1cc(C)cc([N-]S(=O)(=O)c2cccc(C(=O)N=c3cc[n-]cc3)c2)c1

>  <Energy>  (9) 
58.413164496256194

>  <Genealogy>  (9) 
Cc1cc(C)cc([N-]S(=O)(=O)c2cccc(C(=O)N=c3cc[n-]cc3)c2)c1 (protonated)
Cc1cc(C)cc([N-]S(=O)(=O)c2cccc(C(=O)N=c3cc[n-]cc3)c2)c1 (3D coordinates assigned)
Cc1cc(C)cc([N-]S(=O)(=O)c2cccc(C(=O)N=c3cc[n-]cc3)c2)c1 (optimized conformer: 58.413164496256194 kcal/mol)

>  <smiles>  (9) 
Cc1cc(C)cc(NS(=O)(=O)c2cccc(C(=O)N=c3cc[nH]cc3)c2)c1

>  <score_type>  (9) 
oracle

>  <origin>  (9) 
adg

>  <m_score__min__energy>  (9) 
-11.789999999999999

>  <m_primary>  (9) 
energy

$$$$
9:0
     RDKit          3D

 33 34  0  0  0  0  0  0  0  0999 V2000
   60.6640   30.2440   47.8410 O   0  0  0  0  0  0  0  0  0  0  0  0
   59.4390   30.5700   47.8920 C   0  0  0  0  0  0  0  0  0  0  0  0
   58.6050   30.0110   46.8670 N   0  0  0  0  0  0  0  0  0  0  0  0
   59.2400   29.1500   45.8940 C   0  0  0  0  0  0  0  0  0  0  0  0
   59.1250   29.7340   44.4900 C   0  0  0  0  0  0  0  0  0  0  0  0
   57.6870   29.8320   44.1110 C   0  0  0  0  0  0  0  0  0  0  0  0
   57.0100   29.3080   43.0500 C   0  0  0  0  0  0  0  0  0  0  0  0
   55.7040   29.7000   43.1790 N   0  0  0  0  0  0  0  0  0  0  0  0
   55.5880   30.4510   44.3000 C   0  0  0  0  0  0  0  0  0  0  0  0
   56.8010   30.5220   44.8560 N   0  0  0  0  0  0  0  0  0  0  0  0
   58.9550   31.4100   48.8770 O   0  0  0  0  0  0  0  0  0  0  0  0
   58.9060   32.7960   48.7470 C   0  0  0  0  0  0  0  0  0  0  0  0
   58.7070   33.2950   47.3700 C   0  0  0  0  0  0  0  0  0  0  0  0
   57.4260   33.3940   46.8670 C   0  0  0  0  0  0  0  0  0  0  0  0
   57.1290   33.8390   45.6040 C   0  0  0  0  0  0  0  0  0  0  0  0
   58.1670   34.2230   44.7530 C   0  0  0  0  0  0  0  0  0  0  0  0
   59.4670   34.1310   45.2420 C   0  0  0  0  0  0  0  0  0  0  0  0
   59.7320   33.6740   46.5300 C   0  0  0  0  0  0  0  0  0  0  0  0
   61.5230   33.5670   47.1550 Br  0  0  0  0  0  0  0  0  0  0  0  0
   57.6040   30.2350   46.8560 H   0  0  0  0  0  0  0  0  0  0  0  0
   60.3037   29.0393   46.1515 H   0  0  0  0  0  0  0  0  0  0  0  0
   58.7360   28.1724   45.9093 H   0  0  0  0  0  0  0  0  0  0  0  0
   59.5787   30.7359   44.4710 H   0  0  0  0  0  0  0  0  0  0  0  0
   59.6494   29.0814   43.7765 H   0  0  0  0  0  0  0  0  0  0  0  0
   57.4319   28.6889   42.2445 H   0  0  0  0  0  0  0  0  0  0  0  0
   54.9200   29.4510   42.5040 H   0  0  0  0  0  0  0  0  0  0  0  0
   54.6670   30.9159   44.6816 H   0  0  0  0  0  0  0  0  0  0  0  0
   58.0753   33.1661   49.3659 H   0  0  0  0  0  0  0  0  0  0  0  0
   59.8918   33.1662   49.0650 H   0  0  0  0  0  0  0  0  0  0  0  0
   56.5913   33.0977   47.5192 H   0  0  0  0  0  0  0  0  0  0  0  0
   56.0839   33.8928   45.2652 H   0  0  0  0  0  0  0  0  0  0  0  0
   57.9651   34.5848   43.7340 H   0  0  0  0  0  0  0  0  0  0  0  0
   60.3057   34.4267   44.5947 H   0  0  0  0  0  0  0  0  0  0  0  0
  1  2  2  0
  2  3  1  0
  3  4  1  0
  4  5  1  0
  5  6  1  0
  6  7  2  0
  7  8  1  0
  8  9  1  0
  9 10  2  0
  2 11  1  0
 11 12  1  0
 12 13  1  0
 13 14  2  0
 14 15  1  0
 15 16  2  0
 16 17  1  0
 17 18  2  0
 18 19  1  0
 10  6  1  0
 18 13  1  0
  3 20  1  0
  4 21  1  0
  4 22  1  0
  5 23  1  0
  5 24  1  0
  7 25  1  0
  8 26  1  0
  9 27  1  0
 12 28  1  0
 12 29  1  0
 14 30  1  0
 15 31  1  0
 16 32  1  0
 17 33  1  0
M  END
>  <smiles>  (10) 
O=C(NCCc1c[nH]cn1)OCc1ccccc1Br

>  <score_type>  (10) 
oracle

>  <origin>  (10) 
adg

>  <m_score__min__energy>  (10) 
-6.8499999999999996

>  <m_primary>  (10) 
energy

$$$$
10:0
     RDKit          3D

 62 65  0  0  0  0  0  0  0  0999 V2000
   55.9700   29.3510   52.8100 C   0  0  0  0  0  0  0  0  0  0  0  0
   56.7140   29.8680   51.7140 O   0  0  0  0  0  0  0  0  0  0  0  0
   57.4800   31.0450   51.7500 C   0  0  0  0  0  0  0  0  0  0  0  0
   57.0140   32.2100   52.3940 C   0  0  0  0  0  0  0  0  0  0  0  0
   57.7620   33.3890   52.3520 C   0  0  0  0  0  0  0  0  0  0  0  0
   58.9740   33.4260   51.6640 C   0  0  0  0  0  0  0  0  0  0  0  0
   59.4540   32.2760   51.0360 C   0  0  0  0  0  0  0  0  0  0  0  0
   58.7340   31.0750   51.0990 C   0  0  0  0  0  0  0  0  0  0  0  0
   59.2790   29.9250   50.4370 N   0  0  0  0  0  0  0  0  0  0  0  0
   60.5820   29.8280   49.8440 C   0  0  0  0  0  0  0  0  0  0  0  0
   61.3690   28.9130   50.2060 O   0  0  0  0  0  0  0  0  0  0  0  0
   61.0040   30.8280   48.8260 C   0  0  0  0  0  0  0  0  0  0  0  0
   60.0960   31.1890   47.8100 C   0  0  0  0  0  0  0  0  0  0  0  0
   60.4500   32.1060   46.8100 C   0  0  0  0  0  0  0  0  0  0  0  0
   59.4730   32.4800   45.8210 N   0  0  0  0  0  0  0  0  0  0  0  0
   58.9330   33.8040   45.6790 C   0  0  0  0  0  0  0  0  0  0  0  0
   59.5640   34.8040   46.1170 O   0  0  0  0  0  0  0  0  0  0  0  0
   57.6310   34.0140   44.9650 C   0  0  0  0  0  0  0  0  0  0  0  0
   56.6540   32.8780   45.2560 C   0  0  0  0  0  0  0  0  0  0  0  0
   57.0600   31.6880   44.5200 N   0  0  0  0  0  0  0  0  0  0  0  0
   56.2960   30.4780   44.5120 C   0  0  0  0  0  0  0  0  0  0  0  0
   55.1410   30.4600   44.0040 O   0  0  0  0  0  0  0  0  0  0  0  0
   56.8520   29.2560   45.1120 C   0  0  0  0  0  0  0  0  0  0  0  0
   58.1470   29.1040   45.5760 C   0  0  0  0  0  0  0  0  0  0  0  0
   58.2350   27.8030   46.0310 C   0  0  0  0  0  0  0  0  0  0  0  0
   59.7800   26.9780   46.7920 Br  0  0  0  0  0  0  0  0  0  0  0  0
   57.0000   27.2240   45.8290 C   0  0  0  0  0  0  0  0  0  0  0  0
   56.5100   25.4330   46.2730 Br  0  0  0  0  0  0  0  0  0  0  0  0
   56.1590   28.1110   45.2690 N   0  0  0  0  0  0  0  0  0  0  0  0
   61.7230   32.6960   46.8450 C   0  0  0  0  0  0  0  0  0  0  0  0
   62.6320   32.3520   47.8420 C   0  0  0  0  0  0  0  0  0  0  0  0
   62.2940   31.4200   48.8370 C   0  0  0  0  0  0  0  0  0  0  0  0
   63.2240   31.1660   49.9050 N   0  0  0  0  0  0  0  0  0  0  0  0
   64.1730   32.1380   50.3790 C   0  0  0  0  0  0  0  0  0  0  0  0
   65.5380   31.9560   50.1040 C   0  0  0  0  0  0  0  0  0  0  0  0
   66.4790   32.8850   50.5560 C   0  0  0  0  0  0  0  0  0  0  0  0
   66.0640   34.0110   51.2720 C   0  0  0  0  0  0  0  0  0  0  0  0
   64.7060   34.2160   51.5270 C   0  0  0  0  0  0  0  0  0  0  0  0
   63.7590   33.2880   51.0820 C   0  0  0  0  0  0  0  0  0  0  0  0
   62.4430   33.5340   51.3050 F   0  0  0  0  0  0  0  0  0  0  0  0
   56.4346   29.6738   53.7534 H   0  0  0  0  0  0  0  0  0  0  0  0
   54.9374   29.7272   52.7622 H   0  0  0  0  0  0  0  0  0  0  0  0
   55.9625   28.2521   52.7622 H   0  0  0  0  0  0  0  0  0  0  0  0
   56.0552   32.1901   52.9329 H   0  0  0  0  0  0  0  0  0  0  0  0
   57.3937   34.2907   52.8632 H   0  0  0  0  0  0  0  0  0  0  0  0
   59.5515   34.3610   51.6162 H   0  0  0  0  0  0  0  0  0  0  0  0
   60.4062   32.3123   50.4864 H   0  0  0  0  0  0  0  0  0  0  0  0
   59.0906   30.7428   47.8015 H   0  0  0  0  0  0  0  0  0  0  0  0
   59.1480   31.7500   45.1450 H   0  0  0  0  0  0  0  0  0  0  0  0
   57.1874   34.9635   45.2991 H   0  0  0  0  0  0  0  0  0  0  0  0
   57.8264   34.0375   43.8827 H   0  0  0  0  0  0  0  0  0  0  0  0
   56.6552   32.6605   46.3343 H   0  0  0  0  0  0  0  0  0  0  0  0
   55.6422   33.1753   44.9432 H   0  0  0  0  0  0  0  0  0  0  0  0
   58.9428   29.8634   45.5813 H   0  0  0  0  0  0  0  0  0  0  0  0
   55.1630   27.9380   45.0090 H   0  0  0  0  0  0  0  0  0  0  0  0
   62.0043   33.4347   46.0801 H   0  0  0  0  0  0  0  0  0  0  0  0
   63.6290   32.8167   47.8506 H   0  0  0  0  0  0  0  0  0  0  0  0
   63.1030   30.2860   50.4570 H   0  0  0  0  0  0  0  0  0  0  0  0
   65.8682   31.0777   49.5299 H   0  0  0  0  0  0  0  0  0  0  0  0
   67.5479   32.7297   50.3479 H   0  0  0  0  0  0  0  0  0  0  0  0
   66.8071   34.7363   51.6350 H   0  0  0  0  0  0  0  0  0  0  0  0
   64.3805   35.1098   52.0794 H   0  0  0  0  0  0  0  0  0  0  0  0
  1  2  1  0
  2  3  1  0
  3  4  2  0
  4  5  1  0
  5  6  2  0
  6  7  1  0
  7  8  2  0
  8  9  1  0
  9 10  1  0
 10 11  2  0
 10 12  1  0
 12 13  2  0
 13 14  1  0
 14 15  1  0
 15 16  1  0
 16 17  2  0
 16 18  1  0
 18 19  1  0
 19 20  1  0
 20 21  1  0
 21 22  2  0
 21 23  1  0
 23 24  2  0
 24 25  1  0
 25 26  1  0
 25 27  2  0
 27 28  1  0
 27 29  1  0
 14 30  2  0
 30 31  1  0
 31 32  2  0
 32 33  1  0
 33 34  1  0
 34 35  2  0
 35 36  1  0
 36 37  2  0
 37 38  1  0
 38 39  2  0
 39 40  1  0
  8  3  1  0
 32 12  1  0
 39 34  1  0
 29 23  1  0
  1 41  1  0
  1 42  1  0
  1 43  1  0
  4 44  1  0
  5 45  1  0
  6 46  1  0
  7 47  1  0
 13 48  1  0
 15 49  1  0
 18 50  1  0
 18 51  1  0
 19 52  1  0
 19 53  1  0
 24 54  1  0
 29 55  1  0
 30 56  1  0
 31 57  1  0
 33 58  1  0
 35 59  1  0
 36 60  1  0
 37 61  1  0
 38 62  1  0
M  CHG  2   9  -1  20  -1
M  END
>  <UniqueID>  (11) 
10

>  <SMILES>  (11) 
COc1ccccc1[N-]C(=O)c1cc(NC(=O)CC[N-]C(=O)c2cc(Br)c(Br)[nH]2)ccc1Nc1ccccc1F

>  <Energy>  (11) 
105.07203084383741

>  <Genealogy>  (11) 
COc1ccccc1[N-]C(=O)c1cc(NC(=O)CC[N-]C(=O)c2cc(Br)c(Br)[nH]2)ccc1Nc1ccccc1F (protonated)
COc1ccccc1[N-]C(=O)c1cc(NC(=O)CC[N-]C(=O)c2cc(Br)c(Br)[nH]2)ccc1Nc1ccccc1F (3D coordinates assigned)
COc1ccccc1[N-]C(=O)c1cc(NC(=O)CC[N-]C(=O)c2cc(Br)c(Br)[nH]2)ccc1Nc1ccccc1F (optimized conformer: 105.07203084383741 kcal/mol)

>  <smiles>  (11) 
COc1ccccc1NC(=O)c1cc(NC(=O)CCNC(=O)c2cc(Br)c(Br)[nH]2)ccc1Nc1ccccc1F

>  <score_type>  (11) 
oracle

>  <origin>  (11) 
adg

>  <m_score__min__energy>  (11) 
-13.130000000000001

>  <m_primary>  (11) 
energy

$$$$
11:0
     RDKit          3D

 53 56  0  0  0  0  0  0  0  0999 V2000
   60.6820   28.6560   44.7420 C   0  0  0  0  0  0  0  0  0  0  0  0
   60.5520   28.8330   46.2260 C   0  0  0  0  0  0  0  0  0  0  0  0
   60.5320   27.7170   47.0760 C   0  0  0  0  0  0  0  0  0  0  0  0
   60.3900   27.8860   48.4620 C   0  0  0  0  0  0  0  0  0  0  0  0
   60.4240   26.6940   49.3730 C   0  0  0  0  0  0  0  0  0  0  0  0
   60.2930   29.1800   48.9950 C   0  0  0  0  0  0  0  0  0  0  0  0
   60.3120   30.3010   48.1570 C   0  0  0  0  0  0  0  0  0  0  0  0
   60.2100   31.6010   48.7570 N   0  0  0  0  0  0  0  0  0  0  0  0
   59.0280   32.8180   48.3880 S   0  0  0  0  0  0  0  0  0  0  0  0
   57.7470   32.5720   49.1330 O   0  0  0  0  0  0  0  0  0  0  0  0
   59.5710   34.1480   48.8320 O   0  0  0  0  0  0  0  0  0  0  0  0
   58.7360   32.8570   46.6490 C   0  0  0  0  0  0  0  0  0  0  0  0
   59.3350   33.8420   45.8500 C   0  0  0  0  0  0  0  0  0  0  0  0
   59.1280   33.8540   44.4700 C   0  0  0  0  0  0  0  0  0  0  0  0
   58.3380   32.8680   43.8680 C   0  0  0  0  0  0  0  0  0  0  0  0
   58.1470   32.8870   42.5220 N   0  0  0  0  0  0  0  0  0  0  0  0
   57.3960   31.9470   41.8920 C   0  0  0  0  0  0  0  0  0  0  0  0
   57.2430   32.0030   40.6440 O   0  0  0  0  0  0  0  0  0  0  0  0
   56.8030   30.9150   42.6240 C   0  0  0  0  0  0  0  0  0  0  0  0
   56.9910   30.8480   44.0110 C   0  0  0  0  0  0  0  0  0  0  0  0
   56.4280   29.6900   44.7360 C   0  0  0  0  0  0  0  0  0  0  0  0
   55.1810   29.5970   44.8660 O   0  0  0  0  0  0  0  0  0  0  0  0
   57.2630   28.6440   45.2510 N   0  0  0  0  0  0  0  0  0  0  0  0
   57.7650   27.5010   44.4890 C   0  0  0  0  0  0  0  0  0  0  0  0
   57.6540   26.2270   45.2840 C   0  0  0  0  0  0  0  0  0  0  0  0
   57.4910   26.2780   46.6780 C   0  0  0  0  0  0  0  0  0  0  0  0
   57.3640   25.0960   47.4150 C   0  0  0  0  0  0  0  0  0  0  0  0
   57.4030   23.8580   46.7670 C   0  0  0  0  0  0  0  0  0  0  0  0
   57.2770   22.7140   47.4820 F   0  0  0  0  0  0  0  0  0  0  0  0
   57.5730   23.8010   45.3810 C   0  0  0  0  0  0  0  0  0  0  0  0
   57.7040   24.9790   44.6410 C   0  0  0  0  0  0  0  0  0  0  0  0
   57.7480   31.8530   44.6570 C   0  0  0  0  0  0  0  0  0  0  0  0
   57.9300   31.8790   46.0520 C   0  0  0  0  0  0  0  0  0  0  0  0
   60.4150   30.1190   46.7670 C   0  0  0  0  0  0  0  0  0  0  0  0
   61.3211   27.7859   44.5311 H   0  0  0  0  0  0  0  0  0  0  0  0
   59.6862   28.4945   44.3034 H   0  0  0  0  0  0  0  0  0  0  0  0
   61.1340   29.5578   44.3034 H   0  0  0  0  0  0  0  0  0  0  0  0
   60.6280   26.7055   46.6545 H   0  0  0  0  0  0  0  0  0  0  0  0
   60.4144   27.0321   50.4197 H   0  0  0  0  0  0  0  0  0  0  0  0
   59.5435   26.0625   49.1835 H   0  0  0  0  0  0  0  0  0  0  0  0
   61.3391   26.1137   49.1835 H   0  0  0  0  0  0  0  0  0  0  0  0
   60.2011   29.3151   50.0828 H   0  0  0  0  0  0  0  0  0  0  0  0
   59.9718   34.6096   46.3140 H   0  0  0  0  0  0  0  0  0  0  0  0
   59.5871   34.6408   43.8535 H   0  0  0  0  0  0  0  0  0  0  0  0
   56.1905   30.1575   42.1130 H   0  0  0  0  0  0  0  0  0  0  0  0
   57.1774   27.3997   43.5647 H   0  0  0  0  0  0  0  0  0  0  0  0
   58.8258   27.6757   44.2563 H   0  0  0  0  0  0  0  0  0  0  0  0
   57.4631   27.2503   47.1917 H   0  0  0  0  0  0  0  0  0  0  0  0
   57.2332   25.1407   48.5063 H   0  0  0  0  0  0  0  0  0  0  0  0
   57.6038   22.8266   44.8715 H   0  0  0  0  0  0  0  0  0  0  0  0
   57.8467   24.9290   43.5514 H   0  0  0  0  0  0  0  0  0  0  0  0
   57.4345   31.1239   46.6800 H   0  0  0  0  0  0  0  0  0  0  0  0
   60.3879   30.9923   46.0987 H   0  0  0  0  0  0  0  0  0  0  0  0
  1  2  1  0
  2  3  2  0
  3  4  1  0
  4  5  1  0
  4  6  2  0
  6  7  1  0
  7  8  1  0
  8  9  1  0
  9 10  2  0
  9 11  2  0
  9 12  1  0
 12 13  2  0
 13 14  1  0
 14 15  2  0
 15 16  1  0
 16 17  1  0
 17 18  2  0
 17 19  1  0
 19 20  2  0
 20 21  1  0
 21 22  2  0
 21 23  1  0
 23 24  1  0
 24 25  1  0
 25 26  2  0
 26 27  1  0
 27 28  2  0
 28 29  1  0
 28 30  1  0
 30 31  2  0
 20 32  1  0
 32 33  2  0
  7 34  2  0
 34  2  1  0
 33 12  1  0
 32 15  1  0
 31 25  1  0
  1 35  1  0
  1 36  1  0
  1 37  1  0
  3 38  1  0
  5 39  1  0
  5 40  1  0
  5 41  1  0
  6 42  1  0
 13 43  1  0
 14 44  1  0
 19 45  1  0
 24 46  1  0
 24 47  1  0
 26 48  1  0
 27 49  1  0
 30 50  1  0
 31 51  1  0
 33 52  1  0
 34 53  1  0
M  CHG  3   8  -1  16  -1  23  -1
M  END
>  <UniqueID>  (12) 
11

>  <SMILES>  (12) 
Cc1cc(C)cc([N-]S(=O)(=O)c2ccc3[n-]c(=O)cc(C(=O)[N-]Cc4ccc(F)cc4)c3c2)c1

>  <Energy>  (12) 
64.74278407580803

>  <Genealogy>  (12) 
Cc1cc(C)cc([N-]S(=O)(=O)c2ccc3[n-]c(=O)cc(C(=O)[N-]Cc4ccc(F)cc4)c3c2)c1 (protonated)
Cc1cc(C)cc([N-]S(=O)(=O)c2ccc3[n-]c(=O)cc(C(=O)[N-]Cc4ccc(F)cc4)c3c2)c1 (3D coordinates assigned)
Cc1cc(C)cc([N-]S(=O)(=O)c2ccc3[n-]c(=O)cc(C(=O)[N-]Cc4ccc(F)cc4)c3c2)c1 (optimized conformer: 64.74278407580803 kcal/mol)

>  <smiles>  (12) 
Cc1cc(C)cc(NS(=O)(=O)c2ccc3[nH]c(=O)cc(C(=O)NCc4ccc(F)cc4)c3c2)c1

>  <score_type>  (12) 
oracle

>  <origin>  (12) 
adg

>  <m_score__min__energy>  (12) 
-13.289999999999999

>  <m_primary>  (12) 
energy

$$$$
12:0
     RDKit          3D

 35 36  0  0  0  0  0  0  0  0999 V2000
   57.8020   31.7690   42.9480 C   0  0  0  0  0  0  0  0  0  0  0  0
   57.5780   30.6480   43.9190 C   0  0  0  0  0  0  0  0  0  0  0  0
   58.6360   30.1760   44.7110 C   0  0  0  0  0  0  0  0  0  0  0  0
   58.4350   29.1060   45.5880 C   0  0  0  0  0  0  0  0  0  0  0  0
   57.1890   28.4750   45.6650 C   0  0  0  0  0  0  0  0  0  0  0  0
   57.0180   27.3840   46.5820 N   0  0  0  0  0  0  0  0  0  0  0  0
   57.7230   26.1360   46.5570 C   0  0  0  0  0  0  0  0  0  0  0  0
   58.8130   26.0450   47.1810 O   0  0  0  0  0  0  0  0  0  0  0  0
   57.2350   24.9720   45.7720 C   0  0  0  0  0  0  0  0  0  0  0  0
   55.8730   24.8400   45.4730 C   0  0  0  0  0  0  0  0  0  0  0  0
   54.9950   25.8420   45.9100 O   0  0  0  0  0  0  0  0  0  0  0  0
   55.4250   23.7570   44.7570 N   0  0  0  0  0  0  0  0  0  0  0  0
   53.9850   23.6210   44.4690 C   0  0  0  0  0  0  0  0  0  0  0  0
   56.3170   22.8140   44.3060 C   0  0  0  0  0  0  0  0  0  0  0  0
   55.9020   21.8170   43.6490 O   0  0  0  0  0  0  0  0  0  0  0  0
   57.6590   22.9400   44.5640 N   0  0  0  0  0  0  0  0  0  0  0  0
   58.5980   21.9060   44.0940 C   0  0  0  0  0  0  0  0  0  0  0  0
   58.1180   23.9810   45.3240 C   0  0  0  0  0  0  0  0  0  0  0  0
   59.3390   24.0450   45.6410 O   0  0  0  0  0  0  0  0  0  0  0  0
   56.1260   28.9530   44.8780 C   0  0  0  0  0  0  0  0  0  0  0  0
   56.3250   30.0230   44.0000 C   0  0  0  0  0  0  0  0  0  0  0  0
   57.9883   32.7014   43.5011 H   0  0  0  0  0  0  0  0  0  0  0  0
   58.6717   31.5379   42.3154 H   0  0  0  0  0  0  0  0  0  0  0  0
   56.9102   31.8898   42.3154 H   0  0  0  0  0  0  0  0  0  0  0  0
   59.6265   30.6494   44.6415 H   0  0  0  0  0  0  0  0  0  0  0  0
   59.2632   28.7576   46.2225 H   0  0  0  0  0  0  0  0  0  0  0  0
   55.0930   26.3410   46.7840 H   0  0  0  0  0  0  0  0  0  0  0  0
   53.4254   23.5681   45.4145 H   0  0  0  0  0  0  0  0  0  0  0  0
   53.6433   24.4909   43.8888 H   0  0  0  0  0  0  0  0  0  0  0  0
   53.8122   22.7025   43.8888 H   0  0  0  0  0  0  0  0  0  0  0  0
   59.0540   21.4039   44.9600 H   0  0  0  0  0  0  0  0  0  0  0  0
   58.0556   21.1674   43.4856 H   0  0  0  0  0  0  0  0  0  0  0  0
   59.3853   22.3750   43.4856 H   0  0  0  0  0  0  0  0  0  0  0  0
   55.1342   28.4833   44.9534 H   0  0  0  0  0  0  0  0  0  0  0  0
   55.4952   30.3761   43.3701 H   0  0  0  0  0  0  0  0  0  0  0  0
  1  2  1  0
  2  3  2  0
  3  4  1  0
  4  5  2  0
  5  6  1  0
  6  7  1  0
  7  8  2  0
  7  9  1  0
  9 10  2  0
 10 11  1  0
 10 12  1  0
 12 13  1  0
 12 14  1  0
 14 15  2  0
 14 16  1  0
 16 17  1  0
 16 18  1  0
 18 19  2  0
  5 20  1  0
 20 21  2  0
 21  2  1  0
 18  9  1  0
  1 22  1  0
  1 23  1  0
  1 24  1  0
  3 25  1  0
  4 26  1  0
 11 27  1  0
 13 28  1  0
 13 29  1  0
 13 30  1  0
 17 31  1  0
 17 32  1  0
 17 33  1  0
 20 34  1  0
 21 35  1  0
M  CHG  1   6  -1
M  END
>  <UniqueID>  (13) 
12

>  <SMILES>  (13) 
Cc1ccc([N-]C(=O)c2c(O)n(C)c(=O)n(C)c2=O)cc1

>  <Energy>  (13) 
52.61731946612604

>  <Genealogy>  (13) 
Cc1ccc([N-]C(=O)c2c(O)n(C)c(=O)n(C)c2=O)cc1 (protonated)
Cc1ccc([N-]C(=O)c2c(O)n(C)c(=O)n(C)c2=O)cc1 (3D coordinates assigned)
Cc1ccc([N-]C(=O)c2c(O)n(C)c(=O)n(C)c2=O)cc1 (optimized conformer: 52.61731946612604 kcal/mol)

>  <smiles>  (13) 
Cc1ccc(NC(=O)c2c(O)n(C)c(=O)n(C)c2=O)cc1

>  <score_type>  (13) 
oracle

>  <origin>  (13) 
adg

>  <m_score__min__energy>  (13) 
-9.3300000000000001

>  <m_primary>  (13) 
energy

$$$$
13:0
     RDKit          3D

 33 34  0  0  0  0  0  0  0  0999 V2000
   57.5870   25.1610   45.1950 C   0  0  0  0  0  0  0  0  0  0  0  0
   56.8890   26.6530   45.7940 S   0  0  0  0  0  0  0  0  0  0  0  0
   57.4190   27.0460   47.1410 O   0  0  0  0  0  0  0  0  0  0  0  0
   55.3990   26.4120   46.0000 O   0  0  0  0  0  0  0  0  0  0  0  0
   57.0520   27.9310   44.6600 N   0  0  0  0  0  0  0  0  0  0  0  0
   57.3920   29.2590   44.9740 C   0  0  0  0  0  0  0  0  0  0  0  0
   58.2810   29.6570   45.9350 C   0  0  0  0  0  0  0  0  0  0  0  0
   58.5360   30.9960   46.1580 C   0  0  0  0  0  0  0  0  0  0  0  0
   57.9160   31.9890   45.4320 C   0  0  0  0  0  0  0  0  0  0  0  0
   58.3040   33.6600   45.7800 S   0  0  0  0  0  0  0  0  0  0  0  0
   57.7510   34.0010   47.1350 O   0  0  0  0  0  0  0  0  0  0  0  0
   57.6270   34.5800   44.7880 O   0  0  0  0  0  0  0  0  0  0  0  0
   59.9890   33.9230   45.6490 N   0  0  0  0  0  0  0  0  0  0  0  0
   60.7850   33.9120   46.6350 C   0  0  0  0  0  0  0  0  0  0  0  0
   62.0790   33.5580   46.3740 N   0  0  0  0  0  0  0  0  0  0  0  0
   63.0150   33.5050   47.3130 C   0  0  0  0  0  0  0  0  0  0  0  0
   62.7140   33.8100   48.6140 C   0  0  0  0  0  0  0  0  0  0  0  0
   61.4130   34.1700   48.9030 C   0  0  0  0  0  0  0  0  0  0  0  0
   60.5050   34.2070   47.9060 N   0  0  0  0  0  0  0  0  0  0  0  0
   57.0200   31.6030   44.4630 C   0  0  0  0  0  0  0  0  0  0  0  0
   56.7670   30.2650   44.2430 C   0  0  0  0  0  0  0  0  0  0  0  0
   57.8832   24.5278   46.0443 H   0  0  0  0  0  0  0  0  0  0  0  0
   56.8444   24.6288   44.5824 H   0  0  0  0  0  0  0  0  0  0  0  0
   58.4714   25.3900   44.5824 H   0  0  0  0  0  0  0  0  0  0  0  0
   56.8840   27.7120   43.6330 H   0  0  0  0  0  0  0  0  0  0  0  0
   58.8006   28.8988   46.5393 H   0  0  0  0  0  0  0  0  0  0  0  0
   59.2566   31.2782   46.9397 H   0  0  0  0  0  0  0  0  0  0  0  0
   64.0412   33.2137   47.0444 H   0  0  0  0  0  0  0  0  0  0  0  0
   63.4818   33.7695   49.4007 H   0  0  0  0  0  0  0  0  0  0  0  0
   61.1206   34.4233   49.9327 H   0  0  0  0  0  0  0  0  0  0  0  0
   59.5400   34.4830   48.1670 H   0  0  0  0  0  0  0  0  0  0  0  0
   56.5028   32.3644   43.8607 H   0  0  0  0  0  0  0  0  0  0  0  0
   56.0455   29.9830   43.4620 H   0  0  0  0  0  0  0  0  0  0  0  0
  1  2  1  0
  2  3  2  0
  2  4  2  0
  2  5  1  0
  5  6  1  0
  6  7  2  0
  7  8  1  0
  8  9  2  0
  9 10  1  0
 10 11  2  0
 10 12  2  0
 10 13  1  0
 13 14  2  3
 14 15  1  0
 15 16  2  0
 16 17  1  0
 17 18  2  0
 18 19  1  0
  9 20  1  0
 20 21  2  0
 21  6  1  0
 19 14  1  0
  1 22  1  0
  1 23  1  0
  1 24  1  0
  5 25  1  0
  7 26  1  0
  8 27  1  0
 16 28  1  0
 17 29  1  0
 18 30  1  0
 19 31  1  0
 20 32  1  0
 21 33  1  0
M  END
>  <smiles>  (14) 
CS(=O)(=O)Nc1ccc(S(=O)(=O)N=c2nccc[nH]2)cc1

>  <score_type>  (14) 
oracle

>  <origin>  (14) 
adg

>  <m_score__min__energy>  (14) 
-7.6600000000000001

>  <m_primary>  (14) 
energy

$$$$
14:0
     RDKit          3D

 22 23  0  0  0  0  0  0  0  0999 V2000
   55.2980   22.4070   47.0840 N   0  0  0  0  0  0  0  0  0  0  0  0
   56.4410   23.2480   46.9130 C   0  0  0  0  0  0  0  0  0  0  0  0
   57.5900   22.7740   47.1170 O   0  0  0  0  0  0  0  0  0  0  0  0
   56.3060   24.6560   46.5010 C   0  0  0  0  0  0  0  0  0  0  0  0
   57.3280   25.5380   46.2030 C   0  0  0  0  0  0  0  0  0  0  0  0
   56.6750   26.7170   45.8830 C   0  0  0  0  0  0  0  0  0  0  0  0
   57.3050   28.0020   45.4790 C   0  0  0  0  0  0  0  0  0  0  0  0
   58.7020   28.1700   45.5780 C   0  0  0  0  0  0  0  0  0  0  0  0
   59.3040   29.3720   45.1960 C   0  0  0  0  0  0  0  0  0  0  0  0
   58.5270   30.4230   44.7100 C   0  0  0  0  0  0  0  0  0  0  0  0
   57.1440   30.2740   44.6040 C   0  0  0  0  0  0  0  0  0  0  0  0
   56.5290   29.0760   44.9840 C   0  0  0  0  0  0  0  0  0  0  0  0
   55.1470   28.9730   44.8730 O   0  0  0  0  0  0  0  0  0  0  0  0
   55.3440   26.5280   45.9910 N   0  0  0  0  0  0  0  0  0  0  0  0
   55.1210   25.2780   46.3650 N   0  0  0  0  0  0  0  0  0  0  0  0
   55.4210   21.4130   47.3750 H   0  0  0  0  0  0  0  0  0  0  0  0
   54.3290   22.7590   46.9270 H   0  0  0  0  0  0  0  0  0  0  0  0
   58.4113   25.3473   46.2168 H   0  0  0  0  0  0  0  0  0  0  0  0
   59.3238   27.3468   45.9597 H   0  0  0  0  0  0  0  0  0  0  0  0
   60.3946   29.4894   45.2790 H   0  0  0  0  0  0  0  0  0  0  0  0
   59.0038   31.3680   44.4107 H   0  0  0  0  0  0  0  0  0  0  0  0
   56.5330   31.1038   44.2192 H   0  0  0  0  0  0  0  0  0  0  0  0
  1  2  1  0
  2  3  2  0
  2  4  1  0
  4  5  1  0
  5  6  2  0
  6  7  1  0
  7  8  2  0
  8  9  1  0
  9 10  2  0
 10 11  1  0
 11 12  2  0
 12 13  1  0
  6 14  1  0
 14 15  1  0
 15  4  2  0
 12  7  1  0
  1 16  1  0
  1 17  1  0
  5 18  1  0
  8 19  1  0
  9 20  1  0
 10 21  1  0
 11 22  1  0
M  CHG  2  13  -1  14  -1
M  END
>  <UniqueID>  (15) 
13

>  <SMILES>  (15) 
NC(=O)c1cc(-c2ccccc2[O-])[n-]n1

>  <Energy>  (15) 
53.59981749515736

>  <Genealogy>  (15) 
NC(=O)c1cc(-c2ccccc2[O-])[n-]n1 (protonated)
NC(=O)c1cc(-c2ccccc2[O-])[n-]n1 (3D coordinates assigned)
NC(=O)c1cc(-c2ccccc2[O-])[n-]n1 (optimized conformer: 53.59981749515736 kcal/mol)

>  <smiles>  (15) 
NC(=O)c1cc(-c2ccccc2O)[nH]n1

>  <score_type>  (15) 
oracle

>  <origin>  (15) 
adg

>  <m_score__min__energy>  (15) 
-12.69

>  <m_primary>  (15) 
energy

$$$$
15:0
     RDKit          3D

 37 38  0  0  0  0  0  0  0  0999 V2000
   55.0150   26.0460   45.9840 N   0  0  0  0  0  0  0  0  0  0  0  0
   55.9100   24.9560   46.3520 C   0  0  0  0  0  0  0  0  0  0  0  0
   57.2630   25.5010   46.6870 C   0  0  0  0  0  0  0  0  0  0  0  0
   58.2720   24.7470   46.6180 O   0  0  0  0  0  0  0  0  0  0  0  0
   57.4010   26.8600   47.1260 N   0  0  0  0  0  0  0  0  0  0  0  0
   58.6870   27.4250   47.5260 C   0  0  0  0  0  0  0  0  0  0  0  0
   59.2920   28.1810   46.3810 C   0  0  0  0  0  0  0  0  0  0  0  0
   60.5800   28.1800   46.1160 O   0  0  0  0  0  0  0  0  0  0  0  0
   60.7880   28.8740   45.0190 C   0  0  0  0  0  0  0  0  0  0  0  0
   59.5890   29.3540   44.5320 C   0  0  0  0  0  0  0  0  0  0  0  0
   58.6270   28.9270   45.4220 C   0  0  0  0  0  0  0  0  0  0  0  0
   57.1810   29.1640   45.3030 C   0  0  0  0  0  0  0  0  0  0  0  0
   56.4010   28.1780   45.2390 O   0  0  0  0  0  0  0  0  0  0  0  0
   56.6380   30.4870   45.2320 N   0  0  0  0  0  0  0  0  0  0  0  0
   57.1380   31.5280   44.3420 C   0  0  0  0  0  0  0  0  0  0  0  0
   57.8900   32.5480   45.1450 C   0  0  0  0  0  0  0  0  0  0  0  0
   58.0380   32.3860   46.5320 C   0  0  0  0  0  0  0  0  0  0  0  0
   58.7090   33.3550   47.2860 C   0  0  0  0  0  0  0  0  0  0  0  0
   59.2250   34.4930   46.6620 C   0  0  0  0  0  0  0  0  0  0  0  0
   59.0690   34.6690   45.2850 C   0  0  0  0  0  0  0  0  0  0  0  0
   58.3980   33.7030   44.5270 C   0  0  0  0  0  0  0  0  0  0  0  0
   55.2480   26.3460   45.0090 H   0  0  0  0  0  0  0  0  0  0  0  0
   55.2320   26.8590   46.6050 H   0  0  0  0  0  0  0  0  0  0  0  0
   55.5022   24.4284   47.2268 H   0  0  0  0  0  0  0  0  0  0  0  0
   55.9991   24.2584   45.5062 H   0  0  0  0  0  0  0  0  0  0  0  0
   56.5550   27.4710   47.1600 H   0  0  0  0  0  0  0  0  0  0  0  0
   58.5368   28.1081   48.3750 H   0  0  0  0  0  0  0  0  0  0  0  0
   59.3647   26.6097   47.8193 H   0  0  0  0  0  0  0  0  0  0  0  0
   61.7716   29.0465   44.5577 H   0  0  0  0  0  0  0  0  0  0  0  0
   59.4335   29.9529   43.6225 H   0  0  0  0  0  0  0  0  0  0  0  0
   57.8097   31.0808   43.5945 H   0  0  0  0  0  0  0  0  0  0  0  0
   56.2933   32.0120   43.8300 H   0  0  0  0  0  0  0  0  0  0  0  0
   57.6252   31.4947   47.0272 H   0  0  0  0  0  0  0  0  0  0  0  0
   58.8302   33.2204   48.3710 H   0  0  0  0  0  0  0  0  0  0  0  0
   59.7552   35.2521   47.2559 H   0  0  0  0  0  0  0  0  0  0  0  0
   59.4739   35.5675   44.7963 H   0  0  0  0  0  0  0  0  0  0  0  0
   58.2679   33.8483   43.4444 H   0  0  0  0  0  0  0  0  0  0  0  0
  1  2  1  0
  2  3  1  0
  3  4  2  0
  3  5  1  0
  5  6  1  0
  6  7  1  0
  7  8  1  0
  8  9  1  0
  9 10  2  0
 10 11  1  0
 11 12  1  0
 12 13  2  0
 12 14  1  0
 14 15  1  0
 15 16  1  0
 16 17  2  0
 17 18  1  0
 18 19  2  0
 19 20  1  0
 20 21  2  0
 11  7  2  0
 21 16  1  0
  1 22  1  0
  1 23  1  0
  2 24  1  0
  2 25  1  0
  5 26  1  0
  6 27  1  0
  6 28  1  0
  9 29  1  0
 10 30  1  0
 15 31  1  0
 15 32  1  0
 17 33  1  0
 18 34  1  0
 19 35  1  0
 20 36  1  0
 21 37  1  0
M  CHG  1  14  -1
M  END
>  <UniqueID>  (16) 
14

>  <SMILES>  (16) 
NCC(=O)NCc1occc1C(=O)[N-]Cc1ccccc1

>  <Energy>  (16) 
60.86429466832445

>  <Genealogy>  (16) 
NCC(=O)NCc1occc1C(=O)[N-]Cc1ccccc1 (protonated)
NCC(=O)NCc1occc1C(=O)[N-]Cc1ccccc1 (3D coordinates assigned)
NCC(=O)NCc1occc1C(=O)[N-]Cc1ccccc1 (optimized conformer: 60.86429466832445 kcal/mol)

>  <smiles>  (16) 
NCC(=O)NCc1occc1C(=O)NCc1ccccc1

>  <score_type>  (16) 
oracle

>  <origin>  (16) 
adg

>  <m_score__min__energy>  (16) 
-8.6500000000000004

>  <m_primary>  (16) 
energy

$$$$
16:0
     RDKit          3D

 67 71  0  0  1  0  0  0  0  0999 V2000
   56.1020   29.6010   44.3390 C   0  0  0  0  0  0  0  0  0  0  0  0
   56.8850   30.8340   44.0550 C   0  0  0  0  0  0  0  0  0  0  0  0
   57.4220   31.6260   45.0590 C   0  0  0  0  0  0  0  0  0  0  0  0
   58.1410   32.7600   44.7690 C   0  0  0  0  0  0  0  0  0  0  0  0
   58.7060   33.6000   45.7630 N   0  0  0  0  0  0  0  0  0  0  0  0
   59.7740   34.5080   45.3950 C   0  0  0  0  0  0  0  0  0  0  0  0
   61.1350   33.8830   45.7230 C   0  0  0  0  0  0  0  0  0  0  0  0
   61.2930   33.8640   47.1790 C   0  0  0  0  0  0  0  0  0  0  0  0
   62.5820   33.6500   47.5580 N   0  0  0  0  0  0  0  0  0  0  0  0
   62.9550   33.5940   48.8480 C   0  0  0  0  0  0  0  0  0  0  0  0
   64.6460   33.3130   49.3580 S   0  0  0  0  0  0  0  0  0  0  0  0
   64.7780   32.9200   51.1200 C   0  0  0  0  0  0  0  0  0  0  0  0
   63.7010   31.9620   51.5240 C   0  0  0  0  0  0  0  0  0  0  0  0
   62.9320   32.2880   52.6430 C   0  0  0  0  0  0  0  0  0  0  0  0
   61.9160   31.4690   53.0950 C   0  0  0  0  0  0  0  0  0  0  0  0
   61.6450   30.2870   52.4220 C   0  0  0  0  0  0  0  0  0  0  0  0
   62.4150   29.9680   51.3050 C   0  0  0  0  0  0  0  0  0  0  0  0
   63.4340   30.8010   50.8630 C   0  0  0  0  0  0  0  0  0  0  0  0
   62.0440   33.7530   49.8240 N   0  0  0  0  0  0  0  0  0  0  0  0
   60.7720   33.9640   49.4720 C   0  0  0  0  0  0  0  0  0  0  0  0
   59.9070   34.1140   50.4150 N   0  0  0  0  0  0  0  0  0  0  0  0
   59.2500   32.9930   51.0270 C   0  0  0  0  0  0  0  0  0  0  0  0
   58.6050   33.0810   52.2290 C   0  0  0  0  0  0  0  0  0  0  0  0
   58.0060   31.9330   52.7220 C   0  0  0  0  0  0  0  0  0  0  0  0
   58.0560   30.7380   52.0280 C   0  0  0  0  0  0  0  0  0  0  0  0
   57.4040   29.5560   52.5960 C   0  0  0  0  0  0  0  0  0  0  0  0
   58.1520   28.7010   53.4550 N   0  0  0  0  0  0  0  0  0  0  0  0
   56.2040   29.3390   52.3050 O   0  0  0  0  0  0  0  0  0  0  0  0
   58.7110   30.6650   50.8150 C   0  0  0  0  0  0  0  0  0  0  0  0
   59.3150   31.8000   50.3040 C   0  0  0  0  0  0  0  0  0  0  0  0
   60.3310   34.0310   48.1670 C   0  0  0  0  0  0  0  0  0  0  0  0
   58.8900   34.2720   48.1140 C   0  0  0  0  0  0  0  0  0  0  0  0
   58.1420   33.4640   47.0910 C   0  0  0  0  0  0  0  0  0  0  0  0
   58.3040   33.0750   43.4360 C   0  0  0  0  0  0  0  0  0  0  0  0
   57.7720   32.2910   42.4210 C   0  0  0  0  0  0  0  0  0  0  0  0
   57.9510   32.6340   40.9870 C   0  0  0  0  0  0  0  0  0  0  0  0
   57.0750   31.1880   42.7630 N   0  0  0  0  0  0  0  0  0  0  0  0
   56.0152   29.4643   45.4270 H   0  0  0  0  0  0  0  0  0  0  0  0
   55.0978   29.6951   43.9000 H   0  0  0  0  0  0  0  0  0  0  0  0
   56.6142   28.7321   43.9000 H   0  0  0  0  0  0  0  0  0  0  0  0
   57.2689   31.3399   46.1101 H   0  0  0  0  0  0  0  0  0  0  0  0
   59.7195   34.7151   44.3160 H   0  0  0  0  0  0  0  0  0  0  0  0
   59.6619   35.4436   45.9625 H   0  0  0  0  0  0  0  0  0  0  0  0
   61.1770   32.8562   45.3308 H   0  0  0  0  0  0  0  0  0  0  0  0
   61.9428   34.4699   45.2616 H   0  0  0  0  0  0  0  0  0  0  0  0
   63.3490   33.5170   46.8390 H   0  0  0  0  0  0  0  0  0  0  0  0
   65.7600   32.4653   51.3172 H   0  0  0  0  0  0  0  0  0  0  0  0
   64.6667   33.8472   51.7013 H   0  0  0  0  0  0  0  0  0  0  0  0
   63.1416   33.2247   53.1803 H   0  0  0  0  0  0  0  0  0  0  0  0
   61.3274   31.7514   53.9803 H   0  0  0  0  0  0  0  0  0  0  0  0
   60.8414   29.6172   52.7618 H   0  0  0  0  0  0  0  0  0  0  0  0
   62.2106   29.0342   50.7607 H   0  0  0  0  0  0  0  0  0  0  0  0
   64.0262   30.5234   49.9785 H   0  0  0  0  0  0  0  0  0  0  0  0
   58.5630   34.0292   52.7849 H   0  0  0  0  0  0  0  0  0  0  0  0
   57.4791   31.9731   53.6867 H   0  0  0  0  0  0  0  0  0  0  0  0
   58.1550   27.6610   53.3770 H   0  0  0  0  0  0  0  0  0  0  0  0
   58.7540   29.0910   54.2290 H   0  0  0  0  0  0  0  0  0  0  0  0
   58.7522   29.7155   50.2612 H   0  0  0  0  0  0  0  0  0  0  0  0
   59.8408   31.7631   49.3385 H   0  0  0  0  0  0  0  0  0  0  0  0
   58.4698   34.0403   49.1038 H   0  0  0  0  0  0  0  0  0  0  0  0
   58.7678   35.3248   47.8195 H   0  0  0  0  0  0  0  0  0  0  0  0
   58.1766   32.4041   47.3832 H   0  0  0  0  0  0  0  0  0  0  0  0
   57.1081   33.8379   47.0573 H   0  0  0  0  0  0  0  0  0  0  0  0
   58.8741   33.9768   43.1683 H   0  0  0  0  0  0  0  0  0  0  0  0
   58.4584   33.6064   40.9031 H   0  0  0  0  0  0  0  0  0  0  0  0
   58.5598   31.8593   40.4979 H   0  0  0  0  0  0  0  0  0  0  0  0
   56.9673   32.6904   40.4979 H   0  0  0  0  0  0  0  0  0  0  0  0
  1  2  1  0
  2  3  2  0
  3  4  1  0
  4  5  1  0
  5  6  1  0
  6  7  1  0
  7  8  1  0
  8  9  1  0
  9 10  1  0
 10 11  1  0
 11 12  1  0
 12 13  1  0
 13 14  2  0
 14 15  1  0
 15 16  2  0
 16 17  1  0
 17 18  2  0
 10 19  2  0
 19 20  1  0
 20 21  2  0
 21 22  1  0
 22 23  2  0
 23 24  1  0
 24 25  2  0
 25 26  1  0
 26 27  1  0
 26 28  2  0
 25 29  1  0
 29 30  2  0
 20 31  1  0
 31 32  1  0
 32 33  1  0
  4 34  2  0
 34 35  1  0
 35 36  1  0
 35 37  2  0
 37  2  1  0
 33  5  1  0
 31  8  2  0
 18 13  1  0
 30 22  1  0
  1 38  1  0
  1 39  1  0
  1 40  1  0
  3 41  1  0
  6 42  1  0
  6 43  1  0
  7 44  1  0
  7 45  1  0
  9 46  1  0
 12 47  1  0
 12 48  1  0
 14 49  1  0
 15 50  1  0
 16 51  1  0
 17 52  1  0
 18 53  1  0
 23 54  1  0
 24 55  1  0
 27 56  1  0
 27 57  1  0
 29 58  1  0
 30 59  1  0
 32 60  1  0
 32 61  1  0
 33 62  1  0
 33 63  1  0
 34 64  1  0
 36 65  1  0
 36 66  1  0
 36 67  1  0
M  END
>  <smiles>  (17) 
Cc1cc(N2CCc3[nH]c(SCc4ccccc4)nc(=Nc4ccc(C(N)=O)cc4)c3CC2)cc(C)n1

>  <score_type>  (17) 
oracle

>  <origin>  (17) 
adg

>  <m_score__min__energy>  (17) 
-8.5299999999999994

>  <m_primary>  (17) 
energy

$$$$
17:0
     RDKit          3D

 34 35  0  0  1  0  0  0  0  0999 V2000
   58.4190   31.8370   43.3480 O   0  0  0  0  0  0  0  0  0  0  0  0
   57.5070   31.2110   43.9740 C   0  0  0  0  0  0  0  0  0  0  0  0
   56.9100   31.8820   45.0990 N   0  0  0  0  0  0  0  0  0  0  0  0
   57.5900   32.8630   45.6380 C   0  0  0  0  0  0  0  0  0  0  0  0
   57.7240   33.1140   46.9600 N   0  0  0  0  0  0  0  0  0  0  0  0
   58.4790   34.1850   47.1440 N   0  0  0  0  0  0  0  0  0  0  0  0
   58.8170   34.6040   45.9350 N   0  0  0  0  0  0  0  0  0  0  0  0
   58.2940   33.8240   45.0030 N   0  0  0  0  0  0  0  0  0  0  0  0
   57.0450   29.8640   43.6110 C   0  0  2  0  0  0  0  0  0  0  0  0
   55.5560   29.6880   43.7410 C   0  0  0  0  0  0  0  0  0  0  0  0
   55.1530   29.5440   45.0640 O   0  0  0  0  0  0  0  0  0  0  0  0
   57.9480   28.6880   44.6140 S   0  0  0  0  0  0  0  0  0  0  0  0
   57.3400   28.6020   45.9850 O   0  0  0  0  0  0  0  0  0  0  0  0
   58.0020   27.3400   44.0000 O   0  0  0  0  0  0  0  0  0  0  0  0
   59.5790   29.4020   44.8310 C   0  0  0  0  0  0  0  0  0  0  0  0
   59.8890   29.5850   46.2690 C   0  0  0  0  0  0  0  0  0  0  0  0
   60.0750   30.8950   46.7020 C   0  0  0  0  0  0  0  0  0  0  0  0
   60.3680   31.1470   48.0340 C   0  0  0  0  0  0  0  0  0  0  0  0
   60.4660   30.0880   48.8910 C   0  0  0  0  0  0  0  0  0  0  0  0
   60.2830   28.7880   48.4690 C   0  0  0  0  0  0  0  0  0  0  0  0
   59.9960   28.5370   47.1630 C   0  0  0  0  0  0  0  0  0  0  0  0
   59.4170   35.4340   45.6660 H   0  0  0  0  0  0  0  0  0  0  0  0
   58.3860   33.9030   43.9600 H   0  0  0  0  0  0  0  0  0  0  0  0
   57.2487   29.6936   42.5435 H   0  0  0  0  0  0  0  0  0  0  0  0
   55.0573   30.5705   43.3138 H   0  0  0  0  0  0  0  0  0  0  0  0
   55.2786   28.7690   43.2039 H   0  0  0  0  0  0  0  0  0  0  0  0
   55.7840   30.0640   45.6180 H   0  0  0  0  0  0  0  0  0  0  0  0
   60.3279   28.7320   44.3835 H   0  0  0  0  0  0  0  0  0  0  0  0
   59.6006   30.3855   44.3388 H   0  0  0  0  0  0  0  0  0  0  0  0
   59.9898   31.7284   45.9892 H   0  0  0  0  0  0  0  0  0  0  0  0
   60.5180   32.1762   48.3921 H   0  0  0  0  0  0  0  0  0  0  0  0
   60.6978   30.2778   49.9494 H   0  0  0  0  0  0  0  0  0  0  0  0
   60.3687   27.9575   49.1852 H   0  0  0  0  0  0  0  0  0  0  0  0
   59.8495   27.5023   46.8197 H   0  0  0  0  0  0  0  0  0  0  0  0
  1  2  2  0
  2  3  1  0
  3  4  2  3
  4  5  1  0
  5  6  2  0
  6  7  1  0
  7  8  1  0
  2  9  1  0
  9 10  1  0
 10 11  1  0
  9 12  1  0
 12 13  2  0
 12 14  2  0
 12 15  1  0
 15 16  1  0
 16 17  2  0
 17 18  1  0
 18 19  2  0
 19 20  1  0
 20 21  2  0
  8  4  1  0
 21 16  1  0
  7 22  1  0
  8 23  1  0
  9 24  1  6
 10 25  1  0
 10 26  1  0
 11 27  1  0
 15 28  1  0
 15 29  1  0
 17 30  1  0
 18 31  1  0
 19 32  1  0
 20 33  1  0
 21 34  1  0
M  END
>  <smiles>  (18) 
O=C(N=c1nn[nH][nH]1)C(CO)S(=O)(=O)Cc1ccccc1

>  <score_type>  (18) 
oracle

>  <origin>  (18) 
adg

>  <m_score__min__energy>  (18) 
-7.7599999999999998

>  <m_primary>  (18) 
energy

$$$$
18:0
     RDKit          3D

 51 54  0  0  0  0  0  0  0  0999 V2000
   59.4290   30.6680   48.0760 C   0  0  0  0  0  0  0  0  0  0  0  0
   58.4130   31.6410   47.8570 O   0  0  0  0  0  0  0  0  0  0  0  0
   58.4900   32.6710   46.9060 C   0  0  0  0  0  0  0  0  0  0  0  0
   59.2610   33.8310   47.1200 C   0  0  0  0  0  0  0  0  0  0  0  0
   59.3070   34.8350   46.1490 C   0  0  0  0  0  0  0  0  0  0  0  0
   58.5870   34.6950   44.9610 C   0  0  0  0  0  0  0  0  0  0  0  0
   57.8230   33.5480   44.7370 C   0  0  0  0  0  0  0  0  0  0  0  0
   57.7770   32.5340   45.7020 C   0  0  0  0  0  0  0  0  0  0  0  0
   57.0180   31.3530   45.4430 N   0  0  0  0  0  0  0  0  0  0  0  0
   57.5880   30.1680   44.3180 S   0  0  0  0  0  0  0  0  0  0  0  0
   58.8970   30.6150   43.7310 O   0  0  0  0  0  0  0  0  0  0  0  0
   56.5860   30.0190   43.2080 O   0  0  0  0  0  0  0  0  0  0  0  0
   57.7890   28.6200   45.1370 C   0  0  0  0  0  0  0  0  0  0  0  0
   59.0300   28.2830   45.6920 C   0  0  0  0  0  0  0  0  0  0  0  0
   59.1800   27.0940   46.4100 C   0  0  0  0  0  0  0  0  0  0  0  0
   58.0880   26.2370   46.5840 C   0  0  0  0  0  0  0  0  0  0  0  0
   58.2320   25.0930   47.2930 N   0  0  0  0  0  0  0  0  0  0  0  0
   57.1910   24.2440   47.4890 C   0  0  0  0  0  0  0  0  0  0  0  0
   57.3890   23.1890   48.1490 O   0  0  0  0  0  0  0  0  0  0  0  0
   55.9490   24.5310   46.9730 N   0  0  0  0  0  0  0  0  0  0  0  0
   54.8260   23.5880   47.1580 C   0  0  0  0  0  0  0  0  0  0  0  0
   55.1850   22.1850   46.6470 C   0  0  0  0  0  0  0  0  0  0  0  0
   55.7360   22.2260   45.2460 C   0  0  0  0  0  0  0  0  0  0  0  0
   56.7000   21.2890   44.8350 C   0  0  0  0  0  0  0  0  0  0  0  0
   57.1770   21.3010   43.5210 C   0  0  0  0  0  0  0  0  0  0  0  0
   56.6930   22.2410   42.6080 C   0  0  0  0  0  0  0  0  0  0  0  0
   55.7280   23.1710   43.0070 C   0  0  0  0  0  0  0  0  0  0  0  0
   55.2490   23.1630   44.3200 C   0  0  0  0  0  0  0  0  0  0  0  0
   55.7640   25.6830   46.2470 C   0  0  0  0  0  0  0  0  0  0  0  0
   54.6270   25.9540   45.7670 O   0  0  0  0  0  0  0  0  0  0  0  0
   56.8360   26.5670   46.0330 C   0  0  0  0  0  0  0  0  0  0  0  0
   56.6940   27.7620   45.3060 C   0  0  0  0  0  0  0  0  0  0  0  0
   59.5754   30.5278   49.1572 H   0  0  0  0  0  0  0  0  0  0  0  0
   59.1271   29.7136   47.6200 H   0  0  0  0  0  0  0  0  0  0  0  0
   60.3695   31.0109   47.6200 H   0  0  0  0  0  0  0  0  0  0  0  0
   59.8288   33.9467   48.0550 H   0  0  0  0  0  0  0  0  0  0  0  0
   59.9118   35.7376   46.3211 H   0  0  0  0  0  0  0  0  0  0  0  0
   58.6217   35.4892   44.2007 H   0  0  0  0  0  0  0  0  0  0  0  0
   57.2560   33.4405   43.8006 H   0  0  0  0  0  0  0  0  0  0  0  0
   59.8896   28.9569   45.5621 H   0  0  0  0  0  0  0  0  0  0  0  0
   60.1582   26.8313   46.8392 H   0  0  0  0  0  0  0  0  0  0  0  0
   54.5816   23.5276   48.2288 H   0  0  0  0  0  0  0  0  0  0  0  0
   53.9645   23.9571   46.5822 H   0  0  0  0  0  0  0  0  0  0  0  0
   55.9407   21.7452   47.3144 H   0  0  0  0  0  0  0  0  0  0  0  0
   54.2672   21.5788   46.6366 H   0  0  0  0  0  0  0  0  0  0  0  0
   57.0802   20.5441   45.5495 H   0  0  0  0  0  0  0  0  0  0  0  0
   57.9349   20.5689   43.2054 H   0  0  0  0  0  0  0  0  0  0  0  0
   57.0711   22.2496   41.5750 H   0  0  0  0  0  0  0  0  0  0  0  0
   55.3456   23.9094   42.2870 H   0  0  0  0  0  0  0  0  0  0  0  0
   54.4873   23.8938   44.6295 H   0  0  0  0  0  0  0  0  0  0  0  0
   55.7196   28.0245   44.8682 H   0  0  0  0  0  0  0  0  0  0  0  0
  1  2  1  0
  2  3  1  0
  3  4  2  0
  4  5  1  0
  5  6  2  0
  6  7  1  0
  7  8  2  0
  8  9  1  0
  9 10  1  0
 10 11  2  0
 10 12  2  0
 10 13  1  0
 13 14  2  0
 14 15  1  0
 15 16  2  0
 16 17  1  0
 17 18  1  0
 18 19  2  0
 18 20  1  0
 20 21  1  0
 21 22  1  0
 22 23  1  0
 23 24  2  0
 24 25  1  0
 25 26  2  0
 26 27  1  0
 27 28  2  0
 20 29  1  0
 29 30  2  0
 29 31  1  0
 31 32  2  0
  8  3  1  0
 32 13  1  0
 31 16  1  0
 28 23  1  0
  1 33  1  0
  1 34  1  0
  1 35  1  0
  4 36  1  0
  5 37  1  0
  6 38  1  0
  7 39  1  0
 14 40  1  0
 15 41  1  0
 21 42  1  0
 21 43  1  0
 22 44  1  0
 22 45  1  0
 24 46  1  0
 25 47  1  0
 26 48  1  0
 27 49  1  0
 28 50  1  0
 32 51  1  0
M  CHG  2   9  -1  17  -1
M  END
>  <UniqueID>  (19) 
15

>  <SMILES>  (19) 
COc1ccccc1[N-]S(=O)(=O)c1ccc2[n-]c(=O)n(CCc3ccccc3)c(=O)c2c1

>  <Energy>  (19) 
67.05108412324648

>  <Genealogy>  (19) 
COc1ccccc1[N-]S(=O)(=O)c1ccc2[n-]c(=O)n(CCc3ccccc3)c(=O)c2c1 (protonated)
COc1ccccc1[N-]S(=O)(=O)c1ccc2[n-]c(=O)n(CCc3ccccc3)c(=O)c2c1 (3D coordinates assigned)
COc1ccccc1[N-]S(=O)(=O)c1ccc2[n-]c(=O)n(CCc3ccccc3)c(=O)c2c1 (optimized conformer: 67.05108412324648 kcal/mol)

>  <smiles>  (19) 
COc1ccccc1NS(=O)(=O)c1ccc2[nH]c(=O)n(CCc3ccccc3)c(=O)c2c1

>  <score_type>  (19) 
oracle

>  <origin>  (19) 
adg

>  <m_score__min__energy>  (19) 
-13.68

>  <m_primary>  (19) 
energy

$$$$
19:0
     RDKit          3D

 39 40  0  0  0  0  0  0  0  0999 V2000
   55.1680   29.3160   44.8810 N   0  0  0  0  0  0  0  0  0  0  0  0
   56.6500   30.0880   44.4400 S   0  0  0  0  0  0  0  0  0  0  0  0
   56.8370   30.0030   42.9510 O   0  0  0  0  0  0  0  0  0  0  0  0
   56.6010   31.5360   44.8390 O   0  0  0  0  0  0  0  0  0  0  0  0
   57.9890   29.2900   45.2580 C   0  0  0  0  0  0  0  0  0  0  0  0
   58.4560   28.0500   44.8010 C   0  0  0  0  0  0  0  0  0  0  0  0
   59.5040   27.4080   45.4630 C   0  0  0  0  0  0  0  0  0  0  0  0
   60.0960   28.0000   46.5820 C   0  0  0  0  0  0  0  0  0  0  0  0
   59.6480   29.2510   47.0420 C   0  0  0  0  0  0  0  0  0  0  0  0
   60.2160   29.8680   48.2100 N   0  0  0  0  0  0  0  0  0  0  0  0
   59.4400   30.4110   49.2890 C   0  0  0  0  0  0  0  0  0  0  0  0
   58.2140   30.1380   49.3990 O   0  0  0  0  0  0  0  0  0  0  0  0
   60.0810   31.3110   50.3020 C   0  0  0  0  0  0  0  0  0  0  0  0
   61.4970   31.3010   50.1450 O   0  0  0  0  0  0  0  0  0  0  0  0
   62.1560   31.9160   49.0740 C   0  0  0  0  0  0  0  0  0  0  0  0
   62.9180   31.2540   48.3190 O   0  0  0  0  0  0  0  0  0  0  0  0
   61.9930   33.3870   48.8590 C   0  0  0  0  0  0  0  0  0  0  0  0
   60.8740   33.6420   47.8880 C   0  0  0  0  0  0  0  0  0  0  0  0
   59.5540   33.7780   48.3480 C   0  0  0  0  0  0  0  0  0  0  0  0
   58.5090   33.9810   47.4400 C   0  0  0  0  0  0  0  0  0  0  0  0
   58.7730   34.0430   46.0690 C   0  0  0  0  0  0  0  0  0  0  0  0
   57.4610   34.2970   44.9320 Cl  0  0  0  0  0  0  0  0  0  0  0  0
   60.0840   33.8940   45.6030 C   0  0  0  0  0  0  0  0  0  0  0  0
   61.1310   33.6900   46.5080 C   0  0  0  0  0  0  0  0  0  0  0  0
   58.5770   29.8790   46.3850 C   0  0  0  0  0  0  0  0  0  0  0  0
   55.3890   28.6550   45.6600 H   0  0  0  0  0  0  0  0  0  0  0  0
   57.9956   27.5816   43.9186 H   0  0  0  0  0  0  0  0  0  0  0  0
   59.8649   26.4333   45.1028 H   0  0  0  0  0  0  0  0  0  0  0  0
   60.9156   27.4854   47.1049 H   0  0  0  0  0  0  0  0  0  0  0  0
   61.2560   29.8620   48.3110 H   0  0  0  0  0  0  0  0  0  0  0  0
   59.7077   32.3365   50.1644 H   0  0  0  0  0  0  0  0  0  0  0  0
   59.8298   30.9513   51.3107 H   0  0  0  0  0  0  0  0  0  0  0  0
   61.7608   33.8722   49.8185 H   0  0  0  0  0  0  0  0  0  0  0  0
   62.9276   33.7987   48.4503 H   0  0  0  0  0  0  0  0  0  0  0  0
   59.3410   33.7247   49.4259 H   0  0  0  0  0  0  0  0  0  0  0  0
   57.4776   34.0920   47.8060 H   0  0  0  0  0  0  0  0  0  0  0  0
   60.2915   33.9373   44.5236 H   0  0  0  0  0  0  0  0  0  0  0  0
   62.1594   33.5667   46.1375 H   0  0  0  0  0  0  0  0  0  0  0  0
   58.1968   30.8413   46.7585 H   0  0  0  0  0  0  0  0  0  0  0  0
  1  2  1  0
  2  3  2  0
  2  4  2  0
  2  5  1  0
  5  6  2  0
  6  7  1  0
  7  8  2  0
  8  9  1  0
  9 10  1  0
 10 11  1  0
 11 12  2  0
 11 13  1  0
 13 14  1  0
 14 15  1  0
 15 16  2  0
 15 17  1  0
 17 18  1  0
 18 19  2  0
 19 20  1  0
 20 21  2  0
 21 22  1  0
 21 23  1  0
 23 24  2  0
  9 25  2  0
 25  5  1  0
 24 18  1  0
  1 26  1  0
  6 27  1  0
  7 28  1  0
  8 29  1  0
 10 30  1  0
 13 31  1  0
 13 32  1  0
 17 33  1  0
 17 34  1  0
 19 35  1  0
 20 36  1  0
 23 37  1  0
 24 38  1  0
 25 39  1  0
M  CHG  1   1  -1
M  END
>  <UniqueID>  (20) 
16

>  <SMILES>  (20) 
[NH-]S(=O)(=O)c1cccc(NC(=O)COC(=O)Cc2ccc(Cl)cc2)c1

>  <Energy>  (20) 
37.87038943973653

>  <Genealogy>  (20) 
[NH-]S(=O)(=O)c1cccc(NC(=O)COC(=O)Cc2ccc(Cl)cc2)c1 (protonated)
[NH-]S(=O)(=O)c1cccc(NC(=O)COC(=O)Cc2ccc(Cl)cc2)c1 (3D coordinates assigned)
[NH-]S(=O)(=O)c1cccc(NC(=O)COC(=O)Cc2ccc(Cl)cc2)c1 (optimized conformer: 37.87038943973653 kcal/mol)

>  <smiles>  (20) 
NS(=O)(=O)c1cccc(NC(=O)COC(=O)Cc2ccc(Cl)cc2)c1

>  <score_type>  (20) 
oracle

>  <origin>  (20) 
adg

>  <m_score__min__energy>  (20) 
-11.91

>  <m_primary>  (20) 
energy

$$$$
20:0
     RDKit          3D

 33 34  0  0  0  0  0  0  0  0999 V2000
   60.7360   26.1560   46.3740 C   0  0  0  0  0  0  0  0  0  0  0  0
   59.6950   27.1010   45.8530 C   0  0  0  0  0  0  0  0  0  0  0  0
   60.0710   28.2070   45.0740 C   0  0  0  0  0  0  0  0  0  0  0  0
   59.0980   29.0670   44.5560 C   0  0  0  0  0  0  0  0  0  0  0  0
   57.7390   28.8210   44.7970 C   0  0  0  0  0  0  0  0  0  0  0  0
   56.5110   29.8940   44.1330 S   0  0  0  0  0  0  0  0  0  0  0  0
   55.1430   29.4840   44.6000 O   0  0  0  0  0  0  0  0  0  0  0  0
   56.5580   29.8230   42.6330 O   0  0  0  0  0  0  0  0  0  0  0  0
   56.8120   31.5260   44.6320 N   0  0  0  0  0  0  0  0  0  0  0  0
   57.6450   31.8920   45.7370 C   0  0  0  0  0  0  0  0  0  0  0  0
   57.7810   31.0730   46.6850 O   0  0  0  0  0  0  0  0  0  0  0  0
   58.2850   33.1790   45.7950 N   0  0  0  0  0  0  0  0  0  0  0  0
   59.3500   33.5020   46.7060 C   0  0  0  0  0  0  0  0  0  0  0  0
   59.0370   33.9120   48.0110 C   0  0  0  0  0  0  0  0  0  0  0  0
   60.0540   34.2530   48.9080 C   0  0  0  0  0  0  0  0  0  0  0  0
   61.3900   34.2020   48.5050 C   0  0  0  0  0  0  0  0  0  0  0  0
   61.7120   33.8160   47.2000 C   0  0  0  0  0  0  0  0  0  0  0  0
   63.3900   33.7750   46.6880 Cl  0  0  0  0  0  0  0  0  0  0  0  0
   60.6970   33.4730   46.3000 C   0  0  0  0  0  0  0  0  0  0  0  0
   57.3620   27.7100   45.5640 C   0  0  0  0  0  0  0  0  0  0  0  0
   58.3340   26.8500   46.0830 C   0  0  0  0  0  0  0  0  0  0  0  0
   60.7237   26.1671   47.4739 H   0  0  0  0  0  0  0  0  0  0  0  0
   60.5203   25.1388   46.0152 H   0  0  0  0  0  0  0  0  0  0  0  0
   61.7277   26.4688   46.0152 H   0  0  0  0  0  0  0  0  0  0  0  0
   61.1351   28.3975   44.8705 H   0  0  0  0  0  0  0  0  0  0  0  0
   59.3997   29.9393   43.9576 H   0  0  0  0  0  0  0  0  0  0  0  0
   57.8920   33.9570   45.2220 H   0  0  0  0  0  0  0  0  0  0  0  0
   57.9857   33.9654   48.3301 H   0  0  0  0  0  0  0  0  0  0  0  0
   59.8012   34.5620   49.9330 H   0  0  0  0  0  0  0  0  0  0  0  0
   62.1889   34.4654   49.2138 H   0  0  0  0  0  0  0  0  0  0  0  0
   60.9530   33.1796   45.2712 H   0  0  0  0  0  0  0  0  0  0  0  0
   56.2971   27.5142   45.7582 H   0  0  0  0  0  0  0  0  0  0  0  0
   58.0307   25.9732   46.6739 H   0  0  0  0  0  0  0  0  0  0  0  0
  1  2  1  0
  2  3  2  0
  3  4  1  0
  4  5  2  0
  5  6  1  0
  6  7  2  0
  6  8  2  0
  6  9  1  0
  9 10  1  0
 10 11  2  0
 10 12  1  0
 12 13  1  0
 13 14  2  0
 14 15  1  0
 15 16  2  0
 16 17  1  0
 17 18  1  0
 17 19  2  0
  5 20  1  0
 20 21  2  0
 21  2  1  0
 19 13  1  0
  1 22  1  0
  1 23  1  0
  1 24  1  0
  3 25  1  0
  4 26  1  0
 12 27  1  0
 14 28  1  0
 15 29  1  0
 16 30  1  0
 19 31  1  0
 20 32  1  0
 21 33  1  0
M  CHG  1   9  -1
M  END
>  <UniqueID>  (21) 
17

>  <SMILES>  (21) 
Cc1ccc(S(=O)(=O)[N-]C(=O)Nc2cccc(Cl)c2)cc1

>  <Energy>  (21) 
38.0558916810194

>  <Genealogy>  (21) 
Cc1ccc(S(=O)(=O)[N-]C(=O)Nc2cccc(Cl)c2)cc1 (protonated)
Cc1ccc(S(=O)(=O)[N-]C(=O)Nc2cccc(Cl)c2)cc1 (3D coordinates assigned)
Cc1ccc(S(=O)(=O)[N-]C(=O)Nc2cccc(Cl)c2)cc1 (optimized conformer: 38.0558916810194 kcal/mol)

>  <smiles>  (21) 
Cc1ccc(S(=O)(=O)NC(=O)Nc2cccc(Cl)c2)cc1

>  <score_type>  (21) 
oracle

>  <origin>  (21) 
adg

>  <m_score__min__energy>  (21) 
-9.4100000000000001

>  <m_primary>  (21) 
energy

$$$$
21:0
     RDKit          3D

 60 63  0  0  0  0  0  0  0  0999 V2000
   60.8290   31.2090   48.8240 O   0  0  0  0  0  0  0  0  0  0  0  0
   60.2870   30.7670   47.7740 C   0  0  0  0  0  0  0  0  0  0  0  0
   60.3530   29.3160   47.4760 C   0  0  0  0  0  0  0  0  0  0  0  0
   60.5200   28.9040   46.1410 C   0  0  0  0  0  0  0  0  0  0  0  0
   60.5350   27.5480   45.8090 C   0  0  0  0  0  0  0  0  0  0  0  0
   60.3770   26.5840   46.8050 C   0  0  0  0  0  0  0  0  0  0  0  0
   60.3860   25.2350   46.4730 O   0  0  0  0  0  0  0  0  0  0  0  0
   60.2090   26.9750   48.1360 C   0  0  0  0  0  0  0  0  0  0  0  0
   60.2130   28.3320   48.4870 C   0  0  0  0  0  0  0  0  0  0  0  0
   60.1110   28.6580   49.8410 O   0  0  0  0  0  0  0  0  0  0  0  0
   59.5790   31.7060   46.8660 C   0  0  0  0  0  0  0  0  0  0  0  0
   58.3950   31.2750   46.2400 C   0  0  0  0  0  0  0  0  0  0  0  0
   57.7170   32.0950   45.3340 C   0  0  0  0  0  0  0  0  0  0  0  0
   56.5270   31.5910   44.7150 N   0  0  0  0  0  0  0  0  0  0  0  0
   56.3170   29.9920   44.0710 S   0  0  0  0  0  0  0  0  0  0  0  0
   55.2530   29.2920   44.8650 O   0  0  0  0  0  0  0  0  0  0  0  0
   55.8750   30.0740   42.6370 O   0  0  0  0  0  0  0  0  0  0  0  0
   57.8370   29.0620   44.1990 C   0  0  0  0  0  0  0  0  0  0  0  0
   57.5610   27.6800   44.7190 C   0  0  0  0  0  0  0  0  0  0  0  0
   57.0340   27.4960   46.0080 C   0  0  0  0  0  0  0  0  0  0  0  0
   56.7410   26.2120   46.4730 C   0  0  0  0  0  0  0  0  0  0  0  0
   56.9700   25.1020   45.6560 C   0  0  0  0  0  0  0  0  0  0  0  0
   57.4880   25.2740   44.3710 C   0  0  0  0  0  0  0  0  0  0  0  0
   57.7790   26.5590   43.9000 C   0  0  0  0  0  0  0  0  0  0  0  0
   58.2240   33.3710   45.0510 C   0  0  0  0  0  0  0  0  0  0  0  0
   59.3950   33.8150   45.6650 C   0  0  0  0  0  0  0  0  0  0  0  0
   60.0850   32.9970   46.5780 C   0  0  0  0  0  0  0  0  0  0  0  0
   61.2520   33.4990   47.2630 N   0  0  0  0  0  0  0  0  0  0  0  0
   62.3580   34.1840   46.5910 C   0  0  0  0  0  0  0  0  0  0  0  0
   63.7060   33.6760   47.1120 C   0  0  0  0  0  0  0  0  0  0  0  0
   63.5970   33.2830   48.5610 C   0  0  0  0  0  0  0  0  0  0  0  0
   63.1680   34.2170   49.5200 C   0  0  0  0  0  0  0  0  0  0  0  0
   63.0310   33.8400   50.8590 C   0  0  0  0  0  0  0  0  0  0  0  0
   63.3100   32.5280   51.2500 C   0  0  0  0  0  0  0  0  0  0  0  0
   63.7250   31.5900   50.3010 C   0  0  0  0  0  0  0  0  0  0  0  0
   63.8660   31.9630   48.9610 C   0  0  0  0  0  0  0  0  0  0  0  0
   60.6401   29.6589   45.3499 H   0  0  0  0  0  0  0  0  0  0  0  0
   60.6714   27.2397   44.7619 H   0  0  0  0  0  0  0  0  0  0  0  0
   60.0724   26.2109   48.9154 H   0  0  0  0  0  0  0  0  0  0  0  0
   60.3270   29.5740   50.2080 H   0  0  0  0  0  0  0  0  0  0  0  0
   57.9962   30.2754   46.4676 H   0  0  0  0  0  0  0  0  0  0  0  0
   58.3026   28.9893   43.2051 H   0  0  0  0  0  0  0  0  0  0  0  0
   58.5141   29.5777   44.8959 H   0  0  0  0  0  0  0  0  0  0  0  0
   56.8512   28.3672   46.6542 H   0  0  0  0  0  0  0  0  0  0  0  0
   56.3294   26.0745   47.4838 H   0  0  0  0  0  0  0  0  0  0  0  0
   56.7419   24.0914   46.0256 H   0  0  0  0  0  0  0  0  0  0  0  0
   57.6674   24.3992   43.7287 H   0  0  0  0  0  0  0  0  0  0  0  0
   58.1801   26.6923   42.8844 H   0  0  0  0  0  0  0  0  0  0  0  0
   57.6959   34.0250   44.3415 H   0  0  0  0  0  0  0  0  0  0  0  0
   59.7838   34.8174   45.4324 H   0  0  0  0  0  0  0  0  0  0  0  0
   61.3290   33.3680   48.2950 H   0  0  0  0  0  0  0  0  0  0  0  0
   62.2950   33.9961   45.5090 H   0  0  0  0  0  0  0  0  0  0  0  0
   62.2831   35.2621   46.7961 H   0  0  0  0  0  0  0  0  0  0  0  0
   64.0156   32.8008   46.5219 H   0  0  0  0  0  0  0  0  0  0  0  0
   64.4503   34.4803   47.0166 H   0  0  0  0  0  0  0  0  0  0  0  0
   62.9391   35.2489   49.2154 H   0  0  0  0  0  0  0  0  0  0  0  0
   62.7029   34.5776   51.6062 H   0  0  0  0  0  0  0  0  0  0  0  0
   63.2030   32.2336   52.3044 H   0  0  0  0  0  0  0  0  0  0  0  0
   63.9411   30.5563   50.6088 H   0  0  0  0  0  0  0  0  0  0  0  0
   64.1888   31.2201   48.2167 H   0  0  0  0  0  0  0  0  0  0  0  0
  1  2  2  0
  2  3  1  0
  3  4  2  0
  4  5  1  0
  5  6  2  0
  6  7  1  0
  6  8  1  0
  8  9  2  0
  9 10  1  0
  2 11  1  0
 11 12  2  0
 12 13  1  0
 13 14  1  0
 14 15  1  0
 15 16  2  0
 15 17  2  0
 15 18  1  0
 18 19  1  0
 19 20  2  0
 20 21  1  0
 21 22  2  0
 22 23  1  0
 23 24  2  0
 13 25  2  0
 25 26  1  0
 26 27  2  0
 27 28  1  0
 28 29  1  0
 29 30  1  0
 30 31  1  0
 31 32  2  0
 32 33  1  0
 33 34  2  0
 34 35  1  0
 35 36  2  0
  9  3  1  0
 27 11  1  0
 36 31  1  0
 24 19  1  0
  4 37  1  0
  5 38  1  0
  8 39  1  0
 10 40  1  0
 12 41  1  0
 18 42  1  0
 18 43  1  0
 20 44  1  0
 21 45  1  0
 22 46  1  0
 23 47  1  0
 24 48  1  0
 25 49  1  0
 26 50  1  0
 28 51  1  0
 29 52  1  0
 29 53  1  0
 30 54  1  0
 30 55  1  0
 32 56  1  0
 33 57  1  0
 34 58  1  0
 35 59  1  0
 36 60  1  0
M  CHG  2   7  -1  14  -1
M  END
>  <UniqueID>  (22) 
18

>  <SMILES>  (22) 
O=C(c1ccc([O-])cc1O)c1cc([N-]S(=O)(=O)Cc2ccccc2)ccc1NCCc1ccccc1

>  <Energy>  (22) 
70.84425252802487

>  <Genealogy>  (22) 
O=C(c1ccc([O-])cc1O)c1cc([N-]S(=O)(=O)Cc2ccccc2)ccc1NCCc1ccccc1 (protonated)
O=C(c1ccc([O-])cc1O)c1cc([N-]S(=O)(=O)Cc2ccccc2)ccc1NCCc1ccccc1 (3D coordinates assigned)
O=C(c1ccc([O-])cc1O)c1cc([N-]S(=O)(=O)Cc2ccccc2)ccc1NCCc1ccccc1 (optimized conformer: 70.84425252802487 kcal/mol)

>  <smiles>  (22) 
O=C(c1ccc(O)cc1O)c1cc(NS(=O)(=O)Cc2ccccc2)ccc1NCCc1ccccc1

>  <score_type>  (22) 
oracle

>  <origin>  (22) 
adg

>  <m_score__min__energy>  (22) 
-14.17

>  <m_primary>  (22) 
energy

$$$$
22:0
     RDKit          3D

 46 48  0  0  1  0  0  0  0  0999 V2000
   60.3940   28.8450   47.7130 C   0  0  0  0  0  0  0  0  0  0  0  0
   59.9280   30.2210   47.3630 C   0  0  0  0  0  0  0  0  0  0  0  0
   58.7690   30.3720   46.6940 N   0  0  0  0  0  0  0  0  0  0  0  0
   58.3910   31.6320   46.4000 C   0  0  0  0  0  0  0  0  0  0  0  0
   57.2640   31.7540   45.7500 N   0  0  0  0  0  0  0  0  0  0  0  0
   57.3080   31.7250   44.3220 C   0  0  0  0  0  0  0  0  0  0  0  0
   57.9810   32.7120   43.6310 C   0  0  0  0  0  0  0  0  0  0  0  0
   58.0270   32.6890   42.2520 C   0  0  0  0  0  0  0  0  0  0  0  0
   57.3900   31.6620   41.5740 C   0  0  0  0  0  0  0  0  0  0  0  0
   56.7200   30.6820   42.2860 C   0  0  0  0  0  0  0  0  0  0  0  0
   56.6680   30.6960   43.6650 C   0  0  0  0  0  0  0  0  0  0  0  0
   55.9660   29.6660   44.3830 C   0  0  0  0  0  0  0  0  0  0  0  0
   56.6100   28.9660   45.4410 N   0  0  0  0  0  0  0  0  0  0  0  0
   54.7890   29.3470   44.1180 O   0  0  0  0  0  0  0  0  0  0  0  0
   59.1480   32.7260   46.7660 C   0  0  0  0  0  0  0  0  0  0  0  0
   60.3280   32.5250   47.4510 C   0  0  0  0  0  0  0  0  0  0  0  0
   61.1630   33.5450   47.8650 O   0  0  0  0  0  0  0  0  0  0  0  0
   62.2830   33.4250   48.6410 C   0  0  0  0  0  0  0  0  0  0  0  0
   62.1090   33.5420   50.0240 C   0  0  0  0  0  0  0  0  0  0  0  0
   60.7290   33.7890   50.5770 C   0  0  0  0  0  0  0  0  0  0  0  0
   63.1710   33.4370   50.9000 C   0  0  0  0  0  0  0  0  0  0  0  0
   64.4500   33.2100   50.4110 C   0  0  0  0  0  0  0  0  0  0  0  0
   65.7480   33.0870   51.5590 Cl  0  0  0  0  0  0  0  0  0  0  0  0
   64.6210   33.0940   49.0440 C   0  0  0  0  0  0  0  0  0  0  0  0
   63.5550   33.2010   48.1750 C   0  0  0  0  0  0  0  0  0  0  0  0
   63.7550   33.0730   46.7070 C   0  0  0  0  0  0  0  0  0  0  0  0
   60.7010   31.2600   47.7410 N   0  0  0  0  0  0  0  0  0  0  0  0
   60.4304   28.7374   48.8071 H   0  0  0  0  0  0  0  0  0  0  0  0
   59.6966   28.1042   47.2948 H   0  0  0  0  0  0  0  0  0  0  0  0
   61.3980   28.6804   47.2948 H   0  0  0  0  0  0  0  0  0  0  0  0
   58.4831   33.5208   44.1821 H   0  0  0  0  0  0  0  0  0  0  0  0
   58.5619   33.4750   41.6987 H   0  0  0  0  0  0  0  0  0  0  0  0
   57.4166   31.6257   40.4749 H   0  0  0  0  0  0  0  0  0  0  0  0
   56.2163   29.8716   41.7388 H   0  0  0  0  0  0  0  0  0  0  0  0
   56.7910   29.4850   46.3410 H   0  0  0  0  0  0  0  0  0  0  0  0
   56.9030   27.9640   45.3530 H   0  0  0  0  0  0  0  0  0  0  0  0
   58.8151   33.7439   46.5150 H   0  0  0  0  0  0  0  0  0  0  0  0
   60.7678   33.7820   51.6763 H   0  0  0  0  0  0  0  0  0  0  0  0
   60.3642   34.7667   50.2292 H   0  0  0  0  0  0  0  0  0  0  0  0
   60.0477   32.9985   50.2292 H   0  0  0  0  0  0  0  0  0  0  0  0
   63.0039   33.5330   51.9830 H   0  0  0  0  0  0  0  0  0  0  0  0
   65.6282   32.9126   48.6408 H   0  0  0  0  0  0  0  0  0  0  0  0
   64.6666   32.4896   46.5106 H   0  0  0  0  0  0  0  0  0  0  0  0
   62.8890   32.5609   46.2622 H   0  0  0  0  0  0  0  0  0  0  0  0
   63.8573   34.0739   46.2622 H   0  0  0  0  0  0  0  0  0  0  0  0
   61.5730   31.0810   48.2500 H   0  0  0  0  0  0  0  0  0  0  0  0
  1  2  1  0
  2  3  2  0
  3  4  1  0
  4  5  2  0
  5  6  1  0
  6  7  2  0
  7  8  1  0
  8  9  2  0
  9 10  1  0
 10 11  2  0
 11 12  1  0
 12 13  1  0
 12 14  2  0
  4 15  1  0
 15 16  2  0
 16 17  1  0
 17 18  1  0
 18 19  2  0
 19 20  1  0
 19 21  1  0
 21 22  2  0
 22 23  1  0
 22 24  1  0
 24 25  2  0
 25 26  1  0
 16 27  1  0
 27  2  1  0
 11  6  1  0
 25 18  1  0
  1 28  1  0
  1 29  1  0
  1 30  1  0
  7 31  1  0
  8 32  1  0
  9 33  1  0
 10 34  1  0
 13 35  1  0
 13 36  1  0
 15 37  1  0
 20 38  1  0
 20 39  1  0
 20 40  1  0
 21 41  1  0
 24 42  1  0
 26 43  1  0
 26 44  1  0
 26 45  1  0
 27 46  1  0
M  END
>  <smiles>  (23) 
Cc1nc(=Nc2ccccc2C(N)=O)cc(Oc2c(C)cc(Cl)cc2C)[nH]1

>  <score_type>  (23) 
oracle

>  <origin>  (23) 
adg

>  <m_score__min__energy>  (23) 
-8.8800000000000008

>  <m_primary>  (23) 
energy

$$$$
23:0
     RDKit          3D

 38 40  0  0  0  0  0  0  0  0999 V2000
   56.7248   35.0895   44.3816 H   0  0  0  0  0  0  0  0  0  0  0  0
   57.4390   34.5500   45.0210 C   0  0  0  0  0  0  0  0  0  0  0  0
   58.8120   34.7630   44.8700 C   0  0  0  0  0  0  0  0  0  0  0  0
   59.1775   35.4702   44.1108 H   0  0  0  0  0  0  0  0  0  0  0  0
   59.7220   34.0790   45.6820 C   0  0  0  0  0  0  0  0  0  0  0  0
   60.8015   34.2508   45.5588 H   0  0  0  0  0  0  0  0  0  0  0  0
   59.2640   33.1710   46.6570 C   0  0  0  0  0  0  0  0  0  0  0  0
   60.2200   32.4440   47.5210 C   0  0  0  0  0  0  0  0  0  0  0  0
   60.8180   33.0510   48.4500 O   0  0  0  0  0  0  0  0  0  0  0  0
   60.4080   31.0670   47.3350 O   0  0  0  0  0  0  0  0  0  0  0  0
   60.5120   30.1110   48.3580 C   0  0  0  0  0  0  0  0  0  0  0  0
   61.2230   30.3830   49.5420 C   0  0  0  0  0  0  0  0  0  0  0  0
   61.6725   31.3756   49.6929 H   0  0  0  0  0  0  0  0  0  0  0  0
   61.3620   29.4030   50.5260 C   0  0  0  0  0  0  0  0  0  0  0  0
   61.9112   29.6285   51.4520 H   0  0  0  0  0  0  0  0  0  0  0  0
   60.8060   28.1390   50.3370 C   0  0  0  0  0  0  0  0  0  0  0  0
   60.9157   27.3688   51.1147 H   0  0  0  0  0  0  0  0  0  0  0  0
   60.1100   27.8490   49.1620 C   0  0  0  0  0  0  0  0  0  0  0  0
   59.6822   26.8463   49.0151 H   0  0  0  0  0  0  0  0  0  0  0  0
   59.9510   28.8280   48.1640 C   0  0  0  0  0  0  0  0  0  0  0  0
   59.2080   28.4890   46.9220 C   0  0  0  0  0  0  0  0  0  0  0  0
   60.0020   27.7490   45.6940 S   0  0  0  0  0  0  0  0  0  0  0  0
   57.9880   29.1720   46.6010 N   0  0  0  0  0  0  0  0  0  0  0  0
   57.6490   29.7500   45.4790 C   0  0  0  0  0  0  0  0  0  0  0  0
   56.4290   29.4870   44.8020 C   0  0  0  0  0  0  0  0  0  0  0  0
   55.5240   28.5280   45.2430 O   0  0  0  0  0  0  0  0  0  0  0  0
   56.1390   30.1800   43.6250 C   0  0  0  0  0  0  0  0  0  0  0  0
   55.1848   30.0042   43.1068 H   0  0  0  0  0  0  0  0  0  0  0  0
   57.0520   31.0920   43.1050 C   0  0  0  0  0  0  0  0  0  0  0  0
   56.8229   31.6433   42.1811 H   0  0  0  0  0  0  0  0  0  0  0  0
   58.2600   31.2990   43.7680 C   0  0  0  0  0  0  0  0  0  0  0  0
   58.9955   32.0072   43.3588 H   0  0  0  0  0  0  0  0  0  0  0  0
   58.5330   30.6280   44.9200 N   0  0  0  0  0  0  0  0  0  0  0  0
   59.4460   30.8140   45.3950 H   0  0  0  0  0  0  0  0  0  0  0  0
   57.8800   32.9650   46.8000 C   0  0  0  0  0  0  0  0  0  0  0  0
   57.5079   32.2598   47.5578 H   0  0  0  0  0  0  0  0  0  0  0  0
   56.9740   33.6510   45.9850 C   0  0  0  0  0  0  0  0  0  0  0  0
   55.8933   33.4828   46.1028 H   0  0  0  0  0  0  0  0  0  0  0  0
  1  2  1  0
  2  3  2  0
  3  4  1  0
  3  5  1  0
  5  6  1  0
  5  7  2  0
  7  8  1  0
  8  9  2  0
  8 10  1  0
 10 11  1  0
 11 12  2  0
 12 13  1  0
 12 14  1  0
 14 15  1  0
 14 16  2  0
 16 17  1  0
 16 18  1  0
 18 19  1  0
 18 20  2  0
 20 21  1  0
 21 22  2  0
 21 23  1  0
 23 24  2  0
 24 25  1  0
 25 26  1  0
 25 27  2  0
 27 28  1  0
 27 29  1  0
 29 30  1  0
 29 31  2  0
 31 32  1  0
 31 33  1  0
 33 34  1  0
  7 35  1  0
 35 36  1  0
 35 37  2  0
 37 38  1  0
 37  2  1  0
 20 11  1  0
 33 24  1  0
M  CHG  1  26  -1
M  END
>  <UniqueID>  (24) 
19

>  <SMILES>  (24) 
O=C(Oc1ccccc1C(=S)/N=c1/[nH]cccc1[O-])c1ccccc1

>  <Energy>  (24) 
62.14419688866131

>  <Genealogy>  (24) 
O=C(Oc1ccccc1C(=S)N=c1[nH]cccc1[O-])c1ccccc1 (protonated)
O=C(Oc1ccccc1C(=S)/N=c1/[nH]cccc1[O-])c1ccccc1 (cis-trans isomerization)
O=C(Oc1ccccc1C(=S)/N=c1/[nH]cccc1[O-])c1ccccc1 (3D coordinates assigned)
O=C(Oc1ccccc1C(=S)/N=c1/[nH]cccc1[O-])c1ccccc1 (optimized conformer: 62.14419688866131 kcal/mol)

>  <smiles>  (24) 
O=C(Oc1ccccc1C(=S)N=c1[nH]cccc1O)c1ccccc1

>  <score_type>  (24) 
oracle

>  <origin>  (24) 
adg

>  <m_score__min__energy>  (24) 
-11.81

>  <m_primary>  (24) 
energy

$$$$
24:0
     RDKit          3D

 52 55  0  0  0  0  0  0  0  0999 V2000
   61.1630   26.3310   46.4510 O   0  0  0  0  0  0  0  0  0  0  0  0
   60.2690   26.6500   47.2780 C   0  0  0  0  0  0  0  0  0  0  0  0
   58.8830   26.3820   47.0140 N   0  0  0  0  0  0  0  0  0  0  0  0
   58.2450   26.5440   45.8910 C   0  0  0  0  0  0  0  0  0  0  0  0
   57.9190   27.8610   45.3230 C   0  0  0  0  0  0  0  0  0  0  0  0
   58.9540   28.7080   44.8970 C   0  0  0  0  0  0  0  0  0  0  0  0
   58.6560   29.9620   44.3530 C   0  0  0  0  0  0  0  0  0  0  0  0
   57.3260   30.3730   44.2280 C   0  0  0  0  0  0  0  0  0  0  0  0
   56.2910   29.5310   44.6460 C   0  0  0  0  0  0  0  0  0  0  0  0
   56.5820   28.2740   45.1880 C   0  0  0  0  0  0  0  0  0  0  0  0
   55.5420   27.4410   45.5900 O   0  0  0  0  0  0  0  0  0  0  0  0
   60.6140   27.3480   48.4770 N   0  0  0  0  0  0  0  0  0  0  0  0
   60.0780   28.6070   48.9100 C   0  0  0  0  0  0  0  0  0  0  0  0
   59.3950   29.4690   48.0310 C   0  0  0  0  0  0  0  0  0  0  0  0
   58.9070   30.6970   48.4870 C   0  0  0  0  0  0  0  0  0  0  0  0
   59.1010   31.0800   49.8190 C   0  0  0  0  0  0  0  0  0  0  0  0
   58.4690   32.6520   50.4050 S   0  0  0  0  0  0  0  0  0  0  0  0
   58.0110   31.9790   52.0030 C   0  0  0  0  0  0  0  0  0  0  0  0
   58.5130   32.5570   53.1740 C   0  0  0  0  0  0  0  0  0  0  0  0
   58.1600   32.0300   54.4180 C   0  0  0  0  0  0  0  0  0  0  0  0
   57.3130   30.9210   54.4990 C   0  0  0  0  0  0  0  0  0  0  0  0
   56.8050   30.3280   53.3280 C   0  0  0  0  0  0  0  0  0  0  0  0
   55.9240   29.1390   53.4080 C   0  0  0  0  0  0  0  0  0  0  0  0
   56.3720   28.0030   53.0960 O   0  0  0  0  0  0  0  0  0  0  0  0
   54.5520   29.2850   53.8010 N   0  0  0  0  0  0  0  0  0  0  0  0
   53.5920   30.1800   53.2210 C   0  0  0  0  0  0  0  0  0  0  0  0
   52.5890   30.7140   54.0410 C   0  0  0  0  0  0  0  0  0  0  0  0
   51.6190   31.5680   53.5080 C   0  0  0  0  0  0  0  0  0  0  0  0
   51.6330   31.8800   52.1450 C   0  0  0  0  0  0  0  0  0  0  0  0
   50.6660   32.7250   51.6140 O   0  0  0  0  0  0  0  0  0  0  0  0
   52.6190   31.3390   51.3160 C   0  0  0  0  0  0  0  0  0  0  0  0
   53.5910   30.4840   51.8470 C   0  0  0  0  0  0  0  0  0  0  0  0
   57.1600   30.8720   52.0790 C   0  0  0  0  0  0  0  0  0  0  0  0
   59.8020   30.2390   50.6900 C   0  0  0  0  0  0  0  0  0  0  0  0
   60.2950   29.0120   50.2350 C   0  0  0  0  0  0  0  0  0  0  0  0
   57.9326   25.6469   45.3364 H   0  0  0  0  0  0  0  0  0  0  0  0
   60.0014   28.3852   44.9910 H   0  0  0  0  0  0  0  0  0  0  0  0
   59.4693   30.6252   44.0233 H   0  0  0  0  0  0  0  0  0  0  0  0
   57.0934   31.3595   43.8005 H   0  0  0  0  0  0  0  0  0  0  0  0
   55.2451   29.8575   44.5486 H   0  0  0  0  0  0  0  0  0  0  0  0
   59.2448   29.1751   46.9817 H   0  0  0  0  0  0  0  0  0  0  0  0
   58.3692   31.3640   47.7971 H   0  0  0  0  0  0  0  0  0  0  0  0
   59.1851   33.4258   53.1148 H   0  0  0  0  0  0  0  0  0  0  0  0
   58.5501   32.4895   55.3381 H   0  0  0  0  0  0  0  0  0  0  0  0
   57.0422   30.5098   55.4826 H   0  0  0  0  0  0  0  0  0  0  0  0
   52.5647   30.4596   55.1109 H   0  0  0  0  0  0  0  0  0  0  0  0
   50.8440   31.9950   54.1615 H   0  0  0  0  0  0  0  0  0  0  0  0
   52.6311   31.5857   50.2441 H   0  0  0  0  0  0  0  0  0  0  0  0
   54.3567   30.0481   51.1884 H   0  0  0  0  0  0  0  0  0  0  0  0
   56.7649   30.4228   51.1559 H   0  0  0  0  0  0  0  0  0  0  0  0
   59.9656   30.5434   51.7343 H   0  0  0  0  0  0  0  0  0  0  0  0
   60.8565   28.3604   50.9207 H   0  0  0  0  0  0  0  0  0  0  0  0
  1  2  2  0
  2  3  1  0
  3  4  2  3
  4  5  1  0
  5  6  2  0
  6  7  1  0
  7  8  2  0
  8  9  1  0
  9 10  2  0
 10 11  1  0
  2 12  1  0
 12 13  1  0
 13 14  2  0
 14 15  1  0
 15 16  2  0
 16 17  1  0
 17 18  1  0
 18 19  2  0
 19 20  1  0
 20 21  2  0
 21 22  1  0
 22 23  1  0
 23 24  2  0
 23 25  1  0
 25 26  1  0
 26 27  2  0
 27 28  1  0
 28 29  2  0
 29 30  1  0
 29 31  1  0
 31 32  2  0
 22 33  2  0
 16 34  1  0
 34 35  2  0
 10  5  1  0
 35 13  1  0
 33 18  1  0
 32 26  1  0
  4 36  1  0
  6 37  1  0
  7 38  1  0
  8 39  1  0
  9 40  1  0
 14 41  1  0
 15 42  1  0
 19 43  1  0
 20 44  1  0
 21 45  1  0
 27 46  1  0
 28 47  1  0
 31 48  1  0
 32 49  1  0
 33 50  1  0
 34 51  1  0
 35 52  1  0
M  CHG  4  11  -1  12  -1  25  -1  30  -1
M  END
>  <UniqueID>  (25) 
20

>  <SMILES>  (25) 
O=C(N=Cc1ccccc1[O-])[N-]c1ccc(Sc2cccc(C(=O)[N-]c3ccc([O-])cc3)c2)cc1

>  <Energy>  (25) 
71.62576833428383

>  <Genealogy>  (25) 
O=C(N=Cc1ccccc1[O-])[N-]c1ccc(Sc2cccc(C(=O)[N-]c3ccc([O-])cc3)c2)cc1 (protonated)
O=C(N=Cc1ccccc1[O-])[N-]c1ccc(Sc2cccc(C(=O)[N-]c3ccc([O-])cc3)c2)cc1 (3D coordinates assigned)
O=C(N=Cc1ccccc1[O-])[N-]c1ccc(Sc2cccc(C(=O)[N-]c3ccc([O-])cc3)c2)cc1 (optimized conformer: 71.62576833428383 kcal/mol)

>  <smiles>  (25) 
O=C(N=Cc1ccccc1O)Nc1ccc(Sc2cccc(C(=O)Nc3ccc(O)cc3)c2)cc1

>  <score_type>  (25) 
oracle

>  <origin>  (25) 
adg

>  <m_score__min__energy>  (25) 
-20.350000000000001

>  <m_primary>  (25) 
energy

$$$$
25:0
     RDKit          3D

 33 35  0  0  0  0  0  0  0  0999 V2000
   56.2460   21.7430   47.4000 H   0  0  0  0  0  0  0  0  0  0  0  0
   56.9950   22.4240   47.4610 O   0  0  0  0  0  0  0  0  0  0  0  0
   56.8040   23.7350   47.0420 C   0  0  0  0  0  0  0  0  0  0  0  0
   55.5900   24.2520   46.7720 N   0  0  0  0  0  0  0  0  0  0  0  0
   55.8350   25.5230   46.4030 C   0  0  0  0  0  0  0  0  0  0  0  0
   54.8290   26.3970   46.0100 O   0  0  0  0  0  0  0  0  0  0  0  0
   57.1880   25.8180   46.4430 C   0  0  0  0  0  0  0  0  0  0  0  0
   57.8610   27.0910   46.0970 C   0  0  0  0  0  0  0  0  0  0  0  0
   57.6560   27.5930   44.9090 N   0  0  0  0  0  0  0  0  0  0  0  0
   57.5580   28.9860   44.5790 C   0  0  0  0  0  0  0  0  0  0  0  0
   58.7330   29.7150   44.3520 C   0  0  0  0  0  0  0  0  0  0  0  0
   59.7100   29.2149   44.4253 H   0  0  0  0  0  0  0  0  0  0  0  0
   58.6700   31.0740   44.0330 C   0  0  0  0  0  0  0  0  0  0  0  0
   59.5952   31.6371   43.8408 H   0  0  0  0  0  0  0  0  0  0  0  0
   57.4320   31.7180   43.9580 C   0  0  0  0  0  0  0  0  0  0  0  0
   57.3828   32.7851   43.6955 H   0  0  0  0  0  0  0  0  0  0  0  0
   56.2570   31.0080   44.2160 C   0  0  0  0  0  0  0  0  0  0  0  0
   55.2844   31.5192   44.1636 H   0  0  0  0  0  0  0  0  0  0  0  0
   56.3140   29.6480   44.5410 C   0  0  0  0  0  0  0  0  0  0  0  0
   55.1400   28.9690   44.8460 O   0  0  0  0  0  0  0  0  0  0  0  0
   58.7050   27.7830   47.1010 C   0  0  0  0  0  0  0  0  0  0  0  0
   58.4090   29.1020   47.4850 C   0  0  0  0  0  0  0  0  0  0  0  0
   57.5527   29.6249   47.0342 H   0  0  0  0  0  0  0  0  0  0  0  0
   59.1990   29.7520   48.4380 C   0  0  0  0  0  0  0  0  0  0  0  0
   58.9615   30.7838   48.7363 H   0  0  0  0  0  0  0  0  0  0  0  0
   60.2890   29.0940   49.0120 C   0  0  0  0  0  0  0  0  0  0  0  0
   60.9080   29.6067   49.7630 H   0  0  0  0  0  0  0  0  0  0  0  0
   60.5930   27.7840   48.6320 C   0  0  0  0  0  0  0  0  0  0  0  0
   61.4529   27.2672   49.0832 H   0  0  0  0  0  0  0  0  0  0  0  0
   59.8070   27.1290   47.6800 C   0  0  0  0  0  0  0  0  0  0  0  0
   60.0512   26.0985   47.3826 H   0  0  0  0  0  0  0  0  0  0  0  0
   57.8150   24.6560   46.8470 C   0  0  0  0  0  0  0  0  0  0  0  0
   58.8947   24.4968   46.9849 H   0  0  0  0  0  0  0  0  0  0  0  0
  1  2  1  0
  2  3  1  0
  3  4  1  0
  4  5  1  0
  5  6  1  0
  5  7  2  0
  7  8  1  0
  8  9  2  0
  9 10  1  0
 10 11  2  0
 11 12  1  0
 11 13  1  0
 13 14  1  0
 13 15  2  0
 15 16  1  0
 15 17  1  0
 17 18  1  0
 17 19  2  0
 19 20  1  0
  8 21  1  0
 21 22  2  0
 22 23  1  0
 22 24  1  0
 24 25  1  0
 24 26  2  0
 26 27  1  0
 26 28  1  0
 28 29  1  0
 28 30  2  0
 30 31  1  0
  7 32  1  0
 32 33  1  0
 32  3  2  0
 19 10  1  0
 30 21  1  0
M  CHG  3   4  -1   6  -1  20  -1
M  END
>  <UniqueID>  (26) 
21

>  <SMILES>  (26) 
[O-]c1ccccc1/N=C(\c1ccccc1)c1cc(O)[n-]c1[O-]

>  <Energy>  (26) 
76.0737067639005

>  <Genealogy>  (26) 
[O-]c1ccccc1N=C(c1ccccc1)c1cc(O)[n-]c1[O-] (protonated)
[O-]c1ccccc1/N=C(\c1ccccc1)c1cc(O)[n-]c1[O-] (cis-trans isomerization)
[O-]c1ccccc1/N=C(\c1ccccc1)c1cc(O)[n-]c1[O-] (3D coordinates assigned)
[O-]c1ccccc1/N=C(\c1ccccc1)c1cc(O)[n-]c1[O-] (optimized conformer: 76.0737067639005 kcal/mol)

>  <smiles>  (26) 
Oc1cc(C(=Nc2ccccc2O)c2ccccc2)c(O)[nH]1

>  <score_type>  (26) 
oracle

>  <origin>  (26) 
adg

>  <m_score__min__energy>  (26) 
-16.670000000000002

>  <m_primary>  (26) 
energy

$$$$
26:0
     RDKit          3D

 37 39  0  0  0  0  0  0  0  0999 V2000
   54.5990   27.0860   46.7020 H   0  0  0  0  0  0  0  0  0  0  0  0
   55.2230   26.6420   45.9930 N   0  0  0  0  0  0  0  0  0  0  0  0
   56.5160   27.1770   45.7170 C   0  0  0  0  0  0  0  0  0  0  0  0
   57.5360   26.4520   45.8620 O   0  0  0  0  0  0  0  0  0  0  0  0
   56.6540   28.5660   45.2680 C   0  0  0  0  0  0  0  0  0  0  0  0
   55.6100   29.3340   44.8830 N   0  0  0  0  0  0  0  0  0  0  0  0
   55.9680   30.5630   44.5140 N   0  0  0  0  0  0  0  0  0  0  0  0
   57.3000   30.7730   44.6050 C   0  0  0  0  0  0  0  0  0  0  0  0
   57.8930   31.8890   44.3020 N   0  0  0  0  0  0  0  0  0  0  0  0
   57.7650   33.1380   45.0030 C   0  0  0  0  0  0  0  0  0  0  0  0
   57.1680   34.1130   44.4690 O   0  0  0  0  0  0  0  0  0  0  0  0
   58.3380   33.2830   46.3630 C   0  0  0  0  0  0  0  0  0  0  0  0
   59.0460   34.4430   46.7230 C   0  0  0  0  0  0  0  0  0  0  0  0
   59.1752   35.2521   45.9891 H   0  0  0  0  0  0  0  0  0  0  0  0
   59.5870   34.5780   48.0040 C   0  0  0  0  0  0  0  0  0  0  0  0
   60.1334   35.4939   48.2735 H   0  0  0  0  0  0  0  0  0  0  0  0
   59.4370   33.5520   48.9480 C   0  0  0  0  0  0  0  0  0  0  0  0
   60.0140   33.7070   50.3310 C   0  0  0  0  0  0  0  0  0  0  0  0
   59.8950   34.7511   50.6562 H   0  0  0  0  0  0  0  0  0  0  0  0
   59.4798   33.0294   51.0133 H   0  0  0  0  0  0  0  0  0  0  0  0
   61.4020   33.3680   50.3440 O   0  0  0  0  0  0  0  0  0  0  0  0
   62.1990   33.1670   49.2040 C   0  0  0  0  0  0  0  0  0  0  0  0
   62.9770   34.1940   48.6320 C   0  0  0  0  0  0  0  0  0  0  0  0
   62.9705   35.1997   49.0775 H   0  0  0  0  0  0  0  0  0  0  0  0
   63.7570   33.9380   47.5000 C   0  0  0  0  0  0  0  0  0  0  0  0
   64.3651   34.7419   47.0596 H   0  0  0  0  0  0  0  0  0  0  0  0
   63.7660   32.6640   46.9270 C   0  0  0  0  0  0  0  0  0  0  0  0
   64.3808   32.4648   46.0369 H   0  0  0  0  0  0  0  0  0  0  0  0
   62.9930   31.6430   47.4860 C   0  0  0  0  0  0  0  0  0  0  0  0
   62.9986   30.6400   47.0343 H   0  0  0  0  0  0  0  0  0  0  0  0
   62.2120   31.8940   48.6190 C   0  0  0  0  0  0  0  0  0  0  0  0
   61.4680   30.8930   49.1530 F   0  0  0  0  0  0  0  0  0  0  0  0
   58.7200   32.3980   48.6000 C   0  0  0  0  0  0  0  0  0  0  0  0
   58.5833   31.5950   49.3392 H   0  0  0  0  0  0  0  0  0  0  0  0
   58.1780   32.2630   47.3180 C   0  0  0  0  0  0  0  0  0  0  0  0
   57.6218   31.3513   47.0543 H   0  0  0  0  0  0  0  0  0  0  0  0
   58.1130   29.4100   45.1620 S   0  0  0  0  0  0  0  0  0  0  0  0
  1  2  1  0
  2  3  1  0
  3  4  2  0
  3  5  1  0
  5  6  2  0
  6  7  1  0
  7  8  1  0
  8  9  2  0
  9 10  1  0
 10 11  2  0
 10 12  1  0
 12 13  2  0
 13 14  1  0
 13 15  1  0
 15 16  1  0
 15 17  2  0
 17 18  1  0
 18 19  1  0
 18 20  1  0
 18 21  1  0
 21 22  1  0
 22 23  2  0
 23 24  1  0
 23 25  1  0
 25 26  1  0
 25 27  2  0
 27 28  1  0
 27 29  1  0
 29 30  1  0
 29 31  2  0
 31 32  1  0
 17 33  1  0
 33 34  1  0
 33 35  2  0
 35 36  1  0
  8 37  1  0
 37  5  1  0
 35 12  1  0
 31 22  1  0
M  CHG  2   2  -1   7  -1
M  END
>  <UniqueID>  (27) 
22

>  <SMILES>  (27) 
[NH-]C(=O)c1n[n-]/c(=N\C(=O)c2ccc(COc3ccccc3F)cc2)s1

>  <Energy>  (27) 
75.03184014919724

>  <Genealogy>  (27) 
[NH-]C(=O)c1n[n-]c(=NC(=O)c2ccc(COc3ccccc3F)cc2)s1 (protonated)
[NH-]C(=O)c1n[n-]/c(=N\C(=O)c2ccc(COc3ccccc3F)cc2)s1 (cis-trans isomerization)
[NH-]C(=O)c1n[n-]/c(=N\C(=O)c2ccc(COc3ccccc3F)cc2)s1 (3D coordinates assigned)
[NH-]C(=O)c1n[n-]/c(=N\C(=O)c2ccc(COc3ccccc3F)cc2)s1 (optimized conformer: 75.03184014919724 kcal/mol)

>  <smiles>  (27) 
NC(=O)c1n[nH]c(=NC(=O)c2ccc(COc3ccccc3F)cc2)s1

>  <score_type>  (27) 
oracle

>  <origin>  (27) 
adg

>  <m_score__min__energy>  (27) 
-13.140000000000001

>  <m_primary>  (27) 
energy

$$$$
27:0
     RDKit          3D

 50 52  0  0  0  0  0  0  0  0999 V2000
   63.4970   32.1940   47.0780 C   0  0  0  0  0  0  0  0  0  0  0  0
   62.7740   32.9180   48.1690 C   0  0  0  0  0  0  0  0  0  0  0  0
   62.9610   34.1560   48.3020 O   0  0  0  0  0  0  0  0  0  0  0  0
   61.8190   32.2360   49.0670 C   0  0  0  0  0  0  0  0  0  0  0  0
   61.9360   30.9190   49.4690 C   0  0  0  0  0  0  0  0  0  0  0  0
   60.8860   30.6260   50.2600 N   0  0  0  0  0  0  0  0  0  0  0  0
   60.5790   29.3310   50.8640 C   0  0  0  0  0  0  0  0  0  0  0  0
   60.6120   28.2430   49.8240 C   0  0  0  0  0  0  0  0  0  0  0  0
   61.3070   27.2170   50.0610 O   0  0  0  0  0  0  0  0  0  0  0  0
   59.8330   28.3230   48.5560 C   0  0  0  0  0  0  0  0  0  0  0  0
   59.0200   29.4340   48.2580 C   0  0  0  0  0  0  0  0  0  0  0  0
   58.2910   29.4850   47.0660 C   0  0  0  0  0  0  0  0  0  0  0  0
   58.3630   28.4290   46.1430 C   0  0  0  0  0  0  0  0  0  0  0  0
   57.6350   28.4390   44.9080 N   0  0  0  0  0  0  0  0  0  0  0  0
   56.5340   29.6730   44.3870 S   0  0  0  0  0  0  0  0  0  0  0  0
   56.4350   29.6970   42.6100 C   0  0  0  0  0  0  0  0  0  0  0  0
   55.1700   29.3680   44.9410 O   0  0  0  0  0  0  0  0  0  0  0  0
   56.9770   31.0120   44.9070 O   0  0  0  0  0  0  0  0  0  0  0  0
   59.1710   27.3260   46.4340 C   0  0  0  0  0  0  0  0  0  0  0  0
   59.9000   27.2710   47.6250 C   0  0  0  0  0  0  0  0  0  0  0  0
   60.1310   31.7400   50.3080 C   0  0  0  0  0  0  0  0  0  0  0  0
   60.6770   32.7470   49.5940 N   0  0  0  0  0  0  0  0  0  0  0  0
   60.0230   34.0330   49.3260 C   0  0  0  0  0  0  0  0  0  0  0  0
   59.3530   34.0380   47.9720 C   0  0  0  0  0  0  0  0  0  0  0  0
   59.8850   34.7910   46.9090 C   0  0  0  0  0  0  0  0  0  0  0  0
   59.2760   34.7620   45.6510 C   0  0  0  0  0  0  0  0  0  0  0  0
   58.1450   33.9700   45.4360 C   0  0  0  0  0  0  0  0  0  0  0  0
   57.5580   33.9440   44.2150 F   0  0  0  0  0  0  0  0  0  0  0  0
   57.6280   33.1970   46.4780 C   0  0  0  0  0  0  0  0  0  0  0  0
   58.2340   33.2210   47.7390 C   0  0  0  0  0  0  0  0  0  0  0  0
   64.2088   31.4812   47.5200 H   0  0  0  0  0  0  0  0  0  0  0  0
   62.7715   31.6495   46.4558 H   0  0  0  0  0  0  0  0  0  0  0  0
   64.0425   32.9188   46.4558 H   0  0  0  0  0  0  0  0  0  0  0  0
   62.7465   30.2293   49.1910 H   0  0  0  0  0  0  0  0  0  0  0  0
   61.3231   29.1095   51.6433 H   0  0  0  0  0  0  0  0  0  0  0  0
   59.5712   29.3731   51.3029 H   0  0  0  0  0  0  0  0  0  0  0  0
   58.9580   30.2699   48.9703 H   0  0  0  0  0  0  0  0  0  0  0  0
   57.6572   30.3576   46.8498 H   0  0  0  0  0  0  0  0  0  0  0  0
   55.4084   29.9459   42.3033 H   0  0  0  0  0  0  0  0  0  0  0  0
   57.1293   30.4528   42.2143 H   0  0  0  0  0  0  0  0  0  0  0  0
   56.7061   28.7071   42.2143 H   0  0  0  0  0  0  0  0  0  0  0  0
   59.2336   26.4930   45.7183 H   0  0  0  0  0  0  0  0  0  0  0  0
   60.5325   26.3962   47.8364 H   0  0  0  0  0  0  0  0  0  0  0  0
   59.1840   31.8197   50.8620 H   0  0  0  0  0  0  0  0  0  0  0  0
   59.2649   34.2176   50.1013 H   0  0  0  0  0  0  0  0  0  0  0  0
   60.7906   34.8209   49.3358 H   0  0  0  0  0  0  0  0  0  0  0  0
   60.7837   35.4049   47.0685 H   0  0  0  0  0  0  0  0  0  0  0  0
   59.6883   35.3643   44.8281 H   0  0  0  0  0  0  0  0  0  0  0  0
   56.7421   32.5677   46.3069 H   0  0  0  0  0  0  0  0  0  0  0  0
   57.8325   32.5975   48.5514 H   0  0  0  0  0  0  0  0  0  0  0  0
  1  2  1  0
  2  3  2  0
  2  4  1  0
  4  5  2  0
  5  6  1  0
  6  7  1  0
  7  8  1  0
  8  9  2  0
  8 10  1  0
 10 11  2  0
 11 12  1  0
 12 13  2  0
 13 14  1  0
 14 15  1  0
 15 16  1  0
 15 17  2  0
 15 18  2  0
 13 19  1  0
 19 20  2  0
  6 21  1  0
 21 22  2  0
 22 23  1  0
 23 24  1  0
 24 25  2  0
 25 26  1  0
 26 27  2  0
 27 28  1  0
 27 29  1  0
 29 30  2  0
 22  4  1  0
 30 24  1  0
 20 10  1  0
  1 31  1  0
  1 32  1  0
  1 33  1  0
  5 34  1  0
  7 35  1  0
  7 36  1  0
 11 37  1  0
 12 38  1  0
 16 39  1  0
 16 40  1  0
 16 41  1  0
 19 42  1  0
 20 43  1  0
 21 44  1  0
 23 45  1  0
 23 46  1  0
 25 47  1  0
 26 48  1  0
 29 49  1  0
 30 50  1  0
M  CHG  2  14  -1  22   1
M  END
>  <UniqueID>  (28) 
23

>  <SMILES>  (28) 
CC(=O)c1cn(CC(=O)c2ccc([N-]S(C)(=O)=O)cc2)c[n+]1Cc1ccc(F)cc1

>  <Energy>  (28) 
83.90691342726326

>  <Genealogy>  (28) 
CC(=O)c1cn(CC(=O)c2ccc([N-]S(C)(=O)=O)cc2)c[n+]1Cc1ccc(F)cc1 (protonated)
CC(=O)c1cn(CC(=O)c2ccc([N-]S(C)(=O)=O)cc2)c[n+]1Cc1ccc(F)cc1 (3D coordinates assigned)
CC(=O)c1cn(CC(=O)c2ccc([N-]S(C)(=O)=O)cc2)c[n+]1Cc1ccc(F)cc1 (optimized conformer: 83.90691342726326 kcal/mol)

>  <smiles>  (28) 
CC(=O)c1cn(CC(=O)c2ccc(NS(C)(=O)=O)cc2)c[n+]1Cc1ccc(F)cc1

>  <score_type>  (28) 
oracle

>  <origin>  (28) 
adg

>  <m_score__min__energy>  (28) 
-9.6199999999999992

>  <m_primary>  (28) 
energy

$$$$
28:0
     RDKit          3D

 50 52  0  0  0  0  0  0  0  0999 V2000
   62.4550   31.0070   51.5980 C   0  0  0  0  0  0  0  0  0  0  0  0
   63.5470   30.6670   50.7520 O   0  0  0  0  0  0  0  0  0  0  0  0
   64.8080   31.2800   50.7920 C   0  0  0  0  0  0  0  0  0  0  0  0
   65.8830   30.7300   51.5200 C   0  0  0  0  0  0  0  0  0  0  0  0
   67.1200   31.3780   51.5510 C   0  0  0  0  0  0  0  0  0  0  0  0
   67.2990   32.5790   50.8630 C   0  0  0  0  0  0  0  0  0  0  0  0
   66.2430   33.1320   50.1360 C   0  0  0  0  0  0  0  0  0  0  0  0
   64.9980   32.4860   50.0910 C   0  0  0  0  0  0  0  0  0  0  0  0
   63.9240   33.0550   49.3240 N   0  0  0  0  0  0  0  0  0  0  0  0
   63.0190   34.0240   49.9570 C   0  0  0  0  0  0  0  0  0  0  0  0
   61.9480   34.5090   48.9750 C   0  0  0  0  0  0  0  0  0  0  0  0
   61.3930   33.3690   48.2330 N   0  0  0  0  0  0  0  0  0  0  0  0
   59.9780   33.1110   48.2620 C   0  0  0  0  0  0  0  0  0  0  0  0
   59.3420   33.2530   49.3420 O   0  0  0  0  0  0  0  0  0  0  0  0
   59.2540   32.6690   47.0510 C   0  0  0  0  0  0  0  0  0  0  0  0
   59.3870   31.3550   46.5780 C   0  0  0  0  0  0  0  0  0  0  0  0
   58.7080   30.9440   45.4270 C   0  0  0  0  0  0  0  0  0  0  0  0
   57.8930   31.8450   44.7260 C   0  0  0  0  0  0  0  0  0  0  0  0
   57.1300   31.3930   43.5120 C   0  0  0  0  0  0  0  0  0  0  0  0
   56.3630   29.8080   43.8070 S   0  0  0  0  0  0  0  0  0  0  0  0
   57.4250   28.5280   43.3300 N   0  0  0  0  0  0  0  0  0  0  0  0
   55.0950   29.7190   43.0050 O   0  0  0  0  0  0  0  0  0  0  0  0
   56.0350   29.6650   45.2660 O   0  0  0  0  0  0  0  0  0  0  0  0
   57.7630   33.1610   45.1940 C   0  0  0  0  0  0  0  0  0  0  0  0
   58.4470   33.5730   46.3410 C   0  0  0  0  0  0  0  0  0  0  0  0
   62.2950   32.3820   47.6130 C   0  0  0  0  0  0  0  0  0  0  0  0
   63.7640   32.7000   47.9080 C   0  0  0  0  0  0  0  0  0  0  0  0
   62.7624   30.9113   52.6498 H   0  0  0  0  0  0  0  0  0  0  0  0
   62.1461   32.0438   51.3992 H   0  0  0  0  0  0  0  0  0  0  0  0
   61.6121   30.3288   51.3992 H   0  0  0  0  0  0  0  0  0  0  0  0
   65.7467   29.7852   52.0666 H   0  0  0  0  0  0  0  0  0  0  0  0
   67.9546   30.9409   52.1187 H   0  0  0  0  0  0  0  0  0  0  0  0
   68.2725   33.0902   50.8935 H   0  0  0  0  0  0  0  0  0  0  0  0
   66.3877   34.0791   49.5956 H   0  0  0  0  0  0  0  0  0  0  0  0
   62.5268   33.5460   50.8167 H   0  0  0  0  0  0  0  0  0  0  0  0
   63.6116   34.8922   50.2812 H   0  0  0  0  0  0  0  0  0  0  0  0
   61.1417   35.0079   49.5326 H   0  0  0  0  0  0  0  0  0  0  0  0
   62.4028   35.2151   48.2646 H   0  0  0  0  0  0  0  0  0  0  0  0
   60.0299   30.6431   47.1164 H   0  0  0  0  0  0  0  0  0  0  0  0
   58.8134   29.9091   45.0695 H   0  0  0  0  0  0  0  0  0  0  0  0
   56.3512   32.1337   43.2779 H   0  0  0  0  0  0  0  0  0  0  0  0
   57.8295   31.2973   42.6685 H   0  0  0  0  0  0  0  0  0  0  0  0
   58.0940   28.9240   42.6330 H   0  0  0  0  0  0  0  0  0  0  0  0
   56.8470   27.8170   42.8300 H   0  0  0  0  0  0  0  0  0  0  0  0
   57.1195   33.8722   44.6555 H   0  0  0  0  0  0  0  0  0  0  0  0
   58.3527   34.6119   46.6899 H   0  0  0  0  0  0  0  0  0  0  0  0
   62.0589   31.3835   48.0096 H   0  0  0  0  0  0  0  0  0  0  0  0
   62.1468   32.4160   46.5236 H   0  0  0  0  0  0  0  0  0  0  0  0
   64.3808   31.8179   47.6812 H   0  0  0  0  0  0  0  0  0  0  0  0
   64.0835   33.5476   47.2838 H   0  0  0  0  0  0  0  0  0  0  0  0
  1  2  1  0
  2  3  1  0
  3  4  2  0
  4  5  1  0
  5  6  2  0
  6  7  1  0
  7  8  2  0
  8  9  1  0
  9 10  1  0
 10 11  1  0
 11 12  1  0
 12 13  1  0
 13 14  2  0
 13 15  1  0
 15 16  2  0
 16 17  1  0
 17 18  2  0
 18 19  1  0
 19 20  1  0
 20 21  1  0
 20 22  2  0
 20 23  2  0
 18 24  1  0
 24 25  2  0
 12 26  1  0
 26 27  1  0
  8  3  1  0
 27  9  1  0
 25 15  1  0
  1 28  1  0
  1 29  1  0
  1 30  1  0
  4 31  1  0
  5 32  1  0
  6 33  1  0
  7 34  1  0
 10 35  1  0
 10 36  1  0
 11 37  1  0
 11 38  1  0
 16 39  1  0
 17 40  1  0
 19 41  1  0
 19 42  1  0
 21 43  1  0
 21 44  1  0
 24 45  1  0
 25 46  1  0
 26 47  1  0
 26 48  1  0
 27 49  1  0
 27 50  1  0
M  END
>  <UniqueID>  (29) 
24

>  <SMILES>  (29) 
COc1ccccc1N1CCN(C(=O)c2ccc(CS(N)(=O)=O)cc2)CC1

>  <Energy>  (29) 
54.03359797941043

>  <Genealogy>  (29) 
COc1ccccc1N1CCN(C(=O)c2ccc(CS(N)(=O)=O)cc2)CC1 (3D coordinates assigned)
COc1ccccc1N1CCN(C(=O)c2ccc(CS(N)(=O)=O)cc2)CC1 (nonaromatic ring conformer: 54.03359797941043 kcal/mol)

>  <smiles>  (29) 
COc1ccccc1N1CCN(C(=O)c2ccc(CS(N)(=O)=O)cc2)CC1

>  <score_type>  (29) 
oracle

>  <origin>  (29) 
adg

>  <m_score__min__energy>  (29) 
-8.7100000000000009

>  <m_primary>  (29) 
energy

$$$$
29:0
     RDKit          3D

 91 94  0  0  1  0  0  0  0  0999 V2000
   67.3270   33.1180   50.4200 C   0  0  0  0  0  0  0  0  0  0  0  0
   66.4280   33.9660   51.3120 C   0  0  0  0  0  0  0  0  0  0  0  0
   66.5230   33.2870   52.7040 C   0  0  0  0  0  0  0  0  0  0  0  0
   65.0140   33.8490   50.8400 C   0  0  0  0  0  0  0  0  0  0  0  0
   64.9440   32.7210   49.7770 C   0  0  1  0  0  0  0  0  0  0  0  0
   64.5580   31.4910   50.4240 N   0  0  0  0  0  0  0  0  0  0  0  0
   63.3630   31.2070   51.0970 C   0  0  0  0  0  0  0  0  0  0  0  0
   62.4170   31.9790   51.2300 O   0  0  0  0  0  0  0  0  0  0  0  0
   63.2110   29.8610   51.7040 C   0  0  0  0  0  0  0  0  0  0  0  0
   63.6770   29.6290   52.8700 O   0  0  0  0  0  0  0  0  0  0  0  0
   62.5680   28.8110   51.0460 N   0  0  0  0  0  0  0  0  0  0  0  0
   62.3680   27.4740   51.6460 C   0  0  0  0  0  0  0  0  0  0  0  0
   61.0400   27.5620   52.3270 C   0  0  0  0  0  0  0  0  0  0  0  0
   60.0250   28.2930   51.4770 C   0  0  1  0  0  0  0  0  0  0  0  0
   59.9670   29.7470   51.9250 C   0  0  0  0  0  0  0  0  0  0  0  0
   58.7050   30.4400   51.6670 C   0  0  0  0  0  0  0  0  0  0  0  0
   58.5660   31.5520   50.8140 C   0  0  0  0  0  0  0  0  0  0  0  0
   57.2800   31.9090   50.8350 N   0  0  0  0  0  0  0  0  0  0  0  0
   56.5510   31.1180   51.6360 C   0  0  0  0  0  0  0  0  0  0  0  0
   55.2260   31.0470   52.0100 C   0  0  0  0  0  0  0  0  0  0  0  0
   54.7870   30.0740   52.8910 C   0  0  0  0  0  0  0  0  0  0  0  0
   55.6920   29.1690   53.3980 C   0  0  0  0  0  0  0  0  0  0  0  0
   57.0340   29.2020   53.0510 C   0  0  0  0  0  0  0  0  0  0  0  0
   57.4280   30.1800   52.1760 C   0  0  0  0  0  0  0  0  0  0  0  0
   60.3240   28.0570   50.1620 O   0  0  0  0  0  0  0  0  0  0  0  0
   59.9830   28.7140   49.0190 C   0  0  0  0  0  0  0  0  0  0  0  0
   60.8270   29.5560   48.3080 C   0  0  0  0  0  0  0  0  0  0  0  0
   60.4600   30.2000   47.1610 C   0  0  0  0  0  0  0  0  0  0  0  0
   59.1850   30.0500   46.6160 C   0  0  0  0  0  0  0  0  0  0  0  0
   58.4430   30.4790   44.3060 C   0  0  0  0  0  0  0  0  0  0  0  0
   57.2630   29.7050   44.0240 C   0  0  0  0  0  0  0  0  0  0  0  0
   58.8900   30.8530   45.4680 C   0  0  0  0  0  0  0  0  0  0  0  0
   57.0410   28.7300   43.1020 O   0  0  0  0  0  0  0  0  0  0  0  0
   56.2240   29.9820   44.7750 N   0  0  0  0  0  0  0  0  0  0  0  0
   55.1450   29.1670   44.9010 O   0  0  0  0  0  0  0  0  0  0  0  0
   58.3400   29.2270   47.3050 C   0  0  0  0  0  0  0  0  0  0  0  0
   58.7210   28.5620   48.4870 C   0  0  0  0  0  0  0  0  0  0  0  0
   63.9420   33.1070   48.7810 C   0  0  0  0  0  0  0  0  0  0  0  0
   64.0810   32.9770   47.5440 O   0  0  0  0  0  0  0  0  0  0  0  0
   62.6850   33.6920   49.1930 N   0  0  0  0  0  0  0  0  0  0  0  0
   61.6710   34.0990   48.2270 C   0  0  0  0  0  0  0  0  0  0  0  0
   60.3360   33.4350   48.4990 C   0  0  0  0  0  0  0  0  0  0  0  0
   59.3500   33.6530   47.3970 C   0  0  0  0  0  0  0  0  0  0  0  0
   58.0260   33.2260   47.5480 C   0  0  0  0  0  0  0  0  0  0  0  0
   57.1110   33.4570   46.5320 C   0  0  0  0  0  0  0  0  0  0  0  0
   57.4630   34.1020   45.3590 C   0  0  0  0  0  0  0  0  0  0  0  0
   58.7790   34.5220   45.2170 C   0  0  0  0  0  0  0  0  0  0  0  0
   59.7110   34.3040   46.2140 C   0  0  0  0  0  0  0  0  0  0  0  0
   67.9848   32.4975   51.0463 H   0  0  0  0  0  0  0  0  0  0  0  0
   66.7062   32.4689   49.7849 H   0  0  0  0  0  0  0  0  0  0  0  0
   67.9388   33.7756   49.7849 H   0  0  0  0  0  0  0  0  0  0  0  0
   66.7194   35.0267   51.3158 H   0  0  0  0  0  0  0  0  0  0  0  0
   66.4165   34.0479   53.4912 H   0  0  0  0  0  0  0  0  0  0  0  0
   65.7204   32.5414   52.8038 H   0  0  0  0  0  0  0  0  0  0  0  0
   67.4994   32.7903   52.8038 H   0  0  0  0  0  0  0  0  0  0  0  0
   64.3586   33.6014   51.6880 H   0  0  0  0  0  0  0  0  0  0  0  0
   64.6817   34.8019   50.4022 H   0  0  0  0  0  0  0  0  0  0  0  0
   65.9188   32.5728   49.2893 H   0  0  0  0  0  0  0  0  0  0  0  0
   65.2890   30.7200   50.4130 H   0  0  0  0  0  0  0  0  0  0  0  0
   62.2050   28.9820   50.0810 H   0  0  0  0  0  0  0  0  0  0  0  0
   62.3547   26.6969   50.8676 H   0  0  0  0  0  0  0  0  0  0  0  0
   63.1764   27.2031   52.3410 H   0  0  0  0  0  0  0  0  0  0  0  0
   60.6726   26.5443   52.5254 H   0  0  0  0  0  0  0  0  0  0  0  0
   61.1709   28.1226   53.2644 H   0  0  0  0  0  0  0  0  0  0  0  0
   58.9941   27.9307   51.6032 H   0  0  0  0  0  0  0  0  0  0  0  0
   60.1522   29.7744   53.0089 H   0  0  0  0  0  0  0  0  0  0  0  0
   60.7263   30.2749   51.3294 H   0  0  0  0  0  0  0  0  0  0  0  0
   59.3681   32.0363   50.2376 H   0  0  0  0  0  0  0  0  0  0  0  0
   56.8270   32.7080   50.3040 H   0  0  0  0  0  0  0  0  0  0  0  0
   54.5077   31.7737   51.6026 H   0  0  0  0  0  0  0  0  0  0  0  0
   53.7275   30.0244   53.1826 H   0  0  0  0  0  0  0  0  0  0  0  0
   55.3403   28.3974   54.0987 H   0  0  0  0  0  0  0  0  0  0  0  0
   57.7509   28.4749   53.4602 H   0  0  0  0  0  0  0  0  0  0  0  0
   61.8468   29.7131   48.6891 H   0  0  0  0  0  0  0  0  0  0  0  0
   61.1870   30.8523   46.6551 H   0  0  0  0  0  0  0  0  0  0  0  0
   59.0653   31.9326   45.5851 H   0  0  0  0  0  0  0  0  0  0  0  0
   59.0374   30.7913   43.4347 H   0  0  0  0  0  0  0  0  0  0  0  0
   56.1460   28.2430   43.0830 H   0  0  0  0  0  0  0  0  0  0  0  0
   55.1460   28.1720   44.8750 H   0  0  0  0  0  0  0  0  0  0  0  0
   57.3201   29.0774   46.9211 H   0  0  0  0  0  0  0  0  0  0  0  0
   57.9968   27.9085   48.9953 H   0  0  0  0  0  0  0  0  0  0  0  0
   62.4490   33.8690   50.1830 H   0  0  0  0  0  0  0  0  0  0  0  0
   61.5438   35.1902   48.2826 H   0  0  0  0  0  0  0  0  0  0  0  0
   62.0086   33.7909   47.2265 H   0  0  0  0  0  0  0  0  0  0  0  0
   60.4982   32.3535   48.6177 H   0  0  0  0  0  0  0  0  0  0  0  0
   59.9199   33.8857   49.4121 H   0  0  0  0  0  0  0  0  0  0  0  0
   57.7128   32.7100   48.4676 H   0  0  0  0  0  0  0  0  0  0  0  0
   56.0730   33.1170   46.6623 H   0  0  0  0  0  0  0  0  0  0  0  0
   56.7232   34.2765   44.5639 H   0  0  0  0  0  0  0  0  0  0  0  0
   59.0851   35.0373   44.2946 H   0  0  0  0  0  0  0  0  0  0  0  0
   60.7471   34.6462   46.0751 H   0  0  0  0  0  0  0  0  0  0  0  0
  1  2  1  0
  2  3  1  0
  2  4  1  0
  4  5  1  0
  5  6  1  0
  6  7  1  0
  7  8  2  0
  7  9  1  0
  9 10  2  0
  9 11  1  0
 11 12  1  0
 12 13  1  0
 13 14  1  0
 14 15  1  0
 15 16  1  0
 16 17  2  0
 17 18  1  0
 18 19  1  0
 19 20  2  0
 20 21  1  0
 21 22  2  0
 22 23  1  0
 23 24  2  0
 14 25  1  0
 25 26  1  0
 26 27  2  0
 27 28  1  0
 28 29  2  0
 29 30  1  0
 30 31  2  0
 31 32  1  0
 32 33  1  0
 32 34  2  0
 34 35  1  0
 29 36  1  0
 36 37  2  0
  5 38  1  0
 38 39  2  0
 38 40  1  0
 40 41  1  0
 41 42  1  0
 42 43  1  0
 43 44  2  0
 44 45  1  0
 45 46  2  0
 46 47  1  0
 47 48  2  0
 24 16  1  0
 37 26  1  0
 48 43  1  0
 24 19  1  0
  1 49  1  0
  1 50  1  0
  1 51  1  0
  2 52  1  0
  3 53  1  0
  3 54  1  0
  3 55  1  0
  4 56  1  0
  4 57  1  0
  5 58  1  6
  6 59  1  0
 11 60  1  0
 12 61  1  0
 12 62  1  0
 13 63  1  0
 13 64  1  0
 14 65  1  1
 15 66  1  0
 15 67  1  0
 17 68  1  0
 18 69  1  0
 20 70  1  0
 21 71  1  0
 22 72  1  0
 23 73  1  0
 27 74  1  0
 28 75  1  0
 30 76  1  0
 31 77  1  0
 33 78  1  0
 35 79  1  0
 36 80  1  0
 37 81  1  0
 40 82  1  0
 41 83  1  0
 41 84  1  0
 42 85  1  0
 42 86  1  0
 44 87  1  0
 45 88  1  0
 46 89  1  0
 47 90  1  0
 48 91  1  0
M  END
>  <smiles>  (30) 
CC(C)CC(NC(=O)C(=O)NCCC(Cc1c[nH]c2ccccc12)Oc1ccc(C=CC(O)=NO)cc1)C(=O)NCCc1ccccc1

>  <score_type>  (30) 
oracle

>  <origin>  (30) 
adg

>  <m_score__min__energy>  (30) 
-11.34

>  <m_primary>  (30) 
energy

$$$$
30:0
     RDKit          3D

 32 34  0  0  0  0  0  0  0  0999 V2000
   57.3430   31.6210   43.3320 C   0  0  0  0  0  0  0  0  0  0  0  0
   56.6290   31.2170   44.5350 N   0  0  0  0  0  0  0  0  0  0  0  0
   56.3500   29.8480   44.8490 C   0  0  0  0  0  0  0  0  0  0  0  0
   55.1580   29.4380   44.8420 O   0  0  0  0  0  0  0  0  0  0  0  0
   57.4660   28.9140   45.1470 C   0  0  0  0  0  0  0  0  0  0  0  0
   58.7900   29.3500   44.9500 C   0  0  0  0  0  0  0  0  0  0  0  0
   59.8660   28.4890   45.1740 C   0  0  0  0  0  0  0  0  0  0  0  0
   59.6400   27.1830   45.6040 C   0  0  0  0  0  0  0  0  0  0  0  0
   58.3370   26.7360   45.8180 C   0  0  0  0  0  0  0  0  0  0  0  0
   57.2390   27.5850   45.5890 C   0  0  0  0  0  0  0  0  0  0  0  0
   55.9150   27.1240   45.9040 N   0  0  0  0  0  0  0  0  0  0  0  0
   55.5940   25.7540   46.2020 C   0  0  0  0  0  0  0  0  0  0  0  0
   56.3930   24.9860   47.0940 C   0  0  0  0  0  0  0  0  0  0  0  0
   56.0790   23.6410   47.3630 C   0  0  0  0  0  0  0  0  0  0  0  0
   54.9750   23.0930   46.7200 C   0  0  0  0  0  0  0  0  0  0  0  0
   54.5020   21.8420   46.8250 N   0  0  0  0  0  0  0  0  0  0  0  0
   53.4360   21.8710   45.9850 C   0  0  0  0  0  0  0  0  0  0  0  0
   52.7030   20.8670   45.7930 O   0  0  0  0  0  0  0  0  0  0  0  0
   53.2190   23.0590   45.3650 N   0  0  0  0  0  0  0  0  0  0  0  0
   54.2130   23.8150   45.8540 C   0  0  0  0  0  0  0  0  0  0  0  0
   54.4900   25.1480   45.5610 C   0  0  0  0  0  0  0  0  0  0  0  0
   58.2685   32.1447   43.6134 H   0  0  0  0  0  0  0  0  0  0  0  0
   57.5922   30.7301   42.7369 H   0  0  0  0  0  0  0  0  0  0  0  0
   56.7076   32.2934   42.7369 H   0  0  0  0  0  0  0  0  0  0  0  0
   58.9789   30.3808   44.6158 H   0  0  0  0  0  0  0  0  0  0  0  0
   60.8948   28.8425   45.0106 H   0  0  0  0  0  0  0  0  0  0  0  0
   60.4893   26.5051   45.7745 H   0  0  0  0  0  0  0  0  0  0  0  0
   58.1656   25.7080   46.1698 H   0  0  0  0  0  0  0  0  0  0  0  0
   55.1540   27.8370   45.9710 H   0  0  0  0  0  0  0  0  0  0  0  0
   57.2655   25.4485   47.5786 H   0  0  0  0  0  0  0  0  0  0  0  0
   56.6865   23.0434   48.0585 H   0  0  0  0  0  0  0  0  0  0  0  0
   53.8676   25.7127   44.8513 H   0  0  0  0  0  0  0  0  0  0  0  0
  1  2  1  0
  2  3  1  0
  3  4  2  0
  3  5  1  0
  5  6  2  0
  6  7  1  0
  7  8  2  0
  8  9  1  0
  9 10  2  0
 10 11  1  0
 11 12  1  0
 12 13  2  0
 13 14  1  0
 14 15  2  0
 15 16  1  0
 16 17  1  0
 17 18  2  0
 17 19  1  0
 19 20  1  0
 20 21  2  0
 10  5  1  0
 21 12  1  0
 20 15  1  0
  1 22  1  0
  1 23  1  0
  1 24  1  0
  6 25  1  0
  7 26  1  0
  8 27  1  0
  9 28  1  0
 11 29  1  0
 13 30  1  0
 14 31  1  0
 21 32  1  0
M  CHG  3   2  -1  16  -1  19  -1
M  END
>  <UniqueID>  (31) 
25

>  <SMILES>  (31) 
C[N-]C(=O)c1ccccc1Nc1ccc2[n-]c(=O)[n-]c2c1

>  <Energy>  (31) 
76.79089054778579

>  <Genealogy>  (31) 
C[N-]C(=O)c1ccccc1Nc1ccc2[n-]c(=O)[n-]c2c1 (protonated)
C[N-]C(=O)c1ccccc1Nc1ccc2[n-]c(=O)[n-]c2c1 (3D coordinates assigned)
C[N-]C(=O)c1ccccc1Nc1ccc2[n-]c(=O)[n-]c2c1 (optimized conformer: 76.79089054778579 kcal/mol)

>  <smiles>  (31) 
CNC(=O)c1ccccc1Nc1ccc2[nH]c(=O)[nH]c2c1

>  <score_type>  (31) 
oracle

>  <origin>  (31) 
adg

>  <m_score__min__energy>  (31) 
-11.970000000000001

>  <m_primary>  (31) 
energy

$$$$
31:0
     RDKit          3D

 58 62  0  0  0  0  0  0  0  0999 V2000
   64.0340   29.5720   51.8500 C   0  0  0  0  0  0  0  0  0  0  0  0
   65.1310   30.5160   51.4360 C   0  0  0  0  0  0  0  0  0  0  0  0
   66.4630   30.1440   51.6880 C   0  0  0  0  0  0  0  0  0  0  0  0
   67.5160   31.0050   51.3740 C   0  0  0  0  0  0  0  0  0  0  0  0
   67.2540   32.2480   50.8010 C   0  0  0  0  0  0  0  0  0  0  0  0
   65.9400   32.6260   50.5220 C   0  0  0  0  0  0  0  0  0  0  0  0
   64.8680   31.7630   50.8080 C   0  0  0  0  0  0  0  0  0  0  0  0
   63.5050   32.2140   50.4530 C   0  0  0  0  0  0  0  0  0  0  0  0
   62.6220   32.7570   51.3200 N   0  0  0  0  0  0  0  0  0  0  0  0
   61.5140   32.9750   50.5900 C   0  0  0  0  0  0  0  0  0  0  0  0
   59.9790   33.4960   51.2730 S   0  0  0  0  0  0  0  0  0  0  0  0
   59.2760   34.4150   50.3130 O   0  0  0  0  0  0  0  0  0  0  0  0
   60.2150   34.2240   52.5670 O   0  0  0  0  0  0  0  0  0  0  0  0
   58.9630   32.0870   51.5550 C   0  0  0  0  0  0  0  0  0  0  0  0
   59.4020   30.8090   51.1790 C   0  0  0  0  0  0  0  0  0  0  0  0
   58.5800   29.6970   51.3830 C   0  0  0  0  0  0  0  0  0  0  0  0
   57.3150   29.8550   51.9570 C   0  0  0  0  0  0  0  0  0  0  0  0
   56.8700   31.1280   52.3270 C   0  0  0  0  0  0  0  0  0  0  0  0
   57.6890   32.2430   52.1240 C   0  0  0  0  0  0  0  0  0  0  0  0
   61.7660   32.5470   49.3010 C   0  0  0  0  0  0  0  0  0  0  0  0
   60.8650   32.5600   48.1860 N   0  0  0  0  0  0  0  0  0  0  0  0
   60.9020   33.6630   47.2210 C   0  0  0  0  0  0  0  0  0  0  0  0
   59.4940   33.9390   46.6870 C   0  0  0  0  0  0  0  0  0  0  0  0
   58.8200   32.7000   46.2700 N   0  0  0  0  0  0  0  0  0  0  0  0
   57.5520   32.8020   45.5930 C   0  0  0  0  0  0  0  0  0  0  0  0
   56.7660   33.7420   45.8890 O   0  0  0  0  0  0  0  0  0  0  0  0
   57.1590   31.8520   44.5340 C   0  0  0  0  0  0  0  0  0  0  0  0
   57.5990   31.8790   43.2240 C   0  0  0  0  0  0  0  0  0  0  0  0
   56.9920   30.8060   42.6060 C   0  0  0  0  0  0  0  0  0  0  0  0
   56.2240   30.1910   43.5730 C   0  0  0  0  0  0  0  0  0  0  0  0
   56.3460   30.8360   44.7120 O   0  0  0  0  0  0  0  0  0  0  0  0
   59.4580   31.3940   46.4930 C   0  0  0  0  0  0  0  0  0  0  0  0
   60.1130   31.3360   47.8810 C   0  0  0  0  0  0  0  0  0  0  0  0
   62.9900   32.0770   49.2490 O   0  0  0  0  0  0  0  0  0  0  0  0
   63.9830   29.5281   52.9479 H   0  0  0  0  0  0  0  0  0  0  0  0
   63.0729   29.9298   51.4523 H   0  0  0  0  0  0  0  0  0  0  0  0
   64.2445   28.5683   51.4523 H   0  0  0  0  0  0  0  0  0  0  0  0
   66.6780   29.1634   52.1377 H   0  0  0  0  0  0  0  0  0  0  0  0
   68.5534   30.7021   51.5790 H   0  0  0  0  0  0  0  0  0  0  0  0
   68.0837   32.9318   50.5684 H   0  0  0  0  0  0  0  0  0  0  0  0
   65.7409   33.6104   50.0732 H   0  0  0  0  0  0  0  0  0  0  0  0
   62.7350   32.8990   52.3470 H   0  0  0  0  0  0  0  0  0  0  0  0
   60.3948   30.6816   50.7228 H   0  0  0  0  0  0  0  0  0  0  0  0
   58.9291   28.6955   51.0913 H   0  0  0  0  0  0  0  0  0  0  0  0
   56.6701   28.9784   52.1175 H   0  0  0  0  0  0  0  0  0  0  0  0
   55.8746   31.2524   52.7782 H   0  0  0  0  0  0  0  0  0  0  0  0
   57.3345   33.2441   52.4106 H   0  0  0  0  0  0  0  0  0  0  0  0
   61.2877   34.5668   47.7154 H   0  0  0  0  0  0  0  0  0  0  0  0
   61.5585   33.3873   46.3826 H   0  0  0  0  0  0  0  0  0  0  0  0
   58.9000   34.4194   47.4784 H   0  0  0  0  0  0  0  0  0  0  0  0
   59.5820   34.5950   45.8084 H   0  0  0  0  0  0  0  0  0  0  0  0
   58.2892   32.6048   42.7693 H   0  0  0  0  0  0  0  0  0  0  0  0
   57.0987   30.5019   41.5543 H   0  0  0  0  0  0  0  0  0  0  0  0
   55.6036   29.2965   43.4150 H   0  0  0  0  0  0  0  0  0  0  0  0
   58.6964   30.6036   46.4205 H   0  0  0  0  0  0  0  0  0  0  0  0
   60.2364   31.2473   45.7298 H   0  0  0  0  0  0  0  0  0  0  0  0
   59.3272   31.2037   48.6393 H   0  0  0  0  0  0  0  0  0  0  0  0
   60.8191   30.4926   47.8885 H   0  0  0  0  0  0  0  0  0  0  0  0
  1  2  1  0
  2  3  2  0
  3  4  1  0
  4  5  2  0
  5  6  1  0
  6  7  2  0
  7  8  1  0
  8  9  2  0
  9 10  1  0
 10 11  1  0
 11 12  2  0
 11 13  2  0
 11 14  1  0
 14 15  2  0
 15 16  1  0
 16 17  2  0
 17 18  1  0
 18 19  2  0
 10 20  2  0
 20 21  1  0
 21 22  1  0
 22 23  1  0
 23 24  1  0
 24 25  1  0
 25 26  2  0
 25 27  1  0
 27 28  2  0
 28 29  1  0
 29 30  2  0
 30 31  1  0
 24 32  1  0
 32 33  1  0
 20 34  1  0
  7  2  1  0
 34  8  1  0
 19 14  1  0
 33 21  1  0
 31 27  1  0
  1 35  1  0
  1 36  1  0
  1 37  1  0
  3 38  1  0
  4 39  1  0
  5 40  1  0
  6 41  1  0
  9 42  1  0
 15 43  1  0
 16 44  1  0
 17 45  1  0
 18 46  1  0
 19 47  1  0
 22 48  1  0
 22 49  1  0
 23 50  1  0
 23 51  1  0
 28 52  1  0
 29 53  1  0
 30 54  1  0
 32 55  1  0
 32 56  1  0
 33 57  1  0
 33 58  1  0
M  CHG  1   9   1
M  END
>  <UniqueID>  (32) 
26

>  <SMILES>  (32) 
Cc1ccccc1-c1[nH+]c(S(=O)(=O)c2ccccc2)c(N2CCN(C(=O)c3ccco3)CC2)o1

>  <Energy>  (32) 
133.20460524614342

>  <Genealogy>  (32) 
Cc1ccccc1-c1[nH+]c(S(=O)(=O)c2ccccc2)c(N2CCN(C(=O)c3ccco3)CC2)o1 (protonated)
Cc1ccccc1-c1[nH+]c(S(=O)(=O)c2ccccc2)c(N2CCN(C(=O)c3ccco3)CC2)o1 (3D coordinates assigned)
Cc1ccccc1-c1[nH+]c(S(=O)(=O)c2ccccc2)c(N2CCN(C(=O)c3ccco3)CC2)o1 (nonaromatic ring conformer: 133.20460524614342 kcal/mol)

>  <smiles>  (32) 
Cc1ccccc1-c1nc(S(=O)(=O)c2ccccc2)c(N2CCN(C(=O)c3ccco3)CC2)o1

>  <score_type>  (32) 
oracle

>  <origin>  (32) 
adg

>  <m_score__min__energy>  (32) 
-8.9199999999999999

>  <m_primary>  (32) 
energy

$$$$
32:0
     RDKit          3D

 54 57  0  0  0  0  0  0  0  0999 V2000
   68.7760   34.8720   50.4890 C   0  0  0  0  0  0  0  0  0  0  0  0
   68.5010   33.5260   51.1600 C   0  0  0  0  0  0  0  0  0  0  0  0
   67.0480   33.2870   51.2910 N   0  0  0  0  0  0  0  0  0  0  0  0
   66.3430   34.5450   51.5890 C   0  0  0  0  0  0  0  0  0  0  0  0
   64.8720   34.2450   51.8820 C   0  0  0  0  0  0  0  0  0  0  0  0
   64.2670   33.4520   50.8020 N   0  0  0  0  0  0  0  0  0  0  0  0
   62.8310   33.2890   50.7360 C   0  0  0  0  0  0  0  0  0  0  0  0
   62.0910   33.7680   49.6420 C   0  0  0  0  0  0  0  0  0  0  0  0
   60.6990   33.5880   49.5940 C   0  0  0  0  0  0  0  0  0  0  0  0
   59.9340   34.1170   48.4070 C   0  0  0  0  0  0  0  0  0  0  0  0
   60.0530   32.9170   50.6600 C   0  0  0  0  0  0  0  0  0  0  0  0
   58.6600   32.6890   50.6810 C   0  0  0  0  0  0  0  0  0  0  0  0
   58.0550   32.0350   51.7690 C   0  0  0  0  0  0  0  0  0  0  0  0
   56.6410   31.7820   51.7980 N   0  0  0  0  0  0  0  0  0  0  0  0
   56.0650   30.4760   52.0020 C   0  0  0  0  0  0  0  0  0  0  0  0
   56.8030   29.4550   52.0020 O   0  0  0  0  0  0  0  0  0  0  0  0
   54.6040   30.3070   52.1830 C   0  0  0  0  0  0  0  0  0  0  0  0
   53.7170   31.2190   51.5840 C   0  0  0  0  0  0  0  0  0  0  0  0
   52.3350   31.0770   51.7520 C   0  0  0  0  0  0  0  0  0  0  0  0
   51.8260   30.0350   52.5290 C   0  0  0  0  0  0  0  0  0  0  0  0
   50.4860   29.9010   52.6940 F   0  0  0  0  0  0  0  0  0  0  0  0
   52.6990   29.1310   53.1410 C   0  0  0  0  0  0  0  0  0  0  0  0
   54.0820   29.2650   52.9720 C   0  0  0  0  0  0  0  0  0  0  0  0
   58.8560   31.5640   52.8180 C   0  0  0  0  0  0  0  0  0  0  0  0
   60.2350   31.7790   52.8080 C   0  0  0  0  0  0  0  0  0  0  0  0
   60.8350   32.4550   51.7410 C   0  0  0  0  0  0  0  0  0  0  0  0
   62.1790   32.6530   51.7460 N   0  0  0  0  0  0  0  0  0  0  0  0
   65.0980   33.0600   49.6560 C   0  0  0  0  0  0  0  0  0  0  0  0
   66.4910   32.5720   50.1080 C   0  0  0  0  0  0  0  0  0  0  0  0
   68.9331   35.6407   51.2600 H   0  0  0  0  0  0  0  0  0  0  0  0
   69.6764   34.7920   49.8621 H   0  0  0  0  0  0  0  0  0  0  0  0
   67.9164   35.1516   49.8621 H   0  0  0  0  0  0  0  0  0  0  0  0
   68.9443   32.7236   50.5520 H   0  0  0  0  0  0  0  0  0  0  0  0
   68.9465   33.5380   52.1657 H   0  0  0  0  0  0  0  0  0  0  0  0
   66.8019   35.0240   52.4665 H   0  0  0  0  0  0  0  0  0  0  0  0
   66.4153   35.2209   50.7241 H   0  0  0  0  0  0  0  0  0  0  0  0
   64.8012   33.6815   52.8241 H   0  0  0  0  0  0  0  0  0  0  0  0
   64.3302   35.1991   51.9598 H   0  0  0  0  0  0  0  0  0  0  0  0
   62.6045   34.2866   48.8189 H   0  0  0  0  0  0  0  0  0  0  0  0
   59.0766   34.7099   48.7580 H   0  0  0  0  0  0  0  0  0  0  0  0
   60.5945   34.7522   47.7986 H   0  0  0  0  0  0  0  0  0  0  0  0
   59.5729   33.2748   47.7986 H   0  0  0  0  0  0  0  0  0  0  0  0
   58.0409   33.0267   49.8368 H   0  0  0  0  0  0  0  0  0  0  0  0
   56.0090   32.5950   51.6240 H   0  0  0  0  0  0  0  0  0  0  0  0
   54.1118   32.0490   50.9797 H   0  0  0  0  0  0  0  0  0  0  0  0
   51.6479   31.7884   51.2705 H   0  0  0  0  0  0  0  0  0  0  0  0
   52.2982   28.3124   53.7568 H   0  0  0  0  0  0  0  0  0  0  0  0
   54.7643   28.5523   53.4583 H   0  0  0  0  0  0  0  0  0  0  0  0
   58.3944   31.0207   53.6557 H   0  0  0  0  0  0  0  0  0  0  0  0
   60.8523   31.4153   53.6427 H   0  0  0  0  0  0  0  0  0  0  0  0
   64.5945   32.2483   49.1104 H   0  0  0  0  0  0  0  0  0  0  0  0
   65.2334   33.9404   49.0106 H   0  0  0  0  0  0  0  0  0  0  0  0
   66.4152   31.5035   50.3579 H   0  0  0  0  0  0  0  0  0  0  0  0
   67.1770   32.7735   49.2720 H   0  0  0  0  0  0  0  0  0  0  0  0
  1  2  1  0
  2  3  1  0
  3  4  1  0
  4  5  1  0
  5  6  1  0
  6  7  1  0
  7  8  2  0
  8  9  1  0
  9 10  1  0
  9 11  2  0
 11 12  1  0
 12 13  2  0
 13 14  1  0
 14 15  1  0
 15 16  2  0
 15 17  1  0
 17 18  2  0
 18 19  1  0
 19 20  2  0
 20 21  1  0
 20 22  1  0
 22 23  2  0
 13 24  1  0
 24 25  2  0
 25 26  1  0
 26 27  2  0
  6 28  1  0
 28 29  1  0
 29  3  1  0
 27  7  1  0
 26 11  1  0
 23 17  1  0
  1 30  1  0
  1 31  1  0
  1 32  1  0
  2 33  1  0
  2 34  1  0
  4 35  1  0
  4 36  1  0
  5 37  1  0
  5 38  1  0
  8 39  1  0
 10 40  1  0
 10 41  1  0
 10 42  1  0
 12 43  1  0
 14 44  1  0
 18 45  1  0
 19 46  1  0
 22 47  1  0
 23 48  1  0
 24 49  1  0
 25 50  1  0
 28 51  1  0
 28 52  1  0
 29 53  1  0
 29 54  1  0
M  END
>  <UniqueID>  (33) 
27

>  <SMILES>  (33) 
CCN1CCN(c2cc(C)c3cc(NC(=O)c4ccc(F)cc4)ccc3n2)CC1

>  <Energy>  (33) 
75.27672745612388

>  <Genealogy>  (33) 
CCN1CCN(c2cc(C)c3cc(NC(=O)c4ccc(F)cc4)ccc3n2)CC1 (3D coordinates assigned)
CCN1CCN(c2cc(C)c3cc(NC(=O)c4ccc(F)cc4)ccc3n2)CC1 (nonaromatic ring conformer: 75.27672745612388 kcal/mol)

>  <smiles>  (33) 
CCN1CCN(c2cc(C)c3cc(NC(=O)c4ccc(F)cc4)ccc3n2)CC1

>  <score_type>  (33) 
oracle

>  <origin>  (33) 
adg

>  <m_score__min__energy>  (33) 
-7.0199999999999996

>  <m_primary>  (33) 
energy

$$$$
33:0
     RDKit          3D

 59 62  0  0  0  0  0  0  0  0999 V2000
   65.7000   32.3750   50.1650 C   0  0  0  0  0  0  0  0  0  0  0  0
   64.6460   31.8440   49.3670 O   0  0  0  0  0  0  0  0  0  0  0  0
   63.3490   32.3770   49.3010 C   0  0  0  0  0  0  0  0  0  0  0  0
   62.4700   32.3290   50.4010 C   0  0  0  0  0  0  0  0  0  0  0  0
   61.1920   32.8800   50.3070 C   0  0  0  0  0  0  0  0  0  0  0  0
   60.7740   33.4870   49.1230 C   0  0  0  0  0  0  0  0  0  0  0  0
   61.6330   33.5480   48.0140 C   0  0  0  0  0  0  0  0  0  0  0  0
   61.1750   34.2130   46.7380 C   0  0  0  0  0  0  0  0  0  0  0  0
   59.7150   34.2030   46.6500 N   0  0  0  0  0  0  0  0  0  0  0  0
   58.9570   33.1650   46.0040 C   0  0  0  0  0  0  0  0  0  0  0  0
   59.4850   31.8670   45.9430 C   0  0  0  0  0  0  0  0  0  0  0  0
   58.7480   30.8280   45.3680 C   0  0  0  0  0  0  0  0  0  0  0  0
   57.4730   31.0740   44.8460 C   0  0  0  0  0  0  0  0  0  0  0  0
   56.5000   29.7360   44.2360 S   0  0  0  0  0  0  0  0  0  0  0  0
   56.3190   29.9100   42.7550 O   0  0  0  0  0  0  0  0  0  0  0  0
   55.1460   29.7450   44.8910 O   0  0  0  0  0  0  0  0  0  0  0  0
   57.2610   28.1970   44.5350 N   0  0  0  0  0  0  0  0  0  0  0  0
   57.4030   27.9270   45.9680 C   0  0  0  0  0  0  0  0  0  0  0  0
   58.5640   27.0140   46.2490 C   0  0  0  0  0  0  0  0  0  0  0  0
   58.5800   25.6510   46.0510 C   0  0  0  0  0  0  0  0  0  0  0  0
   59.8090   25.1730   46.3310 N   0  0  0  0  0  0  0  0  0  0  0  0
   60.5210   26.2620   46.6900 C   0  0  0  0  0  0  0  0  0  0  0  0
   59.7950   27.3970   46.6460 N   0  0  0  0  0  0  0  0  0  0  0  0
   60.2860   28.7450   46.9450 C   0  0  0  0  0  0  0  0  0  0  0  0
   59.9610   29.1340   48.3620 C   0  0  0  0  0  0  0  0  0  0  0  0
   60.6790   28.5690   49.4300 C   0  0  0  0  0  0  0  0  0  0  0  0
   60.3840   28.9370   50.7480 C   0  0  0  0  0  0  0  0  0  0  0  0
   59.3700   29.8630   51.0070 C   0  0  0  0  0  0  0  0  0  0  0  0
   58.6390   30.4150   49.9510 C   0  0  0  0  0  0  0  0  0  0  0  0
   58.9290   30.0500   48.6320 C   0  0  0  0  0  0  0  0  0  0  0  0
   56.9660   32.3790   44.8480 C   0  0  0  0  0  0  0  0  0  0  0  0
   57.7000   33.4190   45.4250 C   0  0  0  0  0  0  0  0  0  0  0  0
   62.9210   32.9790   48.1020 C   0  0  0  0  0  0  0  0  0  0  0  0
   63.7660   33.0220   46.9900 O   0  0  0  0  0  0  0  0  0  0  0  0
   65.4525   32.2503   51.2295 H   0  0  0  0  0  0  0  0  0  0  0  0
   66.6348   31.8402   49.9408 H   0  0  0  0  0  0  0  0  0  0  0  0
   65.8266   33.4445   49.9408 H   0  0  0  0  0  0  0  0  0  0  0  0
   62.7933   31.8544   51.3392 H   0  0  0  0  0  0  0  0  0  0  0  0
   60.5113   32.8356   51.1700 H   0  0  0  0  0  0  0  0  0  0  0  0
   59.7652   33.9206   49.0576 H   0  0  0  0  0  0  0  0  0  0  0  0
   61.5313   35.2536   46.7242 H   0  0  0  0  0  0  0  0  0  0  0  0
   61.5866   33.6596   45.8811 H   0  0  0  0  0  0  0  0  0  0  0  0
   59.2110   35.0660   46.9600 H   0  0  0  0  0  0  0  0  0  0  0  0
   60.4865   31.6653   46.3507 H   0  0  0  0  0  0  0  0  0  0  0  0
   59.1714   29.8136   45.3256 H   0  0  0  0  0  0  0  0  0  0  0  0
   57.5619   28.8788   46.4961 H   0  0  0  0  0  0  0  0  0  0  0  0
   56.4848   27.4316   46.3164 H   0  0  0  0  0  0  0  0  0  0  0  0
   57.7237   25.0469   45.7166 H   0  0  0  0  0  0  0  0  0  0  0  0
   61.5797   26.2271   46.9866 H   0  0  0  0  0  0  0  0  0  0  0  0
   61.3769   28.7698   46.8061 H   0  0  0  0  0  0  0  0  0  0  0  0
   59.7953   29.4563   46.2644 H   0  0  0  0  0  0  0  0  0  0  0  0
   61.4744   27.8361   49.2298 H   0  0  0  0  0  0  0  0  0  0  0  0
   60.9513   28.4965   51.5812 H   0  0  0  0  0  0  0  0  0  0  0  0
   59.1468   30.1579   52.0430 H   0  0  0  0  0  0  0  0  0  0  0  0
   57.8351   31.1369   50.1573 H   0  0  0  0  0  0  0  0  0  0  0  0
   58.3478   30.4810   47.8035 H   0  0  0  0  0  0  0  0  0  0  0  0
   55.9860   32.5866   44.3936 H   0  0  0  0  0  0  0  0  0  0  0  0
   57.2931   34.4410   45.4265 H   0  0  0  0  0  0  0  0  0  0  0  0
   64.6780   32.5830   46.9840 H   0  0  0  0  0  0  0  0  0  0  0  0
  1  2  1  0
  2  3  1  0
  3  4  2  0
  4  5  1  0
  5  6  2  0
  6  7  1  0
  7  8  1  0
  8  9  1  0
  9 10  1  0
 10 11  2  0
 11 12  1  0
 12 13  2  0
 13 14  1  0
 14 15  2  0
 14 16  2  0
 14 17  1  0
 17 18  1  0
 18 19  1  0
 19 20  2  0
 20 21  1  0
 21 22  2  0
 22 23  1  0
 23 24  1  0
 24 25  1  0
 25 26  2  0
 26 27  1  0
 27 28  2  0
 28 29  1  0
 29 30  2  0
 13 31  1  0
 31 32  2  0
  7 33  2  0
 33 34  1  0
 33  3  1  0
 32 10  1  0
 23 19  1  0
 30 25  1  0
  1 35  1  0
  1 36  1  0
  1 37  1  0
  4 38  1  0
  5 39  1  0
  6 40  1  0
  8 41  1  0
  8 42  1  0
  9 43  1  0
 11 44  1  0
 12 45  1  0
 18 46  1  0
 18 47  1  0
 20 48  1  0
 22 49  1  0
 24 50  1  0
 24 51  1  0
 26 52  1  0
 27 53  1  0
 28 54  1  0
 29 55  1  0
 30 56  1  0
 31 57  1  0
 32 58  1  0
 34 59  1  0
M  CHG  1  17  -1
M  END
>  <UniqueID>  (34) 
28

>  <SMILES>  (34) 
COc1cccc(CNc2ccc(S(=O)(=O)[N-]Cc3cncn3Cc3ccccc3)cc2)c1O

>  <Energy>  (34) 
81.93927071797081

>  <Genealogy>  (34) 
COc1cccc(CNc2ccc(S(=O)(=O)[N-]Cc3cncn3Cc3ccccc3)cc2)c1O (protonated)
COc1cccc(CNc2ccc(S(=O)(=O)[N-]Cc3cncn3Cc3ccccc3)cc2)c1O (3D coordinates assigned)
COc1cccc(CNc2ccc(S(=O)(=O)[N-]Cc3cncn3Cc3ccccc3)cc2)c1O (optimized conformer: 81.93927071797081 kcal/mol)

>  <smiles>  (34) 
COc1cccc(CNc2ccc(S(=O)(=O)NCc3cncn3Cc3ccccc3)cc2)c1O

>  <score_type>  (34) 
oracle

>  <origin>  (34) 
adg

>  <m_score__min__energy>  (34) 
-11.51

>  <m_primary>  (34) 
energy

$$$$
34:0
     RDKit          3D

 47 49  0  0  0  0  0  0  0  0999 V2000
   59.5780   36.7390   46.7860 H   0  0  0  0  0  0  0  0  0  0  0  0
   59.7480   36.0600   46.0530 O   0  0  0  0  0  0  0  0  0  0  0  0
   59.1450   34.8050   46.0680 C   0  0  0  0  0  0  0  0  0  0  0  0
   58.7440   34.2470   47.2860 C   0  0  0  0  0  0  0  0  0  0  0  0
   58.9148   34.7958   48.2239 H   0  0  0  0  0  0  0  0  0  0  0  0
   58.1270   32.9940   47.3140 C   0  0  0  0  0  0  0  0  0  0  0  0
   57.8043   32.5625   48.2730 H   0  0  0  0  0  0  0  0  0  0  0  0
   57.9190   32.2880   46.1270 C   0  0  0  0  0  0  0  0  0  0  0  0
   57.4182   31.3090   46.1530 H   0  0  0  0  0  0  0  0  0  0  0  0
   58.3470   32.8230   44.8980 C   0  0  0  0  0  0  0  0  0  0  0  0
   58.1250   32.1090   43.6210 C   0  0  0  0  0  0  0  0  0  0  0  0
   58.8049   32.3391   42.7875 H   0  0  0  0  0  0  0  0  0  0  0  0
   57.1600   31.2030   43.3990 C   0  0  0  0  0  0  0  0  0  0  0  0
   56.6883   31.1954   42.4053 H   0  0  0  0  0  0  0  0  0  0  0  0
   56.6840   30.2160   44.3880 C   0  0  0  0  0  0  0  0  0  0  0  0
   55.5290   30.3570   44.8680 O   0  0  0  0  0  0  0  0  0  0  0  0
   57.4770   29.0720   44.7590 N   0  0  0  0  0  0  0  0  0  0  0  0
   58.2040   28.3220   43.7190 C   0  0  0  0  0  0  0  0  0  0  0  0
   59.0506   28.9287   43.3654 H   0  0  0  0  0  0  0  0  0  0  0  0
   57.5079   28.1077   42.8947 H   0  0  0  0  0  0  0  0  0  0  0  0
   58.7350   26.9930   44.2610 C   0  0  0  0  0  0  0  0  0  0  0  0
   59.6062   27.1817   44.9055 H   0  0  0  0  0  0  0  0  0  0  0  0
   59.0328   26.3474   43.4216 H   0  0  0  0  0  0  0  0  0  0  0  0
   57.6830   26.3270   45.0420 N   0  0  0  0  0  0  0  0  0  0  0  0
   57.2490   24.9940   44.7080 C   0  0  0  0  0  0  0  0  0  0  0  0
   57.0170   24.0470   45.7190 C   0  0  0  0  0  0  0  0  0  0  0  0
   57.1826   24.3198   46.7717 H   0  0  0  0  0  0  0  0  0  0  0  0
   56.5770   22.7600   45.3960 C   0  0  0  0  0  0  0  0  0  0  0  0
   56.4039   22.0258   46.1966 H   0  0  0  0  0  0  0  0  0  0  0  0
   56.3550   22.3980   44.0630 C   0  0  0  0  0  0  0  0  0  0  0  0
   55.9110   21.0950   43.7910 O   0  0  0  0  0  0  0  0  0  0  0  0
   56.2440   19.9510   44.5720 C   0  0  0  0  0  0  0  0  0  0  0  0
   56.1708   20.2025   45.6404 H   0  0  0  0  0  0  0  0  0  0  0  0
   55.5468   19.1326   44.3393 H   0  0  0  0  0  0  0  0  0  0  0  0
   57.2715   19.6346   44.3393 H   0  0  0  0  0  0  0  0  0  0  0  0
   56.5810   23.3450   43.0480 C   0  0  0  0  0  0  0  0  0  0  0  0
   56.4106   23.0713   41.9963 H   0  0  0  0  0  0  0  0  0  0  0  0
   57.0210   24.6320   43.3690 C   0  0  0  0  0  0  0  0  0  0  0  0
   57.1901   25.3669   42.5682 H   0  0  0  0  0  0  0  0  0  0  0  0
   56.9890   27.0700   46.1060 C   0  0  0  0  0  0  0  0  0  0  0  0
   57.2309   26.6135   47.0771 H   0  0  0  0  0  0  0  0  0  0  0  0
   55.9075   27.0239   45.9105 H   0  0  0  0  0  0  0  0  0  0  0  0
   57.4120   28.5450   46.1290 C   0  0  0  0  0  0  0  0  0  0  0  0
   58.4022   28.6324   46.6000 H   0  0  0  0  0  0  0  0  0  0  0  0
   56.6728   29.1231   46.7029 H   0  0  0  0  0  0  0  0  0  0  0  0
   58.9370   34.0970   44.8740 C   0  0  0  0  0  0  0  0  0  0  0  0
   59.2378   34.5426   43.9143 H   0  0  0  0  0  0  0  0  0  0  0  0
  1  2  1  0
  2  3  1  0
  3  4  2  0
  4  5  1  0
  4  6  1  0
  6  7  1  0
  6  8  2  0
  8  9  1  0
  8 10  1  0
 10 11  1  0
 11 12  1  0
 11 13  2  0
 13 14  1  0
 13 15  1  0
 15 16  2  0
 15 17  1  0
 17 18  1  0
 18 19  1  0
 18 20  1  0
 18 21  1  0
 21 22  1  0
 21 23  1  0
 21 24  1  0
 24 25  1  0
 25 26  2  0
 26 27  1  0
 26 28  1  0
 28 29  1  0
 28 30  2  0
 30 31  1  0
 31 32  1  0
 32 33  1  0
 32 34  1  0
 32 35  1  0
 30 36  1  0
 36 37  1  0
 36 38  2  0
 38 39  1  0
 24 40  1  0
 40 41  1  0
 40 42  1  0
 40 43  1  0
 43 44  1  0
 43 45  1  0
 10 46  2  0
 46 47  1  0
 46  3  1  0
 43 17  1  0
 38 25  1  0
M  END
>  <UniqueID>  (35) 
29

>  <SMILES>  (35) 
COc1ccc(N2CCN(C(=O)/C=C\c3cccc(O)c3)CC2)cc1

>  <Energy>  (35) 
61.454149363144914

>  <Genealogy>  (35) 
COc1ccc(N2CCN(C(=O)/C=C\c3cccc(O)c3)CC2)cc1 (cis-trans isomerization)
COc1ccc(N2CCN(C(=O)/C=C\c3cccc(O)c3)CC2)cc1 (3D coordinates assigned)
COc1ccc(N2CCN(C(=O)/C=C\c3cccc(O)c3)CC2)cc1 (nonaromatic ring conformer: 61.454149363144914 kcal/mol)

>  <smiles>  (35) 
COc1ccc(N2CCN(C(=O)C=Cc3cccc(O)c3)CC2)cc1

>  <score_type>  (35) 
oracle

>  <origin>  (35) 
adg

>  <m_score__min__energy>  (35) 
-8.7799999999999994

>  <m_primary>  (35) 
energy

$$$$
35:0
     RDKit          3D

 52 54  0  0  0  0  0  0  0  0999 V2000
   65.1630   32.7170   49.8310 C   0  0  0  0  0  0  0  0  0  0  0  0
   64.3620   32.1670   48.7900 O   0  0  0  0  0  0  0  0  0  0  0  0
   63.1960   32.7620   48.2880 C   0  0  0  0  0  0  0  0  0  0  0  0
   63.1920   33.2060   46.9600 C   0  0  0  0  0  0  0  0  0  0  0  0
   62.0550   33.8070   46.4140 C   0  0  0  0  0  0  0  0  0  0  0  0
   60.9050   33.9770   47.1950 C   0  0  0  0  0  0  0  0  0  0  0  0
   59.4580   34.7180   46.5130 S   0  0  0  0  0  0  0  0  0  0  0  0
   59.8040   35.4410   45.2400 O   0  0  0  0  0  0  0  0  0  0  0  0
   58.9190   35.7150   47.5000 O   0  0  0  0  0  0  0  0  0  0  0  0
   58.2510   33.4970   46.1900 N   0  0  0  0  0  0  0  0  0  0  0  0
   58.8170   32.1600   46.4490 C   0  0  0  0  0  0  0  0  0  0  0  0
   57.8510   31.0590   46.0020 C   0  0  0  0  0  0  0  0  0  0  0  0
   57.4820   31.2290   44.5900 N   0  0  0  0  0  0  0  0  0  0  0  0
   56.9010   30.1380   43.8430 C   0  0  0  0  0  0  0  0  0  0  0  0
   56.9660   30.1440   42.5820 O   0  0  0  0  0  0  0  0  0  0  0  0
   56.2770   28.9550   44.5420 C   0  0  0  0  0  0  0  0  0  0  0  0
   57.3260   28.0090   45.0790 C   0  0  0  0  0  0  0  0  0  0  0  0
   58.6850   28.3430   44.9460 C   0  0  0  0  0  0  0  0  0  0  0  0
   59.6720   27.5010   45.4600 C   0  0  0  0  0  0  0  0  0  0  0  0
   59.3160   26.3270   46.1210 C   0  0  0  0  0  0  0  0  0  0  0  0
   57.9700   25.9910   46.2760 C   0  0  0  0  0  0  0  0  0  0  0  0
   56.9610   26.8300   45.7630 C   0  0  0  0  0  0  0  0  0  0  0  0
   55.5970   26.5270   45.9200 O   0  0  0  0  0  0  0  0  0  0  0  0
   55.0140   25.2600   45.6360 C   0  0  0  0  0  0  0  0  0  0  0  0
   57.8650   32.4680   43.9020 C   0  0  0  0  0  0  0  0  0  0  0  0
   57.6690   33.6750   44.8340 C   0  0  0  0  0  0  0  0  0  0  0  0
   60.8980   33.5300   48.5230 C   0  0  0  0  0  0  0  0  0  0  0  0
   62.0350   32.9260   49.0690 C   0  0  0  0  0  0  0  0  0  0  0  0
   64.7442   32.4295   50.8067 H   0  0  0  0  0  0  0  0  0  0  0  0
   66.1901   32.3328   49.7452 H   0  0  0  0  0  0  0  0  0  0  0  0
   65.1734   33.8136   49.7452 H   0  0  0  0  0  0  0  0  0  0  0  0
   64.0925   33.0804   46.3408 H   0  0  0  0  0  0  0  0  0  0  0  0
   62.0631   34.1475   45.3681 H   0  0  0  0  0  0  0  0  0  0  0  0
   59.7619   32.0560   45.8955 H   0  0  0  0  0  0  0  0  0  0  0  0
   58.9903   32.0563   47.5303 H   0  0  0  0  0  0  0  0  0  0  0  0
   58.3350   30.0799   46.1327 H   0  0  0  0  0  0  0  0  0  0  0  0
   56.9392   31.1207   46.6142 H   0  0  0  0  0  0  0  0  0  0  0  0
   55.6622   29.3183   45.3786 H   0  0  0  0  0  0  0  0  0  0  0  0
   55.6627   28.4085   43.8113 H   0  0  0  0  0  0  0  0  0  0  0  0
   58.9720   29.2733   44.4339 H   0  0  0  0  0  0  0  0  0  0  0  0
   60.7335   27.7646   45.3431 H   0  0  0  0  0  0  0  0  0  0  0  0
   60.0970   25.6639   46.5213 H   0  0  0  0  0  0  0  0  0  0  0  0
   57.6952   25.0649   46.8022 H   0  0  0  0  0  0  0  0  0  0  0  0
   54.7773   24.7456   46.5791 H   0  0  0  0  0  0  0  0  0  0  0  0
   54.0911   25.4030   45.0547 H   0  0  0  0  0  0  0  0  0  0  0  0
   55.7230   24.6522   45.0547 H   0  0  0  0  0  0  0  0  0  0  0  0
   58.9222   32.4065   43.6045 H   0  0  0  0  0  0  0  0  0  0  0  0
   57.2312   32.5950   43.0119 H   0  0  0  0  0  0  0  0  0  0  0  0
   58.1422   34.5517   44.3676 H   0  0  0  0  0  0  0  0  0  0  0  0
   56.5842   33.7982   44.9687 H   0  0  0  0  0  0  0  0  0  0  0  0
   59.9948   33.6547   49.1383 H   0  0  0  0  0  0  0  0  0  0  0  0
   62.0228   32.5776   50.1123 H   0  0  0  0  0  0  0  0  0  0  0  0
  1  2  1  0
  2  3  1  0
  3  4  2  0
  4  5  1  0
  5  6  2  0
  6  7  1  0
  7  8  2  0
  7  9  2  0
  7 10  1  0
 10 11  1  0
 11 12  1  0
 12 13  1  0
 13 14  1  0
 14 15  2  0
 14 16  1  0
 16 17  1  0
 17 18  2  0
 18 19  1  0
 19 20  2  0
 20 21  1  0
 21 22  2  0
 22 23  1  0
 23 24  1  0
 13 25  1  0
 25 26  1  0
  6 27  1  0
 27 28  2  0
 28  3  1  0
 26 10  1  0
 22 17  1  0
  1 29  1  0
  1 30  1  0
  1 31  1  0
  4 32  1  0
  5 33  1  0
 11 34  1  0
 11 35  1  0
 12 36  1  0
 12 37  1  0
 16 38  1  0
 16 39  1  0
 18 40  1  0
 19 41  1  0
 20 42  1  0
 21 43  1  0
 24 44  1  0
 24 45  1  0
 24 46  1  0
 25 47  1  0
 25 48  1  0
 26 49  1  0
 26 50  1  0
 27 51  1  0
 28 52  1  0
M  END
>  <UniqueID>  (36) 
30

>  <SMILES>  (36) 
COc1ccc(S(=O)(=O)N2CCN(C(=O)Cc3ccccc3OC)CC2)cc1

>  <Energy>  (36) 
57.78476494787518

>  <Genealogy>  (36) 
COc1ccc(S(=O)(=O)N2CCN(C(=O)Cc3ccccc3OC)CC2)cc1 (3D coordinates assigned)
COc1ccc(S(=O)(=O)N2CCN(C(=O)Cc3ccccc3OC)CC2)cc1 (nonaromatic ring conformer: 57.78476494787518 kcal/mol)

>  <smiles>  (36) 
COc1ccc(S(=O)(=O)N2CCN(C(=O)Cc3ccccc3OC)CC2)cc1

>  <score_type>  (36) 
oracle

>  <origin>  (36) 
adg

>  <m_score__min__energy>  (36) 
-8.75

>  <m_primary>  (36) 
energy

$$$$
36:0
     RDKit          3D

 40 41  0  0  0  0  0  0  0  0999 V2000
   55.6850   26.5710   46.1210 N   0  0  0  0  0  0  0  0  0  0  0  0
   57.3510   26.9300   45.8200 S   0  0  0  0  0  0  0  0  0  0  0  0
   57.9650   25.7820   45.0710 O   0  0  0  0  0  0  0  0  0  0  0  0
   57.4650   28.1740   44.9850 O   0  0  0  0  0  0  0  0  0  0  0  0
   58.1870   27.1310   47.3010 O   0  0  0  0  0  0  0  0  0  0  0  0
   59.0320   28.2040   47.6170 C   0  0  0  0  0  0  0  0  0  0  0  0
   58.7440   28.9520   48.7630 C   0  0  0  0  0  0  0  0  0  0  0  0
   59.5480   30.0370   49.1260 C   0  0  0  0  0  0  0  0  0  0  0  0
   60.6470   30.3980   48.3410 C   0  0  0  0  0  0  0  0  0  0  0  0
   61.4570   31.5110   48.7460 N   0  0  0  0  0  0  0  0  0  0  0  0
   61.4690   32.8110   48.1430 C   0  0  0  0  0  0  0  0  0  0  0  0
   62.4030   33.6040   48.4380 O   0  0  0  0  0  0  0  0  0  0  0  0
   60.3930   33.2640   47.2290 C   0  0  0  0  0  0  0  0  0  0  0  0
   59.9890   34.6100   47.2080 C   0  0  0  0  0  0  0  0  0  0  0  0
   58.9870   35.0320   46.3320 C   0  0  0  0  0  0  0  0  0  0  0  0
   58.3800   34.1190   45.4670 C   0  0  0  0  0  0  0  0  0  0  0  0
   58.7620   32.7690   45.4780 C   0  0  0  0  0  0  0  0  0  0  0  0
   58.1370   31.8550   44.5620 N   0  0  0  0  0  0  0  0  0  0  0  0
   58.0000   32.0970   43.1530 C   0  0  0  0  0  0  0  0  0  0  0  0
   58.5820   33.0790   42.6170 O   0  0  0  0  0  0  0  0  0  0  0  0
   57.1340   31.2090   42.3510 C   0  0  0  0  0  0  0  0  0  0  0  0
   56.4380   30.1610   42.8170 C   0  0  0  0  0  0  0  0  0  0  0  0
   55.6860   30.1210   44.0850 C   0  0  0  0  0  0  0  0  0  0  0  0
   55.7310   31.1140   44.8580 O   0  0  0  0  0  0  0  0  0  0  0  0
   55.0050   28.9790   44.4880 O   0  0  0  0  0  0  0  0  0  0  0  0
   59.7890   32.3530   46.3450 C   0  0  0  0  0  0  0  0  0  0  0  0
   60.9610   29.6310   47.2050 C   0  0  0  0  0  0  0  0  0  0  0  0
   60.1570   28.5460   46.8420 C   0  0  0  0  0  0  0  0  0  0  0  0
   55.1460   27.4590   46.0230 H   0  0  0  0  0  0  0  0  0  0  0  0
   57.8769   28.6843   49.3847 H   0  0  0  0  0  0  0  0  0  0  0  0
   59.3142   30.6102   50.0352 H   0  0  0  0  0  0  0  0  0  0  0  0
   60.4647   35.3347   47.8852 H   0  0  0  0  0  0  0  0  0  0  0  0
   58.6748   36.0867   46.3232 H   0  0  0  0  0  0  0  0  0  0  0  0
   57.5978   34.4603   44.7730 H   0  0  0  0  0  0  0  0  0  0  0  0
   57.8570   30.9140   44.9220 H   0  0  0  0  0  0  0  0  0  0  0  0
   57.0525   31.4263   41.2758 H   0  0  0  0  0  0  0  0  0  0  0  0
   56.4273   29.2513   42.1987 H   0  0  0  0  0  0  0  0  0  0  0  0
   60.1225   31.3049   46.3310 H   0  0  0  0  0  0  0  0  0  0  0  0
   61.8431   29.8857   46.5992 H   0  0  0  0  0  0  0  0  0  0  0  0
   60.4045   27.9568   45.9467 H   0  0  0  0  0  0  0  0  0  0  0  0
  1  2  1  0
  2  3  2  0
  2  4  2  0
  2  5  1  0
  5  6  1  0
  6  7  2  0
  7  8  1  0
  8  9  2  0
  9 10  1  0
 10 11  1  0
 11 12  2  0
 11 13  1  0
 13 14  2  0
 14 15  1  0
 15 16  2  0
 16 17  1  0
 17 18  1  0
 18 19  1  0
 19 20  2  0
 19 21  1  0
 21 22  2  3
 22 23  1  0
 23 24  2  0
 23 25  1  0
 17 26  2  0
  9 27  1  0
 27 28  2  0
 28  6  1  0
 26 13  1  0
  1 29  1  0
  7 30  1  0
  8 31  1  0
 14 32  1  0
 15 33  1  0
 16 34  1  0
 18 35  1  0
 21 36  1  0
 22 37  1  0
 26 38  1  0
 27 39  1  0
 28 40  1  0
M  CHG  3   1  -1  10  -1  25  -1
M  END
>  <UniqueID>  (37) 
31

>  <SMILES>  (37) 
[NH-]S(=O)(=O)Oc1ccc([N-]C(=O)c2cccc(NC(=O)C=CC(=O)[O-])c2)cc1

>  <Energy>  (37) 
54.44972147860903

>  <Genealogy>  (37) 
[NH-]S(=O)(=O)Oc1ccc([N-]C(=O)c2cccc(NC(=O)C=CC(=O)[O-])c2)cc1 (protonated)
[NH-]S(=O)(=O)Oc1ccc([N-]C(=O)c2cccc(NC(=O)C=CC(=O)[O-])c2)cc1 (3D coordinates assigned)
[NH-]S(=O)(=O)Oc1ccc([N-]C(=O)c2cccc(NC(=O)C=CC(=O)[O-])c2)cc1 (optimized conformer: 54.44972147860903 kcal/mol)

>  <smiles>  (37) 
NS(=O)(=O)Oc1ccc(NC(=O)c2cccc(NC(=O)C=CC(=O)O)c2)cc1

>  <score_type>  (37) 
oracle

>  <origin>  (37) 
adg

>  <m_score__min__energy>  (37) 
-15.84

>  <m_primary>  (37) 
energy

$$$$
37:0
     RDKit          3D

 50 53  0  0  0  0  0  0  0  0999 V2000
   60.8480   33.6580   46.1220 N   0  0  0  0  0  0  0  0  0  0  0  0
   59.3580   34.0250   46.9190 S   0  0  0  0  0  0  0  0  0  0  0  0
   59.2700   35.5050   47.1630 O   0  0  0  0  0  0  0  0  0  0  0  0
   58.2120   33.5980   46.0430 O   0  0  0  0  0  0  0  0  0  0  0  0
   59.2940   33.1730   48.4590 C   0  0  0  0  0  0  0  0  0  0  0  0
   59.5140   33.8520   49.6660 C   0  0  0  0  0  0  0  0  0  0  0  0
   59.4040   33.1750   50.8830 C   0  0  0  0  0  0  0  0  0  0  0  0
   59.0930   31.8070   50.9060 C   0  0  0  0  0  0  0  0  0  0  0  0
   58.8630   31.1040   52.2150 C   0  0  0  0  0  0  0  0  0  0  0  0
   57.4310   30.6550   52.2950 C   0  0  0  0  0  0  0  0  0  0  0  0
   56.7760   30.4920   51.2300 O   0  0  0  0  0  0  0  0  0  0  0  0
   56.8360   30.2740   53.5440 N   0  0  0  0  0  0  0  0  0  0  0  0
   56.3880   28.9680   53.8280 N   0  0  0  0  0  0  0  0  0  0  0  0
   55.0820   28.6220   53.5850 C   0  0  0  0  0  0  0  0  0  0  0  0
   54.1170   29.5750   52.9850 C   0  0  0  0  0  0  0  0  0  0  0  0
   53.2370   30.2870   53.8140 C   0  0  0  0  0  0  0  0  0  0  0  0
   52.3110   31.1790   53.2670 C   0  0  0  0  0  0  0  0  0  0  0  0
   52.2560   31.3890   51.8790 C   0  0  0  0  0  0  0  0  0  0  0  0
   51.2610   32.3200   51.3040 C   0  0  0  0  0  0  0  0  0  0  0  0
   50.6290   33.1220   52.0450 O   0  0  0  0  0  0  0  0  0  0  0  0
   51.0170   32.3330   49.9360 O   0  0  0  0  0  0  0  0  0  0  0  0
   53.1600   30.7020   51.0520 C   0  0  0  0  0  0  0  0  0  0  0  0
   54.0890   29.8080   51.6020 C   0  0  0  0  0  0  0  0  0  0  0  0
   54.6660   27.3460   53.8160 N   0  0  0  0  0  0  0  0  0  0  0  0
   55.5020   26.4040   54.3150 C   0  0  0  0  0  0  0  0  0  0  0  0
   55.0370   25.1020   54.5380 C   0  0  0  0  0  0  0  0  0  0  0  0
   55.9020   24.1300   55.0500 C   0  0  0  0  0  0  0  0  0  0  0  0
   57.2310   24.4550   55.3420 C   0  0  0  0  0  0  0  0  0  0  0  0
   57.7000   25.7540   55.1240 C   0  0  0  0  0  0  0  0  0  0  0  0
   56.8380   26.7380   54.6080 C   0  0  0  0  0  0  0  0  0  0  0  0
   57.2590   28.0550   54.3640 C   0  0  0  0  0  0  0  0  0  0  0  0
   58.4430   28.3990   54.6410 O   0  0  0  0  0  0  0  0  0  0  0  0
   58.9020   31.1240   49.6950 C   0  0  0  0  0  0  0  0  0  0  0  0
   58.9980   31.8040   48.4780 C   0  0  0  0  0  0  0  0  0  0  0  0
   61.0570   32.6510   46.3110 H   0  0  0  0  0  0  0  0  0  0  0  0
   60.6730   33.7400   45.0940 H   0  0  0  0  0  0  0  0  0  0  0  0
   59.7739   34.9208   49.6545 H   0  0  0  0  0  0  0  0  0  0  0  0
   59.5619   33.7167   51.8273 H   0  0  0  0  0  0  0  0  0  0  0  0
   59.5264   30.2292   52.2834 H   0  0  0  0  0  0  0  0  0  0  0  0
   59.0793   31.7926   53.0451 H   0  0  0  0  0  0  0  0  0  0  0  0
   53.2764   30.1418   54.9037 H   0  0  0  0  0  0  0  0  0  0  0  0
   51.6194   31.7212   53.9286 H   0  0  0  0  0  0  0  0  0  0  0  0
   53.1387   30.8668   49.9646 H   0  0  0  0  0  0  0  0  0  0  0  0
   54.8004   29.2860   50.9452 H   0  0  0  0  0  0  0  0  0  0  0  0
   53.9921   24.8442   54.3106 H   0  0  0  0  0  0  0  0  0  0  0  0
   55.5365   23.1071   55.2236 H   0  0  0  0  0  0  0  0  0  0  0  0
   57.9083   23.6871   55.7439 H   0  0  0  0  0  0  0  0  0  0  0  0
   58.7450   26.0067   55.3565 H   0  0  0  0  0  0  0  0  0  0  0  0
   58.6755   30.0476   49.7038 H   0  0  0  0  0  0  0  0  0  0  0  0
   58.8408   31.2632   47.5331 H   0  0  0  0  0  0  0  0  0  0  0  0
  1  2  1  0
  2  3  2  0
  2  4  2  0
  2  5  1  0
  5  6  2  0
  6  7  1  0
  7  8  2  0
  8  9  1  0
  9 10  1  0
 10 11  2  0
 10 12  1  0
 12 13  1  0
 13 14  1  0
 14 15  1  0
 15 16  2  0
 16 17  1  0
 17 18  2  0
 18 19  1  0
 19 20  2  0
 19 21  1  0
 18 22  1  0
 22 23  2  0
 14 24  2  0
 24 25  1  0
 25 26  2  0
 26 27  1  0
 27 28  2  0
 28 29  1  0
 29 30  2  0
 30 31  1  0
 31 32  2  0
  8 33  1  0
 33 34  2  0
 34  5  1  0
 31 13  1  0
 23 15  1  0
 30 25  1  0
  1 35  1  0
  1 36  1  0
  6 37  1  0
  7 38  1  0
  9 39  1  0
  9 40  1  0
 16 41  1  0
 17 42  1  0
 22 43  1  0
 23 44  1  0
 26 45  1  0
 27 46  1  0
 28 47  1  0
 29 48  1  0
 33 49  1  0
 34 50  1  0
M  CHG  2  12  -1  21  -1
M  END
>  <UniqueID>  (38) 
32

>  <SMILES>  (38) 
NS(=O)(=O)c1ccc(CC(=O)[N-]n2c(-c3ccc(C(=O)[O-])cc3)nc3ccccc3c2=O)cc1

>  <Energy>  (38) 
67.86446026146632

>  <Genealogy>  (38) 
NS(=O)(=O)c1ccc(CC(=O)[N-]n2c(-c3ccc(C(=O)[O-])cc3)nc3ccccc3c2=O)cc1 (protonated)
NS(=O)(=O)c1ccc(CC(=O)[N-]n2c(-c3ccc(C(=O)[O-])cc3)nc3ccccc3c2=O)cc1 (3D coordinates assigned)
NS(=O)(=O)c1ccc(CC(=O)[N-]n2c(-c3ccc(C(=O)[O-])cc3)nc3ccccc3c2=O)cc1 (optimized conformer: 67.86446026146632 kcal/mol)

>  <smiles>  (38) 
NS(=O)(=O)c1ccc(CC(=O)Nn2c(-c3ccc(C(=O)O)cc3)nc3ccccc3c2=O)cc1

>  <score_type>  (38) 
oracle

>  <origin>  (38) 
adg

>  <m_score__min__energy>  (38) 
-12.359999999999999

>  <m_primary>  (38) 
energy

$$$$
38:0
     RDKit          3D

 37 39  0  0  0  0  0  0  0  0999 V2000
   59.5250   35.5850   46.9350 O   0  0  0  0  0  0  0  0  0  0  0  0
   59.8100   34.4690   47.4460 C   0  0  0  0  0  0  0  0  0  0  0  0
   58.7520   33.5210   47.6580 N   0  0  0  0  0  0  0  0  0  0  0  0
   58.6500   32.3290   47.1380 C   0  0  0  0  0  0  0  0  0  0  0  0
   58.5530   32.1130   45.7490 C   0  0  0  0  0  0  0  0  0  0  0  0
   58.4130   30.8130   45.2630 C   0  0  0  0  0  0  0  0  0  0  0  0
   58.3650   29.7320   46.1530 C   0  0  0  0  0  0  0  0  0  0  0  0
   58.1930   28.3830   45.6980 N   0  0  0  0  0  0  0  0  0  0  0  0
   56.9440   27.6880   45.5750 C   0  0  0  0  0  0  0  0  0  0  0  0
   55.9180   28.3450   45.2540 O   0  0  0  0  0  0  0  0  0  0  0  0
   56.8420   26.2190   45.7570 C   0  0  0  0  0  0  0  0  0  0  0  0
   58.0030   25.4240   45.7300 C   0  0  0  0  0  0  0  0  0  0  0  0
   57.9210   24.0400   45.9120 C   0  0  0  0  0  0  0  0  0  0  0  0
   56.6800   23.4330   46.1100 C   0  0  0  0  0  0  0  0  0  0  0  0
   55.5180   24.2080   46.1240 C   0  0  0  0  0  0  0  0  0  0  0  0
   55.5920   25.5950   45.9480 C   0  0  0  0  0  0  0  0  0  0  0  0
   54.4200   26.3430   45.9850 O   0  0  0  0  0  0  0  0  0  0  0  0
   58.5290   29.9800   47.5180 C   0  0  0  0  0  0  0  0  0  0  0  0
   58.6580   31.2540   47.9720 N   0  0  0  0  0  0  0  0  0  0  0  0
   61.2280   34.1380   47.7360 C   0  0  0  0  0  0  0  0  0  0  0  0
   62.1070   33.7630   46.7010 C   0  0  0  0  0  0  0  0  0  0  0  0
   63.4370   33.4400   46.9860 C   0  0  0  0  0  0  0  0  0  0  0  0
   63.9070   33.4980   48.3000 C   0  0  0  0  0  0  0  0  0  0  0  0
   63.0480   33.8820   49.3310 C   0  0  0  0  0  0  0  0  0  0  0  0
   61.7160   34.2040   49.0530 C   0  0  0  0  0  0  0  0  0  0  0  0
   58.5874   32.9638   45.0526 H   0  0  0  0  0  0  0  0  0  0  0  0
   58.3402   30.6364   44.1797 H   0  0  0  0  0  0  0  0  0  0  0  0
   58.9830   25.8953   45.5644 H   0  0  0  0  0  0  0  0  0  0  0  0
   58.8356   23.4290   45.8991 H   0  0  0  0  0  0  0  0  0  0  0  0
   56.6170   22.3444   46.2550 H   0  0  0  0  0  0  0  0  0  0  0  0
   54.5404   23.7265   46.2740 H   0  0  0  0  0  0  0  0  0  0  0  0
   58.5538   29.1403   48.2282 H   0  0  0  0  0  0  0  0  0  0  0  0
   61.7449   33.7241   45.6630 H   0  0  0  0  0  0  0  0  0  0  0  0
   64.1149   33.1395   46.1735 H   0  0  0  0  0  0  0  0  0  0  0  0
   64.9533   33.2413   48.5222 H   0  0  0  0  0  0  0  0  0  0  0  0
   63.4199   33.9314   50.3650 H   0  0  0  0  0  0  0  0  0  0  0  0
   61.0459   34.5108   49.8696 H   0  0  0  0  0  0  0  0  0  0  0  0
  1  2  2  0
  2  3  1  0
  3  4  2  3
  4  5  1  0
  5  6  2  0
  6  7  1  0
  7  8  1  0
  8  9  1  0
  9 10  2  0
  9 11  1  0
 11 12  2  0
 12 13  1  0
 13 14  2  0
 14 15  1  0
 15 16  2  0
 16 17  1  0
  7 18  2  0
 18 19  1  0
  2 20  1  0
 20 21  2  0
 21 22  1  0
 22 23  2  0
 23 24  1  0
 24 25  2  0
 19  4  1  0
 25 20  1  0
 16 11  1  0
  5 26  1  0
  6 27  1  0
 12 28  1  0
 13 29  1  0
 14 30  1  0
 15 31  1  0
 18 32  1  0
 21 33  1  0
 22 34  1  0
 23 35  1  0
 24 36  1  0
 25 37  1  0
M  CHG  3   8  -1  17  -1  19  -1
M  END
>  <UniqueID>  (39) 
33

>  <SMILES>  (39) 
O=C(N=c1ccc([N-]C(=O)c2ccccc2[O-])c[n-]1)c1ccccc1

>  <Energy>  (39) 
58.88784898170099

>  <Genealogy>  (39) 
O=C(N=c1ccc([N-]C(=O)c2ccccc2[O-])c[n-]1)c1ccccc1 (protonated)
O=C(N=c1ccc([N-]C(=O)c2ccccc2[O-])c[n-]1)c1ccccc1 (3D coordinates assigned)
O=C(N=c1ccc([N-]C(=O)c2ccccc2[O-])c[n-]1)c1ccccc1 (optimized conformer: 58.88784898170099 kcal/mol)

>  <smiles>  (39) 
O=C(N=c1ccc(NC(=O)c2ccccc2O)c[nH]1)c1ccccc1

>  <score_type>  (39) 
oracle

>  <origin>  (39) 
adg

>  <m_score__min__energy>  (39) 
-14.880000000000001

>  <m_primary>  (39) 
energy

$$$$
39:0
     RDKit          3D

 40 43  0  0  0  0  0  0  0  0999 V2000
   55.9140   21.1740   44.0820 O   0  0  0  0  0  0  0  0  0  0  0  0
   55.8990   22.3260   43.5730 C   0  0  0  0  0  0  0  0  0  0  0  0
   55.5140   22.4710   42.2450 O   0  0  0  0  0  0  0  0  0  0  0  0
   56.2890   23.5080   44.3740 C   0  0  0  0  0  0  0  0  0  0  0  0
   55.7380   23.7130   45.6500 C   0  0  0  0  0  0  0  0  0  0  0  0
   56.1040   24.8290   46.4090 C   0  0  0  0  0  0  0  0  0  0  0  0
   57.0150   25.7690   45.8980 C   0  0  0  0  0  0  0  0  0  0  0  0
   57.4430   26.9120   46.6580 N   0  0  0  0  0  0  0  0  0  0  0  0
   57.5510   28.1350   46.2270 C   0  0  0  0  0  0  0  0  0  0  0  0
   58.2500   29.1070   46.8750 N   0  0  0  0  0  0  0  0  0  0  0  0
   58.0450   30.1830   46.0930 C   0  0  0  0  0  0  0  0  0  0  0  0
   58.5330   31.4730   46.2770 C   0  0  0  0  0  0  0  0  0  0  0  0
   58.1830   32.4620   45.3250 C   0  0  0  0  0  0  0  0  0  0  0  0
   58.6790   33.8510   45.4710 C   0  0  0  0  0  0  0  0  0  0  0  0
   58.5520   34.6620   44.5140 O   0  0  0  0  0  0  0  0  0  0  0  0
   59.2220   34.2850   46.7300 N   0  0  0  0  0  0  0  0  0  0  0  0
   60.4290   34.1370   47.2030 C   0  0  0  0  0  0  0  0  0  0  0  0
   60.6110   34.2340   48.5890 C   0  0  0  0  0  0  0  0  0  0  0  0
   61.8850   34.0770   49.1390 C   0  0  0  0  0  0  0  0  0  0  0  0
   62.9480   33.8160   48.3330 N   0  0  0  0  0  0  0  0  0  0  0  0
   62.8080   33.6990   46.9870 C   0  0  0  0  0  0  0  0  0  0  0  0
   61.5500   33.8500   46.3950 C   0  0  0  0  0  0  0  0  0  0  0  0
   57.3530   32.1060   44.2240 C   0  0  0  0  0  0  0  0  0  0  0  0
   56.8780   30.7900   44.0750 C   0  0  0  0  0  0  0  0  0  0  0  0
   57.2500   29.8570   45.0350 C   0  0  0  0  0  0  0  0  0  0  0  0
   56.9230   28.5620   45.1060 N   0  0  0  0  0  0  0  0  0  0  0  0
   57.5890   25.5480   44.6400 C   0  0  0  0  0  0  0  0  0  0  0  0
   57.2230   24.4340   43.8780 C   0  0  0  0  0  0  0  0  0  0  0  0
   55.0138   22.9907   46.0548 H   0  0  0  0  0  0  0  0  0  0  0  0
   55.6761   24.9719   47.4122 H   0  0  0  0  0  0  0  0  0  0  0  0
   59.1727   31.7180   47.1377 H   0  0  0  0  0  0  0  0  0  0  0  0
   59.7501   34.4339   49.2440 H   0  0  0  0  0  0  0  0  0  0  0  0
   62.0285   34.1647   50.2261 H   0  0  0  0  0  0  0  0  0  0  0  0
   63.6866   33.4849   46.3608 H   0  0  0  0  0  0  0  0  0  0  0  0
   61.4349   33.7457   45.3060 H   0  0  0  0  0  0  0  0  0  0  0  0
   57.0798   32.8694   43.4807 H   0  0  0  0  0  0  0  0  0  0  0  0
   56.2346   30.5096   43.2280 H   0  0  0  0  0  0  0  0  0  0  0  0
   56.3220   28.0110   44.4530 H   0  0  0  0  0  0  0  0  0  0  0  0
   58.3337   26.2563   44.2480 H   0  0  0  0  0  0  0  0  0  0  0  0
   57.6689   24.2814   42.8841 H   0  0  0  0  0  0  0  0  0  0  0  0
  1  2  2  0
  2  3  1  0
  2  4  1  0
  4  5  2  0
  5  6  1  0
  6  7  2  0
  7  8  1  0
  8  9  2  3
  9 10  1  0
 10 11  1  0
 11 12  2  0
 12 13  1  0
 13 14  1  0
 14 15  2  0
 14 16  1  0
 16 17  2  3
 17 18  1  0
 18 19  2  0
 19 20  1  0
 20 21  1  0
 21 22  2  0
 13 23  2  0
 23 24  1  0
 24 25  2  0
 25 26  1  0
  7 27  1  0
 27 28  2  0
 28  4  1  0
 26  9  1  0
 25 11  1  0
 22 17  1  0
  5 29  1  0
  6 30  1  0
 12 31  1  0
 18 32  1  0
 19 33  1  0
 21 34  1  0
 22 35  1  0
 23 36  1  0
 24 37  1  0
 26 38  1  0
 27 39  1  0
 28 40  1  0
M  CHG  3   3  -1  10  -1  20  -1
M  END
>  <UniqueID>  (40) 
34

>  <SMILES>  (40) 
O=C([O-])c1ccc(N=c2[n-]c3cc(C(=O)N=c4cc[n-]cc4)ccc3[nH]2)cc1

>  <Energy>  (40) 
97.53827365277002

>  <Genealogy>  (40) 
O=C([O-])c1ccc(N=c2[n-]c3cc(C(=O)N=c4cc[n-]cc4)ccc3[nH]2)cc1 (protonated)
O=C([O-])c1ccc(N=c2[n-]c3cc(C(=O)N=c4cc[n-]cc4)ccc3[nH]2)cc1 (3D coordinates assigned)
O=C([O-])c1ccc(N=c2[n-]c3cc(C(=O)N=c4cc[n-]cc4)ccc3[nH]2)cc1 (optimized conformer: 97.53827365277002 kcal/mol)

>  <smiles>  (40) 
O=C(O)c1ccc(N=c2[nH]c3ccc(C(=O)N=c4cc[nH]cc4)cc3[nH]2)cc1

>  <score_type>  (40) 
oracle

>  <origin>  (40) 
adg

>  <m_score__min__energy>  (40) 
-12.460000000000001

>  <m_primary>  (40) 
energy

$$$$
40:0
     RDKit          3D

 70 73  0  0  0  0  0  0  0  0999 V2000
   59.3880   35.2500   44.8670 C   0  0  0  0  0  0  0  0  0  0  0  0
   58.9160   35.2610   46.2090 O   0  0  0  0  0  0  0  0  0  0  0  0
   58.8950   34.1440   47.0590 C   0  0  0  0  0  0  0  0  0  0  0  0
   59.2690   34.2280   48.4150 C   0  0  0  0  0  0  0  0  0  0  0  0
   59.2580   33.0870   49.2400 C   0  0  0  0  0  0  0  0  0  0  0  0
   59.7520   33.1180   50.6450 C   0  0  0  0  0  0  0  0  0  0  0  0
   59.2630   33.9560   51.4500 O   0  0  0  0  0  0  0  0  0  0  0  0
   60.7270   32.1790   51.1270 N   0  0  0  0  0  0  0  0  0  0  0  0
   60.9250   31.9650   52.5630 C   0  0  0  0  0  0  0  0  0  0  0  0
   60.5480   30.5350   52.9550 C   0  0  0  0  0  0  0  0  0  0  0  0
   59.8690   29.6430   51.5160 S   0  0  0  0  0  0  0  0  0  0  0  0
   58.1650   29.9110   52.0090 C   0  0  0  0  0  0  0  0  0  0  0  0
   57.4970   28.9610   52.7930 C   0  0  0  0  0  0  0  0  0  0  0  0
   56.1660   29.1720   53.1710 C   0  0  0  0  0  0  0  0  0  0  0  0
   55.5000   30.3350   52.7660 C   0  0  0  0  0  0  0  0  0  0  0  0
   56.1650   31.2820   51.9780 C   0  0  0  0  0  0  0  0  0  0  0  0
   57.4940   31.0690   51.5970 C   0  0  0  0  0  0  0  0  0  0  0  0
   58.7840   31.8760   48.7030 C   0  0  0  0  0  0  0  0  0  0  0  0
   58.4000   31.7910   47.3640 C   0  0  0  0  0  0  0  0  0  0  0  0
   58.4910   32.9150   46.5230 C   0  0  0  0  0  0  0  0  0  0  0  0
   58.2100   32.8520   45.1490 O   0  0  0  0  0  0  0  0  0  0  0  0
   57.0610   32.2420   44.5660 C   0  0  0  0  0  0  0  0  0  0  0  0
   57.1590   30.7650   44.7560 C   0  0  0  0  0  0  0  0  0  0  0  0
   56.1080   30.0790   44.8720 O   0  0  0  0  0  0  0  0  0  0  0  0
   58.4440   30.1370   44.8170 N   0  0  0  0  0  0  0  0  0  0  0  0
   58.7710   29.0610   45.7070 C   0  0  0  0  0  0  0  0  0  0  0  0
   57.9150   27.9530   45.7620 C   0  0  0  0  0  0  0  0  0  0  0  0
   58.1770   26.9010   46.6450 C   0  0  0  0  0  0  0  0  0  0  0  0
   59.3060   26.9420   47.4660 C   0  0  0  0  0  0  0  0  0  0  0  0
   60.1900   28.0210   47.3880 C   0  0  0  0  0  0  0  0  0  0  0  0
   59.9540   29.0720   46.4810 C   0  0  0  0  0  0  0  0  0  0  0  0
   60.8740   30.1680   46.3620 N   0  0  0  0  0  0  0  0  0  0  0  0
   61.6060   30.8200   47.4080 C   0  0  0  0  0  0  0  0  0  0  0  0
   61.3660   30.4950   48.6020 O   0  0  0  0  0  0  0  0  0  0  0  0
   62.5910   31.9240   47.1330 C   0  0  0  0  0  0  0  0  0  0  0  0
   63.0320   32.5850   48.4130 C   0  0  0  0  0  0  0  0  0  0  0  0
   62.5310   33.8510   48.7690 C   0  0  0  0  0  0  0  0  0  0  0  0
   62.9600   34.4720   49.9460 C   0  0  0  0  0  0  0  0  0  0  0  0
   63.8890   33.8380   50.7760 C   0  0  0  0  0  0  0  0  0  0  0  0
   64.3950   32.5820   50.4270 C   0  0  0  0  0  0  0  0  0  0  0  0
   63.9790   31.9630   49.2440 C   0  0  0  0  0  0  0  0  0  0  0  0
   60.4877   35.2244   44.8653 H   0  0  0  0  0  0  0  0  0  0  0  0
   58.9997   34.3607   44.3490 H   0  0  0  0  0  0  0  0  0  0  0  0
   59.0416   36.1565   44.3490 H   0  0  0  0  0  0  0  0  0  0  0  0
   59.5737   35.1981   48.8347 H   0  0  0  0  0  0  0  0  0  0  0  0
   61.2360   31.5630   50.4580 H   0  0  0  0  0  0  0  0  0  0  0  0
   61.9821   32.1405   52.8116 H   0  0  0  0  0  0  0  0  0  0  0  0
   60.2809   32.6643   53.1163 H   0  0  0  0  0  0  0  0  0  0  0  0
   61.4439   30.0099   53.3179 H   0  0  0  0  0  0  0  0  0  0  0  0
   59.7854   30.5701   53.7470 H   0  0  0  0  0  0  0  0  0  0  0  0
   58.0198   28.0473   53.1121 H   0  0  0  0  0  0  0  0  0  0  0  0
   55.6435   28.4245   53.7860 H   0  0  0  0  0  0  0  0  0  0  0  0
   54.4555   30.5045   53.0666 H   0  0  0  0  0  0  0  0  0  0  0  0
   55.6416   32.1950   51.6580 H   0  0  0  0  0  0  0  0  0  0  0  0
   58.0125   31.8119   50.9731 H   0  0  0  0  0  0  0  0  0  0  0  0
   58.7153   30.9861   49.3459 H   0  0  0  0  0  0  0  0  0  0  0  0
   58.0235   30.8383   46.9633 H   0  0  0  0  0  0  0  0  0  0  0  0
   56.1517   32.6194   45.0567 H   0  0  0  0  0  0  0  0  0  0  0  0
   57.0118   32.4808   43.4934 H   0  0  0  0  0  0  0  0  0  0  0  0
   57.0322   27.9106   45.1071 H   0  0  0  0  0  0  0  0  0  0  0  0
   57.4934   26.0405   46.6930 H   0  0  0  0  0  0  0  0  0  0  0  0
   59.4995   26.1236   48.1751 H   0  0  0  0  0  0  0  0  0  0  0  0
   61.0760   28.0498   48.0392 H   0  0  0  0  0  0  0  0  0  0  0  0
   63.4705   31.5029   46.6240 H   0  0  0  0  0  0  0  0  0  0  0  0
   62.1034   32.6788   46.4986 H   0  0  0  0  0  0  0  0  0  0  0  0
   61.7995   34.3536   48.1192 H   0  0  0  0  0  0  0  0  0  0  0  0
   62.5655   35.4618   50.2194 H   0  0  0  0  0  0  0  0  0  0  0  0
   64.2219   34.3270   51.7034 H   0  0  0  0  0  0  0  0  0  0  0  0
   65.1210   32.0803   51.0837 H   0  0  0  0  0  0  0  0  0  0  0  0
   64.3952   30.9844   48.9627 H   0  0  0  0  0  0  0  0  0  0  0  0
  1  2  1  0
  2  3  1  0
  3  4  2  0
  4  5  1  0
  5  6  1  0
  6  7  2  0
  6  8  1  0
  8  9  1  0
  9 10  1  0
 10 11  1  0
 11 12  1  0
 12 13  2  0
 13 14  1  0
 14 15  2  0
 15 16  1  0
 16 17  2  0
  5 18  2  0
 18 19  1  0
 19 20  2  0
 20 21  1  0
 21 22  1  0
 22 23  1  0
 23 24  2  0
 23 25  1  0
 25 26  1  0
 26 27  2  0
 27 28  1  0
 28 29  2  0
 29 30  1  0
 30 31  2  0
 31 32  1  0
 32 33  1  0
 33 34  2  0
 33 35  1  0
 35 36  1  0
 36 37  2  0
 37 38  1  0
 38 39  2  0
 39 40  1  0
 40 41  2  0
 20  3  1  0
 31 26  1  0
 41 36  1  0
 17 12  1  0
  1 42  1  0
  1 43  1  0
  1 44  1  0
  4 45  1  0
  8 46  1  0
  9 47  1  0
  9 48  1  0
 10 49  1  0
 10 50  1  0
 13 51  1  0
 14 52  1  0
 15 53  1  0
 16 54  1  0
 17 55  1  0
 18 56  1  0
 19 57  1  0
 22 58  1  0
 22 59  1  0
 27 60  1  0
 28 61  1  0
 29 62  1  0
 30 63  1  0
 35 64  1  0
 35 65  1  0
 37 66  1  0
 38 67  1  0
 39 68  1  0
 40 69  1  0
 41 70  1  0
M  CHG  2  25  -1  32  -1
M  END
>  <UniqueID>  (41) 
35

>  <SMILES>  (41) 
COc1cc(C(=O)NCCSc2ccccc2)ccc1OCC(=O)[N-]c1ccccc1[N-]C(=O)Cc1ccccc1

>  <Energy>  (41) 
78.01360371033986

>  <Genealogy>  (41) 
COc1cc(C(=O)NCCSc2ccccc2)ccc1OCC(=O)[N-]c1ccccc1[N-]C(=O)Cc1ccccc1 (protonated)
COc1cc(C(=O)NCCSc2ccccc2)ccc1OCC(=O)[N-]c1ccccc1[N-]C(=O)Cc1ccccc1 (3D coordinates assigned)
COc1cc(C(=O)NCCSc2ccccc2)ccc1OCC(=O)[N-]c1ccccc1[N-]C(=O)Cc1ccccc1 (optimized conformer: 78.01360371033986 kcal/mol)

>  <smiles>  (41) 
COc1cc(C(=O)NCCSc2ccccc2)ccc1OCC(=O)Nc1ccccc1NC(=O)Cc1ccccc1

>  <score_type>  (41) 
oracle

>  <origin>  (41) 
adg

>  <m_score__min__energy>  (41) 
-11.35

>  <m_primary>  (41) 
energy

$$$$
41:0
     RDKit          3D

 52 54  0  0  0  0  0  0  0  0999 V2000
   57.0430   31.0750   51.7510 C   0  0  0  0  0  0  0  0  0  0  0  0
   57.7500   29.9810   51.2070 O   0  0  0  0  0  0  0  0  0  0  0  0
   59.0990   30.0030   51.6370 C   0  0  0  0  0  0  0  0  0  0  0  0
   59.9330   28.9620   50.8800 C   0  0  0  0  0  0  0  0  0  0  0  0
   60.3150   29.4490   49.5460 N   0  0  0  0  0  0  0  0  0  0  0  0
   60.0750   28.6450   48.3700 C   0  0  0  0  0  0  0  0  0  0  0  0
   60.4540   27.4430   48.3450 O   0  0  0  0  0  0  0  0  0  0  0  0
   59.4170   29.2080   47.1710 C   0  0  0  0  0  0  0  0  0  0  0  0
   60.0510   30.3760   46.1590 S   0  0  0  0  0  0  0  0  0  0  0  0
   58.8740   30.4160   44.9960 N   0  0  0  0  0  0  0  0  0  0  0  0
   57.9310   29.5070   45.3580 C   0  0  0  0  0  0  0  0  0  0  0  0
   56.7010   29.3420   44.5570 C   0  0  0  0  0  0  0  0  0  0  0  0
   55.5330   28.7920   45.1610 N   0  0  0  0  0  0  0  0  0  0  0  0
   56.6850   29.6360   43.3330 O   0  0  0  0  0  0  0  0  0  0  0  0
   58.2210   28.8010   46.5640 C   0  0  0  0  0  0  0  0  0  0  0  0
   57.3940   27.7620   47.1010 N   0  0  0  0  0  0  0  0  0  0  0  0
   60.7690   30.8090   49.4120 C   0  0  0  0  0  0  0  0  0  0  0  0
   59.8960   31.8300   48.9860 C   0  0  0  0  0  0  0  0  0  0  0  0
   58.5300   31.4950   48.6800 N   0  0  0  0  0  0  0  0  0  0  0  0
   60.3450   33.1360   48.9270 N   0  0  0  0  0  0  0  0  0  0  0  0
   59.4060   34.2470   48.6520 C   0  0  0  0  0  0  0  0  0  0  0  0
   58.9080   34.1780   47.2290 C   0  0  0  0  0  0  0  0  0  0  0  0
   59.7020   34.6470   46.1680 C   0  0  0  0  0  0  0  0  0  0  0  0
   59.2440   34.5560   44.8490 C   0  0  0  0  0  0  0  0  0  0  0  0
   57.9870   34.0060   44.5810 C   0  0  0  0  0  0  0  0  0  0  0  0
   57.1830   33.5540   45.6320 C   0  0  0  0  0  0  0  0  0  0  0  0
   57.6370   33.6440   46.9500 C   0  0  0  0  0  0  0  0  0  0  0  0
   61.6570   33.4140   49.2340 C   0  0  0  0  0  0  0  0  0  0  0  0
   62.1020   34.5920   49.1730 O   0  0  0  0  0  0  0  0  0  0  0  0
   62.4980   32.4260   49.6260 N   0  0  0  0  0  0  0  0  0  0  0  0
   62.0850   31.1440   49.7340 C   0  0  0  0  0  0  0  0  0  0  0  0
   62.8950   30.2620   50.1230 O   0  0  0  0  0  0  0  0  0  0  0  0
   57.0763   31.0235   52.8493 H   0  0  0  0  0  0  0  0  0  0  0  0
   57.5052   32.0145   51.4138 H   0  0  0  0  0  0  0  0  0  0  0  0
   55.9966   31.0395   51.4138 H   0  0  0  0  0  0  0  0  0  0  0  0
   59.5189   31.0030   51.4537 H   0  0  0  0  0  0  0  0  0  0  0  0
   59.1292   29.7638   52.7103 H   0  0  0  0  0  0  0  0  0  0  0  0
   60.8444   28.7453   51.4566 H   0  0  0  0  0  0  0  0  0  0  0  0
   59.3247   28.0539   50.7564 H   0  0  0  0  0  0  0  0  0  0  0  0
   58.8570   31.0430   44.1610 H   0  0  0  0  0  0  0  0  0  0  0  0
   54.6580   29.3560   45.2500 H   0  0  0  0  0  0  0  0  0  0  0  0
   57.7690   27.0820   47.7990 H   0  0  0  0  0  0  0  0  0  0  0  0
   56.4210   27.6100   46.7570 H   0  0  0  0  0  0  0  0  0  0  0  0
   57.8710   31.1770   49.4250 H   0  0  0  0  0  0  0  0  0  0  0  0
   58.1470   31.5120   47.7130 H   0  0  0  0  0  0  0  0  0  0  0  0
   58.5499   34.1759   49.3390 H   0  0  0  0  0  0  0  0  0  0  0  0
   59.9318   35.2019   48.7991 H   0  0  0  0  0  0  0  0  0  0  0  0
   60.6882   35.0877   46.3757 H   0  0  0  0  0  0  0  0  0  0  0  0
   59.8734   34.9174   44.0224 H   0  0  0  0  0  0  0  0  0  0  0  0
   57.6304   33.9288   43.5433 H   0  0  0  0  0  0  0  0  0  0  0  0
   56.1916   33.1269   45.4206 H   0  0  0  0  0  0  0  0  0  0  0  0
   56.9971   33.2954   47.7740 H   0  0  0  0  0  0  0  0  0  0  0  0
  1  2  1  0
  2  3  1  0
  3  4  1  0
  4  5  1  0
  5  6  1  0
  6  7  2  0
  6  8  1  0
  8  9  1  0
  9 10  1  0
 10 11  2  0
 11 12  1  0
 12 13  1  0
 12 14  2  0
 11 15  1  0
 15 16  1  0
  5 17  1  0
 17 18  2  0
 18 19  1  0
 18 20  1  0
 20 21  1  0
 21 22  1  0
 22 23  2  0
 23 24  1  0
 24 25  2  0
 25 26  1  0
 26 27  2  0
 20 28  1  0
 28 29  2  0
 28 30  1  0
 30 31  1  0
 31 32  2  0
 15  8  2  0
 31 17  1  0
 27 22  1  0
  1 33  1  0
  1 34  1  0
  1 35  1  0
  3 36  1  0
  3 37  1  0
  4 38  1  0
  4 39  1  0
 10 40  1  0
 13 41  1  0
 16 42  1  0
 16 43  1  0
 19 44  1  0
 19 45  1  0
 21 46  1  0
 21 47  1  0
 23 48  1  0
 24 49  1  0
 25 50  1  0
 26 51  1  0
 27 52  1  0
M  CHG  3  10   1  13  -1  30  -1
M  END
>  <UniqueID>  (42) 
36

>  <SMILES>  (42) 
COCCN(C(=O)c1s[nH+]c(C([NH-])=O)c1N)c1c(N)n(Cc2ccccc2)c(=O)[n-]c1=O

>  <Energy>  (42) 
103.78750660188179

>  <Genealogy>  (42) 
COCCN(C(=O)c1s[nH+]c(C([NH-])=O)c1N)c1c(N)n(Cc2ccccc2)c(=O)[n-]c1=O (protonated)
COCCN(C(=O)c1s[nH+]c(C([NH-])=O)c1N)c1c(N)n(Cc2ccccc2)c(=O)[n-]c1=O (3D coordinates assigned)
COCCN(C(=O)c1s[nH+]c(C([NH-])=O)c1N)c1c(N)n(Cc2ccccc2)c(=O)[n-]c1=O (optimized conformer: 103.78750660188179 kcal/mol)

>  <smiles>  (42) 
COCCN(C(=O)c1snc(C(N)=O)c1N)c1c(N)n(Cc2ccccc2)c(=O)[nH]c1=O

>  <score_type>  (42) 
oracle

>  <origin>  (42) 
adg

>  <m_score__min__energy>  (42) 
-10.15

>  <m_primary>  (42) 
energy

$$$$
42:0
     RDKit          3D

 39 41  0  0  0  0  0  0  0  0999 V2000
   58.2910   32.8340   46.6070 C   0  0  0  0  0  0  0  0  0  0  0  0
   57.7970   31.5690   45.9620 C   0  0  0  0  0  0  0  0  0  0  0  0
   57.0400   31.6280   44.8670 N   0  0  0  0  0  0  0  0  0  0  0  0
   56.6110   30.4800   44.3110 C   0  0  0  0  0  0  0  0  0  0  0  0
   55.8960   30.4760   43.2800 O   0  0  0  0  0  0  0  0  0  0  0  0
   56.9400   29.2380   44.8510 C   0  0  0  0  0  0  0  0  0  0  0  0
   57.7290   29.2440   45.9880 C   0  0  0  0  0  0  0  0  0  0  0  0
   58.1100   27.9650   46.6050 C   0  0  0  0  0  0  0  0  0  0  0  0
   57.3800   26.7980   46.0780 C   0  0  0  0  0  0  0  0  0  0  0  0
   57.9210   25.9300   45.1300 C   0  0  0  0  0  0  0  0  0  0  0  0
   56.9790   24.9510   44.8560 C   0  0  0  0  0  0  0  0  0  0  0  0
   57.0200   23.8670   43.9990 C   0  0  0  0  0  0  0  0  0  0  0  0
   55.9330   22.9970   43.8850 C   0  0  0  0  0  0  0  0  0  0  0  0
   56.0510   21.9550   43.0190 O   0  0  0  0  0  0  0  0  0  0  0  0
   56.6480   20.7220   43.2610 C   0  0  0  0  0  0  0  0  0  0  0  0
   56.5100   20.2360   44.6530 C   0  0  0  0  0  0  0  0  0  0  0  0
   57.4850   20.3360   45.6510 N   0  0  0  0  0  0  0  0  0  0  0  0
   55.4110   19.6840   44.9550 O   0  0  0  0  0  0  0  0  0  0  0  0
   54.8450   23.2880   44.6680 C   0  0  0  0  0  0  0  0  0  0  0  0
   54.8030   24.3790   45.5320 C   0  0  0  0  0  0  0  0  0  0  0  0
   55.8820   25.2300   45.6360 C   0  0  0  0  0  0  0  0  0  0  0  0
   56.1530   26.3330   46.3480 N   0  0  0  0  0  0  0  0  0  0  0  0
   58.1570   30.4150   46.5430 N   0  0  0  0  0  0  0  0  0  0  0  0
   58.2496   32.7281   47.7011 H   0  0  0  0  0  0  0  0  0  0  0  0
   59.3290   33.0230   46.2959 H   0  0  0  0  0  0  0  0  0  0  0  0
   57.6558   33.6765   46.2959 H   0  0  0  0  0  0  0  0  0  0  0  0
   56.5900   28.2996   44.3961 H   0  0  0  0  0  0  0  0  0  0  0  0
   59.1848   27.8058   46.4331 H   0  0  0  0  0  0  0  0  0  0  0  0
   57.8554   28.0411   47.6724 H   0  0  0  0  0  0  0  0  0  0  0  0
   58.9210   26.0086   44.6785 H   0  0  0  0  0  0  0  0  0  0  0  0
   57.9230   23.6867   43.3973 H   0  0  0  0  0  0  0  0  0  0  0  0
   56.1887   19.9804   42.5909 H   0  0  0  0  0  0  0  0  0  0  0  0
   57.7250   20.8550   43.0812 H   0  0  0  0  0  0  0  0  0  0  0  0
   58.4280   19.9050   45.4740 H   0  0  0  0  0  0  0  0  0  0  0  0
   57.3440   20.8100   46.5620 H   0  0  0  0  0  0  0  0  0  0  0  0
   53.9657   22.6295   44.6107 H   0  0  0  0  0  0  0  0  0  0  0  0
   53.9022   24.5630   46.1359 H   0  0  0  0  0  0  0  0  0  0  0  0
   55.4920   26.7870   47.0380 H   0  0  0  0  0  0  0  0  0  0  0  0
   58.7480   30.3880   47.3960 H   0  0  0  0  0  0  0  0  0  0  0  0
  1  2  1  0
  2  3  2  0
  3  4  1  0
  4  5  2  0
  4  6  1  0
  6  7  2  0
  7  8  1  0
  8  9  1  0
  9 10  2  0
 10 11  1  0
 11 12  2  0
 12 13  1  0
 13 14  1  0
 14 15  1  0
 15 16  1  0
 16 17  1  0
 16 18  2  0
 13 19  2  0
 19 20  1  0
 20 21  2  0
 21 22  1  0
  7 23  1  0
 23  2  1  0
 22  9  1  0
 21 11  1  0
  1 24  1  0
  1 25  1  0
  1 26  1  0
  6 27  1  0
  8 28  1  0
  8 29  1  0
 10 30  1  0
 12 31  1  0
 15 32  1  0
 15 33  1  0
 17 34  1  0
 17 35  1  0
 19 36  1  0
 20 37  1  0
 22 38  1  0
 23 39  1  0
M  END
>  <smiles>  (43) 
Cc1nc(=O)cc(Cc2cc3cc(OCC(N)=O)ccc3[nH]2)[nH]1

>  <score_type>  (43) 
oracle

>  <origin>  (43) 
adg

>  <m_score__min__energy>  (43) 
-8.0700000000000003

>  <m_primary>  (43) 
energy

$$$$
43:0
     RDKit          3D

 35 38  0  0  0  0  0  0  0  0999 V2000
   63.0410   34.5210   49.7450 N   0  0  0  0  0  0  0  0  0  0  0  0
   62.1430   34.2240   49.0790 C   0  0  0  0  0  0  0  0  0  0  0  0
   61.0250   33.8550   48.2490 C   0  0  0  0  0  0  0  0  0  0  0  0
   60.0220   34.7910   47.9700 C   0  0  0  0  0  0  0  0  0  0  0  0
   58.9350   34.4370   47.1660 C   0  0  0  0  0  0  0  0  0  0  0  0
   58.8410   33.1430   46.6330 C   0  0  0  0  0  0  0  0  0  0  0  0
   57.7530   32.7790   45.8240 C   0  0  0  0  0  0  0  0  0  0  0  0
   57.6720   31.4910   45.2790 C   0  0  0  0  0  0  0  0  0  0  0  0
   56.5320   31.1550   44.4760 N   0  0  0  0  0  0  0  0  0  0  0  0
   56.0700   29.8340   44.1750 C   0  0  0  0  0  0  0  0  0  0  0  0
   56.0390   29.4620   42.9720 O   0  0  0  0  0  0  0  0  0  0  0  0
   55.7080   28.9320   45.2350 N   0  0  0  0  0  0  0  0  0  0  0  0
   56.2550   27.7800   45.4880 C   0  0  0  0  0  0  0  0  0  0  0  0
   57.5710   27.5070   45.2730 N   0  0  0  0  0  0  0  0  0  0  0  0
   57.6650   26.2300   45.6690 C   0  0  0  0  0  0  0  0  0  0  0  0
   58.7980   25.4200   45.6700 C   0  0  0  0  0  0  0  0  0  0  0  0
   58.6560   24.0990   46.1350 C   0  0  0  0  0  0  0  0  0  0  0  0
   57.3990   23.6290   46.5790 C   0  0  0  0  0  0  0  0  0  0  0  0
   56.2750   24.4770   46.5620 C   0  0  0  0  0  0  0  0  0  0  0  0
   56.4540   25.7780   46.0960 C   0  0  0  0  0  0  0  0  0  0  0  0
   55.5330   26.7470   45.9920 N   0  0  0  0  0  0  0  0  0  0  0  0
   58.6680   30.5470   45.5850 C   0  0  0  0  0  0  0  0  0  0  0  0
   59.7550   30.9000   46.3900 C   0  0  0  0  0  0  0  0  0  0  0  0
   59.8540   32.1950   46.9150 C   0  0  0  0  0  0  0  0  0  0  0  0
   60.9420   32.5590   47.7240 C   0  0  0  0  0  0  0  0  0  0  0  0
   60.0896   35.8076   48.3846 H   0  0  0  0  0  0  0  0  0  0  0  0
   58.1497   35.1765   46.9503 H   0  0  0  0  0  0  0  0  0  0  0  0
   56.9582   33.5106   45.6165 H   0  0  0  0  0  0  0  0  0  0  0  0
   59.7694   25.7991   45.3198 H   0  0  0  0  0  0  0  0  0  0  0  0
   59.5280   23.4287   46.1530 H   0  0  0  0  0  0  0  0  0  0  0  0
   57.2983   22.5948   46.9399 H   0  0  0  0  0  0  0  0  0  0  0  0
   55.2907   24.1250   46.9044 H   0  0  0  0  0  0  0  0  0  0  0  0
   58.5914   29.5239   45.1883 H   0  0  0  0  0  0  0  0  0  0  0  0
   60.5359   30.1578   46.6121 H   0  0  0  0  0  0  0  0  0  0  0  0
   61.7308   31.8252   47.9460 H   0  0  0  0  0  0  0  0  0  0  0  0
  1  2  3  0
  2  3  1  0
  3  4  2  0
  4  5  1  0
  5  6  2  0
  6  7  1  0
  7  8  2  0
  8  9  1  0
  9 10  1  0
 10 11  2  0
 10 12  1  0
 12 13  2  3
 13 14  1  0
 14 15  1  0
 15 16  2  0
 16 17  1  0
 17 18  2  0
 18 19  1  0
 19 20  2  0
 20 21  1  0
  8 22  1  0
 22 23  2  0
 23 24  1  0
 24 25  2  0
 25  3  1  0
 24  6  1  0
 21 13  1  0
 20 15  1  0
  4 26  1  0
  5 27  1  0
  7 28  1  0
 16 29  1  0
 17 30  1  0
 18 31  1  0
 19 32  1  0
 22 33  1  0
 23 34  1  0
 25 35  1  0
M  CHG  3   9  -1  14  -1  21  -1
M  END
>  <UniqueID>  (44) 
37

>  <SMILES>  (44) 
N#Cc1ccc2cc([N-]C(=O)N=c3[n-]c4ccccc4[n-]3)ccc2c1

>  <Energy>  (44) 
82.61972120265203

>  <Genealogy>  (44) 
N#Cc1ccc2cc([N-]C(=O)N=c3[n-]c4ccccc4[n-]3)ccc2c1 (protonated)
N#Cc1ccc2cc([N-]C(=O)N=c3[n-]c4ccccc4[n-]3)ccc2c1 (3D coordinates assigned)
N#Cc1ccc2cc([N-]C(=O)N=c3[n-]c4ccccc4[n-]3)ccc2c1 (optimized conformer: 82.61972120265203 kcal/mol)

>  <smiles>  (44) 
N#Cc1ccc2cc(NC(=O)N=c3[nH]c4ccccc4[nH]3)ccc2c1

>  <score_type>  (44) 
oracle

>  <origin>  (44) 
adg

>  <m_score__min__energy>  (44) 
-12.539999999999999

>  <m_primary>  (44) 
energy

$$$$
44:0
     RDKit          3D

 44 46  0  0  0  0  0  0  0  0999 V2000
   64.0230   34.5580   51.9540 C   0  0  0  0  0  0  0  0  0  0  0  0
   64.2090   33.4750   51.0490 O   0  0  0  0  0  0  0  0  0  0  0  0
   63.6210   33.3960   49.7780 C   0  0  0  0  0  0  0  0  0  0  0  0
   64.3640   33.1000   48.6190 C   0  0  0  0  0  0  0  0  0  0  0  0
   63.7340   33.0500   47.3730 C   0  0  0  0  0  0  0  0  0  0  0  0
   62.3610   33.2830   47.2720 C   0  0  0  0  0  0  0  0  0  0  0  0
   61.6030   33.5520   48.4160 C   0  0  0  0  0  0  0  0  0  0  0  0
   60.2290   33.7890   48.2750 O   0  0  0  0  0  0  0  0  0  0  0  0
   59.4380   33.3080   47.2240 C   0  0  0  0  0  0  0  0  0  0  0  0
   58.7410   31.7760   47.1080 S   0  0  0  0  0  0  0  0  0  0  0  0
   58.0660   32.0160   45.5820 C   0  0  0  0  0  0  0  0  0  0  0  0
   57.2790   31.0220   44.8400 C   0  0  0  0  0  0  0  0  0  0  0  0
   56.0470   31.2130   44.6530 O   0  0  0  0  0  0  0  0  0  0  0  0
   57.9100   29.8200   44.3790 N   0  0  0  0  0  0  0  0  0  0  0  0
   58.0630   28.6000   45.1200 C   0  0  0  0  0  0  0  0  0  0  0  0
   59.2930   28.3380   45.7340 C   0  0  0  0  0  0  0  0  0  0  0  0
   59.4880   27.1540   46.4510 C   0  0  0  0  0  0  0  0  0  0  0  0
   58.4590   26.2160   46.5460 C   0  0  0  0  0  0  0  0  0  0  0  0
   57.2290   26.4540   45.9160 C   0  0  0  0  0  0  0  0  0  0  0  0
   55.9280   25.2690   46.0050 S   0  0  0  0  0  0  0  0  0  0  0  0
   56.1620   24.0310   44.7490 C   0  0  0  0  0  0  0  0  0  0  0  0
   54.5990   25.9360   45.7830 O   0  0  0  0  0  0  0  0  0  0  0  0
   55.9330   24.6260   47.3620 O   0  0  0  0  0  0  0  0  0  0  0  0
   57.0370   27.6420   45.1970 C   0  0  0  0  0  0  0  0  0  0  0  0
   58.3870   33.2970   45.1420 C   0  0  0  0  0  0  0  0  0  0  0  0
   59.1610   34.0160   46.0630 C   0  0  0  0  0  0  0  0  0  0  0  0
   59.6230   35.3560   45.8220 C   0  0  0  0  0  0  0  0  0  0  0  0
   59.9950   36.4340   45.6290 N   0  0  0  0  0  0  0  0  0  0  0  0
   62.2440   33.6250   49.6660 C   0  0  0  0  0  0  0  0  0  0  0  0
   64.0867   34.1871   52.9876 H   0  0  0  0  0  0  0  0  0  0  0  0
   64.8045   35.3139   51.7868 H   0  0  0  0  0  0  0  0  0  0  0  0
   63.0341   35.0098   51.7868 H   0  0  0  0  0  0  0  0  0  0  0  0
   65.4443   32.9074   48.6949 H   0  0  0  0  0  0  0  0  0  0  0  0
   64.3208   32.8266   46.4698 H   0  0  0  0  0  0  0  0  0  0  0  0
   61.8727   33.2548   46.2867 H   0  0  0  0  0  0  0  0  0  0  0  0
   60.1114   29.0683   45.6519 H   0  0  0  0  0  0  0  0  0  0  0  0
   60.4538   26.9613   46.9410 H   0  0  0  0  0  0  0  0  0  0  0  0
   58.6131   25.2881   47.1162 H   0  0  0  0  0  0  0  0  0  0  0  0
   56.3462   23.0564   45.2246 H   0  0  0  0  0  0  0  0  0  0  0  0
   55.2597   23.9688   44.1229 H   0  0  0  0  0  0  0  0  0  0  0  0
   57.0248   24.3024   44.1229 H   0  0  0  0  0  0  0  0  0  0  0  0
   56.0781   27.8256   44.6902 H   0  0  0  0  0  0  0  0  0  0  0  0
   58.0662   33.7032   44.1714 H   0  0  0  0  0  0  0  0  0  0  0  0
   61.6573   33.8645   50.5651 H   0  0  0  0  0  0  0  0  0  0  0  0
  1  2  1  0
  2  3  1  0
  3  4  2  0
  4  5  1  0
  5  6  2  0
  6  7  1  0
  7  8  1  0
  8  9  1  0
  9 10  1  0
 10 11  1  0
 11 12  1  0
 12 13  2  0
 12 14  1  0
 14 15  1  0
 15 16  2  0
 16 17  1  0
 17 18  2  0
 18 19  1  0
 19 20  1  0
 20 21  1  0
 20 22  2  0
 20 23  2  0
 19 24  2  0
 11 25  2  0
 25 26  1  0
 26 27  1  0
 27 28  3  0
  7 29  2  0
 29  3  1  0
 26  9  2  0
 24 15  1  0
  1 30  1  0
  1 31  1  0
  1 32  1  0
  4 33  1  0
  5 34  1  0
  6 35  1  0
 16 36  1  0
 17 37  1  0
 18 38  1  0
 21 39  1  0
 21 40  1  0
 21 41  1  0
 24 42  1  0
 25 43  1  0
 29 44  1  0
M  CHG  1  14  -1
M  END
>  <UniqueID>  (45) 
38

>  <SMILES>  (45) 
COc1cccc(Oc2sc(C(=O)[N-]c3cccc(S(C)(=O)=O)c3)cc2C#N)c1

>  <Energy>  (45) 
77.06467250401914

>  <Genealogy>  (45) 
COc1cccc(Oc2sc(C(=O)[N-]c3cccc(S(C)(=O)=O)c3)cc2C#N)c1 (protonated)
COc1cccc(Oc2sc(C(=O)[N-]c3cccc(S(C)(=O)=O)c3)cc2C#N)c1 (3D coordinates assigned)
COc1cccc(Oc2sc(C(=O)[N-]c3cccc(S(C)(=O)=O)c3)cc2C#N)c1 (optimized conformer: 77.06467250401914 kcal/mol)

>  <smiles>  (45) 
COc1cccc(Oc2sc(C(=O)Nc3cccc(S(C)(=O)=O)c3)cc2C#N)c1

>  <score_type>  (45) 
oracle

>  <origin>  (45) 
adg

>  <m_score__min__energy>  (45) 
-10.199999999999999

>  <m_primary>  (45) 
energy

$$$$
45:0
     RDKit          3D

 50 52  0  0  0  0  0  0  0  0999 V2000
   56.5790   22.6380   47.1870 C   0  0  0  0  0  0  0  0  0  0  0  0
   57.2620   23.7610   47.7340 O   0  0  0  0  0  0  0  0  0  0  0  0
   57.5120   24.9540   47.0400 C   0  0  0  0  0  0  0  0  0  0  0  0
   58.7830   25.5630   47.0240 C   0  0  0  0  0  0  0  0  0  0  0  0
   58.9910   26.7590   46.3180 C   0  0  0  0  0  0  0  0  0  0  0  0
   60.3530   27.4020   46.2950 C   0  0  0  0  0  0  0  0  0  0  0  0
   60.2890   28.9100   46.0050 C   0  0  0  0  0  0  0  0  0  0  0  0
   59.7160   29.7100   47.1620 C   0  0  0  0  0  0  0  0  0  0  0  0
   59.6990   29.0850   48.4200 C   0  0  0  0  0  0  0  0  0  0  0  0
   59.3080   29.7750   49.5620 C   0  0  0  0  0  0  0  0  0  0  0  0
   59.2990   29.1200   50.7920 O   0  0  0  0  0  0  0  0  0  0  0  0
   58.9490   31.1200   49.4720 C   0  0  0  0  0  0  0  0  0  0  0  0
   58.9450   31.7780   48.2290 C   0  0  0  0  0  0  0  0  0  0  0  0
   58.6360   33.1470   48.1340 O   0  0  0  0  0  0  0  0  0  0  0  0
   59.5950   34.1950   48.0590 C   0  0  0  0  0  0  0  0  0  0  0  0
   59.2600   31.0580   47.0480 C   0  0  0  0  0  0  0  0  0  0  0  0
   59.1640   31.7710   45.7030 C   0  0  0  0  0  0  0  0  0  0  0  0
   58.0650   31.2530   44.7980 C   0  0  0  0  0  0  0  0  0  0  0  0
   58.0720   31.5980   43.4350 C   0  0  0  0  0  0  0  0  0  0  0  0
   57.1010   31.0870   42.5700 C   0  0  0  0  0  0  0  0  0  0  0  0
   56.1210   30.2160   43.0520 C   0  0  0  0  0  0  0  0  0  0  0  0
   56.1120   29.8520   44.4010 C   0  0  0  0  0  0  0  0  0  0  0  0
   55.1380   28.9830   44.8790 O   0  0  0  0  0  0  0  0  0  0  0  0
   57.0830   30.3600   45.2680 C   0  0  0  0  0  0  0  0  0  0  0  0
   57.9200   27.3500   45.6320 C   0  0  0  0  0  0  0  0  0  0  0  0
   56.6570   26.7560   45.6540 C   0  0  0  0  0  0  0  0  0  0  0  0
   56.4530   25.5630   46.3520 C   0  0  0  0  0  0  0  0  0  0  0  0
   55.1900   24.9830   46.3650 O   0  0  0  0  0  0  0  0  0  0  0  0
   56.1960   22.0083   48.0036 H   0  0  0  0  0  0  0  0  0  0  0  0
   55.7393   22.9857   46.5674 H   0  0  0  0  0  0  0  0  0  0  0  0
   57.2740   22.0523   46.5674 H   0  0  0  0  0  0  0  0  0  0  0  0
   59.6181   25.0981   47.5685 H   0  0  0  0  0  0  0  0  0  0  0  0
   60.8304   27.2514   47.2745 H   0  0  0  0  0  0  0  0  0  0  0  0
   60.9305   26.9310   45.4859 H   0  0  0  0  0  0  0  0  0  0  0  0
   61.3072   29.2713   45.7985 H   0  0  0  0  0  0  0  0  0  0  0  0
   59.6216   29.0525   45.1423 H   0  0  0  0  0  0  0  0  0  0  0  0
   60.0006   28.0304   48.5031 H   0  0  0  0  0  0  0  0  0  0  0  0
   58.7960   29.4910   51.5890 H   0  0  0  0  0  0  0  0  0  0  0  0
   58.6665   31.6708   50.3813 H   0  0  0  0  0  0  0  0  0  0  0  0
   59.8791   34.5055   49.0753 H   0  0  0  0  0  0  0  0  0  0  0  0
   60.4863   33.8386   47.5218 H   0  0  0  0  0  0  0  0  0  0  0  0
   59.1611   35.0513   47.5218 H   0  0  0  0  0  0  0  0  0  0  0  0
   58.9796   32.8389   45.8919 H   0  0  0  0  0  0  0  0  0  0  0  0
   60.1143   31.5862   45.1808 H   0  0  0  0  0  0  0  0  0  0  0  0
   58.8473   32.2749   43.0469 H   0  0  0  0  0  0  0  0  0  0  0  0
   57.1083   31.3711   41.5074 H   0  0  0  0  0  0  0  0  0  0  0  0
   55.3563   29.8167   42.3695 H   0  0  0  0  0  0  0  0  0  0  0  0
   57.0802   30.0598   46.3263 H   0  0  0  0  0  0  0  0  0  0  0  0
   58.0759   28.2853   45.0744 H   0  0  0  0  0  0  0  0  0  0  0  0
   55.8195   27.2287   45.1200 H   0  0  0  0  0  0  0  0  0  0  0  0
  1  2  1  0
  2  3  1  0
  3  4  2  0
  4  5  1  0
  5  6  1  0
  6  7  1  0
  7  8  1  0
  8  9  2  0
  9 10  1  0
 10 11  1  0
 10 12  2  0
 12 13  1  0
 13 14  1  0
 14 15  1  0
 13 16  2  0
 16 17  1  0
 17 18  1  0
 18 19  2  0
 19 20  1  0
 20 21  2  0
 21 22  1  0
 22 23  1  0
 22 24  2  0
  5 25  2  0
 25 26  1  0
 26 27  2  0
 27 28  1  0
 27  3  1  0
 16  8  1  0
 24 18  1  0
  1 29  1  0
  1 30  1  0
  1 31  1  0
  4 32  1  0
  6 33  1  0
  6 34  1  0
  7 35  1  0
  7 36  1  0
  9 37  1  0
 11 38  1  0
 12 39  1  0
 15 40  1  0
 15 41  1  0
 15 42  1  0
 17 43  1  0
 17 44  1  0
 19 45  1  0
 20 46  1  0
 21 47  1  0
 24 48  1  0
 25 49  1  0
 26 50  1  0
M  CHG  2  23  -1  28  -1
M  END
>  <UniqueID>  (46) 
39

>  <SMILES>  (46) 
COc1cc(CCc2cc(O)cc(OC)c2Cc2cccc([O-])c2)ccc1[O-]

>  <Energy>  (46) 
51.01016424575816

>  <Genealogy>  (46) 
COc1cc(CCc2cc(O)cc(OC)c2Cc2cccc([O-])c2)ccc1[O-] (protonated)
COc1cc(CCc2cc(O)cc(OC)c2Cc2cccc([O-])c2)ccc1[O-] (3D coordinates assigned)
COc1cc(CCc2cc(O)cc(OC)c2Cc2cccc([O-])c2)ccc1[O-] (optimized conformer: 51.01016424575816 kcal/mol)

>  <smiles>  (46) 
COc1cc(CCc2cc(O)cc(OC)c2Cc2cccc(O)c2)ccc1O

>  <score_type>  (46) 
oracle

>  <origin>  (46) 
adg

>  <m_score__min__energy>  (46) 
-13.27

>  <m_primary>  (46) 
energy

$$$$
46:0
     RDKit          3D

 49 51  0  0  0  0  0  0  0  0999 V2000
   58.2290   27.9590   45.6040 C   0  0  0  0  0  0  0  0  0  0  0  0
   58.4890   29.4540   45.7010 C   0  0  0  0  0  0  0  0  0  0  0  0
   57.7010   30.3540   44.9460 C   0  0  0  0  0  0  0  0  0  0  0  0
   56.4770   29.9200   44.2280 C   0  0  0  0  0  0  0  0  0  0  0  0
   56.5040   29.6820   42.8190 N   0  0  0  0  0  0  0  0  0  0  0  0
   55.4080   29.7250   44.8680 O   0  0  0  0  0  0  0  0  0  0  0  0
   58.0800   31.7020   44.9020 C   0  0  0  0  0  0  0  0  0  0  0  0
   57.3970   32.5150   44.2160 O   0  0  0  0  0  0  0  0  0  0  0  0
   59.1750   32.1390   45.5970 N   0  0  0  0  0  0  0  0  0  0  0  0
   59.6060   33.5510   45.5050 C   0  0  0  0  0  0  0  0  0  0  0  0
   58.9670   34.3680   46.5910 C   0  0  0  0  0  0  0  0  0  0  0  0
   58.8820   33.9100   47.8460 C   0  0  0  0  0  0  0  0  0  0  0  0
   60.0190   33.8970   48.7960 C   0  0  0  0  0  0  0  0  0  0  0  0
   61.3050   34.1980   48.3160 C   0  0  0  0  0  0  0  0  0  0  0  0
   62.4070   34.1790   49.1760 C   0  0  0  0  0  0  0  0  0  0  0  0
   62.2380   33.8450   50.5220 C   0  0  0  0  0  0  0  0  0  0  0  0
   60.9690   33.5310   51.0100 C   0  0  0  0  0  0  0  0  0  0  0  0
   59.8630   33.5520   50.1550 C   0  0  0  0  0  0  0  0  0  0  0  0
   59.8880   31.2630   46.3750 C   0  0  0  0  0  0  0  0  0  0  0  0
   60.9060   31.6800   47.0030 O   0  0  0  0  0  0  0  0  0  0  0  0
   59.5190   29.9430   46.4800 N   0  0  0  0  0  0  0  0  0  0  0  0
   60.2520   29.0860   47.4480 C   0  0  0  0  0  0  0  0  0  0  0  0
   59.8320   29.3910   48.8680 C   0  0  0  0  0  0  0  0  0  0  0  0
   58.8980   30.4100   49.1260 C   0  0  0  0  0  0  0  0  0  0  0  0
   58.5050   30.6920   50.4390 C   0  0  0  0  0  0  0  0  0  0  0  0
   59.0420   29.9630   51.5020 C   0  0  0  0  0  0  0  0  0  0  0  0
   59.9730   28.9500   51.2570 C   0  0  0  0  0  0  0  0  0  0  0  0
   60.3700   28.6620   49.9470 C   0  0  0  0  0  0  0  0  0  0  0  0
   61.2790   27.6770   49.7330 F   0  0  0  0  0  0  0  0  0  0  0  0
   58.1550   27.5333   46.6156 H   0  0  0  0  0  0  0  0  0  0  0  0
   57.2871   27.7850   45.0631 H   0  0  0  0  0  0  0  0  0  0  0  0
   59.0568   27.4772   45.0631 H   0  0  0  0  0  0  0  0  0  0  0  0
   55.6280   29.4200   42.3130 H   0  0  0  0  0  0  0  0  0  0  0  0
   57.3980   29.7440   42.2830 H   0  0  0  0  0  0  0  0  0  0  0  0
   60.6998   33.6031   45.6089 H   0  0  0  0  0  0  0  0  0  0  0  0
   59.2981   33.9540   44.5289 H   0  0  0  0  0  0  0  0  0  0  0  0
   58.5611   35.3617   46.3506 H   0  0  0  0  0  0  0  0  0  0  0  0
   57.9128   33.5211   48.1917 H   0  0  0  0  0  0  0  0  0  0  0  0
   61.4457   34.4507   47.2547 H   0  0  0  0  0  0  0  0  0  0  0  0
   63.4077   34.4272   48.7927 H   0  0  0  0  0  0  0  0  0  0  0  0
   63.1060   33.8295   51.1976 H   0  0  0  0  0  0  0  0  0  0  0  0
   60.8385   33.2664   52.0697 H   0  0  0  0  0  0  0  0  0  0  0  0
   58.8659   33.2982   50.5440 H   0  0  0  0  0  0  0  0  0  0  0  0
   60.0368   28.0299   47.2282 H   0  0  0  0  0  0  0  0  0  0  0  0
   61.3288   29.2884   47.3499 H   0  0  0  0  0  0  0  0  0  0  0  0
   58.4743   30.9882   48.2917 H   0  0  0  0  0  0  0  0  0  0  0  0
   57.7722   31.4889   50.6340 H   0  0  0  0  0  0  0  0  0  0  0  0
   58.7318   30.1863   52.5335 H   0  0  0  0  0  0  0  0  0  0  0  0
   60.3947   28.3777   52.0964 H   0  0  0  0  0  0  0  0  0  0  0  0
  1  2  1  0
  2  3  2  0
  3  4  1  0
  4  5  1  0
  4  6  2  0
  3  7  1  0
  7  8  2  0
  7  9  1  0
  9 10  1  0
 10 11  1  0
 11 12  2  3
 12 13  1  0
 13 14  2  0
 14 15  1  0
 15 16  2  0
 16 17  1  0
 17 18  2  0
  9 19  1  0
 19 20  2  0
 19 21  1  0
 21 22  1  0
 22 23  1  0
 23 24  2  0
 24 25  1  0
 25 26  2  0
 26 27  1  0
 27 28  2  0
 28 29  1  0
 21  2  1  0
 28 23  1  0
 18 13  1  0
  1 30  1  0
  1 31  1  0
  1 32  1  0
  5 33  1  0
  5 34  1  0
 10 35  1  0
 10 36  1  0
 11 37  1  0
 12 38  1  0
 14 39  1  0
 15 40  1  0
 16 41  1  0
 17 42  1  0
 18 43  1  0
 22 44  1  0
 22 45  1  0
 24 46  1  0
 25 47  1  0
 26 48  1  0
 27 49  1  0
M  END
>  <UniqueID>  (47) 
40

>  <SMILES>  (47) 
Cc1c(C(N)=O)c(=O)n(CC=Cc2ccccc2)c(=O)n1Cc1ccccc1F

>  <Energy>  (47) 
70.79684123330003

>  <Genealogy>  (47) 
Cc1c(C(N)=O)c(=O)n(CC=Cc2ccccc2)c(=O)n1Cc1ccccc1F (3D coordinates assigned)
Cc1c(C(N)=O)c(=O)n(CC=Cc2ccccc2)c(=O)n1Cc1ccccc1F (optimized conformer: 70.79684123330003 kcal/mol)

>  <smiles>  (47) 
Cc1c(C(N)=O)c(=O)n(CC=Cc2ccccc2)c(=O)n1Cc1ccccc1F

>  <score_type>  (47) 
oracle

>  <origin>  (47) 
adg

>  <m_score__min__energy>  (47) 
-8.75

>  <m_primary>  (47) 
energy

$$$$
47:0
     RDKit          3D

 55 59  0  0  0  0  0  0  0  0999 V2000
   56.9990   30.0820   51.3570 O   0  0  0  0  0  0  0  0  0  0  0  0
   58.1430   30.3680   50.9060 C   0  0  0  0  0  0  0  0  0  0  0  0
   58.9420   29.3620   50.2720 N   0  0  0  0  0  0  0  0  0  0  0  0
   59.4240   29.3820   48.9210 C   0  0  0  0  0  0  0  0  0  0  0  0
   58.7500   28.6370   47.9540 C   0  0  0  0  0  0  0  0  0  0  0  0
   59.2060   28.6240   46.6380 C   0  0  0  0  0  0  0  0  0  0  0  0
   60.3510   29.3450   46.2970 C   0  0  0  0  0  0  0  0  0  0  0  0
   60.7440   29.3340   45.0970 O   0  0  0  0  0  0  0  0  0  0  0  0
   61.0380   30.0510   47.2550 N   0  0  0  0  0  0  0  0  0  0  0  0
   62.2320   30.8380   46.9050 C   0  0  0  0  0  0  0  0  0  0  0  0
   62.5990   31.7560   48.0410 C   0  0  0  0  0  0  0  0  0  0  0  0
   62.5550   33.1490   47.8660 C   0  0  0  0  0  0  0  0  0  0  0  0
   62.9310   34.0030   48.9070 C   0  0  0  0  0  0  0  0  0  0  0  0
   63.3610   33.4730   50.1270 C   0  0  0  0  0  0  0  0  0  0  0  0
   63.4210   32.0890   50.3050 C   0  0  0  0  0  0  0  0  0  0  0  0
   63.0440   31.2320   49.2650 C   0  0  0  0  0  0  0  0  0  0  0  0
   60.5900   30.0740   48.5510 C   0  0  0  0  0  0  0  0  0  0  0  0
   58.6840   31.6820   51.1260 N   0  0  0  0  0  0  0  0  0  0  0  0
   59.2860   31.9490   52.4440 C   0  0  0  0  0  0  0  0  0  0  0  0
   59.4420   33.4510   52.6930 C   0  0  0  0  0  0  0  0  0  0  0  0
   60.0620   34.0760   51.5740 O   0  0  0  0  0  0  0  0  0  0  0  0
   59.6530   33.7780   50.2740 C   0  0  0  0  0  0  0  0  0  0  0  0
   59.9690   34.6480   49.2280 C   0  0  0  0  0  0  0  0  0  0  0  0
   59.4930   34.3940   47.9400 C   0  0  0  0  0  0  0  0  0  0  0  0
   58.6870   33.2770   47.6950 C   0  0  0  0  0  0  0  0  0  0  0  0
   58.0520   32.9840   46.0770 S   0  0  0  0  0  0  0  0  0  0  0  0
   56.8320   33.8300   45.8360 O   0  0  0  0  0  0  0  0  0  0  0  0
   59.1080   33.3490   45.0720 O   0  0  0  0  0  0  0  0  0  0  0  0
   57.6330   31.3130   45.8720 N   0  0  0  0  0  0  0  0  0  0  0  0
   57.0560   30.8210   44.8190 C   0  0  0  0  0  0  0  0  0  0  0  0
   55.9620   30.0370   44.8990 N   0  0  0  0  0  0  0  0  0  0  0  0
   55.5240   29.6640   43.6660 C   0  0  0  0  0  0  0  0  0  0  0  0
   56.2740   30.1480   42.5990 C   0  0  0  0  0  0  0  0  0  0  0  0
   57.5280   31.0780   43.2200 S   0  0  0  0  0  0  0  0  0  0  0  0
   58.3970   32.3860   48.7380 C   0  0  0  0  0  0  0  0  0  0  0  0
   58.9130   32.6070   50.0310 C   0  0  0  0  0  0  0  0  0  0  0  0
   57.8564   28.0584   48.2310 H   0  0  0  0  0  0  0  0  0  0  0  0
   58.6664   28.0484   45.8715 H   0  0  0  0  0  0  0  0  0  0  0  0
   63.0709   30.1558   46.7032 H   0  0  0  0  0  0  0  0  0  0  0  0
   62.0159   31.4410   46.0107 H   0  0  0  0  0  0  0  0  0  0  0  0
   62.2232   33.5699   46.9054 H   0  0  0  0  0  0  0  0  0  0  0  0
   62.8885   35.0931   48.7660 H   0  0  0  0  0  0  0  0  0  0  0  0
   63.6521   34.1460   50.9469 H   0  0  0  0  0  0  0  0  0  0  0  0
   63.7648   31.6724   51.2633 H   0  0  0  0  0  0  0  0  0  0  0  0
   63.0966   30.1425   49.4072 H   0  0  0  0  0  0  0  0  0  0  0  0
   61.1497   30.6406   49.3097 H   0  0  0  0  0  0  0  0  0  0  0  0
   58.6403   31.5219   53.2255 H   0  0  0  0  0  0  0  0  0  0  0  0
   60.2848   31.4887   52.4680 H   0  0  0  0  0  0  0  0  0  0  0  0
   58.4495   33.8971   52.8539 H   0  0  0  0  0  0  0  0  0  0  0  0
   60.0721   33.6026   53.5818 H   0  0  0  0  0  0  0  0  0  0  0  0
   60.5930   35.5335   49.4189 H   0  0  0  0  0  0  0  0  0  0  0  0
   59.7526   35.0743   47.1155 H   0  0  0  0  0  0  0  0  0  0  0  0
   54.6399   29.0253   43.5231 H   0  0  0  0  0  0  0  0  0  0  0  0
   56.0798   29.9553   41.5336 H   0  0  0  0  0  0  0  0  0  0  0  0
   57.7623   31.5083   48.5459 H   0  0  0  0  0  0  0  0  0  0  0  0
  1  2  2  0
  2  3  1  0
  3  4  1  0
  4  5  1  0
  5  6  2  0
  6  7  1  0
  7  8  2  0
  7  9  1  0
  9 10  1  0
 10 11  1  0
 11 12  2  0
 12 13  1  0
 13 14  2  0
 14 15  1  0
 15 16  2  0
  9 17  1  0
  2 18  1  0
 18 19  1  0
 19 20  1  0
 20 21  1  0
 21 22  1  0
 22 23  2  0
 23 24  1  0
 24 25  2  0
 25 26  1  0
 26 27  2  0
 26 28  2  0
 26 29  1  0
 29 30  2  3
 30 31  1  0
 31 32  1  0
 32 33  2  0
 33 34  1  0
 25 35  1  0
 35 36  2  0
 17  4  2  0
 36 18  1  0
 16 11  1  0
 36 22  1  0
 34 30  1  0
  5 37  1  0
  6 38  1  0
 10 39  1  0
 10 40  1  0
 12 41  1  0
 13 42  1  0
 14 43  1  0
 15 44  1  0
 16 45  1  0
 17 46  1  0
 19 47  1  0
 19 48  1  0
 20 49  1  0
 20 50  1  0
 23 51  1  0
 24 52  1  0
 32 53  1  0
 33 54  1  0
 35 55  1  0
M  CHG  2   3  -1  31  -1
M  END
>  <UniqueID>  (48) 
41

>  <SMILES>  (48) 
O=C([N-]c1ccc(=O)n(Cc2ccccc2)c1)N1CCOc2ccc(S(=O)(=O)N=c3[n-]ccs3)cc21

>  <Energy>  (48) 
105.87389229479851

>  <Genealogy>  (48) 
O=C([N-]c1ccc(=O)n(Cc2ccccc2)c1)N1CCOc2ccc(S(=O)(=O)N=c3[n-]ccs3)cc21 (protonated)
O=C([N-]c1ccc(=O)n(Cc2ccccc2)c1)N1CCOc2ccc(S(=O)(=O)N=c3[n-]ccs3)cc21 (3D coordinates assigned)
O=C([N-]c1ccc(=O)n(Cc2ccccc2)c1)N1CCOc2ccc(S(=O)(=O)N=c3[n-]ccs3)cc21 (nonaromatic ring conformer: 105.87389229479851 kcal/mol)

>  <smiles>  (48) 
O=C(Nc1ccc(=O)n(Cc2ccccc2)c1)N1CCOc2ccc(S(=O)(=O)N=c3[nH]ccs3)cc21

>  <score_type>  (48) 
oracle

>  <origin>  (48) 
adg

>  <m_score__min__energy>  (48) 
-14.59

>  <m_primary>  (48) 
energy

$$$$
48:0
     RDKit          3D

 38 40  0  0  0  0  0  0  0  0999 V2000
   54.7740   29.1020   42.9630 H   0  0  0  0  0  0  0  0  0  0  0  0
   54.7770   29.3440   43.9460 O   0  0  0  0  0  0  0  0  0  0  0  0
   55.9250   29.2010   44.7200 C   0  0  0  0  0  0  0  0  0  0  0  0
   56.2590   28.0410   45.3300 N   0  0  0  0  0  0  0  0  0  0  0  0
   57.4170   28.3220   45.9630 C   0  0  0  0  0  0  0  0  0  0  0  0
   58.1650   27.4400   46.7380 C   0  0  0  0  0  0  0  0  0  0  0  0
   57.8354   26.4013   46.8880 H   0  0  0  0  0  0  0  0  0  0  0  0
   59.3510   27.9110   47.3230 C   0  0  0  0  0  0  0  0  0  0  0  0
   59.9580   27.2320   47.9399 H   0  0  0  0  0  0  0  0  0  0  0  0
   59.7780   29.2500   47.1300 C   0  0  0  0  0  0  0  0  0  0  0  0
   60.9970   29.7170   47.7370 N   0  0  0  0  0  0  0  0  0  0  0  0
   61.2510   29.4650   48.9320 O   0  0  0  0  0  0  0  0  0  0  0  0
   61.9050   30.4500   47.0060 O   0  0  0  0  0  0  0  0  0  0  0  0
   58.9940   30.1200   46.3350 C   0  0  0  0  0  0  0  0  0  0  0  0
   59.3028   31.1626   46.1686 H   0  0  0  0  0  0  0  0  0  0  0  0
   57.8190   29.6230   45.7670 C   0  0  0  0  0  0  0  0  0  0  0  0
   56.8560   30.1980   44.9620 C   0  0  0  0  0  0  0  0  0  0  0  0
   56.7880   31.5360   44.4580 N   0  0  0  0  0  0  0  0  0  0  0  0
   56.6570   32.5410   45.2230 N   0  0  0  0  0  0  0  0  0  0  0  0
   57.7910   33.2600   45.7120 C   0  0  0  0  0  0  0  0  0  0  0  0
   58.2950   34.5740   44.8710 S   0  0  0  0  0  0  0  0  0  0  0  0
   58.3390   32.9600   47.0080 N   0  0  0  0  0  0  0  0  0  0  0  0
   57.7010   32.5400   47.7220 H   0  0  0  0  0  0  0  0  0  0  0  0
   59.6930   33.2410   47.4030 C   0  0  0  0  0  0  0  0  0  0  0  0
   60.7290   33.3080   46.4570 C   0  0  0  0  0  0  0  0  0  0  0  0
   60.5061   33.1655   45.3893 H   0  0  0  0  0  0  0  0  0  0  0  0
   62.0420   33.5550   46.8670 C   0  0  0  0  0  0  0  0  0  0  0  0
   62.8473   33.6166   46.1202 H   0  0  0  0  0  0  0  0  0  0  0  0
   62.3350   33.7240   48.2230 C   0  0  0  0  0  0  0  0  0  0  0  0
   63.3687   33.9262   48.5401 H   0  0  0  0  0  0  0  0  0  0  0  0
   61.3100   33.6360   49.1840 C   0  0  0  0  0  0  0  0  0  0  0  0
   61.5530   33.7870   50.5570 O   0  0  0  0  0  0  0  0  0  0  0  0
   62.8350   33.6670   51.1650 C   0  0  0  0  0  0  0  0  0  0  0  0
   62.7242   33.6774   52.2594 H   0  0  0  0  0  0  0  0  0  0  0  0
   63.3019   32.7212   50.8527 H   0  0  0  0  0  0  0  0  0  0  0  0
   63.4693   34.5097   50.8527 H   0  0  0  0  0  0  0  0  0  0  0  0
   59.9970   33.3870   48.7640 C   0  0  0  0  0  0  0  0  0  0  0  0
   59.1942   33.3050   49.5115 H   0  0  0  0  0  0  0  0  0  0  0  0
  1  2  1  0
  2  3  1  0
  3  4  1  0
  4  5  1  0
  5  6  2  0
  6  7  1  0
  6  8  1  0
  8  9  1  0
  8 10  2  0
 10 11  1  0
 11 12  2  0
 11 13  1  0
 10 14  1  0
 14 15  1  0
 14 16  2  0
 16 17  1  0
 17 18  1  0
 18 19  2  0
 19 20  1  0
 20 21  2  0
 20 22  1  0
 22 23  1  0
 22 24  1  0
 24 25  2  0
 25 26  1  0
 25 27  1  0
 27 28  1  0
 27 29  2  0
 29 30  1  0
 29 31  1  0
 31 32  1  0
 32 33  1  0
 33 34  1  0
 33 35  1  0
 33 36  1  0
 31 37  2  0
 37 38  1  0
 17  3  2  0
 37 24  1  0
 16  5  1  0
M  CHG  3   4  -1  11   1  13  -1
M  END
>  <UniqueID>  (49) 
42

>  <SMILES>  (49) 
COc1cccc(NC(=S)/N=N/c2c(O)[n-]c3ccc([N+](=O)[O-])cc23)c1

>  <Energy>  (49) 
78.99869501626831

>  <Genealogy>  (49) 
COc1cccc(NC(=S)N=Nc2c(O)[n-]c3ccc([N+](=O)[O-])cc23)c1 (protonated)
COc1cccc(NC(=S)/N=N/c2c(O)[n-]c3ccc([N+](=O)[O-])cc23)c1 (cis-trans isomerization)
COc1cccc(NC(=S)/N=N/c2c(O)[n-]c3ccc([N+](=O)[O-])cc23)c1 (3D coordinates assigned)
COc1cccc(NC(=S)/N=N/c2c(O)[n-]c3ccc([N+](=O)[O-])cc23)c1 (optimized conformer: 78.99869501626831 kcal/mol)

>  <smiles>  (49) 
COc1cccc(NC(=S)N=Nc2c(O)[nH]c3ccc([N+](=O)[O-])cc23)c1

>  <score_type>  (49) 
oracle

>  <origin>  (49) 
adg

>  <m_score__min__energy>  (49) 
-9.6600000000000001

>  <m_primary>  (49) 
energy

$$$$
49:0
     RDKit          3D

 62 64  0  0  0  0  0  0  0  0999 V2000
   59.6980   33.5860   49.8950 C   0  0  0  0  0  0  0  0  0  0  0  0
   60.6390   34.2630   48.8970 C   0  0  0  0  0  0  0  0  0  0  0  0
   62.1150   33.9110   49.1410 C   0  0  0  0  0  0  0  0  0  0  0  0
   62.6230   32.8050   48.2040 C   0  0  0  0  0  0  0  0  0  0  0  0
   61.7630   31.6080   48.2980 N   0  0  0  0  0  0  0  0  0  0  0  0
   60.7790   31.3530   47.3610 C   0  0  0  0  0  0  0  0  0  0  0  0
   60.4240   32.3320   46.3650 N   0  0  0  0  0  0  0  0  0  0  0  0
   60.0430   30.1480   47.4300 C   0  0  0  0  0  0  0  0  0  0  0  0
   59.1050   29.7770   46.3940 N   0  0  0  0  0  0  0  0  0  0  0  0
   58.1740   30.7880   45.8610 C   0  0  0  0  0  0  0  0  0  0  0  0
   58.0430   30.7290   44.3270 C   0  0  0  0  0  0  0  0  0  0  0  0
   57.4070   31.9780   43.6740 C   0  0  0  0  0  0  0  0  0  0  0  0
   57.8160   33.2360   44.4550 C   0  0  0  0  0  0  0  0  0  0  0  0
   57.8000   32.1330   42.1960 C   0  0  0  0  0  0  0  0  0  0  0  0
   59.1290   28.4530   45.8130 C   0  0  0  0  0  0  0  0  0  0  0  0
   60.1270   28.0870   45.1350 O   0  0  0  0  0  0  0  0  0  0  0  0
   58.0080   27.5060   45.9760 C   0  0  0  0  0  0  0  0  0  0  0  0
   56.6610   27.7530   45.7690 C   0  0  0  0  0  0  0  0  0  0  0  0
   56.0270   26.5480   45.9840 C   0  0  0  0  0  0  0  0  0  0  0  0
   54.6570   26.3400   45.8680 O   0  0  0  0  0  0  0  0  0  0  0  0
   56.9140   25.5880   46.3100 N   0  0  0  0  0  0  0  0  0  0  0  0
   56.6320   24.1790   46.5800 C   0  0  0  0  0  0  0  0  0  0  0  0
   56.7490   23.3830   45.3190 C   0  0  0  0  0  0  0  0  0  0  0  0
   57.7620   22.4800   45.0190 C   0  0  0  0  0  0  0  0  0  0  0  0
   57.6660   21.9560   43.7250 C   0  0  0  0  0  0  0  0  0  0  0  0
   56.5910   22.4550   42.9980 C   0  0  0  0  0  0  0  0  0  0  0  0
   55.7600   23.5510   43.9680 S   0  0  0  0  0  0  0  0  0  0  0  0
   58.1320   26.1640   46.2970 C   0  0  0  0  0  0  0  0  0  0  0  0
   60.2450   29.3100   48.5330 C   0  0  0  0  0  0  0  0  0  0  0  0
   59.5820   28.2470   48.6650 O   0  0  0  0  0  0  0  0  0  0  0  0
   61.1640   29.6350   49.4690 N   0  0  0  0  0  0  0  0  0  0  0  0
   61.9200   30.7550   49.3640 C   0  0  0  0  0  0  0  0  0  0  0  0
   62.7640   30.9980   50.2700 O   0  0  0  0  0  0  0  0  0  0  0  0
   60.0217   33.8189   50.9202 H   0  0  0  0  0  0  0  0  0  0  0  0
   58.6733   33.9552   49.7413 H   0  0  0  0  0  0  0  0  0  0  0  0
   59.7223   32.4971   49.7413 H   0  0  0  0  0  0  0  0  0  0  0  0
   60.3641   33.9428   47.8812 H   0  0  0  0  0  0  0  0  0  0  0  0
   60.5314   35.3504   49.0238 H   0  0  0  0  0  0  0  0  0  0  0  0
   62.7231   34.8138   48.9820 H   0  0  0  0  0  0  0  0  0  0  0  0
   62.2018   33.5387   50.1724 H   0  0  0  0  0  0  0  0  0  0  0  0
   62.6140   33.1761   47.1685 H   0  0  0  0  0  0  0  0  0  0  0  0
   63.6460   32.5308   48.5012 H   0  0  0  0  0  0  0  0  0  0  0  0
   60.0430   32.0420   45.4380 H   0  0  0  0  0  0  0  0  0  0  0  0
   60.4190   33.3590   46.5440 H   0  0  0  0  0  0  0  0  0  0  0  0
   57.1817   30.6208   46.3052 H   0  0  0  0  0  0  0  0  0  0  0  0
   58.5759   31.7783   46.1213 H   0  0  0  0  0  0  0  0  0  0  0  0
   59.0500   30.5988   43.9039 H   0  0  0  0  0  0  0  0  0  0  0  0
   57.3645   29.8909   44.1097 H   0  0  0  0  0  0  0  0  0  0  0  0
   56.3154   31.8470   43.7100 H   0  0  0  0  0  0  0  0  0  0  0  0
   57.7506   33.0348   45.5345 H   0  0  0  0  0  0  0  0  0  0  0  0
   58.8493   33.5093   44.1949 H   0  0  0  0  0  0  0  0  0  0  0  0
   57.1410   34.0647   44.1949 H   0  0  0  0  0  0  0  0  0  0  0  0
   58.8214   32.5358   42.1285 H   0  0  0  0  0  0  0  0  0  0  0  0
   57.7595   31.1515   41.7009 H   0  0  0  0  0  0  0  0  0  0  0  0
   57.1004   32.8226   41.7009 H   0  0  0  0  0  0  0  0  0  0  0  0
   56.1949   28.7099   45.4913 H   0  0  0  0  0  0  0  0  0  0  0  0
   57.3523   23.7985   47.3191 H   0  0  0  0  0  0  0  0  0  0  0  0
   55.6090   24.0844   46.9731 H   0  0  0  0  0  0  0  0  0  0  0  0
   58.5581   22.2052   45.7266 H   0  0  0  0  0  0  0  0  0  0  0  0
   58.3748   21.2183   43.3208 H   0  0  0  0  0  0  0  0  0  0  0  0
   56.3286   22.1805   41.9656 H   0  0  0  0  0  0  0  0  0  0  0  0
   59.0799   25.6477   46.5089 H   0  0  0  0  0  0  0  0  0  0  0  0
  1  2  1  0
  2  3  1  0
  3  4  1  0
  4  5  1  0
  5  6  1  0
  6  7  1  0
  6  8  2  0
  8  9  1  0
  9 10  1  0
 10 11  1  0
 11 12  1  0
 12 13  1  0
 12 14  1  0
  9 15  1  0
 15 16  2  0
 15 17  1  0
 17 18  1  0
 18 19  2  0
 19 20  1  0
 19 21  1  0
 21 22  1  0
 22 23  1  0
 23 24  2  0
 24 25  1  0
 25 26  2  0
 26 27  1  0
 21 28  1  0
  8 29  1  0
 29 30  2  0
 29 31  1  0
 31 32  1  0
 32 33  2  0
 32  5  1  0
 28 17  2  0
 27 23  1  0
  1 34  1  0
  1 35  1  0
  1 36  1  0
  2 37  1  0
  2 38  1  0
  3 39  1  0
  3 40  1  0
  4 41  1  0
  4 42  1  0
  7 43  1  0
  7 44  1  0
 10 45  1  0
 10 46  1  0
 11 47  1  0
 11 48  1  0
 12 49  1  0
 13 50  1  0
 13 51  1  0
 13 52  1  0
 14 53  1  0
 14 54  1  0
 14 55  1  0
 18 56  1  0
 22 57  1  0
 22 58  1  0
 24 59  1  0
 25 60  1  0
 26 61  1  0
 28 62  1  0
M  CHG  2  20  -1  31  -1
M  END
>  <UniqueID>  (50) 
43

>  <SMILES>  (50) 
CCCCn1c(N)c(N(CCC(C)C)C(=O)c2cc([O-])n(Cc3cccs3)c2)c(=O)[n-]c1=O

>  <Energy>  (50) 
117.48798176107088

>  <Genealogy>  (50) 
CCCCn1c(N)c(N(CCC(C)C)C(=O)c2cc([O-])n(Cc3cccs3)c2)c(=O)[n-]c1=O (protonated)
CCCCn1c(N)c(N(CCC(C)C)C(=O)c2cc([O-])n(Cc3cccs3)c2)c(=O)[n-]c1=O (3D coordinates assigned)
CCCCn1c(N)c(N(CCC(C)C)C(=O)c2cc([O-])n(Cc3cccs3)c2)c(=O)[n-]c1=O (optimized conformer: 117.48798176107088 kcal/mol)

>  <smiles>  (50) 
CCCCn1c(N)c(N(CCC(C)C)C(=O)c2cc(O)n(Cc3cccs3)c2)c(=O)[nH]c1=O

>  <score_type>  (50) 
oracle

>  <origin>  (50) 
adg

>  <m_score__min__energy>  (50) 
-12.1

>  <m_primary>  (50) 
energy

$$$$
50:0
     RDKit          3D

 62 66  0  0  0  0  0  0  0  0999 V2000
   55.4300   30.0090   44.6450 O   0  0  0  0  0  0  0  0  0  0  0  0
   56.6850   29.9480   44.7330 C   0  0  0  0  0  0  0  0  0  0  0  0
   57.3520   28.7810   44.2310 N   0  0  0  0  0  0  0  0  0  0  0  0
   57.8070   27.6580   45.0030 C   0  0  0  0  0  0  0  0  0  0  0  0
   59.1750   27.3380   45.1000 C   0  0  0  0  0  0  0  0  0  0  0  0
   59.5900   26.2490   45.8720 C   0  0  0  0  0  0  0  0  0  0  0  0
   58.6500   25.4840   46.5650 C   0  0  0  0  0  0  0  0  0  0  0  0
   57.2950   25.8130   46.4980 C   0  0  0  0  0  0  0  0  0  0  0  0
   56.8690   26.9010   45.7230 C   0  0  0  0  0  0  0  0  0  0  0  0
   55.5180   27.2370   45.6630 O   0  0  0  0  0  0  0  0  0  0  0  0
   57.4300   31.0960   45.3010 C   0  0  0  0  0  0  0  0  0  0  0  0
   57.3880   32.3570   44.6850 C   0  0  0  0  0  0  0  0  0  0  0  0
   58.0980   33.4330   45.2240 C   0  0  0  0  0  0  0  0  0  0  0  0
   58.8520   33.2730   46.3980 C   0  0  0  0  0  0  0  0  0  0  0  0
   59.6500   34.4210   46.9750 C   0  0  0  0  0  0  0  0  0  0  0  0
   60.7850   33.9340   47.7860 N   0  0  0  0  0  0  0  0  0  0  0  0
   60.6920   33.7770   49.1540 C   0  0  0  0  0  0  0  0  0  0  0  0
   61.8130   33.3580   49.8930 C   0  0  0  0  0  0  0  0  0  0  0  0
   63.0080   33.1150   49.2120 C   0  0  0  0  0  0  0  0  0  0  0  0
   64.0480   32.7670   49.8340 O   0  0  0  0  0  0  0  0  0  0  0  0
   63.0530   33.2510   47.8680 N   0  0  0  0  0  0  0  0  0  0  0  0
   61.9710   33.6460   47.1540 C   0  0  0  0  0  0  0  0  0  0  0  0
   62.0750   33.7480   45.9010 O   0  0  0  0  0  0  0  0  0  0  0  0
   61.7290   33.2510   51.4030 C   0  0  0  0  0  0  0  0  0  0  0  0
   60.3550   32.9790   51.8750 N   0  0  0  0  0  0  0  0  0  0  0  0
   59.9330   31.5890   51.5790 C   0  0  0  0  0  0  0  0  0  0  0  0
   61.1410   30.6520   51.4470 C   0  0  0  0  0  0  0  0  0  0  0  0
   60.9020   29.5800   50.4150 C   0  0  0  0  0  0  0  0  0  0  0  0
   60.5410   29.9260   49.1010 C   0  0  0  0  0  0  0  0  0  0  0  0
   60.3050   28.9280   48.1500 C   0  0  0  0  0  0  0  0  0  0  0  0
   60.4190   27.5820   48.5040 C   0  0  0  0  0  0  0  0  0  0  0  0
   60.7640   27.2290   49.8120 C   0  0  0  0  0  0  0  0  0  0  0  0
   61.0000   28.2230   50.7680 C   0  0  0  0  0  0  0  0  0  0  0  0
   59.4260   33.9850   51.3230 C   0  0  0  0  0  0  0  0  0  0  0  0
   59.4500   33.9680   49.8620 N   0  0  0  0  0  0  0  0  0  0  0  0
   58.8880   32.0130   47.0160 C   0  0  0  0  0  0  0  0  0  0  0  0
   58.1760   30.9380   46.4790 C   0  0  0  0  0  0  0  0  0  0  0  0
   59.9195   27.9471   44.5664 H   0  0  0  0  0  0  0  0  0  0  0  0
   60.6584   25.9945   45.9335 H   0  0  0  0  0  0  0  0  0  0  0  0
   58.9773   24.6215   47.1642 H   0  0  0  0  0  0  0  0  0  0  0  0
   56.5583   25.2161   47.0556 H   0  0  0  0  0  0  0  0  0  0  0  0
   55.1660   27.9010   44.9840 H   0  0  0  0  0  0  0  0  0  0  0  0
   56.7919   32.4989   43.7715 H   0  0  0  0  0  0  0  0  0  0  0  0
   58.0661   34.4128   44.7250 H   0  0  0  0  0  0  0  0  0  0  0  0
   60.0376   35.0376   46.1506 H   0  0  0  0  0  0  0  0  0  0  0  0
   58.9875   35.0111   47.6253 H   0  0  0  0  0  0  0  0  0  0  0  0
   62.3849   32.4330   51.7358 H   0  0  0  0  0  0  0  0  0  0  0  0
   62.0424   34.2174   51.8248 H   0  0  0  0  0  0  0  0  0  0  0  0
   59.2888   31.2293   52.3949 H   0  0  0  0  0  0  0  0  0  0  0  0
   59.3894   31.5890   50.6227 H   0  0  0  0  0  0  0  0  0  0  0  0
   62.0203   31.2429   51.1508 H   0  0  0  0  0  0  0  0  0  0  0  0
   61.3050   30.1634   52.4188 H   0  0  0  0  0  0  0  0  0  0  0  0
   60.4439   30.9851   48.8200 H   0  0  0  0  0  0  0  0  0  0  0  0
   60.0291   29.2038   47.1215 H   0  0  0  0  0  0  0  0  0  0  0  0
   60.2372   26.7989   47.7532 H   0  0  0  0  0  0  0  0  0  0  0  0
   60.8500   26.1682   50.0900 H   0  0  0  0  0  0  0  0  0  0  0  0
   61.2629   27.9418   51.7984 H   0  0  0  0  0  0  0  0  0  0  0  0
   58.4060   33.7622   51.6694 H   0  0  0  0  0  0  0  0  0  0  0  0
   59.7392   34.9811   51.6689 H   0  0  0  0  0  0  0  0  0  0  0  0
   58.5300   33.9140   49.3750 H   0  0  0  0  0  0  0  0  0  0  0  0
   59.4820   31.8711   47.9309 H   0  0  0  0  0  0  0  0  0  0  0  0
   58.2002   29.9606   46.9831 H   0  0  0  0  0  0  0  0  0  0  0  0
  1  2  2  0
  2  3  1  0
  3  4  1  0
  4  5  2  0
  5  6  1  0
  6  7  2  0
  7  8  1  0
  8  9  2  0
  9 10  1  0
  2 11  1  0
 11 12  2  0
 12 13  1  0
 13 14  2  0
 14 15  1  0
 15 16  1  0
 16 17  1  0
 17 18  2  0
 18 19  1  0
 19 20  2  0
 19 21  1  0
 21 22  1  0
 22 23  2  0
 18 24  1  0
 24 25  1  0
 25 26  1  0
 26 27  1  0
 27 28  1  0
 28 29  2  0
 29 30  1  0
 30 31  2  0
 31 32  1  0
 32 33  2  0
 25 34  1  0
 34 35  1  0
 14 36  1  0
 36 37  2  0
  9  4  1  0
 37 11  1  0
 22 16  1  0
 33 28  1  0
 35 17  1  0
  5 38  1  0
  6 39  1  0
  7 40  1  0
  8 41  1  0
 10 42  1  0
 12 43  1  0
 13 44  1  0
 15 45  1  0
 15 46  1  0
 24 47  1  0
 24 48  1  0
 26 49  1  0
 26 50  1  0
 27 51  1  0
 27 52  1  0
 29 53  1  0
 30 54  1  0
 31 55  1  0
 32 56  1  0
 33 57  1  0
 34 58  1  0
 34 59  1  0
 35 60  1  0
 36 61  1  0
 37 62  1  0
M  CHG  2   3  -1  21  -1
M  END
>  <UniqueID>  (51) 
44

>  <SMILES>  (51) 
O=C([N-]c1ccccc1O)c1ccc(Cn2c3c(c(=O)[n-]c2=O)CN(CCc2ccccc2)CN3)cc1

>  <Energy>  (51) 
84.96955250828528

>  <Genealogy>  (51) 
O=C([N-]c1ccccc1O)c1ccc(Cn2c3c(c(=O)[n-]c2=O)CN(CCc2ccccc2)CN3)cc1 (protonated)
O=C([N-]c1ccccc1O)c1ccc(Cn2c3c(c(=O)[n-]c2=O)CN(CCc2ccccc2)CN3)cc1 (3D coordinates assigned)
O=C([N-]c1ccccc1O)c1ccc(Cn2c3c(c(=O)[n-]c2=O)CN(CCc2ccccc2)CN3)cc1 (nonaromatic ring conformer: 84.96955250828528 kcal/mol)

>  <smiles>  (51) 
O=C(Nc1ccccc1O)c1ccc(Cn2c3c(c(=O)[nH]c2=O)CN(CCc2ccccc2)CN3)cc1

>  <score_type>  (51) 
oracle

>  <origin>  (51) 
adg

>  <m_score__min__energy>  (51) 
-13.140000000000001

>  <m_primary>  (51) 
energy

$$$$
51:0
     RDKit          3D

 51 54  0  0  0  0  0  0  0  0999 V2000
   53.2150   24.5700   45.5530 C   0  0  0  0  0  0  0  0  0  0  0  0
   54.3620   25.3330   45.9170 O   0  0  0  0  0  0  0  0  0  0  0  0
   55.6820   24.8650   45.8430 C   0  0  0  0  0  0  0  0  0  0  0  0
   55.8890   23.5060   45.6010 C   0  0  0  0  0  0  0  0  0  0  0  0
   57.1830   22.9870   45.5190 C   0  0  0  0  0  0  0  0  0  0  0  0
   58.3010   23.8270   45.6780 C   0  0  0  0  0  0  0  0  0  0  0  0
   59.6110   23.3260   45.6170 O   0  0  0  0  0  0  0  0  0  0  0  0
   60.0070   22.1780   44.8750 C   0  0  0  0  0  0  0  0  0  0  0  0
   58.1020   25.2040   45.9140 C   0  0  0  0  0  0  0  0  0  0  0  0
   59.2790   26.1480   46.0410 C   0  0  0  0  0  0  0  0  0  0  0  0
   58.8340   27.5580   45.9470 N   0  0  0  0  0  0  0  0  0  0  0  0
   58.2730   28.0110   44.7820 C   0  0  0  0  0  0  0  0  0  0  0  0
   58.0850   27.2190   43.8160 O   0  0  0  0  0  0  0  0  0  0  0  0
   57.9030   29.3540   44.6530 C   0  0  0  0  0  0  0  0  0  0  0  0
   57.3400   29.8650   43.4690 C   0  0  0  0  0  0  0  0  0  0  0  0
   56.9980   31.2140   43.3860 C   0  0  0  0  0  0  0  0  0  0  0  0
   57.2200   32.0420   44.4840 C   0  0  0  0  0  0  0  0  0  0  0  0
   57.7630   31.5340   45.6200 N   0  0  0  0  0  0  0  0  0  0  0  0
   58.1120   30.2200   45.7410 C   0  0  0  0  0  0  0  0  0  0  0  0
   58.6530   29.7420   46.9070 N   0  0  0  0  0  0  0  0  0  0  0  0
   58.9180   30.6520   48.0420 C   0  0  0  0  0  0  0  0  0  0  0  0
   60.1110   31.5270   47.7480 C   0  0  0  0  0  0  0  0  0  0  0  0
   61.4100   30.9880   47.7580 C   0  0  0  0  0  0  0  0  0  0  0  0
   62.5100   31.7960   47.4540 C   0  0  0  0  0  0  0  0  0  0  0  0
   62.3230   33.1420   47.1310 C   0  0  0  0  0  0  0  0  0  0  0  0
   61.0360   33.6840   47.1160 C   0  0  0  0  0  0  0  0  0  0  0  0
   59.9330   32.8820   47.4230 C   0  0  0  0  0  0  0  0  0  0  0  0
   58.9990   28.4160   47.0100 C   0  0  0  0  0  0  0  0  0  0  0  0
   59.4720   27.9820   48.0980 O   0  0  0  0  0  0  0  0  0  0  0  0
   56.7940   25.7110   46.0010 C   0  0  0  0  0  0  0  0  0  0  0  0
   52.6993   24.2269   46.4620 H   0  0  0  0  0  0  0  0  0  0  0  0
   52.5327   25.1948   44.9580 H   0  0  0  0  0  0  0  0  0  0  0  0
   53.5276   23.6992   44.9580 H   0  0  0  0  0  0  0  0  0  0  0  0
   55.0248   22.8375   45.4737 H   0  0  0  0  0  0  0  0  0  0  0  0
   57.3295   21.9135   45.3287 H   0  0  0  0  0  0  0  0  0  0  0  0
   60.2854   21.3711   45.5688 H   0  0  0  0  0  0  0  0  0  0  0  0
   59.1718   21.8449   44.2413 H   0  0  0  0  0  0  0  0  0  0  0  0
   60.8699   22.4307   44.2413 H   0  0  0  0  0  0  0  0  0  0  0  0
   59.7667   25.9877   47.0138 H   0  0  0  0  0  0  0  0  0  0  0  0
   59.9842   25.9451   45.2215 H   0  0  0  0  0  0  0  0  0  0  0  0
   57.1698   29.2003   42.6092 H   0  0  0  0  0  0  0  0  0  0  0  0
   56.5576   31.6201   42.4634 H   0  0  0  0  0  0  0  0  0  0  0  0
   56.9552   33.1083   44.4306 H   0  0  0  0  0  0  0  0  0  0  0  0
   58.0358   31.2870   48.2109 H   0  0  0  0  0  0  0  0  0  0  0  0
   59.1290   30.0511   48.9389 H   0  0  0  0  0  0  0  0  0  0  0  0
   61.5612   29.9270   48.0059 H   0  0  0  0  0  0  0  0  0  0  0  0
   63.5244   31.3709   47.4692 H   0  0  0  0  0  0  0  0  0  0  0  0
   63.1893   33.7750   46.8885 H   0  0  0  0  0  0  0  0  0  0  0  0
   60.8899   34.7443   46.8621 H   0  0  0  0  0  0  0  0  0  0  0  0
   58.9214   33.3138   47.4100 H   0  0  0  0  0  0  0  0  0  0  0  0
   56.6383   26.7825   46.1950 H   0  0  0  0  0  0  0  0  0  0  0  0
  1  2  1  0
  2  3  1  0
  3  4  2  0
  4  5  1  0
  5  6  2  0
  6  7  1  0
  7  8  1  0
  6  9  1  0
  9 10  1  0
 10 11  1  0
 11 12  1  0
 12 13  2  0
 12 14  1  0
 14 15  2  0
 15 16  1  0
 16 17  2  0
 17 18  1  0
 18 19  2  0
 19 20  1  0
 20 21  1  0
 21 22  1  0
 22 23  2  0
 23 24  1  0
 24 25  2  0
 25 26  1  0
 26 27  2  0
 20 28  1  0
 28 29  2  0
  9 30  2  0
 30  3  1  0
 28 11  1  0
 19 14  1  0
 27 22  1  0
  1 31  1  0
  1 32  1  0
  1 33  1  0
  4 34  1  0
  5 35  1  0
  8 36  1  0
  8 37  1  0
  8 38  1  0
 10 39  1  0
 10 40  1  0
 15 41  1  0
 16 42  1  0
 17 43  1  0
 21 44  1  0
 21 45  1  0
 23 46  1  0
 24 47  1  0
 25 48  1  0
 26 49  1  0
 27 50  1  0
 30 51  1  0
M  END
>  <UniqueID>  (52) 
45

>  <SMILES>  (52) 
COc1ccc(OC)c(Cn2c(=O)c3cccnc3n(Cc3ccccc3)c2=O)c1

>  <Energy>  (52) 
65.1623477026492

>  <Genealogy>  (52) 
COc1ccc(OC)c(Cn2c(=O)c3cccnc3n(Cc3ccccc3)c2=O)c1 (3D coordinates assigned)
COc1ccc(OC)c(Cn2c(=O)c3cccnc3n(Cc3ccccc3)c2=O)c1 (optimized conformer: 65.1623477026492 kcal/mol)

>  <smiles>  (52) 
COc1ccc(OC)c(Cn2c(=O)c3cccnc3n(Cc3ccccc3)c2=O)c1

>  <score_type>  (52) 
oracle

>  <origin>  (52) 
adg

>  <m_score__min__energy>  (52) 
-8.3699999999999992

>  <m_primary>  (52) 
energy

$$$$
52:0
     RDKit          3D

 40 42  0  0  0  0  0  0  0  0999 V2000
   54.7720   26.3280   46.0010 N   0  0  0  0  0  0  0  0  0  0  0  0
   56.3500   25.6790   46.2710 S   0  0  0  0  0  0  0  0  0  0  0  0
   56.3460   24.8800   47.5450 O   0  0  0  0  0  0  0  0  0  0  0  0
   56.7240   24.7710   45.1340 O   0  0  0  0  0  0  0  0  0  0  0  0
   57.5140   26.9960   46.3880 C   0  0  0  0  0  0  0  0  0  0  0  0
   58.5180   26.9710   47.3640 C   0  0  0  0  0  0  0  0  0  0  0  0
   59.4390   28.0180   47.4470 C   0  0  0  0  0  0  0  0  0  0  0  0
   59.3530   29.1000   46.5680 C   0  0  0  0  0  0  0  0  0  0  0  0
   58.3350   29.1540   45.6070 C   0  0  0  0  0  0  0  0  0  0  0  0
   58.2890   30.2780   44.7180 N   0  0  0  0  0  0  0  0  0  0  0  0
   57.1640   31.1360   44.4860 C   0  0  0  0  0  0  0  0  0  0  0  0
   55.9890   30.7350   44.7010 O   0  0  0  0  0  0  0  0  0  0  0  0
   57.3950   32.5530   44.0670 C   0  0  0  0  0  0  0  0  0  0  0  0
   57.0160   33.6980   45.4370 S   0  0  0  0  0  0  0  0  0  0  0  0
   58.5690   33.4320   46.2940 C   0  0  0  0  0  0  0  0  0  0  0  0
   59.7200   34.1160   45.9060 C   0  0  0  0  0  0  0  0  0  0  0  0
   60.9100   33.8890   46.5930 C   0  0  0  0  0  0  0  0  0  0  0  0
   60.9250   32.9800   47.6640 C   0  0  0  0  0  0  0  0  0  0  0  0
   62.1510   32.6770   48.4400 C   0  0  0  0  0  0  0  0  0  0  0  0
   62.1900   31.6760   49.4290 C   0  0  0  0  0  0  0  0  0  0  0  0
   63.3810   31.4360   50.1190 C   0  0  0  0  0  0  0  0  0  0  0  0
   64.5220   32.1790   49.8190 C   0  0  0  0  0  0  0  0  0  0  0  0
   64.4560   33.1540   48.8240 C   0  0  0  0  0  0  0  0  0  0  0  0
   63.2880   33.3760   48.1630 N   0  0  0  0  0  0  0  0  0  0  0  0
   59.7710   32.3290   47.9810 N   0  0  0  0  0  0  0  0  0  0  0  0
   58.6330   32.5480   47.3220 N   0  0  0  0  0  0  0  0  0  0  0  0
   57.4250   28.0850   45.5090 C   0  0  0  0  0  0  0  0  0  0  0  0
   54.6270   27.0820   46.7080 H   0  0  0  0  0  0  0  0  0  0  0  0
   58.5814   26.1263   48.0658 H   0  0  0  0  0  0  0  0  0  0  0  0
   60.2341   27.9902   48.2066 H   0  0  0  0  0  0  0  0  0  0  0  0
   60.0892   29.9149   46.6307 H   0  0  0  0  0  0  0  0  0  0  0  0
   58.4480   32.6762   43.7737 H   0  0  0  0  0  0  0  0  0  0  0  0
   56.7341   32.7841   43.2186 H   0  0  0  0  0  0  0  0  0  0  0  0
   59.6887   34.8267   45.0670 H   0  0  0  0  0  0  0  0  0  0  0  0
   61.8296   34.4166   46.2997 H   0  0  0  0  0  0  0  0  0  0  0  0
   61.2894   31.0870   49.6569 H   0  0  0  0  0  0  0  0  0  0  0  0
   63.4185   30.6610   50.8987 H   0  0  0  0  0  0  0  0  0  0  0  0
   65.4624   31.9984   50.3603 H   0  0  0  0  0  0  0  0  0  0  0  0
   65.3497   33.7443   48.5734 H   0  0  0  0  0  0  0  0  0  0  0  0
   56.6398   28.1037   44.7389 H   0  0  0  0  0  0  0  0  0  0  0  0
  1  2  1  0
  2  3  2  0
  2  4  2  0
  2  5  1  0
  5  6  2  0
  6  7  1  0
  7  8  2  0
  8  9  1  0
  9 10  1  0
 10 11  1  0
 11 12  2  0
 11 13  1  0
 13 14  1  0
 14 15  1  0
 15 16  2  0
 16 17  1  0
 17 18  2  0
 18 19  1  0
 19 20  2  0
 20 21  1  0
 21 22  2  0
 22 23  1  0
 23 24  2  0
 18 25  1  0
 25 26  2  0
  9 27  2  0
 27  5  1  0
 26 15  1  0
 24 19  1  0
  1 28  1  0
  6 29  1  0
  7 30  1  0
  8 31  1  0
 13 32  1  0
 13 33  1  0
 16 34  1  0
 17 35  1  0
 20 36  1  0
 21 37  1  0
 22 38  1  0
 23 39  1  0
 27 40  1  0
M  CHG  2   1  -1  10  -1
M  END
>  <UniqueID>  (53) 
46

>  <SMILES>  (53) 
[NH-]S(=O)(=O)c1cccc([N-]C(=O)CSc2ccc(-c3ccccn3)nn2)c1

>  <Energy>  (53) 
45.770043919887236

>  <Genealogy>  (53) 
[NH-]S(=O)(=O)c1cccc([N-]C(=O)CSc2ccc(-c3ccccn3)nn2)c1 (protonated)
[NH-]S(=O)(=O)c1cccc([N-]C(=O)CSc2ccc(-c3ccccn3)nn2)c1 (3D coordinates assigned)
[NH-]S(=O)(=O)c1cccc([N-]C(=O)CSc2ccc(-c3ccccn3)nn2)c1 (optimized conformer: 45.770043919887236 kcal/mol)

>  <smiles>  (53) 
NS(=O)(=O)c1cccc(NC(=O)CSc2ccc(-c3ccccn3)nn2)c1

>  <score_type>  (53) 
oracle

>  <origin>  (53) 
adg

>  <m_score__min__energy>  (53) 
-13.6

>  <m_primary>  (53) 
energy

$$$$
53:0
     RDKit          3D

 36 37  0  0  0  0  0  0  0  0999 V2000
   59.6400   35.3000   46.2800 C   0  0  0  0  0  0  0  0  0  0  0  0
   59.4370   34.1780   47.2560 C   0  0  0  0  0  0  0  0  0  0  0  0
   59.6570   34.3410   48.6250 C   0  0  0  0  0  0  0  0  0  0  0  0
   59.3260   32.8800   49.3950 S   0  0  0  0  0  0  0  0  0  0  0  0
   58.9130   32.1060   47.9660 C   0  0  0  0  0  0  0  0  0  0  0  0
   58.5590   30.8990   47.8970 O   0  0  0  0  0  0  0  0  0  0  0  0
   59.0080   32.9280   46.8930 N   0  0  0  0  0  0  0  0  0  0  0  0
   58.7440   32.4930   45.5160 C   0  0  0  0  0  0  0  0  0  0  0  0
   57.3380   32.8320   45.1300 C   0  0  0  0  0  0  0  0  0  0  0  0
   56.9520   34.0310   45.1720 O   0  0  0  0  0  0  0  0  0  0  0  0
   56.4570   31.8070   44.7690 O   0  0  0  0  0  0  0  0  0  0  0  0
   56.8160   30.7240   43.9110 C   0  0  0  0  0  0  0  0  0  0  0  0
   56.3000   29.4180   44.4520 C   0  0  0  0  0  0  0  0  0  0  0  0
   55.1140   29.3450   44.8700 O   0  0  0  0  0  0  0  0  0  0  0  0
   57.1110   28.2370   44.4770 N   0  0  0  0  0  0  0  0  0  0  0  0
   57.9620   27.8060   45.5500 C   0  0  0  0  0  0  0  0  0  0  0  0
   59.1610   28.4930   45.8180 C   0  0  0  0  0  0  0  0  0  0  0  0
   59.9660   28.1230   46.8960 C   0  0  0  0  0  0  0  0  0  0  0  0
   59.5760   27.0780   47.7320 C   0  0  0  0  0  0  0  0  0  0  0  0
   58.3770   26.4040   47.4960 C   0  0  0  0  0  0  0  0  0  0  0  0
   57.5530   26.7550   46.4100 C   0  0  0  0  0  0  0  0  0  0  0  0
   56.3230   26.0320   46.1960 N   0  0  0  0  0  0  0  0  0  0  0  0
   56.2870   24.7860   46.2560 O   0  0  0  0  0  0  0  0  0  0  0  0
   55.1440   26.7150   46.0010 O   0  0  0  0  0  0  0  0  0  0  0  0
   59.8097   36.2377   46.8294 H   0  0  0  0  0  0  0  0  0  0  0  0
   60.5134   35.0824   45.6476 H   0  0  0  0  0  0  0  0  0  0  0  0
   58.7458   35.4022   45.6476 H   0  0  0  0  0  0  0  0  0  0  0  0
   59.9900   35.2666   49.1173 H   0  0  0  0  0  0  0  0  0  0  0  0
   59.4412   33.0015   44.8338 H   0  0  0  0  0  0  0  0  0  0  0  0
   58.8829   31.4038   45.4497 H   0  0  0  0  0  0  0  0  0  0  0  0
   56.3852   30.8963   42.9137 H   0  0  0  0  0  0  0  0  0  0  0  0
   57.9131   30.6712   43.8511 H   0  0  0  0  0  0  0  0  0  0  0  0
   59.4661   29.3292   45.1717 H   0  0  0  0  0  0  0  0  0  0  0  0
   60.9091   28.6564   47.0862 H   0  0  0  0  0  0  0  0  0  0  0  0
   60.2140   26.7843   48.5786 H   0  0  0  0  0  0  0  0  0  0  0  0
   58.0718   25.5878   48.1674 H   0  0  0  0  0  0  0  0  0  0  0  0
  1  2  1  0
  2  3  2  0
  3  4  1  0
  4  5  1  0
  5  6  2  0
  5  7  1  0
  7  8  1  0
  8  9  1  0
  9 10  2  0
  9 11  1  0
 11 12  1  0
 12 13  1  0
 13 14  2  0
 13 15  1  0
 15 16  1  0
 16 17  2  0
 17 18  1  0
 18 19  2  0
 19 20  1  0
 20 21  2  0
 21 22  1  0
 22 23  2  0
 22 24  1  0
  7  2  1  0
 21 16  1  0
  1 25  1  0
  1 26  1  0
  1 27  1  0
  3 28  1  0
  8 29  1  0
  8 30  1  0
 12 31  1  0
 12 32  1  0
 17 33  1  0
 18 34  1  0
 19 35  1  0
 20 36  1  0
M  CHG  3  15  -1  22   1  24  -1
M  END
>  <UniqueID>  (54) 
47

>  <SMILES>  (54) 
Cc1csc(=O)n1CC(=O)OCC(=O)[N-]c1ccccc1[N+](=O)[O-]

>  <Energy>  (54) 
72.42398608717089

>  <Genealogy>  (54) 
Cc1csc(=O)n1CC(=O)OCC(=O)[N-]c1ccccc1[N+](=O)[O-] (protonated)
Cc1csc(=O)n1CC(=O)OCC(=O)[N-]c1ccccc1[N+](=O)[O-] (3D coordinates assigned)
Cc1csc(=O)n1CC(=O)OCC(=O)[N-]c1ccccc1[N+](=O)[O-] (optimized conformer: 72.42398608717089 kcal/mol)

>  <smiles>  (54) 
Cc1csc(=O)n1CC(=O)OCC(=O)Nc1ccccc1[N+](=O)[O-]

>  <score_type>  (54) 
oracle

>  <origin>  (54) 
adg

>  <m_score__min__energy>  (54) 
-10.35

>  <m_primary>  (54) 
energy

$$$$
54:0
     RDKit          3D

 62 66  0  0  0  0  0  0  0  0999 V2000
   61.1984   28.0519   47.2708 H   0  0  0  0  0  0  0  0  0  0  0  0
   60.2440   28.2410   47.7840 C   0  0  0  0  0  0  0  0  0  0  0  0
   60.2520   28.3220   49.1200 C   0  0  0  0  0  0  0  0  0  0  0  0
   60.5094   27.4286   49.7078 H   0  0  0  0  0  0  0  0  0  0  0  0
   59.9250   29.5770   49.8280 C   0  0  0  0  0  0  0  0  0  0  0  0
   58.6760   29.6720   50.3520 N   0  0  0  0  0  0  0  0  0  0  0  0
   58.2610   30.7720   51.0220 C   0  0  0  0  0  0  0  0  0  0  0  0
   56.9600   30.8310   51.5340 C   0  0  0  0  0  0  0  0  0  0  0  0
   56.2761   29.9805   51.3965 H   0  0  0  0  0  0  0  0  0  0  0  0
   56.5290   31.9700   52.2200 C   0  0  0  0  0  0  0  0  0  0  0  0
   55.5059   32.0155   52.6216 H   0  0  0  0  0  0  0  0  0  0  0  0
   57.3970   33.0510   52.3960 C   0  0  0  0  0  0  0  0  0  0  0  0
   57.0551   33.9464   52.9358 H   0  0  0  0  0  0  0  0  0  0  0  0
   58.6990   32.9980   51.8880 C   0  0  0  0  0  0  0  0  0  0  0  0
   59.3790   33.8510   52.0295 H   0  0  0  0  0  0  0  0  0  0  0  0
   59.1410   31.8530   51.1950 C   0  0  0  0  0  0  0  0  0  0  0  0
   60.4410   31.7440   50.6740 C   0  0  0  0  0  0  0  0  0  0  0  0
   61.2540   32.6990   50.8300 O   0  0  0  0  0  0  0  0  0  0  0  0
   60.8300   30.6060   50.0050 N   0  0  0  0  0  0  0  0  0  0  0  0
   62.2320   30.5060   49.5360 C   0  0  0  0  0  0  0  0  0  0  0  0
   62.8970   30.5218   50.4121 H   0  0  0  0  0  0  0  0  0  0  0  0
   62.3237   29.5681   48.9687 H   0  0  0  0  0  0  0  0  0  0  0  0
   62.6270   31.6380   48.6090 C   0  0  0  0  0  0  0  0  0  0  0  0
   61.7610   31.9810   47.5590 C   0  0  0  0  0  0  0  0  0  0  0  0
   60.8299   31.4139   47.4127 H   0  0  0  0  0  0  0  0  0  0  0  0
   62.0720   33.0380   46.6970 C   0  0  0  0  0  0  0  0  0  0  0  0
   61.3902   33.2931   45.8724 H   0  0  0  0  0  0  0  0  0  0  0  0
   63.2460   33.7690   46.8820 C   0  0  0  0  0  0  0  0  0  0  0  0
   63.4887   34.6005   46.2040 H   0  0  0  0  0  0  0  0  0  0  0  0
   64.1130   33.4450   47.9280 C   0  0  0  0  0  0  0  0  0  0  0  0
   65.0374   34.0231   48.0740 H   0  0  0  0  0  0  0  0  0  0  0  0
   63.8080   32.3870   48.7900 C   0  0  0  0  0  0  0  0  0  0  0  0
   64.4930   32.1377   49.6137 H   0  0  0  0  0  0  0  0  0  0  0  0
   59.0260   28.3910   46.9570 C   0  0  0  0  0  0  0  0  0  0  0  0
   58.2440   27.2930   46.5590 C   0  0  0  0  0  0  0  0  0  0  0  0
   58.5404   26.2754   46.8535 H   0  0  0  0  0  0  0  0  0  0  0  0
   57.0930   27.4860   45.7920 C   0  0  0  0  0  0  0  0  0  0  0  0
   56.4894   26.6191   45.4851 H   0  0  0  0  0  0  0  0  0  0  0  0
   56.7000   28.7820   45.4090 C   0  0  0  0  0  0  0  0  0  0  0  0
   55.5520   29.0130   44.6340 O   0  0  0  0  0  0  0  0  0  0  0  0
   55.5410   29.7230   43.3990 C   0  0  0  0  0  0  0  0  0  0  0  0
   55.5242   30.8047   43.5981 H   0  0  0  0  0  0  0  0  0  0  0  0
   56.4432   29.4702   42.8227 H   0  0  0  0  0  0  0  0  0  0  0  0
   54.6471   29.4423   42.8227 H   0  0  0  0  0  0  0  0  0  0  0  0
   57.4700   29.8840   45.8040 C   0  0  0  0  0  0  0  0  0  0  0  0
   57.0580   31.1640   45.3960 O   0  0  0  0  0  0  0  0  0  0  0  0
   57.8880   32.1340   44.7540 C   0  0  0  0  0  0  0  0  0  0  0  0
   58.7162   31.6193   44.2449 H   0  0  0  0  0  0  0  0  0  0  0  0
   57.2794   32.6927   44.0278 H   0  0  0  0  0  0  0  0  0  0  0  0
   58.4530   33.1050   45.7580 C   0  0  0  0  0  0  0  0  0  0  0  0
   58.3750   32.8220   47.1310 C   0  0  0  0  0  0  0  0  0  0  0  0
   57.8931   31.8940   47.4725 H   0  0  0  0  0  0  0  0  0  0  0  0
   58.9080   33.7160   48.0670 C   0  0  0  0  0  0  0  0  0  0  0  0
   58.8344   33.4950   49.1420 H   0  0  0  0  0  0  0  0  0  0  0  0
   59.5330   34.8880   47.6370 C   0  0  0  0  0  0  0  0  0  0  0  0
   59.9503   35.5903   48.3737 H   0  0  0  0  0  0  0  0  0  0  0  0
   59.6290   35.1700   46.2710 C   0  0  0  0  0  0  0  0  0  0  0  0
   60.1278   36.0906   45.9338 H   0  0  0  0  0  0  0  0  0  0  0  0
   59.0910   34.2820   45.3320 C   0  0  0  0  0  0  0  0  0  0  0  0
   59.1680   34.5063   44.2579 H   0  0  0  0  0  0  0  0  0  0  0  0
   58.6220   29.6830   46.5890 C   0  0  0  0  0  0  0  0  0  0  0  0
   59.2128   30.5507   46.9179 H   0  0  0  0  0  0  0  0  0  0  0  0
  1  2  1  0
  2  3  2  0
  3  4  1  0
  3  5  1  0
  5  6  2  0
  6  7  1  0
  7  8  2  0
  8  9  1  0
  8 10  1  0
 10 11  1  0
 10 12  2  0
 12 13  1  0
 12 14  1  0
 14 15  1  0
 14 16  2  0
 16 17  1  0
 17 18  2  0
 17 19  1  0
 19 20  1  0
 20 21  1  0
 20 22  1  0
 20 23  1  0
 23 24  2  0
 24 25  1  0
 24 26  1  0
 26 27  1  0
 26 28  2  0
 28 29  1  0
 28 30  1  0
 30 31  1  0
 30 32  2  0
 32 33  1  0
  2 34  1  0
 34 35  2  0
 35 36  1  0
 35 37  1  0
 37 38  1  0
 37 39  2  0
 39 40  1  0
 40 41  1  0
 41 42  1  0
 41 43  1  0
 41 44  1  0
 39 45  1  0
 45 46  1  0
 46 47  1  0
 47 48  1  0
 47 49  1  0
 47 50  1  0
 50 51  2  0
 51 52  1  0
 51 53  1  0
 53 54  1  0
 53 55  2  0
 55 56  1  0
 55 57  1  0
 57 58  1  0
 57 59  2  0
 59 60  1  0
 45 61  2  0
 61 62  1  0
 19  5  1  0
 32 23  1  0
 61 34  1  0
 16  7  1  0
 59 50  1  0
M  END
>  <UniqueID>  (55) 
48

>  <SMILES>  (55) 
COc1ccc(/C=C/c2nc3ccccc3c(=O)n2Cc2ccccc2)cc1OCc1ccccc1

>  <Energy>  (55) 
83.64200407254332

>  <Genealogy>  (55) 
COc1ccc(/C=C/c2nc3ccccc3c(=O)n2Cc2ccccc2)cc1OCc1ccccc1 (cis-trans isomerization)
COc1ccc(/C=C/c2nc3ccccc3c(=O)n2Cc2ccccc2)cc1OCc1ccccc1 (3D coordinates assigned)
COc1ccc(/C=C/c2nc3ccccc3c(=O)n2Cc2ccccc2)cc1OCc1ccccc1 (optimized conformer: 83.64200407254332 kcal/mol)

>  <smiles>  (55) 
COc1ccc(C=Cc2nc3ccccc3c(=O)n2Cc2ccccc2)cc1OCc1ccccc1

>  <score_type>  (55) 
oracle

>  <origin>  (55) 
adg

>  <m_score__min__energy>  (55) 
-10.23

>  <m_primary>  (55) 
energy

$$$$
55:0
     RDKit          3D

 41 44  0  0  0  0  0  0  0  0999 V2000
   57.8031   35.5826   44.5941 H   0  0  0  0  0  0  0  0  0  0  0  0
   57.9600   34.5540   44.9510 C   0  0  0  0  0  0  0  0  0  0  0  0
   57.0340   33.5960   44.6900 N   0  0  0  0  0  0  0  0  0  0  0  0
   57.2090   32.3170   45.1130 C   0  0  0  0  0  0  0  0  0  0  0  0
   56.2880   31.4320   44.8650 N   0  0  0  0  0  0  0  0  0  0  0  0
   56.4540   30.1810   44.1120 C   0  0  2  0  0  0  0  0  0  0  0  0
   55.5347   29.5797   44.1706 H   0  0  0  0  0  0  0  0  0  0  0  0
   57.5240   29.3000   44.7460 C   0  0  0  0  0  0  0  0  0  0  0  0
   58.9030   29.4650   44.4930 C   0  0  0  0  0  0  0  0  0  0  0  0
   59.2392   30.2305   43.7782 H   0  0  0  0  0  0  0  0  0  0  0  0
   59.8440   28.6630   45.1440 C   0  0  0  0  0  0  0  0  0  0  0  0
   60.9163   28.8020   44.9418 H   0  0  0  0  0  0  0  0  0  0  0  0
   59.4280   27.6860   46.0500 C   0  0  0  0  0  0  0  0  0  0  0  0
   60.7180   26.5970   46.9430 Br  0  0  0  0  0  0  0  0  0  0  0  0
   58.0650   27.5070   46.3050 C   0  0  0  0  0  0  0  0  0  0  0  0
   57.7358   26.7344   47.0154 H   0  0  0  0  0  0  0  0  0  0  0  0
   57.1200   28.3090   45.6580 C   0  0  0  0  0  0  0  0  0  0  0  0
   56.0495   28.1632   45.8646 H   0  0  0  0  0  0  0  0  0  0  0  0
   56.6420   30.4760   42.6170 C   0  0  0  0  0  0  0  0  0  0  0  0
   57.2296   31.3980   42.4963 H   0  0  0  0  0  0  0  0  0  0  0  0
   57.1730   29.6380   42.1418 H   0  0  0  0  0  0  0  0  0  0  0  0
   55.6581   30.6033   42.1418 H   0  0  0  0  0  0  0  0  0  0  0  0
   58.3330   31.9890   45.8090 N   0  0  0  0  0  0  0  0  0  0  0  0
   59.2830   32.9150   46.1070 C   0  0  0  0  0  0  0  0  0  0  0  0
   60.4440   32.5290   46.8580 N   0  0  0  0  0  0  0  0  0  0  0  0
   61.7100   33.1980   46.9180 C   0  0  0  0  0  0  0  0  0  0  0  0
   62.0440   34.1630   46.1810 O   0  0  0  0  0  0  0  0  0  0  0  0
   62.5180   32.6440   47.9990 C   0  0  0  0  0  0  0  0  0  0  0  0
   63.7980   32.9730   48.4390 C   0  0  0  0  0  0  0  0  0  0  0  0
   64.3824   33.7613   47.9419 H   0  0  0  0  0  0  0  0  0  0  0  0
   64.3210   32.2680   49.5370 C   0  0  0  0  0  0  0  0  0  0  0  0
   65.3303   32.5023   49.9063 H   0  0  0  0  0  0  0  0  0  0  0  0
   63.5590   31.2610   50.1690 C   0  0  0  0  0  0  0  0  0  0  0  0
   63.9792   30.7153   51.0267 H   0  0  0  0  0  0  0  0  0  0  0  0
   62.2660   30.9510   49.7090 C   0  0  0  0  0  0  0  0  0  0  0  0
   61.6634   30.1698   50.1955 H   0  0  0  0  0  0  0  0  0  0  0  0
   61.7720   31.6640   48.6180 C   0  0  0  0  0  0  0  0  0  0  0  0
   60.4900   31.5830   47.9310 C   0  0  0  0  0  0  0  0  0  0  0  0
   59.5610   30.7780   48.2090 O   0  0  0  0  0  0  0  0  0  0  0  0
   59.1090   34.2340   45.6710 C   0  0  0  0  0  0  0  0  0  0  0  0
   59.8644   35.0023   45.8925 H   0  0  0  0  0  0  0  0  0  0  0  0
  1  2  1  0
  2  3  1  0
  3  4  1  0
  4  5  2  0
  5  6  1  0
  6  7  1  6
  6  8  1  0
  8  9  2  0
  9 10  1  0
  9 11  1  0
 11 12  1  0
 11 13  2  0
 13 14  1  0
 13 15  1  0
 15 16  1  0
 15 17  2  0
 17 18  1  0
  6 19  1  0
 19 20  1  0
 19 21  1  0
 19 22  1  0
  4 23  1  0
 23 24  2  0
 24 25  1  0
 25 26  1  0
 26 27  2  0
 26 28  1  0
 28 29  2  0
 29 30  1  0
 29 31  1  0
 31 32  1  0
 31 33  2  0
 33 34  1  0
 33 35  1  0
 35 36  1  0
 35 37  2  0
 37 38  1  0
 38 39  2  0
 24 40  1  0
 40 41  1  0
 40  2  2  0
 17  8  1  0
 38 25  1  0
 37 28  1  0
M  CHG  1   3  -1
M  END
>  <UniqueID>  (56) 
49

>  <SMILES>  (56) 
C[C@H](/N=c1\nc(N2C(=O)c3ccccc3C2=O)cc[n-]1)c1ccc(Br)cc1

>  <Energy>  (56) 
82.560927335733

>  <Genealogy>  (56) 
CC(N=c1nc(N2C(=O)c3ccccc3C2=O)cc[n-]1)c1ccc(Br)cc1 (protonated)
C[C@H](N=c1nc(N2C(=O)c3ccccc3C2=O)cc[n-]1)c1ccc(Br)cc1 (chirality)
C[C@H](/N=c1\nc(N2C(=O)c3ccccc3C2=O)cc[n-]1)c1ccc(Br)cc1 (cis-trans isomerization)
C[C@H](/N=c1\nc(N2C(=O)c3ccccc3C2=O)cc[n-]1)c1ccc(Br)cc1 (3D coordinates assigned)
C[C@H](/N=c1\nc(N2C(=O)c3ccccc3C2=O)cc[n-]1)c1ccc(Br)cc1 (nonaromatic ring conformer: 82.560927335733 kcal/mol)

>  <smiles>  (56) 
CC(N=c1nc(N2C(=O)c3ccccc3C2=O)cc[nH]1)c1ccc(Br)cc1

>  <score_type>  (56) 
oracle

>  <origin>  (56) 
adg

>  <m_score__min__energy>  (56) 
-9.9399999999999995

>  <m_primary>  (56) 
energy

$$$$
56:0
     RDKit          3D

 50 52  0  0  0  0  0  0  0  0999 V2000
   55.6840   23.4720   43.8180 C   0  0  0  0  0  0  0  0  0  0  0  0
   54.7580   23.6840   44.7520 C   0  0  0  0  0  0  0  0  0  0  0  0
   54.7540   24.8820   45.6070 C   0  0  0  0  0  0  0  0  0  0  0  0
   53.7650   25.6650   45.6070 O   0  0  0  0  0  0  0  0  0  0  0  0
   55.9140   25.1720   46.3960 N   0  0  0  0  0  0  0  0  0  0  0  0
   56.7070   26.3670   46.3440 C   0  0  0  0  0  0  0  0  0  0  0  0
   57.8660   26.4370   47.1230 C   0  0  0  0  0  0  0  0  0  0  0  0
   58.6500   27.6010   47.1040 C   0  0  0  0  0  0  0  0  0  0  0  0
   59.8510   27.7150   47.8840 N   0  0  0  0  0  0  0  0  0  0  0  0
   60.5240   28.9610   48.1260 C   0  0  0  0  0  0  0  0  0  0  0  0
   60.9960   29.7420   47.0460 C   0  0  0  0  0  0  0  0  0  0  0  0
   60.8160   29.2960   45.6200 C   0  0  0  0  0  0  0  0  0  0  0  0
   61.6780   30.9390   47.3070 C   0  0  0  0  0  0  0  0  0  0  0  0
   61.8460   31.3970   48.6200 C   0  0  0  0  0  0  0  0  0  0  0  0
   62.6010   32.6660   48.8870 C   0  0  0  0  0  0  0  0  0  0  0  0
   61.3620   30.6280   49.6860 C   0  0  0  0  0  0  0  0  0  0  0  0
   60.6980   29.4150   49.4490 C   0  0  0  0  0  0  0  0  0  0  0  0
   60.1900   28.6020   50.6090 C   0  0  0  0  0  0  0  0  0  0  0  0
   58.2520   28.6600   46.3490 N   0  0  0  0  0  0  0  0  0  0  0  0
   57.1230   28.6320   45.5890 C   0  0  0  0  0  0  0  0  0  0  0  0
   56.7480   29.6710   44.8990 N   0  0  0  0  0  0  0  0  0  0  0  0
   57.3620   30.9720   44.8950 C   0  0  0  0  0  0  0  0  0  0  0  0
   57.4300   31.7620   43.7310 C   0  0  0  0  0  0  0  0  0  0  0  0
   58.0050   33.0360   43.7780 C   0  0  0  0  0  0  0  0  0  0  0  0
   58.4980   33.5390   44.9850 C   0  0  0  0  0  0  0  0  0  0  0  0
   59.2810   35.2810   45.0460 Br  0  0  0  0  0  0  0  0  0  0  0  0
   58.4050   32.7720   46.1510 C   0  0  0  0  0  0  0  0  0  0  0  0
   57.8300   31.4990   46.1060 C   0  0  0  0  0  0  0  0  0  0  0  0
   56.3210   27.4850   45.5870 C   0  0  0  0  0  0  0  0  0  0  0  0
   55.6460   22.5611   43.2026 H   0  0  0  0  0  0  0  0  0  0  0  0
   56.4866   24.2079   43.6622 H   0  0  0  0  0  0  0  0  0  0  0  0
   53.9651   22.9341   44.8896 H   0  0  0  0  0  0  0  0  0  0  0  0
   58.1625   25.5824   47.7489 H   0  0  0  0  0  0  0  0  0  0  0  0
   60.2920   26.8400   48.2470 H   0  0  0  0  0  0  0  0  0  0  0  0
   60.4044   28.2760   45.6040 H   0  0  0  0  0  0  0  0  0  0  0  0
   60.1232   29.9791   45.1068 H   0  0  0  0  0  0  0  0  0  0  0  0
   61.7889   29.3068   45.1068 H   0  0  0  0  0  0  0  0  0  0  0  0
   62.0860   31.5254   46.4706 H   0  0  0  0  0  0  0  0  0  0  0  0
   62.6911   32.8175   49.9728 H   0  0  0  0  0  0  0  0  0  0  0  0
   63.6045   32.5962   48.4420 H   0  0  0  0  0  0  0  0  0  0  0  0
   62.0608   33.5146   48.4420 H   0  0  0  0  0  0  0  0  0  0  0  0
   61.5039   30.9785   50.7190 H   0  0  0  0  0  0  0  0  0  0  0  0
   60.4898   29.0819   51.5523 H   0  0  0  0  0  0  0  0  0  0  0  0
   59.0927   28.5409   50.5613 H   0  0  0  0  0  0  0  0  0  0  0  0
   60.6161   27.5890   50.5613 H   0  0  0  0  0  0  0  0  0  0  0  0
   57.0296   31.3758   42.7820 H   0  0  0  0  0  0  0  0  0  0  0  0
   58.0693   33.6433   42.8631 H   0  0  0  0  0  0  0  0  0  0  0  0
   58.7844   33.1708   47.1034 H   0  0  0  0  0  0  0  0  0  0  0  0
   57.7442   30.9061   47.0285 H   0  0  0  0  0  0  0  0  0  0  0  0
   55.3937   27.4594   44.9959 H   0  0  0  0  0  0  0  0  0  0  0  0
  1  2  2  0
  2  3  1  0
  3  4  2  0
  3  5  1  0
  5  6  1  0
  6  7  1  0
  7  8  2  0
  8  9  1  0
  9 10  1  0
 10 11  2  0
 11 12  1  0
 11 13  1  0
 13 14  2  0
 14 15  1  0
 14 16  1  0
 16 17  2  0
 17 18  1  0
  8 19  1  0
 19 20  1  0
 20 21  2  3
 21 22  1  0
 22 23  2  0
 23 24  1  0
 24 25  2  0
 25 26  1  0
 25 27  1  0
 27 28  2  0
 20 29  1  0
 29  6  2  0
 17 10  1  0
 28 22  1  0
  1 30  1  0
  1 31  1  0
  2 32  1  0
  7 33  1  0
  9 34  1  0
 12 35  1  0
 12 36  1  0
 12 37  1  0
 13 38  1  0
 15 39  1  0
 15 40  1  0
 15 41  1  0
 16 42  1  0
 18 43  1  0
 18 44  1  0
 18 45  1  0
 23 46  1  0
 24 47  1  0
 27 48  1  0
 28 49  1  0
 29 50  1  0
M  CHG  2   5  -1  19  -1
M  END
>  <UniqueID>  (57) 
50

>  <SMILES>  (57) 
C=CC(=O)[N-]c1cc(Nc2c(C)cc(C)cc2C)[n-]c(=Nc2ccc(Br)cc2)c1

>  <Energy>  (57) 
65.90442703118033

>  <Genealogy>  (57) 
C=CC(=O)[N-]c1cc(Nc2c(C)cc(C)cc2C)[n-]c(=Nc2ccc(Br)cc2)c1 (protonated)
C=CC(=O)[N-]c1cc(Nc2c(C)cc(C)cc2C)[n-]c(=Nc2ccc(Br)cc2)c1 (3D coordinates assigned)
C=CC(=O)[N-]c1cc(Nc2c(C)cc(C)cc2C)[n-]c(=Nc2ccc(Br)cc2)c1 (optimized conformer: 65.90442703118033 kcal/mol)

>  <smiles>  (57) 
C=CC(=O)Nc1cc(Nc2c(C)cc(C)cc2C)[nH]c(=Nc2ccc(Br)cc2)c1

>  <score_type>  (57) 
oracle

>  <origin>  (57) 
adg

>  <m_score__min__energy>  (57) 
-11.17

>  <m_primary>  (57) 
energy

$$$$
57:0
     RDKit          3D

 55 58  0  0  1  0  0  0  0  0999 V2000
   57.4770   32.2660   41.4250 C   0  0  0  0  0  0  0  0  0  0  0  0
   57.7740   32.7100   42.6260 C   0  0  0  0  0  0  0  0  0  0  0  0
   57.7120   31.8760   43.7590 N   0  0  0  0  0  0  0  0  0  0  0  0
   56.9910   30.7400   43.8600 C   0  0  0  0  0  0  0  0  0  0  0  0
   57.2100   30.2490   45.1070 N   0  0  0  0  0  0  0  0  0  0  0  0
   58.0430   31.0470   45.7760 C   0  0  0  0  0  0  0  0  0  0  0  0
   58.5630   30.9810   47.0510 C   0  0  0  0  0  0  0  0  0  0  0  0
   58.2880   30.0310   47.8820 N   0  0  0  0  0  0  0  0  0  0  0  0
   58.9060   28.7740   47.6330 C   0  0  0  0  0  0  0  0  0  0  0  0
   58.2850   27.9050   46.7380 C   0  0  0  0  0  0  0  0  0  0  0  0
   58.8550   26.6730   46.4690 C   0  0  0  0  0  0  0  0  0  0  0  0
   58.1630   25.7740   45.5070 C   0  0  0  0  0  0  0  0  0  0  0  0
   60.0400   26.3220   47.1000 C   0  0  0  0  0  0  0  0  0  0  0  0
   60.6610   27.1950   48.0000 C   0  0  0  0  0  0  0  0  0  0  0  0
   60.0920   28.4240   48.2660 C   0  0  0  0  0  0  0  0  0  0  0  0
   60.7560   29.3590   49.2280 C   0  0  0  0  0  0  0  0  0  0  0  0
   59.3930   31.9730   47.4200 N   0  0  0  0  0  0  0  0  0  0  0  0
   59.7310   32.9950   46.6210 C   0  0  0  0  0  0  0  0  0  0  0  0
   60.5750   34.0280   46.9620 O   0  0  0  0  0  0  0  0  0  0  0  0
   61.7670   33.7840   47.6030 C   0  0  0  0  0  0  0  0  0  0  0  0
   62.8310   33.3990   46.7770 C   0  0  0  0  0  0  0  0  0  0  0  0
   64.0830   33.1200   47.2690 C   0  0  0  0  0  0  0  0  0  0  0  0
   64.2620   33.2340   48.6290 C   0  0  0  0  0  0  0  0  0  0  0  0
   63.2010   33.6160   49.4520 C   0  0  0  0  0  0  0  0  0  0  0  0
   61.9470   33.8970   48.9750 C   0  0  0  0  0  0  0  0  0  0  0  0
   60.8370   34.2670   49.7640 N   0  0  0  0  0  0  0  0  0  0  0  0
   59.9950   33.3970   50.4860 C   0  0  0  0  0  0  0  0  0  0  0  0
   60.1500   32.1740   50.5010 O   0  0  0  0  0  0  0  0  0  0  0  0
   58.9070   33.9330   51.2400 N   0  0  0  0  0  0  0  0  0  0  0  0
   58.0280   33.0330   51.9920 C   0  0  0  0  0  0  0  0  0  0  0  0
   59.2040   33.0380   45.3630 N   0  0  0  0  0  0  0  0  0  0  0  0
   58.3660   32.0830   44.9240 C   0  0  0  0  0  0  0  0  0  0  0  0
   57.5348   32.9417   40.5589 H   0  0  0  0  0  0  0  0  0  0  0  0
   57.1706   31.2187   41.2860 H   0  0  0  0  0  0  0  0  0  0  0  0
   58.0787   33.7597   42.7492 H   0  0  0  0  0  0  0  0  0  0  0  0
   56.3502   30.2975   43.0831 H   0  0  0  0  0  0  0  0  0  0  0  0
   57.3450   28.1973   46.2471 H   0  0  0  0  0  0  0  0  0  0  0  0
   57.5833   25.0209   46.0609 H   0  0  0  0  0  0  0  0  0  0  0  0
   57.4853   26.3660   44.8744 H   0  0  0  0  0  0  0  0  0  0  0  0
   58.9087   25.2703   44.8744 H   0  0  0  0  0  0  0  0  0  0  0  0
   60.4975   25.3440   46.8898 H   0  0  0  0  0  0  0  0  0  0  0  0
   61.5995   26.9028   48.4939 H   0  0  0  0  0  0  0  0  0  0  0  0
   60.5327   29.0446   50.2582 H   0  0  0  0  0  0  0  0  0  0  0  0
   61.8439   29.3397   49.0664 H   0  0  0  0  0  0  0  0  0  0  0  0
   60.3793   30.3798   49.0664 H   0  0  0  0  0  0  0  0  0  0  0  0
   59.7800   31.9260   48.3790 H   0  0  0  0  0  0  0  0  0  0  0  0
   62.6575   33.3170   45.6939 H   0  0  0  0  0  0  0  0  0  0  0  0
   64.9066   32.8186   46.6050 H   0  0  0  0  0  0  0  0  0  0  0  0
   65.2473   33.0228   49.0702 H   0  0  0  0  0  0  0  0  0  0  0  0
   63.3798   33.6953   50.5345 H   0  0  0  0  0  0  0  0  0  0  0  0
   60.5840   35.2990   49.8280 H   0  0  0  0  0  0  0  0  0  0  0  0
   58.7100   34.9720   51.2750 H   0  0  0  0  0  0  0  0  0  0  0  0
   58.1799   33.1885   53.0703 H   0  0  0  0  0  0  0  0  0  0  0  0
   56.9797   33.2451   51.7350 H   0  0  0  0  0  0  0  0  0  0  0  0
   58.2647   31.9900   51.7350 H   0  0  0  0  0  0  0  0  0  0  0  0
  1  2  2  0
  2  3  1  0
  3  4  1  0
  4  5  2  0
  5  6  1  0
  6  7  1  0
  7  8  2  0
  8  9  1  0
  9 10  2  0
 10 11  1  0
 11 12  1  0
 11 13  2  0
 13 14  1  0
 14 15  2  0
 15 16  1  0
  7 17  1  0
 17 18  1  0
 18 19  1  0
 19 20  1  0
 20 21  2  0
 21 22  1  0
 22 23  2  0
 23 24  1  0
 24 25  2  0
 25 26  1  0
 26 27  1  0
 27 28  2  0
 27 29  1  0
 29 30  1  0
 18 31  2  0
 31 32  1  0
 32  3  1  0
 32  6  2  0
 15  9  1  0
 25 20  1  0
  1 33  1  0
  1 34  1  0
  2 35  1  0
  4 36  1  0
 10 37  1  0
 12 38  1  0
 12 39  1  0
 12 40  1  0
 13 41  1  0
 14 42  1  0
 16 43  1  0
 16 44  1  0
 16 45  1  0
 17 46  1  0
 21 47  1  0
 22 48  1  0
 23 49  1  0
 24 50  1  0
 26 51  1  0
 29 52  1  0
 30 53  1  0
 30 54  1  0
 30 55  1  0
M  END
>  <smiles>  (58) 
C=Cn1cnc2c(=Nc3cc(C)ccc3C)[nH]c(Oc3ccccc3NC(=O)NC)nc21

>  <score_type>  (58) 
oracle

>  <origin>  (58) 
adg

>  <m_score__min__energy>  (58) 
-8.9900000000000002

>  <m_primary>  (58) 
energy

$$$$
58:0
     RDKit          3D

 62 64  0  0  1  0  0  0  0  0999 V2000
   65.9300   32.4050   50.1780 C   0  0  0  0  0  0  0  0  0  0  0  0
   64.9570   33.0960   49.4350 O   0  0  0  0  0  0  0  0  0  0  0  0
   63.7260   33.4910   49.8930 C   0  0  0  0  0  0  0  0  0  0  0  0
   63.5880   34.6010   50.4610 O   0  0  0  0  0  0  0  0  0  0  0  0
   61.5830   33.6810   47.5510 C   0  0  0  0  0  0  0  0  0  0  0  0
   61.3590   33.2360   50.3940 C   0  0  0  0  0  0  0  0  0  0  0  0
   61.1530   32.8790   51.5630 O   0  0  0  0  0  0  0  0  0  0  0  0
   62.5250   32.6030   49.7210 C   0  0  0  0  0  0  0  0  0  0  0  0
   60.3760   34.0580   48.2930 C   0  0  0  0  0  0  0  0  0  0  0  0
   59.2120   34.2550   47.7370 N   0  0  0  0  0  0  0  0  0  0  0  0
   58.8670   33.3860   46.6500 C   0  0  0  0  0  0  0  0  0  0  0  0
   58.4100   33.9230   45.4720 C   0  0  0  0  0  0  0  0  0  0  0  0
   58.0780   33.0830   44.4270 C   0  0  0  0  0  0  0  0  0  0  0  0
   58.1830   31.7120   44.5130 C   0  0  0  0  0  0  0  0  0  0  0  0
   57.8150   30.9340   43.3790 N   0  0  0  0  0  0  0  0  0  0  0  0
   56.7670   29.5500   43.5800 S   0  0  0  0  0  0  0  0  0  0  0  0
   55.8550   29.8120   44.7450 O   0  0  0  0  0  0  0  0  0  0  0  0
   55.9190   29.3990   42.3630 O   0  0  0  0  0  0  0  0  0  0  0  0
   57.7500   28.1080   43.7890 C   0  0  0  0  0  0  0  0  0  0  0  0
   57.7770   27.6520   45.2080 C   0  0  0  0  0  0  0  0  0  0  0  0
   59.0360   27.9510   45.9550 C   0  0  0  0  0  0  0  0  0  0  0  0
   58.8190   28.1040   47.4360 C   0  0  0  0  0  0  0  0  0  0  0  0
   60.0670   28.2310   48.1580 N   0  0  0  0  0  0  0  0  0  0  0  0
   60.1270   28.9470   49.2170 C   0  0  0  0  0  0  0  0  0  0  0  0
   61.1230   28.8530   50.1490 C   0  0  0  0  0  0  0  0  0  0  0  0
   61.1810   29.6270   51.2880 C   0  0  0  0  0  0  0  0  0  0  0  0
   60.1950   30.5190   51.4700 N   0  0  0  0  0  0  0  0  0  0  0  0
   59.2020   30.6260   50.5550 C   0  0  0  0  0  0  0  0  0  0  0  0
   58.1050   31.6260   50.7690 C   0  0  0  0  0  0  0  0  0  0  0  0
   57.9320   32.2500   49.5310 F   0  0  0  0  0  0  0  0  0  0  0  0
   58.4980   32.5380   51.7100 F   0  0  0  0  0  0  0  0  0  0  0  0
   56.9780   30.9170   51.1250 F   0  0  0  0  0  0  0  0  0  0  0  0
   59.1560   29.8610   49.4450 N   0  0  0  0  0  0  0  0  0  0  0  0
   58.6400   31.1660   45.6920 C   0  0  0  0  0  0  0  0  0  0  0  0
   58.9770   32.0090   46.7500 C   0  0  0  0  0  0  0  0  0  0  0  0
   60.4730   34.2290   49.7620 C   0  0  0  0  0  0  0  0  0  0  0  0
   62.2380   32.5500   48.2630 C   0  0  0  0  0  0  0  0  0  0  0  0
   62.5730   31.5150   47.6750 O   0  0  0  0  0  0  0  0  0  0  0  0
   65.7369   32.5421   51.2522 H   0  0  0  0  0  0  0  0  0  0  0  0
   65.8872   31.3338   49.9316 H   0  0  0  0  0  0  0  0  0  0  0  0
   66.9273   32.7983   49.9316 H   0  0  0  0  0  0  0  0  0  0  0  0
   62.2708   34.5371   47.4881 H   0  0  0  0  0  0  0  0  0  0  0  0
   62.7065   31.6034   50.1428 H   0  0  0  0  0  0  0  0  0  0  0  0
   59.4668   34.1285   50.1949 H   0  0  0  0  0  0  0  0  0  0  0  0
   58.3091   35.0128   45.3613 H   0  0  0  0  0  0  0  0  0  0  0  0
   57.7151   33.5266   43.4881 H   0  0  0  0  0  0  0  0  0  0  0  0
   58.1760   31.2010   42.4380 H   0  0  0  0  0  0  0  0  0  0  0  0
   57.3361   27.3024   43.1648 H   0  0  0  0  0  0  0  0  0  0  0  0
   58.7802   28.3526   43.4908 H   0  0  0  0  0  0  0  0  0  0  0  0
   56.9450   28.1399   45.7368 H   0  0  0  0  0  0  0  0  0  0  0  0
   57.6983   26.5553   45.1747 H   0  0  0  0  0  0  0  0  0  0  0  0
   59.7464   27.1280   45.7881 H   0  0  0  0  0  0  0  0  0  0  0  0
   59.4221   28.9097   45.5784 H   0  0  0  0  0  0  0  0  0  0  0  0
   58.2125   29.0041   47.6147 H   0  0  0  0  0  0  0  0  0  0  0  0
   58.3077   27.2002   47.7990 H   0  0  0  0  0  0  0  0  0  0  0  0
   61.9236   28.1178   49.9802 H   0  0  0  0  0  0  0  0  0  0  0  0
   61.9990   29.5184   52.0154 H   0  0  0  0  0  0  0  0  0  0  0  0
   60.2220   31.1190   52.3320 H   0  0  0  0  0  0  0  0  0  0  0  0
   58.7381   30.0755   45.7978 H   0  0  0  0  0  0  0  0  0  0  0  0
   59.3403   31.5684   47.6901 H   0  0  0  0  0  0  0  0  0  0  0  0
   60.9010   35.2242   49.9525 H   0  0  0  0  0  0  0  0  0  0  0  0
   61.3105   33.3703   46.5316 H   0  0  0  0  0  0  0  0  0  0  0  0
  1  2  1  0
  2  3  1  0
  3  4  2  0
  3  5  1  0
  5  6  1  0
  6  7  2  0
  6  8  1  0
  8  9  1  0
  9 10  2  3
 10 11  1  0
 11 12  2  0
 12 13  1  0
 13 14  2  0
 14 15  1  0
 15 16  1  0
 16 17  2  0
 16 18  2  0
 16 19  1  0
 19 20  1  0
 20 21  1  0
 21 22  1  0
 22 23  1  0
 23 24  2  0
 24 25  1  0
 25 26  2  0
 26 27  1  0
 27 28  1  0
 28 29  1  0
 29 30  1  0
 29 31  1  0
 29 32  1  0
 28 33  2  0
 14 34  1  0
 34 35  2  0
  9 36  1  0
 36 37  1  0
 37 38  2  0
 37  5  1  0
 35 11  1  0
 33 24  1  0
  1 39  1  0
  1 40  1  0
  1 41  1  0
  5 42  1  0
  8 43  1  0
  8 44  1  0
 12 45  1  0
 13 46  1  0
 15 47  1  0
 19 48  1  0
 19 49  1  0
 20 50  1  0
 20 51  1  0
 21 52  1  0
 21 53  1  0
 22 54  1  0
 22 55  1  0
 25 56  1  0
 26 57  1  0
 27 58  1  0
 34 59  1  0
 35 60  1  0
 36 61  1  0
 36 62  1  0
M  END
>  <smiles>  (59) 
COC(=O)C1C(=O)CC(=Nc2ccc(NS(=O)(=O)CCCCN=c3cc[nH]c(C(F)(F)F)n3)cc2)CC1=O

>  <score_type>  (59) 
oracle

>  <origin>  (59) 
adg

>  <m_score__min__energy>  (59) 
-9.8100000000000005

>  <m_primary>  (59) 
energy

$$$$
59:0
     RDKit          3D

 42 44  0  0  0  0  0  0  0  0999 V2000
   55.7200   33.4570   44.9860 H   0  0  0  0  0  0  0  0  0  0  0  0
   56.6620   33.7580   45.1990 O   0  0  0  0  0  0  0  0  0  0  0  0
   57.7560   32.8890   45.1420 C   0  0  0  0  0  0  0  0  0  0  0  0
   57.5130   31.5940   44.8730 C   0  0  0  0  0  0  0  0  0  0  0  0
   56.2640   31.0740   44.8680 N   0  0  0  0  0  0  0  0  0  0  0  0
   56.2560   29.7460   44.5750 C   0  0  0  0  0  0  0  0  0  0  0  0
   55.1730   29.1110   44.4830 O   0  0  0  0  0  0  0  0  0  0  0  0
   57.5160   29.1740   44.3510 C   0  0  0  0  0  0  0  0  0  0  0  0
   57.8320   27.9090   44.0310 C   0  0  0  0  0  0  0  0  0  0  0  0
   58.1707   27.7138   43.0028 H   0  0  0  0  0  0  0  0  0  0  0  0
   57.7590   26.7610   44.9550 C   0  0  0  0  0  0  0  0  0  0  0  0
   57.7260   25.4590   44.4350 C   0  0  0  0  0  0  0  0  0  0  0  0
   57.7150   25.3041   43.3460 H   0  0  0  0  0  0  0  0  0  0  0  0
   57.7070   24.3560   45.2960 C   0  0  0  0  0  0  0  0  0  0  0  0
   57.6622   23.3373   44.8833 H   0  0  0  0  0  0  0  0  0  0  0  0
   57.7450   24.5480   46.6810 C   0  0  0  0  0  0  0  0  0  0  0  0
   57.7240   23.4510   47.5340 O   0  0  0  0  0  0  0  0  0  0  0  0
   57.8070   25.8420   47.2060 C   0  0  0  0  0  0  0  0  0  0  0  0
   57.8409   25.9926   48.2951 H   0  0  0  0  0  0  0  0  0  0  0  0
   57.8260   26.9460   46.3460 C   0  0  0  0  0  0  0  0  0  0  0  0
   57.8937   27.9625   46.7609 H   0  0  0  0  0  0  0  0  0  0  0  0
   58.6540   30.4030   44.5060 S   0  0  0  0  0  0  0  0  0  0  0  0
   59.0990   33.3930   45.3900 N   0  0  1  0  0  0  0  0  0  0  0  0
   59.8080   32.8340   44.8630 H   0  0  0  0  0  0  0  0  0  0  0  0
   59.2100   34.7800   44.9020 C   0  0  0  0  0  0  0  0  0  0  0  0
   59.2650   35.4670   45.7593 H   0  0  0  0  0  0  0  0  0  0  0  0
   60.1192   34.8822   44.2913 H   0  0  0  0  0  0  0  0  0  0  0  0
   58.3286   35.0255   44.2913 H   0  0  0  0  0  0  0  0  0  0  0  0
   59.4090   33.2910   46.8340 C   0  0  0  0  0  0  0  0  0  0  0  0
   59.1953   34.2579   47.3129 H   0  0  0  0  0  0  0  0  0  0  0  0
   58.7862   32.4911   47.2609 H   0  0  0  0  0  0  0  0  0  0  0  0
   60.8580   32.9360   47.0750 C   0  0  0  0  0  0  0  0  0  0  0  0
   61.8780   33.8520   46.7670 C   0  0  0  0  0  0  0  0  0  0  0  0
   61.6216   34.8429   46.3641 H   0  0  0  0  0  0  0  0  0  0  0  0
   63.2180   33.5080   46.9710 C   0  0  0  0  0  0  0  0  0  0  0  0
   64.0128   34.2302   46.7328 H   0  0  0  0  0  0  0  0  0  0  0  0
   63.5490   32.2480   47.4770 C   0  0  0  0  0  0  0  0  0  0  0  0
   64.6037   31.9796   47.6368 H   0  0  0  0  0  0  0  0  0  0  0  0
   62.5410   31.3290   47.7800 C   0  0  0  0  0  0  0  0  0  0  0  0
   62.8027   30.3376   48.1784 H   0  0  0  0  0  0  0  0  0  0  0  0
   61.1990   31.6690   47.5770 C   0  0  0  0  0  0  0  0  0  0  0  0
   60.4080   30.9415   47.8114 H   0  0  0  0  0  0  0  0  0  0  0  0
  1  2  1  0
  2  3  1  0
  3  4  2  0
  4  5  1  0
  5  6  1  0
  6  7  2  0
  6  8  1  0
  8  9  2  0
  9 10  1  0
  9 11  1  0
 11 12  2  0
 12 13  1  0
 12 14  1  0
 14 15  1  0
 14 16  2  0
 16 17  1  0
 16 18  1  0
 18 19  1  0
 18 20  2  0
 20 21  1  0
  8 22  1  0
  3 23  1  0
 23 24  1  6
 23 25  1  0
 25 26  1  0
 25 27  1  0
 25 28  1  0
 23 29  1  0
 29 30  1  0
 29 31  1  0
 29 32  1  0
 32 33  2  0
 33 34  1  0
 33 35  1  0
 35 36  1  0
 35 37  2  0
 37 38  1  0
 37 39  1  0
 39 40  1  0
 39 41  2  0
 41 42  1  0
 22  4  1  0
 41 32  1  0
 20 11  1  0
M  CHG  3   5  -1  17  -1  23   1
M  END
>  <UniqueID>  (60) 
51

>  <SMILES>  (60) 
C[N@@H+](Cc1ccccc1)/C(O)=c1/[n-]c(=O)/c(=C\c2ccc([O-])cc2)s1

>  <Energy>  (60) 
87.21134188624205

>  <Genealogy>  (60) 
C[NH+](Cc1ccccc1)C(O)=c1[n-]c(=O)c(=Cc2ccc([O-])cc2)s1 (protonated)
C[N@@H+](Cc1ccccc1)C(O)=c1[n-]c(=O)c(=Cc2ccc([O-])cc2)s1 (chirality)
C[N@@H+](Cc1ccccc1)/C(O)=c1/[n-]c(=O)/c(=C\c2ccc([O-])cc2)s1 (cis-trans isomerization)
C[N@@H+](Cc1ccccc1)/C(O)=c1/[n-]c(=O)/c(=C\c2ccc([O-])cc2)s1 (3D coordinates assigned)
C[N@@H+](Cc1ccccc1)/C(O)=c1/[n-]c(=O)/c(=C\c2ccc([O-])cc2)s1 (optimized conformer: 87.21134188624205 kcal/mol)

>  <smiles>  (60) 
CN(Cc1ccccc1)C(O)=c1[nH]c(=O)c(=Cc2ccc(O)cc2)s1

>  <score_type>  (60) 
oracle

>  <origin>  (60) 
adg

>  <m_score__min__energy>  (60) 
-10.949999999999999

>  <m_primary>  (60) 
energy

$$$$
60:0
     RDKit          3D

 25 26  0  0  0  0  0  0  0  0999 V2000
   55.1430   28.0040   45.9480 H   0  0  0  0  0  0  0  0  0  0  0  0
   55.6160   27.0740   45.9900 N   0  0  0  0  0  0  0  0  0  0  0  0
   54.8810   25.9750   45.8410 N   0  0  0  0  0  0  0  0  0  0  0  0
   55.4080   24.7240   45.8980 C   0  0  0  0  0  0  0  0  0  0  0  0
   54.3540   23.4860   45.6870 S   0  0  0  0  0  0  0  0  0  0  0  0
   56.8090   24.5710   46.1310 C   0  0  0  0  0  0  0  0  0  0  0  0
   57.4340   23.4240   46.2370 N   0  0  0  0  0  0  0  0  0  0  0  0
   58.0690   22.5780   45.2340 C   0  0  0  0  0  0  0  0  0  0  0  0
   58.6571   21.7945   45.7343 H   0  0  0  0  0  0  0  0  0  0  0  0
   57.2962   22.1114   44.6054 H   0  0  0  0  0  0  0  0  0  0  0  0
   58.7329   23.1897   44.6054 H   0  0  0  0  0  0  0  0  0  0  0  0
   57.5790   25.7470   46.2640 C   0  0  0  0  0  0  0  0  0  0  0  0
   56.9560   26.9990   46.1940 C   0  0  0  0  0  0  0  0  0  0  0  0
   57.7760   28.2410   46.4120 C   0  0  0  0  0  0  0  0  0  0  0  0
   57.2068   29.1137   46.0593 H   0  0  0  0  0  0  0  0  0  0  0  0
   57.9953   28.3307   47.4862 H   0  0  0  0  0  0  0  0  0  0  0  0
   59.1080   28.1670   45.6460 C   0  0  0  0  0  0  0  0  0  0  0  0
   58.9151   28.4312   44.5958 H   0  0  0  0  0  0  0  0  0  0  0  0
   59.7952   28.8648   46.1469 H   0  0  0  0  0  0  0  0  0  0  0  0
   59.7930   26.7770   45.6770 C   0  0  0  0  0  0  0  0  0  0  0  0
   59.8454   26.3962   44.6464 H   0  0  0  0  0  0  0  0  0  0  0  0
   60.7843   26.9254   46.1301 H   0  0  0  0  0  0  0  0  0  0  0  0
   59.0680   25.7310   46.5400 C   0  0  0  0  0  0  0  0  0  0  0  0
   59.4673   24.7326   46.3083 H   0  0  0  0  0  0  0  0  0  0  0  0
   59.2333   25.9721   47.6005 H   0  0  0  0  0  0  0  0  0  0  0  0
  1  2  1  0
  2  3  1  0
  3  4  1  0
  4  5  2  0
  4  6  1  0
  6  7  2  0
  7  8  1  0
  8  9  1  0
  8 10  1  0
  8 11  1  0
  6 12  1  0
 12 13  2  0
 13 14  1  0
 14 15  1  0
 14 16  1  0
 14 17  1  0
 17 18  1  0
 17 19  1  0
 17 20  1  0
 20 21  1  0
 20 22  1  0
 20 23  1  0
 23 24  1  0
 23 25  1  0
 13  2  1  0
 23 12  1  0
M  CHG  1   3  -1
M  END
>  <UniqueID>  (61) 
52

>  <SMILES>  (61) 
C/N=c1/c2c([nH][n-]c1=S)CCCC2

>  <Energy>  (61) 
40.552265219716126

>  <Genealogy>  (61) 
CN=c1c2c([nH][n-]c1=S)CCCC2 (protonated)
C/N=c1/c2c([nH][n-]c1=S)CCCC2 (cis-trans isomerization)
C/N=c1/c2c([nH][n-]c1=S)CCCC2 (3D coordinates assigned)
C/N=c1/c2c([nH][n-]c1=S)CCCC2 (nonaromatic ring conformer: 40.552265219716126 kcal/mol)

>  <smiles>  (61) 
CN=c1c2c([nH][nH]c1=S)CCCC2

>  <score_type>  (61) 
oracle

>  <origin>  (61) 
adg

>  <m_score__min__energy>  (61) 
-7.9100000000000001

>  <m_primary>  (61) 
energy

$$$$
61:0
     RDKit          3D

 44 47  0  0  0  0  0  0  0  0999 V2000
   60.9309   29.2138   48.3175 H   0  0  0  0  0  0  0  0  0  0  0  0
   60.0410   29.2210   47.6710 C   0  0  0  0  0  0  0  0  0  0  0  0
   59.2520   28.1170   47.5980 N   0  0  0  0  0  0  0  0  0  0  0  0
   58.1420   28.0810   46.8160 C   0  0  0  0  0  0  0  0  0  0  0  0
   57.3790   26.9590   46.7740 N   0  0  0  0  0  0  0  0  0  0  0  0
   56.2650   26.8920   45.9930 C   0  0  0  0  0  0  0  0  0  0  0  0
   55.5200   25.8260   45.9690 N   0  0  0  0  0  0  0  0  0  0  0  0
   55.8410   24.5610   45.3650 C   0  0  0  0  0  0  0  0  0  0  0  0
   56.5240   24.4700   44.1370 C   0  0  0  0  0  0  0  0  0  0  0  0
   56.8544   25.3857   43.6247 H   0  0  0  0  0  0  0  0  0  0  0  0
   56.7840   23.2200   43.5660 C   0  0  0  0  0  0  0  0  0  0  0  0
   57.3297   23.1538   42.6132 H   0  0  0  0  0  0  0  0  0  0  0  0
   56.3510   22.0550   44.2050 C   0  0  0  0  0  0  0  0  0  0  0  0
   56.5648   21.0719   43.7603 H   0  0  0  0  0  0  0  0  0  0  0  0
   55.6470   22.1390   45.4080 C   0  0  0  0  0  0  0  0  0  0  0  0
   55.2990   21.2220   45.9061 H   0  0  0  0  0  0  0  0  0  0  0  0
   55.3840   23.3870   45.9800 C   0  0  0  0  0  0  0  0  0  0  0  0
   54.8145   23.4484   46.9191 H   0  0  0  0  0  0  0  0  0  0  0  0
   55.8950   27.9730   45.2560 N   0  0  0  0  0  0  0  0  0  0  0  0
   56.6230   29.1210   45.2630 C   0  0  0  0  0  0  0  0  0  0  0  0
   56.2450   30.0960   44.5590 O   0  0  0  0  0  0  0  0  0  0  0  0
   57.7820   29.2040   46.0510 C   0  0  0  0  0  0  0  0  0  0  0  0
   58.5840   30.3540   46.1100 C   0  0  0  0  0  0  0  0  0  0  0  0
   58.3173   31.2415   45.5173 H   0  0  0  0  0  0  0  0  0  0  0  0
   59.7290   30.3720   46.9270 C   0  0  0  0  0  0  0  0  0  0  0  0
   60.5900   31.5800   47.0000 C   0  0  0  0  0  0  0  0  0  0  0  0
   60.0820   32.8400   46.6430 C   0  0  0  0  0  0  0  0  0  0  0  0
   59.0395   32.9331   46.3046 H   0  0  0  0  0  0  0  0  0  0  0  0
   60.8920   33.9750   46.7150 C   0  0  0  0  0  0  0  0  0  0  0  0
   60.4842   34.9575   46.4351 H   0  0  0  0  0  0  0  0  0  0  0  0
   62.2180   33.8680   47.1410 C   0  0  0  0  0  0  0  0  0  0  0  0
   62.8486   34.7675   47.1975 H   0  0  0  0  0  0  0  0  0  0  0  0
   62.7510   32.6170   47.4980 C   0  0  0  0  0  0  0  0  0  0  0  0
   64.1100   32.4660   47.9480 N   0  0  0  0  0  0  0  0  0  0  0  0
   64.8620   32.3220   47.2380 H   0  0  0  0  0  0  0  0  0  0  0  0
   64.6220   32.6130   49.6010 S   0  0  0  0  0  0  0  0  0  0  0  0
   64.0530   33.8800   50.1730 O   0  0  0  0  0  0  0  0  0  0  0  0
   66.1220   32.6830   49.6720 O   0  0  0  0  0  0  0  0  0  0  0  0
   64.0160   31.2390   50.5580 C   0  0  0  0  0  0  0  0  0  0  0  0
   64.1161   31.4660   51.6296 H   0  0  0  0  0  0  0  0  0  0  0  0
   62.9570   31.0635   50.3178 H   0  0  0  0  0  0  0  0  0  0  0  0
   64.6005   30.3387   50.3178 H   0  0  0  0  0  0  0  0  0  0  0  0
   61.9270   31.4810   47.4280 C   0  0  0  0  0  0  0  0  0  0  0  0
   62.3333   30.4991   47.7122 H   0  0  0  0  0  0  0  0  0  0  0  0
  1  2  1  0
  2  3  2  0
  3  4  1  0
  4  5  1  0
  5  6  1  0
  6  7  2  0
  7  8  1  0
  8  9  2  0
  9 10  1  0
  9 11  1  0
 11 12  1  0
 11 13  2  0
 13 14  1  0
 13 15  1  0
 15 16  1  0
 15 17  2  0
 17 18  1  0
  6 19  1  0
 19 20  1  0
 20 21  2  0
 20 22  1  0
 22 23  1  0
 23 24  1  0
 23 25  2  0
 25 26  1  0
 26 27  2  0
 27 28  1  0
 27 29  1  0
 29 30  1  0
 29 31  2  0
 31 32  1  0
 31 33  1  0
 33 34  1  0
 34 35  1  0
 34 36  1  0
 36 37  2  0
 36 38  2  0
 36 39  1  0
 39 40  1  0
 39 41  1  0
 39 42  1  0
 33 43  2  0
 43 44  1  0
 25  2  1  0
 43 26  1  0
 22  4  2  0
 17  8  1  0
M  CHG  2   5  -1  19  -1
M  END
>  <UniqueID>  (62) 
53

>  <SMILES>  (62) 
CS(=O)(=O)Nc1cccc(-c2cnc3[n-]/c(=N\c4ccccc4)[n-]c(=O)c3c2)c1

>  <Energy>  (62) 
64.64089821516498

>  <Genealogy>  (62) 
CS(=O)(=O)Nc1cccc(-c2cnc3[n-]c(=Nc4ccccc4)[n-]c(=O)c3c2)c1 (protonated)
CS(=O)(=O)Nc1cccc(-c2cnc3[n-]/c(=N\c4ccccc4)[n-]c(=O)c3c2)c1 (cis-trans isomerization)
CS(=O)(=O)Nc1cccc(-c2cnc3[n-]/c(=N\c4ccccc4)[n-]c(=O)c3c2)c1 (3D coordinates assigned)
CS(=O)(=O)Nc1cccc(-c2cnc3[n-]/c(=N\c4ccccc4)[n-]c(=O)c3c2)c1 (optimized conformer: 64.64089821516498 kcal/mol)

>  <smiles>  (62) 
CS(=O)(=O)Nc1cccc(-c2cnc3[nH]c(=Nc4ccccc4)[nH]c(=O)c3c2)c1

>  <score_type>  (62) 
oracle

>  <origin>  (62) 
adg

>  <m_score__min__energy>  (62) 
-12.76

>  <m_primary>  (62) 
energy

$$$$
62:0
     RDKit          3D

 26 27  0  0  0  0  0  0  0  0999 V2000
   55.1540   28.1500   45.9830 H   0  0  0  0  0  0  0  0  0  0  0  0
   55.8620   28.1800   45.2590 O   0  0  0  0  0  0  0  0  0  0  0  0
   56.5240   29.3630   44.9360 C   0  0  0  0  0  0  0  0  0  0  0  0
   56.2660   30.0200   43.7250 C   0  0  0  0  0  0  0  0  0  0  0  0
   55.5360   29.5997   43.0175 H   0  0  0  0  0  0  0  0  0  0  0  0
   56.9340   31.2080   43.4140 C   0  0  0  0  0  0  0  0  0  0  0  0
   56.7396   31.7101   42.4548 H   0  0  0  0  0  0  0  0  0  0  0  0
   57.8510   31.7630   44.3190 C   0  0  0  0  0  0  0  0  0  0  0  0
   58.5620   33.0080   43.9540 C   0  0  0  0  0  0  0  0  0  0  0  0
   58.9726   33.0859   42.9365 H   0  0  0  0  0  0  0  0  0  0  0  0
   58.7340   34.0200   44.7600 N   0  0  0  0  0  0  0  0  0  0  0  0
   59.4830   34.0440   45.9850 C   0  0  0  0  0  0  0  0  0  0  0  0
   58.8010   34.2380   47.1930 C   0  0  0  0  0  0  0  0  0  0  0  0
   57.7118   34.3918   47.1884 H   0  0  0  0  0  0  0  0  0  0  0  0
   59.4990   34.2370   48.4050 C   0  0  0  0  0  0  0  0  0  0  0  0
   58.9606   34.4081   49.3488 H   0  0  0  0  0  0  0  0  0  0  0  0
   60.8790   34.0190   48.4190 C   0  0  0  0  0  0  0  0  0  0  0  0
   61.4274   34.0267   49.3725 H   0  0  0  0  0  0  0  0  0  0  0  0
   61.5630   33.7910   47.2210 C   0  0  0  0  0  0  0  0  0  0  0  0
   63.4450   33.4710   47.2400 Br  0  0  0  0  0  0  0  0  0  0  0  0
   60.8670   33.7880   46.0080 C   0  0  0  0  0  0  0  0  0  0  0  0
   61.4027   33.5850   45.0690 H   0  0  0  0  0  0  0  0  0  0  0  0
   58.1280   31.0840   45.5200 C   0  0  0  0  0  0  0  0  0  0  0  0
   58.8747   31.4894   46.2187 H   0  0  0  0  0  0  0  0  0  0  0  0
   57.4580   29.8960   45.8290 C   0  0  0  0  0  0  0  0  0  0  0  0
   57.6666   29.3795   46.7775 H   0  0  0  0  0  0  0  0  0  0  0  0
  1  2  1  0
  2  3  1  0
  3  4  2  0
  4  5  1  0
  4  6  1  0
  6  7  1  0
  6  8  2  0
  8  9  1  0
  9 10  1  0
  9 11  2  0
 11 12  1  0
 12 13  2  0
 13 14  1  0
 13 15  1  0
 15 16  1  0
 15 17  2  0
 17 18  1  0
 17 19  1  0
 19 20  1  0
 19 21  2  0
 21 22  1  0
  8 23  1  0
 23 24  1  0
 23 25  2  0
 25 26  1  0
 25  3  1  0
 21 12  1  0
M  END
>  <UniqueID>  (63) 
54

>  <SMILES>  (63) 
Oc1ccc(/C=N\c2cccc(Br)c2)cc1

>  <Energy>  (63) 
37.127139529119646

>  <Genealogy>  (63) 
Oc1ccc(/C=N\c2cccc(Br)c2)cc1 (cis-trans isomerization)
Oc1ccc(/C=N\c2cccc(Br)c2)cc1 (3D coordinates assigned)
Oc1ccc(/C=N\c2cccc(Br)c2)cc1 (optimized conformer: 37.127139529119646 kcal/mol)

>  <smiles>  (63) 
Oc1ccc(C=Nc2cccc(Br)c2)cc1

>  <score_type>  (63) 
oracle

>  <origin>  (63) 
adg

>  <m_score__min__energy>  (63) 
-7.5

>  <m_primary>  (63) 
energy

$$$$
63:0
     RDKit          3D

 50 54  0  0  0  0  0  0  0  0999 V2000
   54.0460   25.9040   45.7380 N   0  0  0  0  0  0  0  0  0  0  0  0
   55.5640   25.0790   45.8000 S   0  0  0  0  0  0  0  0  0  0  0  0
   55.8680   24.4740   44.4590 O   0  0  0  0  0  0  0  0  0  0  0  0
   55.4840   23.9830   46.8260 O   0  0  0  0  0  0  0  0  0  0  0  0
   56.8310   26.2240   46.2240 C   0  0  0  0  0  0  0  0  0  0  0  0
   57.0720   27.3270   45.3950 C   0  0  0  0  0  0  0  0  0  0  0  0
   58.0750   28.2470   45.7190 C   0  0  0  0  0  0  0  0  0  0  0  0
   58.8590   28.0660   46.8720 C   0  0  0  0  0  0  0  0  0  0  0  0
   59.8800   29.0080   47.2420 N   0  0  0  0  0  0  0  0  0  0  0  0
   60.8010   29.6030   46.3130 C   0  0  0  0  0  0  0  0  0  0  0  0
   60.8900   29.1730   45.1320 O   0  0  0  0  0  0  0  0  0  0  0  0
   61.7320   30.6820   46.7720 C   0  0  0  0  0  0  0  0  0  0  0  0
   61.0310   31.6080   47.6600 N   0  0  0  0  0  0  0  0  0  0  0  0
   61.1510   31.6550   49.0820 C   0  0  0  0  0  0  0  0  0  0  0  0
   61.6490   30.7180   49.7650 O   0  0  0  0  0  0  0  0  0  0  0  0
   60.6100   32.9340   49.6620 C   0  0  2  0  0  0  0  0  0  0  0  0
   61.6510   33.7320   50.5000 C   0  0  0  0  0  0  0  0  0  0  0  0
   61.0410   33.9140   51.7790 O   0  0  0  0  0  0  0  0  0  0  0  0
   59.8000   33.3090   51.8140 C   0  0  0  0  0  0  0  0  0  0  0  0
   58.9240   33.2760   52.8970 C   0  0  0  0  0  0  0  0  0  0  0  0
   57.6970   32.6070   52.7400 C   0  0  0  0  0  0  0  0  0  0  0  0
   57.3760   31.9920   51.5140 C   0  0  0  0  0  0  0  0  0  0  0  0
   58.2780   32.0440   50.4380 C   0  0  0  0  0  0  0  0  0  0  0  0
   59.4920   32.7130   50.6220 C   0  0  0  0  0  0  0  0  0  0  0  0
   60.1740   33.6360   48.4060 C   0  0  0  0  0  0  0  0  0  0  0  0
   59.5800   34.8940   48.2730 C   0  0  0  0  0  0  0  0  0  0  0  0
   59.2670   35.3540   46.9850 C   0  0  0  0  0  0  0  0  0  0  0  0
   59.5480   34.5600   45.8580 C   0  0  0  0  0  0  0  0  0  0  0  0
   60.1420   33.2960   46.0090 C   0  0  0  0  0  0  0  0  0  0  0  0
   60.4440   32.8530   47.2990 C   0  0  0  0  0  0  0  0  0  0  0  0
   58.5960   26.9730   47.7120 C   0  0  0  0  0  0  0  0  0  0  0  0
   57.5940   26.0550   47.3880 C   0  0  0  0  0  0  0  0  0  0  0  0
   54.1240   26.7330   46.3700 H   0  0  0  0  0  0  0  0  0  0  0  0
   56.4702   27.4705   44.4855 H   0  0  0  0  0  0  0  0  0  0  0  0
   58.2511   29.1163   45.0684 H   0  0  0  0  0  0  0  0  0  0  0  0
   60.0240   29.1980   48.2580 H   0  0  0  0  0  0  0  0  0  0  0  0
   62.5759   30.2284   47.3125 H   0  0  0  0  0  0  0  0  0  0  0  0
   62.1016   31.2347   45.8957 H   0  0  0  0  0  0  0  0  0  0  0  0
   62.5870   33.1623   50.5965 H   0  0  0  0  0  0  0  0  0  0  0  0
   61.9110   34.6910   50.0280 H   0  0  0  0  0  0  0  0  0  0  0  0
   59.1852   33.7603   53.8495 H   0  0  0  0  0  0  0  0  0  0  0  0
   56.9853   32.5638   53.5776 H   0  0  0  0  0  0  0  0  0  0  0  0
   56.4152   31.4689   51.3986 H   0  0  0  0  0  0  0  0  0  0  0  0
   58.0353   31.5704   49.4753 H   0  0  0  0  0  0  0  0  0  0  0  0
   59.3627   35.5097   49.1583 H   0  0  0  0  0  0  0  0  0  0  0  0
   58.7992   36.3411   46.8556 H   0  0  0  0  0  0  0  0  0  0  0  0
   59.3010   34.9313   44.8524 H   0  0  0  0  0  0  0  0  0  0  0  0
   60.3641   32.6699   45.1323 H   0  0  0  0  0  0  0  0  0  0  0  0
   59.1832   26.8381   48.6324 H   0  0  0  0  0  0  0  0  0  0  0  0
   57.4030   25.1964   48.0486 H   0  0  0  0  0  0  0  0  0  0  0  0
  1  2  1  0
  2  3  2  0
  2  4  2  0
  2  5  1  0
  5  6  2  0
  6  7  1  0
  7  8  2  0
  8  9  1  0
  9 10  1  0
 10 11  2  0
 10 12  1  0
 12 13  1  0
 13 14  1  0
 14 15  2  0
 14 16  1  0
 16 17  1  1
 17 18  1  0
 18 19  1  0
 19 20  2  0
 20 21  1  0
 21 22  2  0
 22 23  1  0
 23 24  2  0
 16 25  1  0
 25 26  2  0
 26 27  1  0
 27 28  2  0
 28 29  1  0
 29 30  2  0
  8 31  1  0
 31 32  2  0
 32  5  1  0
 30 13  1  0
 24 16  1  0
 30 25  1  0
 24 19  1  0
  1 33  1  0
  6 34  1  0
  7 35  1  0
  9 36  1  0
 12 37  1  0
 12 38  1  0
 17 39  1  0
 17 40  1  0
 20 41  1  0
 21 42  1  0
 22 43  1  0
 23 44  1  0
 26 45  1  0
 27 46  1  0
 28 47  1  0
 29 48  1  0
 31 49  1  0
 32 50  1  0
M  CHG  1   1  -1
M  END
>  <UniqueID>  (64) 
55

>  <SMILES>  (64) 
[NH-]S(=O)(=O)c1ccc(NC(=O)CN2C(=O)[C@@]3(COc4ccccc43)c3ccccc32)cc1

>  <Energy>  (64) 
95.07155220504447

>  <Genealogy>  (64) 
[NH-]S(=O)(=O)c1ccc(NC(=O)CN2C(=O)C3(COc4ccccc43)c3ccccc32)cc1 (protonated)
[NH-]S(=O)(=O)c1ccc(NC(=O)CN2C(=O)[C@@]3(COc4ccccc43)c3ccccc32)cc1 (chirality)
[NH-]S(=O)(=O)c1ccc(NC(=O)CN2C(=O)[C@@]3(COc4ccccc43)c3ccccc32)cc1 (3D coordinates assigned)
[NH-]S(=O)(=O)c1ccc(NC(=O)CN2C(=O)[C@@]3(COc4ccccc43)c3ccccc32)cc1 (nonaromatic ring conformer: 95.07155220504447 kcal/mol)

>  <smiles>  (64) 
NS(=O)(=O)c1ccc(NC(=O)CN2C(=O)C3(COc4ccccc43)c3ccccc32)cc1

>  <score_type>  (64) 
oracle

>  <origin>  (64) 
adg

>  <m_score__min__energy>  (64) 
-11.279999999999999

>  <m_primary>  (64) 
energy

$$$$
64:0
     RDKit          3D

 31 33  0  0  0  0  0  0  0  0999 V2000
   54.7210   29.7150   43.2670 O   0  0  0  0  0  0  0  0  0  0  0  0
   55.7440   29.6040   43.9910 C   0  0  0  0  0  0  0  0  0  0  0  0
   56.9800   30.1790   43.5430 N   0  0  0  0  0  0  0  0  0  0  0  0
   57.5840   31.3680   44.0680 C   0  0  0  0  0  0  0  0  0  0  0  0
   58.0300   32.4020   43.2280 C   0  0  0  0  0  0  0  0  0  0  0  0
   58.5910   33.5220   43.7570 N   0  0  0  0  0  0  0  0  0  0  0  0
   58.7500   33.6760   45.0990 C   0  0  0  0  0  0  0  0  0  0  0  0
   59.3250   34.8470   45.6080 C   0  0  0  0  0  0  0  0  0  0  0  0
   59.4910   35.0010   46.9880 C   0  0  0  0  0  0  0  0  0  0  0  0
   59.0860   33.9870   47.8630 C   0  0  0  0  0  0  0  0  0  0  0  0
   58.5130   32.8130   47.3630 C   0  0  0  0  0  0  0  0  0  0  0  0
   58.3410   32.6510   45.9800 C   0  0  0  0  0  0  0  0  0  0  0  0
   57.7660   31.4910   45.4490 C   0  0  0  0  0  0  0  0  0  0  0  0
   55.6420   28.9000   45.2370 N   0  0  0  0  0  0  0  0  0  0  0  0
   56.4730   27.8070   45.6540 C   0  0  0  0  0  0  0  0  0  0  0  0
   57.8550   28.0150   45.7550 C   0  0  0  0  0  0  0  0  0  0  0  0
   58.7030   26.9690   46.1280 C   0  0  0  0  0  0  0  0  0  0  0  0
   58.1740   25.7110   46.4220 C   0  0  0  0  0  0  0  0  0  0  0  0
   56.7940   25.5010   46.3580 C   0  0  0  0  0  0  0  0  0  0  0  0
   55.9390   26.5450   45.9890 C   0  0  0  0  0  0  0  0  0  0  0  0
   54.5660   26.3250   45.9840 O   0  0  0  0  0  0  0  0  0  0  0  0
   57.9249   32.3051   42.1373 H   0  0  0  0  0  0  0  0  0  0  0  0
   59.6459   35.6453   44.9227 H   0  0  0  0  0  0  0  0  0  0  0  0
   59.9413   35.9220   47.3868 H   0  0  0  0  0  0  0  0  0  0  0  0
   59.2186   34.1135   48.9476 H   0  0  0  0  0  0  0  0  0  0  0  0
   58.1974   32.0172   48.0537 H   0  0  0  0  0  0  0  0  0  0  0  0
   57.4568   30.6750   46.1187 H   0  0  0  0  0  0  0  0  0  0  0  0
   58.2752   29.0084   45.5392 H   0  0  0  0  0  0  0  0  0  0  0  0
   59.7883   27.1369   46.1900 H   0  0  0  0  0  0  0  0  0  0  0  0
   58.8435   24.8850   46.7040 H   0  0  0  0  0  0  0  0  0  0  0  0
   56.3785   24.5113   46.5986 H   0  0  0  0  0  0  0  0  0  0  0  0
  1  2  2  0
  2  3  1  0
  3  4  1  0
  4  5  2  0
  5  6  1  0
  6  7  2  0
  7  8  1  0
  8  9  2  0
  9 10  1  0
 10 11  2  0
 11 12  1  0
 12 13  2  0
  2 14  1  0
 14 15  1  0
 15 16  2  0
 16 17  1  0
 17 18  2  0
 18 19  1  0
 19 20  2  0
 20 21  1  0
 13  4  1  0
 20 15  1  0
 12  7  1  0
  5 22  1  0
  8 23  1  0
  9 24  1  0
 10 25  1  0
 11 26  1  0
 13 27  1  0
 16 28  1  0
 17 29  1  0
 18 30  1  0
 19 31  1  0
M  CHG  3   3  -1  14  -1  21  -1
M  END
>  <UniqueID>  (65) 
56

>  <SMILES>  (65) 
O=C([N-]c1cnc2ccccc2c1)[N-]c1ccccc1[O-]

>  <Energy>  (65) 
46.08752465807382

>  <Genealogy>  (65) 
O=C([N-]c1cnc2ccccc2c1)[N-]c1ccccc1[O-] (protonated)
O=C([N-]c1cnc2ccccc2c1)[N-]c1ccccc1[O-] (3D coordinates assigned)
O=C([N-]c1cnc2ccccc2c1)[N-]c1ccccc1[O-] (optimized conformer: 46.08752465807382 kcal/mol)

>  <smiles>  (65) 
O=C(Nc1cnc2ccccc2c1)Nc1ccccc1O

>  <score_type>  (65) 
oracle

>  <origin>  (65) 
adg

>  <m_score__min__energy>  (65) 
-15.24

>  <m_primary>  (65) 
energy

$$$$
65:0
     RDKit          3D

 12 12  0  0  0  0  0  0  0  0999 V2000
   57.9070   32.1770   44.9400 C   0  0  0  0  0  0  0  0  0  0  0  0
   57.1610   31.0590   44.2670 C   0  0  0  0  0  0  0  0  0  0  0  0
   55.8610   30.8000   44.5000 N   0  0  0  0  0  0  0  0  0  0  0  0
   55.5200   29.7270   43.7250 C   0  0  0  0  0  0  0  0  0  0  0  0
   56.6610   29.3420   43.0110 C   0  0  0  0  0  0  0  0  0  0  0  0
   57.6670   30.1910   43.3700 N   0  0  0  0  0  0  0  0  0  0  0  0
   57.8312   32.0635   46.0315 H   0  0  0  0  0  0  0  0  0  0  0  0
   58.9649   32.1443   44.6405 H   0  0  0  0  0  0  0  0  0  0  0  0
   57.4708   33.1414   44.6405 H   0  0  0  0  0  0  0  0  0  0  0  0
   54.5291   29.2523   43.6719 H   0  0  0  0  0  0  0  0  0  0  0  0
   56.7330   28.5105   42.2945 H   0  0  0  0  0  0  0  0  0  0  0  0
   58.6580   30.1460   42.9910 H   0  0  0  0  0  0  0  0  0  0  0  0
  1  2  1  0
  2  3  2  0
  3  4  1  0
  4  5  2  0
  5  6  1  0
  6  2  1  0
  1  7  1  0
  1  8  1  0
  1  9  1  0
  4 10  1  0
  5 11  1  0
  6 12  1  0
M  END
>  <smiles>  (66) 
Cc1ncc[nH]1

>  <score_type>  (66) 
oracle

>  <origin>  (66) 
adg

>  <m_score__min__energy>  (66) 
-3.4199999999999999

>  <m_primary>  (66) 
energy

$$$$
66:0
     RDKit          3D

 52 55  0  0  0  0  0  0  0  0999 V2000
   59.9437   26.8681   45.1261 H   0  0  0  0  0  0  0  0  0  0  0  0
   59.0930   26.3840   45.6280 C   0  0  0  0  0  0  0  0  0  0  0  0
   57.9200   27.1130   45.8950 C   0  0  0  0  0  0  0  0  0  0  0  0
   57.7930   28.5060   45.5240 N   0  0  0  0  0  0  0  0  0  0  0  0
   58.8460   29.4690   45.9110 C   0  0  0  0  0  0  0  0  0  0  0  0
   59.7237   29.3032   45.2690 H   0  0  0  0  0  0  0  0  0  0  0  0
   59.0708   29.2959   46.9738 H   0  0  0  0  0  0  0  0  0  0  0  0
   58.4180   30.9090   45.7740 C   0  0  0  0  0  0  0  0  0  0  0  0
   59.0770   31.9090   46.5080 C   0  0  0  0  0  0  0  0  0  0  0  0
   59.8729   31.6341   47.2158 H   0  0  0  0  0  0  0  0  0  0  0  0
   58.7260   33.2520   46.3430 C   0  0  0  0  0  0  0  0  0  0  0  0
   59.2367   34.0295   46.9301 H   0  0  0  0  0  0  0  0  0  0  0  0
   57.7270   33.6080   45.4330 C   0  0  0  0  0  0  0  0  0  0  0  0
   57.4521   34.6653   45.3046 H   0  0  0  0  0  0  0  0  0  0  0  0
   57.0770   32.6220   44.6860 C   0  0  0  0  0  0  0  0  0  0  0  0
   56.2990   32.9054   43.9619 H   0  0  0  0  0  0  0  0  0  0  0  0
   57.4150   31.2710   44.8580 C   0  0  0  0  0  0  0  0  0  0  0  0
   56.7540   30.2050   44.0390 C   0  0  0  0  0  0  0  0  0  0  0  0
   57.3933   29.9569   43.1789 H   0  0  0  0  0  0  0  0  0  0  0  0
   55.7798   30.5728   43.6846 H   0  0  0  0  0  0  0  0  0  0  0  0
   56.5400   28.9530   44.8890 C   0  0  0  0  0  0  0  0  0  0  0  0
   56.1584   28.1462   44.2460 H   0  0  0  0  0  0  0  0  0  0  0  0
   55.8199   29.1965   45.6840 H   0  0  0  0  0  0  0  0  0  0  0  0
   56.8810   26.4830   46.5150 N   0  0  0  0  0  0  0  0  0  0  0  0
   56.9240   25.1770   46.8920 C   0  0  0  0  0  0  0  0  0  0  0  0
   55.8800   24.6640   47.4780 N   0  0  0  0  0  0  0  0  0  0  0  0
   55.3970   23.2920   47.3400 C   0  0  0  0  0  0  0  0  0  0  0  0
   55.1636   22.8830   48.3341 H   0  0  0  0  0  0  0  0  0  0  0  0
   56.1732   22.6745   46.8644 H   0  0  0  0  0  0  0  0  0  0  0  0
   54.1510   23.2840   46.4860 C   0  0  0  0  0  0  0  0  0  0  0  0
   52.9300   22.7930   47.0090 C   0  0  0  0  0  0  0  0  0  0  0  0
   52.7830   22.2190   48.6690 Cl  0  0  0  0  0  0  0  0  0  0  0  0
   51.7840   22.7630   46.2090 C   0  0  0  0  0  0  0  0  0  0  0  0
   50.8431   22.3649   46.6167 H   0  0  0  0  0  0  0  0  0  0  0  0
   51.8260   23.2340   44.8990 C   0  0  0  0  0  0  0  0  0  0  0  0
   50.9228   23.1956   44.2723 H   0  0  0  0  0  0  0  0  0  0  0  0
   53.0110   23.7540   44.3810 C   0  0  0  0  0  0  0  0  0  0  0  0
   53.0316   24.1368   43.3500 H   0  0  0  0  0  0  0  0  0  0  0  0
   54.1790   23.7950   45.1600 C   0  0  0  0  0  0  0  0  0  0  0  0
   55.3730   24.4000   44.6310 N   0  0  0  0  0  0  0  0  0  0  0  0
   55.7000   25.3200   44.9990 H   0  0  0  0  0  0  0  0  0  0  0  0
   56.3870   23.6290   43.4520 S   0  0  0  0  0  0  0  0  0  0  0  0
   57.1680   24.6610   42.6880 O   0  0  0  0  0  0  0  0  0  0  0  0
   55.5220   22.8690   42.4870 O   0  0  0  0  0  0  0  0  0  0  0  0
   57.5000   22.4980   44.2560 C   0  0  0  0  0  0  0  0  0  0  0  0
   57.4006   22.5990   45.3468 H   0  0  0  0  0  0  0  0  0  0  0  0
   57.2536   21.4679   43.9592 H   0  0  0  0  0  0  0  0  0  0  0  0
   58.5340   22.7278   43.9592 H   0  0  0  0  0  0  0  0  0  0  0  0
   58.0910   24.4300   46.6380 C   0  0  0  0  0  0  0  0  0  0  0  0
   58.1500   23.3731   46.9372 H   0  0  0  0  0  0  0  0  0  0  0  0
   59.1700   25.0430   46.0040 C   0  0  0  0  0  0  0  0  0  0  0  0
   60.0850   24.4677   45.7995 H   0  0  0  0  0  0  0  0  0  0  0  0
  1  2  1  0
  2  3  2  0
  3  4  1  0
  4  5  1  0
  5  6  1  0
  5  7  1  0
  5  8  1  0
  8  9  2  0
  9 10  1  0
  9 11  1  0
 11 12  1  0
 11 13  2  0
 13 14  1  0
 13 15  1  0
 15 16  1  0
 15 17  2  0
 17 18  1  0
 18 19  1  0
 18 20  1  0
 18 21  1  0
 21 22  1  0
 21 23  1  0
  3 24  1  0
 24 25  1  0
 25 26  2  0
 26 27  1  0
 27 28  1  0
 27 29  1  0
 27 30  1  0
 30 31  2  0
 31 32  1  0
 31 33  1  0
 33 34  1  0
 33 35  2  0
 35 36  1  0
 35 37  1  0
 37 38  1  0
 37 39  2  0
 39 40  1  0
 40 41  1  0
 40 42  1  0
 42 43  2  0
 42 44  2  0
 42 45  1  0
 45 46  1  0
 45 47  1  0
 45 48  1  0
 25 49  1  0
 49 50  1  0
 49 51  2  0
 51 52  1  0
 51  2  1  0
 21  4  1  0
 39 30  1  0
 17  8  1  0
M  CHG  1  24  -1
M  END
>  <UniqueID>  (67) 
57

>  <SMILES>  (67) 
CS(=O)(=O)Nc1cccc(Cl)c1C/N=c1\cccc(N2CCc3ccccc3C2)[n-]1

>  <Energy>  (67) 
64.36361612925982

>  <Genealogy>  (67) 
CS(=O)(=O)Nc1cccc(Cl)c1CN=c1cccc(N2CCc3ccccc3C2)[n-]1 (protonated)
CS(=O)(=O)Nc1cccc(Cl)c1C/N=c1\cccc(N2CCc3ccccc3C2)[n-]1 (cis-trans isomerization)
CS(=O)(=O)Nc1cccc(Cl)c1C/N=c1\cccc(N2CCc3ccccc3C2)[n-]1 (3D coordinates assigned)
CS(=O)(=O)Nc1cccc(Cl)c1C/N=c1\cccc(N2CCc3ccccc3C2)[n-]1 (nonaromatic ring conformer: 64.36361612925982 kcal/mol)

>  <smiles>  (67) 
CS(=O)(=O)Nc1cccc(Cl)c1CN=c1cccc(N2CCc3ccccc3C2)[nH]1

>  <score_type>  (67) 
oracle

>  <origin>  (67) 
adg

>  <m_score__min__energy>  (67) 
-11.6

>  <m_primary>  (67) 
energy

$$$$
67:0
     RDKit          3D

 42 44  0  0  0  0  0  0  0  0999 V2000
   63.8150   33.5680   47.8240 C   0  0  0  0  0  0  0  0  0  0  0  0
   62.9450   33.4180   48.8280 C   0  0  0  0  0  0  0  0  0  0  0  0
   61.6920   34.2410   48.9190 C   0  0  0  0  0  0  0  0  0  0  0  0
   60.7100   33.8360   47.8520 C   0  0  0  0  0  0  0  0  0  0  0  0
   59.5680   34.6140   47.6050 C   0  0  0  0  0  0  0  0  0  0  0  0
   58.6370   34.2140   46.6430 C   0  0  0  0  0  0  0  0  0  0  0  0
   58.8200   33.0150   45.9320 C   0  0  0  0  0  0  0  0  0  0  0  0
   57.8500   32.5640   44.9110 C   0  0  0  0  0  0  0  0  0  0  0  0
   56.9630   31.6310   45.1160 N   0  0  0  0  0  0  0  0  0  0  0  0
   57.2450   30.2480   45.1490 N   0  0  0  0  0  0  0  0  0  0  0  0
   57.8370   29.6920   46.2510 C   0  0  0  0  0  0  0  0  0  0  0  0
   58.1430   30.4050   47.2440 O   0  0  0  0  0  0  0  0  0  0  0  0
   58.1150   28.3270   46.2840 C   0  0  0  0  0  0  0  0  0  0  0  0
   57.8100   27.5450   45.1660 C   0  0  0  0  0  0  0  0  0  0  0  0
   58.0770   26.0840   45.1720 C   0  0  0  0  0  0  0  0  0  0  0  0
   59.0850   25.5400   45.9910 C   0  0  0  0  0  0  0  0  0  0  0  0
   59.3300   24.1630   45.9900 C   0  0  0  0  0  0  0  0  0  0  0  0
   58.5740   23.3170   45.1760 C   0  0  0  0  0  0  0  0  0  0  0  0
   57.5710   23.8450   44.3600 C   0  0  0  0  0  0  0  0  0  0  0  0
   57.3220   25.2220   44.3560 C   0  0  0  0  0  0  0  0  0  0  0  0
   57.2640   28.1410   44.0680 N   0  0  0  0  0  0  0  0  0  0  0  0
   56.9920   29.4760   44.0460 C   0  0  0  0  0  0  0  0  0  0  0  0
   56.3300   30.1340   42.6910 S   0  0  0  0  0  0  0  0  0  0  0  0
   59.9750   32.2530   46.1610 C   0  0  0  0  0  0  0  0  0  0  0  0
   60.9070   32.6530   47.1240 C   0  0  0  0  0  0  0  0  0  0  0  0
   64.7237   32.9492   47.7866 H   0  0  0  0  0  0  0  0  0  0  0  0
   63.6221   34.3102   47.0354 H   0  0  0  0  0  0  0  0  0  0  0  0
   63.1526   32.6714   49.6087 H   0  0  0  0  0  0  0  0  0  0  0  0
   61.2330   34.0917   49.9075 H   0  0  0  0  0  0  0  0  0  0  0  0
   61.9534   35.2998   48.7753 H   0  0  0  0  0  0  0  0  0  0  0  0
   59.4053   35.5428   48.1714 H   0  0  0  0  0  0  0  0  0  0  0  0
   57.7559   34.8407   46.4408 H   0  0  0  0  0  0  0  0  0  0  0  0
   57.8786   33.0435   43.9214 H   0  0  0  0  0  0  0  0  0  0  0  0
   58.5679   27.8713   47.1769 H   0  0  0  0  0  0  0  0  0  0  0  0
   59.6830   26.2016   46.6350 H   0  0  0  0  0  0  0  0  0  0  0  0
   60.1199   23.7456   46.6318 H   0  0  0  0  0  0  0  0  0  0  0  0
   58.7685   22.2343   45.1774 H   0  0  0  0  0  0  0  0  0  0  0  0
   56.9759   23.1774   43.7195 H   0  0  0  0  0  0  0  0  0  0  0  0
   56.5313   25.6328   43.7110 H   0  0  0  0  0  0  0  0  0  0  0  0
   57.0650   27.5680   43.2160 H   0  0  0  0  0  0  0  0  0  0  0  0
   60.1488   31.3354   45.5798 H   0  0  0  0  0  0  0  0  0  0  0  0
   61.7989   32.0370   47.3115 H   0  0  0  0  0  0  0  0  0  0  0  0
  1  2  2  0
  2  3  1  0
  3  4  1  0
  4  5  2  0
  5  6  1  0
  6  7  2  0
  7  8  1  0
  8  9  2  3
  9 10  1  0
 10 11  1  0
 11 12  2  0
 11 13  1  0
 13 14  2  0
 14 15  1  0
 15 16  2  0
 16 17  1  0
 17 18  2  0
 18 19  1  0
 19 20  2  0
 14 21  1  0
 21 22  1  0
 22 23  2  0
  7 24  1  0
 24 25  2  0
 25  4  1  0
 22 10  1  0
 20 15  1  0
  1 26  1  0
  1 27  1  0
  2 28  1  0
  3 29  1  0
  3 30  1  0
  5 31  1  0
  6 32  1  0
  8 33  1  0
 13 34  1  0
 16 35  1  0
 17 36  1  0
 18 37  1  0
 19 38  1  0
 20 39  1  0
 21 40  1  0
 24 41  1  0
 25 42  1  0
M  END
>  <UniqueID>  (68) 
58

>  <SMILES>  (68) 
C=CCc1ccc(C=Nn2c(=O)cc(-c3ccccc3)[nH]c2=S)cc1

>  <Energy>  (68) 
60.737740707079695

>  <Genealogy>  (68) 
C=CCc1ccc(C=Nn2c(=O)cc(-c3ccccc3)[nH]c2=S)cc1 (3D coordinates assigned)
C=CCc1ccc(C=Nn2c(=O)cc(-c3ccccc3)[nH]c2=S)cc1 (optimized conformer: 60.737740707079695 kcal/mol)

>  <smiles>  (68) 
C=CCc1ccc(C=Nn2c(=O)cc(-c3ccccc3)[nH]c2=S)cc1

>  <score_type>  (68) 
oracle

>  <origin>  (68) 
adg

>  <m_score__min__energy>  (68) 
-8.2599999999999998

>  <m_primary>  (68) 
energy

$$$$
68:0
     RDKit          3D

 62 65  0  0  1  0  0  0  0  0999 V2000
   53.9350   24.8190   45.5890 C   0  0  0  0  0  0  0  0  0  0  0  0
   55.2060   24.0920   45.2850 C   0  0  0  0  0  0  0  0  0  0  0  0
   55.2280   23.0050   44.4420 C   0  0  0  0  0  0  0  0  0  0  0  0
   56.4500   22.3830   44.2110 C   0  0  0  0  0  0  0  0  0  0  0  0
   56.5600   21.2340   43.3380 C   0  0  0  0  0  0  0  0  0  0  0  0
   56.6500   20.3130   42.6400 N   0  0  0  0  0  0  0  0  0  0  0  0
   57.6010   22.8340   44.8030 C   0  0  0  0  0  0  0  0  0  0  0  0
   57.5530   23.9310   45.6490 C   0  0  0  0  0  0  0  0  0  0  0  0
   58.8020   24.4400   46.3060 C   0  0  0  0  0  0  0  0  0  0  0  0
   56.3460   24.5730   45.8980 C   0  0  0  0  0  0  0  0  0  0  0  0
   56.3240   25.6690   46.7490 O   0  0  0  0  0  0  0  0  0  0  0  0
   56.8110   26.9260   46.3550 C   0  0  0  0  0  0  0  0  0  0  0  0
   58.0660   27.3250   46.7610 C   0  0  0  0  0  0  0  0  0  0  0  0
   58.5430   28.5610   46.3720 C   0  0  0  0  0  0  0  0  0  0  0  0
   59.7390   28.9090   46.7760 N   0  0  0  0  0  0  0  0  0  0  0  0
   59.9130   30.2210   47.3140 C   0  0  0  0  0  0  0  0  0  0  0  0
   60.9840   31.0280   46.9660 C   0  0  0  0  0  0  0  0  0  0  0  0
   61.0200   32.2790   47.5710 C   0  0  0  0  0  0  0  0  0  0  0  0
   60.0660   32.7080   48.4580 C   0  0  0  0  0  0  0  0  0  0  0  0
   60.1210   34.2830   49.2120 S   0  0  0  0  0  0  0  0  0  0  0  0
   59.4380   34.2250   50.7780 N   0  0  0  0  0  0  0  0  0  0  0  0
   61.5360   34.7600   49.3150 O   0  0  0  0  0  0  0  0  0  0  0  0
   59.3860   35.2220   48.3020 O   0  0  0  0  0  0  0  0  0  0  0  0
   59.0100   31.8860   48.7880 C   0  0  0  0  0  0  0  0  0  0  0  0
   57.9940   32.2790   49.7020 N   0  0  0  0  0  0  0  0  0  0  0  0
   58.9370   30.6400   48.2120 C   0  0  0  0  0  0  0  0  0  0  0  0
   57.8070   29.3820   45.6050 N   0  0  0  0  0  0  0  0  0  0  0  0
   56.5940   28.9530   45.2340 C   0  0  0  0  0  0  0  0  0  0  0  0
   55.8760   29.7260   44.4980 N   0  0  0  0  0  0  0  0  0  0  0  0
   56.3260   30.5820   43.4550 C   0  0  0  0  0  0  0  0  0  0  0  0
   57.0570   31.7720   44.0080 C   0  0  0  0  0  0  0  0  0  0  0  0
   58.1330   32.3400   43.3570 C   0  0  0  0  0  0  0  0  0  0  0  0
   58.8090   33.4440   43.8670 C   0  0  0  0  0  0  0  0  0  0  0  0
   58.4110   34.0040   45.0590 C   0  0  0  0  0  0  0  0  0  0  0  0
   57.3390   33.4590   45.7330 C   0  0  0  0  0  0  0  0  0  0  0  0
   56.6850   32.3640   45.2060 C   0  0  0  0  0  0  0  0  0  0  0  0
   56.0920   27.7630   45.5870 N   0  0  0  0  0  0  0  0  0  0  0  0
   53.8064   24.8926   46.6790 H   0  0  0  0  0  0  0  0  0  0  0  0
   53.9778   25.8292   45.1558 H   0  0  0  0  0  0  0  0  0  0  0  0
   53.0859   24.2700   45.1558 H   0  0  0  0  0  0  0  0  0  0  0  0
   54.3068   22.6390   43.9651 H   0  0  0  0  0  0  0  0  0  0  0  0
   58.5580   22.3280   44.6077 H   0  0  0  0  0  0  0  0  0  0  0  0
   58.6867   24.3930   47.3989 H   0  0  0  0  0  0  0  0  0  0  0  0
   59.6565   23.8184   46.0004 H   0  0  0  0  0  0  0  0  0  0  0  0
   58.9786   25.4818   46.0004 H   0  0  0  0  0  0  0  0  0  0  0  0
   58.6821   26.6649   47.3892 H   0  0  0  0  0  0  0  0  0  0  0  0
   61.7571   30.6995   46.2558 H   0  0  0  0  0  0  0  0  0  0  0  0
   61.8520   32.9560   47.3271 H   0  0  0  0  0  0  0  0  0  0  0  0
   60.1150   34.0180   51.5360 H   0  0  0  0  0  0  0  0  0  0  0  0
   58.9250   35.1020   51.0230 H   0  0  0  0  0  0  0  0  0  0  0  0
   58.1510   32.4810   50.7030 H   0  0  0  0  0  0  0  0  0  0  0  0
   57.0260   32.3640   49.3160 H   0  0  0  0  0  0  0  0  0  0  0  0
   58.1014   29.9701   48.4629 H   0  0  0  0  0  0  0  0  0  0  0  0
   58.1430   30.3010   45.3060 H   0  0  0  0  0  0  0  0  0  0  0  0
   57.0032   30.0192   42.7957 H   0  0  0  0  0  0  0  0  0  0  0  0
   55.4495   30.9402   42.8951 H   0  0  0  0  0  0  0  0  0  0  0  0
   58.4673   31.9056   42.4033 H   0  0  0  0  0  0  0  0  0  0  0  0
   59.6616   33.8691   43.3172 H   0  0  0  0  0  0  0  0  0  0  0  0
   58.9416   34.8759   45.4692 H   0  0  0  0  0  0  0  0  0  0  0  0
   57.0064   33.8950   46.6866 H   0  0  0  0  0  0  0  0  0  0  0  0
   55.8327   31.9429   45.7594 H   0  0  0  0  0  0  0  0  0  0  0  0
   55.1520   27.4940   45.2670 H   0  0  0  0  0  0  0  0  0  0  0  0
  1  2  1  0
  2  3  2  0
  3  4  1  0
  4  5  1  0
  5  6  3  0
  4  7  2  0
  7  8  1  0
  8  9  1  0
  8 10  2  0
 10 11  1  0
 11 12  1  0
 12 13  2  0
 13 14  1  0
 14 15  2  0
 15 16  1  0
 16 17  2  0
 17 18  1  0
 18 19  2  0
 19 20  1  0
 20 21  1  0
 20 22  2  0
 20 23  2  0
 19 24  1  0
 24 25  1  0
 24 26  2  0
 14 27  1  0
 27 28  1  0
 28 29  2  0
 29 30  1  0
 30 31  1  0
 31 32  2  0
 32 33  1  0
 33 34  2  0
 34 35  1  0
 35 36  2  0
 28 37  1  0
 10  2  1  0
 37 12  1  0
 26 16  1  0
 36 31  1  0
  1 38  1  0
  1 39  1  0
  1 40  1  0
  3 41  1  0
  7 42  1  0
  9 43  1  0
  9 44  1  0
  9 45  1  0
 13 46  1  0
 17 47  1  0
 18 48  1  0
 21 49  1  0
 21 50  1  0
 25 51  1  0
 25 52  1  0
 26 53  1  0
 27 54  1  0
 30 55  1  0
 30 56  1  0
 32 57  1  0
 33 58  1  0
 34 59  1  0
 35 60  1  0
 36 61  1  0
 37 62  1  0
M  END
>  <smiles>  (69) 
Cc1cc(C#N)cc(C)c1Oc1cc(=Nc2ccc(S(N)(=O)=O)c(N)c2)[nH]c(=NCc2ccccc2)[nH]1

>  <score_type>  (69) 
oracle

>  <origin>  (69) 
adg

>  <m_score__min__energy>  (69) 
-10.16

>  <m_primary>  (69) 
energy

$$$$
69:0
     RDKit          3D

 32 33  0  0  0  0  0  0  0  0999 V2000
   54.7190   28.5910   44.5030 H   0  0  0  0  0  0  0  0  0  0  0  0
   55.1470   29.3390   45.0350 O   0  0  0  0  0  0  0  0  0  0  0  0
   56.0170   30.2510   44.4690 N   0  0  0  0  0  0  0  0  0  0  0  0
   57.2480   30.4350   44.8580 C   0  0  0  0  0  0  0  0  0  0  0  0
   57.7420   31.7990   45.1550 C   0  0  0  0  0  0  0  0  0  0  0  0
   57.9450   32.1660   46.4940 C   0  0  0  0  0  0  0  0  0  0  0  0
   57.7373   31.4432   47.2967 H   0  0  0  0  0  0  0  0  0  0  0  0
   58.4090   33.4430   46.8130 C   0  0  0  0  0  0  0  0  0  0  0  0
   58.5652   33.7238   47.8650 H   0  0  0  0  0  0  0  0  0  0  0  0
   58.6750   34.3640   45.7990 C   0  0  0  0  0  0  0  0  0  0  0  0
   59.0358   35.3715   46.0534 H   0  0  0  0  0  0  0  0  0  0  0  0
   58.4840   34.0090   44.4610 C   0  0  0  0  0  0  0  0  0  0  0  0
   58.6929   34.7407   43.6667 H   0  0  0  0  0  0  0  0  0  0  0  0
   58.0270   32.7240   44.1230 C   0  0  0  0  0  0  0  0  0  0  0  0
   57.8300   32.3610   42.6750 C   0  0  0  0  0  0  0  0  0  0  0  0
   57.3063   31.3961   42.6069 H   0  0  0  0  0  0  0  0  0  0  0  0
   57.2305   33.1393   42.1802 H   0  0  0  0  0  0  0  0  0  0  0  0
   58.8093   32.2825   42.1802 H   0  0  0  0  0  0  0  0  0  0  0  0
   58.1240   29.2940   45.0230 N   0  0  0  0  0  0  0  0  0  0  0  0
   57.5960   27.9370   44.8230 C   0  0  0  0  0  0  0  0  0  0  0  0
   56.5631   27.8913   45.1986 H   0  0  0  0  0  0  0  0  0  0  0  0
   57.6192   27.7005   43.7490 H   0  0  0  0  0  0  0  0  0  0  0  0
   58.4520   26.9130   45.5750 C   0  0  0  0  0  0  0  0  0  0  0  0
   58.3186   27.0568   46.6574 H   0  0  0  0  0  0  0  0  0  0  0  0
   58.1325   25.9024   45.2808 H   0  0  0  0  0  0  0  0  0  0  0  0
   59.8190   27.0680   45.2520 O   0  0  0  0  0  0  0  0  0  0  0  0
   60.2760   28.3170   45.7300 C   0  0  0  0  0  0  0  0  0  0  0  0
   60.0563   28.3938   46.8051 H   0  0  0  0  0  0  0  0  0  0  0  0
   61.3597   28.3863   45.5544 H   0  0  0  0  0  0  0  0  0  0  0  0
   59.5850   29.4680   44.9930 C   0  0  0  0  0  0  0  0  0  0  0  0
   59.8466   30.4190   45.4801 H   0  0  0  0  0  0  0  0  0  0  0  0
   59.9218   29.4739   43.9458 H   0  0  0  0  0  0  0  0  0  0  0  0
  1  2  1  0
  2  3  1  0
  3  4  2  0
  4  5  1  0
  5  6  2  0
  6  7  1  0
  6  8  1  0
  8  9  1  0
  8 10  2  0
 10 11  1  0
 10 12  1  0
 12 13  1  0
 12 14  2  0
 14 15  1  0
 15 16  1  0
 15 17  1  0
 15 18  1  0
  4 19  1  0
 19 20  1  0
 20 21  1  0
 20 22  1  0
 20 23  1  0
 23 24  1  0
 23 25  1  0
 23 26  1  0
 26 27  1  0
 27 28  1  0
 27 29  1  0
 27 30  1  0
 30 31  1  0
 30 32  1  0
 14  5  1  0
 30 19  1  0
M  END
>  <UniqueID>  (70) 
59

>  <SMILES>  (70) 
Cc1ccccc1/C(=N\O)N1CCOCC1

>  <Energy>  (70) 
42.0096190097311

>  <Genealogy>  (70) 
Cc1ccccc1/C(=N\O)N1CCOCC1 (cis-trans isomerization)
Cc1ccccc1/C(=N\O)N1CCOCC1 (3D coordinates assigned)
Cc1ccccc1/C(=N\O)N1CCOCC1 (nonaromatic ring conformer: 42.0096190097311 kcal/mol)

>  <smiles>  (70) 
Cc1ccccc1C(=NO)N1CCOCC1

>  <score_type>  (70) 
oracle

>  <origin>  (70) 
adg

>  <m_score__min__energy>  (70) 
-7.7599999999999998

>  <m_primary>  (70) 
energy

$$$$
70:0
     RDKit          3D

 26 27  0  0  0  0  0  0  0  0999 V2000
   54.7860   30.2510   45.3310 H   0  0  0  0  0  0  0  0  0  0  0  0
   55.1450   29.4330   44.7920 N   0  0  0  0  0  0  0  0  0  0  0  0
   56.3320   28.9520   44.9740 C   0  0  0  0  0  0  0  0  0  0  0  0
   56.5690   27.7900   45.6090 N   0  0  0  0  0  0  0  0  0  0  0  0
   57.8630   27.6410   45.6350 O   0  0  0  0  0  0  0  0  0  0  0  0
   58.4740   28.6480   45.0500 C   0  0  0  0  0  0  0  0  0  0  0  0
   59.9560   28.7800   44.9310 C   0  0  0  0  0  0  0  0  0  0  0  0
   60.4024   28.8198   45.9356 H   0  0  0  0  0  0  0  0  0  0  0  0
   60.3586   27.9142   44.3849 H   0  0  0  0  0  0  0  0  0  0  0  0
   60.1992   29.7034   44.3849 H   0  0  0  0  0  0  0  0  0  0  0  0
   57.5230   29.5340   44.5800 C   0  0  0  0  0  0  0  0  0  0  0  0
   57.7450   30.8570   43.9130 C   0  0  0  0  0  0  0  0  0  0  0  0
   58.8246   31.0329   43.7971 H   0  0  0  0  0  0  0  0  0  0  0  0
   57.2662   30.8539   42.9227 H   0  0  0  0  0  0  0  0  0  0  0  0
   57.0200   32.1800   44.9350 S   0  0  0  0  0  0  0  0  0  0  0  0
   58.5940   32.6460   45.6570 C   0  0  0  0  0  0  0  0  0  0  0  0
   59.0960   33.9410   45.4710 C   0  0  0  0  0  0  0  0  0  0  0  0
   58.5240   34.6726   44.8814 H   0  0  0  0  0  0  0  0  0  0  0  0
   60.3230   34.3040   46.0340 C   0  0  0  0  0  0  0  0  0  0  0  0
   60.7173   35.3199   45.8842 H   0  0  0  0  0  0  0  0  0  0  0  0
   61.0500   33.3760   46.7880 C   0  0  0  0  0  0  0  0  0  0  0  0
   62.5890   33.8320   47.4950 Cl  0  0  0  0  0  0  0  0  0  0  0  0
   60.5470   32.0830   46.9780 C   0  0  0  0  0  0  0  0  0  0  0  0
   61.1173   31.3531   47.5713 H   0  0  0  0  0  0  0  0  0  0  0  0
   59.3200   31.7190   46.4140 C   0  0  0  0  0  0  0  0  0  0  0  0
   58.9252   30.7035   46.5654 H   0  0  0  0  0  0  0  0  0  0  0  0
  1  2  1  0
  2  3  2  0
  3  4  1  0
  4  5  1  0
  5  6  1  0
  6  7  1  0
  7  8  1  0
  7  9  1  0
  7 10  1  0
  6 11  2  0
 11 12  1  0
 12 13  1  0
 12 14  1  0
 12 15  1  0
 15 16  1  0
 16 17  2  0
 17 18  1  0
 17 19  1  0
 19 20  1  0
 19 21  2  0
 21 22  1  0
 21 23  1  0
 23 24  1  0
 23 25  2  0
 25 26  1  0
 11  3  1  0
 25 16  1  0
M  CHG  1   4  -1
M  END
>  <UniqueID>  (71) 
60

>  <SMILES>  (71) 
[H]/N=c1/[n-]oc(C)c1CSc1ccc(Cl)cc1

>  <Energy>  (71) 
52.1821396166665

>  <Genealogy>  (71) 
Cc1o[n-]c(=N)c1CSc1ccc(Cl)cc1 (protonated)
[H]/N=c1/[n-]oc(C)c1CSc1ccc(Cl)cc1 (cis-trans isomerization)
[H]/N=c1/[n-]oc(C)c1CSc1ccc(Cl)cc1 (3D coordinates assigned)
[H]/N=c1/[n-]oc(C)c1CSc1ccc(Cl)cc1 (optimized conformer: 52.1821396166665 kcal/mol)

>  <smiles>  (71) 
Cc1o[nH]c(=N)c1CSc1ccc(Cl)cc1

>  <score_type>  (71) 
oracle

>  <origin>  (71) 
adg

>  <m_score__min__energy>  (71) 
-9.0399999999999991

>  <m_primary>  (71) 
energy

$$$$
71:0
     RDKit          3D

 52 55  0  0  0  0  0  0  0  0999 V2000
   62.7850   31.3840   50.9580 C   0  0  0  0  0  0  0  0  0  0  0  0
   61.8780   32.1420   50.1630 O   0  0  0  0  0  0  0  0  0  0  0  0
   62.1700   32.6900   48.9030 C   0  0  0  0  0  0  0  0  0  0  0  0
   63.4710   32.6040   48.3590 C   0  0  0  0  0  0  0  0  0  0  0  0
   63.7620   33.1640   47.1110 C   0  0  0  0  0  0  0  0  0  0  0  0
   62.7600   33.8030   46.3750 C   0  0  0  0  0  0  0  0  0  0  0  0
   61.4610   33.8930   46.8860 C   0  0  0  0  0  0  0  0  0  0  0  0
   60.5020   34.5100   46.1500 N   0  0  0  0  0  0  0  0  0  0  0  0
   59.2310   34.6200   46.6050 C   0  0  0  0  0  0  0  0  0  0  0  0
   58.8960   34.1190   47.8180 N   0  0  0  0  0  0  0  0  0  0  0  0
   59.8090   33.4930   48.6090 C   0  0  0  0  0  0  0  0  0  0  0  0
   59.3780   33.0170   49.8990 N   0  0  0  0  0  0  0  0  0  0  0  0
   59.6090   33.8400   51.0880 C   0  0  0  0  0  0  0  0  0  0  0  0
   58.4690   31.8690   49.9670 C   0  0  0  0  0  0  0  0  0  0  0  0
   59.2270   30.6030   49.6760 C   0  0  0  0  0  0  0  0  0  0  0  0
   59.7130   29.8130   50.7290 C   0  0  0  0  0  0  0  0  0  0  0  0
   60.3400   28.5920   50.4610 C   0  0  0  0  0  0  0  0  0  0  0  0
   60.4790   28.1470   49.1430 C   0  0  0  0  0  0  0  0  0  0  0  0
   59.9870   28.9250   48.0780 C   0  0  0  0  0  0  0  0  0  0  0  0
   60.0900   28.5270   46.7360 O   0  0  0  0  0  0  0  0  0  0  0  0
   60.3000   29.4040   45.6260 C   0  0  0  0  0  0  0  0  0  0  0  0
   58.9870   29.9140   45.0890 C   0  0  0  0  0  0  0  0  0  0  0  0
   58.6320   31.2700   45.2310 C   0  0  0  0  0  0  0  0  0  0  0  0
   57.3940   31.7300   44.7590 C   0  0  0  0  0  0  0  0  0  0  0  0
   56.5020   30.8370   44.1550 C   0  0  0  0  0  0  0  0  0  0  0  0
   56.8410   29.4830   44.0300 C   0  0  0  0  0  0  0  0  0  0  0  0
   58.0790   29.0200   44.4960 C   0  0  0  0  0  0  0  0  0  0  0  0
   59.3640   30.1480   48.3550 C   0  0  0  0  0  0  0  0  0  0  0  0
   61.1500   33.3470   48.1600 C   0  0  0  0  0  0  0  0  0  0  0  0
   62.5743   31.5601   52.0232 H   0  0  0  0  0  0  0  0  0  0  0  0
   62.6646   30.3142   50.7324 H   0  0  0  0  0  0  0  0  0  0  0  0
   63.8165   31.6925   50.7324 H   0  0  0  0  0  0  0  0  0  0  0  0
   64.2637   32.0910   48.9232 H   0  0  0  0  0  0  0  0  0  0  0  0
   64.7832   33.1014   46.7070 H   0  0  0  0  0  0  0  0  0  0  0  0
   62.9937   34.2363   45.3913 H   0  0  0  0  0  0  0  0  0  0  0  0
   58.4686   35.1176   45.9876 H   0  0  0  0  0  0  0  0  0  0  0  0
   59.4393   33.2353   51.9911 H   0  0  0  0  0  0  0  0  0  0  0  0
   60.6453   34.2087   51.0830 H   0  0  0  0  0  0  0  0  0  0  0  0
   58.9159   34.6942   51.0830 H   0  0  0  0  0  0  0  0  0  0  0  0
   58.0306   31.8092   50.9741 H   0  0  0  0  0  0  0  0  0  0  0  0
   57.6692   31.9936   49.2222 H   0  0  0  0  0  0  0  0  0  0  0  0
   59.6005   30.1551   51.7684 H   0  0  0  0  0  0  0  0  0  0  0  0
   60.7250   27.9798   51.2898 H   0  0  0  0  0  0  0  0  0  0  0  0
   60.9741   27.1864   48.9377 H   0  0  0  0  0  0  0  0  0  0  0  0
   60.9120   30.2579   45.9521 H   0  0  0  0  0  0  0  0  0  0  0  0
   60.8134   28.8462   44.8290 H   0  0  0  0  0  0  0  0  0  0  0  0
   59.3287   31.9709   45.7141 H   0  0  0  0  0  0  0  0  0  0  0  0
   57.1246   32.7914   44.8635 H   0  0  0  0  0  0  0  0  0  0  0  0
   55.5338   31.1981   43.7780 H   0  0  0  0  0  0  0  0  0  0  0  0
   56.1331   28.7813   43.5646 H   0  0  0  0  0  0  0  0  0  0  0  0
   58.3402   27.9560   44.3976 H   0  0  0  0  0  0  0  0  0  0  0  0
   58.9770   30.7601   47.5270 H   0  0  0  0  0  0  0  0  0  0  0  0
  1  2  1  0
  2  3  1  0
  3  4  2  0
  4  5  1  0
  5  6  2  0
  6  7  1  0
  7  8  2  0
  8  9  1  0
  9 10  2  0
 10 11  1  0
 11 12  1  0
 12 13  1  0
 12 14  1  0
 14 15  1  0
 15 16  2  0
 16 17  1  0
 17 18  2  0
 18 19  1  0
 19 20  1  0
 20 21  1  0
 21 22  1  0
 22 23  2  0
 23 24  1  0
 24 25  2  0
 25 26  1  0
 26 27  2  0
 19 28  2  0
 11 29  2  0
 29  3  1  0
 29  7  1  0
 28 15  1  0
 27 22  1  0
  1 30  1  0
  1 31  1  0
  1 32  1  0
  4 33  1  0
  5 34  1  0
  6 35  1  0
  9 36  1  0
 13 37  1  0
 13 38  1  0
 13 39  1  0
 14 40  1  0
 14 41  1  0
 16 42  1  0
 17 43  1  0
 18 44  1  0
 21 45  1  0
 21 46  1  0
 23 47  1  0
 24 48  1  0
 25 49  1  0
 26 50  1  0
 27 51  1  0
 28 52  1  0
M  END
>  <UniqueID>  (72) 
61

>  <SMILES>  (72) 
COc1cccc2ncnc(N(C)Cc3cccc(OCc4ccccc4)c3)c12

>  <Energy>  (72) 
61.728790631651044

>  <Genealogy>  (72) 
COc1cccc2ncnc(N(C)Cc3cccc(OCc4ccccc4)c3)c12 (3D coordinates assigned)
COc1cccc2ncnc(N(C)Cc3cccc(OCc4ccccc4)c3)c12 (optimized conformer: 61.728790631651044 kcal/mol)

>  <smiles>  (72) 
COc1cccc2ncnc(N(C)Cc3cccc(OCc4ccccc4)c3)c12

>  <score_type>  (72) 
oracle

>  <origin>  (72) 
adg

>  <m_score__min__energy>  (72) 
-8.1999999999999993

>  <m_primary>  (72) 
energy

$$$$
72:0
     RDKit          3D

 37 39  0  0  0  0  0  0  0  0999 V2000
   55.1570   29.3650   44.6360 O   0  0  0  0  0  0  0  0  0  0  0  0
   56.3130   29.8160   44.8510 C   0  0  0  0  0  0  0  0  0  0  0  0
   57.0340   29.3360   45.9990 N   0  0  0  0  0  0  0  0  0  0  0  0
   58.1390   28.6440   46.0320 C   0  0  0  0  0  0  0  0  0  0  0  0
   59.2060   28.8590   45.1320 C   0  0  0  0  0  0  0  0  0  0  0  0
   60.3600   28.0790   45.2370 C   0  0  0  0  0  0  0  0  0  0  0  0
   60.4460   27.0880   46.2140 C   0  0  0  0  0  0  0  0  0  0  0  0
   59.3650   26.8820   47.0710 C   0  0  0  0  0  0  0  0  0  0  0  0
   58.2500   27.6520   46.9590 N   0  0  0  0  0  0  0  0  0  0  0  0
   56.8550   30.8640   43.9480 C   0  0  0  0  0  0  0  0  0  0  0  0
   56.6610   30.7040   42.5640 C   0  0  0  0  0  0  0  0  0  0  0  0
   57.2330   31.5950   41.6560 C   0  0  0  0  0  0  0  0  0  0  0  0
   58.0060   32.6590   42.1140 C   0  0  0  0  0  0  0  0  0  0  0  0
   58.1910   32.8520   43.4830 C   0  0  0  0  0  0  0  0  0  0  0  0
   57.6040   31.9790   44.4180 C   0  0  0  0  0  0  0  0  0  0  0  0
   57.7480   32.3010   45.8550 C   0  0  0  0  0  0  0  0  0  0  0  0
   56.9740   33.1500   46.3750 O   0  0  0  0  0  0  0  0  0  0  0  0
   58.7910   31.6830   46.6280 N   0  0  0  0  0  0  0  0  0  0  0  0
   58.9010   31.5500   47.9230 C   0  0  0  0  0  0  0  0  0  0  0  0
   59.3540   32.5890   48.7650 C   0  0  0  0  0  0  0  0  0  0  0  0
   59.4360   32.3720   50.1420 C   0  0  0  0  0  0  0  0  0  0  0  0
   59.0680   31.1400   50.6770 C   0  0  0  0  0  0  0  0  0  0  0  0
   58.6080   30.1380   49.8240 C   0  0  0  0  0  0  0  0  0  0  0  0
   58.5280   30.3620   48.4840 N   0  0  0  0  0  0  0  0  0  0  0  0
   59.1289   29.6339   44.3551 H   0  0  0  0  0  0  0  0  0  0  0  0
   61.2014   28.2467   44.5485 H   0  0  0  0  0  0  0  0  0  0  0  0
   61.3553   26.4761   46.3078 H   0  0  0  0  0  0  0  0  0  0  0  0
   59.4146   26.0956   47.8385 H   0  0  0  0  0  0  0  0  0  0  0  0
   56.0513   29.8667   42.1936 H   0  0  0  0  0  0  0  0  0  0  0  0
   57.0733   31.4570   40.5764 H   0  0  0  0  0  0  0  0  0  0  0  0
   58.4717   33.3487   41.3946 H   0  0  0  0  0  0  0  0  0  0  0  0
   58.8023   33.6957   43.8357 H   0  0  0  0  0  0  0  0  0  0  0  0
   59.6402   33.5621   48.3394 H   0  0  0  0  0  0  0  0  0  0  0  0
   59.7915   33.1748   50.8047 H   0  0  0  0  0  0  0  0  0  0  0  0
   59.1395   30.9597   51.7598 H   0  0  0  0  0  0  0  0  0  0  0  0
   58.3086   29.1628   50.2354 H   0  0  0  0  0  0  0  0  0  0  0  0
   58.1790   29.5880   47.8730 H   0  0  0  0  0  0  0  0  0  0  0  0
  1  2  2  0
  2  3  1  0
  3  4  2  3
  4  5  1  0
  5  6  2  0
  6  7  1  0
  7  8  2  0
  8  9  1  0
  2 10  1  0
 10 11  2  0
 11 12  1  0
 12 13  2  0
 13 14  1  0
 14 15  2  0
 15 16  1  0
 16 17  2  0
 16 18  1  0
 18 19  2  3
 19 20  1  0
 20 21  2  0
 21 22  1  0
 22 23  2  0
 23 24  1  0
  9  4  1  0
 15 10  1  0
 24 19  1  0
  5 25  1  0
  6 26  1  0
  7 27  1  0
  8 28  1  0
 11 29  1  0
 12 30  1  0
 13 31  1  0
 14 32  1  0
 20 33  1  0
 21 34  1  0
 22 35  1  0
 23 36  1  0
 24 37  1  0
M  CHG  1   9  -1
M  END
>  <UniqueID>  (73) 
62

>  <SMILES>  (73) 
O=C(N=c1cccc[n-]1)c1ccccc1C(=O)N=c1cccc[nH]1

>  <Energy>  (73) 
65.93854700149285

>  <Genealogy>  (73) 
O=C(N=c1cccc[n-]1)c1ccccc1C(=O)N=c1cccc[nH]1 (protonated)
O=C(N=c1cccc[n-]1)c1ccccc1C(=O)N=c1cccc[nH]1 (3D coordinates assigned)
O=C(N=c1cccc[n-]1)c1ccccc1C(=O)N=c1cccc[nH]1 (optimized conformer: 65.93854700149285 kcal/mol)

>  <smiles>  (73) 
O=C(N=c1cccc[nH]1)c1ccccc1C(=O)N=c1cccc[nH]1

>  <score_type>  (73) 
oracle

>  <origin>  (73) 
adg

>  <m_score__min__energy>  (73) 
-9.0399999999999991

>  <m_primary>  (73) 
energy

$$$$
73:0
     RDKit          3D

 28 30  0  0  0  0  0  0  0  0999 V2000
   56.5911   27.4873   45.5362 H   0  0  0  0  0  0  0  0  0  0  0  0
   57.0370   28.4570   45.2700 C   0  0  0  0  0  0  0  0  0  0  0  0
   56.3090   29.6040   45.2130 N   0  0  0  0  0  0  0  0  0  0  0  0
   57.0750   30.6620   44.8660 C   0  0  0  0  0  0  0  0  0  0  0  0
   56.6420   31.8820   44.7350 N   0  0  0  0  0  0  0  0  0  0  0  0
   57.1770   33.0870   45.3100 C   0  0  0  0  0  0  0  0  0  0  0  0
   57.4480   34.0420   44.5350 O   0  0  0  0  0  0  0  0  0  0  0  0
   57.4210   33.2440   46.7920 C   0  0  0  0  0  0  0  0  0  0  0  0
   57.0696   34.2371   47.1085 H   0  0  0  0  0  0  0  0  0  0  0  0
   56.8731   32.4478   47.3173 H   0  0  0  0  0  0  0  0  0  0  0  0
   58.8400   33.1160   47.1200 N   0  0  0  0  0  0  0  0  0  0  0  0
   59.5180   31.9210   47.5170 C   0  0  0  0  0  0  0  0  0  0  0  0
   58.9380   30.8600   47.8670 O   0  0  0  0  0  0  0  0  0  0  0  0
   60.9610   32.1120   47.4230 C   0  0  0  0  0  0  0  0  0  0  0  0
   62.0130   31.2430   47.7060 C   0  0  0  0  0  0  0  0  0  0  0  0
   61.8236   30.2253   48.0780 H   0  0  0  0  0  0  0  0  0  0  0  0
   63.3250   31.7080   47.5010 C   0  0  0  0  0  0  0  0  0  0  0  0
   64.1780   31.0483   47.7179 H   0  0  0  0  0  0  0  0  0  0  0  0
   63.5550   33.0150   47.0190 C   0  0  0  0  0  0  0  0  0  0  0  0
   64.5855   33.3663   46.8622 H   0  0  0  0  0  0  0  0  0  0  0  0
   62.4740   33.8710   46.7380 C   0  0  0  0  0  0  0  0  0  0  0  0
   62.6419   34.8902   46.3599 H   0  0  0  0  0  0  0  0  0  0  0  0
   61.1850   33.3890   46.9530 C   0  0  0  0  0  0  0  0  0  0  0  0
   59.8850   34.0170   46.7440 C   0  0  0  0  0  0  0  0  0  0  0  0
   59.6930   35.1720   46.2790 O   0  0  0  0  0  0  0  0  0  0  0  0
   58.6740   30.2210   44.6160 S   0  0  0  0  0  0  0  0  0  0  0  0
   58.3870   28.6000   44.9670 C   0  0  0  0  0  0  0  0  0  0  0  0
   59.1361   27.7945   44.9583 H   0  0  0  0  0  0  0  0  0  0  0  0
  1  2  1  0
  2  3  1  0
  3  4  1  0
  4  5  2  0
  5  6  1  0
  6  7  2  0
  6  8  1  0
  8  9  1  0
  8 10  1  0
  8 11  1  0
 11 12  1  0
 12 13  2  0
 12 14  1  0
 14 15  2  0
 15 16  1  0
 15 17  1  0
 17 18  1  0
 17 19  2  0
 19 20  1  0
 19 21  1  0
 21 22  1  0
 21 23  2  0
 23 24  1  0
 24 25  2  0
  4 26  1  0
 26 27  1  0
 27 28  1  0
 27  2  2  0
 24 11  1  0
 23 14  1  0
M  CHG  1   3  -1
M  END
>  <UniqueID>  (74) 
63

>  <SMILES>  (74) 
O=C(CN1C(=O)c2ccccc2C1=O)/N=c1\[n-]ccs1

>  <Energy>  (74) 
95.50703328501723

>  <Genealogy>  (74) 
O=C(CN1C(=O)c2ccccc2C1=O)N=c1[n-]ccs1 (protonated)
O=C(CN1C(=O)c2ccccc2C1=O)/N=c1\[n-]ccs1 (cis-trans isomerization)
O=C(CN1C(=O)c2ccccc2C1=O)/N=c1\[n-]ccs1 (3D coordinates assigned)
O=C(CN1C(=O)c2ccccc2C1=O)/N=c1\[n-]ccs1 (nonaromatic ring conformer: 95.50703328501723 kcal/mol)

>  <smiles>  (74) 
O=C(CN1C(=O)c2ccccc2C1=O)N=c1[nH]ccs1

>  <score_type>  (74) 
oracle

>  <origin>  (74) 
adg

>  <m_score__min__energy>  (74) 
-9.8800000000000008

>  <m_primary>  (74) 
energy

$$$$
74:0
     RDKit          3D

 38 39  0  0  0  0  0  0  0  0999 V2000
   56.1730   27.2060   45.8440 N   0  0  0  0  0  0  0  0  0  0  0  0
   56.9030   28.5300   45.0040 S   0  0  0  0  0  0  0  0  0  0  0  0
   55.8790   29.6190   44.8370 O   0  0  0  0  0  0  0  0  0  0  0  0
   57.3680   28.0710   43.6510 O   0  0  0  0  0  0  0  0  0  0  0  0
   58.2810   29.1380   45.9190 C   0  0  0  0  0  0  0  0  0  0  0  0
   59.4250   29.5930   45.2530 C   0  0  0  0  0  0  0  0  0  0  0  0
   60.5230   30.0610   45.9820 C   0  0  0  0  0  0  0  0  0  0  0  0
   60.4890   30.0880   47.3810 C   0  0  0  0  0  0  0  0  0  0  0  0
   61.6480   30.5550   48.0870 N   0  0  0  0  0  0  0  0  0  0  0  0
   62.0890   31.9130   48.2110 C   0  0  0  0  0  0  0  0  0  0  0  0
   62.5210   32.5470   47.2110 O   0  0  0  0  0  0  0  0  0  0  0  0
   62.1290   32.5510   49.5590 C   0  0  0  0  0  0  0  0  0  0  0  0
   60.7840   32.5830   50.1180 N   0  0  0  0  0  0  0  0  0  0  0  0
   59.7360   33.3820   49.5630 C   0  0  0  0  0  0  0  0  0  0  0  0
   59.6570   34.6110   49.8370 O   0  0  0  0  0  0  0  0  0  0  0  0
   58.7030   32.7460   48.6890 C   0  0  0  0  0  0  0  0  0  0  0  0
   58.7960   33.3010   47.2940 C   0  0  0  0  0  0  0  0  0  0  0  0
   59.4510   34.5210   47.0610 C   0  0  0  0  0  0  0  0  0  0  0  0
   59.5740   35.0160   45.7590 C   0  0  0  0  0  0  0  0  0  0  0  0
   59.0530   34.2940   44.6820 C   0  0  0  0  0  0  0  0  0  0  0  0
   58.4100   33.0710   44.9040 C   0  0  0  0  0  0  0  0  0  0  0  0
   57.7690   32.1590   43.5500 Cl  0  0  0  0  0  0  0  0  0  0  0  0
   58.2860   32.5720   46.2060 C   0  0  0  0  0  0  0  0  0  0  0  0
   59.3520   29.5970   48.0480 C   0  0  0  0  0  0  0  0  0  0  0  0
   58.2540   29.1300   47.3190 C   0  0  0  0  0  0  0  0  0  0  0  0
   55.1730   27.4610   46.0030 H   0  0  0  0  0  0  0  0  0  0  0  0
   59.4605   29.5825   44.1536 H   0  0  0  0  0  0  0  0  0  0  0  0
   61.4208   30.4108   45.4514 H   0  0  0  0  0  0  0  0  0  0  0  0
   62.7880   31.9700   50.2209 H   0  0  0  0  0  0  0  0  0  0  0  0
   62.5146   33.5773   49.4691 H   0  0  0  0  0  0  0  0  0  0  0  0
   58.8694   31.6590   48.6603 H   0  0  0  0  0  0  0  0  0  0  0  0
   57.7040   32.9602   49.0967 H   0  0  0  0  0  0  0  0  0  0  0  0
   59.8686   35.0891   47.9053 H   0  0  0  0  0  0  0  0  0  0  0  0
   60.0819   35.9756   45.5822 H   0  0  0  0  0  0  0  0  0  0  0  0
   59.1483   34.6872   43.6591 H   0  0  0  0  0  0  0  0  0  0  0  0
   57.7879   31.6064   46.3781 H   0  0  0  0  0  0  0  0  0  0  0  0
   59.3266   29.5804   49.1476 H   0  0  0  0  0  0  0  0  0  0  0  0
   57.3653   28.7547   47.8475 H   0  0  0  0  0  0  0  0  0  0  0  0
  1  2  1  0
  2  3  2  0
  2  4  2  0
  2  5  1  0
  5  6  2  0
  6  7  1  0
  7  8  2  0
  8  9  1  0
  9 10  1  0
 10 11  2  0
 10 12  1  0
 12 13  1  0
 13 14  1  0
 14 15  2  0
 14 16  1  0
 16 17  1  0
 17 18  2  0
 18 19  1  0
 19 20  2  0
 20 21  1  0
 21 22  1  0
 21 23  2  0
  8 24  1  0
 24 25  2  0
 25  5  1  0
 23 17  1  0
  1 26  1  0
  6 27  1  0
  7 28  1  0
 12 29  1  0
 12 30  1  0
 16 31  1  0
 16 32  1  0
 18 33  1  0
 19 34  1  0
 20 35  1  0
 23 36  1  0
 24 37  1  0
 25 38  1  0
M  CHG  3   1  -1   9  -1  13  -1
M  END
>  <UniqueID>  (75) 
64

>  <SMILES>  (75) 
[NH-]S(=O)(=O)c1ccc([N-]C(=O)C[N-]C(=O)Cc2cccc(Cl)c2)cc1

>  <Energy>  (75) 
35.772128442202906

>  <Genealogy>  (75) 
[NH-]S(=O)(=O)c1ccc([N-]C(=O)C[N-]C(=O)Cc2cccc(Cl)c2)cc1 (protonated)
[NH-]S(=O)(=O)c1ccc([N-]C(=O)C[N-]C(=O)Cc2cccc(Cl)c2)cc1 (3D coordinates assigned)
[NH-]S(=O)(=O)c1ccc([N-]C(=O)C[N-]C(=O)Cc2cccc(Cl)c2)cc1 (optimized conformer: 35.772128442202906 kcal/mol)

>  <smiles>  (75) 
NS(=O)(=O)c1ccc(NC(=O)CNC(=O)Cc2cccc(Cl)c2)cc1

>  <score_type>  (75) 
oracle

>  <origin>  (75) 
adg

>  <m_score__min__energy>  (75) 
-12.539999999999999

>  <m_primary>  (75) 
energy

$$$$
75:0
     RDKit          3D

 45 49  0  0  0  0  0  0  0  0999 V2000
   54.9170   26.3310   45.9970 N   0  0  0  0  0  0  0  0  0  0  0  0
   56.2820   26.0620   45.6770 C   0  0  0  0  0  0  0  0  0  0  0  0
   56.6110   24.8970   45.3280 O   0  0  0  0  0  0  0  0  0  0  0  0
   57.2980   27.1370   45.7510 C   0  0  0  0  0  0  0  0  0  0  0  0
   57.7980   27.7290   44.5730 C   0  0  0  0  0  0  0  0  0  0  0  0
   58.7580   28.7440   44.6370 C   0  0  0  0  0  0  0  0  0  0  0  0
   59.2310   29.1790   45.8770 C   0  0  0  0  0  0  0  0  0  0  0  0
   60.1500   30.1730   45.9570 N   0  0  0  0  0  0  0  0  0  0  0  0
   60.6240   30.6200   47.1530 C   0  0  0  0  0  0  0  0  0  0  0  0
   61.5800   31.7450   47.1450 C   0  0  0  0  0  0  0  0  0  0  0  0
   62.9020   31.5720   47.5930 C   0  0  0  0  0  0  0  0  0  0  0  0
   63.7880   32.6540   47.6090 C   0  0  0  0  0  0  0  0  0  0  0  0
   63.3590   33.9160   47.1920 C   0  0  0  0  0  0  0  0  0  0  0  0
   62.0420   34.1010   46.7650 C   0  0  0  0  0  0  0  0  0  0  0  0
   61.1510   33.0230   46.7470 C   0  0  0  0  0  0  0  0  0  0  0  0
   60.1740   29.9970   48.3470 C   0  0  0  0  0  0  0  0  0  0  0  0
   60.6660   30.3870   49.6510 N   0  0  0  0  0  0  0  0  0  0  0  0
   59.5870   30.8650   50.4790 C   0  0  0  0  0  0  0  0  0  0  0  0
   59.5280   32.2300   50.8680 C   0  0  0  0  0  0  0  0  0  0  0  0
   58.4580   32.7060   51.6480 C   0  0  0  0  0  0  0  0  0  0  0  0
   57.4660   31.8020   52.0140 C   0  0  0  0  0  0  0  0  0  0  0  0
   57.5100   30.4980   51.6410 C   0  0  0  0  0  0  0  0  0  0  0  0
   58.5490   29.9850   50.8710 C   0  0  0  0  0  0  0  0  0  0  0  0
   56.4010   29.8400   52.1370 O   0  0  0  0  0  0  0  0  0  0  0  0
   55.6120   30.7910   52.8680 C   0  0  0  0  0  0  0  0  0  0  0  0
   56.3290   32.0290   52.7650 O   0  0  0  0  0  0  0  0  0  0  0  0
   59.2230   29.0220   48.2540 N   0  0  0  0  0  0  0  0  0  0  0  0
   58.7440   28.5970   47.0580 C   0  0  0  0  0  0  0  0  0  0  0  0
   57.7820   27.5820   46.9960 C   0  0  0  0  0  0  0  0  0  0  0  0
   54.6620   27.0870   46.6690 H   0  0  0  0  0  0  0  0  0  0  0  0
   57.4293   27.3891   43.5939 H   0  0  0  0  0  0  0  0  0  0  0  0
   59.1402   29.1993   43.7115 H   0  0  0  0  0  0  0  0  0  0  0  0
   63.2404   30.5818   47.9321 H   0  0  0  0  0  0  0  0  0  0  0  0
   64.8238   32.5109   47.9504 H   0  0  0  0  0  0  0  0  0  0  0  0
   64.0587   34.7648   47.1998 H   0  0  0  0  0  0  0  0  0  0  0  0
   61.7047   35.0970   46.4421 H   0  0  0  0  0  0  0  0  0  0  0  0
   60.1117   33.1757   46.4205 H   0  0  0  0  0  0  0  0  0  0  0  0
   61.1100   29.5820   50.1480 H   0  0  0  0  0  0  0  0  0  0  0  0
   61.3890   31.1320   49.5260 H   0  0  0  0  0  0  0  0  0  0  0  0
   60.3256   32.9207   50.5568 H   0  0  0  0  0  0  0  0  0  0  0  0
   58.4075   33.7600   51.9587 H   0  0  0  0  0  0  0  0  0  0  0  0
   58.5638   28.9257   50.5750 H   0  0  0  0  0  0  0  0  0  0  0  0
   54.6109   30.8862   52.4221 H   0  0  0  0  0  0  0  0  0  0  0  0
   55.4641   30.4862   53.9145 H   0  0  0  0  0  0  0  0  0  0  0  0
   57.4024   27.1300   47.9242 H   0  0  0  0  0  0  0  0  0  0  0  0
  1  2  1  0
  2  3  2  0
  2  4  1  0
  4  5  2  0
  5  6  1  0
  6  7  2  0
  7  8  1  0
  8  9  2  0
  9 10  1  0
 10 11  2  0
 11 12  1  0
 12 13  2  0
 13 14  1  0
 14 15  2  0
  9 16  1  0
 16 17  1  0
 17 18  1  0
 18 19  2  0
 19 20  1  0
 20 21  2  0
 21 22  1  0
 22 23  2  0
 22 24  1  0
 24 25  1  0
 25 26  1  0
 16 27  2  0
 27 28  1  0
 28 29  2  0
 29  4  1  0
 28  7  1  0
 15 10  1  0
 23 18  1  0
 26 21  1  0
  1 30  1  0
  5 31  1  0
  6 32  1  0
 11 33  1  0
 12 34  1  0
 13 35  1  0
 14 36  1  0
 15 37  1  0
 17 38  1  0
 17 39  1  0
 19 40  1  0
 20 41  1  0
 23 42  1  0
 25 43  1  0
 25 44  1  0
 29 45  1  0
M  CHG  2   1  -1  17   1
M  END
>  <UniqueID>  (76) 
65

>  <SMILES>  (76) 
[NH-]C(=O)c1ccc2nc(-c3ccccc3)c([NH2+]c3ccc4c(c3)OCO4)nc2c1

>  <Energy>  (76) 
93.33903962737378

>  <Genealogy>  (76) 
[NH-]C(=O)c1ccc2nc(-c3ccccc3)c([NH2+]c3ccc4c(c3)OCO4)nc2c1 (protonated)
[NH-]C(=O)c1ccc2nc(-c3ccccc3)c([NH2+]c3ccc4c(c3)OCO4)nc2c1 (3D coordinates assigned)
[NH-]C(=O)c1ccc2nc(-c3ccccc3)c([NH2+]c3ccc4c(c3)OCO4)nc2c1 (nonaromatic ring conformer: 93.33903962737378 kcal/mol)

>  <smiles>  (76) 
NC(=O)c1ccc2nc(-c3ccccc3)c(Nc3ccc4c(c3)OCO4)nc2c1

>  <score_type>  (76) 
oracle

>  <origin>  (76) 
adg

>  <m_score__min__energy>  (76) 
-10.34

>  <m_primary>  (76) 
energy

$$$$
76:0
     RDKit          3D

 36 38  0  0  0  0  0  0  0  0999 V2000
   57.6627   29.7885   42.7303 H   0  0  0  0  0  0  0  0  0  0  0  0
   57.9060   29.9110   43.7960 C   0  0  0  0  0  0  0  0  0  0  0  0
   57.1360   30.8910   44.5900 C   0  0  0  0  0  0  0  0  0  0  0  0
   55.8780   30.8200   44.5590 O   0  0  0  0  0  0  0  0  0  0  0  0
   57.7730   31.9570   45.3990 C   0  0  0  0  0  0  0  0  0  0  0  0
   57.7990   33.2910   44.9470 C   0  0  0  0  0  0  0  0  0  0  0  0
   57.3508   33.5475   43.9757 H   0  0  0  0  0  0  0  0  0  0  0  0
   58.3910   34.2920   45.7250 C   0  0  0  0  0  0  0  0  0  0  0  0
   58.4158   35.3298   45.3613 H   0  0  0  0  0  0  0  0  0  0  0  0
   58.9500   33.9720   46.9630 C   0  0  0  0  0  0  0  0  0  0  0  0
   58.8870   32.6570   47.4430 C   0  0  0  0  0  0  0  0  0  0  0  0
   58.3100   31.6510   46.6620 C   0  0  0  0  0  0  0  0  0  0  0  0
   58.2761   30.6173   47.0366 H   0  0  0  0  0  0  0  0  0  0  0  0
   59.4100   32.3690   48.7080 O   0  0  0  0  0  0  0  0  0  0  0  0
   59.7490   33.4160   49.6220 C   0  0  0  0  0  0  0  0  0  0  0  0
   58.8386   33.7581   50.1359 H   0  0  0  0  0  0  0  0  0  0  0  0
   60.4731   33.0309   50.3551 H   0  0  0  0  0  0  0  0  0  0  0  0
   60.3790   34.5950   48.8700 C   0  0  0  0  0  0  0  0  0  0  0  0
   60.4579   35.4576   49.5480 H   0  0  0  0  0  0  0  0  0  0  0  0
   61.3784   34.3015   48.5165 H   0  0  0  0  0  0  0  0  0  0  0  0
   59.5730   34.9520   47.7440 O   0  0  0  0  0  0  0  0  0  0  0  0
   58.8900   29.1640   44.3210 C   0  0  0  0  0  0  0  0  0  0  0  0
   59.9285   29.4238   44.0681 H   0  0  0  0  0  0  0  0  0  0  0  0
   58.6590   28.0090   45.2220 C   0  0  0  0  0  0  0  0  0  0  0  0
   59.7350   27.5360   45.9900 C   0  0  0  0  0  0  0  0  0  0  0  0
   60.7190   28.0207   45.9075 H   0  0  0  0  0  0  0  0  0  0  0  0
   59.5660   26.4560   46.8570 C   0  0  0  0  0  0  0  0  0  0  0  0
   60.4184   26.0893   47.4477 H   0  0  0  0  0  0  0  0  0  0  0  0
   58.3200   25.8390   46.9780 C   0  0  0  0  0  0  0  0  0  0  0  0
   58.1974   24.9838   47.6589 H   0  0  0  0  0  0  0  0  0  0  0  0
   57.2220   26.3030   46.2360 C   0  0  0  0  0  0  0  0  0  0  0  0
   55.9340   25.6740   46.3750 N   0  0  0  0  0  0  0  0  0  0  0  0
   55.8340   24.5210   46.8430 O   0  0  0  0  0  0  0  0  0  0  0  0
   54.7880   26.3370   45.9970 O   0  0  0  0  0  0  0  0  0  0  0  0
   57.3980   27.3930   45.3620 C   0  0  0  0  0  0  0  0  0  0  0  0
   56.5421   27.7683   44.7818 H   0  0  0  0  0  0  0  0  0  0  0  0
  1  2  1  0
  2  3  1  0
  3  4  2  0
  3  5  1  0
  5  6  2  0
  6  7  1  0
  6  8  1  0
  8  9  1  0
  8 10  2  0
 10 11  1  0
 11 12  2  0
 12 13  1  0
 11 14  1  0
 14 15  1  0
 15 16  1  0
 15 17  1  0
 15 18  1  0
 18 19  1  0
 18 20  1  0
 18 21  1  0
  2 22  2  0
 22 23  1  0
 22 24  1  0
 24 25  2  0
 25 26  1  0
 25 27  1  0
 27 28  1  0
 27 29  2  0
 29 30  1  0
 29 31  1  0
 31 32  1  0
 32 33  2  0
 32 34  1  0
 31 35  2  0
 35 36  1  0
 12  5  1  0
 35 24  1  0
 21 10  1  0
M  CHG  2  32   1  34  -1
M  END
>  <UniqueID>  (77) 
66

>  <SMILES>  (77) 
O=C(/C=C/c1cccc([N+](=O)[O-])c1)c1ccc2c(c1)OCCO2

>  <Energy>  (77) 
47.548470296278296

>  <Genealogy>  (77) 
O=C(/C=C/c1cccc([N+](=O)[O-])c1)c1ccc2c(c1)OCCO2 (cis-trans isomerization)
O=C(/C=C/c1cccc([N+](=O)[O-])c1)c1ccc2c(c1)OCCO2 (3D coordinates assigned)
O=C(/C=C/c1cccc([N+](=O)[O-])c1)c1ccc2c(c1)OCCO2 (nonaromatic ring conformer: 47.548470296278296 kcal/mol)

>  <smiles>  (77) 
O=C(C=Cc1cccc([N+](=O)[O-])c1)c1ccc2c(c1)OCCO2

>  <score_type>  (77) 
oracle

>  <origin>  (77) 
adg

>  <m_score__min__energy>  (77) 
-8.4100000000000001

>  <m_primary>  (77) 
energy

$$$$
77:0
     RDKit          3D

 68 71  0  0  0  0  0  0  0  0999 V2000
   60.4620   28.7820   50.7950 C   0  0  0  0  0  0  0  0  0  0  0  0
   59.6220   29.1040   49.6930 O   0  0  0  0  0  0  0  0  0  0  0  0
   59.9740   28.9310   48.3450 C   0  0  0  0  0  0  0  0  0  0  0  0
   59.8500   27.6870   47.6950 C   0  0  0  0  0  0  0  0  0  0  0  0
   60.1890   27.5590   46.3450 C   0  0  0  0  0  0  0  0  0  0  0  0
   60.6540   28.6650   45.6320 C   0  0  0  0  0  0  0  0  0  0  0  0
   60.7860   29.9020   46.2670 C   0  0  0  0  0  0  0  0  0  0  0  0
   60.4550   30.0400   47.6240 C   0  0  0  0  0  0  0  0  0  0  0  0
   60.6100   31.3110   48.2720 N   0  0  0  0  0  0  0  0  0  0  0  0
   61.7460   31.5540   49.1580 C   0  0  0  0  0  0  0  0  0  0  0  0
   59.2930   32.4440   48.2700 S   0  0  0  0  0  0  0  0  0  0  0  0
   58.1990   31.9370   49.1660 O   0  0  0  0  0  0  0  0  0  0  0  0
   59.7570   33.7660   48.8170 O   0  0  0  0  0  0  0  0  0  0  0  0
   58.7450   32.7020   46.6030 C   0  0  0  0  0  0  0  0  0  0  0  0
   57.9930   31.6740   46.0110 C   0  0  0  0  0  0  0  0  0  0  0  0
   57.5590   31.7720   44.6870 C   0  0  0  0  0  0  0  0  0  0  0  0
   56.8030   30.7000   44.1130 N   0  0  0  0  0  0  0  0  0  0  0  0
   56.3240   29.5550   44.8270 C   0  0  0  0  0  0  0  0  0  0  0  0
   55.0830   29.3470   44.8780 O   0  0  0  0  0  0  0  0  0  0  0  0
   57.2490   28.7060   45.6580 C   0  0  0  0  0  0  0  0  0  0  0  0
   57.3700   27.3630   45.0970 N   0  0  0  0  0  0  0  0  0  0  0  0
   57.9270   26.9950   43.8500 C   0  0  0  0  0  0  0  0  0  0  0  0
   58.4250   27.8160   43.0350 O   0  0  0  0  0  0  0  0  0  0  0  0
   57.8640   25.5980   43.6080 N   0  0  0  0  0  0  0  0  0  0  0  0
   57.2240   24.9520   44.7630 C   0  0  0  0  0  0  0  0  0  0  0  0
   58.1820   23.9680   45.4840 C   0  0  0  0  0  0  0  0  0  0  0  0
   57.7980   22.4760   45.4370 C   0  0  0  0  0  0  0  0  0  0  0  0
   57.6470   21.8180   44.0530 C   0  0  0  0  0  0  0  0  0  0  0  0
   56.2630   21.9580   43.4070 C   0  0  0  0  0  0  0  0  0  0  0  0
   55.8990   23.4220   43.1230 C   0  0  0  0  0  0  0  0  0  0  0  0
   55.8720   24.3030   44.3790 C   0  0  0  0  0  0  0  0  0  0  0  0
   56.9450   26.1330   45.6690 C   0  0  0  0  0  0  0  0  0  0  0  0
   56.3780   26.0540   46.7900 O   0  0  0  0  0  0  0  0  0  0  0  0
   57.8260   32.9340   43.9570 C   0  0  0  0  0  0  0  0  0  0  0  0
   58.5470   33.9780   44.5350 C   0  0  0  0  0  0  0  0  0  0  0  0
   59.0110   33.8830   45.8600 C   0  0  0  0  0  0  0  0  0  0  0  0
   59.7860   35.0380   46.4320 C   0  0  0  0  0  0  0  0  0  0  0  0
   59.9283   28.9866   51.7349 H   0  0  0  0  0  0  0  0  0  0  0  0
   60.7321   27.7166   50.7511 H   0  0  0  0  0  0  0  0  0  0  0  0
   61.3751   29.3939   50.7511 H   0  0  0  0  0  0  0  0  0  0  0  0
   59.4846   26.8122   48.2528 H   0  0  0  0  0  0  0  0  0  0  0  0
   60.0891   26.5850   45.8437 H   0  0  0  0  0  0  0  0  0  0  0  0
   60.9168   28.5624   44.5688 H   0  0  0  0  0  0  0  0  0  0  0  0
   61.1509   30.7718   45.7011 H   0  0  0  0  0  0  0  0  0  0  0  0
   61.4161   31.4834   50.2050 H   0  0  0  0  0  0  0  0  0  0  0  0
   62.5265   30.8025   48.9680 H   0  0  0  0  0  0  0  0  0  0  0  0
   62.1507   32.5590   48.9680 H   0  0  0  0  0  0  0  0  0  0  0  0
   57.7422   30.7786   46.5987 H   0  0  0  0  0  0  0  0  0  0  0  0
   58.2431   29.1762   45.6840 H   0  0  0  0  0  0  0  0  0  0  0  0
   56.8346   28.6261   46.6738 H   0  0  0  0  0  0  0  0  0  0  0  0
   58.1900   25.1360   42.7330 H   0  0  0  0  0  0  0  0  0  0  0  0
   59.1759   24.0720   45.0243 H   0  0  0  0  0  0  0  0  0  0  0  0
   58.1392   24.2464   46.5473 H   0  0  0  0  0  0  0  0  0  0  0  0
   58.5748   21.9197   45.9820 H   0  0  0  0  0  0  0  0  0  0  0  0
   56.7900   22.4349   45.8754 H   0  0  0  0  0  0  0  0  0  0  0  0
   58.3850   22.2750   43.3773 H   0  0  0  0  0  0  0  0  0  0  0  0
   57.8009   20.7403   44.2107 H   0  0  0  0  0  0  0  0  0  0  0  0
   56.2574   21.4015   42.4582 H   0  0  0  0  0  0  0  0  0  0  0  0
   55.5200   21.5568   44.1120 H   0  0  0  0  0  0  0  0  0  0  0  0
   56.6409   23.8355   42.4240 H   0  0  0  0  0  0  0  0  0  0  0  0
   54.8819   23.4261   42.7042 H   0  0  0  0  0  0  0  0  0  0  0  0
   55.1433   25.1099   44.2121 H   0  0  0  0  0  0  0  0  0  0  0  0
   55.6084   23.6353   45.2124 H   0  0  0  0  0  0  0  0  0  0  0  0
   57.4655   33.0250   42.9217 H   0  0  0  0  0  0  0  0  0  0  0  0
   58.7553   34.8854   43.9491 H   0  0  0  0  0  0  0  0  0  0  0  0
   59.7552   34.9920   47.5306 H   0  0  0  0  0  0  0  0  0  0  0  0
   60.8306   34.9829   46.0919 H   0  0  0  0  0  0  0  0  0  0  0  0
   59.3390   35.9838   46.0919 H   0  0  0  0  0  0  0  0  0  0  0  0
  1  2  1  0
  2  3  1  0
  3  4  2  0
  4  5  1  0
  5  6  2  0
  6  7  1  0
  7  8  2  0
  8  9  1  0
  9 10  1  0
  9 11  1  0
 11 12  2  0
 11 13  2  0
 11 14  1  0
 14 15  2  0
 15 16  1  0
 16 17  1  0
 17 18  1  0
 18 19  2  0
 18 20  1  0
 20 21  1  0
 21 22  1  0
 22 23  2  0
 22 24  1  0
 24 25  1  0
 25 26  1  0
 26 27  1  0
 27 28  1  0
 28 29  1  0
 29 30  1  0
 30 31  1  0
 25 32  1  0
 32 33  2  0
 16 34  2  0
 34 35  1  0
 35 36  2  0
 36 37  1  0
  8  3  1  0
 36 14  1  0
 32 21  1  0
 31 25  1  0
  1 38  1  0
  1 39  1  0
  1 40  1  0
  4 41  1  0
  5 42  1  0
  6 43  1  0
  7 44  1  0
 10 45  1  0
 10 46  1  0
 10 47  1  0
 15 48  1  0
 20 49  1  0
 20 50  1  0
 24 51  1  0
 26 52  1  0
 26 53  1  0
 27 54  1  0
 27 55  1  0
 28 56  1  0
 28 57  1  0
 29 58  1  0
 29 59  1  0
 30 60  1  0
 30 61  1  0
 31 62  1  0
 31 63  1  0
 34 64  1  0
 35 65  1  0
 37 66  1  0
 37 67  1  0
 37 68  1  0
M  CHG  1  17  -1
M  END
>  <UniqueID>  (78) 
67

>  <SMILES>  (78) 
COc1ccccc1N(C)S(=O)(=O)c1cc([N-]C(=O)CN2C(=O)NC3(CCCCCC3)C2=O)ccc1C

>  <Energy>  (78) 
105.52990071840058

>  <Genealogy>  (78) 
COc1ccccc1N(C)S(=O)(=O)c1cc([N-]C(=O)CN2C(=O)NC3(CCCCCC3)C2=O)ccc1C (protonated)
COc1ccccc1N(C)S(=O)(=O)c1cc([N-]C(=O)CN2C(=O)NC3(CCCCCC3)C2=O)ccc1C (3D coordinates assigned)
COc1ccccc1N(C)S(=O)(=O)c1cc([N-]C(=O)CN2C(=O)NC3(CCCCCC3)C2=O)ccc1C (nonaromatic ring conformer: 105.52990071840058 kcal/mol)

>  <smiles>  (78) 
COc1ccccc1N(C)S(=O)(=O)c1cc(NC(=O)CN2C(=O)NC3(CCCCCC3)C2=O)ccc1C

>  <score_type>  (78) 
oracle

>  <origin>  (78) 
adg

>  <m_score__min__energy>  (78) 
-9.9800000000000004

>  <m_primary>  (78) 
energy

$$$$
78:0
     RDKit          3D

 29 30  0  0  0  0  0  0  0  0999 V2000
   57.7790   33.3180   44.1360 C   0  0  0  0  0  0  0  0  0  0  0  0
   57.0240   33.6680   45.4150 C   0  0  0  0  0  0  0  0  0  0  0  0
   57.7100   33.1640   46.5610 O   0  0  0  0  0  0  0  0  0  0  0  0
   59.1040   33.1320   46.7400 C   0  0  0  0  0  0  0  0  0  0  0  0
   59.9060   34.2820   46.5870 C   0  0  0  0  0  0  0  0  0  0  0  0
   61.2910   34.2090   46.7580 C   0  0  0  0  0  0  0  0  0  0  0  0
   61.8950   32.9920   47.0760 C   0  0  0  0  0  0  0  0  0  0  0  0
   63.6350   32.9030   47.2770 Cl  0  0  0  0  0  0  0  0  0  0  0  0
   61.1140   31.8450   47.2280 C   0  0  0  0  0  0  0  0  0  0  0  0
   59.7180   31.9060   47.0740 C   0  0  0  0  0  0  0  0  0  0  0  0
   58.9040   30.6440   47.2100 C   0  0  0  0  0  0  0  0  0  0  0  0
   58.2800   30.2860   45.8970 C   0  0  0  0  0  0  0  0  0  0  0  0
   57.0260   30.4750   45.6290 N   0  0  0  0  0  0  0  0  0  0  0  0
   56.8310   29.9490   44.3150 C   0  0  0  0  0  0  0  0  0  0  0  0
   55.7200   29.9690   43.7230 O   0  0  0  0  0  0  0  0  0  0  0  0
   58.0090   29.3970   43.7450 N   0  0  0  0  0  0  0  0  0  0  0  0
   58.9440   29.6160   44.7830 C   0  0  0  0  0  0  0  0  0  0  0  0
   60.1570   29.2820   44.7270 O   0  0  0  0  0  0  0  0  0  0  0  0
   58.7491   32.8683   44.3943 H   0  0  0  0  0  0  0  0  0  0  0  0
   57.1884   32.6019   43.5459 H   0  0  0  0  0  0  0  0  0  0  0  0
   57.9438   34.2315   43.5459 H   0  0  0  0  0  0  0  0  0  0  0  0
   56.9400   34.7617   45.4967 H   0  0  0  0  0  0  0  0  0  0  0  0
   56.0247   33.2102   45.3718 H   0  0  0  0  0  0  0  0  0  0  0  0
   59.4377   35.2439   46.3311 H   0  0  0  0  0  0  0  0  0  0  0  0
   61.9066   35.1132   46.6416 H   0  0  0  0  0  0  0  0  0  0  0  0
   61.5948   30.8857   47.4702 H   0  0  0  0  0  0  0  0  0  0  0  0
   59.5589   29.8228   47.5367 H   0  0  0  0  0  0  0  0  0  0  0  0
   58.1087   30.8086   47.9519 H   0  0  0  0  0  0  0  0  0  0  0  0
   58.1470   28.9460   42.8130 H   0  0  0  0  0  0  0  0  0  0  0  0
  1  2  1  0
  2  3  1  0
  3  4  1  0
  4  5  2  0
  5  6  1  0
  6  7  2  0
  7  8  1  0
  7  9  1  0
  9 10  2  0
 10 11  1  0
 11 12  1  0
 12 13  2  0
 13 14  1  0
 14 15  2  0
 14 16  1  0
 16 17  1  0
 17 18  2  0
 10  4  1  0
 17 12  1  0
  1 19  1  0
  1 20  1  0
  1 21  1  0
  2 22  1  0
  2 23  1  0
  5 24  1  0
  6 25  1  0
  9 26  1  0
 11 27  1  0
 11 28  1  0
 16 29  1  0
M  END
>  <UniqueID>  (79) 
68

>  <SMILES>  (79) 
CCOc1ccc(Cl)cc1CC1=NC(=O)NC1=O

>  <Energy>  (79) 
53.96038623298007

>  <Genealogy>  (79) 
CCOc1ccc(Cl)cc1CC1=NC(=O)NC1=O (3D coordinates assigned)
CCOc1ccc(Cl)cc1CC1=NC(=O)NC1=O (nonaromatic ring conformer: 53.96038623298007 kcal/mol)

>  <smiles>  (79) 
CCOc1ccc(Cl)cc1CC1=NC(=O)NC1=O

>  <score_type>  (79) 
oracle

>  <origin>  (79) 
adg

>  <m_score__min__energy>  (79) 
-6.9400000000000004

>  <m_primary>  (79) 
energy

$$$$
79:0
     RDKit          3D

 57 61  0  0  0  0  0  0  0  0999 V2000
   57.3820   28.5740   43.3780 C   0  0  0  0  0  0  0  0  0  0  0  0
   57.7810   29.8810   43.9980 C   0  0  0  0  0  0  0  0  0  0  0  0
   57.3960   31.0910   43.3990 C   0  0  0  0  0  0  0  0  0  0  0  0
   57.7310   32.3090   43.9980 C   0  0  0  0  0  0  0  0  0  0  0  0
   58.4450   32.3290   45.2050 C   0  0  0  0  0  0  0  0  0  0  0  0
   58.8840   33.8540   45.9650 S   0  0  0  0  0  0  0  0  0  0  0  0
   59.6410   34.7310   45.0090 O   0  0  0  0  0  0  0  0  0  0  0  0
   57.6310   34.5680   46.3890 O   0  0  0  0  0  0  0  0  0  0  0  0
   59.8780   33.5340   47.3480 N   0  0  0  0  0  0  0  0  0  0  0  0
   59.4420   33.1540   48.5690 C   0  0  0  0  0  0  0  0  0  0  0  0
   60.5230   32.9470   49.4190 C   0  0  0  0  0  0  0  0  0  0  0  0
   60.4470   32.5040   50.8510 C   0  0  0  0  0  0  0  0  0  0  0  0
   60.2400   31.0430   50.9260 N   0  0  0  0  0  0  0  0  0  0  0  0
   58.8720   30.6490   50.4950 C   0  0  0  0  0  0  0  0  0  0  0  0
   58.8250   30.0430   49.0830 C   0  0  0  0  0  0  0  0  0  0  0  0
   59.7660   28.9190   48.9760 N   0  0  0  0  0  0  0  0  0  0  0  0
   59.5600   27.8850   47.9950 C   0  0  0  0  0  0  0  0  0  0  0  0
   58.2990   27.5450   47.6060 N   0  0  0  0  0  0  0  0  0  0  0  0
   58.0850   26.5830   46.6710 C   0  0  0  0  0  0  0  0  0  0  0  0
   59.1670   25.9230   46.0920 C   0  0  0  0  0  0  0  0  0  0  0  0
   60.4520   26.2750   46.4980 C   0  0  0  0  0  0  0  0  0  0  0  0
   60.6240   27.2430   47.4360 N   0  0  0  0  0  0  0  0  0  0  0  0
   60.9460   28.8970   49.8510 C   0  0  0  0  0  0  0  0  0  0  0  0
   61.3350   30.3270   50.2310 C   0  0  0  0  0  0  0  0  0  0  0  0
   61.6540   33.2050   48.6650 C   0  0  0  0  0  0  0  0  0  0  0  0
   63.0110   33.1410   48.9840 C   0  0  0  0  0  0  0  0  0  0  0  0
   63.9400   33.4590   47.9780 C   0  0  0  0  0  0  0  0  0  0  0  0
   63.4990   33.8290   46.6880 C   0  0  0  0  0  0  0  0  0  0  0  0
   62.1260   33.8820   46.3920 C   0  0  0  0  0  0  0  0  0  0  0  0
   61.2240   33.5610   47.4090 C   0  0  0  0  0  0  0  0  0  0  0  0
   58.8160   31.1230   45.8100 C   0  0  0  0  0  0  0  0  0  0  0  0
   58.4790   29.9030   45.2160 C   0  0  0  0  0  0  0  0  0  0  0  0
   57.1594   27.8448   44.1709 H   0  0  0  0  0  0  0  0  0  0  0  0
   56.4881   28.7218   42.7543 H   0  0  0  0  0  0  0  0  0  0  0  0
   58.2061   28.1973   42.7543 H   0  0  0  0  0  0  0  0  0  0  0  0
   56.8294   31.0807   42.4562 H   0  0  0  0  0  0  0  0  0  0  0  0
   57.4337   33.2546   43.5211 H   0  0  0  0  0  0  0  0  0  0  0  0
   58.3861   33.0269   48.8498 H   0  0  0  0  0  0  0  0  0  0  0  0
   61.3860   32.7640   51.3615 H   0  0  0  0  0  0  0  0  0  0  0  0
   59.6005   33.0106   51.3376 H   0  0  0  0  0  0  0  0  0  0  0  0
   58.4835   29.9052   51.2063 H   0  0  0  0  0  0  0  0  0  0  0  0
   58.2627   31.5646   50.4747 H   0  0  0  0  0  0  0  0  0  0  0  0
   57.8061   29.6835   48.8766 H   0  0  0  0  0  0  0  0  0  0  0  0
   59.1082   30.8160   48.3535 H   0  0  0  0  0  0  0  0  0  0  0  0
   57.0585   26.3253   46.3713 H   0  0  0  0  0  0  0  0  0  0  0  0
   59.0101   25.1428   45.3326 H   0  0  0  0  0  0  0  0  0  0  0  0
   61.3259   25.7704   46.0602 H   0  0  0  0  0  0  0  0  0  0  0  0
   60.7142   28.3269   50.7627 H   0  0  0  0  0  0  0  0  0  0  0  0
   61.7836   28.4213   49.3199 H   0  0  0  0  0  0  0  0  0  0  0  0
   62.2110   30.2904   50.8953 H   0  0  0  0  0  0  0  0  0  0  0  0
   61.5569   30.8729   49.3022 H   0  0  0  0  0  0  0  0  0  0  0  0
   63.3435   32.8507   49.9916 H   0  0  0  0  0  0  0  0  0  0  0  0
   65.0173   33.4195   48.1968 H   0  0  0  0  0  0  0  0  0  0  0  0
   64.2354   34.0774   45.9095 H   0  0  0  0  0  0  0  0  0  0  0  0
   61.7727   34.1675   45.3902 H   0  0  0  0  0  0  0  0  0  0  0  0
   59.3753   31.1349   46.7571 H   0  0  0  0  0  0  0  0  0  0  0  0
   58.7613   28.9584   45.7039 H   0  0  0  0  0  0  0  0  0  0  0  0
  1  2  1  0
  2  3  2  0
  3  4  1  0
  4  5  2  0
  5  6  1  0
  6  7  2  0
  6  8  2  0
  6  9  1  0
  9 10  1  0
 10 11  2  0
 11 12  1  0
 12 13  1  0
 13 14  1  0
 14 15  1  0
 15 16  1  0
 16 17  1  0
 17 18  2  0
 18 19  1  0
 19 20  2  0
 20 21  1  0
 21 22  2  0
 16 23  1  0
 23 24  1  0
 11 25  1  0
 25 26  2  0
 26 27  1  0
 27 28  2  0
 28 29  1  0
 29 30  2  0
  5 31  1  0
 31 32  2  0
 32  2  1  0
 30  9  1  0
 24 13  1  0
 30 25  1  0
 22 17  1  0
  1 33  1  0
  1 34  1  0
  1 35  1  0
  3 36  1  0
  4 37  1  0
 10 38  1  0
 12 39  1  0
 12 40  1  0
 14 41  1  0
 14 42  1  0
 15 43  1  0
 15 44  1  0
 19 45  1  0
 20 46  1  0
 21 47  1  0
 23 48  1  0
 23 49  1  0
 24 50  1  0
 24 51  1  0
 26 52  1  0
 27 53  1  0
 28 54  1  0
 29 55  1  0
 31 56  1  0
 32 57  1  0
M  END
>  <UniqueID>  (80) 
69

>  <SMILES>  (80) 
Cc1ccc(S(=O)(=O)n2cc(CN3CCN(c4ncccn4)CC3)c3ccccc32)cc1

>  <Energy>  (80) 
104.77784777154106

>  <Genealogy>  (80) 
Cc1ccc(S(=O)(=O)n2cc(CN3CCN(c4ncccn4)CC3)c3ccccc32)cc1 (3D coordinates assigned)
Cc1ccc(S(=O)(=O)n2cc(CN3CCN(c4ncccn4)CC3)c3ccccc32)cc1 (nonaromatic ring conformer: 104.77784777154106 kcal/mol)

>  <smiles>  (80) 
Cc1ccc(S(=O)(=O)n2cc(CN3CCN(c4ncccn4)CC3)c3ccccc32)cc1

>  <score_type>  (80) 
oracle

>  <origin>  (80) 
adg

>  <m_score__min__energy>  (80) 
-9.9199999999999999

>  <m_primary>  (80) 
energy

$$$$
80:0
     RDKit          3D

 61 65  0  0  0  0  0  0  0  0999 V2000
   52.1535   25.0422   53.8473 H   0  0  0  0  0  0  0  0  0  0  0  0
   53.1360   25.4850   54.0680 C   0  0  0  0  0  0  0  0  0  0  0  0
   53.3660   26.7890   54.3190 N   0  0  0  0  0  0  0  0  0  0  0  0
   54.6620   26.9320   54.5460 N   0  0  0  0  0  0  0  0  0  0  0  0
   55.3050   28.2150   54.8050 C   0  0  0  0  0  0  0  0  0  0  0  0
   55.1412   28.4997   55.8548 H   0  0  0  0  0  0  0  0  0  0  0  0
   56.3835   28.1259   54.6078 H   0  0  0  0  0  0  0  0  0  0  0  0
   54.7250   29.2660   53.9090 C   0  0  0  0  0  0  0  0  0  0  0  0
   55.4940   30.0740   53.3220 O   0  0  0  0  0  0  0  0  0  0  0  0
   53.3030   29.3800   53.7680 N   0  0  0  0  0  0  0  0  0  0  0  0
   52.7060   28.9350   54.5000 H   0  0  0  0  0  0  0  0  0  0  0  0
   52.6520   30.1290   52.7280 C   0  0  0  0  0  0  0  0  0  0  0  0
   52.6520   29.6830   51.3920 C   0  0  0  0  0  0  0  0  0  0  0  0
   53.1739   28.7523   51.1250 H   0  0  0  0  0  0  0  0  0  0  0  0
   51.9910   30.4190   50.4040 C   0  0  0  0  0  0  0  0  0  0  0  0
   52.0059   30.0727   49.3600 H   0  0  0  0  0  0  0  0  0  0  0  0
   51.3110   31.5940   50.7390 C   0  0  0  0  0  0  0  0  0  0  0  0
   50.6570   32.3240   49.7550 O   0  0  0  0  0  0  0  0  0  0  0  0
   51.2860   32.0290   52.0680 C   0  0  0  0  0  0  0  0  0  0  0  0
   50.7446   32.9488   52.3343 H   0  0  0  0  0  0  0  0  0  0  0  0
   51.9470   31.2980   53.0580 C   0  0  0  0  0  0  0  0  0  0  0  0
   51.9151   31.6402   54.1029 H   0  0  0  0  0  0  0  0  0  0  0  0
   55.2840   25.7440   54.4340 C   0  0  0  0  0  0  0  0  0  0  0  0
   56.3618   25.5647   54.5610 H   0  0  0  0  0  0  0  0  0  0  0  0
   54.3340   24.7900   54.1320 C   0  0  0  0  0  0  0  0  0  0  0  0
   54.5730   23.3490   53.9150 C   0  0  0  0  0  0  0  0  0  0  0  0
   54.7460   22.8880   52.6460 N   0  0  0  0  0  0  0  0  0  0  0  0
   54.9660   21.5720   52.3890 C   0  0  0  0  0  0  0  0  0  0  0  0
   55.1460   21.1900   51.1580 N   0  0  0  0  0  0  0  0  0  0  0  0
   54.4500   21.6600   49.9920 C   0  0  0  0  0  0  0  0  0  0  0  0
   53.0500   21.7030   50.0180 C   0  0  0  0  0  0  0  0  0  0  0  0
   52.5118   21.4052   50.9300 H   0  0  0  0  0  0  0  0  0  0  0  0
   52.3320   22.1210   48.8950 C   0  0  0  0  0  0  0  0  0  0  0  0
   51.2332   22.1590   48.9305 H   0  0  0  0  0  0  0  0  0  0  0  0
   53.0050   22.4920   47.7240 C   0  0  0  0  0  0  0  0  0  0  0  0
   52.1000   22.9960   46.3010 S   0  0  0  0  0  0  0  0  0  0  0  0
   50.6820   23.3050   46.6930 O   0  0  0  0  0  0  0  0  0  0  0  0
   52.1030   21.8880   45.2850 O   0  0  0  0  0  0  0  0  0  0  0  0
   52.8510   24.4100   45.6340 N   0  0  0  0  0  0  0  0  0  0  0  0
   54.1220   24.5050   45.3880 C   0  0  0  0  0  0  0  0  0  0  0  0
   54.8770   25.4760   45.9750 N   0  0  0  0  0  0  0  0  0  0  0  0
   56.2110   25.5900   45.7380 C   0  0  0  0  0  0  0  0  0  0  0  0
   56.7907   26.3839   46.2317 H   0  0  0  0  0  0  0  0  0  0  0  0
   56.8460   24.7010   44.8690 C   0  0  0  0  0  0  0  0  0  0  0  0
   57.9269   24.7846   44.6825 H   0  0  0  0  0  0  0  0  0  0  0  0
   56.0950   23.7010   44.2360 C   0  0  0  0  0  0  0  0  0  0  0  0
   56.7600   22.7090   43.3290 C   0  0  0  0  0  0  0  0  0  0  0  0
   57.2719   21.9454   43.9331 H   0  0  0  0  0  0  0  0  0  0  0  0
   56.0019   22.2268   42.6943 H   0  0  0  0  0  0  0  0  0  0  0  0
   57.4940   23.2271   42.6943 H   0  0  0  0  0  0  0  0  0  0  0  0
   54.7240   23.5950   44.5120 C   0  0  0  0  0  0  0  0  0  0  0  0
   54.1252   22.8007   44.0423 H   0  0  0  0  0  0  0  0  0  0  0  0
   54.4030   22.4120   47.6780 C   0  0  0  0  0  0  0  0  0  0  0  0
   54.9368   22.6814   46.7547 H   0  0  0  0  0  0  0  0  0  0  0  0
   55.1230   21.9910   48.8010 C   0  0  0  0  0  0  0  0  0  0  0  0
   56.2196   21.9183   48.7531 H   0  0  0  0  0  0  0  0  0  0  0  0
   55.0390   20.6900   53.4230 N   0  0  0  0  0  0  0  0  0  0  0  0
   54.8730   21.0990   54.7060 C   0  0  0  0  0  0  0  0  0  0  0  0
   54.9293   20.3697   55.5275 H   0  0  0  0  0  0  0  0  0  0  0  0
   54.6310   22.4440   54.9830 C   0  0  0  0  0  0  0  0  0  0  0  0
   54.4886   22.7873   56.0183 H   0  0  0  0  0  0  0  0  0  0  0  0
  1  2  1  0
  2  3  2  0
  3  4  1  0
  4  5  1  0
  5  6  1  0
  5  7  1  0
  5  8  1  0
  8  9  2  0
  8 10  1  0
 10 11  1  0
 10 12  1  0
 12 13  2  0
 13 14  1  0
 13 15  1  0
 15 16  1  0
 15 17  2  0
 17 18  1  0
 17 19  1  0
 19 20  1  0
 19 21  2  0
 21 22  1  0
  4 23  1  0
 23 24  1  0
 23 25  2  0
 25 26  1  0
 26 27  2  0
 27 28  1  0
 28 29  2  3
 29 30  1  0
 30 31  2  0
 31 32  1  0
 31 33  1  0
 33 34  1  0
 33 35  2  0
 35 36  1  0
 36 37  2  0
 36 38  2  0
 36 39  1  0
 39 40  2  0
 40 41  1  0
 41 42  1  0
 42 43  1  0
 42 44  2  0
 44 45  1  0
 44 46  1  0
 46 47  1  0
 47 48  1  0
 47 49  1  0
 47 50  1  0
 46 51  2  0
 51 52  1  0
 35 53  1  0
 53 54  1  0
 53 55  2  0
 55 56  1  0
 28 57  1  0
 57 58  1  0
 58 59  1  0
 58 60  2  0
 60 61  1  0
 25  2  1  0
 60 26  1  0
 21 12  1  0
 55 30  1  0
 51 40  1  0
M  CHG  3  18  -1  41  -1  57  -1
M  END
>  <UniqueID>  (81) 
70

>  <SMILES>  (81) 
Cc1cc[n-]/c(=N\S(=O)(=O)c2ccc(N=c3nc(-c4cnn(CC(=O)Nc5ccc([O-])cc5)c4)cc[n-]3)cc2)c1

>  <Energy>  (81) 
110.52674459345535

>  <Genealogy>  (81) 
Cc1cc[n-]c(=NS(=O)(=O)c2ccc(N=c3nc(-c4cnn(CC(=O)Nc5ccc([O-])cc5)c4)cc[n-]3)cc2)c1 (protonated)
Cc1cc[n-]/c(=N\S(=O)(=O)c2ccc(N=c3nc(-c4cnn(CC(=O)Nc5ccc([O-])cc5)c4)cc[n-]3)cc2)c1 (cis-trans isomerization)
Cc1cc[n-]/c(=N\S(=O)(=O)c2ccc(N=c3nc(-c4cnn(CC(=O)Nc5ccc([O-])cc5)c4)cc[n-]3)cc2)c1 (3D coordinates assigned)
Cc1cc[n-]/c(=N\S(=O)(=O)c2ccc(N=c3nc(-c4cnn(CC(=O)Nc5ccc([O-])cc5)c4)cc[n-]3)cc2)c1 (optimized conformer: 110.52674459345535 kcal/mol)

>  <smiles>  (81) 
Cc1cc[nH]c(=NS(=O)(=O)c2ccc(N=c3nc(-c4cnn(CC(=O)Nc5ccc(O)cc5)c4)cc[nH]3)cc2)c1

>  <score_type>  (81) 
oracle

>  <origin>  (81) 
adg

>  <m_score__min__energy>  (81) 
-17.190000000000001

>  <m_primary>  (81) 
energy

$$$$
81:0
     RDKit          3D

 39 40  0  0  0  0  0  0  0  0999 V2000
   59.0060   34.7050   44.9360 C   0  0  0  0  0  0  0  0  0  0  0  0
   57.4050   34.1820   45.6260 S   0  0  0  0  0  0  0  0  0  0  0  0
   58.1110   32.8240   46.5770 C   0  0  0  0  0  0  0  0  0  0  0  0
   58.5430   33.0840   47.8850 C   0  0  0  0  0  0  0  0  0  0  0  0
   59.0850   32.0630   48.6680 C   0  0  0  0  0  0  0  0  0  0  0  0
   59.2060   30.7730   48.1490 C   0  0  0  0  0  0  0  0  0  0  0  0
   59.7250   29.7800   48.9120 F   0  0  0  0  0  0  0  0  0  0  0  0
   58.7920   30.5030   46.8410 C   0  0  0  0  0  0  0  0  0  0  0  0
   58.2570   31.5240   46.0360 C   0  0  0  0  0  0  0  0  0  0  0  0
   57.8180   31.1950   44.6330 C   0  0  0  0  0  0  0  0  0  0  0  0
   56.3760   30.9920   44.6100 N   0  0  0  0  0  0  0  0  0  0  0  0
   55.7750   29.7470   44.2510 C   0  0  0  0  0  0  0  0  0  0  0  0
   55.4740   29.5380   43.0460 O   0  0  0  0  0  0  0  0  0  0  0  0
   55.5670   28.7350   45.2450 N   0  0  0  0  0  0  0  0  0  0  0  0
   56.4150   27.6050   45.5030 C   0  0  0  0  0  0  0  0  0  0  0  0
   55.9150   26.4000   46.0250 C   0  0  0  0  0  0  0  0  0  0  0  0
   56.7770   25.3300   46.2810 C   0  0  0  0  0  0  0  0  0  0  0  0
   58.1530   25.4480   46.0170 C   0  0  0  0  0  0  0  0  0  0  0  0
   59.0760   24.3820   46.2840 N   0  0  0  0  0  0  0  0  0  0  0  0
   59.2840   23.2090   45.4870 C   0  0  0  0  0  0  0  0  0  0  0  0
   58.1900   22.7180   44.6010 C   0  0  0  0  0  0  0  0  0  0  0  0
   60.3470   22.5400   45.5880 O   0  0  0  0  0  0  0  0  0  0  0  0
   58.6540   26.6660   45.5430 C   0  0  0  0  0  0  0  0  0  0  0  0
   57.7920   27.7360   45.2890 C   0  0  0  0  0  0  0  0  0  0  0  0
   59.7022   34.9324   45.7567 H   0  0  0  0  0  0  0  0  0  0  0  0
   59.4206   33.8956   44.3172 H   0  0  0  0  0  0  0  0  0  0  0  0
   58.8628   35.6031   44.3172 H   0  0  0  0  0  0  0  0  0  0  0  0
   58.4543   34.0999   48.2975 H   0  0  0  0  0  0  0  0  0  0  0  0
   59.4170   32.2755   49.6950 H   0  0  0  0  0  0  0  0  0  0  0  0
   58.8856   29.4835   46.4386 H   0  0  0  0  0  0  0  0  0  0  0  0
   58.0820   32.0257   43.9620 H   0  0  0  0  0  0  0  0  0  0  0  0
   58.3227   30.2772   44.2968 H   0  0  0  0  0  0  0  0  0  0  0  0
   54.8397   26.2983   46.2332 H   0  0  0  0  0  0  0  0  0  0  0  0
   56.3770   24.3909   46.6910 H   0  0  0  0  0  0  0  0  0  0  0  0
   57.3587   22.3449   45.2172 H   0  0  0  0  0  0  0  0  0  0  0  0
   57.8343   23.5428   43.9661 H   0  0  0  0  0  0  0  0  0  0  0  0
   58.5698   21.9040   43.9661 H   0  0  0  0  0  0  0  0  0  0  0  0
   59.7340   26.7817   45.3692 H   0  0  0  0  0  0  0  0  0  0  0  0
   58.1986   28.6884   44.9181 H   0  0  0  0  0  0  0  0  0  0  0  0
  1  2  1  0
  2  3  1  0
  3  4  2  0
  4  5  1  0
  5  6  2  0
  6  7  1  0
  6  8  1  0
  8  9  2  0
  9 10  1  0
 10 11  1  0
 11 12  1  0
 12 13  2  0
 12 14  1  0
 14 15  1  0
 15 16  2  0
 16 17  1  0
 17 18  2  0
 18 19  1  0
 19 20  1  0
 20 21  1  0
 20 22  2  0
 18 23  1  0
 23 24  2  0
  9  3  1  0
 24 15  1  0
  1 25  1  0
  1 26  1  0
  1 27  1  0
  4 28  1  0
  5 29  1  0
  8 30  1  0
 10 31  1  0
 10 32  1  0
 16 33  1  0
 17 34  1  0
 21 35  1  0
 21 36  1  0
 21 37  1  0
 23 38  1  0
 24 39  1  0
M  CHG  3  11  -1  14  -1  19  -1
M  END
>  <UniqueID>  (82) 
71

>  <SMILES>  (82) 
CSc1ccc(F)cc1C[N-]C(=O)[N-]c1ccc([N-]C(C)=O)cc1

>  <Energy>  (82) 
38.29243408111774

>  <Genealogy>  (82) 
CSc1ccc(F)cc1C[N-]C(=O)[N-]c1ccc([N-]C(C)=O)cc1 (protonated)
CSc1ccc(F)cc1C[N-]C(=O)[N-]c1ccc([N-]C(C)=O)cc1 (3D coordinates assigned)
CSc1ccc(F)cc1C[N-]C(=O)[N-]c1ccc([N-]C(C)=O)cc1 (optimized conformer: 38.29243408111774 kcal/mol)

>  <smiles>  (82) 
CSc1ccc(F)cc1CNC(=O)Nc1ccc(NC(C)=O)cc1

>  <score_type>  (82) 
oracle

>  <origin>  (82) 
adg

>  <m_score__min__energy>  (82) 
-12.050000000000001

>  <m_primary>  (82) 
energy

$$$$
82:0
     RDKit          3D

 26 27  0  0  0  0  0  0  0  0999 V2000
   55.4430   22.9210   47.9170 C   0  0  0  0  0  0  0  0  0  0  0  0
   56.0970   23.8660   46.9600 C   0  0  0  0  0  0  0  0  0  0  0  0
   57.2950   23.5170   46.3300 C   0  0  0  0  0  0  0  0  0  0  0  0
   57.8940   24.4160   45.4490 C   0  0  0  0  0  0  0  0  0  0  0  0
   57.3000   25.6640   45.1940 C   0  0  0  0  0  0  0  0  0  0  0  0
   57.9490   26.6220   44.2610 C   0  0  0  0  0  0  0  0  0  0  0  0
   57.9330   26.3940   43.0220 O   0  0  0  0  0  0  0  0  0  0  0  0
   58.5180   27.8570   44.7200 N   0  0  0  0  0  0  0  0  0  0  0  0
   57.9340   29.0200   44.7120 C   0  0  0  0  0  0  0  0  0  0  0  0
   56.6340   29.2380   44.4000 N   0  0  0  0  0  0  0  0  0  0  0  0
   56.2730   30.5150   44.5040 N   0  0  0  0  0  0  0  0  0  0  0  0
   57.2880   31.3220   44.8860 C   0  0  0  0  0  0  0  0  0  0  0  0
   57.1280   32.7810   45.1430 C   0  0  0  0  0  0  0  0  0  0  0  0
   58.7050   30.4460   45.1590 S   0  0  0  0  0  0  0  0  0  0  0  0
   56.0950   25.9770   45.8590 C   0  0  0  0  0  0  0  0  0  0  0  0
   55.5170   27.0790   45.6640 O   0  0  0  0  0  0  0  0  0  0  0  0
   55.5350   25.0800   46.7140 N   0  0  0  0  0  0  0  0  0  0  0  0
   55.6603   23.2350   48.9486 H   0  0  0  0  0  0  0  0  0  0  0  0
   54.3553   22.9276   47.7532 H   0  0  0  0  0  0  0  0  0  0  0  0
   55.8324   21.9053   47.7532 H   0  0  0  0  0  0  0  0  0  0  0  0
   57.7614   22.5406   46.5279 H   0  0  0  0  0  0  0  0  0  0  0  0
   58.8370   24.1471   44.9505 H   0  0  0  0  0  0  0  0  0  0  0  0
   55.9460   28.4970   44.1420 H   0  0  0  0  0  0  0  0  0  0  0  0
   57.1081   32.9622   46.2278 H   0  0  0  0  0  0  0  0  0  0  0  0
   57.9717   33.3268   44.6955 H   0  0  0  0  0  0  0  0  0  0  0  0
   56.1861   33.1310   44.6955 H   0  0  0  0  0  0  0  0  0  0  0  0
  1  2  1  0
  2  3  2  0
  3  4  1  0
  4  5  2  0
  5  6  1  0
  6  7  2  0
  6  8  1  0
  8  9  2  3
  9 10  1  0
 10 11  1  0
 11 12  2  0
 12 13  1  0
 12 14  1  0
  5 15  1  0
 15 16  2  0
 15 17  1  0
 17  2  1  0
 14  9  1  0
  1 18  1  0
  1 19  1  0
  1 20  1  0
  3 21  1  0
  4 22  1  0
 10 23  1  0
 13 24  1  0
 13 25  1  0
 13 26  1  0
M  CHG  1  17  -1
M  END
>  <UniqueID>  (83) 
72

>  <SMILES>  (83) 
Cc1ccc(C(=O)N=c2[nH]nc(C)s2)c(=O)[n-]1

>  <Energy>  (83) 
68.12343086819064

>  <Genealogy>  (83) 
Cc1ccc(C(=O)N=c2[nH]nc(C)s2)c(=O)[n-]1 (protonated)
Cc1ccc(C(=O)N=c2[nH]nc(C)s2)c(=O)[n-]1 (3D coordinates assigned)
Cc1ccc(C(=O)N=c2[nH]nc(C)s2)c(=O)[n-]1 (optimized conformer: 68.12343086819064 kcal/mol)

>  <smiles>  (83) 
Cc1ccc(C(=O)N=c2[nH]nc(C)s2)c(=O)[nH]1

>  <score_type>  (83) 
oracle

>  <origin>  (83) 
adg

>  <m_score__min__energy>  (83) 
-8.5500000000000007

>  <m_primary>  (83) 
energy

$$$$
83:0
     RDKit          3D

 44 46  0  0  0  0  0  0  0  0999 V2000
   63.7740   32.8060   47.1250 C   0  0  0  0  0  0  0  0  0  0  0  0
   62.8350   33.8400   47.4010 O   0  0  0  0  0  0  0  0  0  0  0  0
   61.6610   33.6730   48.1530 C   0  0  0  0  0  0  0  0  0  0  0  0
   61.6840   33.6330   49.5630 C   0  0  0  0  0  0  0  0  0  0  0  0
   60.5040   33.4580   50.2850 C   0  0  0  0  0  0  0  0  0  0  0  0
   59.2880   33.3280   49.6160 C   0  0  0  0  0  0  0  0  0  0  0  0
   59.2480   33.3690   48.2220 C   0  0  0  0  0  0  0  0  0  0  0  0
   60.4310   33.5340   47.4750 C   0  0  0  0  0  0  0  0  0  0  0  0
   60.4000   33.5730   46.0350 N   0  0  0  0  0  0  0  0  0  0  0  0
   58.9320   33.5750   45.1090 S   0  0  0  0  0  0  0  0  0  0  0  0
   59.2510   33.8780   43.6730 O   0  0  0  0  0  0  0  0  0  0  0  0
   58.0160   34.6410   45.6420 O   0  0  0  0  0  0  0  0  0  0  0  0
   58.1710   31.9900   45.1950 C   0  0  0  0  0  0  0  0  0  0  0  0
   57.0020   31.7410   44.4640 C   0  0  0  0  0  0  0  0  0  0  0  0
   56.4060   30.4790   44.4980 C   0  0  0  0  0  0  0  0  0  0  0  0
   56.9730   29.4540   45.2620 C   0  0  0  0  0  0  0  0  0  0  0  0
   58.1330   29.7010   46.0200 C   0  0  0  0  0  0  0  0  0  0  0  0
   58.7350   30.9680   45.9710 C   0  0  0  0  0  0  0  0  0  0  0  0
   58.7650   28.5970   46.8270 C   0  0  0  0  0  0  0  0  0  0  0  0
   57.7690   27.4700   47.1380 C   0  0  0  0  0  0  0  0  0  0  0  0
   56.9690   27.0420   45.8830 C   0  0  1  0  0  0  0  0  0  0  0  0
   57.8740   26.3550   44.8450 C   0  0  0  0  0  0  0  0  0  0  0  0
   55.8860   26.0750   46.2950 C   0  0  0  0  0  0  0  0  0  0  0  0
   56.1700   25.0260   46.9330 O   0  0  0  0  0  0  0  0  0  0  0  0
   54.5590   26.3340   45.9700 O   0  0  0  0  0  0  0  0  0  0  0  0
   56.3650   28.1930   45.2790 O   0  0  0  0  0  0  0  0  0  0  0  0
   64.1510   32.3909   48.0713 H   0  0  0  0  0  0  0  0  0  0  0  0
   63.2834   32.0103   46.5452 H   0  0  0  0  0  0  0  0  0  0  0  0
   64.6131   33.2179   46.5452 H   0  0  0  0  0  0  0  0  0  0  0  0
   62.6398   33.7406   50.0967 H   0  0  0  0  0  0  0  0  0  0  0  0
   60.5327   33.4225   51.3841 H   0  0  0  0  0  0  0  0  0  0  0  0
   58.3583   33.1928   50.1882 H   0  0  0  0  0  0  0  0  0  0  0  0
   58.2839   33.2716   47.7014 H   0  0  0  0  0  0  0  0  0  0  0  0
   61.2900   33.4840   45.4960 H   0  0  0  0  0  0  0  0  0  0  0  0
   56.5519   32.5432   43.8608 H   0  0  0  0  0  0  0  0  0  0  0  0
   55.4879   30.2903   43.9223 H   0  0  0  0  0  0  0  0  0  0  0  0
   59.6539   31.1599   46.5444 H   0  0  0  0  0  0  0  0  0  0  0  0
   59.6082   28.1788   46.2577 H   0  0  0  0  0  0  0  0  0  0  0  0
   59.1034   29.0249   47.7822 H   0  0  0  0  0  0  0  0  0  0  0  0
   58.3242   26.6003   47.5193 H   0  0  0  0  0  0  0  0  0  0  0  0
   57.0544   27.8441   47.8859 H   0  0  0  0  0  0  0  0  0  0  0  0
   58.6468   25.7684   45.3634 H   0  0  0  0  0  0  0  0  0  0  0  0
   57.2680   25.6874   44.2149 H   0  0  0  0  0  0  0  0  0  0  0  0
   58.3541   27.1182   44.2149 H   0  0  0  0  0  0  0  0  0  0  0  0
  1  2  1  0
  2  3  1  0
  3  4  2  0
  4  5  1  0
  5  6  2  0
  6  7  1  0
  7  8  2  0
  8  9  1  0
  9 10  1  0
 10 11  2  0
 10 12  2  0
 10 13  1  0
 13 14  2  0
 14 15  1  0
 15 16  2  0
 16 17  1  0
 17 18  2  0
 17 19  1  0
 19 20  1  0
 20 21  1  0
 21 22  1  6
 21 23  1  0
 23 24  2  0
 23 25  1  0
 21 26  1  0
  8  3  1  0
 18 13  1  0
 26 16  1  0
  1 27  1  0
  1 28  1  0
  1 29  1  0
  4 30  1  0
  5 31  1  0
  6 32  1  0
  7 33  1  0
  9 34  1  0
 14 35  1  0
 15 36  1  0
 18 37  1  0
 19 38  1  0
 19 39  1  0
 20 40  1  0
 20 41  1  0
 22 42  1  0
 22 43  1  0
 22 44  1  0
M  CHG  1  25  -1
M  END
>  <UniqueID>  (84) 
73

>  <SMILES>  (84) 
COc1ccccc1NS(=O)(=O)c1ccc2c(c1)CC[C@@](C)(C(=O)[O-])O2

>  <Energy>  (84) 
47.63883300816968

>  <Genealogy>  (84) 
COc1ccccc1NS(=O)(=O)c1ccc2c(c1)CCC(C)(C(=O)[O-])O2 (protonated)
COc1ccccc1NS(=O)(=O)c1ccc2c(c1)CC[C@@](C)(C(=O)[O-])O2 (chirality)
COc1ccccc1NS(=O)(=O)c1ccc2c(c1)CC[C@@](C)(C(=O)[O-])O2 (3D coordinates assigned)
COc1ccccc1NS(=O)(=O)c1ccc2c(c1)CC[C@@](C)(C(=O)[O-])O2 (nonaromatic ring conformer: 47.63883300816968 kcal/mol)

>  <smiles>  (84) 
COc1ccccc1NS(=O)(=O)c1ccc2c(c1)CCC(C)(C(=O)O)O2

>  <score_type>  (84) 
oracle

>  <origin>  (84) 
adg

>  <m_score__min__energy>  (84) 
-11.48

>  <m_primary>  (84) 
energy

$$$$
84:0
     RDKit          3D

 75 79  0  0  0  0  0  0  0  0999 V2000
   57.0340   34.0230   45.4190 C   0  0  0  0  0  0  0  0  0  0  0  0
   58.3000   34.6810   44.8780 C   0  0  0  0  0  0  0  0  0  0  0  0
   59.5540   33.9180   45.3210 C   0  0  0  0  0  0  0  0  0  0  0  0
   59.1930   32.5350   45.8100 C   0  0  0  0  0  0  0  0  0  0  0  0
   58.8450   31.6220   44.8630 N   0  0  0  0  0  0  0  0  0  0  0  0
   58.4940   30.3550   45.1820 C   0  0  0  0  0  0  0  0  0  0  0  0
   58.1460   29.4540   44.1740 C   0  0  0  0  0  0  0  0  0  0  0  0
   57.7900   28.1420   44.4980 C   0  0  0  0  0  0  0  0  0  0  0  0
   57.7690   27.7210   45.8360 C   0  0  0  0  0  0  0  0  0  0  0  0
   57.4260   26.3560   46.1360 N   0  0  0  0  0  0  0  0  0  0  0  0
   56.0840   25.8720   46.2840 C   0  0  0  0  0  0  0  0  0  0  0  0
   55.8670   24.5340   46.7240 N   0  0  0  0  0  0  0  0  0  0  0  0
   55.0970   26.6000   46.0000 O   0  0  0  0  0  0  0  0  0  0  0  0
   58.1450   28.6250   46.8490 C   0  0  0  0  0  0  0  0  0  0  0  0
   58.4940   29.9500   46.5260 C   0  0  0  0  0  0  0  0  0  0  0  0
   58.8470   30.8960   47.5040 C   0  0  0  0  0  0  0  0  0  0  0  0
   58.8620   30.5530   48.7210 O   0  0  0  0  0  0  0  0  0  0  0  0
   59.1710   32.1850   47.1470 N   0  0  0  0  0  0  0  0  0  0  0  0
   59.5100   33.1500   48.2180 C   0  0  0  0  0  0  0  0  0  0  0  0
   60.8900   32.8990   48.7810 C   0  0  0  0  0  0  0  0  0  0  0  0
   61.7280   31.9080   48.2380 C   0  0  0  0  0  0  0  0  0  0  0  0
   63.0170   31.7170   48.7430 C   0  0  0  0  0  0  0  0  0  0  0  0
   63.4890   32.5180   49.7930 C   0  0  0  0  0  0  0  0  0  0  0  0
   64.8530   32.3240   50.3220 C   0  0  0  0  0  0  0  0  0  0  0  0
   65.9020   33.0700   49.7600 C   0  0  0  0  0  0  0  0  0  0  0  0
   67.2100   32.9100   50.2190 C   0  0  0  0  0  0  0  0  0  0  0  0
   67.4850   32.0050   51.2440 C   0  0  0  0  0  0  0  0  0  0  0  0
   66.4520   31.2640   51.8210 C   0  0  0  0  0  0  0  0  0  0  0  0
   65.1270   31.4220   51.3790 C   0  0  0  0  0  0  0  0  0  0  0  0
   63.8420   30.5100   52.1870 S   0  0  0  0  0  0  0  0  0  0  0  0
   64.4400   29.6480   53.2640 O   0  0  0  0  0  0  0  0  0  0  0  0
   62.8550   31.4580   52.8110 O   0  0  0  0  0  0  0  0  0  0  0  0
   63.0420   29.5040   51.0250 N   0  0  0  0  0  0  0  0  0  0  0  0
   61.7420   28.9420   51.2220 C   0  0  0  0  0  0  0  0  0  0  0  0
   61.6290   27.8870   51.8990 O   0  0  0  0  0  0  0  0  0  0  0  0
   60.5760   29.5660   50.6670 N   0  0  0  0  0  0  0  0  0  0  0  0
   59.2590   29.4190   51.2800 C   0  0  0  0  0  0  0  0  0  0  0  0
   58.7570   30.7660   51.7240 C   0  0  0  0  0  0  0  0  0  0  0  0
   59.6590   31.8110   51.9890 C   0  0  0  0  0  0  0  0  0  0  0  0
   59.1830   33.0830   52.3280 C   0  0  0  0  0  0  0  0  0  0  0  0
   57.8080   33.3220   52.3940 C   0  0  0  0  0  0  0  0  0  0  0  0
   56.9040   32.2900   52.1240 C   0  0  0  0  0  0  0  0  0  0  0  0
   57.3750   31.0170   51.7840 C   0  0  0  0  0  0  0  0  0  0  0  0
   62.6720   33.5300   50.3120 C   0  0  0  0  0  0  0  0  0  0  0  0
   61.3820   33.7190   49.8100 C   0  0  0  0  0  0  0  0  0  0  0  0
   57.0560   34.0345   46.5187 H   0  0  0  0  0  0  0  0  0  0  0  0
   56.1525   34.5770   45.0641 H   0  0  0  0  0  0  0  0  0  0  0  0
   56.9809   32.9832   45.0641 H   0  0  0  0  0  0  0  0  0  0  0  0
   58.2567   34.6928   43.7789 H   0  0  0  0  0  0  0  0  0  0  0  0
   58.3571   35.7053   45.2748 H   0  0  0  0  0  0  0  0  0  0  0  0
   60.2436   33.8309   44.4685 H   0  0  0  0  0  0  0  0  0  0  0  0
   60.0317   34.4703   46.1436 H   0  0  0  0  0  0  0  0  0  0  0  0
   58.1520   29.7774   43.1226 H   0  0  0  0  0  0  0  0  0  0  0  0
   57.5245   27.4347   43.6985 H   0  0  0  0  0  0  0  0  0  0  0  0
   58.1950   25.6460   46.1530 H   0  0  0  0  0  0  0  0  0  0  0  0
   55.8070   24.3080   47.7400 H   0  0  0  0  0  0  0  0  0  0  0  0
   58.1660   28.2938   47.8977 H   0  0  0  0  0  0  0  0  0  0  0  0
   59.4737   34.1687   47.8045 H   0  0  0  0  0  0  0  0  0  0  0  0
   58.7804   33.0286   49.0322 H   0  0  0  0  0  0  0  0  0  0  0  0
   61.3664   31.2796   47.4108 H   0  0  0  0  0  0  0  0  0  0  0  0
   63.6633   30.9361   48.3157 H   0  0  0  0  0  0  0  0  0  0  0  0
   65.6908   33.7858   48.9519 H   0  0  0  0  0  0  0  0  0  0  0  0
   68.0250   33.4982   49.7720 H   0  0  0  0  0  0  0  0  0  0  0  0
   68.5181   31.8748   51.5986 H   0  0  0  0  0  0  0  0  0  0  0  0
   66.6767   30.5509   52.6278 H   0  0  0  0  0  0  0  0  0  0  0  0
   60.6720   30.2250   49.8640 H   0  0  0  0  0  0  0  0  0  0  0  0
   58.5595   28.9908   50.5469 H   0  0  0  0  0  0  0  0  0  0  0  0
   59.3334   28.7511   52.1509 H   0  0  0  0  0  0  0  0  0  0  0  0
   60.7422   31.6287   51.9298 H   0  0  0  0  0  0  0  0  0  0  0  0
   59.8926   33.8956   52.5428 H   0  0  0  0  0  0  0  0  0  0  0  0
   57.4363   34.3229   52.6586 H   0  0  0  0  0  0  0  0  0  0  0  0
   55.8218   32.4790   52.1789 H   0  0  0  0  0  0  0  0  0  0  0  0
   56.6613   30.2097   51.5629 H   0  0  0  0  0  0  0  0  0  0  0  0
   63.0472   34.1783   51.1176 H   0  0  0  0  0  0  0  0  0  0  0  0
   60.7467   34.5160   50.2237 H   0  0  0  0  0  0  0  0  0  0  0  0
  1  2  1  0
  2  3  1  0
  3  4  1  0
  4  5  2  0
  5  6  1  0
  6  7  2  0
  7  8  1  0
  8  9  2  0
  9 10  1  0
 10 11  1  0
 11 12  1  0
 11 13  2  0
  9 14  1  0
 14 15  2  0
 15 16  1  0
 16 17  2  0
 16 18  1  0
 18 19  1  0
 19 20  1  0
 20 21  2  0
 21 22  1  0
 22 23  2  0
 23 24  1  0
 24 25  2  0
 25 26  1  0
 26 27  2  0
 27 28  1  0
 28 29  2  0
 29 30  1  0
 30 31  2  0
 30 32  2  0
 30 33  1  0
 33 34  1  0
 34 35  2  0
 34 36  1  0
 36 37  1  0
 37 38  1  0
 38 39  2  0
 39 40  1  0
 40 41  2  0
 41 42  1  0
 42 43  2  0
 23 44  1  0
 44 45  2  0
 18  4  1  0
 45 20  1  0
 15  6  1  0
 29 24  1  0
 43 38  1  0
  1 46  1  0
  1 47  1  0
  1 48  1  0
  2 49  1  0
  2 50  1  0
  3 51  1  0
  3 52  1  0
  7 53  1  0
  8 54  1  0
 10 55  1  0
 12 56  1  0
 14 57  1  0
 19 58  1  0
 19 59  1  0
 21 60  1  0
 22 61  1  0
 25 62  1  0
 26 63  1  0
 27 64  1  0
 28 65  1  0
 36 66  1  0
 37 67  1  0
 37 68  1  0
 39 69  1  0
 40 70  1  0
 41 71  1  0
 42 72  1  0
 43 73  1  0
 44 74  1  0
 45 75  1  0
M  CHG  2  12  -1  33  -1
M  END
>  <UniqueID>  (85) 
74

>  <SMILES>  (85) 
CCCc1nc2ccc(NC([NH-])=O)cc2c(=O)n1Cc1ccc(-c2ccccc2S(=O)(=O)[N-]C(=O)NCc2ccccc2)cc1

>  <Energy>  (85) 
96.80118799718409

>  <Genealogy>  (85) 
CCCc1nc2ccc(NC([NH-])=O)cc2c(=O)n1Cc1ccc(-c2ccccc2S(=O)(=O)[N-]C(=O)NCc2ccccc2)cc1 (protonated)
CCCc1nc2ccc(NC([NH-])=O)cc2c(=O)n1Cc1ccc(-c2ccccc2S(=O)(=O)[N-]C(=O)NCc2ccccc2)cc1 (3D coordinates assigned)
CCCc1nc2ccc(NC([NH-])=O)cc2c(=O)n1Cc1ccc(-c2ccccc2S(=O)(=O)[N-]C(=O)NCc2ccccc2)cc1 (optimized conformer: 96.80118799718409 kcal/mol)

>  <smiles>  (85) 
CCCc1nc2ccc(NC(N)=O)cc2c(=O)n1Cc1ccc(-c2ccccc2S(=O)(=O)NC(=O)NCc2ccccc2)cc1

>  <score_type>  (85) 
oracle

>  <origin>  (85) 
adg

>  <m_score__min__energy>  (85) 
-14.66

>  <m_primary>  (85) 
energy

$$$$
85:0
     RDKit          3D

 59 62  0  0  0  0  0  0  0  0999 V2000
   58.6130   29.5610   48.8810 C   0  0  0  0  0  0  0  0  0  0  0  0
   59.5910   30.4910   49.3320 O   0  0  0  0  0  0  0  0  0  0  0  0
   59.3270   31.5710   50.1900 C   0  0  0  0  0  0  0  0  0  0  0  0
   58.2880   31.5340   51.1410 C   0  0  0  0  0  0  0  0  0  0  0  0
   58.0650   32.6250   51.9840 C   0  0  0  0  0  0  0  0  0  0  0  0
   58.8730   33.7590   51.8930 C   0  0  0  0  0  0  0  0  0  0  0  0
   59.9030   33.8080   50.9530 C   0  0  0  0  0  0  0  0  0  0  0  0
   60.1310   32.7220   50.0930 C   0  0  0  0  0  0  0  0  0  0  0  0
   61.1790   32.8020   49.1110 N   0  0  0  0  0  0  0  0  0  0  0  0
   62.2300   31.9260   49.1770 C   0  0  0  0  0  0  0  0  0  0  0  0
   62.2710   30.9480   50.1720 O   0  0  0  0  0  0  0  0  0  0  0  0
   63.2670   32.0050   48.2410 C   0  0  0  0  0  0  0  0  0  0  0  0
   63.2050   32.9850   47.2550 C   0  0  0  0  0  0  0  0  0  0  0  0
   64.1230   33.0820   46.4000 O   0  0  0  0  0  0  0  0  0  0  0  0
   62.1530   33.8380   47.2170 N   0  0  0  0  0  0  0  0  0  0  0  0
   61.1480   33.7610   48.1270 C   0  0  0  0  0  0  0  0  0  0  0  0
   59.7950   34.9450   48.0040 S   0  0  0  0  0  0  0  0  0  0  0  0
   59.7470   34.9100   46.1820 C   0  0  0  0  0  0  0  0  0  0  0  0
   58.8790   33.7700   45.7360 C   0  0  0  0  0  0  0  0  0  0  0  0
   58.5600   32.7360   46.6290 C   0  0  0  0  0  0  0  0  0  0  0  0
   57.7900   31.6500   46.2040 C   0  0  0  0  0  0  0  0  0  0  0  0
   57.3310   31.5800   44.8800 C   0  0  0  0  0  0  0  0  0  0  0  0
   56.5360   30.4160   44.4410 C   0  0  0  0  0  0  0  0  0  0  0  0
   55.9670   30.4540   43.3170 O   0  0  0  0  0  0  0  0  0  0  0  0
   56.4150   29.2300   45.2350 N   0  0  0  0  0  0  0  0  0  0  0  0
   56.9980   27.9370   44.8980 C   0  0  0  0  0  0  0  0  0  0  0  0
   58.1400   27.6390   45.8360 C   0  0  0  0  0  0  0  0  0  0  0  0
   57.9370   26.7250   46.8870 C   0  0  0  0  0  0  0  0  0  0  0  0
   58.9700   26.4230   47.7760 C   0  0  0  0  0  0  0  0  0  0  0  0
   60.2150   27.0360   47.6340 C   0  0  0  0  0  0  0  0  0  0  0  0
   60.4300   27.9570   46.6090 C   0  0  0  0  0  0  0  0  0  0  0  0
   59.4000   28.2790   45.7070 C   0  0  0  0  0  0  0  0  0  0  0  0
   59.6740   29.2670   44.6030 C   0  0  0  0  0  0  0  0  0  0  0  0
   57.6850   32.5950   43.9770 C   0  0  0  0  0  0  0  0  0  0  0  0
   58.4480   33.6850   44.4030 C   0  0  0  0  0  0  0  0  0  0  0  0
   58.1228   29.0949   49.7484 H   0  0  0  0  0  0  0  0  0  0  0  0
   57.8612   30.0855   48.2730 H   0  0  0  0  0  0  0  0  0  0  0  0
   59.0990   28.7838   48.2730 H   0  0  0  0  0  0  0  0  0  0  0  0
   57.6495   30.6417   51.2199 H   0  0  0  0  0  0  0  0  0  0  0  0
   57.2500   32.5902   52.7219 H   0  0  0  0  0  0  0  0  0  0  0  0
   58.6980   34.6142   52.5623 H   0  0  0  0  0  0  0  0  0  0  0  0
   60.5398   34.7024   50.8854 H   0  0  0  0  0  0  0  0  0  0  0  0
   61.5080   30.2960   50.3090 H   0  0  0  0  0  0  0  0  0  0  0  0
   64.1151   31.3058   48.2837 H   0  0  0  0  0  0  0  0  0  0  0  0
   59.3330   35.8573   45.8061 H   0  0  0  0  0  0  0  0  0  0  0  0
   60.7650   34.7777   45.7867 H   0  0  0  0  0  0  0  0  0  0  0  0
   58.9176   32.7803   47.6683 H   0  0  0  0  0  0  0  0  0  0  0  0
   57.5423   30.8452   46.9118 H   0  0  0  0  0  0  0  0  0  0  0  0
   56.2317   27.1536   44.9932 H   0  0  0  0  0  0  0  0  0  0  0  0
   57.3711   27.9622   43.8635 H   0  0  0  0  0  0  0  0  0  0  0  0
   56.9552   26.2442   47.0090 H   0  0  0  0  0  0  0  0  0  0  0  0
   58.8022   25.7012   48.5890 H   0  0  0  0  0  0  0  0  0  0  0  0
   61.0293   26.7923   48.3323 H   0  0  0  0  0  0  0  0  0  0  0  0
   61.4147   28.4362   46.5050 H   0  0  0  0  0  0  0  0  0  0  0  0
   59.9438   30.2397   45.0401 H   0  0  0  0  0  0  0  0  0  0  0  0
   60.5046   28.9013   43.9815 H   0  0  0  0  0  0  0  0  0  0  0  0
   58.7737   29.3813   43.9815 H   0  0  0  0  0  0  0  0  0  0  0  0
   57.3598   32.5317   42.9281 H   0  0  0  0  0  0  0  0  0  0  0  0
   58.7122   34.4803   43.6904 H   0  0  0  0  0  0  0  0  0  0  0  0
  1  2  1  0
  2  3  1  0
  3  4  2  0
  4  5  1  0
  5  6  2  0
  6  7  1  0
  7  8  2  0
  8  9  1  0
  9 10  1  0
 10 11  1  0
 10 12  2  0
 12 13  1  0
 13 14  2  0
 13 15  1  0
 15 16  2  0
 16 17  1  0
 17 18  1  0
 18 19  1  0
 19 20  2  0
 20 21  1  0
 21 22  2  0
 22 23  1  0
 23 24  2  0
 23 25  1  0
 25 26  1  0
 26 27  1  0
 27 28  2  0
 28 29  1  0
 29 30  2  0
 30 31  1  0
 31 32  2  0
 32 33  1  0
 22 34  1  0
 34 35  2  0
  8  3  1  0
 16  9  1  0
 35 19  1  0
 32 27  1  0
  1 36  1  0
  1 37  1  0
  1 38  1  0
  4 39  1  0
  5 40  1  0
  6 41  1  0
  7 42  1  0
 11 43  1  0
 12 44  1  0
 18 45  1  0
 18 46  1  0
 20 47  1  0
 21 48  1  0
 26 49  1  0
 26 50  1  0
 28 51  1  0
 29 52  1  0
 30 53  1  0
 31 54  1  0
 33 55  1  0
 33 56  1  0
 33 57  1  0
 34 58  1  0
 35 59  1  0
M  CHG  1  25  -1
M  END
>  <UniqueID>  (86) 
75

>  <SMILES>  (86) 
COc1ccccc1-n1c(O)cc(=O)nc1SCc1ccc(C(=O)[N-]Cc2ccccc2C)cc1

>  <Energy>  (86) 
70.98866433142025

>  <Genealogy>  (86) 
COc1ccccc1-n1c(O)cc(=O)nc1SCc1ccc(C(=O)[N-]Cc2ccccc2C)cc1 (protonated)
COc1ccccc1-n1c(O)cc(=O)nc1SCc1ccc(C(=O)[N-]Cc2ccccc2C)cc1 (3D coordinates assigned)
COc1ccccc1-n1c(O)cc(=O)nc1SCc1ccc(C(=O)[N-]Cc2ccccc2C)cc1 (optimized conformer: 70.98866433142025 kcal/mol)

>  <smiles>  (86) 
COc1ccccc1-n1c(O)cc(=O)nc1SCc1ccc(C(=O)NCc2ccccc2C)cc1

>  <score_type>  (86) 
oracle

>  <origin>  (86) 
adg

>  <m_score__min__energy>  (86) 
-11.41

>  <m_primary>  (86) 
energy

$$$$
86:0
     RDKit          3D

 44 46  0  0  0  0  0  0  0  0999 V2000
   60.4310   27.7930   48.6570 C   0  0  0  0  0  0  0  0  0  0  0  0
   59.8610   29.1730   48.2580 C   0  0  0  0  0  0  0  0  0  0  0  0
   59.1010   29.7370   49.4800 C   0  0  0  0  0  0  0  0  0  0  0  0
   61.0170   30.1310   47.9170 C   0  0  0  0  0  0  0  0  0  0  0  0
   58.9310   29.0540   47.0460 C   0  0  0  0  0  0  0  0  0  0  0  0
   58.3600   30.1120   46.4150 N   0  0  0  0  0  0  0  0  0  0  0  0
   57.6850   29.6900   45.3540 N   0  0  0  0  0  0  0  0  0  0  0  0
   56.9380   30.5670   44.4940 C   0  0  0  0  0  0  0  0  0  0  0  0
   56.5430   30.1430   43.3730 O   0  0  0  0  0  0  0  0  0  0  0  0
   56.6420   31.9080   44.9020 N   0  0  0  0  0  0  0  0  0  0  0  0
   57.5750   32.8870   45.3830 C   0  0  0  0  0  0  0  0  0  0  0  0
   57.6670   33.2270   46.7460 C   0  0  0  0  0  0  0  0  0  0  0  0
   58.5740   34.2050   47.1670 C   0  0  0  0  0  0  0  0  0  0  0  0
   59.3840   34.8580   46.2340 C   0  0  0  0  0  0  0  0  0  0  0  0
   59.2810   34.5420   44.8780 C   0  0  0  0  0  0  0  0  0  0  0  0
   58.3730   33.5660   44.4520 C   0  0  0  0  0  0  0  0  0  0  0  0
   57.8310   28.3510   45.2760 C   0  0  0  0  0  0  0  0  0  0  0  0
   58.6160   27.9080   46.3090 C   0  0  0  0  0  0  0  0  0  0  0  0
   58.9900   26.4650   46.5020 C   0  0  0  0  0  0  0  0  0  0  0  0
   58.5840   25.6330   45.3600 N   0  0  0  0  0  0  0  0  0  0  0  0
   57.7720   26.1150   44.2700 C   0  0  0  0  0  0  0  0  0  0  0  0
   57.3990   25.3040   43.3280 N   0  0  0  0  0  0  0  0  0  0  0  0
   57.3940   27.4970   44.2190 N   0  0  0  0  0  0  0  0  0  0  0  0
   60.4640   27.7131   49.7536 H   0  0  0  0  0  0  0  0  0  0  0  0
   59.7872   26.9990   48.2507 H   0  0  0  0  0  0  0  0  0  0  0  0
   61.4475   27.6847   48.2507 H   0  0  0  0  0  0  0  0  0  0  0  0
   59.5791   29.3822   50.4049 H   0  0  0  0  0  0  0  0  0  0  0  0
   59.1267   30.8364   49.4524 H   0  0  0  0  0  0  0  0  0  0  0  0
   58.0563   29.3939   49.4524 H   0  0  0  0  0  0  0  0  0  0  0  0
   61.4692   30.5057   48.8471 H   0  0  0  0  0  0  0  0  0  0  0  0
   61.7770   29.5943   47.3301 H   0  0  0  0  0  0  0  0  0  0  0  0
   60.6308   30.9774   47.3301 H   0  0  0  0  0  0  0  0  0  0  0  0
   58.4220   31.1150   46.6970 H   0  0  0  0  0  0  0  0  0  0  0  0
   57.0239   32.7222   47.4819 H   0  0  0  0  0  0  0  0  0  0  0  0
   58.6499   34.4606   48.2342 H   0  0  0  0  0  0  0  0  0  0  0  0
   60.1027   35.6209   46.5680 H   0  0  0  0  0  0  0  0  0  0  0  0
   59.9144   35.0609   44.1435 H   0  0  0  0  0  0  0  0  0  0  0  0
   58.2851   33.3305   43.3811 H   0  0  0  0  0  0  0  0  0  0  0  0
   60.0810   26.3941   46.6229 H   0  0  0  0  0  0  0  0  0  0  0  0
   58.4656   26.0948   47.3953 H   0  0  0  0  0  0  0  0  0  0  0  0
   58.8580   24.6250   45.3790 H   0  0  0  0  0  0  0  0  0  0  0  0
   56.6230   25.5570   42.6770 H   0  0  0  0  0  0  0  0  0  0  0  0
   57.8660   24.3770   43.2010 H   0  0  0  0  0  0  0  0  0  0  0  0
   56.8860   27.8640   43.3860 H   0  0  0  0  0  0  0  0  0  0  0  0
  1  2  1  0
  2  3  1  0
  2  4  1  0
  2  5  1  0
  5  6  2  0
  6  7  1  0
  7  8  1  0
  8  9  2  0
  8 10  1  0
 10 11  1  0
 11 12  2  0
 12 13  1  0
 13 14  2  0
 14 15  1  0
 15 16  2  0
  7 17  1  0
 17 18  2  0
 18 19  1  0
 19 20  1  0
 20 21  1  0
 21 22  2  0
 21 23  1  0
 18  5  1  0
 16 11  1  0
 23 17  1  0
  1 24  1  0
  1 25  1  0
  1 26  1  0
  3 27  1  0
  3 28  1  0
  3 29  1  0
  4 30  1  0
  4 31  1  0
  4 32  1  0
  6 33  1  0
 12 34  1  0
 13 35  1  0
 14 36  1  0
 15 37  1  0
 16 38  1  0
 19 39  1  0
 19 40  1  0
 20 41  1  0
 22 42  1  0
 22 43  1  0
 23 44  1  0
M  CHG  3   6   1  10  -1  22   1
M  END
>  <UniqueID>  (87) 
76

>  <SMILES>  (87) 
CC(C)(C)c1[nH+]n(C(=O)[N-]c2ccccc2)c2c1CNC(=[NH2+])N2

>  <Energy>  (87) 
83.60457253678122

>  <Genealogy>  (87) 
CC(C)(C)c1[nH+]n(C(=O)[N-]c2ccccc2)c2c1CNC(=[NH2+])N2 (protonated)
CC(C)(C)c1[nH+]n(C(=O)[N-]c2ccccc2)c2c1CNC(=[NH2+])N2 (3D coordinates assigned)
CC(C)(C)c1[nH+]n(C(=O)[N-]c2ccccc2)c2c1CNC(=[NH2+])N2 (nonaromatic ring conformer: 83.60457253678122 kcal/mol)

>  <smiles>  (87) 
CC(C)(C)c1nn(C(=O)Nc2ccccc2)c2c1CNC(=N)N2

>  <score_type>  (87) 
oracle

>  <origin>  (87) 
adg

>  <m_score__min__energy>  (87) 
-5.7000000000000002

>  <m_primary>  (87) 
energy

$$$$
87:0
     RDKit          3D

 47 49  0  0  0  0  0  0  0  0999 V2000
   57.8740   32.5010   50.9650 N   0  0  0  0  0  0  0  0  0  0  0  0
   58.9690   31.5630   50.0090 S   0  0  0  0  0  0  0  0  0  0  0  0
   60.3260   31.5980   50.6500 O   0  0  0  0  0  0  0  0  0  0  0  0
   58.4610   30.1490   49.9740 O   0  0  0  0  0  0  0  0  0  0  0  0
   59.0690   32.2450   48.3760 C   0  0  0  0  0  0  0  0  0  0  0  0
   58.5550   31.4860   47.3130 C   0  0  0  0  0  0  0  0  0  0  0  0
   58.6380   31.9400   45.9900 C   0  0  0  0  0  0  0  0  0  0  0  0
   58.0810   31.1390   44.9340 N   0  0  0  0  0  0  0  0  0  0  0  0
   57.3820   31.6750   43.8000 C   0  0  0  0  0  0  0  0  0  0  0  0
   57.3700   32.9160   43.5800 O   0  0  0  0  0  0  0  0  0  0  0  0
   56.7120   30.7560   42.8230 C   0  0  0  0  0  0  0  0  0  0  0  0
   56.7980   29.3760   43.2880 N   0  0  0  0  0  0  0  0  0  0  0  0
   56.3170   28.9320   44.5620 C   0  0  0  0  0  0  0  0  0  0  0  0
   55.2410   29.4090   45.0180 O   0  0  0  0  0  0  0  0  0  0  0  0
   57.0640   27.9140   45.3500 C   0  0  0  0  0  0  0  0  0  0  0  0
   58.4700   28.0010   45.4330 C   0  0  0  0  0  0  0  0  0  0  0  0
   59.2030   27.0600   46.1600 C   0  0  0  0  0  0  0  0  0  0  0  0
   58.5480   26.0210   46.8190 C   0  0  0  0  0  0  0  0  0  0  0  0
   57.1580   25.9190   46.7520 C   0  0  0  0  0  0  0  0  0  0  0  0
   56.4110   26.8550   46.0250 C   0  0  0  0  0  0  0  0  0  0  0  0
   55.0280   26.7150   45.9900 O   0  0  0  0  0  0  0  0  0  0  0  0
   59.2140   33.1920   45.7330 C   0  0  0  0  0  0  0  0  0  0  0  0
   59.7160   33.9640   46.7800 C   0  0  0  0  0  0  0  0  0  0  0  0
   59.6370   33.5140   48.1050 C   0  0  0  0  0  0  0  0  0  0  0  0
   60.2920   34.5920   49.3920 S   0  0  0  0  0  0  0  0  0  0  0  0
   61.9640   33.9530   49.2630 C   0  0  0  0  0  0  0  0  0  0  0  0
   62.7410   33.7810   50.4150 C   0  0  0  0  0  0  0  0  0  0  0  0
   64.0410   33.2760   50.3170 C   0  0  0  0  0  0  0  0  0  0  0  0
   64.5640   32.9300   49.0660 C   0  0  0  0  0  0  0  0  0  0  0  0
   63.7850   33.0820   47.9160 C   0  0  0  0  0  0  0  0  0  0  0  0
   62.4840   33.5860   48.0130 C   0  0  0  0  0  0  0  0  0  0  0  0
   56.9890   32.5920   50.4160 H   0  0  0  0  0  0  0  0  0  0  0  0
   58.0783   30.5170   47.5224 H   0  0  0  0  0  0  0  0  0  0  0  0
   58.2790   30.1120   44.9460 H   0  0  0  0  0  0  0  0  0  0  0  0
   55.6541   31.0405   42.7235 H   0  0  0  0  0  0  0  0  0  0  0  0
   57.2166   30.8384   41.8491 H   0  0  0  0  0  0  0  0  0  0  0  0
   58.9951   28.8196   44.9191 H   0  0  0  0  0  0  0  0  0  0  0  0
   60.2989   27.1391   46.2125 H   0  0  0  0  0  0  0  0  0  0  0  0
   59.1268   25.2815   47.3918 H   0  0  0  0  0  0  0  0  0  0  0  0
   56.6450   25.0977   47.2738 H   0  0  0  0  0  0  0  0  0  0  0  0
   59.2702   33.5671   44.7005 H   0  0  0  0  0  0  0  0  0  0  0  0
   60.1795   34.9378   46.5635 H   0  0  0  0  0  0  0  0  0  0  0  0
   62.3275   34.0439   51.3998 H   0  0  0  0  0  0  0  0  0  0  0  0
   64.6524   33.1507   51.2228 H   0  0  0  0  0  0  0  0  0  0  0  0
   65.5889   32.5382   48.9879 H   0  0  0  0  0  0  0  0  0  0  0  0
   64.1953   32.8051   46.9337 H   0  0  0  0  0  0  0  0  0  0  0  0
   61.8680   33.6947   47.1082 H   0  0  0  0  0  0  0  0  0  0  0  0
  1  2  1  0
  2  3  2  0
  2  4  2  0
  2  5  1  0
  5  6  2  0
  6  7  1  0
  7  8  1  0
  8  9  1  0
  9 10  2  0
  9 11  1  0
 11 12  1  0
 12 13  1  0
 13 14  2  0
 13 15  1  0
 15 16  2  0
 16 17  1  0
 17 18  2  0
 18 19  1  0
 19 20  2  0
 20 21  1  0
  7 22  2  0
 22 23  1  0
 23 24  2  0
 24 25  1  0
 25 26  1  0
 26 27  2  0
 27 28  1  0
 28 29  2  0
 29 30  1  0
 30 31  2  0
 24  5  1  0
 31 26  1  0
 20 15  1  0
  1 32  1  0
  6 33  1  0
  8 34  1  0
 11 35  1  0
 11 36  1  0
 16 37  1  0
 17 38  1  0
 18 39  1  0
 19 40  1  0
 22 41  1  0
 23 42  1  0
 27 43  1  0
 28 44  1  0
 29 45  1  0
 30 46  1  0
 31 47  1  0
M  CHG  3   1  -1  12  -1  21  -1
M  END
>  <UniqueID>  (88) 
77

>  <SMILES>  (88) 
[NH-]S(=O)(=O)c1cc(NC(=O)C[N-]C(=O)c2ccccc2[O-])ccc1Sc1ccccc1

>  <Energy>  (88) 
51.05518274793676

>  <Genealogy>  (88) 
[NH-]S(=O)(=O)c1cc(NC(=O)C[N-]C(=O)c2ccccc2[O-])ccc1Sc1ccccc1 (protonated)
[NH-]S(=O)(=O)c1cc(NC(=O)C[N-]C(=O)c2ccccc2[O-])ccc1Sc1ccccc1 (3D coordinates assigned)
[NH-]S(=O)(=O)c1cc(NC(=O)C[N-]C(=O)c2ccccc2[O-])ccc1Sc1ccccc1 (optimized conformer: 51.05518274793676 kcal/mol)

>  <smiles>  (88) 
NS(=O)(=O)c1cc(NC(=O)CNC(=O)c2ccccc2O)ccc1Sc1ccccc1

>  <score_type>  (88) 
oracle

>  <origin>  (88) 
adg

>  <m_score__min__energy>  (88) 
-15.18

>  <m_primary>  (88) 
energy

$$$$
88:0
     RDKit          3D

 51 54  0  0  0  0  0  0  0  0999 V2000
   61.0225   35.5678   46.5635 H   0  0  0  0  0  0  0  0  0  0  0  0
   60.5730   34.5740   46.7060 C   0  0  0  0  0  0  0  0  0  0  0  0
   59.8500   34.0060   45.7060 N   0  0  0  0  0  0  0  0  0  0  0  0
   59.2820   32.7800   45.8560 C   0  0  0  0  0  0  0  0  0  0  0  0
   58.4650   32.2060   44.7350 C   0  0  0  0  0  0  0  0  0  0  0  0
   57.6282   32.8839   44.5109 H   0  0  0  0  0  0  0  0  0  0  0  0
   59.1037   32.0921   43.8467 H   0  0  0  0  0  0  0  0  0  0  0  0
   57.9320   30.8830   45.1190 N   0  0  0  0  0  0  0  0  0  0  0  0
   56.7710   30.5210   44.2810 C   0  0  0  0  0  0  0  0  0  0  0  0
   56.0654   31.3646   44.2567 H   0  0  0  0  0  0  0  0  0  0  0  0
   57.1243   30.2916   43.2648 H   0  0  0  0  0  0  0  0  0  0  0  0
   56.0570   29.2790   44.8520 C   0  0  0  0  0  0  0  0  0  0  0  0
   55.1946   29.6097   45.4494 H   0  0  0  0  0  0  0  0  0  0  0  0
   55.7409   28.6523   44.0050 H   0  0  0  0  0  0  0  0  0  0  0  0
   56.9880   28.4300   45.7490 C   0  0  0  0  0  0  0  0  0  0  0  0
   57.0118   28.9034   46.7416 H   0  0  0  0  0  0  0  0  0  0  0  0
   56.4690   27.0290   45.9390 C   0  0  0  0  0  0  0  0  0  0  0  0
   55.1750   26.6680   45.8320 N   0  0  0  0  0  0  0  0  0  0  0  0
   55.2140   25.3260   45.9850 C   0  0  0  0  0  0  0  0  0  0  0  0
   54.1590   24.5630   45.9720 N   0  0  0  0  0  0  0  0  0  0  0  0
   54.0710   23.2340   45.4270 C   0  0  0  0  0  0  0  0  0  0  0  0
   53.0120   22.5600   45.5550 O   0  0  0  0  0  0  0  0  0  0  0  0
   55.2310   22.6530   44.7080 C   0  0  0  0  0  0  0  0  0  0  0  0
   56.0350   21.6710   45.3200 C   0  0  0  0  0  0  0  0  0  0  0  0
   55.7981   21.3287   46.3382 H   0  0  0  0  0  0  0  0  0  0  0  0
   57.1320   21.1280   44.6430 C   0  0  0  0  0  0  0  0  0  0  0  0
   57.7528   20.3609   45.1290 H   0  0  0  0  0  0  0  0  0  0  0  0
   57.4400   21.5590   43.3500 C   0  0  0  0  0  0  0  0  0  0  0  0
   58.5070   21.0330   42.6970 F   0  0  0  0  0  0  0  0  0  0  0  0
   56.6530   22.5340   42.7340 C   0  0  0  0  0  0  0  0  0  0  0  0
   56.8978   22.8740   41.7169 H   0  0  0  0  0  0  0  0  0  0  0  0
   55.5540   23.0800   43.4060 C   0  0  0  0  0  0  0  0  0  0  0  0
   54.9386   23.8476   42.9140 H   0  0  0  0  0  0  0  0  0  0  0  0
   56.4570   24.8210   46.1550 N   0  0  0  0  0  0  0  0  0  0  0  0
   57.2490   25.9060   46.1170 C   0  0  0  0  0  0  0  0  0  0  0  0
   58.3448   25.8993   46.2126 H   0  0  0  0  0  0  0  0  0  0  0  0
   58.4110   28.4080   45.1720 C   0  0  0  0  0  0  0  0  0  0  0  0
   59.0607   27.8273   45.8433 H   0  0  0  0  0  0  0  0  0  0  0  0
   58.3730   27.9490   44.1731 H   0  0  0  0  0  0  0  0  0  0  0  0
   58.9830   29.8370   45.0300 C   0  0  0  0  0  0  0  0  0  0  0  0
   59.7162   30.0047   45.8327 H   0  0  0  0  0  0  0  0  0  0  0  0
   59.4467   29.9136   44.0355 H   0  0  0  0  0  0  0  0  0  0  0  0
   59.4150   32.1130   47.0380 N   0  0  0  0  0  0  0  0  0  0  0  0
   58.9620   31.1800   47.1710 H   0  0  0  0  0  0  0  0  0  0  0  0
   60.1300   32.6470   48.0640 C   0  0  0  0  0  0  0  0  0  0  0  0
   60.2247   32.0970   49.0119 H   0  0  0  0  0  0  0  0  0  0  0  0
   60.7460   33.8960   47.9160 C   0  0  0  0  0  0  0  0  0  0  0  0
   61.5020   34.5230   49.0510 C   0  0  0  0  0  0  0  0  0  0  0  0
   61.0830   34.1755   50.0069 H   0  0  0  0  0  0  0  0  0  0  0  0
   62.5619   34.2352   48.9889 H   0  0  0  0  0  0  0  0  0  0  0  0
   61.4151   35.6178   48.9889 H   0  0  0  0  0  0  0  0  0  0  0  0
  1  2  1  0
  2  3  2  0
  3  4  1  0
  4  5  1  0
  5  6  1  0
  5  7  1  0
  5  8  1  0
  8  9  1  0
  9 10  1  0
  9 11  1  0
  9 12  1  0
 12 13  1  0
 12 14  1  0
 12 15  1  0
 15 16  1  0
 15 17  1  0
 17 18  1  0
 18 19  1  0
 19 20  2  0
 20 21  1  0
 21 22  2  0
 21 23  1  0
 23 24  2  0
 24 25  1  0
 24 26  1  0
 26 27  1  0
 26 28  2  0
 28 29  1  0
 28 30  1  0
 30 31  1  0
 30 32  2  0
 32 33  1  0
 19 34  1  0
 34 35  1  0
 35 36  1  0
 15 37  1  0
 37 38  1  0
 37 39  1  0
 37 40  1  0
 40 41  1  0
 40 42  1  0
  4 43  2  0
 43 44  1  0
 43 45  1  0
 45 46  1  0
 45 47  2  0
 47 48  1  0
 48 49  1  0
 48 50  1  0
 48 51  1  0
 47  2  1  0
 40  8  1  0
 35 17  2  0
 32 23  1  0
M  CHG  3  18  -1  34  -1  43   1
M  END
>  <UniqueID>  (89) 
78

>  <SMILES>  (89) 
Cc1cnc(CN2CCC(c3c[n-]/c(=N/C(=O)c4ccc(F)cc4)[n-]3)CC2)[nH+]c1

>  <Energy>  (89) 
89.65574813012171

>  <Genealogy>  (89) 
Cc1cnc(CN2CCC(c3c[n-]c(=NC(=O)c4ccc(F)cc4)[n-]3)CC2)[nH+]c1 (protonated)
Cc1cnc(CN2CCC(c3c[n-]/c(=N/C(=O)c4ccc(F)cc4)[n-]3)CC2)[nH+]c1 (cis-trans isomerization)
Cc1cnc(CN2CCC(c3c[n-]/c(=N/C(=O)c4ccc(F)cc4)[n-]3)CC2)[nH+]c1 (3D coordinates assigned)
Cc1cnc(CN2CCC(c3c[n-]/c(=N/C(=O)c4ccc(F)cc4)[n-]3)CC2)[nH+]c1 (nonaromatic ring conformer: 89.65574813012171 kcal/mol)

>  <smiles>  (89) 
Cc1cnc(CN2CCC(c3c[nH]c(=NC(=O)c4ccc(F)cc4)[nH]3)CC2)nc1

>  <score_type>  (89) 
oracle

>  <origin>  (89) 
adg

>  <m_score__min__energy>  (89) 
-10.949999999999999

>  <m_primary>  (89) 
energy

$$$$
89:0
     RDKit          3D

 44 47  0  0  0  0  0  0  0  0999 V2000
   54.7580   30.3310   44.7980 H   0  0  0  0  0  0  0  0  0  0  0  0
   55.7370   30.1540   44.4800 N   0  0  0  0  0  0  0  0  0  0  0  0
   56.5620   29.4560   45.1890 C   0  0  0  0  0  0  0  0  0  0  0  0
   57.4120   30.0700   46.0540 N   0  0  0  0  0  0  0  0  0  0  0  0
   58.2930   29.3590   46.8060 C   0  0  0  0  0  0  0  0  0  0  0  0
   59.2090   30.0670   47.7270 C   0  0  0  0  0  0  0  0  0  0  0  0
   60.1350   29.4310   48.3010 O   0  0  0  0  0  0  0  0  0  0  0  0
   59.0540   31.4740   47.9730 N   0  0  0  0  0  0  0  0  0  0  0  0
   58.2620   31.9930   47.5300 H   0  0  0  0  0  0  0  0  0  0  0  0
   59.9680   32.2250   48.8330 C   0  0  0  0  0  0  0  0  0  0  0  0
   59.4790   33.1563   49.1549 H   0  0  0  0  0  0  0  0  0  0  0  0
   60.2215   31.6077   49.7075 H   0  0  0  0  0  0  0  0  0  0  0  0
   61.2410   32.5630   48.0870 C   0  0  0  0  0  0  0  0  0  0  0  0
   62.4000   31.8220   48.3850 C   0  0  0  0  0  0  0  0  0  0  0  0
   62.3557   31.0240   49.1408 H   0  0  0  0  0  0  0  0  0  0  0  0
   63.6040   32.0880   47.7330 C   0  0  0  0  0  0  0  0  0  0  0  0
   64.5031   31.5049   47.9811 H   0  0  0  0  0  0  0  0  0  0  0  0
   63.6700   33.0910   46.7680 C   0  0  0  0  0  0  0  0  0  0  0  0
   64.6219   33.3021   46.2589 H   0  0  0  0  0  0  0  0  0  0  0  0
   62.5290   33.8280   46.4470 C   0  0  0  0  0  0  0  0  0  0  0  0
   62.5879   34.6155   45.6812 H   0  0  0  0  0  0  0  0  0  0  0  0
   61.3040   33.5750   47.0920 C   0  0  0  0  0  0  0  0  0  0  0  0
   60.0960   34.3820   46.6970 C   0  0  0  0  0  0  0  0  0  0  0  0
   59.5755   34.7297   47.6016 H   0  0  0  0  0  0  0  0  0  0  0  0
   60.4138   35.2498   46.1004 H   0  0  0  0  0  0  0  0  0  0  0  0
   59.4160   33.7561   46.1004 H   0  0  0  0  0  0  0  0  0  0  0  0
   58.3220   27.9620   46.6870 C   0  0  0  0  0  0  0  0  0  0  0  0
   59.0297   27.3658   47.2818 H   0  0  0  0  0  0  0  0  0  0  0  0
   57.4340   27.3350   45.7970 C   0  0  0  0  0  0  0  0  0  0  0  0
   57.4140   25.8600   45.6200 C   0  0  0  0  0  0  0  0  0  0  0  0
   57.4230   25.3080   44.3090 C   0  0  0  0  0  0  0  0  0  0  0  0
   57.4506   25.9783   43.4373 H   0  0  0  0  0  0  0  0  0  0  0  0
   57.3970   23.9150   44.1140 C   0  0  0  0  0  0  0  0  0  0  0  0
   57.4103   23.4829   43.1025 H   0  0  0  0  0  0  0  0  0  0  0  0
   57.3540   23.1030   45.2400 C   0  0  0  0  0  0  0  0  0  0  0  0
   57.3360   23.6160   46.4950 C   0  0  0  0  0  0  0  0  0  0  0  0
   57.3620   24.9860   46.7350 C   0  0  0  0  0  0  0  0  0  0  0  0
   57.3427   25.3803   47.7617 H   0  0  0  0  0  0  0  0  0  0  0  0
   57.2850   22.5840   47.4120 O   0  0  0  0  0  0  0  0  0  0  0  0
   57.2730   21.3460   46.6880 C   0  0  0  0  0  0  0  0  0  0  0  0
   58.1494   20.7357   46.9515 H   0  0  0  0  0  0  0  0  0  0  0  0
   56.3850   20.7401   46.9213 H   0  0  0  0  0  0  0  0  0  0  0  0
   57.3190   21.7230   45.3050 O   0  0  0  0  0  0  0  0  0  0  0  0
   56.5810   28.1040   45.0670 N   0  0  0  0  0  0  0  0  0  0  0  0
  1  2  1  0
  2  3  2  0
  3  4  1  0
  4  5  2  0
  5  6  1  0
  6  7  2  0
  6  8  1  0
  8  9  1  0
  8 10  1  0
 10 11  1  0
 10 12  1  0
 10 13  1  0
 13 14  2  0
 14 15  1  0
 14 16  1  0
 16 17  1  0
 16 18  2  0
 18 19  1  0
 18 20  1  0
 20 21  1  0
 20 22  2  0
 22 23  1  0
 23 24  1  0
 23 25  1  0
 23 26  1  0
  5 27  1  0
 27 28  1  0
 27 29  2  0
 29 30  1  0
 30 31  2  0
 31 32  1  0
 31 33  1  0
 33 34  1  0
 33 35  2  0
 35 36  1  0
 36 37  2  0
 37 38  1  0
 36 39  1  0
 39 40  1  0
 40 41  1  0
 40 42  1  0
 40 43  1  0
 29 44  1  0
 44  3  1  0
 22 13  1  0
 37 30  1  0
 43 35  1  0
M  CHG  1  44  -1
M  END
>  <UniqueID>  (90) 
79

>  <SMILES>  (90) 
[H]/N=c1\nc(C(=O)NCc2ccccc2C)cc(-c2ccc3c(c2)OCO3)[n-]1

>  <Energy>  (90) 
79.8620176245328

>  <Genealogy>  (90) 
Cc1ccccc1CNC(=O)c1cc(-c2ccc3c(c2)OCO3)[n-]c(=N)n1 (protonated)
[H]/N=c1\nc(C(=O)NCc2ccccc2C)cc(-c2ccc3c(c2)OCO3)[n-]1 (cis-trans isomerization)
[H]/N=c1\nc(C(=O)NCc2ccccc2C)cc(-c2ccc3c(c2)OCO3)[n-]1 (3D coordinates assigned)
[H]/N=c1\nc(C(=O)NCc2ccccc2C)cc(-c2ccc3c(c2)OCO3)[n-]1 (nonaromatic ring conformer: 79.8620176245328 kcal/mol)

>  <smiles>  (90) 
Cc1ccccc1CNC(=O)c1cc(-c2ccc3c(c2)OCO3)[nH]c(=N)n1

>  <score_type>  (90) 
oracle

>  <origin>  (90) 
adg

>  <m_score__min__energy>  (90) 
-9.6099999999999994

>  <m_primary>  (90) 
energy

$$$$
90:0
     RDKit          3D

 29 31  0  0  0  0  0  0  0  0999 V2000
   55.9240   30.2330   43.0570 O   0  0  0  0  0  0  0  0  0  0  0  0
   56.3290   30.1710   44.2470 C   0  0  0  0  0  0  0  0  0  0  0  0
   55.9200   29.0630   45.0590 N   0  0  0  0  0  0  0  0  0  0  0  0
   56.7570   27.9830   45.5000 C   0  0  0  0  0  0  0  0  0  0  0  0
   58.1610   28.0690   45.4360 C   0  0  0  0  0  0  0  0  0  0  0  0
   58.9510   26.9950   45.8560 C   0  0  0  0  0  0  0  0  0  0  0  0
   58.3510   25.8250   46.3270 C   0  0  0  0  0  0  0  0  0  0  0  0
   56.9570   25.7240   46.3700 C   0  0  0  0  0  0  0  0  0  0  0  0
   56.1610   26.7970   45.9530 C   0  0  0  0  0  0  0  0  0  0  0  0
   54.7760   26.6810   45.9970 O   0  0  0  0  0  0  0  0  0  0  0  0
   57.1610   31.2670   44.7840 C   0  0  0  0  0  0  0  0  0  0  0  0
   57.4050   32.4730   44.1300 C   0  0  0  0  0  0  0  0  0  0  0  0
   58.2000   33.1930   44.9960 C   0  0  0  0  0  0  0  0  0  0  0  0
   58.7530   34.4660   44.8720 C   0  0  0  0  0  0  0  0  0  0  0  0
   59.5290   34.9490   45.9430 C   0  0  0  0  0  0  0  0  0  0  0  0
   59.7280   34.1580   47.0970 C   0  0  0  0  0  0  0  0  0  0  0  0
   59.1540   32.8770   47.1900 C   0  0  0  0  0  0  0  0  0  0  0  0
   58.3930   32.4240   46.1130 C   0  0  0  0  0  0  0  0  0  0  0  0
   57.7600   31.2460   46.0010 N   0  0  0  0  0  0  0  0  0  0  0  0
   58.6375   28.9840   45.0544 H   0  0  0  0  0  0  0  0  0  0  0  0
   60.0476   27.0715   45.8155 H   0  0  0  0  0  0  0  0  0  0  0  0
   58.9745   24.9837   46.6638 H   0  0  0  0  0  0  0  0  0  0  0  0
   56.4849   24.7990   46.7325 H   0  0  0  0  0  0  0  0  0  0  0  0
   57.0423   32.7829   43.1388 H   0  0  0  0  0  0  0  0  0  0  0  0
   58.5890   35.0724   43.9690 H   0  0  0  0  0  0  0  0  0  0  0  0
   59.9834   35.9488   45.8810 H   0  0  0  0  0  0  0  0  0  0  0  0
   60.3355   34.5463   47.9277 H   0  0  0  0  0  0  0  0  0  0  0  0
   59.3008   32.2527   48.0837 H   0  0  0  0  0  0  0  0  0  0  0  0
   57.7220   30.4870   46.7180 H   0  0  0  0  0  0  0  0  0  0  0  0
  1  2  2  0
  2  3  1  0
  3  4  1  0
  4  5  2  0
  5  6  1  0
  6  7  2  0
  7  8  1  0
  8  9  2  0
  9 10  1  0
  2 11  1  0
 11 12  2  0
 12 13  1  0
 13 14  2  0
 14 15  1  0
 15 16  2  0
 16 17  1  0
 17 18  2  0
 18 19  1  0
  9  4  1  0
 19 11  1  0
 18 13  1  0
  5 20  1  0
  6 21  1  0
  7 22  1  0
  8 23  1  0
 12 24  1  0
 14 25  1  0
 15 26  1  0
 16 27  1  0
 17 28  1  0
 19 29  1  0
M  CHG  2   3  -1  10  -1
M  END
>  <UniqueID>  (91) 
80

>  <SMILES>  (91) 
O=C([N-]c1ccccc1[O-])c1cc2ccccc2[nH]1

>  <Energy>  (91) 
69.72726574975924

>  <Genealogy>  (91) 
O=C([N-]c1ccccc1[O-])c1cc2ccccc2[nH]1 (protonated)
O=C([N-]c1ccccc1[O-])c1cc2ccccc2[nH]1 (3D coordinates assigned)
O=C([N-]c1ccccc1[O-])c1cc2ccccc2[nH]1 (optimized conformer: 69.72726574975924 kcal/mol)

>  <smiles>  (91) 
O=C(Nc1ccccc1O)c1cc2ccccc2[nH]1

>  <score_type>  (91) 
oracle

>  <origin>  (91) 
adg

>  <m_score__min__energy>  (91) 
-13.609999999999999

>  <m_primary>  (91) 
energy

$$$$
91:0
     RDKit          3D

 44 46  0  0  0  0  0  0  0  0999 V2000
   57.1320   33.9020   45.6510 C   0  0  0  0  0  0  0  0  0  0  0  0
   58.4790   33.4400   46.1080 C   0  0  0  0  0  0  0  0  0  0  0  0
   59.4780   34.2730   46.4790 N   0  0  0  0  0  0  0  0  0  0  0  0
   60.4770   33.4560   46.8660 C   0  0  0  0  0  0  0  0  0  0  0  0
   61.7310   33.8500   47.3300 C   0  0  0  0  0  0  0  0  0  0  0  0
   62.6390   32.8410   47.6850 C   0  0  0  0  0  0  0  0  0  0  0  0
   62.2770   31.4850   47.5720 C   0  0  0  0  0  0  0  0  0  0  0  0
   61.0010   31.1470   47.1000 C   0  0  0  0  0  0  0  0  0  0  0  0
   60.1500   32.1540   46.7640 N   0  0  0  0  0  0  0  0  0  0  0  0
   58.8860   32.1230   46.2990 C   0  0  0  0  0  0  0  0  0  0  0  0
   58.0990   30.8830   45.9890 C   0  0  0  0  0  0  0  0  0  0  0  0
   58.5340   30.2470   44.3800 S   0  0  0  0  0  0  0  0  0  0  0  0
   58.5440   31.3720   43.3820 O   0  0  0  0  0  0  0  0  0  0  0  0
   59.9010   29.6230   44.4310 O   0  0  0  0  0  0  0  0  0  0  0  0
   57.3400   29.0250   43.8590 C   0  0  0  0  0  0  0  0  0  0  0  0
   56.1830   28.9600   44.8190 C   0  0  0  0  0  0  0  0  0  0  0  0
   55.4450   29.9720   44.9480 O   0  0  0  0  0  0  0  0  0  0  0  0
   55.9030   27.8020   45.6180 N   0  0  0  0  0  0  0  0  0  0  0  0
   56.7540   26.6260   45.7740 C   0  0  0  0  0  0  0  0  0  0  0  0
   58.0700   26.9950   46.4070 C   0  0  0  0  0  0  0  0  0  0  0  0
   58.1190   27.9100   47.4730 C   0  0  0  0  0  0  0  0  0  0  0  0
   59.3430   28.2300   48.0710 C   0  0  0  0  0  0  0  0  0  0  0  0
   60.5220   27.6310   47.6190 C   0  0  0  0  0  0  0  0  0  0  0  0
   60.4800   26.7100   46.5680 C   0  0  0  0  0  0  0  0  0  0  0  0
   59.2600   26.3880   45.9670 C   0  0  0  0  0  0  0  0  0  0  0  0
   56.5020   34.1181   46.5264 H   0  0  0  0  0  0  0  0  0  0  0  0
   57.2430   34.8134   45.0452 H   0  0  0  0  0  0  0  0  0  0  0  0
   56.6602   33.1143   45.0452 H   0  0  0  0  0  0  0  0  0  0  0  0
   59.4750   35.3170   46.4720 H   0  0  0  0  0  0  0  0  0  0  0  0
   61.9990   34.9135   47.4148 H   0  0  0  0  0  0  0  0  0  0  0  0
   63.6396   33.1109   48.0538 H   0  0  0  0  0  0  0  0  0  0  0  0
   62.9906   30.6962   47.8522 H   0  0  0  0  0  0  0  0  0  0  0  0
   60.6956   30.0946   47.0038 H   0  0  0  0  0  0  0  0  0  0  0  0
   58.3147   30.1186   46.7500 H   0  0  0  0  0  0  0  0  0  0  0  0
   57.0279   31.1333   45.9930 H   0  0  0  0  0  0  0  0  0  0  0  0
   56.9644   29.2917   42.8601 H   0  0  0  0  0  0  0  0  0  0  0  0
   57.8319   28.0414   43.8350 H   0  0  0  0  0  0  0  0  0  0  0  0
   56.2405   25.8920   46.4124 H   0  0  0  0  0  0  0  0  0  0  0  0
   56.9499   26.1995   44.7792 H   0  0  0  0  0  0  0  0  0  0  0  0
   57.1920   28.3761   47.8384 H   0  0  0  0  0  0  0  0  0  0  0  0
   59.3772   28.9542   48.8982 H   0  0  0  0  0  0  0  0  0  0  0  0
   61.4832   27.8842   48.0902 H   0  0  0  0  0  0  0  0  0  0  0  0
   61.4084   26.2382   46.2137 H   0  0  0  0  0  0  0  0  0  0  0  0
   59.2303   25.6565   45.1461 H   0  0  0  0  0  0  0  0  0  0  0  0
  1  2  1  0
  2  3  1  0
  3  4  2  0
  4  5  1  0
  5  6  2  0
  6  7  1  0
  7  8  2  0
  8  9  1  0
  9 10  1  0
 10 11  1  0
 11 12  1  0
 12 13  2  0
 12 14  2  0
 12 15  1  0
 15 16  1  0
 16 17  2  0
 16 18  1  0
 18 19  1  0
 19 20  1  0
 20 21  2  0
 21 22  1  0
 22 23  2  0
 23 24  1  0
 24 25  2  0
 10  2  2  0
 25 20  1  0
  9  4  1  0
  1 26  1  0
  1 27  1  0
  1 28  1  0
  3 29  1  0
  5 30  1  0
  6 31  1  0
  7 32  1  0
  8 33  1  0
 11 34  1  0
 11 35  1  0
 15 36  1  0
 15 37  1  0
 19 38  1  0
 19 39  1  0
 21 40  1  0
 22 41  1  0
 23 42  1  0
 24 43  1  0
 25 44  1  0
M  CHG  2   3   1  18  -1
M  END
>  <UniqueID>  (92) 
81

>  <SMILES>  (92) 
Cc1[nH+]c2ccccn2c1CS(=O)(=O)CC(=O)[N-]Cc1ccccc1

>  <Energy>  (92) 
67.58005213242285

>  <Genealogy>  (92) 
Cc1[nH+]c2ccccn2c1CS(=O)(=O)CC(=O)[N-]Cc1ccccc1 (protonated)
Cc1[nH+]c2ccccn2c1CS(=O)(=O)CC(=O)[N-]Cc1ccccc1 (3D coordinates assigned)
Cc1[nH+]c2ccccn2c1CS(=O)(=O)CC(=O)[N-]Cc1ccccc1 (optimized conformer: 67.58005213242285 kcal/mol)

>  <smiles>  (92) 
Cc1nc2ccccn2c1CS(=O)(=O)CC(=O)NCc1ccccc1

>  <score_type>  (92) 
oracle

>  <origin>  (92) 
adg

>  <m_score__min__energy>  (92) 
-8.9000000000000004

>  <m_primary>  (92) 
energy

$$$$
92:0
     RDKit          3D

 52 53  0  0  0  0  0  0  0  0999 V2000
   55.3340   23.9010   44.4190 C   0  0  0  0  0  0  0  0  0  0  0  0
   54.9680   24.8480   45.2840 C   0  0  0  0  0  0  0  0  0  0  0  0
   55.9290   25.5120   46.1830 C   0  0  0  0  0  0  0  0  0  0  0  0
   56.2280   24.9910   47.2930 O   0  0  0  0  0  0  0  0  0  0  0  0
   56.5290   26.7520   45.7880 N   0  0  0  0  0  0  0  0  0  0  0  0
   57.5250   27.4170   46.6290 C   0  0  0  0  0  0  0  0  0  0  0  0
   58.9390   27.2000   46.0800 C   0  0  0  0  0  0  0  0  0  0  0  0
   59.1880   28.0770   44.8470 C   0  0  0  0  0  0  0  0  0  0  0  0
   58.3240   27.6260   43.6610 C   0  0  0  0  0  0  0  0  0  0  0  0
   57.2020   28.5410   43.4530 N   0  0  0  0  0  0  0  0  0  0  0  0
   56.6870   29.4650   44.4230 C   0  0  0  0  0  0  0  0  0  0  0  0
   55.5540   29.2500   44.9270 O   0  0  0  0  0  0  0  0  0  0  0  0
   57.4130   30.6940   44.7890 C   0  0  0  0  0  0  0  0  0  0  0  0
   58.0570   30.7770   46.0330 C   0  0  0  0  0  0  0  0  0  0  0  0
   58.6130   31.9840   46.4570 C   0  0  0  0  0  0  0  0  0  0  0  0
   58.5570   33.1190   45.6320 C   0  0  0  0  0  0  0  0  0  0  0  0
   59.0070   34.4550   46.1510 C   0  0  0  0  0  0  0  0  0  0  0  0
   60.2520   34.2800   46.9780 C   0  0  0  0  0  0  0  0  0  0  0  0
   60.2000   34.4150   48.3730 C   0  0  0  0  0  0  0  0  0  0  0  0
   61.3460   34.2060   49.1480 C   0  0  0  0  0  0  0  0  0  0  0  0
   62.5620   33.8500   48.5350 C   0  0  0  0  0  0  0  0  0  0  0  0
   63.7400   33.6430   49.2660 O   0  0  0  0  0  0  0  0  0  0  0  0
   64.4070   32.3900   49.3750 C   0  0  0  0  0  0  0  0  0  0  0  0
   62.6050   33.6950   47.1440 C   0  0  0  0  0  0  0  0  0  0  0  0
   61.4600   33.9050   46.3700 C   0  0  0  0  0  0  0  0  0  0  0  0
   57.9650   33.0180   44.3630 C   0  0  0  0  0  0  0  0  0  0  0  0
   57.4060   31.8110   43.9410 C   0  0  0  0  0  0  0  0  0  0  0  0
   54.5828   23.4320   43.7666 H   0  0  0  0  0  0  0  0  0  0  0  0
   56.3871   23.5890   44.3580 H   0  0  0  0  0  0  0  0  0  0  0  0
   53.9096   25.1445   45.3281 H   0  0  0  0  0  0  0  0  0  0  0  0
   56.2460   27.1830   44.8790 H   0  0  0  0  0  0  0  0  0  0  0  0
   57.3110   28.4956   46.6558 H   0  0  0  0  0  0  0  0  0  0  0  0
   57.4720   26.9888   47.6408 H   0  0  0  0  0  0  0  0  0  0  0  0
   59.6713   27.4579   46.8592 H   0  0  0  0  0  0  0  0  0  0  0  0
   59.0444   26.1448   45.7877 H   0  0  0  0  0  0  0  0  0  0  0  0
   58.9424   29.1205   45.0935 H   0  0  0  0  0  0  0  0  0  0  0  0
   60.2464   27.9845   44.5619 H   0  0  0  0  0  0  0  0  0  0  0  0
   58.9435   27.6038   42.7523 H   0  0  0  0  0  0  0  0  0  0  0  0
   57.9243   26.6246   43.8789 H   0  0  0  0  0  0  0  0  0  0  0  0
   58.1236   29.8871   46.6761 H   0  0  0  0  0  0  0  0  0  0  0  0
   59.0977   32.0471   47.4424 H   0  0  0  0  0  0  0  0  0  0  0  0
   59.2206   35.1240   45.3043 H   0  0  0  0  0  0  0  0  0  0  0  0
   58.2125   34.8924   46.7735 H   0  0  0  0  0  0  0  0  0  0  0  0
   59.2523   34.6869   48.8609 H   0  0  0  0  0  0  0  0  0  0  0  0
   61.2965   34.3204   50.2409 H   0  0  0  0  0  0  0  0  0  0  0  0
   64.5415   32.1374   50.4371 H   0  0  0  0  0  0  0  0  0  0  0  0
   63.8046   31.6102   48.8861 H   0  0  0  0  0  0  0  0  0  0  0  0
   65.3903   32.4543   48.8861 H   0  0  0  0  0  0  0  0  0  0  0  0
   63.5475   33.4056   46.6563 H   0  0  0  0  0  0  0  0  0  0  0  0
   61.5061   33.7756   45.2786 H   0  0  0  0  0  0  0  0  0  0  0  0
   57.9417   33.8942   43.6984 H   0  0  0  0  0  0  0  0  0  0  0  0
   56.9581   31.7354   42.9392 H   0  0  0  0  0  0  0  0  0  0  0  0
  1  2  2  0
  2  3  1  0
  3  4  2  0
  3  5  1  0
  5  6  1  0
  6  7  1  0
  7  8  1  0
  8  9  1  0
  9 10  1  0
 10 11  1  0
 11 12  2  0
 11 13  1  0
 13 14  2  0
 14 15  1  0
 15 16  2  0
 16 17  1  0
 17 18  1  0
 18 19  2  0
 19 20  1  0
 20 21  2  0
 21 22  1  0
 22 23  1  0
 21 24  1  0
 24 25  2  0
 16 26  1  0
 26 27  2  0
 27 13  1  0
 25 18  1  0
  1 28  1  0
  1 29  1  0
  2 30  1  0
  5 31  1  0
  6 32  1  0
  6 33  1  0
  7 34  1  0
  7 35  1  0
  8 36  1  0
  8 37  1  0
  9 38  1  0
  9 39  1  0
 14 40  1  0
 15 41  1  0
 17 42  1  0
 17 43  1  0
 19 44  1  0
 20 45  1  0
 23 46  1  0
 23 47  1  0
 23 48  1  0
 24 49  1  0
 25 50  1  0
 26 51  1  0
 27 52  1  0
M  CHG  1  10  -1
M  END
>  <UniqueID>  (93) 
82

>  <SMILES>  (93) 
C=CC(=O)NCCCC[N-]C(=O)c1ccc(Cc2ccc(OC)cc2)cc1

>  <Energy>  (93) 
39.91209173282255

>  <Genealogy>  (93) 
C=CC(=O)NCCCC[N-]C(=O)c1ccc(Cc2ccc(OC)cc2)cc1 (protonated)
C=CC(=O)NCCCC[N-]C(=O)c1ccc(Cc2ccc(OC)cc2)cc1 (3D coordinates assigned)
C=CC(=O)NCCCC[N-]C(=O)c1ccc(Cc2ccc(OC)cc2)cc1 (optimized conformer: 39.91209173282255 kcal/mol)

>  <smiles>  (93) 
C=CC(=O)NCCCCNC(=O)c1ccc(Cc2ccc(OC)cc2)cc1

>  <score_type>  (93) 
oracle

>  <origin>  (93) 
adg

>  <m_score__min__energy>  (93) 
-10.039999999999999

>  <m_primary>  (93) 
energy

$$$$
93:0
     RDKit          3D

 68 71  0  0  0  0  0  0  0  0999 V2000
   57.1380   31.8560   51.2460 C   0  0  0  0  0  0  0  0  0  0  0  0
   56.4190   30.6300   51.3230 O   0  0  0  0  0  0  0  0  0  0  0  0
   55.2220   30.4390   52.0250 C   0  0  0  0  0  0  0  0  0  0  0  0
   53.9760   30.5390   51.3750 C   0  0  0  0  0  0  0  0  0  0  0  0
   52.7800   30.4020   52.0910 C   0  0  0  0  0  0  0  0  0  0  0  0
   51.4560   30.5340   51.3860 C   0  0  0  0  0  0  0  0  0  0  0  0
   51.1530   31.9670   51.0690 C   0  0  0  0  0  0  0  0  0  0  0  0
   51.0710   32.8230   51.9930 O   0  0  0  0  0  0  0  0  0  0  0  0
   51.0090   32.3710   49.7450 O   0  0  0  0  0  0  0  0  0  0  0  0
   52.8260   30.2140   53.4760 C   0  0  0  0  0  0  0  0  0  0  0  0
   54.0530   30.1050   54.1290 C   0  0  0  0  0  0  0  0  0  0  0  0
   55.2550   30.1620   53.4120 C   0  0  0  0  0  0  0  0  0  0  0  0
   56.4400   29.9220   54.1320 O   0  0  0  0  0  0  0  0  0  0  0  0
   57.1670   30.8650   54.9270 C   0  0  0  0  0  0  0  0  0  0  0  0
   58.2710   31.5800   54.1270 C   0  0  0  0  0  0  0  0  0  0  0  0
   59.5480   30.7750   54.0010 C   0  0  0  0  0  0  0  0  0  0  0  0
   59.8230   29.8070   54.9860 C   0  0  0  0  0  0  0  0  0  0  0  0
   60.9510   28.9900   54.8920 C   0  0  0  0  0  0  0  0  0  0  0  0
   61.8280   29.1290   53.8210 C   0  0  0  0  0  0  0  0  0  0  0  0
   61.5890   30.0990   52.8460 C   0  0  0  0  0  0  0  0  0  0  0  0
   60.4560   30.9310   52.9170 C   0  0  0  0  0  0  0  0  0  0  0  0
   60.3060   32.0100   51.8710 C   0  0  0  0  0  0  0  0  0  0  0  0
   61.2520   31.7630   50.6910 C   0  0  0  0  0  0  0  0  0  0  0  0
   60.5940   32.0970   49.4210 N   0  0  0  0  0  0  0  0  0  0  0  0
   60.2520   31.0570   48.4840 C   0  0  0  0  0  0  0  0  0  0  0  0
   60.9290   30.9320   47.2590 C   0  0  0  0  0  0  0  0  0  0  0  0
   60.5780   29.9030   46.3800 C   0  0  0  0  0  0  0  0  0  0  0  0
   59.5530   29.0180   46.7190 C   0  0  0  0  0  0  0  0  0  0  0  0
   58.8900   29.1760   47.9360 C   0  0  0  0  0  0  0  0  0  0  0  0
   59.2510   30.1790   48.7810 N   0  0  0  0  0  0  0  0  0  0  0  0
   60.2380   33.7670   49.0550 S   0  0  0  0  0  0  0  0  0  0  0  0
   61.5260   34.5410   48.9840 O   0  0  0  0  0  0  0  0  0  0  0  0
   59.3720   34.3580   50.1340 O   0  0  0  0  0  0  0  0  0  0  0  0
   59.3610   33.8960   47.5310 C   0  0  0  0  0  0  0  0  0  0  0  0
   59.9070   34.5950   46.4450 C   0  0  0  0  0  0  0  0  0  0  0  0
   59.1810   34.7170   45.2550 C   0  0  0  0  0  0  0  0  0  0  0  0
   57.9110   34.1390   45.1430 C   0  0  0  0  0  0  0  0  0  0  0  0
   57.3680   33.4320   46.2210 C   0  0  0  0  0  0  0  0  0  0  0  0
   58.0900   33.3120   47.4130 C   0  0  0  0  0  0  0  0  0  0  0  0
   57.3516   32.2202   52.2617 H   0  0  0  0  0  0  0  0  0  0  0  0
   58.0838   31.6933   50.7084 H   0  0  0  0  0  0  0  0  0  0  0  0
   56.5343   32.6020   50.7084 H   0  0  0  0  0  0  0  0  0  0  0  0
   53.9420   30.7270   50.2917 H   0  0  0  0  0  0  0  0  0  0  0  0
   51.4890   29.9582   50.4493 H   0  0  0  0  0  0  0  0  0  0  0  0
   50.6675   30.1491   52.0494 H   0  0  0  0  0  0  0  0  0  0  0  0
   51.8910   30.1519   54.0521 H   0  0  0  0  0  0  0  0  0  0  0  0
   54.0775   29.9726   55.2207 H   0  0  0  0  0  0  0  0  0  0  0  0
   56.4643   31.6192   55.3110 H   0  0  0  0  0  0  0  0  0  0  0  0
   57.6510   30.3112   55.7450 H   0  0  0  0  0  0  0  0  0  0  0  0
   57.8893   31.7868   53.1163 H   0  0  0  0  0  0  0  0  0  0  0  0
   58.5226   32.4994   54.6760 H   0  0  0  0  0  0  0  0  0  0  0  0
   59.1400   29.6931   55.8407 H   0  0  0  0  0  0  0  0  0  0  0  0
   61.1470   28.2342   55.6669 H   0  0  0  0  0  0  0  0  0  0  0  0
   62.7090   28.4751   53.7426 H   0  0  0  0  0  0  0  0  0  0  0  0
   62.2957   30.2147   52.0110 H   0  0  0  0  0  0  0  0  0  0  0  0
   59.2684   32.0157   51.5057 H   0  0  0  0  0  0  0  0  0  0  0  0
   60.5582   32.9788   52.3268 H   0  0  0  0  0  0  0  0  0  0  0  0
   62.1484   32.3895   50.8092 H   0  0  0  0  0  0  0  0  0  0  0  0
   61.5301   30.6988   50.6767 H   0  0  0  0  0  0  0  0  0  0  0  0
   61.7292   31.6385   46.9936 H   0  0  0  0  0  0  0  0  0  0  0  0
   61.1086   29.7910   45.4230 H   0  0  0  0  0  0  0  0  0  0  0  0
   59.2712   28.2049   46.0338 H   0  0  0  0  0  0  0  0  0  0  0  0
   58.0757   28.4900   48.2123 H   0  0  0  0  0  0  0  0  0  0  0  0
   60.9061   35.0475   46.5285 H   0  0  0  0  0  0  0  0  0  0  0  0
   59.6094   35.2686   44.4052 H   0  0  0  0  0  0  0  0  0  0  0  0
   57.3405   34.2407   44.2080 H   0  0  0  0  0  0  0  0  0  0  0  0
   56.3735   32.9705   46.1313 H   0  0  0  0  0  0  0  0  0  0  0  0
   57.6604   32.7582   48.2607 H   0  0  0  0  0  0  0  0  0  0  0  0
  1  2  1  0
  2  3  1  0
  3  4  2  0
  4  5  1  0
  5  6  1  0
  6  7  1  0
  7  8  2  0
  7  9  1  0
  5 10  2  0
 10 11  1  0
 11 12  2  0
 12 13  1  0
 13 14  1  0
 14 15  1  0
 15 16  1  0
 16 17  2  0
 17 18  1  0
 18 19  2  0
 19 20  1  0
 20 21  2  0
 21 22  1  0
 22 23  1  0
 23 24  1  0
 24 25  1  0
 25 26  2  0
 26 27  1  0
 27 28  2  0
 28 29  1  0
 29 30  2  0
 24 31  1  0
 31 32  2  0
 31 33  2  0
 31 34  1  0
 34 35  2  0
 35 36  1  0
 36 37  2  0
 37 38  1  0
 38 39  2  0
 12  3  1  0
 21 16  1  0
 30 25  1  0
 39 34  1  0
  1 40  1  0
  1 41  1  0
  1 42  1  0
  4 43  1  0
  6 44  1  0
  6 45  1  0
 10 46  1  0
 11 47  1  0
 14 48  1  0
 14 49  1  0
 15 50  1  0
 15 51  1  0
 17 52  1  0
 18 53  1  0
 19 54  1  0
 20 55  1  0
 22 56  1  0
 22 57  1  0
 23 58  1  0
 23 59  1  0
 26 60  1  0
 27 61  1  0
 28 62  1  0
 29 63  1  0
 35 64  1  0
 36 65  1  0
 37 66  1  0
 38 67  1  0
 39 68  1  0
M  CHG  1   9  -1
M  END
>  <UniqueID>  (94) 
83

>  <SMILES>  (94) 
COc1cc(CC(=O)[O-])ccc1OCCc1ccccc1CCN(c1ccccn1)S(=O)(=O)c1ccccc1

>  <Energy>  (94) 
72.47222534425626

>  <Genealogy>  (94) 
COc1cc(CC(=O)[O-])ccc1OCCc1ccccc1CCN(c1ccccn1)S(=O)(=O)c1ccccc1 (protonated)
COc1cc(CC(=O)[O-])ccc1OCCc1ccccc1CCN(c1ccccn1)S(=O)(=O)c1ccccc1 (3D coordinates assigned)
COc1cc(CC(=O)[O-])ccc1OCCc1ccccc1CCN(c1ccccn1)S(=O)(=O)c1ccccc1 (optimized conformer: 72.47222534425626 kcal/mol)

>  <smiles>  (94) 
COc1cc(CC(=O)O)ccc1OCCc1ccccc1CCN(c1ccccn1)S(=O)(=O)c1ccccc1

>  <score_type>  (94) 
oracle

>  <origin>  (94) 
adg

>  <m_score__min__energy>  (94) 
-13.949999999999999

>  <m_primary>  (94) 
energy

$$$$
94:0
     RDKit          3D

 28 29  0  0  0  0  0  0  0  0999 V2000
   54.3910   29.6270   45.2910 H   0  0  0  0  0  0  0  0  0  0  0  0
   55.2690   29.3310   44.8080 N   0  0  0  0  0  0  0  0  0  0  0  0
   56.1260   30.1830   44.3420 C   0  0  0  0  0  0  0  0  0  0  0  0
   56.9030   30.8900   45.2060 N   0  0  0  0  0  0  0  0  0  0  0  0
   57.8220   31.8050   44.7840 C   0  0  0  0  0  0  0  0  0  0  0  0
   58.6360   32.5330   45.7910 C   0  0  0  0  0  0  0  0  0  0  0  0
   59.2810   33.7450   45.4790 C   0  0  0  0  0  0  0  0  0  0  0  0
   59.1902   34.1657   44.4667 H   0  0  0  0  0  0  0  0  0  0  0  0
   60.0360   34.4190   46.4440 C   0  0  0  0  0  0  0  0  0  0  0  0
   60.5466   35.3574   46.1818 H   0  0  0  0  0  0  0  0  0  0  0  0
   60.1460   33.9040   47.7470 C   0  0  0  0  0  0  0  0  0  0  0  0
   60.9010   34.5380   48.7450 O   0  0  0  0  0  0  0  0  0  0  0  0
   62.2520   34.2890   49.0210 C   0  0  0  0  0  0  0  0  0  0  0  0
   62.8170   34.8040   50.0240 O   0  0  0  0  0  0  0  0  0  0  0  0
   62.9980   33.3070   48.1840 C   0  0  0  0  0  0  0  0  0  0  0  0
   63.5338   32.6017   48.8362 H   0  0  0  0  0  0  0  0  0  0  0  0
   62.2902   32.7540   47.5490 H   0  0  0  0  0  0  0  0  0  0  0  0
   63.7206   33.8406   47.5490 H   0  0  0  0  0  0  0  0  0  0  0  0
   59.5140   32.6950   48.0570 C   0  0  0  0  0  0  0  0  0  0  0  0
   59.6124   32.2725   49.0678 H   0  0  0  0  0  0  0  0  0  0  0  0
   58.7590   32.0190   47.0950 C   0  0  0  0  0  0  0  0  0  0  0  0
   58.2565   31.0769   47.3594 H   0  0  0  0  0  0  0  0  0  0  0  0
   57.9880   32.0190   43.4040 C   0  0  0  0  0  0  0  0  0  0  0  0
   58.7326   32.7430   43.0415 H   0  0  0  0  0  0  0  0  0  0  0  0
   57.2010   31.3060   42.4970 C   0  0  0  0  0  0  0  0  0  0  0  0
   57.3211   31.4709   41.4161 H   0  0  0  0  0  0  0  0  0  0  0  0
   56.2630   30.3850   42.9620 C   0  0  0  0  0  0  0  0  0  0  0  0
   55.6372   29.8230   42.2532 H   0  0  0  0  0  0  0  0  0  0  0  0
  1  2  1  0
  2  3  2  0
  3  4  1  0
  4  5  1  0
  5  6  1  0
  6  7  2  0
  7  8  1  0
  7  9  1  0
  9 10  1  0
  9 11  2  0
 11 12  1  0
 12 13  1  0
 13 14  2  0
 13 15  1  0
 15 16  1  0
 15 17  1  0
 15 18  1  0
 11 19  1  0
 19 20  1  0
 19 21  2  0
 21 22  1  0
  5 23  2  0
 23 24  1  0
 23 25  1  0
 25 26  1  0
 25 27  2  0
 27 28  1  0
 27  3  1  0
 21  6  1  0
M  CHG  1   4  -1
M  END
>  <UniqueID>  (95) 
84

>  <SMILES>  (95) 
[H]/N=c1\cccc(-c2ccc(OC(C)=O)cc2)[n-]1

>  <Energy>  (95) 
36.15701960917943

>  <Genealogy>  (95) 
CC(=O)Oc1ccc(-c2cccc(=N)[n-]2)cc1 (protonated)
[H]/N=c1\cccc(-c2ccc(OC(C)=O)cc2)[n-]1 (cis-trans isomerization)
[H]/N=c1\cccc(-c2ccc(OC(C)=O)cc2)[n-]1 (3D coordinates assigned)
[H]/N=c1\cccc(-c2ccc(OC(C)=O)cc2)[n-]1 (optimized conformer: 36.15701960917943 kcal/mol)

>  <smiles>  (95) 
CC(=O)Oc1ccc(-c2cccc(=N)[nH]2)cc1

>  <score_type>  (95) 
oracle

>  <origin>  (95) 
adg

>  <m_score__min__energy>  (95) 
-9.0299999999999994

>  <m_primary>  (95) 
energy

$$$$
95:0
     RDKit          3D

 17 17  0  0  0  0  0  0  0  0999 V2000
   54.5160   28.7260   52.9420 C   0  0  0  0  0  0  0  0  0  0  0  0
   53.1760   28.6740   52.3510 N   0  0  0  0  0  0  0  0  0  0  0  0
   52.2520   29.5530   53.0800 C   0  0  0  0  0  0  0  0  0  0  0  0
   51.8710   30.7300   52.2320 C   0  0  0  0  0  0  0  0  0  0  0  0
   51.2800   31.8890   52.6750 C   0  0  0  0  0  0  0  0  0  0  0  0
   51.0290   32.6780   51.6180 N   0  0  0  0  0  0  0  0  0  0  0  0
   51.4680   31.9650   50.5610 C   0  0  0  0  0  0  0  0  0  0  0  0
   51.9830   30.7620   50.8940 N   0  0  0  0  0  0  0  0  0  0  0  0
   54.4333   28.7228   54.0389 H   0  0  0  0  0  0  0  0  0  0  0  0
   55.0951   27.8497   52.6154 H   0  0  0  0  0  0  0  0  0  0  0  0
   55.0254   29.6446   52.6154 H   0  0  0  0  0  0  0  0  0  0  0  0
   53.2390   28.9770   51.3510 H   0  0  0  0  0  0  0  0  0  0  0  0
   52.8300   27.6850   52.3920 H   0  0  0  0  0  0  0  0  0  0  0  0
   51.3459   28.9877   53.3434 H   0  0  0  0  0  0  0  0  0  0  0  0
   52.7494   29.9161   53.9914 H   0  0  0  0  0  0  0  0  0  0  0  0
   51.0503   32.1306   53.7233 H   0  0  0  0  0  0  0  0  0  0  0  0
   51.4118   32.3292   49.5246 H   0  0  0  0  0  0  0  0  0  0  0  0
  1  2  1  0
  2  3  1  0
  3  4  1  0
  4  5  2  0
  5  6  1  0
  6  7  1  0
  7  8  2  0
  8  4  1  0
  1  9  1  0
  1 10  1  0
  1 11  1  0
  2 12  1  0
  2 13  1  0
  3 14  1  0
  3 15  1  0
  5 16  1  0
  7 17  1  0
M  CHG  2   2   1   6  -1
M  END
>  <UniqueID>  (96) 
85

>  <SMILES>  (96) 
C[NH2+]Cc1c[n-]cn1

>  <Energy>  (96) 
39.49446874795257

>  <Genealogy>  (96) 
C[NH2+]Cc1c[n-]cn1 (protonated)
C[NH2+]Cc1c[n-]cn1 (3D coordinates assigned)
C[NH2+]Cc1c[n-]cn1 (optimized conformer: 39.49446874795257 kcal/mol)

>  <smiles>  (96) 
CNCc1c[nH]cn1

>  <score_type>  (96) 
oracle

>  <origin>  (96) 
adg

>  <m_score__min__energy>  (96) 
-4.5899999999999999

>  <m_primary>  (96) 
energy

$$$$
