0:0
     RDKit          3D

 54 57  0  0  0  0  0  0  0  0999 V2000
   56.6830   29.0220   42.8430 N   0  0  0  0  0  0  0  0  0  0  0  0
   57.1110   30.2860   43.9430 S   0  0  0  0  0  0  0  0  0  0  0  0
   57.6680   31.4500   43.1720 O   0  0  0  0  0  0  0  0  0  0  0  0
   55.8880   30.7420   44.6870 O   0  0  0  0  0  0  0  0  0  0  0  0
   58.3110   29.6920   45.0880 C   0  0  0  0  0  0  0  0  0  0  0  0
   59.5860   29.3130   44.6470 C   0  0  0  0  0  0  0  0  0  0  0  0
   60.5200   28.8130   45.5560 C   0  0  0  0  0  0  0  0  0  0  0  0
   60.1900   28.6940   46.9090 C   0  0  0  0  0  0  0  0  0  0  0  0
   58.9230   29.0980   47.3680 C   0  0  0  0  0  0  0  0  0  0  0  0
   58.5250   28.9560   48.7430 N   0  0  0  0  0  0  0  0  0  0  0  0
   58.5340   29.8730   49.6660 C   0  0  0  0  0  0  0  0  0  0  0  0
   59.2790   30.9930   49.4770 N   0  0  0  0  0  0  0  0  0  0  0  0
   59.3440   31.9770   50.4150 C   0  0  0  0  0  0  0  0  0  0  0  0
   60.1350   33.1560   50.1610 N   0  0  0  0  0  0  0  0  0  0  0  0
   59.5390   34.3230   49.4860 C   0  0  0  0  0  0  0  0  0  0  0  0
   59.2590   34.0320   48.0350 C   0  0  0  0  0  0  0  0  0  0  0  0
   58.1950   33.1860   47.6820 C   0  0  0  0  0  0  0  0  0  0  0  0
   57.9230   32.9230   46.3350 C   0  0  0  0  0  0  0  0  0  0  0  0
   58.7110   33.5010   45.3350 C   0  0  0  0  0  0  0  0  0  0  0  0
   59.7700   34.3450   45.6790 C   0  0  0  0  0  0  0  0  0  0  0  0
   60.0460   34.6110   47.0240 C   0  0  0  0  0  0  0  0  0  0  0  0
   61.5850   33.1150   50.4200 C   0  0  0  0  0  0  0  0  0  0  0  0
   62.3490   32.9500   49.1330 C   0  0  0  0  0  0  0  0  0  0  0  0
   62.4480   31.6920   48.5160 C   0  0  0  0  0  0  0  0  0  0  0  0
   63.1690   31.5440   47.3280 C   0  0  0  0  0  0  0  0  0  0  0  0
   63.7920   32.6510   46.7440 C   0  0  0  0  0  0  0  0  0  0  0  0
   63.6970   33.9080   47.3490 C   0  0  0  0  0  0  0  0  0  0  0  0
   62.9760   34.0590   48.5370 C   0  0  0  0  0  0  0  0  0  0  0  0
   58.6160   31.8320   51.6050 C   0  0  0  0  0  0  0  0  0  0  0  0
   57.8700   30.6700   51.7930 C   0  0  0  0  0  0  0  0  0  0  0  0
   57.8460   29.7150   50.8290 N   0  0  0  0  0  0  0  0  0  0  0  0
   57.9810   29.5690   46.4440 C   0  0  0  0  0  0  0  0  0  0  0  0
   57.4820   28.9110   42.1800 H   0  0  0  0  0  0  0  0  0  0  0  0
   55.8720   29.3680   42.2830 H   0  0  0  0  0  0  0  0  0  0  0  0
   59.8510   29.4096   43.5838 H   0  0  0  0  0  0  0  0  0  0  0  0
   61.5186   28.5118   45.2065 H   0  0  0  0  0  0  0  0  0  0  0  0
   60.9239   28.2828   47.6177 H   0  0  0  0  0  0  0  0  0  0  0  0
   58.5955   34.5839   49.9877 H   0  0  0  0  0  0  0  0  0  0  0  0
   60.2529   35.1580   49.5411 H   0  0  0  0  0  0  0  0  0  0  0  0
   57.5739   32.7290   48.4665 H   0  0  0  0  0  0  0  0  0  0  0  0
   57.0882   32.2607   46.0623 H   0  0  0  0  0  0  0  0  0  0  0  0
   58.4970   33.2911   44.2766 H   0  0  0  0  0  0  0  0  0  0  0  0
   60.3874   34.8008   44.8910 H   0  0  0  0  0  0  0  0  0  0  0  0
   60.8811   35.2750   47.2916 H   0  0  0  0  0  0  0  0  0  0  0  0
   61.8922   34.0533   50.9050 H   0  0  0  0  0  0  0  0  0  0  0  0
   61.8041   32.2586   51.0747 H   0  0  0  0  0  0  0  0  0  0  0  0
   61.9558   30.8193   48.9700 H   0  0  0  0  0  0  0  0  0  0  0  0
   63.2464   30.5554   46.8519 H   0  0  0  0  0  0  0  0  0  0  0  0
   64.3574   32.5330   45.8078 H   0  0  0  0  0  0  0  0  0  0  0  0
   64.1896   34.7780   46.8901 H   0  0  0  0  0  0  0  0  0  0  0  0
   62.8986   35.0500   49.0081 H   0  0  0  0  0  0  0  0  0  0  0  0
   58.6335   32.6188   52.3736 H   0  0  0  0  0  0  0  0  0  0  0  0
   57.3004   30.5268   52.7231 H   0  0  0  0  0  0  0  0  0  0  0  0
   56.9727   29.8448   46.7865 H   0  0  0  0  0  0  0  0  0  0  0  0
  1  2  1  0
  2  3  2  0
  2  4  2  0
  2  5  1  0
  5  6  2  0
  6  7  1  0
  7  8  2  0
  8  9  1  0
  9 10  1  0
 10 11  2  3
 11 12  1  0
 12 13  2  0
 13 14  1  0
 14 15  1  0
 15 16  1  0
 16 17  2  0
 17 18  1  0
 18 19  2  0
 19 20  1  0
 20 21  2  0
 14 22  1  0
 22 23  1  0
 23 24  2  0
 24 25  1  0
 25 26  2  0
 26 27  1  0
 27 28  2  0
 13 29  1  0
 29 30  2  0
 30 31  1  0
  9 32  2  0
 32  5  1  0
 31 11  1  0
 21 16  1  0
 28 23  1  0
  1 33  1  0
  1 34  1  0
  6 35  1  0
  7 36  1  0
  8 37  1  0
 15 38  1  0
 15 39  1  0
 17 40  1  0
 18 41  1  0
 19 42  1  0
 20 43  1  0
 21 44  1  0
 22 45  1  0
 22 46  1  0
 24 47  1  0
 25 48  1  0
 26 49  1  0
 27 50  1  0
 28 51  1  0
 29 52  1  0
 30 53  1  0
 32 54  1  0
M  CHG  1  31  -1
M  END
>  <UniqueID>  (1) 
1

>  <SMILES>  (1) 
NS(=O)(=O)c1cccc(N=c2nc(N(Cc3ccccc3)Cc3ccccc3)cc[n-]2)c1

>  <Energy>  (1) 
65.85324684459309

>  <Genealogy>  (1) 
NS(=O)(=O)c1cccc(N=c2nc(N(Cc3ccccc3)Cc3ccccc3)cc[n-]2)c1 (protonated)
NS(=O)(=O)c1cccc(N=c2nc(N(Cc3ccccc3)Cc3ccccc3)cc[n-]2)c1 (3D coordinates assigned)
NS(=O)(=O)c1cccc(N=c2nc(N(Cc3ccccc3)Cc3ccccc3)cc[n-]2)c1 (optimized conformer: 65.85324684459309 kcal/mol)

>  <smiles>  (1) 
NS(=O)(=O)c1cccc(N=c2nc(N(Cc3ccccc3)Cc3ccccc3)cc[nH]2)c1

>  <score_type>  (1) 
oracle

>  <origin>  (1) 
adg

>  <m_score__min__energy>  (1) 
-11.390000000000001

>  <m_primary>  (1) 
energy

$$$$
1:0
     RDKit          3D

 31 32  0  0  0  0  0  0  0  0999 V2000
   56.8150   28.4170   45.2100 N   0  0  0  0  0  0  0  0  0  0  0  0
   56.4830   29.7610   44.8590 C   0  0  0  0  0  0  0  0  0  0  0  0
   55.3580   30.0000   44.3400 O   0  0  0  0  0  0  0  0  0  0  0  0
   57.4140   30.8810   45.1310 C   0  0  0  0  0  0  0  0  0  0  0  0
   57.1290   32.1480   44.5920 C   0  0  0  0  0  0  0  0  0  0  0  0
   57.9760   33.2320   44.8380 C   0  0  0  0  0  0  0  0  0  0  0  0
   59.1140   33.0640   45.6250 C   0  0  0  0  0  0  0  0  0  0  0  0
   59.4200   31.8080   46.1510 C   0  0  0  0  0  0  0  0  0  0  0  0
   58.5970   30.7020   45.8830 C   0  0  0  0  0  0  0  0  0  0  0  0
   58.9410   29.4070   46.3990 N   0  0  0  0  0  0  0  0  0  0  0  0
   59.6480   28.3760   45.6980 C   0  0  0  0  0  0  0  0  0  0  0  0
   59.8120   28.4970   44.4550 O   0  0  0  0  0  0  0  0  0  0  0  0
   60.3540   27.2650   46.4310 C   0  0  0  0  0  0  0  0  0  0  0  0
   59.3560   26.6260   47.8250 S   0  0  0  0  0  0  0  0  0  0  0  0
   58.1060   25.8740   46.7880 C   0  0  0  0  0  0  0  0  0  0  0  0
   58.4160   24.7590   46.0030 C   0  0  0  0  0  0  0  0  0  0  0  0
   57.4060   24.1990   45.2190 C   0  0  0  0  0  0  0  0  0  0  0  0
   57.6460   23.1890   44.5060 O   0  0  0  0  0  0  0  0  0  0  0  0
   56.1620   24.7430   45.2260 N   0  0  0  0  0  0  0  0  0  0  0  0
   55.8810   25.8320   45.9900 C   0  0  0  0  0  0  0  0  0  0  0  0
   54.7230   26.3230   45.9810 O   0  0  0  0  0  0  0  0  0  0  0  0
   56.8500   26.3900   46.7620 N   0  0  0  0  0  0  0  0  0  0  0  0
   56.1690   27.6360   44.9630 H   0  0  0  0  0  0  0  0  0  0  0  0
   57.6530   28.2030   45.7960 H   0  0  0  0  0  0  0  0  0  0  0  0
   56.2316   32.2872   43.9713 H   0  0  0  0  0  0  0  0  0  0  0  0
   57.7444   34.2186   44.4102 H   0  0  0  0  0  0  0  0  0  0  0  0
   59.7711   33.9216   45.8316 H   0  0  0  0  0  0  0  0  0  0  0  0
   60.3132   31.6833   46.7807 H   0  0  0  0  0  0  0  0  0  0  0  0
   60.5496   26.4426   45.7272 H   0  0  0  0  0  0  0  0  0  0  0  0
   61.2922   27.6683   46.8399 H   0  0  0  0  0  0  0  0  0  0  0  0
   59.4305   24.3338   46.0033 H   0  0  0  0  0  0  0  0  0  0  0  0
  1  2  1  0
  2  3  2  0
  2  4  1  0
  4  5  2  0
  5  6  1  0
  6  7  2  0
  7  8  1  0
  8  9  2  0
  9 10  1  0
 10 11  1  0
 11 12  2  0
 11 13  1  0
 13 14  1  0
 14 15  1  0
 15 16  2  0
 16 17  1  0
 17 18  2  0
 17 19  1  0
 19 20  1  0
 20 21  2  0
 20 22  1  0
  9  4  1  0
 22 15  1  0
  1 23  1  0
  1 24  1  0
  5 25  1  0
  6 26  1  0
  7 27  1  0
  8 28  1  0
 13 29  1  0
 13 30  1  0
 16 31  1  0
M  CHG  3  10  -1  19  -1  22  -1
M  END
>  <UniqueID>  (2) 
2

>  <SMILES>  (2) 
NC(=O)c1ccccc1[N-]C(=O)CSc1cc(=O)[n-]c(=O)[n-]1

>  <Energy>  (2) 
37.337748340590736

>  <Genealogy>  (2) 
NC(=O)c1ccccc1[N-]C(=O)CSc1cc(=O)[n-]c(=O)[n-]1 (protonated)
NC(=O)c1ccccc1[N-]C(=O)CSc1cc(=O)[n-]c(=O)[n-]1 (3D coordinates assigned)
NC(=O)c1ccccc1[N-]C(=O)CSc1cc(=O)[n-]c(=O)[n-]1 (optimized conformer: 37.337748340590736 kcal/mol)

>  <smiles>  (2) 
NC(=O)c1ccccc1NC(=O)CSc1cc(=O)[nH]c(=O)[nH]1

>  <score_type>  (2) 
oracle

>  <origin>  (2) 
adg

>  <m_score__min__energy>  (2) 
-12.279999999999999

>  <m_primary>  (2) 
energy

$$$$
2:0
     RDKit          3D

 55 58  0  0  0  0  0  0  0  0999 V2000
   57.4560   31.4930   43.2150 O   0  0  0  0  0  0  0  0  0  0  0  0
   57.5490   31.1530   44.4250 C   0  0  0  0  0  0  0  0  0  0  0  0
   57.4030   32.1040   45.4450 O   0  0  0  0  0  0  0  0  0  0  0  0
   58.2810   33.1660   45.7130 C   0  0  0  0  0  0  0  0  0  0  0  0
   58.4110   34.2610   44.8390 C   0  0  0  0  0  0  0  0  0  0  0  0
   59.2590   35.3240   45.1590 C   0  0  0  0  0  0  0  0  0  0  0  0
   59.9780   35.3110   46.3540 C   0  0  0  0  0  0  0  0  0  0  0  0
   59.8450   34.2390   47.2390 C   0  0  0  0  0  0  0  0  0  0  0  0
   58.9970   33.1650   46.9270 C   0  0  0  0  0  0  0  0  0  0  0  0
   58.8780   32.0330   47.8670 C   0  0  0  0  0  0  0  0  0  0  0  0
   58.1770   32.1740   48.9060 O   0  0  0  0  0  0  0  0  0  0  0  0
   59.5570   30.7830   47.6250 N   0  0  0  0  0  0  0  0  0  0  0  0
   58.9190   29.5260   48.0270 C   0  0  0  0  0  0  0  0  0  0  0  0
   59.6070   28.9820   49.2490 C   0  0  0  0  0  0  0  0  0  0  0  0
   60.4050   27.8260   49.1610 C   0  0  0  0  0  0  0  0  0  0  0  0
   61.0910   27.3590   50.2870 C   0  0  0  0  0  0  0  0  0  0  0  0
   60.9940   28.0440   51.5020 C   0  0  0  0  0  0  0  0  0  0  0  0
   60.2130   29.2000   51.5910 C   0  0  0  0  0  0  0  0  0  0  0  0
   59.5270   29.6750   50.4700 C   0  0  0  0  0  0  0  0  0  0  0  0
   60.8640   30.7590   46.9480 C   0  0  0  0  0  0  0  0  0  0  0  0
   61.8820   31.5390   47.7380 C   0  0  0  0  0  0  0  0  0  0  0  0
   62.1500   31.2130   49.0790 C   0  0  0  0  0  0  0  0  0  0  0  0
   63.1270   31.9140   49.7910 C   0  0  0  0  0  0  0  0  0  0  0  0
   63.8380   32.9480   49.1720 C   0  0  0  0  0  0  0  0  0  0  0  0
   63.5770   33.2780   47.8380 C   0  0  0  0  0  0  0  0  0  0  0  0
   62.6050   32.5760   47.1210 C   0  0  0  0  0  0  0  0  0  0  0  0
   57.8680   29.7560   44.7850 C   0  0  0  0  0  0  0  0  0  0  0  0
   59.1790   29.2670   44.6300 C   0  0  0  0  0  0  0  0  0  0  0  0
   59.4870   27.9470   44.9770 C   0  0  0  0  0  0  0  0  0  0  0  0
   58.4890   27.0990   45.4680 C   0  0  0  0  0  0  0  0  0  0  0  0
   58.8770   25.4420   45.8940 Cl  0  0  0  0  0  0  0  0  0  0  0  0
   57.1810   27.5730   45.6190 C   0  0  0  0  0  0  0  0  0  0  0  0
   56.8710   28.8950   45.2820 C   0  0  0  0  0  0  0  0  0  0  0  0
   57.8415   34.2801   43.8981 H   0  0  0  0  0  0  0  0  0  0  0  0
   59.3599   36.1731   44.4670 H   0  0  0  0  0  0  0  0  0  0  0  0
   60.6506   36.1461   46.5996 H   0  0  0  0  0  0  0  0  0  0  0  0
   60.4071   34.2363   48.1845 H   0  0  0  0  0  0  0  0  0  0  0  0
   57.8586   29.7096   48.2546 H   0  0  0  0  0  0  0  0  0  0  0  0
   58.9975   28.7968   47.2072 H   0  0  0  0  0  0  0  0  0  0  0  0
   60.4894   27.2887   48.2049 H   0  0  0  0  0  0  0  0  0  0  0  0
   61.7080   26.4511   50.2165 H   0  0  0  0  0  0  0  0  0  0  0  0
   61.5318   27.6736   52.3872 H   0  0  0  0  0  0  0  0  0  0  0  0
   60.1381   29.7380   52.5475 H   0  0  0  0  0  0  0  0  0  0  0  0
   58.9238   30.5920   50.5428 H   0  0  0  0  0  0  0  0  0  0  0  0
   61.2023   29.7168   46.8510 H   0  0  0  0  0  0  0  0  0  0  0  0
   60.7580   31.2175   45.9538 H   0  0  0  0  0  0  0  0  0  0  0  0
   61.5890   30.4037   49.5693 H   0  0  0  0  0  0  0  0  0  0  0  0
   63.3372   31.6528   50.8387 H   0  0  0  0  0  0  0  0  0  0  0  0
   64.6033   33.5022   49.7352 H   0  0  0  0  0  0  0  0  0  0  0  0
   64.1375   34.0909   47.3531 H   0  0  0  0  0  0  0  0  0  0  0  0
   62.4044   32.8349   46.0709 H   0  0  0  0  0  0  0  0  0  0  0  0
   59.9655   29.9262   44.2339 H   0  0  0  0  0  0  0  0  0  0  0  0
   60.5161   27.5754   44.8634 H   0  0  0  0  0  0  0  0  0  0  0  0
   56.3957   26.9054   46.0031 H   0  0  0  0  0  0  0  0  0  0  0  0
   55.8422   29.2639   45.4061 H   0  0  0  0  0  0  0  0  0  0  0  0
  1  2  2  0
  2  3  1  0
  3  4  1  0
  4  5  2  0
  5  6  1  0
  6  7  2  0
  7  8  1  0
  8  9  2  0
  9 10  1  0
 10 11  2  0
 10 12  1  0
 12 13  1  0
 13 14  1  0
 14 15  2  0
 15 16  1  0
 16 17  2  0
 17 18  1  0
 18 19  2  0
 12 20  1  0
 20 21  1  0
 21 22  2  0
 22 23  1  0
 23 24  2  0
 24 25  1  0
 25 26  2  0
  2 27  1  0
 27 28  2  0
 28 29  1  0
 29 30  2  0
 30 31  1  0
 30 32  1  0
 32 33  2  0
  9  4  1  0
 19 14  1  0
 26 21  1  0
 33 27  1  0
  5 34  1  0
  6 35  1  0
  7 36  1  0
  8 37  1  0
 13 38  1  0
 13 39  1  0
 15 40  1  0
 16 41  1  0
 17 42  1  0
 18 43  1  0
 19 44  1  0
 20 45  1  0
 20 46  1  0
 22 47  1  0
 23 48  1  0
 24 49  1  0
 25 50  1  0
 26 51  1  0
 28 52  1  0
 29 53  1  0
 32 54  1  0
 33 55  1  0
M  END
>  <UniqueID>  (3) 
3

>  <SMILES>  (3) 
O=C(Oc1ccccc1C(=O)N(Cc1ccccc1)Cc1ccccc1)c1ccc(Cl)cc1

>  <Energy>  (3) 
64.48735521068694

>  <Genealogy>  (3) 
O=C(Oc1ccccc1C(=O)N(Cc1ccccc1)Cc1ccccc1)c1ccc(Cl)cc1 (3D coordinates assigned)
O=C(Oc1ccccc1C(=O)N(Cc1ccccc1)Cc1ccccc1)c1ccc(Cl)cc1 (optimized conformer: 64.48735521068694 kcal/mol)

>  <smiles>  (3) 
O=C(Oc1ccccc1C(=O)N(Cc1ccccc1)Cc1ccccc1)c1ccc(Cl)cc1

>  <score_type>  (3) 
oracle

>  <origin>  (3) 
adg

>  <m_score__min__energy>  (3) 
-9.1500000000000004

>  <m_primary>  (3) 
energy

$$$$
3:0
     RDKit          3D

 48 50  0  0  0  0  0  0  0  0999 V2000
   61.4531   33.0036   52.7767 H   0  0  0  0  0  0  0  0  0  0  0  0
   61.0910   33.2470   51.7670 C   0  0  0  0  0  0  0  0  0  0  0  0
   61.9310   33.9020   50.8630 C   0  0  0  0  0  0  0  0  0  0  0  0
   62.9514   34.1811   51.1643 H   0  0  0  0  0  0  0  0  0  0  0  0
   61.4760   34.2030   49.5760 C   0  0  0  0  0  0  0  0  0  0  0  0
   62.1368   34.7296   48.8716 H   0  0  0  0  0  0  0  0  0  0  0  0
   60.1800   33.8370   49.1770 C   0  0  0  0  0  0  0  0  0  0  0  0
   59.7280   34.1780   47.8550 N   0  0  0  0  0  0  0  0  0  0  0  0
   58.7310   34.4680   47.7370 H   0  0  0  0  0  0  0  0  0  0  0  0
   60.5850   34.2410   46.7030 C   0  0  0  0  0  0  0  0  0  0  0  0
   61.8400   34.2280   46.8320 O   0  0  0  0  0  0  0  0  0  0  0  0
   59.9880   34.3140   45.3320 C   0  0  0  0  0  0  0  0  0  0  0  0
   60.7039   33.9124   44.5997 H   0  0  0  0  0  0  0  0  0  0  0  0
   59.7601   35.3625   45.0896 H   0  0  0  0  0  0  0  0  0  0  0  0
   58.7300   33.5120   45.2870 C   0  0  0  0  0  0  0  0  0  0  0  0
   57.5990   33.8570   45.9430 N   0  0  0  0  0  0  0  0  0  0  0  0
   56.5810   33.0340   45.7040 N   0  0  0  0  0  0  0  0  0  0  0  0
   56.8950   32.0450   44.8380 C   0  0  0  0  0  0  0  0  0  0  0  0
   56.0810   31.1030   44.4660 N   0  0  0  0  0  0  0  0  0  0  0  0
   56.1360   29.7200   44.8490 C   0  0  0  0  0  0  0  0  0  0  0  0
   55.1610   28.9810   44.5500 O   0  0  0  0  0  0  0  0  0  0  0  0
   57.2240   29.2010   45.6360 N   0  0  0  0  0  0  0  0  0  0  0  0
   57.9050   29.8700   46.0550 H   0  0  0  0  0  0  0  0  0  0  0  0
   57.3340   27.8210   46.0240 C   0  0  0  0  0  0  0  0  0  0  0  0
   56.5660   26.9520   45.5290 O   0  0  0  0  0  0  0  0  0  0  0  0
   58.3980   27.3860   46.9920 C   0  0  0  0  0  0  0  0  0  0  0  0
   58.0639   26.4685   47.4985 H   0  0  0  0  0  0  0  0  0  0  0  0
   59.3239   27.2119   46.4242 H   0  0  0  0  0  0  0  0  0  0  0  0
   58.6720   28.4110   48.0020 N   0  0  0  0  0  0  0  0  0  0  0  0
   59.5100   29.7790   47.3240 S   0  0  0  0  0  0  0  0  0  0  0  0
   58.5580   30.9360   47.2150 O   0  0  0  0  0  0  0  0  0  0  0  0
   60.0270   29.4550   45.9470 O   0  0  0  0  0  0  0  0  0  0  0  0
   60.8370   30.2350   48.3880 C   0  0  0  0  0  0  0  0  0  0  0  0
   60.8930   29.7060   49.6850 C   0  0  0  0  0  0  0  0  0  0  0  0
   60.0929   29.0398   50.0401 H   0  0  0  0  0  0  0  0  0  0  0  0
   61.9620   30.0220   50.5290 C   0  0  0  0  0  0  0  0  0  0  0  0
   62.0036   29.6030   51.5452 H   0  0  0  0  0  0  0  0  0  0  0  0
   62.9780   30.8710   50.0800 C   0  0  0  0  0  0  0  0  0  0  0  0
   63.8200   31.1188   50.7431 H   0  0  0  0  0  0  0  0  0  0  0  0
   62.9250   31.4050   48.7900 C   0  0  0  0  0  0  0  0  0  0  0  0
   63.7230   32.0765   48.4403 H   0  0  0  0  0  0  0  0  0  0  0  0
   61.8590   31.0870   47.9430 C   0  0  0  0  0  0  0  0  0  0  0  0
   61.8216   31.5054   46.9264 H   0  0  0  0  0  0  0  0  0  0  0  0
   58.4960   32.1390   44.3340 S   0  0  0  0  0  0  0  0  0  0  0  0
   59.3320   33.1990   50.1010 C   0  0  0  0  0  0  0  0  0  0  0  0
   58.3049   32.9336   49.8100 H   0  0  0  0  0  0  0  0  0  0  0  0
   59.7910   32.9010   51.3890 C   0  0  0  0  0  0  0  0  0  0  0  0
   59.1275   32.3937   52.1048 H   0  0  0  0  0  0  0  0  0  0  0  0
  1  2  1  0
  2  3  2  0
  3  4  1  0
  3  5  1  0
  5  6  1  0
  5  7  2  0
  7  8  1  0
  8  9  1  0
  8 10  1  0
 10 11  2  0
 10 12  1  0
 12 13  1  0
 12 14  1  0
 12 15  1  0
 15 16  2  0
 16 17  1  0
 17 18  1  0
 18 19  2  0
 19 20  1  0
 20 21  2  0
 20 22  1  0
 22 23  1  0
 22 24  1  0
 24 25  2  0
 24 26  1  0
 26 27  1  0
 26 28  1  0
 26 29  1  0
 29 30  1  0
 30 31  2  0
 30 32  2  0
 30 33  1  0
 33 34  2  0
 34 35  1  0
 34 36  1  0
 36 37  1  0
 36 38  2  0
 38 39  1  0
 38 40  1  0
 40 41  1  0
 40 42  2  0
 42 43  1  0
 18 44  1  0
  7 45  1  0
 45 46  1  0
 45 47  2  0
 47 48  1  0
 47  2  1  0
 44 15  1  0
 42 33  1  0
M  CHG  2  17  -1  29  -1
M  END
>  <UniqueID>  (4) 
4

>  <SMILES>  (4) 
O=C(C[N-]S(=O)(=O)c1ccccc1)NC(=O)/N=c1\[n-]nc(CC(=O)Nc2ccccc2)s1

>  <Energy>  (4) 
85.28487241841711

>  <Genealogy>  (4) 
O=C(C[N-]S(=O)(=O)c1ccccc1)NC(=O)N=c1[n-]nc(CC(=O)Nc2ccccc2)s1 (protonated)
O=C(C[N-]S(=O)(=O)c1ccccc1)NC(=O)/N=c1\[n-]nc(CC(=O)Nc2ccccc2)s1 (cis-trans isomerization)
O=C(C[N-]S(=O)(=O)c1ccccc1)NC(=O)/N=c1\[n-]nc(CC(=O)Nc2ccccc2)s1 (3D coordinates assigned)
O=C(C[N-]S(=O)(=O)c1ccccc1)NC(=O)/N=c1\[n-]nc(CC(=O)Nc2ccccc2)s1 (optimized conformer: 85.28487241841711 kcal/mol)

>  <smiles>  (4) 
O=C(CNS(=O)(=O)c1ccccc1)NC(=O)N=c1[nH]nc(CC(=O)Nc2ccccc2)s1

>  <score_type>  (4) 
oracle

>  <origin>  (4) 
adg

>  <m_score__min__energy>  (4) 
-12.42

>  <m_primary>  (4) 
energy

$$$$
4:0
     RDKit          3D

 57 60  0  0  0  0  0  0  0  0999 V2000
   59.9970   26.5790   46.3290 C   0  0  0  0  0  0  0  0  0  0  0  0
   58.6770   25.9780   45.9610 C   0  0  0  0  0  0  0  0  0  0  0  0
   58.6530   24.7480   45.4580 O   0  0  0  0  0  0  0  0  0  0  0  0
   57.5350   24.1320   45.0820 C   0  0  0  0  0  0  0  0  0  0  0  0
   57.5940   22.8420   44.5110 C   0  0  0  0  0  0  0  0  0  0  0  0
   58.9200   22.1540   44.3070 C   0  0  0  0  0  0  0  0  0  0  0  0
   56.3950   22.2050   44.1160 C   0  0  0  0  0  0  0  0  0  0  0  0
   56.3880   20.9350   43.5350 O   0  0  0  0  0  0  0  0  0  0  0  0
   55.1680   22.8500   44.3000 C   0  0  0  0  0  0  0  0  0  0  0  0
   55.1090   24.1250   44.8630 C   0  0  0  0  0  0  0  0  0  0  0  0
   56.2890   24.7780   45.2530 C   0  0  0  0  0  0  0  0  0  0  0  0
   56.2720   26.0750   45.7930 C   0  0  0  0  0  0  0  0  0  0  0  0
   55.1770   26.6710   45.9970 O   0  0  0  0  0  0  0  0  0  0  0  0
   57.4880   26.7080   46.1040 C   0  0  0  0  0  0  0  0  0  0  0  0
   57.5360   28.0700   46.5600 N   0  0  0  0  0  0  0  0  0  0  0  0
   57.2230   29.2470   45.7950 C   0  0  0  0  0  0  0  0  0  0  0  0
   56.1170   29.2870   45.1930 O   0  0  0  0  0  0  0  0  0  0  0  0
   58.1290   30.4270   45.7350 C   0  0  0  0  0  0  0  0  0  0  0  0
   57.5720   31.7360   45.2080 C   0  0  0  0  0  0  0  0  0  0  0  0
   58.3800   32.9040   45.7140 C   0  0  0  0  0  0  0  0  0  0  0  0
   58.6930   33.9730   44.8570 C   0  0  0  0  0  0  0  0  0  0  0  0
   59.4260   35.0630   45.3280 C   0  0  0  0  0  0  0  0  0  0  0  0
   59.8490   35.1050   46.6580 C   0  0  0  0  0  0  0  0  0  0  0  0
   59.5500   34.0470   47.5340 C   0  0  0  0  0  0  0  0  0  0  0  0
   59.9910   34.0810   48.9030 N   0  0  0  0  0  0  0  0  0  0  0  0
   59.2610   33.6480   49.8190 O   0  0  0  0  0  0  0  0  0  0  0  0
   61.2360   34.5730   49.2250 O   0  0  0  0  0  0  0  0  0  0  0  0
   58.8170   32.9480   47.0510 C   0  0  0  0  0  0  0  0  0  0  0  0
   59.3430   30.2920   46.1960 N   0  0  0  0  0  0  0  0  0  0  0  0
   59.8550   30.0190   47.5140 C   0  0  0  0  0  0  0  0  0  0  0  0
   59.2780   29.2130   48.2910 O   0  0  0  0  0  0  0  0  0  0  0  0
   61.0540   30.7460   47.9790 C   0  0  0  0  0  0  0  0  0  0  0  0
   61.3980   30.7620   49.3430 C   0  0  0  0  0  0  0  0  0  0  0  0
   62.5080   31.4900   49.7830 C   0  0  0  0  0  0  0  0  0  0  0  0
   63.2880   32.2050   48.8680 C   0  0  0  0  0  0  0  0  0  0  0  0
   62.9650   32.1810   47.5090 C   0  0  0  0  0  0  0  0  0  0  0  0
   61.8520   31.4600   47.0670 C   0  0  0  0  0  0  0  0  0  0  0  0
   60.0883   26.6206   47.4244 H   0  0  0  0  0  0  0  0  0  0  0  0
   60.8087   25.9617   45.9166 H   0  0  0  0  0  0  0  0  0  0  0  0
   60.0644   27.5965   45.9166 H   0  0  0  0  0  0  0  0  0  0  0  0
   59.3670   21.9221   45.2849 H   0  0  0  0  0  0  0  0  0  0  0  0
   58.7666   21.2218   43.7436 H   0  0  0  0  0  0  0  0  0  0  0  0
   59.5938   22.8162   43.7436 H   0  0  0  0  0  0  0  0  0  0  0  0
   57.1220   20.2540   43.6790 H   0  0  0  0  0  0  0  0  0  0  0  0
   54.2383   22.3460   43.9972 H   0  0  0  0  0  0  0  0  0  0  0  0
   54.1363   24.6195   45.0016 H   0  0  0  0  0  0  0  0  0  0  0  0
   57.6038   31.7248   44.1085 H   0  0  0  0  0  0  0  0  0  0  0  0
   56.5356   31.8453   45.5600 H   0  0  0  0  0  0  0  0  0  0  0  0
   58.3584   33.9503   43.8094 H   0  0  0  0  0  0  0  0  0  0  0  0
   59.6716   35.8926   44.6487 H   0  0  0  0  0  0  0  0  0  0  0  0
   60.4199   35.9716   47.0227 H   0  0  0  0  0  0  0  0  0  0  0  0
   58.5824   32.1124   47.7268 H   0  0  0  0  0  0  0  0  0  0  0  0
   60.7908   30.1990   50.0671 H   0  0  0  0  0  0  0  0  0  0  0  0
   62.7685   31.5004   50.8517 H   0  0  0  0  0  0  0  0  0  0  0  0
   64.1544   32.7853   49.2180 H   0  0  0  0  0  0  0  0  0  0  0  0
   63.5869   32.7298   46.7864 H   0  0  0  0  0  0  0  0  0  0  0  0
   61.5981   31.4509   45.9968 H   0  0  0  0  0  0  0  0  0  0  0  0
  1  2  1  0
  2  3  1  0
  3  4  1  0
  4  5  2  0
  5  6  1  0
  5  7  1  0
  7  8  1  0
  7  9  2  0
  9 10  1  0
 10 11  2  0
 11 12  1  0
 12 13  2  0
 12 14  1  0
 14 15  1  0
 15 16  1  0
 16 17  2  0
 16 18  1  0
 18 19  1  0
 19 20  1  0
 20 21  2  0
 21 22  1  0
 22 23  2  0
 23 24  1  0
 24 25  1  0
 25 26  2  0
 25 27  1  0
 24 28  2  0
 18 29  2  3
 29 30  1  0
 30 31  2  0
 30 32  1  0
 32 33  2  0
 33 34  1  0
 34 35  2  0
 35 36  1  0
 36 37  2  0
 14  2  2  0
 28 20  1  0
 37 32  1  0
 11  4  1  0
  1 38  1  0
  1 39  1  0
  1 40  1  0
  6 41  1  0
  6 42  1  0
  6 43  1  0
  8 44  1  0
  9 45  1  0
 10 46  1  0
 19 47  1  0
 19 48  1  0
 21 49  1  0
 22 50  1  0
 23 51  1  0
 28 52  1  0
 33 53  1  0
 34 54  1  0
 35 55  1  0
 36 56  1  0
 37 57  1  0
M  CHG  3  15  -1  25   1  27  -1
M  END
>  <UniqueID>  (5) 
5

>  <SMILES>  (5) 
Cc1oc2c(C)c(O)ccc2c(=O)c1[N-]C(=O)C(Cc1cccc([N+](=O)[O-])c1)=NC(=O)c1ccccc1

>  <Energy>  (5) 
78.6006875607145

>  <Genealogy>  (5) 
Cc1oc2c(C)c(O)ccc2c(=O)c1[N-]C(=O)C(Cc1cccc([N+](=O)[O-])c1)=NC(=O)c1ccccc1 (protonated)
Cc1oc2c(C)c(O)ccc2c(=O)c1[N-]C(=O)C(Cc1cccc([N+](=O)[O-])c1)=NC(=O)c1ccccc1 (3D coordinates assigned)
Cc1oc2c(C)c(O)ccc2c(=O)c1[N-]C(=O)C(Cc1cccc([N+](=O)[O-])c1)=NC(=O)c1ccccc1 (optimized conformer: 78.6006875607145 kcal/mol)

>  <smiles>  (5) 
Cc1oc2c(C)c(O)ccc2c(=O)c1NC(=O)C(Cc1cccc([N+](=O)[O-])c1)=NC(=O)c1ccccc1

>  <score_type>  (5) 
oracle

>  <origin>  (5) 
adg

>  <m_score__min__energy>  (5) 
-12.9

>  <m_primary>  (5) 
energy

$$$$
5:0
     RDKit          3D

 35 36  0  0  0  0  0  0  0  0999 V2000
   57.0170   31.2820   42.3520 C   0  0  0  0  0  0  0  0  0  0  0  0
   57.0630   31.0550   43.6690 C   0  0  0  0  0  0  0  0  0  0  0  0
   56.4920   29.8170   44.2480 C   0  0  0  0  0  0  0  0  0  0  0  0
   57.1330   28.7320   44.2150 O   0  0  0  0  0  0  0  0  0  0  0  0
   55.2360   29.8410   44.8440 O   0  0  0  0  0  0  0  0  0  0  0  0
   57.7210   32.0430   44.5580 C   0  0  0  0  0  0  0  0  0  0  0  0
   57.9840   33.3300   44.0590 C   0  0  0  0  0  0  0  0  0  0  0  0
   58.6420   34.2750   44.8460 C   0  0  0  0  0  0  0  0  0  0  0  0
   59.0430   33.9480   46.1400 C   0  0  0  0  0  0  0  0  0  0  0  0
   58.7810   32.6780   46.6550 C   0  0  0  0  0  0  0  0  0  0  0  0
   58.1160   31.7090   45.8780 C   0  0  0  0  0  0  0  0  0  0  0  0
   57.7910   30.4200   46.4340 N   0  0  0  0  0  0  0  0  0  0  0  0
   58.9500   29.3930   47.2170 S   0  0  0  0  0  0  0  0  0  0  0  0
   60.3330   29.7940   46.7870 O   0  0  0  0  0  0  0  0  0  0  0  0
   58.8340   29.5690   48.7060 O   0  0  0  0  0  0  0  0  0  0  0  0
   58.6720   27.7130   46.7720 C   0  0  0  0  0  0  0  0  0  0  0  0
   59.7550   26.8870   46.4470 C   0  0  0  0  0  0  0  0  0  0  0  0
   59.5370   25.5550   46.0870 C   0  0  0  0  0  0  0  0  0  0  0  0
   58.2390   25.0400   46.0530 C   0  0  0  0  0  0  0  0  0  0  0  0
   57.1410   25.8540   46.3820 C   0  0  0  0  0  0  0  0  0  0  0  0
   55.8040   25.3210   46.3490 N   0  0  0  0  0  0  0  0  0  0  0  0
   55.5760   24.1470   46.7110 O   0  0  0  0  0  0  0  0  0  0  0  0
   54.7520   26.0960   45.9170 O   0  0  0  0  0  0  0  0  0  0  0  0
   57.3700   27.1960   46.7440 C   0  0  0  0  0  0  0  0  0  0  0  0
   57.4457   32.2065   41.9379 H   0  0  0  0  0  0  0  0  0  0  0  0
   56.5505   30.5442   41.6827 H   0  0  0  0  0  0  0  0  0  0  0  0
   57.6683   33.5944   43.0390 H   0  0  0  0  0  0  0  0  0  0  0  0
   58.8446   35.2791   44.4450 H   0  0  0  0  0  0  0  0  0  0  0  0
   59.5673   34.6928   46.7568 H   0  0  0  0  0  0  0  0  0  0  0  0
   59.0972   32.4306   47.6791 H   0  0  0  0  0  0  0  0  0  0  0  0
   56.8230   30.0430   46.3410 H   0  0  0  0  0  0  0  0  0  0  0  0
   60.7791   27.2877   46.4752 H   0  0  0  0  0  0  0  0  0  0  0  0
   60.3899   24.9098   45.8296 H   0  0  0  0  0  0  0  0  0  0  0  0
   58.0749   23.9906   45.7669 H   0  0  0  0  0  0  0  0  0  0  0  0
   56.5201   27.8430   47.0067 H   0  0  0  0  0  0  0  0  0  0  0  0
  1  2  2  0
  2  3  1  0
  3  4  2  0
  3  5  1  0
  2  6  1  0
  6  7  2  0
  7  8  1  0
  8  9  2  0
  9 10  1  0
 10 11  2  0
 11 12  1  0
 12 13  1  0
 13 14  2  0
 13 15  2  0
 13 16  1  0
 16 17  2  0
 17 18  1  0
 18 19  2  0
 19 20  1  0
 20 21  1  0
 21 22  2  0
 21 23  1  0
 20 24  2  0
 11  6  1  0
 24 16  1  0
  1 25  1  0
  1 26  1  0
  7 27  1  0
  8 28  1  0
  9 29  1  0
 10 30  1  0
 12 31  1  0
 17 32  1  0
 18 33  1  0
 19 34  1  0
 24 35  1  0
M  CHG  3   5  -1  21   1  23  -1
M  END
>  <UniqueID>  (6) 
6

>  <SMILES>  (6) 
C=C(C(=O)[O-])c1ccccc1NS(=O)(=O)c1cccc([N+](=O)[O-])c1

>  <Energy>  (6) 
47.042028683437195

>  <Genealogy>  (6) 
C=C(C(=O)[O-])c1ccccc1NS(=O)(=O)c1cccc([N+](=O)[O-])c1 (protonated)
C=C(C(=O)[O-])c1ccccc1NS(=O)(=O)c1cccc([N+](=O)[O-])c1 (3D coordinates assigned)
C=C(C(=O)[O-])c1ccccc1NS(=O)(=O)c1cccc([N+](=O)[O-])c1 (optimized conformer: 47.042028683437195 kcal/mol)

>  <smiles>  (6) 
C=C(C(=O)O)c1ccccc1NS(=O)(=O)c1cccc([N+](=O)[O-])c1

>  <score_type>  (6) 
oracle

>  <origin>  (6) 
adg

>  <m_score__min__energy>  (6) 
-11.93

>  <m_primary>  (6) 
energy

$$$$
6:0
     RDKit          3D

 61 65  0  0  0  0  0  0  0  0999 V2000
   52.5316   31.6745   53.3604 H   0  0  0  0  0  0  0  0  0  0  0  0
   52.9610   31.1810   52.4760 C   0  0  0  0  0  0  0  0  0  0  0  0
   52.2300   31.3190   51.2070 C   0  0  0  0  0  0  0  0  0  0  0  0
   52.2120   30.3720   50.2520 N   0  0  0  0  0  0  0  0  0  0  0  0
   51.3300   30.8560   49.3500 C   0  0  0  0  0  0  0  0  0  0  0  0
   51.0500   30.2490   48.2830 O   0  0  0  0  0  0  0  0  0  0  0  0
   50.7640   32.0370   49.6860 N   0  0  0  0  0  0  0  0  0  0  0  0
   51.3330   32.3090   50.8710 C   0  0  0  0  0  0  0  0  0  0  0  0
   51.0250   33.4270   51.6380 O   0  0  0  0  0  0  0  0  0  0  0  0
   54.1110   30.5020   52.6470 C   0  0  0  0  0  0  0  0  0  0  0  0
   55.3530   31.1180   52.6630 C   0  0  0  0  0  0  0  0  0  0  0  0
   55.5528   32.1968   52.5836 H   0  0  0  0  0  0  0  0  0  0  0  0
   56.2900   30.1130   52.7980 C   0  0  0  0  0  0  0  0  0  0  0  0
   57.7730   30.3130   52.9050 C   0  0  0  0  0  0  0  0  0  0  0  0
   58.0201   30.6008   53.9375 H   0  0  0  0  0  0  0  0  0  0  0  0
   58.2665   29.3693   52.6293 H   0  0  0  0  0  0  0  0  0  0  0  0
   58.2610   31.3890   51.9680 C   0  0  0  0  0  0  0  0  0  0  0  0
   57.6240   32.4760   51.8900 O   0  0  0  0  0  0  0  0  0  0  0  0
   59.4120   31.1740   51.1220 N   0  0  0  0  0  0  0  0  0  0  0  0
   60.0740   32.3130   50.4760 C   0  0  0  0  0  0  0  0  0  0  0  0
   59.7922   33.2423   50.9928 H   0  0  0  0  0  0  0  0  0  0  0  0
   61.1648   32.1809   50.5280 H   0  0  0  0  0  0  0  0  0  0  0  0
   59.6440   32.3910   49.0280 C   0  0  0  0  0  0  0  0  0  0  0  0
   59.6170   33.5600   48.3510 C   0  0  0  0  0  0  0  0  0  0  0  0
   60.0998   34.4309   48.8183 H   0  0  0  0  0  0  0  0  0  0  0  0
   58.9870   33.7540   47.0300 C   0  0  0  0  0  0  0  0  0  0  0  0
   59.7710   34.1970   45.9530 C   0  0  0  0  0  0  0  0  0  0  0  0
   60.8489   34.3656   46.0935 H   0  0  0  0  0  0  0  0  0  0  0  0
   59.1880   34.4250   44.7020 C   0  0  0  0  0  0  0  0  0  0  0  0
   59.8104   34.7564   43.8578 H   0  0  0  0  0  0  0  0  0  0  0  0
   57.8150   34.2320   44.5240 C   0  0  0  0  0  0  0  0  0  0  0  0
   57.3586   34.4053   43.5382 H   0  0  0  0  0  0  0  0  0  0  0  0
   57.0220   33.8190   45.5980 C   0  0  0  0  0  0  0  0  0  0  0  0
   55.9403   33.6753   45.4588 H   0  0  0  0  0  0  0  0  0  0  0  0
   57.6020   33.5880   46.8500 C   0  0  0  0  0  0  0  0  0  0  0  0
   56.9728   33.2755   47.6964 H   0  0  0  0  0  0  0  0  0  0  0  0
   59.2640   31.1220   48.3450 C   0  0  0  0  0  0  0  0  0  0  0  0
   58.9180   31.1400   47.1300 O   0  0  0  0  0  0  0  0  0  0  0  0
   59.2810   29.8300   49.0920 C   0  0  0  0  0  0  0  0  0  0  0  0
   59.0580   28.6710   48.4380 C   0  0  0  0  0  0  0  0  0  0  0  0
   58.8727   27.7681   49.0384 H   0  0  0  0  0  0  0  0  0  0  0  0
   59.0470   28.5380   46.9700 C   0  0  0  0  0  0  0  0  0  0  0  0
   57.8400   28.2780   46.3050 C   0  0  0  0  0  0  0  0  0  0  0  0
   56.9040   28.2006   46.8776 H   0  0  0  0  0  0  0  0  0  0  0  0
   57.8230   28.1170   44.9170 C   0  0  0  0  0  0  0  0  0  0  0  0
   56.8718   27.9287   44.3976 H   0  0  0  0  0  0  0  0  0  0  0  0
   59.0140   28.1950   44.1870 C   0  0  0  0  0  0  0  0  0  0  0  0
   58.9983   28.0737   43.0938 H   0  0  0  0  0  0  0  0  0  0  0  0
   60.2230   28.4270   44.8470 C   0  0  0  0  0  0  0  0  0  0  0  0
   61.1599   28.4831   44.2734 H   0  0  0  0  0  0  0  0  0  0  0  0
   60.2440   28.5880   46.2360 C   0  0  0  0  0  0  0  0  0  0  0  0
   61.1996   28.7541   46.7549 H   0  0  0  0  0  0  0  0  0  0  0  0
   59.7000   29.8550   50.5480 C   0  0  0  0  0  0  0  0  0  0  0  0
   59.1429   29.0853   51.1022 H   0  0  0  0  0  0  0  0  0  0  0  0
   60.7790   29.6535   50.6204 H   0  0  0  0  0  0  0  0  0  0  0  0
   55.6850   28.9160   52.9080 N   0  0  0  0  0  0  0  0  0  0  0  0
   56.1610   28.0000   53.0740 H   0  0  0  0  0  0  0  0  0  0  0  0
   54.3560   29.1340   52.8400 C   0  0  0  0  0  0  0  0  0  0  0  0
   53.4690   28.1580   53.0600 C   0  0  0  0  0  0  0  0  0  0  0  0
   52.3914   28.3696   52.9966 H   0  0  0  0  0  0  0  0  0  0  0  0
   53.8169   27.1435   53.3044 H   0  0  0  0  0  0  0  0  0  0  0  0
  1  2  1  0
  2  3  1  0
  3  4  1  0
  4  5  1  0
  5  6  2  0
  5  7  1  0
  7  8  1  0
  8  9  1  0
  2 10  2  3
 10 11  1  0
 11 12  1  0
 11 13  2  0
 13 14  1  0
 14 15  1  0
 14 16  1  0
 14 17  1  0
 17 18  2  0
 17 19  1  0
 19 20  1  0
 20 21  1  0
 20 22  1  0
 20 23  1  0
 23 24  2  0
 24 25  1  0
 24 26  1  0
 26 27  2  0
 27 28  1  0
 27 29  1  0
 29 30  1  0
 29 31  2  0
 31 32  1  0
 31 33  1  0
 33 34  1  0
 33 35  2  0
 35 36  1  0
 23 37  1  0
 37 38  2  0
 37 39  1  0
 39 40  2  0
 40 41  1  0
 40 42  1  0
 42 43  2  0
 43 44  1  0
 43 45  1  0
 45 46  1  0
 45 47  2  0
 47 48  1  0
 47 49  1  0
 49 50  1  0
 49 51  2  0
 51 52  1  0
 39 53  1  0
 53 54  1  0
 53 55  1  0
 13 56  1  0
 56 57  1  0
 56 58  1  0
 58 59  2  0
 59 60  1  0
 59 61  1  0
  8  3  2  0
 58 10  1  0
 53 19  1  0
 35 26  1  0
 51 42  1  0
M  CHG  3   4  -1   7  -1   9  -1
M  END
>  <UniqueID>  (7) 
7

>  <SMILES>  (7) 
C=c1[nH]c(CC(=O)N2C/C(=C\c3ccccc3)C(=O)/C(=C/c3ccccc3)C2)cc1=Cc1[n-]c(=O)[n-]c1[O-]

>  <Energy>  (7) 
153.38836209108362

>  <Genealogy>  (7) 
C=c1[nH]c(CC(=O)N2CC(=Cc3ccccc3)C(=O)C(=Cc3ccccc3)C2)cc1=Cc1[n-]c(=O)[n-]c1[O-] (protonated)
C=c1[nH]c(CC(=O)N2C/C(=C\c3ccccc3)C(=O)/C(=C/c3ccccc3)C2)cc1=Cc1[n-]c(=O)[n-]c1[O-] (cis-trans isomerization)
C=c1[nH]c(CC(=O)N2C/C(=C\c3ccccc3)C(=O)/C(=C/c3ccccc3)C2)cc1=Cc1[n-]c(=O)[n-]c1[O-] (3D coordinates assigned)
C=c1[nH]c(CC(=O)N2C/C(=C\c3ccccc3)C(=O)/C(=C/c3ccccc3)C2)cc1=Cc1[n-]c(=O)[n-]c1[O-] (nonaromatic ring conformer: 153.38836209108362 kcal/mol)

>  <smiles>  (7) 
C=c1[nH]c(CC(=O)N2CC(=Cc3ccccc3)C(=O)C(=Cc3ccccc3)C2)cc1=Cc1[nH]c(=O)[nH]c1O

>  <score_type>  (7) 
oracle

>  <origin>  (7) 
adg

>  <m_score__min__energy>  (7) 
-20.77

>  <m_primary>  (7) 
energy

$$$$
7:0
     RDKit          3D

 66 70  0  0  0  0  0  0  0  0999 V2000
   51.8150   30.0940   49.7820 N   0  0  0  0  0  0  0  0  0  0  0  0
   52.2030   30.8360   51.2940 S   0  0  0  0  0  0  0  0  0  0  0  0
   50.9410   31.0980   52.0660 O   0  0  0  0  0  0  0  0  0  0  0  0
   52.8940   32.1460   51.0400 O   0  0  0  0  0  0  0  0  0  0  0  0
   53.2490   29.7680   52.2250 C   0  0  0  0  0  0  0  0  0  0  0  0
   52.7440   28.5900   52.7930 C   0  0  0  0  0  0  0  0  0  0  0  0
   53.5790   27.7600   53.5430 C   0  0  0  0  0  0  0  0  0  0  0  0
   54.9180   28.1030   53.7410 C   0  0  0  0  0  0  0  0  0  0  0  0
   55.4330   29.2910   53.1960 C   0  0  0  0  0  0  0  0  0  0  0  0
   56.8470   29.6640   53.4100 C   0  0  0  0  0  0  0  0  0  0  0  0
   57.6660   28.7790   53.7790 O   0  0  0  0  0  0  0  0  0  0  0  0
   57.3090   31.0080   53.1740 N   0  0  0  0  0  0  0  0  0  0  0  0
   56.8540   31.7300   51.9730 C   0  0  0  0  0  0  0  0  0  0  0  0
   57.7160   32.9670   51.7020 C   0  0  0  0  0  0  0  0  0  0  0  0
   59.1360   32.6360   51.8870 N   0  0  0  0  0  0  0  0  0  0  0  0
   60.1240   33.0020   50.9040 C   0  0  0  0  0  0  0  0  0  0  0  0
   61.3100   33.2290   51.2660 O   0  0  0  0  0  0  0  0  0  0  0  0
   59.7870   33.0370   49.4640 C   0  0  0  0  0  0  0  0  0  0  0  0
   59.5730   34.2890   48.8660 C   0  0  0  0  0  0  0  0  0  0  0  0
   59.3180   34.3910   47.4990 C   0  0  0  0  0  0  0  0  0  0  0  0
   59.3100   33.2450   46.6970 C   0  0  0  0  0  0  0  0  0  0  0  0
   59.0630   33.3680   45.2480 C   0  0  0  0  0  0  0  0  0  0  0  0
   59.6450   34.2850   44.6090 O   0  0  0  0  0  0  0  0  0  0  0  0
   58.1960   32.4530   44.5500 N   0  0  0  0  0  0  0  0  0  0  0  0
   57.8830   31.1140   45.0240 C   0  0  0  0  0  0  0  0  0  0  0  0
   57.0360   30.4770   43.9320 C   0  0  0  0  0  0  0  0  0  0  0  0
   57.2550   31.3270   42.6840 C   0  0  0  0  0  0  0  0  0  0  0  0
   57.7660   32.6740   43.1800 C   0  0  0  0  0  0  0  0  0  0  0  0
   59.5070   31.9880   47.2860 C   0  0  0  0  0  0  0  0  0  0  0  0
   59.7140   31.8640   48.6740 C   0  0  0  0  0  0  0  0  0  0  0  0
   60.0030   30.5030   49.2690 C   0  0  0  0  0  0  0  0  0  0  0  0
   59.2770   29.3100   48.6510 C   0  0  0  0  0  0  0  0  0  0  0  0
   58.8220   29.8610   49.9870 C   0  0  0  0  0  0  0  0  0  0  0  0
   59.5710   31.9660   53.1210 C   0  0  0  0  0  0  0  0  0  0  0  0
   58.3790   31.5780   54.0040 C   0  0  0  0  0  0  0  0  0  0  0  0
   54.5940   30.1120   52.4240 C   0  0  0  0  0  0  0  0  0  0  0  0
   52.0480   29.0790   49.8690 H   0  0  0  0  0  0  0  0  0  0  0  0
   52.4690   30.4930   49.0700 H   0  0  0  0  0  0  0  0  0  0  0  0
   51.6878   28.3192   52.6474 H   0  0  0  0  0  0  0  0  0  0  0  0
   53.1807   26.8323   53.9797 H   0  0  0  0  0  0  0  0  0  0  0  0
   55.5724   27.4402   54.3262 H   0  0  0  0  0  0  0  0  0  0  0  0
   56.9141   31.0555   51.1062 H   0  0  0  0  0  0  0  0  0  0  0  0
   55.8183   32.0607   52.1405 H   0  0  0  0  0  0  0  0  0  0  0  0
   57.5521   33.3068   50.6687 H   0  0  0  0  0  0  0  0  0  0  0  0
   57.4353   33.7656   52.4044 H   0  0  0  0  0  0  0  0  0  0  0  0
   59.6069   35.1993   49.4825 H   0  0  0  0  0  0  0  0  0  0  0  0
   59.1225   35.3759   47.0498 H   0  0  0  0  0  0  0  0  0  0  0  0
   58.8064   30.5366   45.1789 H   0  0  0  0  0  0  0  0  0  0  0  0
   57.3518   31.1385   45.9869 H   0  0  0  0  0  0  0  0  0  0  0  0
   57.3601   29.4415   43.7514 H   0  0  0  0  0  0  0  0  0  0  0  0
   55.9735   30.4404   44.2145 H   0  0  0  0  0  0  0  0  0  0  0  0
   57.9986   30.8548   42.0252 H   0  0  0  0  0  0  0  0  0  0  0  0
   56.3279   31.4363   42.1022 H   0  0  0  0  0  0  0  0  0  0  0  0
   58.6110   33.0140   42.5633 H   0  0  0  0  0  0  0  0  0  0  0  0
   56.9884   33.4497   43.1194 H   0  0  0  0  0  0  0  0  0  0  0  0
   59.4998   31.0864   46.6558 H   0  0  0  0  0  0  0  0  0  0  0  0
   61.0539   30.7240   49.5072 H   0  0  0  0  0  0  0  0  0  0  0  0
   58.6517   29.4501   47.7569 H   0  0  0  0  0  0  0  0  0  0  0  0
   59.5832   28.3199   48.2824 H   0  0  0  0  0  0  0  0  0  0  0  0
   57.8660   30.3999   50.0618 H   0  0  0  0  0  0  0  0  0  0  0  0
   58.6614   29.4344   50.9881 H   0  0  0  0  0  0  0  0  0  0  0  0
   60.1293   31.0562   52.8553 H   0  0  0  0  0  0  0  0  0  0  0  0
   60.2045   32.6651   53.6866 H   0  0  0  0  0  0  0  0  0  0  0  0
   58.7016   30.8329   54.7461 H   0  0  0  0  0  0  0  0  0  0  0  0
   58.0013   32.4740   54.5182 H   0  0  0  0  0  0  0  0  0  0  0  0
   54.9950   31.0314   51.9723 H   0  0  0  0  0  0  0  0  0  0  0  0
  1  2  1  0
  2  3  2  0
  2  4  2  0
  2  5  1  0
  5  6  2  0
  6  7  1  0
  7  8  2  0
  8  9  1  0
  9 10  1  0
 10 11  2  0
 10 12  1  0
 12 13  1  0
 13 14  1  0
 14 15  1  0
 15 16  1  0
 16 17  2  0
 16 18  1  0
 18 19  2  0
 19 20  1  0
 20 21  2  0
 21 22  1  0
 22 23  2  0
 22 24  1  0
 24 25  1  0
 25 26  1  0
 26 27  1  0
 27 28  1  0
 21 29  1  0
 29 30  2  0
 30 31  1  0
 31 32  1  0
 32 33  1  0
 15 34  1  0
 34 35  1  0
  9 36  2  0
 36  5  1  0
 35 12  1  0
 30 18  1  0
 33 31  1  0
 28 24  1  0
  1 37  1  0
  1 38  1  0
  6 39  1  0
  7 40  1  0
  8 41  1  0
 13 42  1  0
 13 43  1  0
 14 44  1  0
 14 45  1  0
 19 46  1  0
 20 47  1  0
 25 48  1  0
 25 49  1  0
 26 50  1  0
 26 51  1  0
 27 52  1  0
 27 53  1  0
 28 54  1  0
 28 55  1  0
 29 56  1  0
 31 57  1  0
 32 58  1  0
 32 59  1  0
 33 60  1  0
 33 61  1  0
 34 62  1  0
 34 63  1  0
 35 64  1  0
 35 65  1  0
 36 66  1  0
M  END
>  <UniqueID>  (8) 
8

>  <SMILES>  (8) 
NS(=O)(=O)c1cccc(C(=O)N2CCN(C(=O)c3ccc(C(=O)N4CCCC4)cc3C3CC3)CC2)c1

>  <Energy>  (8) 
350.1511346282334

>  <Genealogy>  (8) 
NS(=O)(=O)c1cccc(C(=O)N2CCN(C(=O)c3ccc(C(=O)N4CCCC4)cc3C3CC3)CC2)c1 (3D coordinates assigned)
NS(=O)(=O)c1cccc(C(=O)N2CCN(C(=O)c3ccc(C(=O)N4CCCC4)cc3C3CC3)CC2)c1 (nonaromatic ring conformer: 350.1511346282334 kcal/mol)

>  <smiles>  (8) 
NS(=O)(=O)c1cccc(C(=O)N2CCN(C(=O)c3ccc(C(=O)N4CCCC4)cc3C3CC3)CC2)c1

>  <score_type>  (8) 
oracle

>  <origin>  (8) 
adg

>  <m_score__min__energy>  (8) 
-11.02

>  <m_primary>  (8) 
energy

$$$$
8:0
     RDKit          3D

 67 71  0  0  0  0  0  0  0  0999 V2000
   58.8495   35.4339   45.5983 H   0  0  0  0  0  0  0  0  0  0  0  0
   58.7350   34.5830   46.2860 C   0  0  0  0  0  0  0  0  0  0  0  0
   57.8860   33.4570   45.8540 C   0  0  0  0  0  0  0  0  0  0  0  0
   56.6430   33.4690   46.0650 O   0  0  0  0  0  0  0  0  0  0  0  0
   58.4920   32.3210   45.2290 N   0  0  0  0  0  0  0  0  0  0  0  0
   59.3230   31.4340   46.0490 C   0  0  0  0  0  0  0  0  0  0  0  0
   58.8121   31.2497   47.0056 H   0  0  0  0  0  0  0  0  0  0  0  0
   60.2942   31.9246   46.2103 H   0  0  0  0  0  0  0  0  0  0  0  0
   59.5740   30.0910   45.3520 C   0  0  0  0  0  0  0  0  0  0  0  0
   59.9216   29.3597   46.0965 H   0  0  0  0  0  0  0  0  0  0  0  0
   60.3342   30.2402   44.5711 H   0  0  0  0  0  0  0  0  0  0  0  0
   58.3420   29.5820   44.7150 N   0  0  0  0  0  0  0  0  0  0  0  0
   58.0430   28.1630   44.6940 C   0  0  0  0  0  0  0  0  0  0  0  0
   58.0910   27.4400   43.4870 C   0  0  0  0  0  0  0  0  0  0  0  0
   58.3701   27.9558   42.5564 H   0  0  0  0  0  0  0  0  0  0  0  0
   57.7900   26.0810   43.4550 C   0  0  0  0  0  0  0  0  0  0  0  0
   57.8409   25.5339   42.5021 H   0  0  0  0  0  0  0  0  0  0  0  0
   57.4230   25.4040   44.6250 C   0  0  0  0  0  0  0  0  0  0  0  0
   57.0210   24.0220   44.5520 N   0  0  0  0  0  0  0  0  0  0  0  0
   55.6070   23.6750   44.7700 C   0  0  0  0  0  0  0  0  0  0  0  0
   55.0254   23.9668   43.8831 H   0  0  0  0  0  0  0  0  0  0  0  0
   55.2511   24.2113   45.6620 H   0  0  0  0  0  0  0  0  0  0  0  0
   55.4340   22.1720   45.0080 C   0  0  0  0  0  0  0  0  0  0  0  0
   55.4626   21.6408   44.0452 H   0  0  0  0  0  0  0  0  0  0  0  0
   54.4670   21.9830   45.4971 H   0  0  0  0  0  0  0  0  0  0  0  0
   56.5230   21.6940   45.8650 N   0  0  0  0  0  0  0  0  0  0  0  0
   56.2540   21.3330   47.2310 C   0  0  0  0  0  0  0  0  0  0  0  0
   57.1580   21.4780   48.2290 N   0  0  0  0  0  0  0  0  0  0  0  0
   56.7130   21.0250   49.4030 N   0  0  0  0  0  0  0  0  0  0  0  0
   55.4550   20.5260   49.3390 C   0  0  0  0  0  0  0  0  0  0  0  0
   54.6280   19.8220   50.7170 S   0  0  0  0  0  0  0  0  0  0  0  0
   53.5930   18.8450   50.2370 O   0  0  0  0  0  0  0  0  0  0  0  0
   53.9580   20.9030   51.5210 O   0  0  0  0  0  0  0  0  0  0  0  0
   55.8010   18.9800   51.7550 C   0  0  0  0  0  0  0  0  0  0  0  0
   55.5511   19.1594   52.8111 H   0  0  0  0  0  0  0  0  0  0  0  0
   55.7650   17.9003   51.5480 H   0  0  0  0  0  0  0  0  0  0  0  0
   56.8125   19.3595   51.5480 H   0  0  0  0  0  0  0  0  0  0  0  0
   54.8280   20.6040   47.7760 S   0  0  0  0  0  0  0  0  0  0  0  0
   57.9180   21.9030   45.4350 C   0  0  0  0  0  0  0  0  0  0  0  0
   58.3288   20.9495   45.0716 H   0  0  0  0  0  0  0  0  0  0  0  0
   58.4976   22.2707   46.2946 H   0  0  0  0  0  0  0  0  0  0  0  0
   57.9990   22.9490   44.3060 C   0  0  0  0  0  0  0  0  0  0  0  0
   57.7769   22.4656   43.3432 H   0  0  0  0  0  0  0  0  0  0  0  0
   59.0114   23.3782   44.2792 H   0  0  0  0  0  0  0  0  0  0  0  0
   57.3840   26.1130   45.8400 C   0  0  0  0  0  0  0  0  0  0  0  0
   56.9910   25.5040   46.9890 F   0  0  0  0  0  0  0  0  0  0  0  0
   57.7070   27.4720   45.8740 C   0  0  0  0  0  0  0  0  0  0  0  0
   57.6987   28.0086   46.8342 H   0  0  0  0  0  0  0  0  0  0  0  0
   57.4780   30.5140   43.9590 C   0  0  0  0  0  0  0  0  0  0  0  0
   56.4988   30.5762   44.4563 H   0  0  0  0  0  0  0  0  0  0  0  0
   57.3736   30.1313   42.9330 H   0  0  0  0  0  0  0  0  0  0  0  0
   58.0870   31.9110   43.8880 C   0  0  0  0  0  0  0  0  0  0  0  0
   57.3421   32.6186   43.4951 H   0  0  0  0  0  0  0  0  0  0  0  0
   58.9622   31.9017   43.2218 H   0  0  0  0  0  0  0  0  0  0  0  0
   59.3740   34.6370   47.4580 C   0  0  0  0  0  0  0  0  0  0  0  0
   58.8543   35.0963   48.3118 H   0  0  0  0  0  0  0  0  0  0  0  0
   60.7330   34.1170   47.6710 C   0  0  0  0  0  0  0  0  0  0  0  0
   61.5970   33.9140   46.5880 C   0  0  0  0  0  0  0  0  0  0  0  0
   61.2755   34.1765   45.5693 H   0  0  0  0  0  0  0  0  0  0  0  0
   62.8760   33.3740   46.8060 C   0  0  0  0  0  0  0  0  0  0  0  0
   63.5500   33.1963   45.9550 H   0  0  0  0  0  0  0  0  0  0  0  0
   63.2930   33.0620   48.1060 C   0  0  0  0  0  0  0  0  0  0  0  0
   64.2867   32.6215   48.2749 H   0  0  0  0  0  0  0  0  0  0  0  0
   62.4450   33.3110   49.1880 C   0  0  0  0  0  0  0  0  0  0  0  0
   62.7870   33.1004   50.2120 H   0  0  0  0  0  0  0  0  0  0  0  0
   61.1630   33.8270   48.9740 C   0  0  0  0  0  0  0  0  0  0  0  0
   60.4921   34.0053   49.8273 H   0  0  0  0  0  0  0  0  0  0  0  0
  1  2  1  0
  2  3  1  0
  3  4  2  0
  3  5  1  0
  5  6  1  0
  6  7  1  0
  6  8  1  0
  6  9  1  0
  9 10  1  0
  9 11  1  0
  9 12  1  0
 12 13  1  0
 13 14  2  0
 14 15  1  0
 14 16  1  0
 16 17  1  0
 16 18  2  0
 18 19  1  0
 19 20  1  0
 20 21  1  0
 20 22  1  0
 20 23  1  0
 23 24  1  0
 23 25  1  0
 23 26  1  0
 26 27  1  0
 27 28  2  0
 28 29  1  0
 29 30  2  0
 30 31  1  0
 31 32  2  0
 31 33  2  0
 31 34  1  0
 34 35  1  0
 34 36  1  0
 34 37  1  0
 30 38  1  0
 26 39  1  0
 39 40  1  0
 39 41  1  0
 39 42  1  0
 42 43  1  0
 42 44  1  0
 18 45  1  0
 45 46  1  0
 45 47  2  0
 47 48  1  0
 12 49  1  0
 49 50  1  0
 49 51  1  0
 49 52  1  0
 52 53  1  0
 52 54  1  0
  2 55  2  0
 55 56  1  0
 55 57  1  0
 57 58  2  0
 58 59  1  0
 58 60  1  0
 60 61  1  0
 60 62  2  0
 62 63  1  0
 62 64  1  0
 64 65  1  0
 64 66  2  0
 66 67  1  0
 52  5  1  0
 66 57  1  0
 47 13  1  0
 42 19  1  0
 38 27  1  0
M  END
>  <UniqueID>  (9) 
9

>  <SMILES>  (9) 
CS(=O)(=O)c1nnc(N2CCN(c3ccc(N4CCN(C(=O)/C=C\c5ccccc5)CC4)cc3F)CC2)s1

>  <Energy>  (9) 
132.12625828378668

>  <Genealogy>  (9) 
CS(=O)(=O)c1nnc(N2CCN(c3ccc(N4CCN(C(=O)/C=C\c5ccccc5)CC4)cc3F)CC2)s1 (cis-trans isomerization)
CS(=O)(=O)c1nnc(N2CCN(c3ccc(N4CCN(C(=O)/C=C\c5ccccc5)CC4)cc3F)CC2)s1 (3D coordinates assigned)
CS(=O)(=O)c1nnc(N2CCN(c3ccc(N4CCN(C(=O)/C=C\c5ccccc5)CC4)cc3F)CC2)s1 (nonaromatic ring conformer: 132.12625828378668 kcal/mol)

>  <smiles>  (9) 
CS(=O)(=O)c1nnc(N2CCN(c3ccc(N4CCN(C(=O)C=Cc5ccccc5)CC4)cc3F)CC2)s1

>  <score_type>  (9) 
oracle

>  <origin>  (9) 
adg

>  <m_score__min__energy>  (9) 
-8.9900000000000002

>  <m_primary>  (9) 
energy

$$$$
9:0
     RDKit          3D

 43 45  0  0  0  0  0  0  0  0999 V2000
   57.4270   21.1540   43.0150 C   0  0  0  0  0  0  0  0  0  0  0  0
   56.8180   22.2160   43.5320 C   0  0  0  0  0  0  0  0  0  0  0  0
   55.5060   22.5820   43.2690 O   0  0  0  0  0  0  0  0  0  0  0  0
   55.2360   23.7450   43.9920 C   0  0  0  0  0  0  0  0  0  0  0  0
   56.3010   24.1530   44.6870 C   0  0  0  0  0  0  0  0  0  0  0  0
   56.3350   25.3230   45.5820 C   0  0  0  0  0  0  0  0  0  0  0  0
   55.2520   25.8260   45.9840 O   0  0  0  0  0  0  0  0  0  0  0  0
   57.5790   25.9060   45.9950 N   0  0  0  0  0  0  0  0  0  0  0  0
   58.4890   26.4510   44.9810 C   0  0  0  0  0  0  0  0  0  0  0  0
   59.7740   26.9880   45.6300 C   0  0  0  0  0  0  0  0  0  0  0  0
   59.5130   27.9510   46.7350 N   0  0  0  0  0  0  0  0  0  0  0  0
   59.6130   29.3560   46.2860 C   0  0  0  0  0  0  0  0  0  0  0  0
   58.2600   30.0620   46.4250 C   0  0  0  0  0  0  0  0  0  0  0  0
   57.6710   30.3400   45.0680 C   0  0  0  0  0  0  0  0  0  0  0  0
   56.6890   29.4890   44.5340 C   0  0  0  0  0  0  0  0  0  0  0  0
   56.1780   29.7190   43.2530 C   0  0  0  0  0  0  0  0  0  0  0  0
   56.6470   30.7930   42.4940 C   0  0  0  0  0  0  0  0  0  0  0  0
   57.6320   31.6380   43.0150 C   0  0  0  0  0  0  0  0  0  0  0  0
   58.1480   31.4110   44.2950 C   0  0  0  0  0  0  0  0  0  0  0  0
   58.2500   27.7160   47.4800 C   0  0  0  0  0  0  0  0  0  0  0  0
   57.7910   26.2590   47.4020 C   0  0  0  0  0  0  0  0  0  0  0  0
   57.3700   23.1900   44.4490 C   0  0  0  0  0  0  0  0  0  0  0  0
   58.5070   23.1610   44.9920 O   0  0  0  0  0  0  0  0  0  0  0  0
   58.4728   20.9373   43.2784 H   0  0  0  0  0  0  0  0  0  0  0  0
   56.8853   20.4917   42.3237 H   0  0  0  0  0  0  0  0  0  0  0  0
   54.2651   24.2621   43.9897 H   0  0  0  0  0  0  0  0  0  0  0  0
   58.7509   25.6559   44.2674 H   0  0  0  0  0  0  0  0  0  0  0  0
   57.9834   27.2798   44.4638 H   0  0  0  0  0  0  0  0  0  0  0  0
   60.3436   26.1380   46.0339 H   0  0  0  0  0  0  0  0  0  0  0  0
   60.3337   27.5268   44.8513 H   0  0  0  0  0  0  0  0  0  0  0  0
   60.3595   29.8801   46.9008 H   0  0  0  0  0  0  0  0  0  0  0  0
   59.9146   29.3706   45.2283 H   0  0  0  0  0  0  0  0  0  0  0  0
   57.5723   29.4188   46.9937 H   0  0  0  0  0  0  0  0  0  0  0  0
   58.4080   31.0162   46.9519 H   0  0  0  0  0  0  0  0  0  0  0  0
   56.3206   28.6383   45.1261 H   0  0  0  0  0  0  0  0  0  0  0  0
   55.4051   29.0526   42.8424 H   0  0  0  0  0  0  0  0  0  0  0  0
   56.2422   30.9743   41.4874 H   0  0  0  0  0  0  0  0  0  0  0  0
   58.0020   32.4835   42.4165 H   0  0  0  0  0  0  0  0  0  0  0  0
   58.9292   32.0729   44.6971 H   0  0  0  0  0  0  0  0  0  0  0  0
   58.4079   27.9808   48.5359 H   0  0  0  0  0  0  0  0  0  0  0  0
   57.4684   28.3395   47.0213 H   0  0  0  0  0  0  0  0  0  0  0  0
   58.5618   25.6047   47.8354 H   0  0  0  0  0  0  0  0  0  0  0  0
   56.8547   26.1311   47.9650 H   0  0  0  0  0  0  0  0  0  0  0  0
  1  2  2  0
  2  3  1  0
  3  4  1  0
  4  5  2  0
  5  6  1  0
  6  7  2  0
  6  8  1  0
  8  9  1  0
  9 10  1  0
 10 11  1  0
 11 12  1  0
 12 13  1  0
 13 14  1  0
 14 15  2  0
 15 16  1  0
 16 17  2  0
 17 18  1  0
 18 19  2  0
 11 20  1  0
 20 21  1  0
  5 22  1  0
 22 23  2  0
 22  2  1  0
 21  8  1  0
 19 14  1  0
  1 24  1  0
  1 25  1  0
  4 26  1  0
  9 27  1  0
  9 28  1  0
 10 29  1  0
 10 30  1  0
 12 31  1  0
 12 32  1  0
 13 33  1  0
 13 34  1  0
 15 35  1  0
 16 36  1  0
 17 37  1  0
 18 38  1  0
 19 39  1  0
 20 40  1  0
 20 41  1  0
 21 42  1  0
 21 43  1  0
M  END
>  <UniqueID>  (10) 
10

>  <SMILES>  (10) 
C=C1OC=C(C(=O)N2CCN(CCc3ccccc3)CC2)C1=O

>  <Energy>  (10) 
80.93754488304164

>  <Genealogy>  (10) 
C=C1OC=C(C(=O)N2CCN(CCc3ccccc3)CC2)C1=O (3D coordinates assigned)
C=C1OC=C(C(=O)N2CCN(CCc3ccccc3)CC2)C1=O (nonaromatic ring conformer: 80.93754488304164 kcal/mol)

>  <smiles>  (10) 
C=C1OC=C(C(=O)N2CCN(CCc3ccccc3)CC2)C1=O

>  <score_type>  (10) 
oracle

>  <origin>  (10) 
adg

>  <m_score__min__energy>  (10) 
-8.2699999999999996

>  <m_primary>  (10) 
energy

$$$$
10:0
     RDKit          3D

 58 61  0  0  0  0  0  0  0  0999 V2000
   55.0420   23.6620   45.9610 C   0  0  0  0  0  0  0  0  0  0  0  0
   55.7680   24.5600   46.7920 O   0  0  0  0  0  0  0  0  0  0  0  0
   56.1080   25.8550   46.3890 C   0  0  0  0  0  0  0  0  0  0  0  0
   55.2100   26.6470   45.9890 O   0  0  0  0  0  0  0  0  0  0  0  0
   57.5200   26.2960   46.4320 C   0  0  0  0  0  0  0  0  0  0  0  0
   58.5520   25.4400   46.0060 C   0  0  0  0  0  0  0  0  0  0  0  0
   59.8830   25.8620   46.0470 C   0  0  0  0  0  0  0  0  0  0  0  0
   60.1990   27.1380   46.5160 C   0  0  0  0  0  0  0  0  0  0  0  0
   59.1880   28.0040   46.9520 C   0  0  0  0  0  0  0  0  0  0  0  0
   59.5420   29.3770   47.4520 C   0  0  0  0  0  0  0  0  0  0  0  0
   60.8500   29.3500   48.0170 O   0  0  0  0  0  0  0  0  0  0  0  0
   61.2050   29.7890   49.3070 C   0  0  0  0  0  0  0  0  0  0  0  0
   61.0600   28.8970   50.3290 N   0  0  0  0  0  0  0  0  0  0  0  0
   61.4260   29.1880   51.6060 C   0  0  0  0  0  0  0  0  0  0  0  0
   61.9630   30.4350   51.9130 C   0  0  0  0  0  0  0  0  0  0  0  0
   62.0990   31.3860   50.9060 C   0  0  0  0  0  0  0  0  0  0  0  0
   61.7100   31.0860   49.5930 C   0  0  0  0  0  0  0  0  0  0  0  0
   61.7450   32.1690   48.6020 C   0  0  0  0  0  0  0  0  0  0  0  0
   62.9610   32.6250   48.0810 C   0  0  0  0  0  0  0  0  0  0  0  0
   62.9330   33.6360   47.1230 C   0  0  0  0  0  0  0  0  0  0  0  0
   61.7480   34.1730   46.7360 N   0  0  0  0  0  0  0  0  0  0  0  0
   60.5750   33.7450   47.2740 C   0  0  0  0  0  0  0  0  0  0  0  0
   59.4610   34.3000   46.9010 N   0  0  0  0  0  0  0  0  0  0  0  0
   58.1800   33.6040   46.7740 C   0  0  0  0  0  0  0  0  0  0  0  0
   58.0270   32.9810   45.4100 C   0  0  0  0  0  0  0  0  0  0  0  0
   58.5000   33.6470   44.2670 C   0  0  0  0  0  0  0  0  0  0  0  0
   58.3810   33.0520   43.0080 C   0  0  0  0  0  0  0  0  0  0  0  0
   57.7930   31.7920   42.8810 C   0  0  0  0  0  0  0  0  0  0  0  0
   57.3020   31.1250   44.0120 C   0  0  0  0  0  0  0  0  0  0  0  0
   56.5180   29.5570   43.8550 S   0  0  0  0  0  0  0  0  0  0  0  0
   55.1540   29.4830   44.9140 N   0  0  0  0  0  0  0  0  0  0  0  0
   56.0600   29.3490   42.4390 O   0  0  0  0  0  0  0  0  0  0  0  0
   57.4920   28.4690   44.2120 O   0  0  0  0  0  0  0  0  0  0  0  0
   57.4180   31.7240   45.2740 C   0  0  0  0  0  0  0  0  0  0  0  0
   60.5840   32.7480   48.2020 N   0  0  0  0  0  0  0  0  0  0  0  0
   57.8480   27.5810   46.9020 C   0  0  0  0  0  0  0  0  0  0  0  0
   54.4740   22.9595   46.5886 H   0  0  0  0  0  0  0  0  0  0  0  0
   54.3469   24.2308   45.3259 H   0  0  0  0  0  0  0  0  0  0  0  0
   55.7438   23.1014   45.3259 H   0  0  0  0  0  0  0  0  0  0  0  0
   58.3093   24.4321   45.6383 H   0  0  0  0  0  0  0  0  0  0  0  0
   60.6835   25.1874   45.7091 H   0  0  0  0  0  0  0  0  0  0  0  0
   61.2487   27.4657   46.5434 H   0  0  0  0  0  0  0  0  0  0  0  0
   59.5180   30.0903   46.6150 H   0  0  0  0  0  0  0  0  0  0  0  0
   58.8163   29.6886   48.2177 H   0  0  0  0  0  0  0  0  0  0  0  0
   60.6740   27.9480   50.1240 H   0  0  0  0  0  0  0  0  0  0  0  0
   61.2973   28.4360   52.3984 H   0  0  0  0  0  0  0  0  0  0  0  0
   62.2768   30.6665   52.9415 H   0  0  0  0  0  0  0  0  0  0  0  0
   62.5135   32.3773   51.1414 H   0  0  0  0  0  0  0  0  0  0  0  0
   63.9155   32.1957   48.4196 H   0  0  0  0  0  0  0  0  0  0  0  0
   63.8719   33.9994   46.6799 H   0  0  0  0  0  0  0  0  0  0  0  0
   58.1247   32.8136   47.5370 H   0  0  0  0  0  0  0  0  0  0  0  0
   57.3718   34.3371   46.9131 H   0  0  0  0  0  0  0  0  0  0  0  0
   58.9651   34.6392   44.3632 H   0  0  0  0  0  0  0  0  0  0  0  0
   58.7513   33.5774   42.1154 H   0  0  0  0  0  0  0  0  0  0  0  0
   57.7148   31.3211   41.8900 H   0  0  0  0  0  0  0  0  0  0  0  0
   55.3310   28.7060   45.5870 H   0  0  0  0  0  0  0  0  0  0  0  0
   57.0294   31.2057   46.1630 H   0  0  0  0  0  0  0  0  0  0  0  0
   57.0491   28.2607   47.2333 H   0  0  0  0  0  0  0  0  0  0  0  0
  1  2  1  0
  2  3  1  0
  3  4  2  0
  3  5  1  0
  5  6  2  0
  6  7  1  0
  7  8  2  0
  8  9  1  0
  9 10  1  0
 10 11  1  0
 11 12  1  0
 12 13  2  0
 13 14  1  0
 14 15  2  0
 15 16  1  0
 16 17  2  0
 17 18  1  0
 18 19  1  0
 19 20  2  0
 20 21  1  0
 21 22  1  0
 22 23  2  3
 23 24  1  0
 24 25  1  0
 25 26  2  0
 26 27  1  0
 27 28  2  0
 28 29  1  0
 29 30  1  0
 30 31  1  0
 30 32  2  0
 30 33  2  0
 29 34  2  0
 22 35  1  0
  9 36  2  0
 36  5  1  0
 17 12  1  0
 35 18  2  0
 34 25  1  0
  1 37  1  0
  1 38  1  0
  1 39  1  0
  6 40  1  0
  7 41  1  0
  8 42  1  0
 10 43  1  0
 10 44  1  0
 13 45  1  0
 14 46  1  0
 15 47  1  0
 16 48  1  0
 19 49  1  0
 20 50  1  0
 24 51  1  0
 24 52  1  0
 26 53  1  0
 27 54  1  0
 28 55  1  0
 31 56  1  0
 34 57  1  0
 36 58  1  0
M  CHG  3  13   1  21  -1  31  -1
M  END
>  <UniqueID>  (11) 
11

>  <SMILES>  (11) 
COC(=O)c1cccc(COc2[nH+]cccc2-c2cc[n-]c(=NCc3cccc(S([NH-])(=O)=O)c3)n2)c1

>  <Energy>  (11) 
68.0927876574931

>  <Genealogy>  (11) 
COC(=O)c1cccc(COc2[nH+]cccc2-c2cc[n-]c(=NCc3cccc(S([NH-])(=O)=O)c3)n2)c1 (protonated)
COC(=O)c1cccc(COc2[nH+]cccc2-c2cc[n-]c(=NCc3cccc(S([NH-])(=O)=O)c3)n2)c1 (3D coordinates assigned)
COC(=O)c1cccc(COc2[nH+]cccc2-c2cc[n-]c(=NCc3cccc(S([NH-])(=O)=O)c3)n2)c1 (optimized conformer: 68.0927876574931 kcal/mol)

>  <smiles>  (11) 
COC(=O)c1cccc(COc2ncccc2-c2cc[nH]c(=NCc3cccc(S(N)(=O)=O)c3)n2)c1

>  <score_type>  (11) 
oracle

>  <origin>  (11) 
adg

>  <m_score__min__energy>  (11) 
-13.15

>  <m_primary>  (11) 
energy

$$$$
11:0
     RDKit          3D

 27 28  0  0  0  0  0  0  0  0999 V2000
   57.9789   24.2769   46.4332 H   0  0  0  0  0  0  0  0  0  0  0  0
   58.6150   25.0860   46.0450 C   0  0  0  0  0  0  0  0  0  0  0  0
   59.6917   24.9162   45.8968 H   0  0  0  0  0  0  0  0  0  0  0  0
   58.0790   26.2770   45.7530 C   0  0  0  0  0  0  0  0  0  0  0  0
   59.0590   27.5080   45.1600 S   0  0  0  0  0  0  0  0  0  0  0  0
   58.2020   28.9350   44.8580 C   0  0  0  0  0  0  0  0  0  0  0  0
   58.8150   30.0330   44.3660 C   0  0  0  0  0  0  0  0  0  0  0  0
   59.5774   29.8958   43.5850 H   0  0  0  0  0  0  0  0  0  0  0  0
   58.5190   31.4090   44.8180 C   0  0  0  0  0  0  0  0  0  0  0  0
   58.7910   31.7330   46.1560 C   0  0  0  0  0  0  0  0  0  0  0  0
   59.2519   30.9830   46.8157 H   0  0  0  0  0  0  0  0  0  0  0  0
   58.4820   32.9980   46.6570 C   0  0  0  0  0  0  0  0  0  0  0  0
   58.6954   33.2397   47.7087 H   0  0  0  0  0  0  0  0  0  0  0  0
   57.9030   33.9560   45.8260 C   0  0  0  0  0  0  0  0  0  0  0  0
   57.6458   34.9475   46.2271 H   0  0  0  0  0  0  0  0  0  0  0  0
   57.6490   33.6590   44.4850 C   0  0  0  0  0  0  0  0  0  0  0  0
   57.1946   34.4217   43.8355 H   0  0  0  0  0  0  0  0  0  0  0  0
   57.9680   32.3950   43.9560 C   0  0  0  0  0  0  0  0  0  0  0  0
   57.7570   32.1420   42.5540 N   0  0  0  0  0  0  0  0  0  0  0  0
   58.4820   32.6910   41.6990 O   0  0  0  0  0  0  0  0  0  0  0  0
   56.8550   31.1880   42.1400 O   0  0  0  0  0  0  0  0  0  0  0  0
   56.8180   28.9030   45.1240 C   0  0  0  0  0  0  0  0  0  0  0  0
   56.1270   29.9400   44.9110 O   0  0  0  0  0  0  0  0  0  0  0  0
   56.1770   27.7910   45.6130 N   0  0  0  0  0  0  0  0  0  0  0  0
   55.1470   27.8900   45.7730 H   0  0  0  0  0  0  0  0  0  0  0  0
   56.7140   26.5660   45.9170 C   0  0  0  0  0  0  0  0  0  0  0  0
   55.9430   25.6680   46.3610 O   0  0  0  0  0  0  0  0  0  0  0  0
  1  2  1  0
  2  3  1  0
  2  4  2  0
  4  5  1  0
  5  6  1  0
  6  7  2  0
  7  8  1  0
  7  9  1  0
  9 10  2  0
 10 11  1  0
 10 12  1  0
 12 13  1  0
 12 14  2  0
 14 15  1  0
 14 16  1  0
 16 17  1  0
 16 18  2  0
 18 19  1  0
 19 20  2  0
 19 21  1  0
  6 22  1  0
 22 23  2  0
 22 24  1  0
 24 25  1  0
 24 26  1  0
 26 27  2  0
 26  4  1  0
 18  9  1  0
M  CHG  2  19   1  21  -1
M  END
>  <UniqueID>  (12) 
12

>  <SMILES>  (12) 
C=c1s/c(=C\c2ccccc2[N+](=O)[O-])c(=O)[nH]c1=O

>  <Energy>  (12) 
47.86850884332975

>  <Genealogy>  (12) 
C=c1s/c(=C\c2ccccc2[N+](=O)[O-])c(=O)[nH]c1=O (cis-trans isomerization)
C=c1s/c(=C\c2ccccc2[N+](=O)[O-])c(=O)[nH]c1=O (3D coordinates assigned)
C=c1s/c(=C\c2ccccc2[N+](=O)[O-])c(=O)[nH]c1=O (optimized conformer: 47.86850884332975 kcal/mol)

>  <smiles>  (12) 
C=c1sc(=Cc2ccccc2[N+](=O)[O-])c(=O)[nH]c1=O

>  <score_type>  (12) 
oracle

>  <origin>  (12) 
adg

>  <m_score__min__energy>  (12) 
-8.1899999999999995

>  <m_primary>  (12) 
energy

$$$$
12:0
     RDKit          3D

 36 38  0  0  0  0  0  0  0  0999 V2000
   57.7950   32.3360   49.8990 O   0  0  0  0  0  0  0  0  0  0  0  0
   58.8590   32.2720   49.2250 C   0  0  0  0  0  0  0  0  0  0  0  0
   59.3080   33.4700   48.4480 C   0  0  0  0  0  0  0  0  0  0  0  0
   58.8740   33.3420   47.0240 C   0  0  0  0  0  0  0  0  0  0  0  0
   58.2830   32.2220   46.4540 C   0  0  0  0  0  0  0  0  0  0  0  0
   57.8890   32.4250   45.1210 C   0  0  0  0  0  0  0  0  0  0  0  0
   57.2280   31.4130   44.3450 N   0  0  0  0  0  0  0  0  0  0  0  0
   57.3980   31.1590   43.0310 C   0  0  0  0  0  0  0  0  0  0  0  0
   56.5690   30.1180   42.6780 C   0  0  0  0  0  0  0  0  0  0  0  0
   55.9100   29.7810   43.8420 C   0  0  0  0  0  0  0  0  0  0  0  0
   56.3260   30.5810   44.8420 N   0  0  0  0  0  0  0  0  0  0  0  0
   58.1660   33.7090   44.6480 C   0  0  0  0  0  0  0  0  0  0  0  0
   58.8830   34.5830   45.8920 S   0  0  0  0  0  0  0  0  0  0  0  0
   59.6080   31.0490   49.1560 N   0  0  0  0  0  0  0  0  0  0  0  0
   59.1480   29.8020   49.7650 C   0  0  0  0  0  0  0  0  0  0  0  0
   59.6650   28.5970   48.9760 C   0  0  0  0  0  0  0  0  0  0  0  0
   59.6800   28.8750   47.5410 N   0  0  0  0  0  0  0  0  0  0  0  0
   58.7650   28.4670   46.6430 C   0  0  0  0  0  0  0  0  0  0  0  0
   59.1340   28.9440   45.4040 C   0  0  0  0  0  0  0  0  0  0  0  0
   60.3050   29.6420   45.6300 C   0  0  0  0  0  0  0  0  0  0  0  0
   60.6180   29.5900   46.9390 N   0  0  0  0  0  0  0  0  0  0  0  0
   58.8635   34.3763   48.8851 H   0  0  0  0  0  0  0  0  0  0  0  0
   60.4051   33.5385   48.4884 H   0  0  0  0  0  0  0  0  0  0  0  0
   58.1382   31.2731   46.9913 H   0  0  0  0  0  0  0  0  0  0  0  0
   58.0829   31.6931   42.3560 H   0  0  0  0  0  0  0  0  0  0  0  0
   56.4568   29.6565   41.6858 H   0  0  0  0  0  0  0  0  0  0  0  0
   55.1602   28.9819   43.9384 H   0  0  0  0  0  0  0  0  0  0  0  0
   57.9520   34.0839   43.6362 H   0  0  0  0  0  0  0  0  0  0  0  0
   60.4670   31.0170   48.5620 H   0  0  0  0  0  0  0  0  0  0  0  0
   59.5207   29.7449   50.7984 H   0  0  0  0  0  0  0  0  0  0  0  0
   58.0481   29.7869   49.7569 H   0  0  0  0  0  0  0  0  0  0  0  0
   60.6874   28.3625   49.3073 H   0  0  0  0  0  0  0  0  0  0  0  0
   58.9941   27.7449   49.1599 H   0  0  0  0  0  0  0  0  0  0  0  0
   57.8755   27.8575   46.8604 H   0  0  0  0  0  0  0  0  0  0  0  0
   58.6118   28.8008   44.4465 H   0  0  0  0  0  0  0  0  0  0  0  0
   60.8922   30.1612   44.8582 H   0  0  0  0  0  0  0  0  0  0  0  0
  1  2  2  0
  2  3  1  0
  3  4  1  0
  4  5  2  0
  5  6  1  0
  6  7  1  0
  7  8  1  0
  8  9  2  0
  9 10  1  0
 10 11  2  0
  6 12  2  0
 12 13  1  0
  2 14  1  0
 14 15  1  0
 15 16  1  0
 16 17  1  0
 17 18  1  0
 18 19  2  0
 19 20  1  0
 20 21  2  0
 13  4  1  0
 21 17  1  0
 11  7  1  0
  3 22  1  0
  3 23  1  0
  5 24  1  0
  8 25  1  0
  9 26  1  0
 10 27  1  0
 12 28  1  0
 14 29  1  0
 15 30  1  0
 15 31  1  0
 16 32  1  0
 16 33  1  0
 18 34  1  0
 19 35  1  0
 20 36  1  0
M  END
>  <UniqueID>  (13) 
13

>  <SMILES>  (13) 
O=C(Cc1cc(-n2cccn2)cs1)NCCn1cccn1

>  <Energy>  (13) 
112.39397925105769

>  <Genealogy>  (13) 
O=C(Cc1cc(-n2cccn2)cs1)NCCn1cccn1 (3D coordinates assigned)
O=C(Cc1cc(-n2cccn2)cs1)NCCn1cccn1 (optimized conformer: 112.39397925105769 kcal/mol)

>  <smiles>  (13) 
O=C(Cc1cc(-n2cccn2)cs1)NCCn1cccn1

>  <score_type>  (13) 
oracle

>  <origin>  (13) 
adg

>  <m_score__min__energy>  (13) 
-6.9900000000000002

>  <m_primary>  (13) 
energy

$$$$
13:0
     RDKit          3D

 54 57  0  0  0  0  0  0  0  0999 V2000
   62.6664   34.2258   47.2992 H   0  0  0  0  0  0  0  0  0  0  0  0
   61.7540   34.1630   46.6880 C   0  0  0  0  0  0  0  0  0  0  0  0
   61.7414   34.5875   45.6733 H   0  0  0  0  0  0  0  0  0  0  0  0
   60.6590   33.5700   47.1790 C   0  0  0  0  0  0  0  0  0  0  0  0
   59.4020   33.4640   46.3830 C   0  0  0  0  0  0  0  0  0  0  0  0
   58.8640   34.5820   45.7130 C   0  0  0  0  0  0  0  0  0  0  0  0
   59.3727   35.5551   45.7794 H   0  0  0  0  0  0  0  0  0  0  0  0
   57.6890   34.4630   44.9650 C   0  0  0  0  0  0  0  0  0  0  0  0
   57.2748   35.3430   44.4512 H   0  0  0  0  0  0  0  0  0  0  0  0
   57.0400   33.2320   44.8680 C   0  0  0  0  0  0  0  0  0  0  0  0
   56.1129   33.1430   44.2827 H   0  0  0  0  0  0  0  0  0  0  0  0
   57.5680   32.1140   45.5140 C   0  0  0  0  0  0  0  0  0  0  0  0
   57.0586   31.1424   45.4332 H   0  0  0  0  0  0  0  0  0  0  0  0
   58.7430   32.2250   46.2640 C   0  0  0  0  0  0  0  0  0  0  0  0
   59.1560   31.3372   46.7652 H   0  0  0  0  0  0  0  0  0  0  0  0
   60.7260   32.9730   48.5320 C   0  0  0  0  0  0  0  0  0  0  0  0
   60.3830   33.7790   49.6280 C   0  0  0  0  0  0  0  0  0  0  0  0
   60.0595   34.8171   49.4617 H   0  0  0  0  0  0  0  0  0  0  0  0
   60.4490   33.2740   50.9280 C   0  0  0  0  0  0  0  0  0  0  0  0
   60.1758   33.9131   51.7806 H   0  0  0  0  0  0  0  0  0  0  0  0
   60.8610   31.9600   51.1460 C   0  0  0  0  0  0  0  0  0  0  0  0
   60.9080   31.5624   52.1705 H   0  0  0  0  0  0  0  0  0  0  0  0
   61.2140   31.1480   50.0670 C   0  0  0  0  0  0  0  0  0  0  0  0
   61.5353   30.1116   50.2477 H   0  0  0  0  0  0  0  0  0  0  0  0
   61.1630   31.6420   48.7500 C   0  0  0  0  0  0  0  0  0  0  0  0
   61.5700   30.7500   47.6370 C   0  0  0  0  0  0  0  0  0  0  0  0
   62.7040   30.9030   47.1060 O   0  0  0  0  0  0  0  0  0  0  0  0
   60.6750   29.7470   47.1140 N   0  0  0  0  0  0  0  0  0  0  0  0
   59.7940   28.9760   48.0050 C   0  0  0  0  0  0  0  0  0  0  0  0
   60.2273   27.9789   48.1726 H   0  0  0  0  0  0  0  0  0  0  0  0
   59.6965   29.5057   48.9641 H   0  0  0  0  0  0  0  0  0  0  0  0
   58.4090   28.8270   47.3690 C   0  0  0  0  0  0  0  0  0  0  0  0
   57.8473   28.0529   47.9124 H   0  0  0  0  0  0  0  0  0  0  0  0
   57.8950   29.7977   47.4288 H   0  0  0  0  0  0  0  0  0  0  0  0
   58.5060   28.4420   45.9530 N   0  0  0  0  0  0  0  0  0  0  0  0
   57.3120   28.3810   45.1540 C   0  0  0  0  0  0  0  0  0  0  0  0
   57.2740   28.9790   44.0460 O   0  0  0  0  0  0  0  0  0  0  0  0
   56.1370   27.7000   45.6160 N   0  0  0  0  0  0  0  0  0  0  0  0
   56.0320   26.4150   45.7930 C   0  0  0  0  0  0  0  0  0  0  0  0
   54.8140   25.7980   45.7770 N   0  0  0  0  0  0  0  0  0  0  0  0
   54.6830   24.4600   45.9760 C   0  0  0  0  0  0  0  0  0  0  0  0
   53.6865   23.9949   45.9495 H   0  0  0  0  0  0  0  0  0  0  0  0
   55.8130   23.6760   46.2140 C   0  0  0  0  0  0  0  0  0  0  0  0
   55.7140   22.5923   46.3746 H   0  0  0  0  0  0  0  0  0  0  0  0
   57.0700   24.2820   46.2460 C   0  0  0  0  0  0  0  0  0  0  0  0
   57.9690   23.6766   46.4338 H   0  0  0  0  0  0  0  0  0  0  0  0
   57.1840   25.6590   46.0390 C   0  0  0  0  0  0  0  0  0  0  0  0
   58.1705   26.1448   46.0691 H   0  0  0  0  0  0  0  0  0  0  0  0
   59.8190   28.2370   45.3300 C   0  0  0  0  0  0  0  0  0  0  0  0
   60.2500   27.2922   45.6929 H   0  0  0  0  0  0  0  0  0  0  0  0
   59.6961   28.1983   44.2376 H   0  0  0  0  0  0  0  0  0  0  0  0
   60.7600   29.3930   45.6870 C   0  0  0  0  0  0  0  0  0  0  0  0
   61.7933   29.0956   45.4549 H   0  0  0  0  0  0  0  0  0  0  0  0
   60.4598   30.2723   45.0982 H   0  0  0  0  0  0  0  0  0  0  0  0
  1  2  1  0
  2  3  1  0
  2  4  2  0
  4  5  1  0
  5  6  2  0
  6  7  1  0
  6  8  1  0
  8  9  1  0
  8 10  2  0
 10 11  1  0
 10 12  1  0
 12 13  1  0
 12 14  2  0
 14 15  1  0
  4 16  1  0
 16 17  2  0
 17 18  1  0
 17 19  1  0
 19 20  1  0
 19 21  2  0
 21 22  1  0
 21 23  1  0
 23 24  1  0
 23 25  2  0
 25 26  1  0
 26 27  2  0
 26 28  1  0
 28 29  1  0
 29 30  1  0
 29 31  1  0
 29 32  1  0
 32 33  1  0
 32 34  1  0
 32 35  1  0
 35 36  1  0
 36 37  2  0
 36 38  1  0
 38 39  2  0
 39 40  1  0
 40 41  1  0
 41 42  1  0
 41 43  2  0
 43 44  1  0
 43 45  1  0
 45 46  1  0
 45 47  2  0
 47 48  1  0
 35 49  1  0
 49 50  1  0
 49 51  1  0
 49 52  1  0
 52 53  1  0
 52 54  1  0
 14  5  1  0
 25 16  1  0
 52 28  1  0
 47 39  1  0
M  CHG  1  40  -1
M  END
>  <UniqueID>  (14) 
14

>  <SMILES>  (14) 
C=C(c1ccccc1)c1ccccc1C(=O)N1CCN(C(=O)/N=c2/cccc[n-]2)CC1

>  <Energy>  (14) 
82.89511711835942

>  <Genealogy>  (14) 
C=C(c1ccccc1)c1ccccc1C(=O)N1CCN(C(=O)N=c2cccc[n-]2)CC1 (protonated)
C=C(c1ccccc1)c1ccccc1C(=O)N1CCN(C(=O)/N=c2/cccc[n-]2)CC1 (cis-trans isomerization)
C=C(c1ccccc1)c1ccccc1C(=O)N1CCN(C(=O)/N=c2/cccc[n-]2)CC1 (3D coordinates assigned)
C=C(c1ccccc1)c1ccccc1C(=O)N1CCN(C(=O)/N=c2/cccc[n-]2)CC1 (nonaromatic ring conformer: 82.89511711835942 kcal/mol)

>  <smiles>  (14) 
C=C(c1ccccc1)c1ccccc1C(=O)N1CCN(C(=O)N=c2cccc[nH]2)CC1

>  <score_type>  (14) 
oracle

>  <origin>  (14) 
adg

>  <m_score__min__energy>  (14) 
-10.83

>  <m_primary>  (14) 
energy

$$$$
14:0
     RDKit          3D

 51 54  0  0  0  0  0  0  0  0999 V2000
   52.4030   29.4040   54.3390 C   0  0  0  0  0  0  0  0  0  0  0  0
   53.6430   29.4590   53.8120 C   0  0  0  0  0  0  0  0  0  0  0  0
   54.6520   28.8510   54.5080 N   0  0  0  0  0  0  0  0  0  0  0  0
   55.9470   28.8910   54.1060 C   0  0  0  0  0  0  0  0  0  0  0  0
   56.3050   29.5500   52.9330 C   0  0  0  0  0  0  0  0  0  0  0  0
   57.7170   29.5990   52.4880 C   0  0  0  0  0  0  0  0  0  0  0  0
   58.5920   28.9880   53.1610 O   0  0  0  0  0  0  0  0  0  0  0  0
   58.1110   30.3110   51.2990 N   0  0  0  0  0  0  0  0  0  0  0  0
   59.1390   29.7270   50.4310 C   0  0  0  0  0  0  0  0  0  0  0  0
   59.4300   30.6190   49.2190 C   0  0  0  0  0  0  0  0  0  0  0  0
   59.6990   32.0750   49.6690 C   0  0  0  0  0  0  0  0  0  0  0  0
   59.9720   32.9590   48.5020 N   0  0  0  0  0  0  0  0  0  0  0  0
   58.9210   33.9620   48.2830 C   0  0  0  0  0  0  0  0  0  0  0  0
   58.9880   34.3480   46.8210 C   0  0  0  0  0  0  0  0  0  0  0  0
   59.5280   33.1180   46.1230 C   0  0  0  0  0  0  0  0  0  0  0  0
   60.0530   32.2140   47.2330 C   0  0  0  0  0  0  0  0  0  0  0  0
   58.5030   32.6270   50.5080 C   0  0  0  0  0  0  0  0  0  0  0  0
   57.4640   31.5730   50.9250 C   0  0  0  0  0  0  0  0  0  0  0  0
   55.3060   30.1860   52.1910 C   0  0  0  0  0  0  0  0  0  0  0  0
   53.9520   30.1560   52.5960 C   0  0  0  0  0  0  0  0  0  0  0  0
   52.9960   30.7230   51.8110 C   0  0  0  0  0  0  0  0  0  0  0  0
   51.8990   31.5870   52.2920 C   0  0  0  0  0  0  0  0  0  0  0  0
   51.6820   31.8540   53.5920 N   0  0  0  0  0  0  0  0  0  0  0  0
   50.6720   32.7500   53.5630 C   0  0  0  0  0  0  0  0  0  0  0  0
   50.1680   33.2370   54.6080 O   0  0  0  0  0  0  0  0  0  0  0  0
   50.2500   33.0900   52.3260 N   0  0  0  0  0  0  0  0  0  0  0  0
   51.0450   32.3560   51.5320 C   0  0  0  0  0  0  0  0  0  0  0  0
   51.0160   32.4160   50.1440 O   0  0  0  0  0  0  0  0  0  0  0  0
   51.5608   29.8788   53.8143 H   0  0  0  0  0  0  0  0  0  0  0  0
   52.2336   28.8843   55.2936 H   0  0  0  0  0  0  0  0  0  0  0  0
   54.4490   28.3420   55.4010 H   0  0  0  0  0  0  0  0  0  0  0  0
   56.7213   28.3983   54.7123 H   0  0  0  0  0  0  0  0  0  0  0  0
   60.0651   29.5998   51.0108 H   0  0  0  0  0  0  0  0  0  0  0  0
   58.7684   28.7587   50.0635 H   0  0  0  0  0  0  0  0  0  0  0  0
   60.3147   30.2342   48.6906 H   0  0  0  0  0  0  0  0  0  0  0  0
   58.5554   30.6089   48.5520 H   0  0  0  0  0  0  0  0  0  0  0  0
   60.5958   32.0677   50.3059 H   0  0  0  0  0  0  0  0  0  0  0  0
   57.9347   33.5354   48.5179 H   0  0  0  0  0  0  0  0  0  0  0  0
   59.0683   34.8383   48.9313 H   0  0  0  0  0  0  0  0  0  0  0  0
   57.9876   34.6020   46.4407 H   0  0  0  0  0  0  0  0  0  0  0  0
   59.6194   35.2329   46.6527 H   0  0  0  0  0  0  0  0  0  0  0  0
   58.7281   32.6125   45.5622 H   0  0  0  0  0  0  0  0  0  0  0  0
   60.3160   33.3736   45.3993 H   0  0  0  0  0  0  0  0  0  0  0  0
   59.4392   31.3033   47.2947 H   0  0  0  0  0  0  0  0  0  0  0  0
   61.0929   31.9202   47.0275 H   0  0  0  0  0  0  0  0  0  0  0  0
   58.9093   33.0863   51.4212 H   0  0  0  0  0  0  0  0  0  0  0  0
   57.9747   33.3414   49.8594 H   0  0  0  0  0  0  0  0  0  0  0  0
   56.8930   31.9524   51.7852 H   0  0  0  0  0  0  0  0  0  0  0  0
   56.7973   31.3834   50.0709 H   0  0  0  0  0  0  0  0  0  0  0  0
   55.5797   30.7224   51.2705 H   0  0  0  0  0  0  0  0  0  0  0  0
   53.0441   30.5215   50.7307 H   0  0  0  0  0  0  0  0  0  0  0  0
  1  2  2  0
  2  3  1  0
  3  4  2  0
  4  5  1  0
  5  6  1  0
  6  7  2  0
  6  8  1  0
  8  9  1  0
  9 10  1  0
 10 11  1  0
 11 12  1  0
 12 13  1  0
 13 14  1  0
 14 15  1  0
 15 16  1  0
 11 17  1  0
 17 18  1  0
  5 19  2  0
 19 20  1  0
 20 21  2  3
 21 22  1  0
 22 23  1  0
 23 24  1  0
 24 25  2  0
 24 26  1  0
 26 27  1  0
 27 28  1  0
 20  2  1  0
 27 22  2  0
 18  8  1  0
 16 12  1  0
  1 29  1  0
  1 30  1  0
  3 31  1  0
  4 32  1  0
  9 33  1  0
  9 34  1  0
 10 35  1  0
 10 36  1  0
 11 37  1  0
 13 38  1  0
 13 39  1  0
 14 40  1  0
 14 41  1  0
 15 42  1  0
 15 43  1  0
 16 44  1  0
 16 45  1  0
 17 46  1  0
 17 47  1  0
 18 48  1  0
 18 49  1  0
 19 50  1  0
 21 51  1  0
M  CHG  4   3   1  23  -1  26  -1  28  -1
M  END
>  <UniqueID>  (15) 
15

>  <SMILES>  (15) 
C=c1[nH+]cc(C(=O)N2CCC(N3CCCC3)CC2)cc1=Cc1[n-]c(=O)[n-]c1[O-]

>  <Energy>  (15) 
111.67769533967996

>  <Genealogy>  (15) 
C=c1[nH+]cc(C(=O)N2CCC(N3CCCC3)CC2)cc1=Cc1[n-]c(=O)[n-]c1[O-] (protonated)
C=c1[nH+]cc(C(=O)N2CCC(N3CCCC3)CC2)cc1=Cc1[n-]c(=O)[n-]c1[O-] (3D coordinates assigned)
C=c1[nH+]cc(C(=O)N2CCC(N3CCCC3)CC2)cc1=Cc1[n-]c(=O)[n-]c1[O-] (nonaromatic ring conformer: 111.67769533967996 kcal/mol)

>  <smiles>  (15) 
C=c1ncc(C(=O)N2CCC(N3CCCC3)CC2)cc1=Cc1[nH]c(=O)[nH]c1O

>  <score_type>  (15) 
oracle

>  <origin>  (15) 
adg

>  <m_score__min__energy>  (15) 
-17.059999999999999

>  <m_primary>  (15) 
energy

$$$$
15:0
     RDKit          3D

 54 57  0  0  0  0  0  0  0  0999 V2000
   57.7140   27.7950   43.0790 C   0  0  0  0  0  0  0  0  0  0  0  0
   57.8770   28.4620   44.2340 C   0  0  0  0  0  0  0  0  0  0  0  0
   58.3620   27.9400   45.4440 C   0  0  0  0  0  0  0  0  0  0  0  0
   58.5740   26.6700   45.8380 C   0  0  0  0  0  0  0  0  0  0  0  0
   57.5570   25.7740   46.4130 C   0  0  0  0  0  0  0  0  0  0  0  0
   57.8230   24.5630   46.9410 N   0  0  0  0  0  0  0  0  0  0  0  0
   56.5970   24.0620   47.2030 C   0  0  0  0  0  0  0  0  0  0  0  0
   56.4250   22.9290   47.7250 O   0  0  0  0  0  0  0  0  0  0  0  0
   55.5690   24.8640   46.8530 N   0  0  0  0  0  0  0  0  0  0  0  0
   56.1930   25.9390   46.3430 C   0  0  0  0  0  0  0  0  0  0  0  0
   55.5180   27.0440   45.8300 O   0  0  0  0  0  0  0  0  0  0  0  0
   58.6130   29.0290   46.2600 C   0  0  0  0  0  0  0  0  0  0  0  0
   58.2180   30.1540   45.5650 C   0  0  0  0  0  0  0  0  0  0  0  0
   58.3730   31.5380   46.0640 C   0  0  0  0  0  0  0  0  0  0  0  0
   57.3560   32.2790   46.1390 O   0  0  0  0  0  0  0  0  0  0  0  0
   59.6650   32.0610   46.4350 N   0  0  0  0  0  0  0  0  0  0  0  0
   60.7260   31.1730   46.9280 C   0  0  0  0  0  0  0  0  0  0  0  0
   61.5790   31.9090   47.9640 C   0  0  0  0  0  0  0  0  0  0  0  0
   62.1980   33.1340   47.4070 N   0  0  0  0  0  0  0  0  0  0  0  0
   62.6350   34.0340   48.4950 C   0  0  0  0  0  0  0  0  0  0  0  0
   61.7550   33.8650   49.7060 C   0  0  0  0  0  0  0  0  0  0  0  0
   60.3740   34.1150   49.6280 C   0  0  0  0  0  0  0  0  0  0  0  0
   59.5650   33.9560   50.7570 C   0  0  0  0  0  0  0  0  0  0  0  0
   60.1260   33.5460   51.9730 C   0  0  0  0  0  0  0  0  0  0  0  0
   59.2920   33.3800   53.1340 C   0  0  0  0  0  0  0  0  0  0  0  0
   58.6220   33.2460   54.0690 N   0  0  0  0  0  0  0  0  0  0  0  0
   61.5020   33.2980   52.0570 C   0  0  0  0  0  0  0  0  0  0  0  0
   62.3130   33.4580   50.9280 C   0  0  0  0  0  0  0  0  0  0  0  0
   61.3700   33.8410   46.3940 C   0  0  0  0  0  0  0  0  0  0  0  0
   59.8720   33.5130   46.4910 C   0  0  0  0  0  0  0  0  0  0  0  0
   57.7470   29.8110   44.3420 N   0  0  0  0  0  0  0  0  0  0  0  0
   57.2690   30.7370   43.3090 C   0  0  0  0  0  0  0  0  0  0  0  0
   57.3230   28.3167   42.1930 H   0  0  0  0  0  0  0  0  0  0  0  0
   57.9716   26.7272   43.0194 H   0  0  0  0  0  0  0  0  0  0  0  0
   59.5914   26.2686   45.7205 H   0  0  0  0  0  0  0  0  0  0  0  0
   54.7620   27.4830   46.3410 H   0  0  0  0  0  0  0  0  0  0  0  0
   59.0454   29.0029   47.2711 H   0  0  0  0  0  0  0  0  0  0  0  0
   60.2724   30.2852   47.3928 H   0  0  0  0  0  0  0  0  0  0  0  0
   61.3630   30.8659   46.0854 H   0  0  0  0  0  0  0  0  0  0  0  0
   60.9404   32.1895   48.8146 H   0  0  0  0  0  0  0  0  0  0  0  0
   62.3882   31.2334   48.2783 H   0  0  0  0  0  0  0  0  0  0  0  0
   63.6739   33.7956   48.7665 H   0  0  0  0  0  0  0  0  0  0  0  0
   62.5632   35.0747   48.1459 H   0  0  0  0  0  0  0  0  0  0  0  0
   59.9282   34.4369   48.6753 H   0  0  0  0  0  0  0  0  0  0  0  0
   58.4849   34.1534   50.6901 H   0  0  0  0  0  0  0  0  0  0  0  0
   61.9454   32.9772   53.0112 H   0  0  0  0  0  0  0  0  0  0  0  0
   63.3934   33.2638   50.9985 H   0  0  0  0  0  0  0  0  0  0  0  0
   61.4991   34.9245   46.5333 H   0  0  0  0  0  0  0  0  0  0  0  0
   61.7119   33.5044   45.4041 H   0  0  0  0  0  0  0  0  0  0  0  0
   59.4764   33.8998   47.4418 H   0  0  0  0  0  0  0  0  0  0  0  0
   59.3469   33.9827   45.6462 H   0  0  0  0  0  0  0  0  0  0  0  0
   56.8147   31.6172   43.7874 H   0  0  0  0  0  0  0  0  0  0  0  0
   58.1151   31.0560   42.6826 H   0  0  0  0  0  0  0  0  0  0  0  0
   56.5189   30.2320   42.6826 H   0  0  0  0  0  0  0  0  0  0  0  0
  1  2  2  0
  2  3  1  0
  3  4  2  3
  4  5  1  0
  5  6  1  0
  6  7  1  0
  7  8  2  0
  7  9  1  0
  9 10  1  0
 10 11  1  0
  3 12  1  0
 12 13  2  0
 13 14  1  0
 14 15  2  0
 14 16  1  0
 16 17  1  0
 17 18  1  0
 18 19  1  0
 19 20  1  0
 20 21  1  0
 21 22  2  0
 22 23  1  0
 23 24  2  0
 24 25  1  0
 25 26  3  0
 24 27  1  0
 27 28  2  0
 19 29  1  0
 29 30  1  0
 13 31  1  0
 31 32  1  0
 31  2  1  0
 10  5  2  0
 30 16  1  0
 28 21  1  0
  1 33  1  0
  1 34  1  0
  4 35  1  0
 11 36  1  0
 12 37  1  0
 17 38  1  0
 17 39  1  0
 18 40  1  0
 18 41  1  0
 20 42  1  0
 20 43  1  0
 22 44  1  0
 23 45  1  0
 27 46  1  0
 28 47  1  0
 29 48  1  0
 29 49  1  0
 30 50  1  0
 30 51  1  0
 32 52  1  0
 32 53  1  0
 32 54  1  0
M  CHG  2   6  -1   9  -1
M  END
>  <UniqueID>  (16) 
16

>  <SMILES>  (16) 
C=c1c(=Cc2[n-]c(=O)[n-]c2O)cc(C(=O)N2CCN(Cc3ccc(C#N)cc3)CC2)n1C

>  <Energy>  (16) 
136.70617631697658

>  <Genealogy>  (16) 
C=c1c(=Cc2[n-]c(=O)[n-]c2O)cc(C(=O)N2CCN(Cc3ccc(C#N)cc3)CC2)n1C (protonated)
C=c1c(=Cc2[n-]c(=O)[n-]c2O)cc(C(=O)N2CCN(Cc3ccc(C#N)cc3)CC2)n1C (3D coordinates assigned)
C=c1c(=Cc2[n-]c(=O)[n-]c2O)cc(C(=O)N2CCN(Cc3ccc(C#N)cc3)CC2)n1C (nonaromatic ring conformer: 136.70617631697658 kcal/mol)

>  <smiles>  (16) 
C=c1c(=Cc2[nH]c(=O)[nH]c2O)cc(C(=O)N2CCN(Cc3ccc(C#N)cc3)CC2)n1C

>  <score_type>  (16) 
oracle

>  <origin>  (16) 
adg

>  <m_score__min__energy>  (16) 
-13.859999999999999

>  <m_primary>  (16) 
energy

$$$$
16:0
     RDKit          3D

 36 38  0  0  0  0  0  0  0  0999 V2000
   57.3580   31.0930   43.4350 O   0  0  0  0  0  0  0  0  0  0  0  0
   57.2380   30.7980   44.6540 C   0  0  0  0  0  0  0  0  0  0  0  0
   57.1750   31.8570   45.6170 N   0  0  0  0  0  0  0  0  0  0  0  0
   58.1110   32.9370   45.7480 C   0  0  0  0  0  0  0  0  0  0  0  0
   58.3200   33.8490   44.6970 C   0  0  0  0  0  0  0  0  0  0  0  0
   59.2210   34.9060   44.8480 C   0  0  0  0  0  0  0  0  0  0  0  0
   59.9120   35.0710   46.0500 C   0  0  0  0  0  0  0  0  0  0  0  0
   59.6950   34.1840   47.1080 C   0  0  0  0  0  0  0  0  0  0  0  0
   58.7870   33.1260   46.9670 C   0  0  0  0  0  0  0  0  0  0  0  0
   58.5330   32.0010   48.3480 S   0  0  0  0  0  0  0  0  0  0  0  0
   59.1350   30.5190   47.4620 C   0  0  0  0  0  0  0  0  0  0  0  0
   60.5660   30.6870   47.0460 C   0  0  0  0  0  0  0  0  0  0  0  0
   60.9930   30.0710   46.0330 O   0  0  0  0  0  0  0  0  0  0  0  0
   61.4780   31.5420   47.8210 C   0  0  0  0  0  0  0  0  0  0  0  0
   62.4540   32.3690   47.2990 C   0  0  0  0  0  0  0  0  0  0  0  0
   63.0550   32.9650   48.3850 C   0  0  0  0  0  0  0  0  0  0  0  0
   62.4120   32.4680   49.5010 C   0  0  0  0  0  0  0  0  0  0  0  0
   61.4760   31.6230   49.1320 O   0  0  0  0  0  0  0  0  0  0  0  0
   57.1060   29.3800   45.0370 C   0  0  0  0  0  0  0  0  0  0  0  0
   58.1510   28.4990   45.2640 C   0  0  0  0  0  0  0  0  0  0  0  0
   57.5750   27.3040   45.6330 C   0  0  0  0  0  0  0  0  0  0  0  0
   56.2150   27.5260   45.6200 C   0  0  0  0  0  0  0  0  0  0  0  0
   55.2490   26.5770   45.9360 O   0  0  0  0  0  0  0  0  0  0  0  0
   55.9150   28.7890   45.2630 N   0  0  0  0  0  0  0  0  0  0  0  0
   57.7710   33.7291   43.7514 H   0  0  0  0  0  0  0  0  0  0  0  0
   59.3863   35.6094   44.0186 H   0  0  0  0  0  0  0  0  0  0  0  0
   60.6271   35.8990   46.1642 H   0  0  0  0  0  0  0  0  0  0  0  0
   60.2389   34.3168   48.0548 H   0  0  0  0  0  0  0  0  0  0  0  0
   59.0532   29.6452   48.1252 H   0  0  0  0  0  0  0  0  0  0  0  0
   58.5218   30.3763   46.5600 H   0  0  0  0  0  0  0  0  0  0  0  0
   62.6996   32.5198   46.2374 H   0  0  0  0  0  0  0  0  0  0  0  0
   63.8812   33.6910   48.3670 H   0  0  0  0  0  0  0  0  0  0  0  0
   62.6475   32.7383   50.5409 H   0  0  0  0  0  0  0  0  0  0  0  0
   59.2260   28.7117   45.1685 H   0  0  0  0  0  0  0  0  0  0  0  0
   58.0928   26.3669   45.8856 H   0  0  0  0  0  0  0  0  0  0  0  0
   55.0650   26.3240   46.8990 H   0  0  0  0  0  0  0  0  0  0  0  0
  1  2  2  0
  2  3  1  0
  3  4  1  0
  4  5  2  0
  5  6  1  0
  6  7  2  0
  7  8  1  0
  8  9  2  0
  9 10  1  0
 10 11  1  0
 11 12  1  0
 12 13  2  0
 12 14  1  0
 14 15  2  0
 15 16  1  0
 16 17  2  0
 17 18  1  0
  2 19  1  0
 19 20  2  0
 20 21  1  0
 21 22  2  0
 22 23  1  0
 22 24  1  0
  9  4  1  0
 18 14  1  0
 24 19  1  0
  5 25  1  0
  6 26  1  0
  7 27  1  0
  8 28  1  0
 11 29  1  0
 11 30  1  0
 15 31  1  0
 16 32  1  0
 17 33  1  0
 20 34  1  0
 21 35  1  0
 23 36  1  0
M  CHG  2   3  -1  24  -1
M  END
>  <UniqueID>  (17) 
17

>  <SMILES>  (17) 
O=C([N-]c1ccccc1SCC(=O)c1ccco1)c1ccc(O)[n-]1

>  <Energy>  (17) 
88.22595304795763

>  <Genealogy>  (17) 
O=C([N-]c1ccccc1SCC(=O)c1ccco1)c1ccc(O)[n-]1 (protonated)
O=C([N-]c1ccccc1SCC(=O)c1ccco1)c1ccc(O)[n-]1 (3D coordinates assigned)
O=C([N-]c1ccccc1SCC(=O)c1ccco1)c1ccc(O)[n-]1 (optimized conformer: 88.22595304795763 kcal/mol)

>  <smiles>  (17) 
O=C(Nc1ccccc1SCC(=O)c1ccco1)c1ccc(O)[nH]1

>  <score_type>  (17) 
oracle

>  <origin>  (17) 
adg

>  <m_score__min__energy>  (17) 
-11.880000000000001

>  <m_primary>  (17) 
energy

$$$$
17:0
     RDKit          3D

 49 51  0  0  0  0  0  0  0  0999 V2000
   56.2550   29.6660   42.8450 C   0  0  0  0  0  0  0  0  0  0  0  0
   56.9220   29.5270   43.9910 C   0  0  0  0  0  0  0  0  0  0  0  0
   56.9380   28.3850   44.7050 N   0  0  0  0  0  0  0  0  0  0  0  0
   57.6890   28.6050   45.8060 C   0  0  0  0  0  0  0  0  0  0  0  0
   57.8780   27.6500   46.7360 C   0  0  0  0  0  0  0  0  0  0  0  0
   57.4040   26.2580   46.6390 C   0  0  0  0  0  0  0  0  0  0  0  0
   58.1210   25.1730   47.0050 N   0  0  0  0  0  0  0  0  0  0  0  0
   57.2530   24.1480   46.8590 C   0  0  0  0  0  0  0  0  0  0  0  0
   57.5580   22.9540   47.1150 O   0  0  0  0  0  0  0  0  0  0  0  0
   56.0310   24.5310   46.4330 N   0  0  0  0  0  0  0  0  0  0  0  0
   54.8380   23.7060   46.2820 C   0  0  0  0  0  0  0  0  0  0  0  0
   56.1210   25.8660   46.3270 C   0  0  0  0  0  0  0  0  0  0  0  0
   55.0680   26.7040   45.9740 O   0  0  0  0  0  0  0  0  0  0  0  0
   58.1830   29.9140   45.7790 C   0  0  0  0  0  0  0  0  0  0  0  0
   59.2170   30.5110   46.6470 C   0  0  0  0  0  0  0  0  0  0  0  0
   60.2510   29.8330   46.8990 O   0  0  0  0  0  0  0  0  0  0  0  0
   59.0790   31.8390   47.1930 N   0  0  0  0  0  0  0  0  0  0  0  0
   60.2350   32.4620   47.8490 C   0  0  0  0  0  0  0  0  0  0  0  0
   59.8890   33.8640   48.3690 C   0  0  0  0  0  0  0  0  0  0  0  0
   59.1370   34.6420   47.3610 N   0  0  0  0  0  0  0  0  0  0  0  0
   59.9870   35.0280   46.2130 C   0  0  0  0  0  0  0  0  0  0  0  0
   59.2080   34.9040   44.9060 C   0  0  0  0  0  0  0  0  0  0  0  0
   57.8680   33.9840   46.9390 C   0  0  0  0  0  0  0  0  0  0  0  0
   57.7680   32.4930   47.3130 C   0  0  0  0  0  0  0  0  0  0  0  0
   57.6930   30.4950   44.6150 C   0  0  0  0  0  0  0  0  0  0  0  0
   57.9800   31.8770   44.1030 C   0  0  0  0  0  0  0  0  0  0  0  0
   56.2801   30.6250   42.3068 H   0  0  0  0  0  0  0  0  0  0  0  0
   55.6795   28.8217   42.4377 H   0  0  0  0  0  0  0  0  0  0  0  0
   56.4410   27.4970   44.4610 H   0  0  0  0  0  0  0  0  0  0  0  0
   58.4321   27.9321   47.6434 H   0  0  0  0  0  0  0  0  0  0  0  0
   54.4497   23.4375   47.2756 H   0  0  0  0  0  0  0  0  0  0  0  0
   54.0714   24.2678   45.7283 H   0  0  0  0  0  0  0  0  0  0  0  0
   55.0930   22.7904   45.7283 H   0  0  0  0  0  0  0  0  0  0  0  0
   60.5496   31.8331   48.6949 H   0  0  0  0  0  0  0  0  0  0  0  0
   61.0461   32.5543   47.1117 H   0  0  0  0  0  0  0  0  0  0  0  0
   59.2761   33.7678   49.2773 H   0  0  0  0  0  0  0  0  0  0  0  0
   60.8278   34.3944   48.5865 H   0  0  0  0  0  0  0  0  0  0  0  0
   60.3166   36.0697   46.3406 H   0  0  0  0  0  0  0  0  0  0  0  0
   60.8578   34.3571   46.1734 H   0  0  0  0  0  0  0  0  0  0  0  0
   58.1440   34.7346   45.1280 H   0  0  0  0  0  0  0  0  0  0  0  0
   59.3181   35.8310   44.3241 H   0  0  0  0  0  0  0  0  0  0  0  0
   59.6005   34.0570   44.3241 H   0  0  0  0  0  0  0  0  0  0  0  0
   57.0305   34.5149   47.4153 H   0  0  0  0  0  0  0  0  0  0  0  0
   57.8391   34.0342   45.8405 H   0  0  0  0  0  0  0  0  0  0  0  0
   57.4134   32.4038   48.3505 H   0  0  0  0  0  0  0  0  0  0  0  0
   57.0633   32.0021   46.6257 H   0  0  0  0  0  0  0  0  0  0  0  0
   58.1220   32.5607   44.9529 H   0  0  0  0  0  0  0  0  0  0  0  0
   58.8935   31.8587   43.4905 H   0  0  0  0  0  0  0  0  0  0  0  0
   57.1347   32.2240   43.4905 H   0  0  0  0  0  0  0  0  0  0  0  0
  1  2  2  0
  2  3  1  0
  3  4  1  0
  4  5  2  3
  5  6  1  0
  6  7  1  0
  7  8  1  0
  8  9  2  0
  8 10  1  0
 10 11  1  0
 10 12  1  0
 12 13  1  0
  4 14  1  0
 14 15  1  0
 15 16  2  0
 15 17  1  0
 17 18  1  0
 18 19  1  0
 19 20  1  0
 20 21  1  0
 21 22  1  0
 20 23  1  0
 23 24  1  0
 14 25  2  0
 25 26  1  0
 25  2  1  0
 12  6  2  0
 24 17  1  0
  1 27  1  0
  1 28  1  0
  3 29  1  0
  5 30  1  0
 11 31  1  0
 11 32  1  0
 11 33  1  0
 18 34  1  0
 18 35  1  0
 19 36  1  0
 19 37  1  0
 21 38  1  0
 21 39  1  0
 22 40  1  0
 22 41  1  0
 22 42  1  0
 23 43  1  0
 23 44  1  0
 24 45  1  0
 24 46  1  0
 26 47  1  0
 26 48  1  0
 26 49  1  0
M  CHG  2   7  -1  13  -1
M  END
>  <UniqueID>  (18) 
18

>  <SMILES>  (18) 
C=c1[nH]c(=Cc2[n-]c(=O)n(C)c2[O-])c(C(=O)N2CCN(CC)CC2)c1C

>  <Energy>  (18) 
125.33038936118295

>  <Genealogy>  (18) 
C=c1[nH]c(=Cc2[n-]c(=O)n(C)c2[O-])c(C(=O)N2CCN(CC)CC2)c1C (protonated)
C=c1[nH]c(=Cc2[n-]c(=O)n(C)c2[O-])c(C(=O)N2CCN(CC)CC2)c1C (3D coordinates assigned)
C=c1[nH]c(=Cc2[n-]c(=O)n(C)c2[O-])c(C(=O)N2CCN(CC)CC2)c1C (nonaromatic ring conformer: 125.33038936118295 kcal/mol)

>  <smiles>  (18) 
C=c1[nH]c(=Cc2[nH]c(=O)n(C)c2O)c(C(=O)N2CCN(CC)CC2)c1C

>  <score_type>  (18) 
oracle

>  <origin>  (18) 
adg

>  <m_score__min__energy>  (18) 
-14.31

>  <m_primary>  (18) 
energy

$$$$
18:0
     RDKit          3D

 60 63  0  0  0  0  0  0  0  0999 V2000
   67.3600   32.8520   50.4830 C   0  0  0  0  0  0  0  0  0  0  0  0
   66.1000   32.2620   51.0310 C   0  0  0  0  0  0  0  0  0  0  0  0
   66.1260   31.7520   52.1840 O   0  0  0  0  0  0  0  0  0  0  0  0
   64.8660   32.2760   50.2820 N   0  0  0  0  0  0  0  0  0  0  0  0
   64.7100   33.1010   49.0720 C   0  0  0  0  0  0  0  0  0  0  0  0
   63.2950   33.6910   49.0050 C   0  0  0  0  0  0  0  0  0  0  0  0
   62.1750   32.6280   49.1890 C   0  0  0  0  0  0  0  0  0  0  0  0
   61.3220   32.5040   47.9500 C   0  0  0  0  0  0  0  0  0  0  0  0
   61.6730   31.7020   47.0420 O   0  0  0  0  0  0  0  0  0  0  0  0
   60.1050   33.2590   47.8230 N   0  0  0  0  0  0  0  0  0  0  0  0
   59.3310   33.3250   46.6140 C   0  0  0  0  0  0  0  0  0  0  0  0
   59.0390   34.5750   46.0500 C   0  0  0  0  0  0  0  0  0  0  0  0
   58.2880   34.6620   44.8760 C   0  0  0  0  0  0  0  0  0  0  0  0
   57.8280   33.5020   44.2500 C   0  0  0  0  0  0  0  0  0  0  0  0
   58.1170   32.2420   44.7940 C   0  0  0  0  0  0  0  0  0  0  0  0
   57.6390   30.9950   44.0920 C   0  0  0  0  0  0  0  0  0  0  0  0
   56.8800   30.1540   44.9630 O   0  0  0  0  0  0  0  0  0  0  0  0
   57.3600   28.9980   45.6020 C   0  0  0  0  0  0  0  0  0  0  0  0
   58.5980   29.0690   46.2490 C   0  0  0  0  0  0  0  0  0  0  0  0
   59.1030   27.9620   46.9340 C   0  0  0  0  0  0  0  0  0  0  0  0
   58.3770   26.7700   46.9710 C   0  0  0  0  0  0  0  0  0  0  0  0
   57.1510   26.6660   46.3030 C   0  0  0  0  0  0  0  0  0  0  0  0
   56.4190   25.4360   46.3970 N   0  0  0  0  0  0  0  0  0  0  0  0
   55.2230   25.0980   45.6800 C   0  0  0  0  0  0  0  0  0  0  0  0
   54.2560   25.9020   45.6410 O   0  0  0  0  0  0  0  0  0  0  0  0
   55.1100   23.7980   44.9320 C   0  0  0  0  0  0  0  0  0  0  0  0
   56.4180   23.0330   44.8040 C   0  0  0  0  0  0  0  0  0  0  0  0
   55.8120   23.7100   43.5840 C   0  0  0  0  0  0  0  0  0  0  0  0
   56.6380   27.7880   45.6250 C   0  0  0  0  0  0  0  0  0  0  0  0
   58.8990   32.1590   45.9590 C   0  0  0  0  0  0  0  0  0  0  0  0
   62.7110   31.2450   49.6050 C   0  0  0  0  0  0  0  0  0  0  0  0
   63.7790   31.3750   50.6960 C   0  0  0  0  0  0  0  0  0  0  0  0
   68.0132   33.1578   51.3136 H   0  0  0  0  0  0  0  0  0  0  0  0
   67.8777   32.1027   49.8662 H   0  0  0  0  0  0  0  0  0  0  0  0
   67.1160   33.7295   49.8662 H   0  0  0  0  0  0  0  0  0  0  0  0
   65.4435   33.9204   49.0951 H   0  0  0  0  0  0  0  0  0  0  0  0
   64.8756   32.4700   48.1863 H   0  0  0  0  0  0  0  0  0  0  0  0
   63.1936   34.4457   49.7988 H   0  0  0  0  0  0  0  0  0  0  0  0
   63.1704   34.1246   48.0018 H   0  0  0  0  0  0  0  0  0  0  0  0
   61.5519   32.9951   50.0179 H   0  0  0  0  0  0  0  0  0  0  0  0
   59.7040   33.6960   48.6830 H   0  0  0  0  0  0  0  0  0  0  0  0
   59.4036   35.4924   46.5351 H   0  0  0  0  0  0  0  0  0  0  0  0
   58.0583   35.6469   44.4434 H   0  0  0  0  0  0  0  0  0  0  0  0
   57.2361   33.5766   43.3258 H   0  0  0  0  0  0  0  0  0  0  0  0
   57.0082   31.2860   43.2391 H   0  0  0  0  0  0  0  0  0  0  0  0
   58.5221   30.4316   43.7563 H   0  0  0  0  0  0  0  0  0  0  0  0
   59.1778   30.0033   46.2180 H   0  0  0  0  0  0  0  0  0  0  0  0
   60.0746   28.0292   47.4454 H   0  0  0  0  0  0  0  0  0  0  0  0
   58.7707   25.9073   47.5284 H   0  0  0  0  0  0  0  0  0  0  0  0
   54.0894   23.5762   45.2772 H   0  0  0  0  0  0  0  0  0  0  0  0
   57.3366   23.4350   45.2563 H   0  0  0  0  0  0  0  0  0  0  0  0
   56.7475   22.0110   45.0426 H   0  0  0  0  0  0  0  0  0  0  0  0
   56.2920   24.6017   43.1544 H   0  0  0  0  0  0  0  0  0  0  0  0
   55.5215   23.3808   42.5754 H   0  0  0  0  0  0  0  0  0  0  0  0
   55.6682   27.7199   45.1103 H   0  0  0  0  0  0  0  0  0  0  0  0
   59.1752   31.1732   46.3614 H   0  0  0  0  0  0  0  0  0  0  0  0
   61.8782   30.6367   49.9876 H   0  0  0  0  0  0  0  0  0  0  0  0
   63.1656   30.7663   48.7251 H   0  0  0  0  0  0  0  0  0  0  0  0
   63.3115   31.7745   51.6080 H   0  0  0  0  0  0  0  0  0  0  0  0
   64.2077   30.3788   50.8797 H   0  0  0  0  0  0  0  0  0  0  0  0
  1  2  1  0
  2  3  2  0
  2  4  1  0
  4  5  1  0
  5  6  1  0
  6  7  1  0
  7  8  1  0
  8  9  2  0
  8 10  1  0
 10 11  1  0
 11 12  2  0
 12 13  1  0
 13 14  2  0
 14 15  1  0
 15 16  1  0
 16 17  1  0
 17 18  1  0
 18 19  2  0
 19 20  1  0
 20 21  2  0
 21 22  1  0
 22 23  1  0
 23 24  1  0
 24 25  2  0
 24 26  1  0
 26 27  1  0
 27 28  1  0
 22 29  2  0
 15 30  2  0
  7 31  1  0
 31 32  1  0
 32  4  1  0
 30 11  1  0
 29 18  1  0
 28 26  1  0
  1 33  1  0
  1 34  1  0
  1 35  1  0
  5 36  1  0
  5 37  1  0
  6 38  1  0
  6 39  1  0
  7 40  1  0
 10 41  1  0
 12 42  1  0
 13 43  1  0
 14 44  1  0
 16 45  1  0
 16 46  1  0
 19 47  1  0
 20 48  1  0
 21 49  1  0
 26 50  1  0
 27 51  1  0
 27 52  1  0
 28 53  1  0
 28 54  1  0
 29 55  1  0
 30 56  1  0
 31 57  1  0
 31 58  1  0
 32 59  1  0
 32 60  1  0
M  CHG  1  23  -1
M  END
>  <UniqueID>  (19) 
19

>  <SMILES>  (19) 
CC(=O)N1CCC(C(=O)Nc2cccc(COc3cccc([N-]C(=O)C4CC4)c3)c2)CC1

>  <Energy>  (19) 
332.9814219146109

>  <Genealogy>  (19) 
CC(=O)N1CCC(C(=O)Nc2cccc(COc3cccc([N-]C(=O)C4CC4)c3)c2)CC1 (protonated)
CC(=O)N1CCC(C(=O)Nc2cccc(COc3cccc([N-]C(=O)C4CC4)c3)c2)CC1 (3D coordinates assigned)
CC(=O)N1CCC(C(=O)Nc2cccc(COc3cccc([N-]C(=O)C4CC4)c3)c2)CC1 (nonaromatic ring conformer: 332.9814219146109 kcal/mol)

>  <smiles>  (19) 
CC(=O)N1CCC(C(=O)Nc2cccc(COc3cccc(NC(=O)C4CC4)c3)c2)CC1

>  <score_type>  (19) 
oracle

>  <origin>  (19) 
adg

>  <m_score__min__energy>  (19) 
-11.039999999999999

>  <m_primary>  (19) 
energy

$$$$
19:0
     RDKit          3D

 49 52  0  0  0  0  0  0  0  0999 V2000
   59.3690   26.4790   46.3250 O   0  0  0  0  0  0  0  0  0  0  0  0
   58.1190   26.5900   46.1910 C   0  0  0  0  0  0  0  0  0  0  0  0
   57.4520   27.8150   46.5320 N   0  0  0  0  0  0  0  0  0  0  0  0
   57.3020   28.8430   45.7520 C   0  0  0  0  0  0  0  0  0  0  0  0
   56.1090   29.2640   45.2690 N   0  0  0  0  0  0  0  0  0  0  0  0
   56.2560   30.3360   44.4470 C   0  0  0  0  0  0  0  0  0  0  0  0
   57.5690   30.7630   44.2890 C   0  0  0  0  0  0  0  0  0  0  0  0
   58.1070   32.1250   43.2660 S   0  0  0  0  0  0  0  0  0  0  0  0
   58.5830   33.1220   44.6800 C   0  0  0  0  0  0  0  0  0  0  0  0
   58.9150   34.4690   44.4940 C   0  0  0  0  0  0  0  0  0  0  0  0
   59.3080   35.2500   45.5850 C   0  0  0  0  0  0  0  0  0  0  0  0
   59.3630   34.6910   46.8660 C   0  0  0  0  0  0  0  0  0  0  0  0
   59.0120   33.3430   47.0700 C   0  0  0  0  0  0  0  0  0  0  0  0
   59.0770   32.7460   48.4230 C   0  0  0  0  0  0  0  0  0  0  0  0
   58.9290   33.4870   49.4320 O   0  0  0  0  0  0  0  0  0  0  0  0
   59.2970   31.3360   48.6120 N   0  0  0  0  0  0  0  0  0  0  0  0
   58.5370   30.6240   49.6440 C   0  0  0  0  0  0  0  0  0  0  0  0
   58.9760   29.1570   49.7220 C   0  0  0  0  0  0  0  0  0  0  0  0
   60.4400   29.0580   49.8140 N   0  0  0  0  0  0  0  0  0  0  0  0
   61.1620   29.7190   48.7020 C   0  0  0  0  0  0  0  0  0  0  0  0
   60.2800   30.6080   47.8020 C   0  0  0  0  0  0  0  0  0  0  0  0
   58.6360   32.5570   45.9630 C   0  0  0  0  0  0  0  0  0  0  0  0
   58.5850   29.7720   45.1890 S   0  0  0  0  0  0  0  0  0  0  0  0
   57.3330   25.4520   45.6790 C   0  0  0  0  0  0  0  0  0  0  0  0
   58.0170   24.3050   45.2380 C   0  0  0  0  0  0  0  0  0  0  0  0
   57.3230   23.2410   44.6570 C   0  0  0  0  0  0  0  0  0  0  0  0
   58.2120   21.8420   44.0870 Cl  0  0  0  0  0  0  0  0  0  0  0  0
   55.9320   23.3040   44.5230 C   0  0  0  0  0  0  0  0  0  0  0  0
   55.2320   22.2550   43.9390 O   0  0  0  0  0  0  0  0  0  0  0  0
   55.2400   24.4280   44.9800 C   0  0  0  0  0  0  0  0  0  0  0  0
   55.9240   25.5010   45.5700 C   0  0  0  0  0  0  0  0  0  0  0  0
   55.1770   26.5800   46.0570 O   0  0  0  0  0  0  0  0  0  0  0  0
   55.4064   30.8251   43.9481 H   0  0  0  0  0  0  0  0  0  0  0  0
   58.8667   34.9133   43.4889 H   0  0  0  0  0  0  0  0  0  0  0  0
   59.5746   36.3067   45.4356 H   0  0  0  0  0  0  0  0  0  0  0  0
   59.6823   35.3081   47.7188 H   0  0  0  0  0  0  0  0  0  0  0  0
   58.7106   31.1055   50.6176 H   0  0  0  0  0  0  0  0  0  0  0  0
   57.4683   30.6611   49.3863 H   0  0  0  0  0  0  0  0  0  0  0  0
   58.5258   28.6920   50.6114 H   0  0  0  0  0  0  0  0  0  0  0  0
   58.6426   28.6386   48.8109 H   0  0  0  0  0  0  0  0  0  0  0  0
   60.7400   29.4940   50.7200 H   0  0  0  0  0  0  0  0  0  0  0  0
   61.9550   30.3475   49.1335 H   0  0  0  0  0  0  0  0  0  0  0  0
   61.5502   28.9141   48.0605 H   0  0  0  0  0  0  0  0  0  0  0  0
   60.9167   31.3295   47.2689 H   0  0  0  0  0  0  0  0  0  0  0  0
   59.7476   29.9704   47.0808 H   0  0  0  0  0  0  0  0  0  0  0  0
   58.3830   31.4960   46.1052 H   0  0  0  0  0  0  0  0  0  0  0  0
   59.1095   24.2451   45.3517 H   0  0  0  0  0  0  0  0  0  0  0  0
   54.1458   24.4722   44.8760 H   0  0  0  0  0  0  0  0  0  0  0  0
   55.5930   27.4390   46.3870 H   0  0  0  0  0  0  0  0  0  0  0  0
  1  2  2  0
  2  3  1  0
  3  4  2  3
  4  5  1  0
  5  6  1  0
  6  7  2  0
  7  8  1  0
  8  9  1  0
  9 10  2  0
 10 11  1  0
 11 12  2  0
 12 13  1  0
 13 14  1  0
 14 15  2  0
 14 16  1  0
 16 17  1  0
 17 18  1  0
 18 19  1  0
 19 20  1  0
 20 21  1  0
 13 22  2  0
  7 23  1  0
  2 24  1  0
 24 25  2  0
 25 26  1  0
 26 27  1  0
 26 28  2  0
 28 29  1  0
 28 30  1  0
 30 31  2  0
 31 32  1  0
 23  4  1  0
 31 24  1  0
 22  9  1  0
 21 16  1  0
  6 33  1  0
 10 34  1  0
 11 35  1  0
 12 36  1  0
 17 37  1  0
 17 38  1  0
 18 39  1  0
 18 40  1  0
 19 41  1  0
 20 42  1  0
 20 43  1  0
 21 44  1  0
 21 45  1  0
 22 46  1  0
 25 47  1  0
 30 48  1  0
 32 49  1  0
M  CHG  2   5  -1  29  -1
M  END
>  <UniqueID>  (20) 
20

>  <SMILES>  (20) 
O=C(N=c1[n-]cc(Sc2cccc(C(=O)N3CCNCC3)c2)s1)c1cc(Cl)c([O-])cc1O

>  <Energy>  (20) 
96.88676501689075

>  <Genealogy>  (20) 
O=C(N=c1[n-]cc(Sc2cccc(C(=O)N3CCNCC3)c2)s1)c1cc(Cl)c([O-])cc1O (protonated)
O=C(N=c1[n-]cc(Sc2cccc(C(=O)N3CCNCC3)c2)s1)c1cc(Cl)c([O-])cc1O (3D coordinates assigned)
O=C(N=c1[n-]cc(Sc2cccc(C(=O)N3CCNCC3)c2)s1)c1cc(Cl)c([O-])cc1O (nonaromatic ring conformer: 96.88676501689075 kcal/mol)

>  <smiles>  (20) 
O=C(N=c1[nH]cc(Sc2cccc(C(=O)N3CCNCC3)c2)s1)c1cc(Cl)c(O)cc1O

>  <score_type>  (20) 
oracle

>  <origin>  (20) 
adg

>  <m_score__min__energy>  (20) 
-14.5

>  <m_primary>  (20) 
energy

$$$$
20:0
     RDKit          3D

 49 52  0  0  0  0  0  0  0  0999 V2000
   55.9576   29.0195   42.1496 H   0  0  0  0  0  0  0  0  0  0  0  0
   56.6130   29.4080   42.9430 C   0  0  0  0  0  0  0  0  0  0  0  0
   57.1390   28.5620   43.8640 N   0  0  0  0  0  0  0  0  0  0  0  0
   57.9660   28.9930   44.8550 C   0  0  0  0  0  0  0  0  0  0  0  0
   58.6050   27.8150   45.9930 S   0  0  0  0  0  0  0  0  0  0  0  0
   59.4780   26.8070   45.3030 O   0  0  0  0  0  0  0  0  0  0  0  0
   59.4250   28.5500   47.0130 O   0  0  0  0  0  0  0  0  0  0  0  0
   57.3100   27.0160   46.8260 N   0  0  0  0  0  0  0  0  0  0  0  0
   56.3700   26.2420   46.3600 C   0  0  0  0  0  0  0  0  0  0  0  0
   55.1780   26.7120   46.0790 O   0  0  0  0  0  0  0  0  0  0  0  0
   54.3900   25.7790   45.6340 N   0  0  0  0  0  0  0  0  0  0  0  0
   55.0990   24.6340   45.6270 C   0  0  0  0  0  0  0  0  0  0  0  0
   54.5290   23.3180   45.2050 C   0  0  0  0  0  0  0  0  0  0  0  0
   54.2728   22.7266   46.0964 H   0  0  0  0  0  0  0  0  0  0  0  0
   53.6232   23.4865   44.6040 H   0  0  0  0  0  0  0  0  0  0  0  0
   55.2715   22.7726   44.6040 H   0  0  0  0  0  0  0  0  0  0  0  0
   56.3920   24.8760   46.0720 C   0  0  0  0  0  0  0  0  0  0  0  0
   57.4420   23.8270   46.3030 C   0  0  0  0  0  0  0  0  0  0  0  0
   57.5855   23.6837   47.3841 H   0  0  0  0  0  0  0  0  0  0  0  0
   57.1199   22.8792   45.8470 H   0  0  0  0  0  0  0  0  0  0  0  0
   58.3895   24.1500   45.8470 H   0  0  0  0  0  0  0  0  0  0  0  0
   58.3030   30.3570   44.9450 C   0  0  0  0  0  0  0  0  0  0  0  0
   59.1470   30.8260   46.0110 N   0  0  0  0  0  0  0  0  0  0  0  0
   58.8200   31.8890   46.9150 C   0  0  0  0  0  0  0  0  0  0  0  0
   58.2740   31.6320   48.0230 O   0  0  0  0  0  0  0  0  0  0  0  0
   59.1180   33.2900   46.5620 C   0  0  0  0  0  0  0  0  0  0  0  0
   60.2010   34.0740   46.9350 C   0  0  0  0  0  0  0  0  0  0  0  0
   61.4180   33.6570   47.6550 C   0  0  0  0  0  0  0  0  0  0  0  0
   62.6200   33.5030   46.9410 C   0  0  0  0  0  0  0  0  0  0  0  0
   62.6810   33.8200   45.6220 F   0  0  0  0  0  0  0  0  0  0  0  0
   63.7660   33.0260   47.5830 C   0  0  0  0  0  0  0  0  0  0  0  0
   64.7052   32.9182   47.0206 H   0  0  0  0  0  0  0  0  0  0  0  0
   63.7220   32.6860   48.9360 C   0  0  0  0  0  0  0  0  0  0  0  0
   64.6257   32.3100   49.4380 H   0  0  0  0  0  0  0  0  0  0  0  0
   62.5310   32.8230   49.6530 C   0  0  0  0  0  0  0  0  0  0  0  0
   62.4987   32.5497   50.7180 H   0  0  0  0  0  0  0  0  0  0  0  0
   61.3770   33.3070   49.0220 C   0  0  0  0  0  0  0  0  0  0  0  0
   59.8890   33.3990   49.9600 Cl  0  0  0  0  0  0  0  0  0  0  0  0
   60.0310   35.3250   46.4600 N   0  0  0  0  0  0  0  0  0  0  0  0
   58.9010   35.3410   45.8160 O   0  0  0  0  0  0  0  0  0  0  0  0
   58.3190   34.1650   45.8440 C   0  0  0  0  0  0  0  0  0  0  0  0
   57.0040   33.8690   45.1990 C   0  0  0  0  0  0  0  0  0  0  0  0
   56.2446   33.6981   45.9762 H   0  0  0  0  0  0  0  0  0  0  0  0
   56.7025   34.7217   44.5730 H   0  0  0  0  0  0  0  0  0  0  0  0
   57.0969   32.9693   44.5730 H   0  0  0  0  0  0  0  0  0  0  0  0
   57.7400   31.2470   44.0120 C   0  0  0  0  0  0  0  0  0  0  0  0
   57.9603   32.3226   44.0790 H   0  0  0  0  0  0  0  0  0  0  0  0
   56.9040   30.7710   43.0030 C   0  0  0  0  0  0  0  0  0  0  0  0
   56.4781   31.4632   42.2617 H   0  0  0  0  0  0  0  0  0  0  0  0
  1  2  1  0
  2  3  2  0
  3  4  1  0
  4  5  1  0
  5  6  2  0
  5  7  2  0
  5  8  1  0
  8  9  2  0
  9 10  1  0
 10 11  1  0
 11 12  1  0
 12 13  1  0
 13 14  1  0
 13 15  1  0
 13 16  1  0
 12 17  2  0
 17 18  1  0
 18 19  1  0
 18 20  1  0
 18 21  1  0
  4 22  2  0
 22 23  1  0
 23 24  1  0
 24 25  2  0
 24 26  1  0
 26 27  1  0
 27 28  1  0
 28 29  2  0
 29 30  1  0
 29 31  1  0
 31 32  1  0
 31 33  2  0
 33 34  1  0
 33 35  1  0
 35 36  1  0
 35 37  2  0
 37 38  1  0
 27 39  2  0
 39 40  1  0
 40 41  1  0
 41 42  1  0
 42 43  1  0
 42 44  1  0
 42 45  1  0
 22 46  1  0
 46 47  1  0
 46 48  2  0
 48 49  1  0
 48  2  1  0
 17  9  1  0
 41 26  2  0
 37 28  1  0
M  CHG  2  11  -1  23  -1
M  END
>  <UniqueID>  (21) 
21

>  <SMILES>  (21) 
Cc1[n-]o/c(=N/S(=O)(=O)c2ncccc2[N-]C(=O)c2c(-c3c(F)cccc3Cl)noc2C)c1C

>  <Energy>  (21) 
134.32368247853594

>  <Genealogy>  (21) 
Cc1[n-]oc(=NS(=O)(=O)c2ncccc2[N-]C(=O)c2c(-c3c(F)cccc3Cl)noc2C)c1C (protonated)
Cc1[n-]o/c(=N/S(=O)(=O)c2ncccc2[N-]C(=O)c2c(-c3c(F)cccc3Cl)noc2C)c1C (cis-trans isomerization)
Cc1[n-]o/c(=N/S(=O)(=O)c2ncccc2[N-]C(=O)c2c(-c3c(F)cccc3Cl)noc2C)c1C (3D coordinates assigned)
Cc1[n-]o/c(=N/S(=O)(=O)c2ncccc2[N-]C(=O)c2c(-c3c(F)cccc3Cl)noc2C)c1C (optimized conformer: 134.32368247853594 kcal/mol)

>  <smiles>  (21) 
Cc1[nH]oc(=NS(=O)(=O)c2ncccc2NC(=O)c2c(-c3c(F)cccc3Cl)noc2C)c1C

>  <score_type>  (21) 
oracle

>  <origin>  (21) 
adg

>  <m_score__min__energy>  (21) 
-14.51

>  <m_primary>  (21) 
energy

$$$$
21:0
     RDKit          3D

 38 40  0  0  0  0  0  0  0  0999 V2000
   56.0870   26.4560   46.3960 O   0  0  0  0  0  0  0  0  0  0  0  0
   56.9610   26.1740   45.5310 C   0  0  0  0  0  0  0  0  0  0  0  0
   56.6480   25.1020   44.5210 C   0  0  0  0  0  0  0  0  0  0  0  0
   55.5100   24.2440   44.9910 C   0  0  0  0  0  0  0  0  0  0  0  0
   55.5240   22.5570   45.0250 S   0  0  0  0  0  0  0  0  0  0  0  0
   53.9860   22.4730   45.6930 C   0  0  0  0  0  0  0  0  0  0  0  0
   53.3920   21.4000   45.9730 O   0  0  0  0  0  0  0  0  0  0  0  0
   53.4430   23.6900   45.9020 N   0  0  0  0  0  0  0  0  0  0  0  0
   54.2910   24.6790   45.5110 C   0  0  0  0  0  0  0  0  0  0  0  0
   53.9500   26.0230   45.6200 O   0  0  0  0  0  0  0  0  0  0  0  0
   58.2700   26.8810   45.5540 C   0  0  0  0  0  0  0  0  0  0  0  0
   59.2690   26.4810   46.4620 C   0  0  0  0  0  0  0  0  0  0  0  0
   60.5100   27.1160   46.4840 C   0  0  0  0  0  0  0  0  0  0  0  0
   60.7780   28.1570   45.5980 C   0  0  0  0  0  0  0  0  0  0  0  0
   59.8050   28.5680   44.6860 C   0  0  0  0  0  0  0  0  0  0  0  0
   58.5460   27.9380   44.6500 C   0  0  0  0  0  0  0  0  0  0  0  0
   57.5310   28.3690   43.7290 N   0  0  0  0  0  0  0  0  0  0  0  0
   56.4960   29.7430   43.9430 S   0  0  0  0  0  0  0  0  0  0  0  0
   55.3760   29.3750   44.8760 O   0  0  0  0  0  0  0  0  0  0  0  0
   55.9150   30.1330   42.6140 O   0  0  0  0  0  0  0  0  0  0  0  0
   57.4240   31.1000   44.5780 C   0  0  0  0  0  0  0  0  0  0  0  0
   57.6340   32.2420   43.7900 C   0  0  0  0  0  0  0  0  0  0  0  0
   58.3530   33.3270   44.3030 C   0  0  0  0  0  0  0  0  0  0  0  0
   58.8670   33.2760   45.6000 C   0  0  0  0  0  0  0  0  0  0  0  0
   58.6660   32.1390   46.3870 C   0  0  0  0  0  0  0  0  0  0  0  0
   57.9470   31.0510   45.8810 C   0  0  0  0  0  0  0  0  0  0  0  0
   57.7650   29.9550   46.6600 F   0  0  0  0  0  0  0  0  0  0  0  0
   56.3731   25.5747   43.5666 H   0  0  0  0  0  0  0  0  0  0  0  0
   57.5378   24.4683   44.3917 H   0  0  0  0  0  0  0  0  0  0  0  0
   54.3730   26.7150   45.0140 H   0  0  0  0  0  0  0  0  0  0  0  0
   59.0678   25.6573   47.1627 H   0  0  0  0  0  0  0  0  0  0  0  0
   61.2787   26.7945   47.2021 H   0  0  0  0  0  0  0  0  0  0  0  0
   61.7582   28.6559   45.6173 H   0  0  0  0  0  0  0  0  0  0  0  0
   60.0232   29.3909   43.9894 H   0  0  0  0  0  0  0  0  0  0  0  0
   57.2324   32.2842   42.7668 H   0  0  0  0  0  0  0  0  0  0  0  0
   58.5136   34.2216   43.6834 H   0  0  0  0  0  0  0  0  0  0  0  0
   59.4302   34.1309   46.0024 H   0  0  0  0  0  0  0  0  0  0  0  0
   59.0744   32.0994   47.4076 H   0  0  0  0  0  0  0  0  0  0  0  0
  1  2  2  0
  2  3  1  0
  3  4  1  0
  4  5  1  0
  5  6  1  0
  6  7  2  0
  6  8  1  0
  8  9  1  0
  9 10  1  0
  2 11  1  0
 11 12  2  0
 12 13  1  0
 13 14  2  0
 14 15  1  0
 15 16  2  0
 16 17  1  0
 17 18  1  0
 18 19  2  0
 18 20  2  0
 18 21  1  0
 21 22  2  0
 22 23  1  0
 23 24  2  0
 24 25  1  0
 25 26  2  0
 26 27  1  0
  9  4  2  0
 16 11  1  0
 26 21  1  0
  3 28  1  0
  3 29  1  0
 10 30  1  0
 12 31  1  0
 13 32  1  0
 14 33  1  0
 15 34  1  0
 22 35  1  0
 23 36  1  0
 24 37  1  0
 25 38  1  0
M  CHG  2   8  -1  17  -1
M  END
>  <UniqueID>  (22) 
22

>  <SMILES>  (22) 
O=C(Cc1sc(=O)[n-]c1O)c1ccccc1[N-]S(=O)(=O)c1ccccc1F

>  <Energy>  (22) 
78.0665421051834

>  <Genealogy>  (22) 
O=C(Cc1sc(=O)[n-]c1O)c1ccccc1[N-]S(=O)(=O)c1ccccc1F (protonated)
O=C(Cc1sc(=O)[n-]c1O)c1ccccc1[N-]S(=O)(=O)c1ccccc1F (3D coordinates assigned)
O=C(Cc1sc(=O)[n-]c1O)c1ccccc1[N-]S(=O)(=O)c1ccccc1F (optimized conformer: 78.0665421051834 kcal/mol)

>  <smiles>  (22) 
O=C(Cc1sc(=O)[nH]c1O)c1ccccc1NS(=O)(=O)c1ccccc1F

>  <score_type>  (22) 
oracle

>  <origin>  (22) 
adg

>  <m_score__min__energy>  (22) 
-12.970000000000001

>  <m_primary>  (22) 
energy

$$$$
22:0
     RDKit          3D

 43 45  0  0  0  0  0  0  0  0999 V2000
   55.6810   27.2800   45.6610 O   0  0  0  0  0  0  0  0  0  0  0  0
   56.4420   28.1830   45.2260 C   0  0  0  0  0  0  0  0  0  0  0  0
   57.8370   27.9050   45.0780 N   0  0  0  0  0  0  0  0  0  0  0  0
   58.8920   28.8480   45.4340 C   0  0  0  0  0  0  0  0  0  0  0  0
   59.2910   28.6740   46.8770 C   0  0  0  0  0  0  0  0  0  0  0  0
   60.0640   27.5690   47.2700 C   0  0  0  0  0  0  0  0  0  0  0  0
   60.4540   27.4190   48.6030 C   0  0  0  0  0  0  0  0  0  0  0  0
   60.0750   28.3690   49.5550 C   0  0  0  0  0  0  0  0  0  0  0  0
   59.3040   29.4720   49.1760 C   0  0  0  0  0  0  0  0  0  0  0  0
   58.8360   30.6600   50.3830 Cl  0  0  0  0  0  0  0  0  0  0  0  0
   58.9120   29.6280   47.8400 C   0  0  0  0  0  0  0  0  0  0  0  0
   58.1680   30.7050   47.4780 F   0  0  0  0  0  0  0  0  0  0  0  0
   55.9340   29.4920   44.9350 N   0  0  0  0  0  0  0  0  0  0  0  0
   56.6350   30.5640   44.2880 C   0  0  0  0  0  0  0  0  0  0  0  0
   57.1650   31.6500   45.0100 C   0  0  0  0  0  0  0  0  0  0  0  0
   57.8180   32.6990   44.3420 C   0  0  0  0  0  0  0  0  0  0  0  0
   58.3910   33.8210   45.1120 C   0  0  0  0  0  0  0  0  0  0  0  0
   58.1390   35.0000   44.7470 O   0  0  0  0  0  0  0  0  0  0  0  0
   59.2350   33.5960   46.2570 N   0  0  0  0  0  0  0  0  0  0  0  0
   59.5330   34.6400   47.2250 C   0  0  0  0  0  0  0  0  0  0  0  0
   60.7360   34.1420   48.0160 C   0  0  0  0  0  0  0  0  0  0  0  0
   60.8510   32.6500   47.7150 C   0  0  0  0  0  0  0  0  0  0  0  0
   60.0740   32.4210   46.4260 C   0  0  0  0  0  0  0  0  0  0  0  0
   57.9550   32.6460   42.9470 C   0  0  0  0  0  0  0  0  0  0  0  0
   57.4080   31.5830   42.2250 C   0  0  0  0  0  0  0  0  0  0  0  0
   56.7410   30.5520   42.8920 C   0  0  0  0  0  0  0  0  0  0  0  0
   56.2130   29.5270   42.1760 F   0  0  0  0  0  0  0  0  0  0  0  0
   59.7677   28.6705   44.7924 H   0  0  0  0  0  0  0  0  0  0  0  0
   58.5172   29.8721   45.2896 H   0  0  0  0  0  0  0  0  0  0  0  0
   60.3638   26.8179   46.5243 H   0  0  0  0  0  0  0  0  0  0  0  0
   61.0603   26.5518   48.9036 H   0  0  0  0  0  0  0  0  0  0  0  0
   60.3836   28.2489   50.6040 H   0  0  0  0  0  0  0  0  0  0  0  0
   57.0671   31.6773   46.1053 H   0  0  0  0  0  0  0  0  0  0  0  0
   59.7760   35.5813   46.7104 H   0  0  0  0  0  0  0  0  0  0  0  0
   58.6729   34.8416   47.8805 H   0  0  0  0  0  0  0  0  0  0  0  0
   61.6477   34.6676   47.6959 H   0  0  0  0  0  0  0  0  0  0  0  0
   60.6135   34.3268   49.0934 H   0  0  0  0  0  0  0  0  0  0  0  0
   61.9056   32.3673   47.5810 H   0  0  0  0  0  0  0  0  0  0  0  0
   60.4523   32.0407   48.5395 H   0  0  0  0  0  0  0  0  0  0  0  0
   60.7641   32.3173   45.5757 H   0  0  0  0  0  0  0  0  0  0  0  0
   59.4760   31.4989   46.4714 H   0  0  0  0  0  0  0  0  0  0  0  0
   58.4958   33.4454   42.4193 H   0  0  0  0  0  0  0  0  0  0  0  0
   57.5024   31.5573   41.1294 H   0  0  0  0  0  0  0  0  0  0  0  0
  1  2  2  0
  2  3  1  0
  3  4  1  0
  4  5  1  0
  5  6  2  0
  6  7  1  0
  7  8  2  0
  8  9  1  0
  9 10  1  0
  9 11  2  0
 11 12  1  0
  2 13  1  0
 13 14  1  0
 14 15  2  0
 15 16  1  0
 16 17  1  0
 17 18  2  0
 17 19  1  0
 19 20  1  0
 20 21  1  0
 21 22  1  0
 22 23  1  0
 16 24  2  0
 24 25  1  0
 25 26  2  0
 26 27  1  0
 11  5  1  0
 26 14  1  0
 23 19  1  0
  4 28  1  0
  4 29  1  0
  6 30  1  0
  7 31  1  0
  8 32  1  0
 15 33  1  0
 20 34  1  0
 20 35  1  0
 21 36  1  0
 21 37  1  0
 22 38  1  0
 22 39  1  0
 23 40  1  0
 23 41  1  0
 24 42  1  0
 25 43  1  0
M  CHG  2   3  -1  13  -1
M  END
>  <UniqueID>  (23) 
23

>  <SMILES>  (23) 
O=C([N-]Cc1cccc(Cl)c1F)[N-]c1cc(C(=O)N2CCCC2)ccc1F

>  <Energy>  (23) 
49.82423446481856

>  <Genealogy>  (23) 
O=C([N-]Cc1cccc(Cl)c1F)[N-]c1cc(C(=O)N2CCCC2)ccc1F (protonated)
O=C([N-]Cc1cccc(Cl)c1F)[N-]c1cc(C(=O)N2CCCC2)ccc1F (3D coordinates assigned)
O=C([N-]Cc1cccc(Cl)c1F)[N-]c1cc(C(=O)N2CCCC2)ccc1F (nonaromatic ring conformer: 49.82423446481856 kcal/mol)

>  <smiles>  (23) 
O=C(NCc1cccc(Cl)c1F)Nc1cc(C(=O)N2CCCC2)ccc1F

>  <score_type>  (23) 
oracle

>  <origin>  (23) 
adg

>  <m_score__min__energy>  (23) 
-11.960000000000001

>  <m_primary>  (23) 
energy

$$$$
23:0
     RDKit          3D

 52 55  0  0  0  0  0  0  0  0999 V2000
   55.5260   28.9890   45.1900 O   0  0  0  0  0  0  0  0  0  0  0  0
   56.7360   29.3440   45.1810 C   0  0  0  0  0  0  0  0  0  0  0  0
   57.6940   28.6540   45.9950 N   0  0  0  0  0  0  0  0  0  0  0  0
   58.7240   29.2570   46.7900 C   0  0  0  0  0  0  0  0  0  0  0  0
   59.9860   29.4540   46.2180 C   0  0  0  0  0  0  0  0  0  0  0  0
   61.0190   30.0240   46.9650 C   0  0  0  0  0  0  0  0  0  0  0  0
   60.8050   30.3870   48.2970 C   0  0  0  0  0  0  0  0  0  0  0  0
   59.5540   30.1710   48.8920 C   0  0  0  0  0  0  0  0  0  0  0  0
   59.2890   30.6080   50.5820 S   0  0  0  0  0  0  0  0  0  0  0  0
   60.4370   31.4560   51.0510 O   0  0  0  0  0  0  0  0  0  0  0  0
   59.2630   29.3560   51.4130 O   0  0  0  0  0  0  0  0  0  0  0  0
   57.7650   31.5130   50.8680 C   0  0  0  0  0  0  0  0  0  0  0  0
   57.0790   31.2590   52.2000 C   0  0  0  0  0  0  0  0  0  0  0  0
   57.8360   32.5570   51.9690 C   0  0  0  0  0  0  0  0  0  0  0  0
   58.5190   29.5970   48.1400 C   0  0  0  0  0  0  0  0  0  0  0  0
   57.1550   30.5120   44.3700 C   0  0  0  0  0  0  0  0  0  0  0  0
   56.9750   30.5150   42.9740 C   0  0  0  0  0  0  0  0  0  0  0  0
   57.3800   31.6100   42.2090 C   0  0  0  0  0  0  0  0  0  0  0  0
   57.9670   32.7180   42.8240 C   0  0  0  0  0  0  0  0  0  0  0  0
   58.1420   32.7420   44.2150 C   0  0  0  0  0  0  0  0  0  0  0  0
   58.8160   33.9130   44.8690 C   0  0  0  0  0  0  0  0  0  0  0  0
   58.2860   34.0830   46.2150 N   0  0  0  0  0  0  0  0  0  0  0  0
   58.8940   33.5000   47.3700 C   0  0  0  0  0  0  0  0  0  0  0  0
   58.1870   32.8770   48.2080 O   0  0  0  0  0  0  0  0  0  0  0  0
   60.3590   33.5670   47.5510 C   0  0  0  0  0  0  0  0  0  0  0  0
   61.1800   33.5080   46.4100 C   0  0  0  0  0  0  0  0  0  0  0  0
   62.5640   33.6460   46.5240 C   0  0  0  0  0  0  0  0  0  0  0  0
   63.1490   33.8440   47.7740 C   0  0  0  0  0  0  0  0  0  0  0  0
   62.3520   33.8810   48.9220 C   0  0  0  0  0  0  0  0  0  0  0  0
   63.1210   34.1000   50.4880 Cl  0  0  0  0  0  0  0  0  0  0  0  0
   60.9600   33.7220   48.8270 C   0  0  0  0  0  0  0  0  0  0  0  0
   60.2140   33.6870   50.0080 O   0  0  0  0  0  0  0  0  0  0  0  0
   57.7480   31.6330   44.9820 C   0  0  0  0  0  0  0  0  0  0  0  0
   60.1653   29.1581   45.1738 H   0  0  0  0  0  0  0  0  0  0  0  0
   62.0040   30.1876   46.5034 H   0  0  0  0  0  0  0  0  0  0  0  0
   61.6190   30.8429   48.8797 H   0  0  0  0  0  0  0  0  0  0  0  0
   57.4412   31.5013   49.8168 H   0  0  0  0  0  0  0  0  0  0  0  0
   55.9809   31.2664   52.2635 H   0  0  0  0  0  0  0  0  0  0  0  0
   57.1171   30.4598   52.9549 H   0  0  0  0  0  0  0  0  0  0  0  0
   57.2856   33.5038   51.8655 H   0  0  0  0  0  0  0  0  0  0  0  0
   58.6489   33.0863   52.4878 H   0  0  0  0  0  0  0  0  0  0  0  0
   57.5410   29.4114   48.6081 H   0  0  0  0  0  0  0  0  0  0  0  0
   56.5114   29.6473   42.4819 H   0  0  0  0  0  0  0  0  0  0  0  0
   57.2364   31.6002   41.1185 H   0  0  0  0  0  0  0  0  0  0  0  0
   58.2930   33.5743   42.2154 H   0  0  0  0  0  0  0  0  0  0  0  0
   59.8997   33.7313   44.9210 H   0  0  0  0  0  0  0  0  0  0  0  0
   58.6268   34.8230   44.2807 H   0  0  0  0  0  0  0  0  0  0  0  0
   60.7272   33.3518   45.4198 H   0  0  0  0  0  0  0  0  0  0  0  0
   63.1955   33.5984   45.6246 H   0  0  0  0  0  0  0  0  0  0  0  0
   64.2385   33.9712   47.8570 H   0  0  0  0  0  0  0  0  0  0  0  0
   59.3960   33.1080   50.1320 H   0  0  0  0  0  0  0  0  0  0  0  0
   57.9042   31.6404   46.0708 H   0  0  0  0  0  0  0  0  0  0  0  0
  1  2  2  0
  2  3  1  0
  3  4  1  0
  4  5  2  0
  5  6  1  0
  6  7  2  0
  7  8  1  0
  8  9  1  0
  9 10  2  0
  9 11  2  0
  9 12  1  0
 12 13  1  0
 13 14  1  0
  8 15  2  0
  2 16  1  0
 16 17  2  0
 17 18  1  0
 18 19  2  0
 19 20  1  0
 20 21  1  0
 21 22  1  0
 22 23  1  0
 23 24  2  0
 23 25  1  0
 25 26  2  0
 26 27  1  0
 27 28  2  0
 28 29  1  0
 29 30  1  0
 29 31  2  0
 31 32  1  0
 20 33  2  0
 15  4  1  0
 33 16  1  0
 14 12  1  0
 31 25  1  0
  5 34  1  0
  6 35  1  0
  7 36  1  0
 12 37  1  0
 13 38  1  0
 13 39  1  0
 14 40  1  0
 14 41  1  0
 15 42  1  0
 17 43  1  0
 18 44  1  0
 19 45  1  0
 21 46  1  0
 21 47  1  0
 26 48  1  0
 27 49  1  0
 28 50  1  0
 32 51  1  0
 33 52  1  0
M  CHG  2   3  -1  22  -1
M  END
>  <UniqueID>  (24) 
24

>  <SMILES>  (24) 
O=C([N-]c1cccc(S(=O)(=O)C2CC2)c1)c1cccc(C[N-]C(=O)c2cccc(Cl)c2O)c1

>  <Energy>  (24) 
325.9492343995087

>  <Genealogy>  (24) 
O=C([N-]c1cccc(S(=O)(=O)C2CC2)c1)c1cccc(C[N-]C(=O)c2cccc(Cl)c2O)c1 (protonated)
O=C([N-]c1cccc(S(=O)(=O)C2CC2)c1)c1cccc(C[N-]C(=O)c2cccc(Cl)c2O)c1 (3D coordinates assigned)
O=C([N-]c1cccc(S(=O)(=O)C2CC2)c1)c1cccc(C[N-]C(=O)c2cccc(Cl)c2O)c1 (nonaromatic ring conformer: 325.9492343995087 kcal/mol)

>  <smiles>  (24) 
O=C(Nc1cccc(S(=O)(=O)C2CC2)c1)c1cccc(CNC(=O)c2cccc(Cl)c2O)c1

>  <score_type>  (24) 
oracle

>  <origin>  (24) 
adg

>  <m_score__min__energy>  (24) 
-13.49

>  <m_primary>  (24) 
energy

$$$$
24:0
     RDKit          3D

 54 57  0  0  0  0  0  0  0  0999 V2000
   59.7110   26.1030   46.2200 O   0  0  0  0  0  0  0  0  0  0  0  0
   58.9170   26.6410   47.0400 C   0  0  0  0  0  0  0  0  0  0  0  0
   57.4990   26.4980   46.8550 N   0  0  0  0  0  0  0  0  0  0  0  0
   56.9010   25.4620   46.0540 C   0  0  0  0  0  0  0  0  0  0  0  0
   57.6290   24.3090   45.7030 C   0  0  0  0  0  0  0  0  0  0  0  0
   57.0320   23.2980   44.9410 C   0  0  0  0  0  0  0  0  0  0  0  0
   57.9500   21.8680   44.5040 Cl  0  0  0  0  0  0  0  0  0  0  0  0
   55.7000   23.4230   44.5350 C   0  0  0  0  0  0  0  0  0  0  0  0
   54.9630   24.5540   44.8960 C   0  0  0  0  0  0  0  0  0  0  0  0
   55.5550   25.5690   45.6550 C   0  0  0  0  0  0  0  0  0  0  0  0
   54.8040   26.6860   46.0030 O   0  0  0  0  0  0  0  0  0  0  0  0
   59.4600   27.4620   48.1500 C   0  0  0  0  0  0  0  0  0  0  0  0
   60.5760   27.0310   48.8910 C   0  0  0  0  0  0  0  0  0  0  0  0
   61.0760   27.8120   49.9370 C   0  0  0  0  0  0  0  0  0  0  0  0
   60.4760   29.0330   50.2500 C   0  0  0  0  0  0  0  0  0  0  0  0
   59.3760   29.4860   49.5120 C   0  0  0  0  0  0  0  0  0  0  0  0
   58.6110   31.0250   49.8900 S   0  0  0  0  0  0  0  0  0  0  0  0
   59.5750   31.9100   50.6300 O   0  0  0  0  0  0  0  0  0  0  0  0
   57.3960   30.7730   50.7370 O   0  0  0  0  0  0  0  0  0  0  0  0
   58.1540   31.7950   48.4060 N   0  0  0  0  0  0  0  0  0  0  0  0
   58.9080   32.8080   47.7220 C   0  0  0  0  0  0  0  0  0  0  0  0
   59.8270   33.6270   48.4070 C   0  0  0  0  0  0  0  0  0  0  0  0
   60.5620   34.5950   47.7160 C   0  0  0  0  0  0  0  0  0  0  0  0
   60.3900   34.7560   46.3410 C   0  0  0  0  0  0  0  0  0  0  0  0
   59.4840   33.9490   45.6500 C   0  0  0  0  0  0  0  0  0  0  0  0
   58.7460   32.9670   46.3300 C   0  0  0  0  0  0  0  0  0  0  0  0
   57.7780   32.1390   45.5820 C   0  0  0  0  0  0  0  0  0  0  0  0
   56.6040   32.5690   45.4200 O   0  0  0  0  0  0  0  0  0  0  0  0
   58.1450   30.8540   45.0500 N   0  0  0  0  0  0  0  0  0  0  0  0
   59.3050   30.0940   45.4890 C   0  0  0  0  0  0  0  0  0  0  0  0
   59.2730   28.7960   44.6940 C   0  0  0  0  0  0  0  0  0  0  0  0
   57.8650   28.6900   44.1150 C   0  0  0  0  0  0  0  0  0  0  0  0
   57.2840   30.0970   44.1580 C   0  0  0  0  0  0  0  0  0  0  0  0
   58.8720   28.7030   48.4650 C   0  0  0  0  0  0  0  0  0  0  0  0
   56.8760   27.2490   47.2300 H   0  0  0  0  0  0  0  0  0  0  0  0
   58.6739   24.2021   46.0298 H   0  0  0  0  0  0  0  0  0  0  0  0
   55.2322   22.6312   43.9315 H   0  0  0  0  0  0  0  0  0  0  0  0
   53.9128   24.6466   44.5820 H   0  0  0  0  0  0  0  0  0  0  0  0
   61.0581   26.0732   48.6455 H   0  0  0  0  0  0  0  0  0  0  0  0
   61.9446   27.4635   50.5150 H   0  0  0  0  0  0  0  0  0  0  0  0
   60.8685   29.6407   51.0786 H   0  0  0  0  0  0  0  0  0  0  0  0
   59.9670   33.5043   49.4911 H   0  0  0  0  0  0  0  0  0  0  0  0
   61.2775   35.2311   48.2577 H   0  0  0  0  0  0  0  0  0  0  0  0
   60.9688   35.5195   45.8006 H   0  0  0  0  0  0  0  0  0  0  0  0
   59.3477   34.0833   44.5668 H   0  0  0  0  0  0  0  0  0  0  0  0
   60.2302   30.6503   45.2778 H   0  0  0  0  0  0  0  0  0  0  0  0
   59.2809   29.9067   46.5727 H   0  0  0  0  0  0  0  0  0  0  0  0
   60.0175   28.8253   43.8848 H   0  0  0  0  0  0  0  0  0  0  0  0
   59.5134   27.9299   45.3281 H   0  0  0  0  0  0  0  0  0  0  0  0
   57.9050   28.3250   43.0781 H   0  0  0  0  0  0  0  0  0  0  0  0
   57.2472   27.9823   44.6873 H   0  0  0  0  0  0  0  0  0  0  0  0
   57.2869   30.5434   43.1527 H   0  0  0  0  0  0  0  0  0  0  0  0
   56.2412   30.0937   44.5082 H   0  0  0  0  0  0  0  0  0  0  0  0
   58.0093   29.0605   47.8836 H   0  0  0  0  0  0  0  0  0  0  0  0
  1  2  2  0
  2  3  1  0
  3  4  1  0
  4  5  2  0
  5  6  1  0
  6  7  1  0
  6  8  2  0
  8  9  1  0
  9 10  2  0
 10 11  1  0
  2 12  1  0
 12 13  2  0
 13 14  1  0
 14 15  2  0
 15 16  1  0
 16 17  1  0
 17 18  2  0
 17 19  2  0
 17 20  1  0
 20 21  1  0
 21 22  2  0
 22 23  1  0
 23 24  2  0
 24 25  1  0
 25 26  2  0
 26 27  1  0
 27 28  2  0
 27 29  1  0
 29 30  1  0
 30 31  1  0
 31 32  1  0
 32 33  1  0
 16 34  2  0
 10  4  1  0
 34 12  1  0
 26 21  1  0
 33 29  1  0
  3 35  1  0
  5 36  1  0
  8 37  1  0
  9 38  1  0
 13 39  1  0
 14 40  1  0
 15 41  1  0
 22 42  1  0
 23 43  1  0
 24 44  1  0
 25 45  1  0
 30 46  1  0
 30 47  1  0
 31 48  1  0
 31 49  1  0
 32 50  1  0
 32 51  1  0
 33 52  1  0
 33 53  1  0
 34 54  1  0
M  CHG  2  11  -1  20  -1
M  END
>  <UniqueID>  (25) 
25

>  <SMILES>  (25) 
O=C(Nc1cc(Cl)ccc1[O-])c1cccc(S(=O)(=O)[N-]c2ccccc2C(=O)N2CCCC2)c1

>  <Energy>  (25) 
73.04351838332575

>  <Genealogy>  (25) 
O=C(Nc1cc(Cl)ccc1[O-])c1cccc(S(=O)(=O)[N-]c2ccccc2C(=O)N2CCCC2)c1 (protonated)
O=C(Nc1cc(Cl)ccc1[O-])c1cccc(S(=O)(=O)[N-]c2ccccc2C(=O)N2CCCC2)c1 (3D coordinates assigned)
O=C(Nc1cc(Cl)ccc1[O-])c1cccc(S(=O)(=O)[N-]c2ccccc2C(=O)N2CCCC2)c1 (nonaromatic ring conformer: 73.04351838332575 kcal/mol)

>  <smiles>  (25) 
O=C(Nc1cc(Cl)ccc1O)c1cccc(S(=O)(=O)Nc2ccccc2C(=O)N2CCCC2)c1

>  <score_type>  (25) 
oracle

>  <origin>  (25) 
adg

>  <m_score__min__energy>  (25) 
-15.279999999999999

>  <m_primary>  (25) 
energy

$$$$
25:0
     RDKit          3D

 46 49  0  0  1  0  0  0  0  0999 V2000
   60.6750   28.7140   46.3550 O   0  0  0  0  0  0  0  0  0  0  0  0
   59.5950   28.9880   46.9170 C   0  0  0  0  0  0  0  0  0  0  0  0
   59.4020   30.0800   47.8130 N   0  0  0  0  0  0  0  0  0  0  0  0
   60.4370   30.9990   48.2060 C   0  0  0  0  0  0  0  0  0  0  0  0
   60.1800   32.3470   47.6610 C   0  0  0  0  0  0  0  0  0  0  0  0
   61.2220   32.9340   46.9410 C   0  0  0  0  0  0  0  0  0  0  0  0
   61.1340   34.1700   46.3580 C   0  0  0  0  0  0  0  0  0  0  0  0
   59.9500   34.9030   46.4750 C   0  0  0  0  0  0  0  0  0  0  0  0
   59.8400   36.1240   45.9090 F   0  0  0  0  0  0  0  0  0  0  0  0
   58.9130   34.3100   47.1980 C   0  0  0  0  0  0  0  0  0  0  0  0
   59.0330   33.0650   47.7730 C   0  0  0  0  0  0  0  0  0  0  0  0
   58.4420   28.1140   46.6380 C   0  0  0  0  0  0  0  0  0  0  0  0
   58.4120   26.9650   47.4460 C   0  0  0  0  0  0  0  0  0  0  0  0
   57.4150   26.0910   47.2920 N   0  0  0  0  0  0  0  0  0  0  0  0
   56.4590   26.3310   46.3670 C   0  0  0  0  0  0  0  0  0  0  0  0
   55.5210   25.4480   46.2720 N   0  0  0  0  0  0  0  0  0  0  0  0
   55.6560   24.4910   45.1870 C   0  0  0  0  0  0  0  0  0  0  0  0
   56.9830   24.7020   44.4390 C   0  0  0  0  0  0  0  0  0  0  0  0
   56.8120   23.4810   45.3310 C   0  0  0  0  0  0  0  0  0  0  0  0
   56.4870   27.4460   45.5820 N   0  0  0  0  0  0  0  0  0  0  0  0
   57.4930   28.3640   45.7090 C   0  0  0  0  0  0  0  0  0  0  0  0
   57.4080   29.5230   44.8390 C   0  0  0  0  0  0  0  0  0  0  0  0
   56.8070   29.3280   43.5960 C   0  0  0  0  0  0  0  0  0  0  0  0
   56.6670   30.3630   42.6820 C   0  0  0  0  0  0  0  0  0  0  0  0
   57.1540   31.6060   43.0500 C   0  0  0  0  0  0  0  0  0  0  0  0
   57.7570   31.8190   44.2870 C   0  0  0  0  0  0  0  0  0  0  0  0
   58.2190   33.0770   44.6110 F   0  0  0  0  0  0  0  0  0  0  0  0
   57.8870   30.7860   45.1820 C   0  0  0  0  0  0  0  0  0  0  0  0
   58.4440   30.2540   48.2280 H   0  0  0  0  0  0  0  0  0  0  0  0
   60.4709   31.0550   49.3041 H   0  0  0  0  0  0  0  0  0  0  0  0
   61.3972   30.6371   47.8097 H   0  0  0  0  0  0  0  0  0  0  0  0
   62.1632   32.3743   46.8365 H   0  0  0  0  0  0  0  0  0  0  0  0
   61.9887   34.5826   45.8019 H   0  0  0  0  0  0  0  0  0  0  0  0
   57.9658   34.8576   47.3123 H   0  0  0  0  0  0  0  0  0  0  0  0
   58.1848   32.6444   48.3330 H   0  0  0  0  0  0  0  0  0  0  0  0
   59.1985   26.7883   48.1944 H   0  0  0  0  0  0  0  0  0  0  0  0
   57.3630   25.2210   47.8690 H   0  0  0  0  0  0  0  0  0  0  0  0
   54.5890   24.3922   44.9387 H   0  0  0  0  0  0  0  0  0  0  0  0
   57.0219   24.5819   43.3463 H   0  0  0  0  0  0  0  0  0  0  0  0
   57.7160   25.5198   44.3773 H   0  0  0  0  0  0  0  0  0  0  0  0
   56.7263   22.4804   44.8821 H   0  0  0  0  0  0  0  0  0  0  0  0
   57.3691   23.0543   46.1781 H   0  0  0  0  0  0  0  0  0  0  0  0
   56.4339   28.3272   43.3328 H   0  0  0  0  0  0  0  0  0  0  0  0
   56.1885   30.2024   41.7046 H   0  0  0  0  0  0  0  0  0  0  0  0
   57.0621   32.4470   42.3469 H   0  0  0  0  0  0  0  0  0  0  0  0
   58.3640   30.9534   46.1590 H   0  0  0  0  0  0  0  0  0  0  0  0
  1  2  2  0
  2  3  1  0
  3  4  1  0
  4  5  1  0
  5  6  2  0
  6  7  1  0
  7  8  2  0
  8  9  1  0
  8 10  1  0
 10 11  2  0
  2 12  1  0
 12 13  2  0
 13 14  1  0
 14 15  1  0
 15 16  2  0
 16 17  1  0
 17 18  1  0
 18 19  1  0
 15 20  1  0
 20 21  2  0
 21 22  1  0
 22 23  2  0
 23 24  1  0
 24 25  2  0
 25 26  1  0
 26 27  1  0
 26 28  2  0
 11  5  1  0
 21 12  1  0
 28 22  1  0
 19 17  1  0
  3 29  1  0
  4 30  1  0
  4 31  1  0
  6 32  1  0
  7 33  1  0
 10 34  1  0
 11 35  1  0
 13 36  1  0
 14 37  1  0
 17 38  1  0
 18 39  1  0
 18 40  1  0
 19 41  1  0
 19 42  1  0
 23 43  1  0
 24 44  1  0
 25 45  1  0
 28 46  1  0
M  END
>  <smiles>  (26) 
O=C(NCc1ccc(F)cc1)c1c[nH]c(=NC2CC2)nc1-c1cccc(F)c1

>  <score_type>  (26) 
oracle

>  <origin>  (26) 
adg

>  <m_score__min__energy>  (26) 
-7.7300000000000004

>  <m_primary>  (26) 
energy

$$$$
26:0
     RDKit          3D

 51 53  0  0  0  0  0  0  0  0999 V2000
   53.4540   28.5920   53.2520 C   0  0  0  0  0  0  0  0  0  0  0  0
   54.4330   29.3380   52.7110 C   0  0  0  0  0  0  0  0  0  0  0  0
   54.2820   30.4290   51.8360 C   0  0  0  0  0  0  0  0  0  0  0  0
   53.2000   30.8970   51.1810 C   0  0  0  0  0  0  0  0  0  0  0  0
   52.0070   31.4820   51.8120 C   0  0  0  0  0  0  0  0  0  0  0  0
   51.7400   31.3940   53.1260 N   0  0  0  0  0  0  0  0  0  0  0  0
   50.6310   32.1580   53.2690 C   0  0  0  0  0  0  0  0  0  0  0  0
   50.0540   32.3120   54.3760 O   0  0  0  0  0  0  0  0  0  0  0  0
   50.1970   32.7490   52.1330 N   0  0  0  0  0  0  0  0  0  0  0  0
   51.0880   32.3240   51.2230 C   0  0  0  0  0  0  0  0  0  0  0  0
   51.0710   32.7100   49.8870 O   0  0  0  0  0  0  0  0  0  0  0  0
   55.5360   31.0010   51.7130 C   0  0  0  0  0  0  0  0  0  0  0  0
   56.4080   30.2300   52.4570 C   0  0  0  0  0  0  0  0  0  0  0  0
   57.8970   30.4550   52.4960 C   0  0  0  0  0  0  0  0  0  0  0  0
   58.3800   30.9970   51.1730 C   0  0  0  0  0  0  0  0  0  0  0  0
   58.8140   32.1410   51.1300 O   0  0  0  0  0  0  0  0  0  0  0  0
   58.3690   30.1770   49.9740 N   0  0  0  0  0  0  0  0  0  0  0  0
   58.5170   31.0230   48.7650 C   0  0  0  0  0  0  0  0  0  0  0  0
   58.8720   30.1940   47.5110 C   0  0  0  0  0  0  0  0  0  0  0  0
   58.5620   28.7700   47.7330 N   0  0  0  0  0  0  0  0  0  0  0  0
   58.5810   27.9410   46.5040 C   0  0  0  0  0  0  0  0  0  0  0  0
   57.6300   26.7210   46.5230 C   0  0  0  0  0  0  0  0  0  0  0  0
   56.2690   27.0580   45.9920 C   0  0  0  0  0  0  0  0  0  0  0  0
   55.2980   26.2780   46.1940 O   0  0  0  0  0  0  0  0  0  0  0  0
   56.0660   28.2450   45.2890 O   0  0  0  0  0  0  0  0  0  0  0  0
   59.3590   28.1930   48.8390 C   0  0  0  0  0  0  0  0  0  0  0  0
   59.4370   29.1580   50.0430 C   0  0  0  0  0  0  0  0  0  0  0  0
   55.7430   29.2070   53.0500 N   0  0  0  0  0  0  0  0  0  0  0  0
   56.3050   28.2100   53.9720 C   0  0  0  0  0  0  0  0  0  0  0  0
   53.7053   27.7601   53.9264 H   0  0  0  0  0  0  0  0  0  0  0  0
   52.4018   28.8136   53.0202 H   0  0  0  0  0  0  0  0  0  0  0  0
   53.2105   30.8361   50.0827 H   0  0  0  0  0  0  0  0  0  0  0  0
   55.7905   31.9000   51.1324 H   0  0  0  0  0  0  0  0  0  0  0  0
   58.1342   31.1763   53.2919 H   0  0  0  0  0  0  0  0  0  0  0  0
   58.3985   29.4963   52.6943 H   0  0  0  0  0  0  0  0  0  0  0  0
   57.4480   29.6760   49.9120 H   0  0  0  0  0  0  0  0  0  0  0  0
   57.5689   31.5505   48.5839 H   0  0  0  0  0  0  0  0  0  0  0  0
   59.3406   31.7292   48.9465 H   0  0  0  0  0  0  0  0  0  0  0  0
   58.2880   30.5631   46.6550 H   0  0  0  0  0  0  0  0  0  0  0  0
   59.9479   30.2978   47.3068 H   0  0  0  0  0  0  0  0  0  0  0  0
   58.2972   28.5816   45.6560 H   0  0  0  0  0  0  0  0  0  0  0  0
   59.6001   27.5349   46.4231 H   0  0  0  0  0  0  0  0  0  0  0  0
   58.0647   25.9228   45.9034 H   0  0  0  0  0  0  0  0  0  0  0  0
   57.5151   26.3975   47.5681 H   0  0  0  0  0  0  0  0  0  0  0  0
   58.8906   27.2524   49.1644 H   0  0  0  0  0  0  0  0  0  0  0  0
   60.3807   28.0149   48.4723 H   0  0  0  0  0  0  0  0  0  0  0  0
   59.3254   28.5821   50.9736 H   0  0  0  0  0  0  0  0  0  0  0  0
   60.4110   29.6686   50.0208 H   0  0  0  0  0  0  0  0  0  0  0  0
   56.1257   28.5280   55.0096 H   0  0  0  0  0  0  0  0  0  0  0  0
   55.8226   27.2368   53.7982 H   0  0  0  0  0  0  0  0  0  0  0  0
   57.3874   28.1189   53.7982 H   0  0  0  0  0  0  0  0  0  0  0  0
  1  2  2  0
  2  3  1  0
  3  4  2  3
  4  5  1  0
  5  6  1  0
  6  7  1  0
  7  8  2  0
  7  9  1  0
  9 10  1  0
 10 11  1  0
  3 12  1  0
 12 13  2  0
 13 14  1  0
 14 15  1  0
 15 16  2  0
 15 17  1  0
 17 18  1  0
 18 19  1  0
 19 20  1  0
 20 21  1  0
 21 22  1  0
 22 23  1  0
 23 24  2  0
 23 25  1  0
 20 26  1  0
 26 27  1  0
 13 28  1  0
 28 29  1  0
 28  2  1  0
 10  5  2  0
 27 17  1  0
  1 30  1  0
  1 31  1  0
  4 32  1  0
 12 33  1  0
 14 34  1  0
 14 35  1  0
 17 36  1  0
 18 37  1  0
 18 38  1  0
 19 39  1  0
 19 40  1  0
 21 41  1  0
 21 42  1  0
 22 43  1  0
 22 44  1  0
 26 45  1  0
 26 46  1  0
 27 47  1  0
 27 48  1  0
 29 49  1  0
 29 50  1  0
 29 51  1  0
M  CHG  5   6  -1   9  -1  11  -1  17   1  25  -1
M  END
>  <UniqueID>  (27) 
26

>  <SMILES>  (27) 
C=c1c(=Cc2[n-]c(=O)[n-]c2[O-])cc(CC(=O)[NH+]2CCN(CCC(=O)[O-])CC2)n1C

>  <Energy>  (27) 
132.13815910859788

>  <Genealogy>  (27) 
C=c1c(=Cc2[n-]c(=O)[n-]c2[O-])cc(CC(=O)[NH+]2CCN(CCC(=O)[O-])CC2)n1C (protonated)
C=c1c(=Cc2[n-]c(=O)[n-]c2[O-])cc(CC(=O)[NH+]2CCN(CCC(=O)[O-])CC2)n1C (3D coordinates assigned)
C=c1c(=Cc2[n-]c(=O)[n-]c2[O-])cc(CC(=O)[NH+]2CCN(CCC(=O)[O-])CC2)n1C (nonaromatic ring conformer: 132.13815910859788 kcal/mol)

>  <smiles>  (27) 
C=c1c(=Cc2[nH]c(=O)[nH]c2O)cc(CC(=O)N2CCN(CCC(=O)O)CC2)n1C

>  <score_type>  (27) 
oracle

>  <origin>  (27) 
adg

>  <m_score__min__energy>  (27) 
-18.27

>  <m_primary>  (27) 
energy

$$$$
27:0
     RDKit          3D

 35 37  0  0  0  0  0  0  0  0999 V2000
   57.6820   23.8880   46.7190 C   0  0  0  0  0  0  0  0  0  0  0  0
   57.8530   25.1550   46.3580 C   0  0  0  0  0  0  0  0  0  0  0  0
   59.0910   25.7320   46.0720 O   0  0  0  0  0  0  0  0  0  0  0  0
   58.8490   27.0630   45.7370 C   0  0  0  0  0  0  0  0  0  0  0  0
   59.7920   28.0210   45.3770 C   0  0  0  0  0  0  0  0  0  0  0  0
   59.3430   29.3170   45.0710 C   0  0  0  0  0  0  0  0  0  0  0  0
   57.9640   29.6340   45.1240 C   0  0  0  0  0  0  0  0  0  0  0  0
   57.4120   31.2580   44.7090 S   0  0  0  0  0  0  0  0  0  0  0  0
   55.9230   31.2360   44.4950 O   0  0  0  0  0  0  0  0  0  0  0  0
   58.0600   31.6880   43.4210 O   0  0  0  0  0  0  0  0  0  0  0  0
   57.7970   32.4080   45.9690 N   0  0  0  0  0  0  0  0  0  0  0  0
   58.7840   31.8560   46.9300 C   0  0  0  0  0  0  0  0  0  0  0  0
   60.2020   32.4100   46.7170 C   0  0  0  0  0  0  0  0  0  0  0  0
   60.2220   33.9430   46.8420 C   0  0  0  0  0  0  0  0  0  0  0  0
   58.9030   34.5960   46.3930 C   0  0  0  0  0  0  0  0  0  0  0  0
   58.1700   33.7130   45.3790 C   0  0  0  0  0  0  0  0  0  0  0  0
   57.0300   28.6460   45.4980 C   0  0  0  0  0  0  0  0  0  0  0  0
   57.5060   27.3720   45.7950 C   0  0  0  0  0  0  0  0  0  0  0  0
   56.8100   26.1650   46.1960 C   0  0  0  0  0  0  0  0  0  0  0  0
   55.5700   26.0220   46.3640 O   0  0  0  0  0  0  0  0  0  0  0  0
   56.6714   23.5073   46.9280 H   0  0  0  0  0  0  0  0  0  0  0  0
   58.5510   23.2196   46.8089 H   0  0  0  0  0  0  0  0  0  0  0  0
   60.8621   27.7701   45.3331 H   0  0  0  0  0  0  0  0  0  0  0  0
   60.0698   30.0926   44.7876 H   0  0  0  0  0  0  0  0  0  0  0  0
   58.4587   32.1074   47.9503 H   0  0  0  0  0  0  0  0  0  0  0  0
   58.8274   30.7686   46.7700 H   0  0  0  0  0  0  0  0  0  0  0  0
   60.8736   31.9790   47.4741 H   0  0  0  0  0  0  0  0  0  0  0  0
   60.5352   32.1376   45.7047 H   0  0  0  0  0  0  0  0  0  0  0  0
   60.4046   34.2073   47.8940 H   0  0  0  0  0  0  0  0  0  0  0  0
   61.0183   34.3183   46.1824 H   0  0  0  0  0  0  0  0  0  0  0  0
   58.2584   34.7456   47.2717 H   0  0  0  0  0  0  0  0  0  0  0  0
   59.1341   35.5597   45.9156 H   0  0  0  0  0  0  0  0  0  0  0  0
   57.2572   34.2301   45.0481 H   0  0  0  0  0  0  0  0  0  0  0  0
   58.8441   33.5287   44.5296 H   0  0  0  0  0  0  0  0  0  0  0  0
   55.9556   28.8755   45.5535 H   0  0  0  0  0  0  0  0  0  0  0  0
  1  2  2  0
  2  3  1  0
  3  4  1  0
  4  5  2  0
  5  6  1  0
  6  7  2  0
  7  8  1  0
  8  9  2  0
  8 10  2  0
  8 11  1  0
 11 12  1  0
 12 13  1  0
 13 14  1  0
 14 15  1  0
 15 16  1  0
  7 17  1  0
 17 18  2  0
 18 19  1  0
 19 20  2  0
 19  2  1  0
 18  4  1  0
 16 11  1  0
  1 21  1  0
  1 22  1  0
  5 23  1  0
  6 24  1  0
 12 25  1  0
 12 26  1  0
 13 27  1  0
 13 28  1  0
 14 29  1  0
 14 30  1  0
 15 31  1  0
 15 32  1  0
 16 33  1  0
 16 34  1  0
 17 35  1  0
M  END
>  <UniqueID>  (28) 
27

>  <SMILES>  (28) 
C=C1Oc2ccc(S(=O)(=O)N3CCCCC3)cc2C1=O

>  <Energy>  (28) 
71.17547078753346

>  <Genealogy>  (28) 
C=C1Oc2ccc(S(=O)(=O)N3CCCCC3)cc2C1=O (3D coordinates assigned)
C=C1Oc2ccc(S(=O)(=O)N3CCCCC3)cc2C1=O (nonaromatic ring conformer: 71.17547078753346 kcal/mol)

>  <smiles>  (28) 
C=C1Oc2ccc(S(=O)(=O)N3CCCCC3)cc2C1=O

>  <score_type>  (28) 
oracle

>  <origin>  (28) 
adg

>  <m_score__min__energy>  (28) 
-8.3100000000000005

>  <m_primary>  (28) 
energy

$$$$
28:0
     RDKit          3D

 34 36  0  0  0  0  0  0  0  0999 V2000
   59.0860   28.0320   46.2970 O   0  0  0  0  0  0  0  0  0  0  0  0
   57.9350   27.5300   46.1820 C   0  0  0  0  0  0  0  0  0  0  0  0
   57.5520   26.3680   47.0420 C   0  0  0  0  0  0  0  0  0  0  0  0
   56.4200   25.6220   46.4120 C   0  0  0  0  0  0  0  0  0  0  0  0
   56.5060   24.4010   45.7810 C   0  0  0  0  0  0  0  0  0  0  0  0
   55.3000   24.0820   45.2780 N   0  0  0  0  0  0  0  0  0  0  0  0
   54.5290   25.1340   45.6200 C   0  0  0  0  0  0  0  0  0  0  0  0
   53.3090   25.2080   45.3190 O   0  0  0  0  0  0  0  0  0  0  0  0
   55.1690   26.1030   46.3060 N   0  0  0  0  0  0  0  0  0  0  0  0
   56.9960   28.0630   45.2360 N   0  0  0  0  0  0  0  0  0  0  0  0
   57.1540   29.3280   44.5710 C   0  0  0  0  0  0  0  0  0  0  0  0
   56.7060   29.4680   43.2500 C   0  0  0  0  0  0  0  0  0  0  0  0
   56.8270   30.6930   42.5900 C   0  0  0  0  0  0  0  0  0  0  0  0
   57.3810   31.7930   43.2470 C   0  0  0  0  0  0  0  0  0  0  0  0
   57.8140   31.6830   44.5810 C   0  0  0  0  0  0  0  0  0  0  0  0
   58.3870   32.8570   45.2880 C   0  0  0  0  0  0  0  0  0  0  0  0
   58.7740   34.0040   44.5730 C   0  0  0  0  0  0  0  0  0  0  0  0
   59.3110   35.0970   45.2560 C   0  0  0  0  0  0  0  0  0  0  0  0
   59.4590   35.0530   46.6060 N   0  0  0  0  0  0  0  0  0  0  0  0
   59.0970   33.9590   47.3270 C   0  0  0  0  0  0  0  0  0  0  0  0
   59.2530   33.9560   48.5760 O   0  0  0  0  0  0  0  0  0  0  0  0
   58.5530   32.8440   46.6840 C   0  0  0  0  0  0  0  0  0  0  0  0
   57.6880   30.4440   45.2380 C   0  0  0  0  0  0  0  0  0  0  0  0
   58.4155   25.6956   47.1528 H   0  0  0  0  0  0  0  0  0  0  0  0
   57.2388   26.7357   48.0303 H   0  0  0  0  0  0  0  0  0  0  0  0
   57.4144   23.7858   45.7012 H   0  0  0  0  0  0  0  0  0  0  0  0
   56.1810   27.4650   44.9680 H   0  0  0  0  0  0  0  0  0  0  0  0
   56.2569   28.6087   42.7306 H   0  0  0  0  0  0  0  0  0  0  0  0
   56.4847   30.7912   41.5493 H   0  0  0  0  0  0  0  0  0  0  0  0
   57.4797   32.7524   42.7180 H   0  0  0  0  0  0  0  0  0  0  0  0
   58.6542   34.0402   43.4801 H   0  0  0  0  0  0  0  0  0  0  0  0
   59.6150   35.9960   44.6998 H   0  0  0  0  0  0  0  0  0  0  0  0
   58.2560   31.9601   47.2675 H   0  0  0  0  0  0  0  0  0  0  0  0
   58.0111   30.3484   46.2851 H   0  0  0  0  0  0  0  0  0  0  0  0
  1  2  2  0
  2  3  1  0
  3  4  1  0
  4  5  2  0
  5  6  1  0
  6  7  1  0
  7  8  2  0
  7  9  1  0
  2 10  1  0
 10 11  1  0
 11 12  2  0
 12 13  1  0
 13 14  2  0
 14 15  1  0
 15 16  1  0
 16 17  1  0
 17 18  2  0
 18 19  1  0
 19 20  1  0
 20 21  2  0
 20 22  1  0
 15 23  2  0
  9  4  1  0
 23 11  1  0
 22 16  2  0
  3 24  1  0
  3 25  1  0
  5 26  1  0
 10 27  1  0
 12 28  1  0
 13 29  1  0
 14 30  1  0
 17 31  1  0
 18 32  1  0
 22 33  1  0
 23 34  1  0
M  CHG  3   6  -1   9  -1  19  -1
M  END
>  <UniqueID>  (29) 
28

>  <SMILES>  (29) 
O=C(Cc1c[n-]c(=O)[n-]1)Nc1cccc(-c2cc[n-]c(=O)c2)c1

>  <Energy>  (29) 
71.4851647017859

>  <Genealogy>  (29) 
O=C(Cc1c[n-]c(=O)[n-]1)Nc1cccc(-c2cc[n-]c(=O)c2)c1 (protonated)
O=C(Cc1c[n-]c(=O)[n-]1)Nc1cccc(-c2cc[n-]c(=O)c2)c1 (3D coordinates assigned)
O=C(Cc1c[n-]c(=O)[n-]1)Nc1cccc(-c2cc[n-]c(=O)c2)c1 (optimized conformer: 71.4851647017859 kcal/mol)

>  <smiles>  (29) 
O=C(Cc1c[nH]c(=O)[nH]1)Nc1cccc(-c2cc[nH]c(=O)c2)c1

>  <score_type>  (29) 
oracle

>  <origin>  (29) 
adg

>  <m_score__min__energy>  (29) 
-12.460000000000001

>  <m_primary>  (29) 
energy

$$$$
29:0
     RDKit          3D

 31 33  0  0  1  0  0  0  0  0999 V2000
   60.2540   26.7870   46.3160 C   0  0  0  0  0  0  0  0  0  0  0  0
   59.4020   27.6770   45.8490 C   0  0  0  0  0  0  0  0  0  0  0  0
   59.9240   28.9320   45.3260 C   0  0  0  0  0  0  0  0  0  0  0  0
   59.1550   29.8900   44.8340 C   0  0  0  0  0  0  0  0  0  0  0  0
   57.7250   29.6570   44.8260 C   0  0  0  0  0  0  0  0  0  0  0  0
   57.1270   28.5040   45.2950 C   0  0  0  0  0  0  0  0  0  0  0  0
   55.7940   28.6110   45.1420 N   0  0  0  0  0  0  0  0  0  0  0  0
   55.5180   29.7820   44.5930 N   0  0  0  0  0  0  0  0  0  0  0  0
   56.6860   30.4460   44.3880 C   0  0  0  0  0  0  0  0  0  0  0  0
   56.7410   31.6020   43.8730 N   0  0  0  0  0  0  0  0  0  0  0  0
   57.5570   32.6660   44.3190 C   0  0  0  0  0  0  0  0  0  0  0  0
   58.6400   32.9980   43.7240 O   0  0  0  0  0  0  0  0  0  0  0  0
   57.1000   33.4160   45.5460 C   0  0  0  0  0  0  0  0  0  0  0  0
   58.1830   33.6830   46.4870 C   0  0  0  0  0  0  0  0  0  0  0  0
   59.1310   34.6300   46.5310 C   0  0  0  0  0  0  0  0  0  0  0  0
   60.0180   34.6380   47.5370 C   0  0  0  0  0  0  0  0  0  0  0  0
   59.9120   33.6540   48.4930 C   0  0  0  0  0  0  0  0  0  0  0  0
   58.5070   32.6640   47.9730 S   0  0  0  0  0  0  0  0  0  0  0  0
   57.9800   27.4450   45.8390 C   0  0  0  0  0  0  0  0  0  0  0  0
   57.4730   26.3870   46.2730 O   0  0  0  0  0  0  0  0  0  0  0  0
   59.8862   25.8309   46.7168 H   0  0  0  0  0  0  0  0  0  0  0  0
   61.3331   27.0001   46.3051 H   0  0  0  0  0  0  0  0  0  0  0  0
   61.0123   29.0916   45.3407 H   0  0  0  0  0  0  0  0  0  0  0  0
   59.5843   30.8258   44.4466 H   0  0  0  0  0  0  0  0  0  0  0  0
   55.1440   27.8460   45.4330 H   0  0  0  0  0  0  0  0  0  0  0  0
   54.5720   30.1130   44.3690 H   0  0  0  0  0  0  0  0  0  0  0  0
   56.6664   34.3759   45.2289 H   0  0  0  0  0  0  0  0  0  0  0  0
   56.3632   32.7836   46.0629 H   0  0  0  0  0  0  0  0  0  0  0  0
   59.1812   35.3977   45.7448 H   0  0  0  0  0  0  0  0  0  0  0  0
   60.8039   35.4054   47.5959 H   0  0  0  0  0  0  0  0  0  0  0  0
   60.5470   33.5066   49.3791 H   0  0  0  0  0  0  0  0  0  0  0  0
  1  2  2  0
  2  3  1  0
  3  4  2  0
  4  5  1  0
  5  6  2  0
  6  7  1  0
  7  8  1  0
  8  9  1  0
  9 10  2  0
 10 11  1  0
 11 12  2  0
 11 13  1  0
 13 14  1  0
 14 15  2  0
 15 16  1  0
 16 17  2  0
 17 18  1  0
  6 19  1  0
 19 20  2  0
 19  2  1  0
  9  5  1  0
 18 14  1  0
  1 21  1  0
  1 22  1  0
  3 23  1  0
  4 24  1  0
  7 25  1  0
  8 26  1  0
 13 27  1  0
 13 28  1  0
 15 29  1  0
 16 30  1  0
 17 31  1  0
M  END
>  <smiles>  (30) 
C=C1C=Cc2c([nH][nH]c2=NC(=O)Cc2cccs2)C1=O

>  <score_type>  (30) 
oracle

>  <origin>  (30) 
adg

>  <m_score__min__energy>  (30) 
-8.3599999999999994

>  <m_primary>  (30) 
energy

$$$$
30:0
     RDKit          3D

 48 50  0  0  0  0  0  0  0  0999 V2000
   55.4310   30.0710   44.5580 O   0  0  0  0  0  0  0  0  0  0  0  0
   56.4740   30.3400   43.9840 C   0  0  0  0  0  0  0  0  0  0  0  0
   57.5180   31.2000   44.6440 C   0  0  1  0  0  0  0  0  0  0  0  0
   57.0170   32.6400   44.8700 C   0  0  0  0  0  0  0  0  0  0  0  0
   57.9500   33.4710   45.7210 C   0  0  0  0  0  0  0  0  0  0  0  0
   58.0320   33.2540   47.1080 C   0  0  0  0  0  0  0  0  0  0  0  0
   58.9170   34.0060   47.8890 C   0  0  0  0  0  0  0  0  0  0  0  0
   59.7250   34.9780   47.2920 C   0  0  0  0  0  0  0  0  0  0  0  0
   59.6480   35.2010   45.9140 C   0  0  0  0  0  0  0  0  0  0  0  0
   58.7660   34.4510   45.1300 C   0  0  0  0  0  0  0  0  0  0  0  0
   57.9420   30.6070   45.9100 N   0  0  0  0  0  0  0  0  0  0  0  0
   58.8440   29.5000   46.0140 C   0  0  0  0  0  0  0  0  0  0  0  0
   60.0890   29.7010   45.9600 O   0  0  0  0  0  0  0  0  0  0  0  0
   58.3170   28.1260   46.1790 C   0  0  0  0  0  0  0  0  0  0  0  0
   56.9910   27.8200   45.8250 C   0  0  0  0  0  0  0  0  0  0  0  0
   56.4920   26.5250   45.9950 C   0  0  0  0  0  0  0  0  0  0  0  0
   57.3070   25.5170   46.5260 C   0  0  0  0  0  0  0  0  0  0  0  0
   56.6660   23.8880   46.7650 S   0  0  0  0  0  0  0  0  0  0  0  0
   57.3680   23.2470   47.9290 O   0  0  0  0  0  0  0  0  0  0  0  0
   55.2020   23.9780   47.0990 O   0  0  0  0  0  0  0  0  0  0  0  0
   56.8750   22.8870   45.3430 N   0  0  0  0  0  0  0  0  0  0  0  0
   55.6030   22.7050   44.6230 C   0  0  0  0  0  0  0  0  0  0  0  0
   55.7270   23.3420   43.2440 C   0  0  0  0  0  0  0  0  0  0  0  0
   57.0030   24.1490   43.2920 C   0  0  0  0  0  0  0  0  0  0  0  0
   57.8150   23.5000   44.3960 C   0  0  0  0  0  0  0  0  0  0  0  0
   58.6340   25.8110   46.8640 C   0  0  0  0  0  0  0  0  0  0  0  0
   59.1350   27.1040   46.6960 C   0  0  0  0  0  0  0  0  0  0  0  0
   56.6532   29.9490   42.9716 H   0  0  0  0  0  0  0  0  0  0  0  0
   58.3807   31.2510   43.9634 H   0  0  0  0  0  0  0  0  0  0  0  0
   56.9083   33.1295   43.8910 H   0  0  0  0  0  0  0  0  0  0  0  0
   56.0598   32.5714   45.4077 H   0  0  0  0  0  0  0  0  0  0  0  0
   57.3978   32.4899   47.5812 H   0  0  0  0  0  0  0  0  0  0  0  0
   58.9768   33.8320   48.9735 H   0  0  0  0  0  0  0  0  0  0  0  0
   60.4214   35.5674   47.9065 H   0  0  0  0  0  0  0  0  0  0  0  0
   60.2825   35.9679   45.4457 H   0  0  0  0  0  0  0  0  0  0  0  0
   58.7105   34.6287   44.0459 H   0  0  0  0  0  0  0  0  0  0  0  0
   56.3414   28.6054   45.4112 H   0  0  0  0  0  0  0  0  0  0  0  0
   55.4543   26.2966   45.7104 H   0  0  0  0  0  0  0  0  0  0  0  0
   55.3880   21.6315   44.5169 H   0  0  0  0  0  0  0  0  0  0  0  0
   54.7839   23.1798   45.1830 H   0  0  0  0  0  0  0  0  0  0  0  0
   55.7900   22.5672   42.4657 H   0  0  0  0  0  0  0  0  0  0  0  0
   54.8551   23.9669   43.0006 H   0  0  0  0  0  0  0  0  0  0  0  0
   57.5361   24.0927   42.3315 H   0  0  0  0  0  0  0  0  0  0  0  0
   56.8181   25.2172   43.4785 H   0  0  0  0  0  0  0  0  0  0  0  0
   58.4748   22.7290   43.9715 H   0  0  0  0  0  0  0  0  0  0  0  0
   58.4397   24.2489   44.9048 H   0  0  0  0  0  0  0  0  0  0  0  0
   59.2850   25.0196   47.2638 H   0  0  0  0  0  0  0  0  0  0  0  0
   60.1771   27.3252   46.9699 H   0  0  0  0  0  0  0  0  0  0  0  0
  1  2  2  0
  2  3  1  0
  3  4  1  0
  4  5  1  0
  5  6  2  0
  6  7  1  0
  7  8  2  0
  8  9  1  0
  9 10  2  0
  3 11  1  0
 11 12  1  0
 12 13  2  0
 12 14  1  0
 14 15  2  0
 15 16  1  0
 16 17  2  0
 17 18  1  0
 18 19  2  0
 18 20  2  0
 18 21  1  0
 21 22  1  0
 22 23  1  0
 23 24  1  0
 24 25  1  0
 17 26  1  0
 26 27  2  0
 10  5  1  0
 27 14  1  0
 25 21  1  0
  2 28  1  0
  3 29  1  6
  4 30  1  0
  4 31  1  0
  6 32  1  0
  7 33  1  0
  8 34  1  0
  9 35  1  0
 10 36  1  0
 15 37  1  0
 16 38  1  0
 22 39  1  0
 22 40  1  0
 23 41  1  0
 23 42  1  0
 24 43  1  0
 24 44  1  0
 25 45  1  0
 25 46  1  0
 26 47  1  0
 27 48  1  0
M  CHG  1  11  -1
M  END
>  <UniqueID>  (31) 
29

>  <SMILES>  (31) 
O=C[C@@H](Cc1ccccc1)[N-]C(=O)c1ccc(S(=O)(=O)N2CCCC2)cc1

>  <Energy>  (31) 
46.167392667891136

>  <Genealogy>  (31) 
O=CC(Cc1ccccc1)[N-]C(=O)c1ccc(S(=O)(=O)N2CCCC2)cc1 (protonated)
O=C[C@@H](Cc1ccccc1)[N-]C(=O)c1ccc(S(=O)(=O)N2CCCC2)cc1 (chirality)
O=C[C@@H](Cc1ccccc1)[N-]C(=O)c1ccc(S(=O)(=O)N2CCCC2)cc1 (3D coordinates assigned)
O=C[C@@H](Cc1ccccc1)[N-]C(=O)c1ccc(S(=O)(=O)N2CCCC2)cc1 (nonaromatic ring conformer: 46.167392667891136 kcal/mol)

>  <smiles>  (31) 
O=CC(Cc1ccccc1)NC(=O)c1ccc(S(=O)(=O)N2CCCC2)cc1

>  <score_type>  (31) 
oracle

>  <origin>  (31) 
adg

>  <m_score__min__energy>  (31) 
-11.140000000000001

>  <m_primary>  (31) 
energy

$$$$
31:0
     RDKit          3D

 57 60  0  0  0  0  0  0  0  0999 V2000
   57.2940   24.7490   47.2160 C   0  0  0  0  0  0  0  0  0  0  0  0
   58.2650   25.7630   47.4470 O   0  0  0  0  0  0  0  0  0  0  0  0
   58.3870   26.9380   46.6870 C   0  0  0  0  0  0  0  0  0  0  0  0
   59.6580   27.5120   46.5550 C   0  0  0  0  0  0  0  0  0  0  0  0
   59.8380   28.6880   45.8220 C   0  0  0  0  0  0  0  0  0  0  0  0
   58.7410   29.3140   45.2200 C   0  0  0  0  0  0  0  0  0  0  0  0
   58.9180   30.4790   44.5390 N   0  0  0  0  0  0  0  0  0  0  0  0
   57.8750   31.1450   43.9730 C   0  0  0  0  0  0  0  0  0  0  0  0
   58.1660   32.7110   43.1480 S   0  0  0  0  0  0  0  0  0  0  0  0
   57.4610   33.7230   44.4980 C   0  0  0  0  0  0  0  0  0  0  0  0
   58.4130   33.8040   45.6610 C   0  0  0  0  0  0  0  0  0  0  0  0
   58.4160   32.7840   46.6270 C   0  0  0  0  0  0  0  0  0  0  0  0
   59.2500   32.8610   47.7580 C   0  0  0  0  0  0  0  0  0  0  0  0
   59.2420   31.7550   48.7530 C   0  0  0  0  0  0  0  0  0  0  0  0
   58.1750   31.5240   49.3920 O   0  0  0  0  0  0  0  0  0  0  0  0
   60.4130   30.9290   48.9960 N   0  0  0  0  0  0  0  0  0  0  0  0
   60.9540   31.2140   50.3520 C   0  0  0  0  0  0  0  0  0  0  0  0
   62.4570   30.9210   50.4620 C   0  0  0  0  0  0  0  0  0  0  0  0
   63.1930   31.7120   49.4680 N   0  0  0  0  0  0  0  0  0  0  0  0
   64.5580   32.1270   49.7010 C   0  0  0  0  0  0  0  0  0  0  0  0
   65.3850   31.5150   50.7900 C   0  0  0  0  0  0  0  0  0  0  0  0
   65.0670   33.0420   48.9990 O   0  0  0  0  0  0  0  0  0  0  0  0
   62.5160   32.0900   48.2190 C   0  0  0  0  0  0  0  0  0  0  0  0
   61.4050   31.0800   47.8940 C   0  0  0  0  0  0  0  0  0  0  0  0
   60.0940   33.9770   47.9030 C   0  0  0  0  0  0  0  0  0  0  0  0
   60.1010   34.9900   46.9410 C   0  0  0  0  0  0  0  0  0  0  0  0
   59.2660   34.9100   45.8260 C   0  0  0  0  0  0  0  0  0  0  0  0
   59.2850   35.9140   44.9130 F   0  0  0  0  0  0  0  0  0  0  0  0
   56.5800   30.6250   44.0620 C   0  0  0  0  0  0  0  0  0  0  0  0
   56.3610   29.4260   44.7490 C   0  0  0  0  0  0  0  0  0  0  0  0
   55.1860   28.9720   44.8410 O   0  0  0  0  0  0  0  0  0  0  0  0
   57.4480   28.7530   45.3440 C   0  0  0  0  0  0  0  0  0  0  0  0
   57.2800   27.5560   46.0690 C   0  0  0  0  0  0  0  0  0  0  0  0
   56.9273   24.3661   48.1798 H   0  0  0  0  0  0  0  0  0  0  0  0
   56.4533   25.1697   46.6448 H   0  0  0  0  0  0  0  0  0  0  0  0
   57.7507   23.9273   46.6448 H   0  0  0  0  0  0  0  0  0  0  0  0
   60.5241   27.0316   47.0337 H   0  0  0  0  0  0  0  0  0  0  0  0
   60.8434   29.1221   45.7181 H   0  0  0  0  0  0  0  0  0  0  0  0
   57.2640   34.7379   44.1223 H   0  0  0  0  0  0  0  0  0  0  0  0
   56.5274   33.2523   44.8398 H   0  0  0  0  0  0  0  0  0  0  0  0
   57.7571   31.9127   46.4975 H   0  0  0  0  0  0  0  0  0  0  0  0
   60.1180   29.9240   48.9750 H   0  0  0  0  0  0  0  0  0  0  0  0
   60.7844   32.2760   50.5828 H   0  0  0  0  0  0  0  0  0  0  0  0
   60.4335   30.5558   51.0633 H   0  0  0  0  0  0  0  0  0  0  0  0
   62.8075   31.1850   51.4707 H   0  0  0  0  0  0  0  0  0  0  0  0
   62.6325   29.8511   50.2763 H   0  0  0  0  0  0  0  0  0  0  0  0
   64.9814   31.8137   51.7687 H   0  0  0  0  0  0  0  0  0  0  0  0
   65.3561   30.4190   50.7004 H   0  0  0  0  0  0  0  0  0  0  0  0
   66.4247   31.8630   50.7004 H   0  0  0  0  0  0  0  0  0  0  0  0
   62.0754   33.0915   48.3327 H   0  0  0  0  0  0  0  0  0  0  0  0
   63.2494   32.0946   47.3992 H   0  0  0  0  0  0  0  0  0  0  0  0
   60.8764   31.4192   46.9909 H   0  0  0  0  0  0  0  0  0  0  0  0
   61.8840   30.1008   47.7468 H   0  0  0  0  0  0  0  0  0  0  0  0
   60.7533   34.0526   48.7803 H   0  0  0  0  0  0  0  0  0  0  0  0
   60.7686   35.8556   47.0633 H   0  0  0  0  0  0  0  0  0  0  0  0
   55.7378   31.1559   43.5943 H   0  0  0  0  0  0  0  0  0  0  0  0
   56.2816   27.1020   46.1532 H   0  0  0  0  0  0  0  0  0  0  0  0
  1  2  1  0
  2  3  1  0
  3  4  2  0
  4  5  1  0
  5  6  2  0
  6  7  1  0
  7  8  1  0
  8  9  1  0
  9 10  1  0
 10 11  1  0
 11 12  2  0
 12 13  1  0
 13 14  1  0
 14 15  2  0
 14 16  1  0
 16 17  1  0
 17 18  1  0
 18 19  1  0
 19 20  1  0
 20 21  1  0
 20 22  2  0
 19 23  1  0
 23 24  1  0
 13 25  2  0
 25 26  1  0
 26 27  2  0
 27 28  1  0
  8 29  2  0
 29 30  1  0
 30 31  2  0
 30 32  1  0
 32 33  2  0
 33  3  1  0
 32  6  1  0
 27 11  1  0
 24 16  1  0
  1 34  1  0
  1 35  1  0
  1 36  1  0
  4 37  1  0
  5 38  1  0
 10 39  1  0
 10 40  1  0
 12 41  1  0
 16 42  1  0
 17 43  1  0
 17 44  1  0
 18 45  1  0
 18 46  1  0
 21 47  1  0
 21 48  1  0
 21 49  1  0
 23 50  1  0
 23 51  1  0
 24 52  1  0
 24 53  1  0
 25 54  1  0
 26 55  1  0
 29 56  1  0
 33 57  1  0
M  CHG  2   7  -1  16   1
M  END
>  <UniqueID>  (32) 
30

>  <SMILES>  (32) 
COc1ccc2[n-]c(SCc3cc(C(=O)[NH+]4CCN(C(C)=O)CC4)ccc3F)cc(=O)c2c1

>  <Energy>  (32) 
70.37399495172302

>  <Genealogy>  (32) 
COc1ccc2[n-]c(SCc3cc(C(=O)[NH+]4CCN(C(C)=O)CC4)ccc3F)cc(=O)c2c1 (protonated)
COc1ccc2[n-]c(SCc3cc(C(=O)[NH+]4CCN(C(C)=O)CC4)ccc3F)cc(=O)c2c1 (3D coordinates assigned)
COc1ccc2[n-]c(SCc3cc(C(=O)[NH+]4CCN(C(C)=O)CC4)ccc3F)cc(=O)c2c1 (nonaromatic ring conformer: 70.37399495172302 kcal/mol)

>  <smiles>  (32) 
COc1ccc2[nH]c(SCc3cc(C(=O)N4CCN(C(C)=O)CC4)ccc3F)cc(=O)c2c1

>  <score_type>  (32) 
oracle

>  <origin>  (32) 
adg

>  <m_score__min__energy>  (32) 
-9.4100000000000001

>  <m_primary>  (32) 
energy

$$$$
32:0
     RDKit          3D

 46 48  0  0  0  0  0  0  0  0999 V2000
   54.9540   23.3390   48.1360 N   0  0  0  0  0  0  0  0  0  0  0  0
   56.5670   23.0340   47.5920 S   0  0  0  0  0  0  0  0  0  0  0  0
   57.0120   21.6750   48.0530 O   0  0  0  0  0  0  0  0  0  0  0  0
   57.4850   24.0600   48.1950 O   0  0  0  0  0  0  0  0  0  0  0  0
   56.6320   23.1300   45.8230 C   0  0  0  0  0  0  0  0  0  0  0  0
   57.3580   22.1430   45.1350 C   0  0  0  0  0  0  0  0  0  0  0  0
   57.3850   22.1180   43.7400 C   0  0  0  0  0  0  0  0  0  0  0  0
   56.6830   23.0750   43.0110 C   0  0  0  0  0  0  0  0  0  0  0  0
   55.9660   24.0720   43.6750 C   0  0  0  0  0  0  0  0  0  0  0  0
   55.9430   24.1270   45.0800 C   0  0  0  0  0  0  0  0  0  0  0  0
   55.2070   25.2410   45.7150 C   0  0  0  0  0  0  0  0  0  0  0  0
   53.9470   25.2520   45.6740 O   0  0  0  0  0  0  0  0  0  0  0  0
   55.9200   26.3010   46.3650 N   0  0  0  0  0  0  0  0  0  0  0  0
   56.8880   27.1770   45.7690 C   0  0  0  0  0  0  0  0  0  0  0  0
   58.0850   26.6270   45.2990 C   0  0  0  0  0  0  0  0  0  0  0  0
   59.0480   27.4410   44.6990 C   0  0  0  0  0  0  0  0  0  0  0  0
   58.8150   28.8090   44.5470 C   0  0  0  0  0  0  0  0  0  0  0  0
   57.6020   29.3750   44.9770 C   0  0  0  0  0  0  0  0  0  0  0  0
   57.3530   30.8260   44.7990 C   0  0  0  0  0  0  0  0  0  0  0  0
   56.1950   31.2220   44.4910 O   0  0  0  0  0  0  0  0  0  0  0  0
   58.4080   31.7930   44.9580 N   0  0  0  0  0  0  0  0  0  0  0  0
   58.4550   32.9870   44.1080 C   0  0  0  0  0  0  0  0  0  0  0  0
   58.1080   34.2240   44.9400 C   0  0  0  0  0  0  0  0  0  0  0  0
   59.0040   34.3070   46.1850 C   0  0  0  0  0  0  0  0  0  0  0  0
   58.9200   33.0200   47.0180 C   0  0  0  0  0  0  0  0  0  0  0  0
   59.2490   31.7920   46.1620 C   0  0  0  0  0  0  0  0  0  0  0  0
   56.6440   28.5510   45.5940 C   0  0  0  0  0  0  0  0  0  0  0  0
   54.5370   24.0350   47.4790 H   0  0  0  0  0  0  0  0  0  0  0  0
   57.9117   21.3809   45.7029 H   0  0  0  0  0  0  0  0  0  0  0  0
   57.9613   21.3416   43.2155 H   0  0  0  0  0  0  0  0  0  0  0  0
   56.6936   23.0452   41.9115 H   0  0  0  0  0  0  0  0  0  0  0  0
   55.4126   24.8233   43.0924 H   0  0  0  0  0  0  0  0  0  0  0  0
   58.2688   25.5474   45.4026 H   0  0  0  0  0  0  0  0  0  0  0  0
   59.9929   27.0030   44.3451 H   0  0  0  0  0  0  0  0  0  0  0  0
   59.5845   29.4474   44.0884 H   0  0  0  0  0  0  0  0  0  0  0  0
   59.4662   33.0990   43.6898 H   0  0  0  0  0  0  0  0  0  0  0  0
   57.7275   32.8815   43.2897 H   0  0  0  0  0  0  0  0  0  0  0  0
   58.2565   35.1252   44.3270 H   0  0  0  0  0  0  0  0  0  0  0  0
   57.0588   34.1516   45.2624 H   0  0  0  0  0  0  0  0  0  0  0  0
   60.0458   34.4612   45.8674 H   0  0  0  0  0  0  0  0  0  0  0  0
   58.6590   35.1465   46.8064 H   0  0  0  0  0  0  0  0  0  0  0  0
   59.6372   33.0819   47.8497 H   0  0  0  0  0  0  0  0  0  0  0  0
   57.8944   32.9162   47.4020 H   0  0  0  0  0  0  0  0  0  0  0  0
   60.3087   31.8231   45.8687 H   0  0  0  0  0  0  0  0  0  0  0  0
   59.0552   30.8783   46.7430 H   0  0  0  0  0  0  0  0  0  0  0  0
   55.6953   28.9849   45.9429 H   0  0  0  0  0  0  0  0  0  0  0  0
  1  2  1  0
  2  3  2  0
  2  4  2  0
  2  5  1  0
  5  6  2  0
  6  7  1  0
  7  8  2  0
  8  9  1  0
  9 10  2  0
 10 11  1  0
 11 12  2  0
 11 13  1  0
 13 14  1  0
 14 15  2  0
 15 16  1  0
 16 17  2  0
 17 18  1  0
 18 19  1  0
 19 20  2  0
 19 21  1  0
 21 22  1  0
 22 23  1  0
 23 24  1  0
 24 25  1  0
 25 26  1  0
 18 27  2  0
 10  5  1  0
 27 14  1  0
 26 21  1  0
  1 28  1  0
  6 29  1  0
  7 30  1  0
  8 31  1  0
  9 32  1  0
 15 33  1  0
 16 34  1  0
 17 35  1  0
 22 36  1  0
 22 37  1  0
 23 38  1  0
 23 39  1  0
 24 40  1  0
 24 41  1  0
 25 42  1  0
 25 43  1  0
 26 44  1  0
 26 45  1  0
 27 46  1  0
M  CHG  2   1  -1  13  -1
M  END
>  <UniqueID>  (33) 
31

>  <SMILES>  (33) 
[NH-]S(=O)(=O)c1ccccc1C(=O)[N-]c1cccc(C(=O)N2CCCCC2)c1

>  <Energy>  (33) 
57.52510341787394

>  <Genealogy>  (33) 
[NH-]S(=O)(=O)c1ccccc1C(=O)[N-]c1cccc(C(=O)N2CCCCC2)c1 (protonated)
[NH-]S(=O)(=O)c1ccccc1C(=O)[N-]c1cccc(C(=O)N2CCCCC2)c1 (3D coordinates assigned)
[NH-]S(=O)(=O)c1ccccc1C(=O)[N-]c1cccc(C(=O)N2CCCCC2)c1 (nonaromatic ring conformer: 57.52510341787394 kcal/mol)

>  <smiles>  (33) 
NS(=O)(=O)c1ccccc1C(=O)Nc1cccc(C(=O)N2CCCCC2)c1

>  <score_type>  (33) 
oracle

>  <origin>  (33) 
adg

>  <m_score__min__energy>  (33) 
-13.84

>  <m_primary>  (33) 
energy

$$$$
33:0
     RDKit          3D

 50 53  0  0  0  0  0  0  0  0999 V2000
   58.5330   30.6150   48.6310 O   0  0  0  0  0  0  0  0  0  0  0  0
   59.5540   30.1580   49.2080 C   0  0  0  0  0  0  0  0  0  0  0  0
   59.9450   28.7250   48.9810 C   0  0  0  0  0  0  0  0  0  0  0  0
   60.6690   28.5250   47.3180 S   0  0  0  0  0  0  0  0  0  0  0  0
   59.1170   28.7440   46.4500 C   0  0  0  0  0  0  0  0  0  0  0  0
   58.2450   27.6480   46.2580 C   0  0  0  0  0  0  0  0  0  0  0  0
   57.0240   27.8340   45.5900 C   0  0  0  0  0  0  0  0  0  0  0  0
   56.7380   29.1170   45.1470 C   0  0  0  0  0  0  0  0  0  0  0  0
   55.6480   29.5400   44.4800 N   0  0  0  0  0  0  0  0  0  0  0  0
   55.8340   30.8420   44.2550 N   0  0  0  0  0  0  0  0  0  0  0  0
   57.0270   31.1840   44.7980 C   0  0  0  0  0  0  0  0  0  0  0  0
   57.6490   32.5430   44.6930 C   0  0  0  0  0  0  0  0  0  0  0  0
   57.7020   33.2300   46.0610 C   0  0  0  0  0  0  0  0  0  0  0  0
   58.9230   32.8670   46.7840 N   0  0  0  0  0  0  0  0  0  0  0  0
   59.8490   33.8510   47.2720 C   0  0  0  0  0  0  0  0  0  0  0  0
   59.4960   35.0600   47.3330 O   0  0  0  0  0  0  0  0  0  0  0  0
   61.2080   33.4650   47.7190 C   0  0  0  0  0  0  0  0  0  0  0  0
   61.8710   34.1840   48.7310 C   0  0  0  0  0  0  0  0  0  0  0  0
   63.1510   33.8030   49.1480 C   0  0  0  0  0  0  0  0  0  0  0  0
   63.7790   32.7020   48.5640 C   0  0  0  0  0  0  0  0  0  0  0  0
   63.1280   31.9730   47.5680 C   0  0  0  0  0  0  0  0  0  0  0  0
   61.8480   32.3490   47.1480 C   0  0  0  0  0  0  0  0  0  0  0  0
   57.6030   30.1100   45.3490 N   0  0  0  0  0  0  0  0  0  0  0  0
   58.7690   29.9750   45.9740 N   0  0  0  0  0  0  0  0  0  0  0  0
   60.3910   31.0560   49.9480 N   0  0  0  0  0  0  0  0  0  0  0  0
   59.9340   32.0690   50.8550 C   0  0  0  0  0  0  0  0  0  0  0  0
   60.8390   32.8410   51.6030 C   0  0  0  0  0  0  0  0  0  0  0  0
   60.3660   33.7920   52.5130 C   0  0  0  0  0  0  0  0  0  0  0  0
   58.9900   33.9620   52.6980 C   0  0  0  0  0  0  0  0  0  0  0  0
   58.5330   34.8770   53.5870 F   0  0  0  0  0  0  0  0  0  0  0  0
   58.0880   33.1780   51.9750 C   0  0  0  0  0  0  0  0  0  0  0  0
   58.5580   32.2270   51.0620 C   0  0  0  0  0  0  0  0  0  0  0  0
   60.6852   28.4261   49.7378 H   0  0  0  0  0  0  0  0  0  0  0  0
   59.0492   28.0916   49.0610 H   0  0  0  0  0  0  0  0  0  0  0  0
   58.5225   26.6512   46.6313 H   0  0  0  0  0  0  0  0  0  0  0  0
   56.3259   27.0000   45.4254 H   0  0  0  0  0  0  0  0  0  0  0  0
   58.6720   32.4411   44.3019 H   0  0  0  0  0  0  0  0  0  0  0  0
   57.0368   33.1571   44.0161 H   0  0  0  0  0  0  0  0  0  0  0  0
   57.6799   34.3203   45.9170 H   0  0  0  0  0  0  0  0  0  0  0  0
   56.8342   32.9015   46.6518 H   0  0  0  0  0  0  0  0  0  0  0  0
   59.0920   31.8540   46.9780 H   0  0  0  0  0  0  0  0  0  0  0  0
   61.3798   35.0509   49.1970 H   0  0  0  0  0  0  0  0  0  0  0  0
   63.6633   34.3723   49.9376 H   0  0  0  0  0  0  0  0  0  0  0  0
   64.7881   32.4086   48.8891 H   0  0  0  0  0  0  0  0  0  0  0  0
   63.6219   31.1019   47.1128 H   0  0  0  0  0  0  0  0  0  0  0  0
   61.3377   31.7682   46.3656 H   0  0  0  0  0  0  0  0  0  0  0  0
   61.9217   32.6971   51.4726 H   0  0  0  0  0  0  0  0  0  0  0  0
   61.0771   34.4071   53.0840 H   0  0  0  0  0  0  0  0  0  0  0  0
   57.0059   33.3083   52.1235 H   0  0  0  0  0  0  0  0  0  0  0  0
   57.8444   31.6018   50.5053 H   0  0  0  0  0  0  0  0  0  0  0  0
  1  2  2  0
  2  3  1  0
  3  4  1  0
  4  5  1  0
  5  6  1  0
  6  7  2  0
  7  8  1  0
  8  9  2  0
  9 10  1  0
 10 11  2  0
 11 12  1  0
 12 13  1  0
 13 14  1  0
 14 15  1  0
 15 16  2  0
 15 17  1  0
 17 18  2  0
 18 19  1  0
 19 20  2  0
 20 21  1  0
 21 22  2  0
 11 23  1  0
 23 24  1  0
  2 25  1  0
 25 26  1  0
 26 27  2  0
 27 28  1  0
 28 29  2  0
 29 30  1  0
 29 31  1  0
 31 32  2  0
 24  5  2  0
 32 26  1  0
 23  8  1  0
 22 17  1  0
  3 33  1  0
  3 34  1  0
  6 35  1  0
  7 36  1  0
 12 37  1  0
 12 38  1  0
 13 39  1  0
 13 40  1  0
 14 41  1  0
 18 42  1  0
 19 43  1  0
 20 44  1  0
 21 45  1  0
 22 46  1  0
 27 47  1  0
 28 48  1  0
 31 49  1  0
 32 50  1  0
M  CHG  1  25  -1
M  END
>  <UniqueID>  (34) 
32

>  <SMILES>  (34) 
O=C(CSc1ccc2nnc(CCNC(=O)c3ccccc3)n2n1)[N-]c1ccc(F)cc1

>  <Energy>  (34) 
95.88378750247512

>  <Genealogy>  (34) 
O=C(CSc1ccc2nnc(CCNC(=O)c3ccccc3)n2n1)[N-]c1ccc(F)cc1 (protonated)
O=C(CSc1ccc2nnc(CCNC(=O)c3ccccc3)n2n1)[N-]c1ccc(F)cc1 (3D coordinates assigned)
O=C(CSc1ccc2nnc(CCNC(=O)c3ccccc3)n2n1)[N-]c1ccc(F)cc1 (optimized conformer: 95.88378750247512 kcal/mol)

>  <smiles>  (34) 
O=C(CSc1ccc2nnc(CCNC(=O)c3ccccc3)n2n1)Nc1ccc(F)cc1

>  <score_type>  (34) 
oracle

>  <origin>  (34) 
adg

>  <m_score__min__energy>  (34) 
-10.19

>  <m_primary>  (34) 
energy

$$$$
34:0
     RDKit          3D

 48 50  0  0  0  0  0  0  0  0999 V2000
   63.3680   34.1430   46.2890 C   0  0  0  0  0  0  0  0  0  0  0  0
   62.8930   33.4300   47.3040 C   0  0  0  0  0  0  0  0  0  0  0  0
   62.1860   34.0110   48.4030 N   0  0  0  0  0  0  0  0  0  0  0  0
   61.8670   33.0240   49.1750 C   0  0  0  0  0  0  0  0  0  0  0  0
   61.1680   33.1970   50.4950 C   0  0  0  0  0  0  0  0  0  0  0  0
   59.9110   32.3320   50.5990 C   0  0  0  0  0  0  0  0  0  0  0  0
   59.1850   32.2270   49.2920 C   0  0  0  0  0  0  0  0  0  0  0  0
   58.8110   31.0970   48.8760 O   0  0  0  0  0  0  0  0  0  0  0  0
   58.8700   33.4150   48.5520 N   0  0  0  0  0  0  0  0  0  0  0  0
   58.5930   33.4490   47.1400 C   0  0  0  0  0  0  0  0  0  0  0  0
   59.4180   34.2140   46.3000 C   0  0  0  0  0  0  0  0  0  0  0  0
   59.2170   34.2020   44.9180 C   0  0  0  0  0  0  0  0  0  0  0  0
   58.2330   33.3800   44.3580 C   0  0  0  0  0  0  0  0  0  0  0  0
   57.4370   32.5710   45.1760 C   0  0  0  0  0  0  0  0  0  0  0  0
   56.5040   31.6700   44.5530 N   0  0  0  0  0  0  0  0  0  0  0  0
   56.6200   29.9300   44.4910 S   0  0  0  0  0  0  0  0  0  0  0  0
   56.9880   29.5190   43.0880 O   0  0  0  0  0  0  0  0  0  0  0  0
   55.2720   29.3410   44.8320 O   0  0  0  0  0  0  0  0  0  0  0  0
   57.8590   29.2900   45.5770 C   0  0  0  0  0  0  0  0  0  0  0  0
   57.5880   28.1730   46.3870 C   0  0  0  0  0  0  0  0  0  0  0  0
   58.5310   27.7340   47.3220 C   0  0  0  0  0  0  0  0  0  0  0  0
   59.7560   28.4100   47.4640 C   0  0  0  0  0  0  0  0  0  0  0  0
   60.7660   27.9550   48.4800 C   0  0  0  0  0  0  0  0  0  0  0  0
   60.5790   28.6630   49.6740 O   0  0  0  0  0  0  0  0  0  0  0  0
   60.0410   29.5020   46.6250 C   0  0  0  0  0  0  0  0  0  0  0  0
   59.0980   29.9390   45.6880 C   0  0  0  0  0  0  0  0  0  0  0  0
   57.5770   32.6590   46.5720 C   0  0  0  0  0  0  0  0  0  0  0  0
   62.3610   31.7720   48.6190 C   0  0  0  0  0  0  0  0  0  0  0  0
   62.2290   30.6330   49.1370 O   0  0  0  0  0  0  0  0  0  0  0  0
   63.0420   32.0110   47.3970 N   0  0  0  0  0  0  0  0  0  0  0  0
   63.9048   33.6431   45.4693 H   0  0  0  0  0  0  0  0  0  0  0  0
   63.2246   35.2334   46.2681 H   0  0  0  0  0  0  0  0  0  0  0  0
   61.8601   32.9152   51.3023 H   0  0  0  0  0  0  0  0  0  0  0  0
   60.8621   34.2501   50.5804 H   0  0  0  0  0  0  0  0  0  0  0  0
   60.2019   31.3223   50.9245 H   0  0  0  0  0  0  0  0  0  0  0  0
   59.2336   32.8072   51.3238 H   0  0  0  0  0  0  0  0  0  0  0  0
   58.8920   34.3280   49.0640 H   0  0  0  0  0  0  0  0  0  0  0  0
   60.2249   34.8245   46.7316 H   0  0  0  0  0  0  0  0  0  0  0  0
   59.8338   34.8403   44.2682 H   0  0  0  0  0  0  0  0  0  0  0  0
   58.0844   33.3698   43.2681 H   0  0  0  0  0  0  0  0  0  0  0  0
   56.6300   27.6421   46.2848 H   0  0  0  0  0  0  0  0  0  0  0  0
   58.3136   26.8565   47.9487 H   0  0  0  0  0  0  0  0  0  0  0  0
   60.6377   26.8788   48.6680 H   0  0  0  0  0  0  0  0  0  0  0  0
   61.7803   28.1422   48.0978 H   0  0  0  0  0  0  0  0  0  0  0  0
   60.3660   29.5970   49.4110 H   0  0  0  0  0  0  0  0  0  0  0  0
   61.0105   30.0154   46.7057 H   0  0  0  0  0  0  0  0  0  0  0  0
   59.3289   30.7944   45.0361 H   0  0  0  0  0  0  0  0  0  0  0  0
   56.8865   32.1057   47.2255 H   0  0  0  0  0  0  0  0  0  0  0  0
  1  2  2  0
  2  3  1  0
  3  4  2  0
  4  5  1  0
  5  6  1  0
  6  7  1  0
  7  8  2  0
  7  9  1  0
  9 10  1  0
 10 11  2  0
 11 12  1  0
 12 13  2  0
 13 14  1  0
 14 15  1  0
 15 16  1  0
 16 17  2  0
 16 18  2  0
 16 19  1  0
 19 20  2  0
 20 21  1  0
 21 22  2  0
 22 23  1  0
 23 24  1  0
 22 25  1  0
 25 26  2  0
 14 27  2  0
  4 28  1  0
 28 29  2  0
 28 30  1  0
 30  2  1  0
 27 10  1  0
 26 19  1  0
  1 31  1  0
  1 32  1  0
  5 33  1  0
  5 34  1  0
  6 35  1  0
  6 36  1  0
  9 37  1  0
 11 38  1  0
 12 39  1  0
 13 40  1  0
 20 41  1  0
 21 42  1  0
 23 43  1  0
 23 44  1  0
 24 45  1  0
 25 46  1  0
 26 47  1  0
 27 48  1  0
M  CHG  2  15  -1  30  -1
M  END
>  <UniqueID>  (35) 
33

>  <SMILES>  (35) 
C=C1N=C(CCC(=O)Nc2cccc([N-]S(=O)(=O)c3ccc(CO)cc3)c2)C(=O)[N-]1

>  <Energy>  (35) 
77.50474280434445

>  <Genealogy>  (35) 
C=C1N=C(CCC(=O)Nc2cccc([N-]S(=O)(=O)c3ccc(CO)cc3)c2)C(=O)[N-]1 (protonated)
C=C1N=C(CCC(=O)Nc2cccc([N-]S(=O)(=O)c3ccc(CO)cc3)c2)C(=O)[N-]1 (3D coordinates assigned)
C=C1N=C(CCC(=O)Nc2cccc([N-]S(=O)(=O)c3ccc(CO)cc3)c2)C(=O)[N-]1 (nonaromatic ring conformer: 77.50474280434445 kcal/mol)

>  <smiles>  (35) 
C=C1N=C(CCC(=O)Nc2cccc(NS(=O)(=O)c3ccc(CO)cc3)c2)C(=O)N1

>  <score_type>  (35) 
oracle

>  <origin>  (35) 
adg

>  <m_score__min__energy>  (35) 
-13.4

>  <m_primary>  (35) 
energy

$$$$
35:0
     RDKit          3D

 59 62  0  0  0  0  0  0  0  0999 V2000
   54.9110   19.5780   48.0520 C   0  0  0  0  0  0  0  0  0  0  0  0
   56.2950   19.9860   47.7650 N   0  0  0  0  0  0  0  0  0  0  0  0
   56.5390   19.9790   46.3010 C   0  0  0  0  0  0  0  0  0  0  0  0
   57.7430   20.8400   45.9080 C   0  0  0  0  0  0  0  0  0  0  0  0
   57.5580   22.2170   46.3810 N   0  0  0  0  0  0  0  0  0  0  0  0
   58.3940   23.2650   45.8530 C   0  0  0  0  0  0  0  0  0  0  0  0
   59.5580   22.9850   45.4540 O   0  0  0  0  0  0  0  0  0  0  0  0
   57.9210   24.6650   45.7590 C   0  0  0  0  0  0  0  0  0  0  0  0
   56.5650   24.9670   45.9710 C   0  0  0  0  0  0  0  0  0  0  0  0
   56.1140   26.2890   45.9090 C   0  0  0  0  0  0  0  0  0  0  0  0
   57.0120   27.3350   45.6300 C   0  0  0  0  0  0  0  0  0  0  0  0
   56.5800   28.7070   45.5960 N   0  0  0  0  0  0  0  0  0  0  0  0
   57.4730   29.8320   45.6270 C   0  0  0  0  0  0  0  0  0  0  0  0
   58.6280   29.7110   46.1160 O   0  0  0  0  0  0  0  0  0  0  0  0
   57.0350   31.1270   45.2000 N   0  0  0  0  0  0  0  0  0  0  0  0
   57.6740   32.3760   45.5010 C   0  0  0  0  0  0  0  0  0  0  0  0
   57.7860   33.4010   44.5430 C   0  0  0  0  0  0  0  0  0  0  0  0
   58.4400   34.5940   44.8660 C   0  0  0  0  0  0  0  0  0  0  0  0
   59.0060   34.7650   46.1330 C   0  0  0  0  0  0  0  0  0  0  0  0
   58.9290   33.7370   47.0780 C   0  0  0  0  0  0  0  0  0  0  0  0
   59.6770   33.9410   48.6960 S   0  0  0  0  0  0  0  0  0  0  0  0
   61.2310   33.1940   48.1830 C   0  0  0  0  0  0  0  0  0  0  0  0
   62.3230   34.0350   47.9240 C   0  0  0  0  0  0  0  0  0  0  0  0
   63.5540   33.4970   47.5440 C   0  0  0  0  0  0  0  0  0  0  0  0
   63.7040   32.1160   47.4160 C   0  0  0  0  0  0  0  0  0  0  0  0
   62.6210   31.2680   47.6610 C   0  0  0  0  0  0  0  0  0  0  0  0
   61.3760   31.7950   48.0390 C   0  0  0  0  0  0  0  0  0  0  0  0
   60.2770   30.9020   48.2590 N   0  0  0  0  0  0  0  0  0  0  0  0
   58.2630   32.5460   46.7600 C   0  0  0  0  0  0  0  0  0  0  0  0
   58.3710   27.0360   45.4530 C   0  0  0  0  0  0  0  0  0  0  0  0
   58.8220   25.7150   45.5150 C   0  0  0  0  0  0  0  0  0  0  0  0
   56.6420   22.4690   47.5000 C   0  0  0  0  0  0  0  0  0  0  0  0
   56.6330   21.2620   48.4470 C   0  0  0  0  0  0  0  0  0  0  0  0
   54.7601   19.5335   49.1407 H   0  0  0  0  0  0  0  0  0  0  0  0
   54.2151   20.3092   47.6149 H   0  0  0  0  0  0  0  0  0  0  0  0
   54.7230   18.5862   47.6149 H   0  0  0  0  0  0  0  0  0  0  0  0
   56.7240   18.9438   45.9782 H   0  0  0  0  0  0  0  0  0  0  0  0
   55.6495   20.4003   45.8097 H   0  0  0  0  0  0  0  0  0  0  0  0
   58.6533   20.4197   46.3604 H   0  0  0  0  0  0  0  0  0  0  0  0
   57.8367   20.8467   44.8120 H   0  0  0  0  0  0  0  0  0  0  0  0
   55.8529   24.1570   46.1874 H   0  0  0  0  0  0  0  0  0  0  0  0
   55.0505   26.5124   46.0794 H   0  0  0  0  0  0  0  0  0  0  0  0
   55.5540   28.9020   45.6230 H   0  0  0  0  0  0  0  0  0  0  0  0
   57.3585   33.2634   43.5389 H   0  0  0  0  0  0  0  0  0  0  0  0
   58.5094   35.4004   44.1211 H   0  0  0  0  0  0  0  0  0  0  0  0
   59.5119   35.7083   46.3865 H   0  0  0  0  0  0  0  0  0  0  0  0
   62.2090   35.1248   48.0208 H   0  0  0  0  0  0  0  0  0  0  0  0
   64.4067   34.1629   47.3453 H   0  0  0  0  0  0  0  0  0  0  0  0
   64.6763   31.6941   47.1218 H   0  0  0  0  0  0  0  0  0  0  0  0
   62.7447   30.1799   47.5570 H   0  0  0  0  0  0  0  0  0  0  0  0
   59.9120   30.3090   47.4810 H   0  0  0  0  0  0  0  0  0  0  0  0
   59.7920   30.8360   49.1800 H   0  0  0  0  0  0  0  0  0  0  0  0
   58.2024   31.7387   47.5047 H   0  0  0  0  0  0  0  0  0  0  0  0
   59.0879   27.8486   45.2637 H   0  0  0  0  0  0  0  0  0  0  0  0
   59.8903   25.4955   45.3717 H   0  0  0  0  0  0  0  0  0  0  0  0
   56.9743   23.3619   48.0498 H   0  0  0  0  0  0  0  0  0  0  0  0
   55.6268   22.6308   47.1086 H   0  0  0  0  0  0  0  0  0  0  0  0
   57.6316   21.1637   48.8978 H   0  0  0  0  0  0  0  0  0  0  0  0
   55.8549   21.4450   49.2027 H   0  0  0  0  0  0  0  0  0  0  0  0
  1  2  1  0
  2  3  1  0
  3  4  1  0
  4  5  1  0
  5  6  1  0
  6  7  2  0
  6  8  1  0
  8  9  2  0
  9 10  1  0
 10 11  2  0
 11 12  1  0
 12 13  1  0
 13 14  2  0
 13 15  1  0
 15 16  1  0
 16 17  2  0
 17 18  1  0
 18 19  2  0
 19 20  1  0
 20 21  1  0
 21 22  1  0
 22 23  2  0
 23 24  1  0
 24 25  2  0
 25 26  1  0
 26 27  2  0
 27 28  1  0
 20 29  2  0
 11 30  1  0
 30 31  2  0
  5 32  1  0
 32 33  1  0
 33  2  1  0
 31  8  1  0
 29 16  1  0
 27 22  1  0
  1 34  1  0
  1 35  1  0
  1 36  1  0
  3 37  1  0
  3 38  1  0
  4 39  1  0
  4 40  1  0
  9 41  1  0
 10 42  1  0
 12 43  1  0
 17 44  1  0
 18 45  1  0
 19 46  1  0
 23 47  1  0
 24 48  1  0
 25 49  1  0
 26 50  1  0
 28 51  1  0
 28 52  1  0
 29 53  1  0
 30 54  1  0
 31 55  1  0
 32 56  1  0
 32 57  1  0
 33 58  1  0
 33 59  1  0
M  CHG  1  15  -1
M  END
>  <UniqueID>  (36) 
34

>  <SMILES>  (36) 
CN1CCN(C(=O)c2ccc(NC(=O)[N-]c3cccc(Sc4ccccc4N)c3)cc2)CC1

>  <Energy>  (36) 
75.99987710797289

>  <Genealogy>  (36) 
CN1CCN(C(=O)c2ccc(NC(=O)[N-]c3cccc(Sc4ccccc4N)c3)cc2)CC1 (protonated)
CN1CCN(C(=O)c2ccc(NC(=O)[N-]c3cccc(Sc4ccccc4N)c3)cc2)CC1 (3D coordinates assigned)
CN1CCN(C(=O)c2ccc(NC(=O)[N-]c3cccc(Sc4ccccc4N)c3)cc2)CC1 (nonaromatic ring conformer: 75.99987710797289 kcal/mol)

>  <smiles>  (36) 
CN1CCN(C(=O)c2ccc(NC(=O)Nc3cccc(Sc4ccccc4N)c3)cc2)CC1

>  <score_type>  (36) 
oracle

>  <origin>  (36) 
adg

>  <m_score__min__energy>  (36) 
-10.65

>  <m_primary>  (36) 
energy

$$$$
36:0
     RDKit          3D

 57 59  0  0  0  0  0  0  0  0999 V2000
   63.0600   33.2670   51.4050 C   0  0  0  0  0  0  0  0  0  0  0  0
   62.5120   33.0440   50.0550 N   0  0  1  0  0  0  0  0  0  0  0  0
   61.6960   34.2110   49.6450 C   0  0  0  0  0  0  0  0  0  0  0  0
   60.7730   33.9000   48.4890 C   0  0  0  0  0  0  0  0  0  0  0  0
   61.2360   33.9870   47.1640 C   0  0  0  0  0  0  0  0  0  0  0  0
   60.3720   33.7290   46.0960 C   0  0  0  0  0  0  0  0  0  0  0  0
   59.0350   33.3850   46.3370 C   0  0  0  0  0  0  0  0  0  0  0  0
   57.9450   33.0820   44.9870 S   0  0  0  0  0  0  0  0  0  0  0  0
   58.5230   33.6620   43.7250 O   0  0  0  0  0  0  0  0  0  0  0  0
   56.6260   33.7570   45.2510 O   0  0  0  0  0  0  0  0  0  0  0  0
   57.7140   31.3480   44.7840 C   0  0  0  0  0  0  0  0  0  0  0  0
   56.7930   30.8480   43.8470 C   0  0  0  0  0  0  0  0  0  0  0  0
   56.6440   29.4670   43.6750 C   0  0  0  0  0  0  0  0  0  0  0  0
   57.4060   28.5800   44.4420 C   0  0  0  0  0  0  0  0  0  0  0  0
   58.3110   29.0710   45.3990 C   0  0  0  0  0  0  0  0  0  0  0  0
   59.1310   28.1330   46.1870 C   0  0  0  0  0  0  0  0  0  0  0  0
   59.5490   27.0800   45.6160 O   0  0  0  0  0  0  0  0  0  0  0  0
   59.5070   28.4070   47.5610 N   0  0  0  0  0  0  0  0  0  0  0  0
   58.7870   29.3930   48.3880 C   0  0  0  0  0  0  0  0  0  0  0  0
   59.7640   30.2420   49.2200 C   0  0  0  0  0  0  0  0  0  0  0  0
   61.0020   29.4640   49.7140 C   0  0  0  0  0  0  0  0  0  0  0  0
   60.7900   27.9490   49.6520 C   0  0  0  0  0  0  0  0  0  0  0  0
   60.4810   27.5150   48.2090 C   0  0  0  0  0  0  0  0  0  0  0  0
   58.4720   30.4570   45.5560 C   0  0  0  0  0  0  0  0  0  0  0  0
   58.5730   33.2850   47.6560 C   0  0  0  0  0  0  0  0  0  0  0  0
   59.4330   33.5510   48.7260 C   0  0  0  0  0  0  0  0  0  0  0  0
   63.8240   32.7260   48.9350 S   0  0  0  0  0  0  0  0  0  0  0  0
   65.3500   32.3190   49.7740 C   0  0  0  0  0  0  0  0  0  0  0  0
   64.0480   33.9340   48.0660 O   0  0  0  0  0  0  0  0  0  0  0  0
   63.4500   31.5690   48.0430 O   0  0  0  0  0  0  0  0  0  0  0  0
   62.3165   32.9644   52.1571 H   0  0  0  0  0  0  0  0  0  0  0  0
   63.9748   32.6696   51.5327 H   0  0  0  0  0  0  0  0  0  0  0  0
   63.2977   34.3334   51.5327 H   0  0  0  0  0  0  0  0  0  0  0  0
   61.9090   32.1870   50.0990 H   0  0  0  0  0  0  0  0  0  0  0  0
   61.0886   34.5347   50.5031 H   0  0  0  0  0  0  0  0  0  0  0  0
   62.3873   35.0005   49.3152 H   0  0  0  0  0  0  0  0  0  0  0  0
   62.2834   34.2595   46.9671 H   0  0  0  0  0  0  0  0  0  0  0  0
   60.7428   33.7962   45.0626 H   0  0  0  0  0  0  0  0  0  0  0  0
   56.1879   31.5439   43.2474 H   0  0  0  0  0  0  0  0  0  0  0  0
   55.9272   29.0792   42.9362 H   0  0  0  0  0  0  0  0  0  0  0  0
   57.2969   27.4952   44.2960 H   0  0  0  0  0  0  0  0  0  0  0  0
   58.2056   30.0562   47.7306 H   0  0  0  0  0  0  0  0  0  0  0  0
   58.1233   28.8505   49.0774 H   0  0  0  0  0  0  0  0  0  0  0  0
   60.1078   31.0827   48.5995 H   0  0  0  0  0  0  0  0  0  0  0  0
   59.2171   30.5744   50.1146 H   0  0  0  0  0  0  0  0  0  0  0  0
   61.8628   29.7282   49.0822 H   0  0  0  0  0  0  0  0  0  0  0  0
   61.1795   29.7394   50.7641 H   0  0  0  0  0  0  0  0  0  0  0  0
   61.7020   27.4400   49.9972 H   0  0  0  0  0  0  0  0  0  0  0  0
   59.9417   27.6783   50.2979 H   0  0  0  0  0  0  0  0  0  0  0  0
   61.4145   27.5263   47.6273 H   0  0  0  0  0  0  0  0  0  0  0  0
   60.0457   26.5054   48.2440 H   0  0  0  0  0  0  0  0  0  0  0  0
   59.1959   30.8450   46.2877 H   0  0  0  0  0  0  0  0  0  0  0  0
   57.5296   32.9961   47.8505 H   0  0  0  0  0  0  0  0  0  0  0  0
   59.0585   33.4867   49.7583 H   0  0  0  0  0  0  0  0  0  0  0  0
   65.1928   32.3609   50.8619 H   0  0  0  0  0  0  0  0  0  0  0  0
   65.6665   31.3051   49.4881 H   0  0  0  0  0  0  0  0  0  0  0  0
   66.1294   33.0407   49.4881 H   0  0  0  0  0  0  0  0  0  0  0  0
  1  2  1  0
  2  3  1  0
  3  4  1  0
  4  5  2  0
  5  6  1  0
  6  7  2  0
  7  8  1  0
  8  9  2  0
  8 10  2  0
  8 11  1  0
 11 12  2  0
 12 13  1  0
 13 14  2  0
 14 15  1  0
 15 16  1  0
 16 17  2  0
 16 18  1  0
 18 19  1  0
 19 20  1  0
 20 21  1  0
 21 22  1  0
 22 23  1  0
 15 24  2  0
  7 25  1  0
 25 26  2  0
  2 27  1  0
 27 28  1  0
 27 29  2  0
 27 30  2  0
 26  4  1  0
 24 11  1  0
 23 18  1  0
  1 31  1  0
  1 32  1  0
  1 33  1  0
  2 34  1  1
  3 35  1  0
  3 36  1  0
  5 37  1  0
  6 38  1  0
 12 39  1  0
 13 40  1  0
 14 41  1  0
 19 42  1  0
 19 43  1  0
 20 44  1  0
 20 45  1  0
 21 46  1  0
 21 47  1  0
 22 48  1  0
 22 49  1  0
 23 50  1  0
 23 51  1  0
 24 52  1  0
 25 53  1  0
 26 54  1  0
 28 55  1  0
 28 56  1  0
 28 57  1  0
M  CHG  1   2   1
M  END
>  <UniqueID>  (37) 
35

>  <SMILES>  (37) 
C[N@@H+](Cc1ccc(S(=O)(=O)c2cccc(C(=O)N3CCCCC3)c2)cc1)S(C)(=O)=O

>  <Energy>  (37) 
58.84593731892649

>  <Genealogy>  (37) 
C[NH+](Cc1ccc(S(=O)(=O)c2cccc(C(=O)N3CCCCC3)c2)cc1)S(C)(=O)=O (protonated)
C[N@@H+](Cc1ccc(S(=O)(=O)c2cccc(C(=O)N3CCCCC3)c2)cc1)S(C)(=O)=O (chirality)
C[N@@H+](Cc1ccc(S(=O)(=O)c2cccc(C(=O)N3CCCCC3)c2)cc1)S(C)(=O)=O (3D coordinates assigned)
C[N@@H+](Cc1ccc(S(=O)(=O)c2cccc(C(=O)N3CCCCC3)c2)cc1)S(C)(=O)=O (nonaromatic ring conformer: 58.84593731892649 kcal/mol)

>  <smiles>  (37) 
CN(Cc1ccc(S(=O)(=O)c2cccc(C(=O)N3CCCCC3)c2)cc1)S(C)(=O)=O

>  <score_type>  (37) 
oracle

>  <origin>  (37) 
adg

>  <m_score__min__energy>  (37) 
-9.0399999999999991

>  <m_primary>  (37) 
energy

$$$$
37:0
     RDKit          3D

 22 23  0  0  0  0  0  0  0  0999 V2000
   56.9540   31.2460   43.5650 C   0  0  0  0  0  0  0  0  0  0  0  0
   57.2650   30.0420   44.0360 C   0  0  0  0  0  0  0  0  0  0  0  0
   57.4240   28.9440   43.2660 N   0  0  0  0  0  0  0  0  0  0  0  0
   57.7610   27.8430   43.9920 C   0  0  0  0  0  0  0  0  0  0  0  0
   58.0810   26.7660   43.4220 O   0  0  0  0  0  0  0  0  0  0  0  0
   57.8420   28.0410   45.3830 C   0  0  0  0  0  0  0  0  0  0  0  0
   58.1080   27.1270   46.3480 C   0  0  0  0  0  0  0  0  0  0  0  0
   57.2950   26.0580   46.7340 C   0  0  0  0  0  0  0  0  0  0  0  0
   55.8900   25.7790   46.3810 C   0  0  0  0  0  0  0  0  0  0  0  0
   55.1440   26.7160   45.9900 O   0  0  0  0  0  0  0  0  0  0  0  0
   55.3990   24.4810   46.3880 O   0  0  0  0  0  0  0  0  0  0  0  0
   57.9650   25.3860   47.7360 C   0  0  0  0  0  0  0  0  0  0  0  0
   59.1570   25.9550   47.9840 N   0  0  0  0  0  0  0  0  0  0  0  0
   59.2640   26.9970   47.1360 C   0  0  0  0  0  0  0  0  0  0  0  0
   60.4270   27.6410   46.9950 C   0  0  0  0  0  0  0  0  0  0  0  0
   57.5270   29.6830   45.6550 S   0  0  0  0  0  0  0  0  0  0  0  0
   56.8411   32.0945   44.2558 H   0  0  0  0  0  0  0  0  0  0  0  0
   56.8096   31.3935   42.4845 H   0  0  0  0  0  0  0  0  0  0  0  0
   57.3420   28.9430   42.2240 H   0  0  0  0  0  0  0  0  0  0  0  0
   57.5752   24.5020   48.2619 H   0  0  0  0  0  0  0  0  0  0  0  0
   60.5047   28.4904   46.3004 H   0  0  0  0  0  0  0  0  0  0  0  0
   61.3063   27.3215   47.5736 H   0  0  0  0  0  0  0  0  0  0  0  0
  1  2  2  0
  2  3  1  0
  3  4  1  0
  4  5  2  0
  4  6  1  0
  6  7  2  3
  7  8  1  0
  8  9  1  0
  9 10  2  0
  9 11  1  0
  8 12  2  0
 12 13  1  0
 13 14  1  0
 14 15  2  0
  6 16  1  0
 16  2  1  0
 14  7  1  0
  1 17  1  0
  1 18  1  0
  3 19  1  0
 12 20  1  0
 15 21  1  0
 15 22  1  0
M  CHG  2  11  -1  13  -1
M  END
>  <UniqueID>  (38) 
36

>  <SMILES>  (38) 
C=c1[nH]c(=O)c(=c2c(C(=O)[O-])c[n-]c2=C)s1

>  <Energy>  (38) 
100.9159620852594

>  <Genealogy>  (38) 
C=c1[nH]c(=O)c(=c2c(C(=O)[O-])c[n-]c2=C)s1 (protonated)
C=c1[nH]c(=O)c(=c2c(C(=O)[O-])c[n-]c2=C)s1 (3D coordinates assigned)
C=c1[nH]c(=O)c(=c2c(C(=O)[O-])c[n-]c2=C)s1 (optimized conformer: 100.9159620852594 kcal/mol)

>  <smiles>  (38) 
C=c1[nH]c(=O)c(=c2c(C(=O)O)c[nH]c2=C)s1

>  <score_type>  (38) 
oracle

>  <origin>  (38) 
adg

>  <m_score__min__energy>  (38) 
-9.6600000000000001

>  <m_primary>  (38) 
energy

$$$$
38:0
     RDKit          3D

 57 59  0  0  0  0  0  0  0  0999 V2000
   59.4080   29.8980   48.8390 C   0  0  0  0  0  0  0  0  0  0  0  0
   58.9670   31.2360   49.0400 O   0  0  0  0  0  0  0  0  0  0  0  0
   58.6690   31.8010   50.2920 C   0  0  0  0  0  0  0  0  0  0  0  0
   57.4150   31.6130   50.9080 C   0  0  0  0  0  0  0  0  0  0  0  0
   57.1430   32.1910   52.1510 C   0  0  0  0  0  0  0  0  0  0  0  0
   58.1130   32.9610   52.7920 C   0  0  0  0  0  0  0  0  0  0  0  0
   59.3590   33.1540   52.1970 C   0  0  0  0  0  0  0  0  0  0  0  0
   59.6500   32.5790   50.9490 C   0  0  0  0  0  0  0  0  0  0  0  0
   61.0060   32.8250   50.3310 C   0  0  0  0  0  0  0  0  0  0  0  0
   61.0020   34.0880   49.5630 N   0  0  0  0  0  0  0  0  0  0  0  0
   59.6400   34.5910   49.2560 C   0  0  0  0  0  0  0  0  0  0  0  0
   59.2640   34.4680   47.7690 C   0  0  0  0  0  0  0  0  0  0  0  0
   59.8020   33.2180   47.1930 N   0  0  1  0  0  0  0  0  0  0  0  0
   59.2590   33.0160   45.8180 C   0  0  0  0  0  0  0  0  0  0  0  0
   57.8170   32.4660   45.8160 C   0  0  0  0  0  0  0  0  0  0  0  0
   57.7200   31.1360   45.1110 C   0  0  0  0  0  0  0  0  0  0  0  0
   58.6310   30.1090   45.4130 C   0  0  0  0  0  0  0  0  0  0  0  0
   58.5160   28.8620   44.7920 C   0  0  0  0  0  0  0  0  0  0  0  0
   57.4940   28.6290   43.8680 C   0  0  0  0  0  0  0  0  0  0  0  0
   56.5850   29.6450   43.5620 C   0  0  0  0  0  0  0  0  0  0  0  0
   56.6960   30.8950   44.1800 C   0  0  0  0  0  0  0  0  0  0  0  0
   61.2960   33.2440   47.1810 C   0  0  2  0  0  0  0  0  0  0  0  0
   61.8780   31.7990   47.1350 C   0  0  0  0  0  0  0  0  0  0  0  0
   63.3530   31.7300   47.5490 C   0  0  0  0  0  0  0  0  0  0  0  0
   64.0870   32.7470   46.9190 O   0  0  0  0  0  0  0  0  0  0  0  0
   61.8890   34.0500   48.3810 C   0  0  0  0  0  0  0  0  0  0  0  0
   59.5675   29.4141   49.8139 H   0  0  0  0  0  0  0  0  0  0  0  0
   58.6457   29.3417   48.2739 H   0  0  0  0  0  0  0  0  0  0  0  0
   60.3517   29.9040   48.2739 H   0  0  0  0  0  0  0  0  0  0  0  0
   56.6455   31.0073   50.4070 H   0  0  0  0  0  0  0  0  0  0  0  0
   56.1620   32.0383   52.6246 H   0  0  0  0  0  0  0  0  0  0  0  0
   57.8946   33.4170   53.7689 H   0  0  0  0  0  0  0  0  0  0  0  0
   60.1200   33.7613   52.7089 H   0  0  0  0  0  0  0  0  0  0  0  0
   61.7613   32.8882   51.1282 H   0  0  0  0  0  0  0  0  0  0  0  0
   61.2431   31.9945   49.6498 H   0  0  0  0  0  0  0  0  0  0  0  0
   58.9138   34.0148   49.8481 H   0  0  0  0  0  0  0  0  0  0  0  0
   59.6250   35.6618   49.5073 H   0  0  0  0  0  0  0  0  0  0  0  0
   58.1682   34.4668   47.6731 H   0  0  0  0  0  0  0  0  0  0  0  0
   59.6953   35.3211   47.2247 H   0  0  0  0  0  0  0  0  0  0  0  0
   59.4910   32.4290   47.8030 H   0  0  0  0  0  0  0  0  0  0  0  0
   59.2668   33.9822   45.2922 H   0  0  0  0  0  0  0  0  0  0  0  0
   59.8964   32.2722   45.3176 H   0  0  0  0  0  0  0  0  0  0  0  0
   57.4831   32.3414   46.8567 H   0  0  0  0  0  0  0  0  0  0  0  0
   57.1807   33.1833   45.2769 H   0  0  0  0  0  0  0  0  0  0  0  0
   59.4369   30.2872   46.1402 H   0  0  0  0  0  0  0  0  0  0  0  0
   59.2320   28.0619   45.0313 H   0  0  0  0  0  0  0  0  0  0  0  0
   57.4052   27.6463   43.3818 H   0  0  0  0  0  0  0  0  0  0  0  0
   55.7809   29.4617   42.8341 H   0  0  0  0  0  0  0  0  0  0  0  0
   55.9786   31.6924   43.9360 H   0  0  0  0  0  0  0  0  0  0  0  0
   61.5992   33.7706   46.2641 H   0  0  0  0  0  0  0  0  0  0  0  0
   61.2931   31.1643   47.8170 H   0  0  0  0  0  0  0  0  0  0  0  0
   61.8138   31.4530   46.0928 H   0  0  0  0  0  0  0  0  0  0  0  0
   63.4292   31.8507   48.6397 H   0  0  0  0  0  0  0  0  0  0  0  0
   63.7628   30.7550   47.2466 H   0  0  0  0  0  0  0  0  0  0  0  0
   64.8190   32.3070   46.4120 H   0  0  0  0  0  0  0  0  0  0  0  0
   62.8415   33.5852   48.6755 H   0  0  0  0  0  0  0  0  0  0  0  0
   62.0182   35.0880   48.0406 H   0  0  0  0  0  0  0  0  0  0  0  0
  1  2  1  0
  2  3  1  0
  3  4  2  0
  4  5  1  0
  5  6  2  0
  6  7  1  0
  7  8  2  0
  8  9  1  0
  9 10  1  0
 10 11  1  0
 11 12  1  0
 12 13  1  0
 13 14  1  0
 14 15  1  0
 15 16  1  0
 16 17  2  0
 17 18  1  0
 18 19  2  0
 19 20  1  0
 20 21  2  0
 13 22  1  0
 22 23  1  0
 23 24  1  0
 24 25  1  0
 22 26  1  0
  8  3  1  0
 26 10  1  0
 21 16  1  0
  1 27  1  0
  1 28  1  0
  1 29  1  0
  4 30  1  0
  5 31  1  0
  6 32  1  0
  7 33  1  0
  9 34  1  0
  9 35  1  0
 11 36  1  0
 11 37  1  0
 12 38  1  0
 12 39  1  0
 13 40  1  1
 14 41  1  0
 14 42  1  0
 15 43  1  0
 15 44  1  0
 17 45  1  0
 18 46  1  0
 19 47  1  0
 20 48  1  0
 21 49  1  0
 22 50  1  6
 23 51  1  0
 23 52  1  0
 24 53  1  0
 24 54  1  0
 25 55  1  0
 26 56  1  0
 26 57  1  0
M  CHG  1  13   1
M  END
>  <UniqueID>  (39) 
37

>  <SMILES>  (39) 
COc1ccccc1CN1CC[N@@H+](CCc2ccccc2)[C@H](CCO)C1

>  <Energy>  (39) 
69.80440570855687

>  <Genealogy>  (39) 
COc1ccccc1CN1CC[NH+](CCc2ccccc2)C(CCO)C1 (protonated)
COc1ccccc1CN1CC[N@@H+](CCc2ccccc2)[C@H](CCO)C1 (chirality)
COc1ccccc1CN1CC[N@@H+](CCc2ccccc2)[C@H](CCO)C1 (3D coordinates assigned)
COc1ccccc1CN1CC[N@@H+](CCc2ccccc2)[C@H](CCO)C1 (nonaromatic ring conformer: 69.80440570855687 kcal/mol)

>  <smiles>  (39) 
COc1ccccc1CN1CCN(CCc2ccccc2)C(CCO)C1

>  <score_type>  (39) 
oracle

>  <origin>  (39) 
adg

>  <m_score__min__energy>  (39) 
-5.5

>  <m_primary>  (39) 
energy

$$$$
39:0
     RDKit          3D

 35 36  0  0  0  0  0  0  0  0999 V2000
   59.5430   33.4800   50.5210 C   0  0  0  0  0  0  0  0  0  0  0  0
   60.8200   32.8140   50.1320 C   0  0  0  0  0  0  0  0  0  0  0  0
   61.9280   33.8340   49.8750 C   0  0  0  0  0  0  0  0  0  0  0  0
   62.4300   33.5710   48.5320 N   0  0  0  0  0  0  0  0  0  0  0  0
   61.7730   33.8390   47.3830 C   0  0  0  0  0  0  0  0  0  0  0  0
   60.1420   34.5760   47.2130 S   0  0  0  0  0  0  0  0  0  0  0  0
   59.6560   34.5500   45.4300 C   0  0  0  0  0  0  0  0  0  0  0  0
   58.6140   33.4770   45.3580 C   0  0  0  0  0  0  0  0  0  0  0  0
   57.4320   33.9750   45.6970 O   0  0  0  0  0  0  0  0  0  0  0  0
   58.6650   32.2100   45.0370 N   0  0  0  0  0  0  0  0  0  0  0  0
   63.6280   33.0180   48.2710 C   0  0  0  0  0  0  0  0  0  0  0  0
   58.1670   30.0750   45.8960 C   0  0  0  0  0  0  0  0  0  0  0  0
   58.8990   30.2730   47.4550 Cl  0  0  0  0  0  0  0  0  0  0  0  0
   57.5690   28.8570   45.6300 C   0  0  0  0  0  0  0  0  0  0  0  0
   56.9840   28.6180   44.4590 N   0  0  0  0  0  0  0  0  0  0  0  0
   56.9700   29.5660   43.5170 C   0  0  0  0  0  0  0  0  0  0  0  0
   57.5450   30.7650   43.7450 C   0  0  0  0  0  0  0  0  0  0  0  0
   57.4810   31.9640   42.4430 Cl  0  0  0  0  0  0  0  0  0  0  0  0
   62.5990   33.4360   46.3740 N   0  0  0  0  0  0  0  0  0  0  0  0
   63.7110   32.9460   46.9210 N   0  0  0  0  0  0  0  0  0  0  0  0
   58.1920   31.1100   44.9630 C   0  0  0  0  0  0  0  0  0  0  0  0
   64.4910   32.6490   49.1130 O   0  0  0  0  0  0  0  0  0  0  0  0
   59.4689   33.5186   51.6178 H   0  0  0  0  0  0  0  0  0  0  0  0
   59.5246   34.5026   50.1160 H   0  0  0  0  0  0  0  0  0  0  0  0
   58.6939   32.9099   50.1160 H   0  0  0  0  0  0  0  0  0  0  0  0
   61.1343   32.1418   50.9440 H   0  0  0  0  0  0  0  0  0  0  0  0
   60.6466   32.2514   49.2028 H   0  0  0  0  0  0  0  0  0  0  0  0
   61.5255   34.8558   49.9368 H   0  0  0  0  0  0  0  0  0  0  0  0
   62.7297   33.7472   50.6232 H   0  0  0  0  0  0  0  0  0  0  0  0
   59.2401   35.5210   45.1232 H   0  0  0  0  0  0  0  0  0  0  0  0
   60.5078   34.3607   44.7602 H   0  0  0  0  0  0  0  0  0  0  0  0
   57.5770   28.0716   46.4001 H   0  0  0  0  0  0  0  0  0  0  0  0
   56.5410   27.7010   44.2810 H   0  0  0  0  0  0  0  0  0  0  0  0
   56.4864   29.3673   42.5492 H   0  0  0  0  0  0  0  0  0  0  0  0
   64.5440   32.5520   46.3920 H   0  0  0  0  0  0  0  0  0  0  0  0
  1  2  1  0
  2  3  1  0
  3  4  1  0
  4  5  1  0
  5  6  1  0
  6  7  1  0
  7  8  1  0
  8  9  2  0
  8 10  1  0
 10 11  2  3
 11 12  1  0
 12 13  1  0
 12 14  2  0
 14 15  1  0
 15 16  1  0
 16 17  2  0
 17 18  1  0
  5 19  2  0
 19 20  1  0
 20 21  1  0
 21 22  2  0
 21  4  1  0
 17 11  1  0
  1 23  1  0
  1 24  1  0
  1 25  1  0
  2 26  1  0
  2 27  1  0
  3 28  1  0
  3 29  1  0
  7 30  1  0
  7 31  1  0
 14 32  1  0
 15 33  1  0
 16 34  1  0
 20 35  1  0
M  END
>  <smiles>  (40) 
CCCn1c(SCC(=O)N=c2c(Cl)c[nH]cc2Cl)n[nH]c1=O

>  <score_type>  (40) 
oracle

>  <origin>  (40) 
adg

>  <m_score__min__energy>  (40) 
-7.25

>  <m_primary>  (40) 
energy

$$$$
40:0
     RDKit          3D

 63 66  0  0  0  0  0  0  0  0999 V2000
   59.4840   35.3350   46.9380 C   0  0  0  0  0  0  0  0  0  0  0  0
   59.0010   34.0230   46.3800 C   0  0  0  0  0  0  0  0  0  0  0  0
   58.2560   34.0180   45.1900 C   0  0  0  0  0  0  0  0  0  0  0  0
   57.7600   32.8220   44.6650 C   0  0  0  0  0  0  0  0  0  0  0  0
   58.0100   31.6080   45.3170 C   0  0  0  0  0  0  0  0  0  0  0  0
   57.5030   30.3320   44.7730 C   0  0  0  0  0  0  0  0  0  0  0  0
   56.2690   30.0930   44.8770 O   0  0  0  0  0  0  0  0  0  0  0  0
   58.3650   29.3560   44.1240 N   0  0  0  0  0  0  0  0  0  0  0  0
   59.6900   29.2420   44.7890 C   0  0  0  0  0  0  0  0  0  0  0  0
   59.9170   27.8620   45.4250 C   0  0  0  0  0  0  0  0  0  0  0  0
   58.7460   27.4430   46.0830 O   0  0  0  0  0  0  0  0  0  0  0  0
   57.7410   27.1170   45.1400 C   0  0  0  0  0  0  0  0  0  0  0  0
   57.6900   28.0520   43.9030 C   0  0  0  0  0  0  0  0  0  0  0  0
   58.7300   31.6080   46.5200 C   0  0  0  0  0  0  0  0  0  0  0  0
   59.2660   32.7960   47.0340 C   0  0  0  0  0  0  0  0  0  0  0  0
   60.0640   32.7260   48.2260 N   0  0  0  0  0  0  0  0  0  0  0  0
   59.6080   33.0760   49.5410 C   0  0  0  0  0  0  0  0  0  0  0  0
   59.9660   34.1810   50.0290 O   0  0  0  0  0  0  0  0  0  0  0  0
   58.7160   32.1890   50.3240 C   0  0  0  0  0  0  0  0  0  0  0  0
   58.7070   30.8010   50.1040 C   0  0  0  0  0  0  0  0  0  0  0  0
   57.9000   29.9670   50.8790 C   0  0  0  0  0  0  0  0  0  0  0  0
   57.0610   30.5010   51.8610 C   0  0  0  0  0  0  0  0  0  0  0  0
   56.2970   29.6120   52.6270 O   0  0  0  0  0  0  0  0  0  0  0  0
   54.9370   29.2770   52.3820 C   0  0  0  0  0  0  0  0  0  0  0  0
   54.0610   30.1540   53.2320 C   0  0  0  0  0  0  0  0  0  0  0  0
   54.2610   30.1770   54.4770 O   0  0  0  0  0  0  0  0  0  0  0  0
   52.9830   30.9290   52.6640 N   0  0  0  0  0  0  0  0  0  0  0  0
   51.7810   31.1640   53.4770 C   0  0  0  0  0  0  0  0  0  0  0  0
   50.9810   32.3560   52.9430 C   0  0  0  0  0  0  0  0  0  0  0  0
   50.7690   32.2380   51.5500 O   0  0  0  0  0  0  0  0  0  0  0  0
   52.0090   32.3450   50.8820 C   0  0  0  0  0  0  0  0  0  0  0  0
   52.9040   31.1460   51.2110 C   0  0  0  0  0  0  0  0  0  0  0  0
   57.0180   31.8940   52.0460 C   0  0  0  0  0  0  0  0  0  0  0  0
   57.8420   32.7300   51.2840 C   0  0  0  0  0  0  0  0  0  0  0  0
   59.4688   35.2938   48.0371 H   0  0  0  0  0  0  0  0  0  0  0  0
   60.5109   35.5247   46.5923 H   0  0  0  0  0  0  0  0  0  0  0  0
   58.8252   36.1452   46.5923 H   0  0  0  0  0  0  0  0  0  0  0  0
   58.0609   34.9652   44.6658 H   0  0  0  0  0  0  0  0  0  0  0  0
   57.1709   32.8339   43.7361 H   0  0  0  0  0  0  0  0  0  0  0  0
   58.5460   29.7360   43.1620 H   0  0  0  0  0  0  0  0  0  0  0  0
   60.4761   29.4179   44.0399 H   0  0  0  0  0  0  0  0  0  0  0  0
   59.7225   29.9892   45.5956 H   0  0  0  0  0  0  0  0  0  0  0  0
   60.1747   27.1358   44.6400 H   0  0  0  0  0  0  0  0  0  0  0  0
   60.7392   27.9278   46.1527 H   0  0  0  0  0  0  0  0  0  0  0  0
   57.9209   26.0907   44.7874 H   0  0  0  0  0  0  0  0  0  0  0  0
   56.7775   27.2318   45.6582 H   0  0  0  0  0  0  0  0  0  0  0  0
   58.1809   27.5432   43.0603 H   0  0  0  0  0  0  0  0  0  0  0  0
   56.6302   28.2643   43.6986 H   0  0  0  0  0  0  0  0  0  0  0  0
   58.8757   30.6645   47.0665 H   0  0  0  0  0  0  0  0  0  0  0  0
   59.3405   30.3689   49.3154 H   0  0  0  0  0  0  0  0  0  0  0  0
   57.9244   28.8795   50.7155 H   0  0  0  0  0  0  0  0  0  0  0  0
   54.7021   29.4386   51.3196 H   0  0  0  0  0  0  0  0  0  0  0  0
   54.7618   28.2201   52.6314 H   0  0  0  0  0  0  0  0  0  0  0  0
   51.1476   30.2650   53.4507 H   0  0  0  0  0  0  0  0  0  0  0  0
   52.0934   31.3856   54.5082 H   0  0  0  0  0  0  0  0  0  0  0  0
   50.0074   32.3940   53.4535 H   0  0  0  0  0  0  0  0  0  0  0  0
   51.5517   33.2766   53.1349 H   0  0  0  0  0  0  0  0  0  0  0  0
   51.8333   32.3779   49.7966 H   0  0  0  0  0  0  0  0  0  0  0  0
   52.5124   33.2650   51.2140 H   0  0  0  0  0  0  0  0  0  0  0  0
   52.4882   30.2456   50.7351 H   0  0  0  0  0  0  0  0  0  0  0  0
   53.9162   31.3503   50.8320 H   0  0  0  0  0  0  0  0  0  0  0  0
   56.3352   32.3278   52.7914 H   0  0  0  0  0  0  0  0  0  0  0  0
   57.8058   33.8187   51.4371 H   0  0  0  0  0  0  0  0  0  0  0  0
  1  2  1  0
  2  3  2  0
  3  4  1  0
  4  5  2  0
  5  6  1  0
  6  7  2  0
  6  8  1  0
  8  9  1  0
  9 10  1  0
 10 11  1  0
 11 12  1  0
 12 13  1  0
  5 14  1  0
 14 15  2  0
 15 16  1  0
 16 17  1  0
 17 18  2  0
 17 19  1  0
 19 20  2  0
 20 21  1  0
 21 22  2  0
 22 23  1  0
 23 24  1  0
 24 25  1  0
 25 26  2  0
 25 27  1  0
 27 28  1  0
 28 29  1  0
 29 30  1  0
 30 31  1  0
 31 32  1  0
 22 33  1  0
 33 34  2  0
 15  2  1  0
 34 19  1  0
 13  8  1  0
 32 27  1  0
  1 35  1  0
  1 36  1  0
  1 37  1  0
  3 38  1  0
  4 39  1  0
  8 40  1  0
  9 41  1  0
  9 42  1  0
 10 43  1  0
 10 44  1  0
 12 45  1  0
 12 46  1  0
 13 47  1  0
 13 48  1  0
 14 49  1  0
 20 50  1  0
 21 51  1  0
 24 52  1  0
 24 53  1  0
 28 54  1  0
 28 55  1  0
 29 56  1  0
 29 57  1  0
 31 58  1  0
 31 59  1  0
 32 60  1  0
 32 61  1  0
 33 62  1  0
 34 63  1  0
M  CHG  2   8   1  16  -1
M  END
>  <UniqueID>  (41) 
38

>  <SMILES>  (41) 
Cc1ccc(C(=O)[NH+]2CCOCC2)cc1[N-]C(=O)c1ccc(OCC(=O)N2CCOCC2)cc1

>  <Energy>  (41) 
98.10467930567634

>  <Genealogy>  (41) 
Cc1ccc(C(=O)[NH+]2CCOCC2)cc1[N-]C(=O)c1ccc(OCC(=O)N2CCOCC2)cc1 (protonated)
Cc1ccc(C(=O)[NH+]2CCOCC2)cc1[N-]C(=O)c1ccc(OCC(=O)N2CCOCC2)cc1 (3D coordinates assigned)
Cc1ccc(C(=O)[NH+]2CCOCC2)cc1[N-]C(=O)c1ccc(OCC(=O)N2CCOCC2)cc1 (nonaromatic ring conformer: 98.10467930567634 kcal/mol)

>  <smiles>  (41) 
Cc1ccc(C(=O)N2CCOCC2)cc1NC(=O)c1ccc(OCC(=O)N2CCOCC2)cc1

>  <score_type>  (41) 
oracle

>  <origin>  (41) 
adg

>  <m_score__min__energy>  (41) 
-9.0999999999999996

>  <m_primary>  (41) 
energy

$$$$
41:0
     RDKit          3D

 82 88  0  0  0  0  0  0  0  0999 V2000
   56.2360   29.7020   45.6210 O   0  0  0  0  0  0  0  0  0  0  0  0
   57.1800   29.2120   44.9420 C   0  0  0  0  0  0  0  0  0  0  0  0
   57.8670   30.0260   43.9800 N   0  0  0  0  0  0  0  0  0  0  0  0
   57.7400   31.4830   43.9530 C   0  0  0  0  0  0  0  0  0  0  0  0
   58.5720   32.0950   45.0480 C   0  0  0  0  0  0  0  0  0  0  0  0
   58.4600   33.4620   45.3450 C   0  0  0  0  0  0  0  0  0  0  0  0
   59.1750   34.0110   46.4120 C   0  0  0  0  0  0  0  0  0  0  0  0
   60.0040   33.2020   47.2020 C   0  0  0  0  0  0  0  0  0  0  0  0
   60.6860   33.7770   48.3780 C   0  0  0  0  0  0  0  0  0  0  0  0
   60.0650   33.8150   49.4740 O   0  0  0  0  0  0  0  0  0  0  0  0
   62.0500   34.2510   48.3080 N   0  0  0  0  0  0  0  0  0  0  0  0
   63.0320   33.5680   47.4580 C   0  0  0  0  0  0  0  0  0  0  0  0
   63.7490   32.4990   48.2840 C   0  0  0  0  0  0  0  0  0  0  0  0
   64.3590   33.1150   49.5690 C   0  0  0  0  0  0  0  0  0  0  0  0
   64.9770   32.0730   50.4170 N   0  0  0  0  0  0  0  0  0  0  0  0
   66.3880   32.0720   50.7240 C   0  0  0  0  0  0  0  0  0  0  0  0
   67.2280   32.5910   49.9400 O   0  0  0  0  0  0  0  0  0  0  0  0
   66.8320   31.4440   51.8900 O   0  0  0  0  0  0  0  0  0  0  0  0
   65.9100   31.0620   52.9110 C   0  0  0  0  0  0  0  0  0  0  0  0
   64.6430   30.5210   52.3020 C   0  0  0  0  0  0  0  0  0  0  0  0
   63.8950   29.5380   52.9650 C   0  0  0  0  0  0  0  0  0  0  0  0
   62.7150   29.0560   52.3970 C   0  0  0  0  0  0  0  0  0  0  0  0
   62.2740   29.5560   51.1700 C   0  0  0  0  0  0  0  0  0  0  0  0
   63.0020   30.5510   50.5130 C   0  0  0  0  0  0  0  0  0  0  0  0
   64.1810   31.0660   51.0860 C   0  0  0  0  0  0  0  0  0  0  0  0
   63.3310   33.9450   50.3660 C   0  0  0  0  0  0  0  0  0  0  0  0
   62.6260   34.9600   49.4550 C   0  0  0  0  0  0  0  0  0  0  0  0
   60.1590   31.8460   46.8740 C   0  0  0  0  0  0  0  0  0  0  0  0
   59.4500   31.2950   45.8020 C   0  0  0  0  0  0  0  0  0  0  0  0
   57.5790   27.8060   45.1420 C   0  0  0  0  0  0  0  0  0  0  0  0
   58.9300   27.4240   45.1410 C   0  0  0  0  0  0  0  0  0  0  0  0
   59.2580   26.0830   45.3540 C   0  0  0  0  0  0  0  0  0  0  0  0
   58.2510   25.1360   45.5500 C   0  0  0  0  0  0  0  0  0  0  0  0
   56.9120   25.5440   45.5140 C   0  0  0  0  0  0  0  0  0  0  0  0
   55.8290   24.5750   45.7660 C   0  0  0  0  0  0  0  0  0  0  0  0
   54.6770   25.0370   45.9780 O   0  0  0  0  0  0  0  0  0  0  0  0
   56.0580   23.1390   45.7410 N   0  0  0  0  0  0  0  0  0  0  0  0
   56.0750   22.4430   44.4320 C   0  0  0  0  0  0  0  0  0  0  0  0
   56.3020   20.9310   44.5520 C   0  0  0  0  0  0  0  0  0  0  0  0
   55.4260   20.3430   45.6580 C   0  0  0  0  0  0  0  0  0  0  0  0
   55.7840   20.9970   46.9590 C   0  0  0  0  0  0  0  0  0  0  0  0
   55.8010   20.2490   48.1460 C   0  0  0  0  0  0  0  0  0  0  0  0
   56.2230   20.8380   49.3410 C   0  0  0  0  0  0  0  0  0  0  0  0
   56.6440   22.1680   49.3520 C   0  0  0  0  0  0  0  0  0  0  0  0
   56.6110   22.9250   48.1750 C   0  0  0  0  0  0  0  0  0  0  0  0
   56.1310   22.3680   46.9730 C   0  0  0  0  0  0  0  0  0  0  0  0
   56.6190   26.8590   45.3270 N   0  0  0  0  0  0  0  0  0  0  0  0
   58.5230   29.5840   43.2980 H   0  0  0  0  0  0  0  0  0  0  0  0
   58.0857   31.8604   42.9793 H   0  0  0  0  0  0  0  0  0  0  0  0
   56.6855   31.7554   44.1070 H   0  0  0  0  0  0  0  0  0  0  0  0
   57.8068   34.1035   44.7353 H   0  0  0  0  0  0  0  0  0  0  0  0
   59.0871   35.0848   46.6339 H   0  0  0  0  0  0  0  0  0  0  0  0
   62.5181   33.0944   46.6085 H   0  0  0  0  0  0  0  0  0  0  0  0
   63.7637   34.2959   47.0776 H   0  0  0  0  0  0  0  0  0  0  0  0
   63.0284   31.7171   48.5657 H   0  0  0  0  0  0  0  0  0  0  0  0
   64.5610   32.0704   47.6782 H   0  0  0  0  0  0  0  0  0  0  0  0
   65.1492   33.8095   49.2477 H   0  0  0  0  0  0  0  0  0  0  0  0
   66.3688   30.2859   53.5412 H   0  0  0  0  0  0  0  0  0  0  0  0
   65.6640   31.9463   53.5173 H   0  0  0  0  0  0  0  0  0  0  0  0
   64.2385   29.1463   53.9338 H   0  0  0  0  0  0  0  0  0  0  0  0
   62.1316   28.2814   52.9163 H   0  0  0  0  0  0  0  0  0  0  0  0
   61.3500   29.1650   50.7191 H   0  0  0  0  0  0  0  0  0  0  0  0
   62.6525   30.9343   49.5430 H   0  0  0  0  0  0  0  0  0  0  0  0
   62.5805   33.2684   50.8008 H   0  0  0  0  0  0  0  0  0  0  0  0
   63.8595   34.4920   51.1607 H   0  0  0  0  0  0  0  0  0  0  0  0
   61.8262   35.4658   50.0157 H   0  0  0  0  0  0  0  0  0  0  0  0
   63.3498   35.7101   49.1035 H   0  0  0  0  0  0  0  0  0  0  0  0
   60.8408   31.2144   47.4625 H   0  0  0  0  0  0  0  0  0  0  0  0
   59.5792   30.2327   45.5474 H   0  0  0  0  0  0  0  0  0  0  0  0
   59.7200   28.1711   44.9746 H   0  0  0  0  0  0  0  0  0  0  0  0
   60.3131   25.7721   45.3674 H   0  0  0  0  0  0  0  0  0  0  0  0
   58.5066   24.0815   45.7306 H   0  0  0  0  0  0  0  0  0  0  0  0
   55.1091   22.6126   43.9338 H   0  0  0  0  0  0  0  0  0  0  0  0
   56.9166   22.8541   43.8552 H   0  0  0  0  0  0  0  0  0  0  0  0
   56.0486   20.4501   43.5957 H   0  0  0  0  0  0  0  0  0  0  0  0
   57.3579   20.7490   44.8006 H   0  0  0  0  0  0  0  0  0  0  0  0
   54.3666   20.5308   45.4293 H   0  0  0  0  0  0  0  0  0  0  0  0
   55.5916   19.2578   45.7279 H   0  0  0  0  0  0  0  0  0  0  0  0
   55.4814   19.1965   48.1359 H   0  0  0  0  0  0  0  0  0  0  0  0
   56.2232   20.2531   50.2726 H   0  0  0  0  0  0  0  0  0  0  0  0
   57.0025   22.6226   50.2873 H   0  0  0  0  0  0  0  0  0  0  0  0
   56.9639   23.9668   48.1886 H   0  0  0  0  0  0  0  0  0  0  0  0
  1  2  2  0
  2  3  1  0
  3  4  1  0
  4  5  1  0
  5  6  2  0
  6  7  1  0
  7  8  2  0
  8  9  1  0
  9 10  2  0
  9 11  1  0
 11 12  1  0
 12 13  1  0
 13 14  1  0
 14 15  1  0
 15 16  1  0
 16 17  2  0
 16 18  1  0
 18 19  1  0
 19 20  1  0
 20 21  2  0
 21 22  1  0
 22 23  2  0
 23 24  1  0
 24 25  2  0
 14 26  1  0
 26 27  1  0
  8 28  1  0
 28 29  2  0
  2 30  1  0
 30 31  2  0
 31 32  1  0
 32 33  2  0
 33 34  1  0
 34 35  1  0
 35 36  2  0
 35 37  1  0
 37 38  1  0
 38 39  1  0
 39 40  1  0
 40 41  1  0
 41 42  2  0
 42 43  1  0
 43 44  2  0
 44 45  1  0
 45 46  2  0
 34 47  2  0
 29  5  1  0
 47 30  1  0
 27 11  1  0
 46 37  1  0
 25 15  1  0
 46 41  1  0
 25 20  1  0
  3 48  1  0
  4 49  1  0
  4 50  1  0
  6 51  1  0
  7 52  1  0
 12 53  1  0
 12 54  1  0
 13 55  1  0
 13 56  1  0
 14 57  1  0
 19 58  1  0
 19 59  1  0
 21 60  1  0
 22 61  1  0
 23 62  1  0
 24 63  1  0
 26 64  1  0
 26 65  1  0
 27 66  1  0
 27 67  1  0
 28 68  1  0
 29 69  1  0
 31 70  1  0
 32 71  1  0
 33 72  1  0
 38 73  1  0
 38 74  1  0
 39 75  1  0
 39 76  1  0
 40 77  1  0
 40 78  1  0
 42 79  1  0
 43 80  1  0
 44 81  1  0
 45 82  1  0
M  END
>  <UniqueID>  (42) 
39

>  <SMILES>  (42) 
O=C(NCc1ccc(C(=O)N2CCC(N3C(=O)OCc4ccccc43)CC2)cc1)c1cccc(C(=O)N2CCCc3ccccc32)n1

>  <Energy>  (42) 
113.12911065777561

>  <Genealogy>  (42) 
O=C(NCc1ccc(C(=O)N2CCC(N3C(=O)OCc4ccccc43)CC2)cc1)c1cccc(C(=O)N2CCCc3ccccc32)n1 (3D coordinates assigned)
O=C(NCc1ccc(C(=O)N2CCC(N3C(=O)OCc4ccccc43)CC2)cc1)c1cccc(C(=O)N2CCCc3ccccc32)n1 (nonaromatic ring conformer: 113.12911065777561 kcal/mol)

>  <smiles>  (42) 
O=C(NCc1ccc(C(=O)N2CCC(N3C(=O)OCc4ccccc43)CC2)cc1)c1cccc(C(=O)N2CCCc3ccccc32)n1

>  <score_type>  (42) 
oracle

>  <origin>  (42) 
adg

>  <m_score__min__energy>  (42) 
-12.19

>  <m_primary>  (42) 
energy

$$$$
42:0
     RDKit          3D

 56 59  0  0  0  0  0  0  0  0999 V2000
   59.5900   35.6570   45.8260 N   0  0  0  0  0  0  0  0  0  0  0  0
   58.9710   34.5320   45.8590 C   0  0  0  0  0  0  0  0  0  0  0  0
   57.6240   34.4180   45.7960 N   0  0  0  0  0  0  0  0  0  0  0  0
   57.0800   33.1860   45.8400 C   0  0  0  0  0  0  0  0  0  0  0  0
   57.8190   32.0620   45.9430 N   0  0  0  0  0  0  0  0  0  0  0  0
   59.1550   32.1480   46.0070 C   0  0  0  0  0  0  0  0  0  0  0  0
   60.0240   31.0290   46.1090 N   0  0  0  0  0  0  0  0  0  0  0  0
   59.4260   29.7460   46.2810 C   0  0  0  0  0  0  0  0  0  0  0  0
   58.4690   29.2630   45.3850 C   0  0  0  0  0  0  0  0  0  0  0  0
   57.8830   28.0140   45.5640 C   0  0  0  0  0  0  0  0  0  0  0  0
   58.2340   27.2180   46.6350 C   0  0  0  0  0  0  0  0  0  0  0  0
   57.7070   25.9710   46.8940 O   0  0  0  0  0  0  0  0  0  0  0  0
   57.5860   24.9390   45.9840 C   0  0  0  0  0  0  0  0  0  0  0  0
   58.7110   24.1910   45.7180 C   0  0  0  0  0  0  0  0  0  0  0  0
   58.6810   23.1410   44.8210 C   0  0  0  0  0  0  0  0  0  0  0  0
   57.5100   22.8140   44.1630 C   0  0  0  0  0  0  0  0  0  0  0  0
   56.4030   23.5790   44.4510 C   0  0  0  0  0  0  0  0  0  0  0  0
   56.4080   24.6300   45.3420 C   0  0  0  0  0  0  0  0  0  0  0  0
   55.1660   25.3390   45.6160 C   0  0  0  0  0  0  0  0  0  0  0  0
   55.2350   26.7120   46.0120 N   0  0  0  0  0  0  0  0  0  0  0  0
   54.0270   24.8440   45.5350 O   0  0  0  0  0  0  0  0  0  0  0  0
   59.1890   27.6850   47.5390 C   0  0  0  0  0  0  0  0  0  0  0  0
   59.7560   28.9260   47.3420 C   0  0  0  0  0  0  0  0  0  0  0  0
   59.7860   33.3980   45.9680 C   0  0  0  0  0  0  0  0  0  0  0  0
   61.1640   33.4900   46.0310 O   0  0  0  0  0  0  0  0  0  0  0  0
   61.9180   33.8230   47.1620 C   0  0  0  0  0  0  0  0  0  0  0  0
   61.2840   33.4550   48.4740 C   0  0  0  0  0  0  0  0  0  0  0  0
   62.0980   34.2040   49.5330 C   0  0  0  0  0  0  0  0  0  0  0  0
   63.5190   33.6940   49.5130 C   0  0  0  0  0  0  0  0  0  0  0  0
   63.7530   32.6720   48.4360 C   0  0  0  0  0  0  0  0  0  0  0  0
   63.2300   33.0950   47.0900 C   0  0  0  0  0  0  0  0  0  0  0  0
   60.6010   35.8090   45.8880 H   0  0  0  0  0  0  0  0  0  0  0  0
   57.0530   35.2900   45.7160 H   0  0  0  0  0  0  0  0  0  0  0  0
   55.9851   33.0926   45.7897 H   0  0  0  0  0  0  0  0  0  0  0  0
   61.0640   31.0890   46.0660 H   0  0  0  0  0  0  0  0  0  0  0  0
   58.1740   29.8805   44.5238 H   0  0  0  0  0  0  0  0  0  0  0  0
   57.1318   27.6572   44.8440 H   0  0  0  0  0  0  0  0  0  0  0  0
   59.6533   24.4347   46.2305 H   0  0  0  0  0  0  0  0  0  0  0  0
   59.5956   22.5608   44.6288 H   0  0  0  0  0  0  0  0  0  0  0  0
   57.4653   21.9826   43.4441 H   0  0  0  0  0  0  0  0  0  0  0  0
   55.4592   23.3374   43.9402 H   0  0  0  0  0  0  0  0  0  0  0  0
   55.1450   27.4110   45.2410 H   0  0  0  0  0  0  0  0  0  0  0  0
   55.3660   27.0250   46.9920 H   0  0  0  0  0  0  0  0  0  0  0  0
   59.4864   27.0689   48.4004 H   0  0  0  0  0  0  0  0  0  0  0  0
   60.5067   29.2798   48.0640 H   0  0  0  0  0  0  0  0  0  0  0  0
   62.0167   34.9184   47.1429 H   0  0  0  0  0  0  0  0  0  0  0  0
   60.2318   33.7748   48.4979 H   0  0  0  0  0  0  0  0  0  0  0  0
   61.2873   32.3681   48.6434 H   0  0  0  0  0  0  0  0  0  0  0  0
   62.0897   35.2813   49.3106 H   0  0  0  0  0  0  0  0  0  0  0  0
   61.6574   34.0369   50.5269 H   0  0  0  0  0  0  0  0  0  0  0  0
   64.1959   34.5445   49.3442 H   0  0  0  0  0  0  0  0  0  0  0  0
   63.7111   33.2072   50.4806 H   0  0  0  0  0  0  0  0  0  0  0  0
   64.8355   32.4966   48.3505 H   0  0  0  0  0  0  0  0  0  0  0  0
   63.2072   31.7622   48.7263 H   0  0  0  0  0  0  0  0  0  0  0  0
   63.9715   33.7581   46.6204 H   0  0  0  0  0  0  0  0  0  0  0  0
   63.0616   32.1792   46.5044 H   0  0  0  0  0  0  0  0  0  0  0  0
  1  2  2  3
  2  3  1  0
  3  4  1  0
  4  5  2  0
  5  6  1  0
  6  7  1  0
  7  8  1  0
  8  9  2  0
  9 10  1  0
 10 11  2  0
 11 12  1  0
 12 13  1  0
 13 14  2  0
 14 15  1  0
 15 16  2  0
 16 17  1  0
 17 18  2  0
 18 19  1  0
 19 20  1  0
 19 21  2  0
 11 22  1  0
 22 23  2  0
  6 24  2  0
 24 25  1  0
 25 26  1  0
 26 27  1  0
 27 28  1  0
 28 29  1  0
 29 30  1  0
 30 31  1  0
 24  2  1  0
 31 26  1  0
 23  8  1  0
 18 13  1  0
  1 32  1  0
  3 33  1  0
  4 34  1  0
  7 35  1  0
  9 36  1  0
 10 37  1  0
 14 38  1  0
 15 39  1  0
 16 40  1  0
 17 41  1  0
 20 42  1  0
 20 43  1  0
 22 44  1  0
 23 45  1  0
 26 46  1  0
 27 47  1  0
 27 48  1  0
 28 49  1  0
 28 50  1  0
 29 51  1  0
 29 52  1  0
 30 53  1  0
 30 54  1  0
 31 55  1  0
 31 56  1  0
M  END
>  <smiles>  (43) 
N=c1[nH]cnc(Nc2ccc(Oc3ccccc3C(N)=O)cc2)c1OC1CCCCC1

>  <score_type>  (43) 
oracle

>  <origin>  (43) 
adg

>  <m_score__min__energy>  (43) 
-8.7300000000000004

>  <m_primary>  (43) 
energy

$$$$
43:0
     RDKit          3D

 42 44  0  0  0  0  0  0  0  0999 V2000
   58.2284   26.6688   43.8266 H   0  0  0  0  0  0  0  0  0  0  0  0
   58.5020   27.3120   44.6760 C   0  0  0  0  0  0  0  0  0  0  0  0
   59.4640   28.3130   44.5140 C   0  0  0  0  0  0  0  0  0  0  0  0
   59.9510   28.4541   43.5378 H   0  0  0  0  0  0  0  0  0  0  0  0
   59.8080   29.1350   45.5910 C   0  0  0  0  0  0  0  0  0  0  0  0
   60.5729   29.9148   45.4615 H   0  0  0  0  0  0  0  0  0  0  0  0
   59.1840   28.9710   46.8340 C   0  0  0  0  0  0  0  0  0  0  0  0
   59.5690   29.8040   47.8950 O   0  0  0  0  0  0  0  0  0  0  0  0
   60.5500   30.8050   47.8210 C   0  0  0  0  0  0  0  0  0  0  0  0
   61.8790   30.4790   47.4940 C   0  0  0  0  0  0  0  0  0  0  0  0
   62.1534   29.4300   47.3086 H   0  0  0  0  0  0  0  0  0  0  0  0
   62.8510   31.4740   47.4030 C   0  0  0  0  0  0  0  0  0  0  0  0
   63.8853   31.2088   47.1384 H   0  0  0  0  0  0  0  0  0  0  0  0
   62.5140   32.8060   47.6470 C   0  0  0  0  0  0  0  0  0  0  0  0
   63.7370   34.0580   47.5280 Cl  0  0  0  0  0  0  0  0  0  0  0  0
   61.2010   33.1420   47.9940 C   0  0  0  0  0  0  0  0  0  0  0  0
   60.9415   34.1929   48.1898 H   0  0  0  0  0  0  0  0  0  0  0  0
   60.2090   32.1490   48.0950 C   0  0  0  0  0  0  0  0  0  0  0  0
   58.8180   32.5340   48.4480 C   0  0  0  0  0  0  0  0  0  0  0  0
   58.4970   32.7210   49.6520 O   0  0  0  0  0  0  0  0  0  0  0  0
   57.8490   32.8080   47.4300 N   0  0  0  0  0  0  0  0  0  0  0  0
   57.9410   32.6940   46.1280 C   0  0  0  0  0  0  0  0  0  0  0  0
   58.5440   33.6680   45.2720 C   0  0  0  0  0  0  0  0  0  0  0  0
   59.3200   34.8710   45.7490 C   0  0  0  0  0  0  0  0  0  0  0  0
   59.3309   34.8878   46.8488 H   0  0  0  0  0  0  0  0  0  0  0  0
   60.3522   34.8142   45.3730 H   0  0  0  0  0  0  0  0  0  0  0  0
   58.8427   35.7879   45.3730 H   0  0  0  0  0  0  0  0  0  0  0  0
   58.4680   33.4690   43.8850 C   0  0  0  0  0  0  0  0  0  0  0  0
   58.8737   34.2332   43.2058 H   0  0  0  0  0  0  0  0  0  0  0  0
   57.8880   32.3210   43.3550 C   0  0  0  0  0  0  0  0  0  0  0  0
   57.8360   32.1230   41.6050 Cl  0  0  0  0  0  0  0  0  0  0  0  0
   57.3810   31.3470   44.2240 C   0  0  0  0  0  0  0  0  0  0  0  0
   56.7670   30.0850   43.6820 C   0  0  0  0  0  0  0  0  0  0  0  0
   56.4539   29.4415   44.5174 H   0  0  0  0  0  0  0  0  0  0  0  0
   55.8915   30.3383   43.0662 H   0  0  0  0  0  0  0  0  0  0  0  0
   57.5067   29.5525   43.0662 H   0  0  0  0  0  0  0  0  0  0  0  0
   57.4250   31.5590   45.5700 N   0  0  0  0  0  0  0  0  0  0  0  0
   57.0170   30.8340   46.2060 H   0  0  0  0  0  0  0  0  0  0  0  0
   58.2290   27.9500   46.9970 C   0  0  0  0  0  0  0  0  0  0  0  0
   57.7499   27.7977   47.9754 H   0  0  0  0  0  0  0  0  0  0  0  0
   57.8880   27.1290   45.9180 C   0  0  0  0  0  0  0  0  0  0  0  0
   57.1350   26.3375   46.0469 H   0  0  0  0  0  0  0  0  0  0  0  0
  1  2  1  0
  2  3  2  0
  3  4  1  0
  3  5  1  0
  5  6  1  0
  5  7  2  0
  7  8  1  0
  8  9  1  0
  9 10  2  0
 10 11  1  0
 10 12  1  0
 12 13  1  0
 12 14  2  0
 14 15  1  0
 14 16  1  0
 16 17  1  0
 16 18  2  0
 18 19  1  0
 19 20  2  0
 19 21  1  0
 21 22  2  0
 22 23  1  0
 23 24  1  0
 24 25  1  0
 24 26  1  0
 24 27  1  0
 23 28  2  0
 28 29  1  0
 28 30  1  0
 30 31  1  0
 30 32  2  0
 32 33  1  0
 33 34  1  0
 33 35  1  0
 33 36  1  0
 32 37  1  0
 37 38  1  0
  7 39  1  0
 39 40  1  0
 39 41  2  0
 41 42  1  0
 41  2  1  0
 18  9  1  0
 37 22  1  0
M  END
>  <UniqueID>  (44) 
40

>  <SMILES>  (44) 
Cc1[nH]/c(=N/C(=O)c2cc(Cl)ccc2Oc2ccccc2)c(C)cc1Cl

>  <Energy>  (44) 
70.4975473428319

>  <Genealogy>  (44) 
Cc1[nH]/c(=N/C(=O)c2cc(Cl)ccc2Oc2ccccc2)c(C)cc1Cl (cis-trans isomerization)
Cc1[nH]/c(=N/C(=O)c2cc(Cl)ccc2Oc2ccccc2)c(C)cc1Cl (3D coordinates assigned)
Cc1[nH]/c(=N/C(=O)c2cc(Cl)ccc2Oc2ccccc2)c(C)cc1Cl (optimized conformer: 70.4975473428319 kcal/mol)

>  <smiles>  (44) 
Cc1[nH]c(=NC(=O)c2cc(Cl)ccc2Oc2ccccc2)c(C)cc1Cl

>  <score_type>  (44) 
oracle

>  <origin>  (44) 
adg

>  <m_score__min__energy>  (44) 
-8.8499999999999996

>  <m_primary>  (44) 
energy

$$$$
44:0
     RDKit          3D

 51 53  0  0  0  0  0  0  0  0999 V2000
   57.0250   30.9240   43.1680 C   0  0  0  0  0  0  0  0  0  0  0  0
   56.4270   29.7400   43.3110 C   0  0  0  0  0  0  0  0  0  0  0  0
   55.8400   29.3050   44.6260 C   0  0  0  0  0  0  0  0  0  0  0  0
   56.8600   28.6360   45.4530 N   0  0  0  0  0  0  0  0  0  0  0  0
   58.0020   29.3160   45.7790 C   0  0  0  0  0  0  0  0  0  0  0  0
   58.9750   28.7340   46.6030 C   0  0  0  0  0  0  0  0  0  0  0  0
   60.1990   29.4850   46.9490 C   0  0  0  0  0  0  0  0  0  0  0  0
   61.1230   29.5580   46.0940 O   0  0  0  0  0  0  0  0  0  0  0  0
   60.3350   30.1700   48.2150 N   0  0  0  0  0  0  0  0  0  0  0  0
   61.6470   30.6280   48.6800 C   0  0  0  0  0  0  0  0  0  0  0  0
   61.6360   32.1570   48.7680 C   0  0  0  0  0  0  0  0  0  0  0  0
   60.4780   32.7050   49.5390 N   0  0  0  0  0  0  0  0  0  0  0  0
   59.8770   33.8300   48.8350 C   0  0  0  0  0  0  0  0  0  0  0  0
   59.8690   34.9630   49.3910 O   0  0  0  0  0  0  0  0  0  0  0  0
   59.2780   33.7290   47.4840 C   0  0  0  0  0  0  0  0  0  0  0  0
   57.8950   33.5020   47.3760 C   0  0  0  0  0  0  0  0  0  0  0  0
   57.2840   33.4260   46.1230 C   0  0  0  0  0  0  0  0  0  0  0  0
   58.0410   33.6020   44.9640 C   0  0  0  0  0  0  0  0  0  0  0  0
   59.4080   33.8660   45.0560 C   0  0  0  0  0  0  0  0  0  0  0  0
   60.0390   33.9470   46.3100 C   0  0  0  0  0  0  0  0  0  0  0  0
   61.5170   34.2250   46.3690 C   0  0  0  0  0  0  0  0  0  0  0  0
   59.5090   31.6790   50.0100 C   0  0  0  0  0  0  0  0  0  0  0  0
   59.1420   30.6500   48.9260 C   0  0  0  0  0  0  0  0  0  0  0  0
   58.7770   27.4290   47.0640 C   0  0  0  0  0  0  0  0  0  0  0  0
   57.6110   26.7450   46.7320 C   0  0  0  0  0  0  0  0  0  0  0  0
   56.6500   27.3650   45.9270 C   0  0  0  0  0  0  0  0  0  0  0  0
   55.5910   26.7390   45.6460 O   0  0  0  0  0  0  0  0  0  0  0  0
   57.4448   31.2140   42.1935 H   0  0  0  0  0  0  0  0  0  0  0  0
   57.0983   31.6102   44.0246 H   0  0  0  0  0  0  0  0  0  0  0  0
   56.3615   29.0646   42.4452 H   0  0  0  0  0  0  0  0  0  0  0  0
   55.4614   30.1875   45.1625 H   0  0  0  0  0  0  0  0  0  0  0  0
   55.0206   28.5973   44.4320 H   0  0  0  0  0  0  0  0  0  0  0  0
   58.1583   30.3327   45.3892 H   0  0  0  0  0  0  0  0  0  0  0  0
   61.8562   30.2025   49.6726 H   0  0  0  0  0  0  0  0  0  0  0  0
   62.4269   30.3007   47.9766 H   0  0  0  0  0  0  0  0  0  0  0  0
   62.5653   32.4836   49.2576 H   0  0  0  0  0  0  0  0  0  0  0  0
   61.5478   32.5382   47.7399 H   0  0  0  0  0  0  0  0  0  0  0  0
   60.8750   33.1190   50.4170 H   0  0  0  0  0  0  0  0  0  0  0  0
   57.2891   33.3832   48.2864 H   0  0  0  0  0  0  0  0  0  0  0  0
   56.2046   33.2272   46.0493 H   0  0  0  0  0  0  0  0  0  0  0  0
   57.5598   33.5326   43.9773 H   0  0  0  0  0  0  0  0  0  0  0  0
   59.9976   34.0121   44.1389 H   0  0  0  0  0  0  0  0  0  0  0  0
   61.8371   34.2852   47.4197 H   0  0  0  0  0  0  0  0  0  0  0  0
   62.0631   33.4138   45.8652 H   0  0  0  0  0  0  0  0  0  0  0  0
   61.7310   35.1791   45.8652 H   0  0  0  0  0  0  0  0  0  0  0  0
   59.9523   31.1450   50.8634 H   0  0  0  0  0  0  0  0  0  0  0  0
   58.5841   32.2056   50.2879 H   0  0  0  0  0  0  0  0  0  0  0  0
   58.6399   29.7941   49.4007 H   0  0  0  0  0  0  0  0  0  0  0  0
   58.4780   31.1376   48.1971 H   0  0  0  0  0  0  0  0  0  0  0  0
   59.5416   26.9434   47.6882 H   0  0  0  0  0  0  0  0  0  0  0  0
   57.4463   25.7219   47.1010 H   0  0  0  0  0  0  0  0  0  0  0  0
  1  2  2  0
  2  3  1  0
  3  4  1  0
  4  5  1  0
  5  6  2  0
  6  7  1  0
  7  8  2  0
  7  9  1  0
  9 10  1  0
 10 11  1  0
 11 12  1  0
 12 13  1  0
 13 14  2  0
 13 15  1  0
 15 16  2  0
 16 17  1  0
 17 18  2  0
 18 19  1  0
 19 20  2  0
 20 21  1  0
 12 22  1  0
 22 23  1  0
  6 24  1  0
 24 25  2  0
 25 26  1  0
 26 27  2  0
 26  4  1  0
 23  9  1  0
 20 15  1  0
  1 28  1  0
  1 29  1  0
  2 30  1  0
  3 31  1  0
  3 32  1  0
  5 33  1  0
 10 34  1  0
 10 35  1  0
 11 36  1  0
 11 37  1  0
 12 38  1  0
 16 39  1  0
 17 40  1  0
 18 41  1  0
 19 42  1  0
 21 43  1  0
 21 44  1  0
 21 45  1  0
 22 46  1  0
 22 47  1  0
 23 48  1  0
 23 49  1  0
 24 50  1  0
 25 51  1  0
M  CHG  1  12   1
M  END
>  <UniqueID>  (45) 
41

>  <SMILES>  (45) 
C=CCn1cc(C(=O)N2CC[NH+](C(=O)c3ccccc3C)CC2)ccc1=O

>  <Energy>  (45) 
75.43241176779794

>  <Genealogy>  (45) 
C=CCn1cc(C(=O)N2CC[NH+](C(=O)c3ccccc3C)CC2)ccc1=O (protonated)
C=CCn1cc(C(=O)N2CC[NH+](C(=O)c3ccccc3C)CC2)ccc1=O (3D coordinates assigned)
C=CCn1cc(C(=O)N2CC[NH+](C(=O)c3ccccc3C)CC2)ccc1=O (nonaromatic ring conformer: 75.43241176779794 kcal/mol)

>  <smiles>  (45) 
C=CCn1cc(C(=O)N2CCN(C(=O)c3ccccc3C)CC2)ccc1=O

>  <score_type>  (45) 
oracle

>  <origin>  (45) 
adg

>  <m_score__min__energy>  (45) 
-6.4000000000000004

>  <m_primary>  (45) 
energy

$$$$
45:0
     RDKit          3D

 69 73  0  0  0  0  0  0  0  0999 V2000
   60.4100   34.9610   47.5010 C   0  0  0  0  0  0  0  0  0  0  0  0
   59.5430   33.9430   46.8220 C   0  0  0  0  0  0  0  0  0  0  0  0
   59.6220   33.7700   45.4320 C   0  0  0  0  0  0  0  0  0  0  0  0
   58.8060   32.8350   44.7900 C   0  0  0  0  0  0  0  0  0  0  0  0
   57.9040   32.0510   45.5290 C   0  0  0  0  0  0  0  0  0  0  0  0
   57.0610   31.0330   44.8640 C   0  0  0  0  0  0  0  0  0  0  0  0
   56.3570   31.3740   43.8750 O   0  0  0  0  0  0  0  0  0  0  0  0
   57.0200   29.6250   45.3180 C   0  0  0  0  0  0  0  0  0  0  0  0
   55.9900   28.7330   45.0850 C   0  0  0  0  0  0  0  0  0  0  0  0
   54.8250   28.9820   44.3700 O   0  0  0  0  0  0  0  0  0  0  0  0
   56.3310   27.5480   45.6870 C   0  0  0  0  0  0  0  0  0  0  0  0
   55.5540   26.3940   45.6850 O   0  0  0  0  0  0  0  0  0  0  0  0
   57.5280   27.6560   46.2980 N   0  0  0  0  0  0  0  0  0  0  0  0
   58.1840   26.6030   47.0780 C   0  0  0  0  0  0  0  0  0  0  0  0
   58.4610   25.3740   46.1880 C   0  0  0  0  0  0  0  0  0  0  0  0
   57.8530   24.1160   46.6740 N   0  0  0  0  0  0  0  0  0  0  0  0
   57.3970   24.1910   48.0770 C   0  0  0  0  0  0  0  0  0  0  0  0
   56.5910   22.9340   48.4560 C   0  0  0  0  0  0  0  0  0  0  0  0
   56.8840   21.8690   47.5740 O   0  0  0  0  0  0  0  0  0  0  0  0
   56.3990   22.1660   46.2750 C   0  0  0  0  0  0  0  0  0  0  0  0
   56.8050   23.5760   45.7920 C   0  0  0  0  0  0  0  0  0  0  0  0
   57.9610   28.9260   46.0800 C   0  0  0  0  0  0  0  0  0  0  0  0
   59.1940   29.5000   46.6620 C   0  0  0  0  0  0  0  0  0  0  0  0
   59.2670   29.7610   48.0380 C   0  0  0  0  0  0  0  0  0  0  0  0
   60.4040   30.3640   48.5820 C   0  0  0  0  0  0  0  0  0  0  0  0
   61.4870   30.7140   47.7570 C   0  0  0  0  0  0  0  0  0  0  0  0
   62.6890   31.3600   48.3290 C   0  0  0  0  0  0  0  0  0  0  0  0
   63.7580   31.3790   47.6600 O   0  0  0  0  0  0  0  0  0  0  0  0
   62.6640   31.9510   49.6400 N   0  0  0  0  0  0  0  0  0  0  0  0
   63.8500   31.8360   50.4960 C   0  0  0  0  0  0  0  0  0  0  0  0
   63.5730   32.4350   51.8750 C   0  0  0  0  0  0  0  0  0  0  0  0
   62.2540   32.1180   52.2660 O   0  0  0  0  0  0  0  0  0  0  0  0
   61.3280   32.8940   51.5230 C   0  0  0  0  0  0  0  0  0  0  0  0
   61.5990   32.8980   50.0010 C   0  0  0  0  0  0  0  0  0  0  0  0
   61.4220   30.4250   46.3840 C   0  0  0  0  0  0  0  0  0  0  0  0
   60.2790   29.8330   45.8400 C   0  0  0  0  0  0  0  0  0  0  0  0
   57.8000   32.2530   46.9150 C   0  0  0  0  0  0  0  0  0  0  0  0
   58.6140   33.1920   47.5560 C   0  0  0  0  0  0  0  0  0  0  0  0
   60.3175   34.8524   48.5917 H   0  0  0  0  0  0  0  0  0  0  0  0
   61.4580   34.8063   47.2047 H   0  0  0  0  0  0  0  0  0  0  0  0
   60.0904   35.9710   47.2047 H   0  0  0  0  0  0  0  0  0  0  0  0
   60.3298   34.3734   44.8447 H   0  0  0  0  0  0  0  0  0  0  0  0
   58.8701   32.7118   43.6988 H   0  0  0  0  0  0  0  0  0  0  0  0
   59.1356   26.9851   47.4760 H   0  0  0  0  0  0  0  0  0  0  0  0
   57.5231   26.3050   47.9053 H   0  0  0  0  0  0  0  0  0  0  0  0
   58.0650   25.5812   45.1829 H   0  0  0  0  0  0  0  0  0  0  0  0
   59.5501   25.2196   46.1974 H   0  0  0  0  0  0  0  0  0  0  0  0
   58.2730   24.2709   48.7375 H   0  0  0  0  0  0  0  0  0  0  0  0
   56.7504   25.0734   48.1918 H   0  0  0  0  0  0  0  0  0  0  0  0
   56.8499   22.6347   49.4824 H   0  0  0  0  0  0  0  0  0  0  0  0
   55.5182   23.1668   48.3860 H   0  0  0  0  0  0  0  0  0  0  0  0
   56.8028   21.4236   45.5709 H   0  0  0  0  0  0  0  0  0  0  0  0
   55.3003   22.1339   46.3165 H   0  0  0  0  0  0  0  0  0  0  0  0
   57.1883   23.5144   44.7628 H   0  0  0  0  0  0  0  0  0  0  0  0
   55.9274   24.2386   45.8184 H   0  0  0  0  0  0  0  0  0  0  0  0
   58.4252   29.4897   48.6921 H   0  0  0  0  0  0  0  0  0  0  0  0
   60.4519   30.5660   49.6622 H   0  0  0  0  0  0  0  0  0  0  0  0
   64.1139   30.7741   50.6086 H   0  0  0  0  0  0  0  0  0  0  0  0
   64.6811   32.3850   50.0293 H   0  0  0  0  0  0  0  0  0  0  0  0
   64.2826   32.0190   52.6054 H   0  0  0  0  0  0  0  0  0  0  0  0
   63.6917   33.5277   51.8322 H   0  0  0  0  0  0  0  0  0  0  0  0
   60.3196   32.4896   51.6949 H   0  0  0  0  0  0  0  0  0  0  0  0
   61.4289   33.9330   51.8697 H   0  0  0  0  0  0  0  0  0  0  0  0
   60.6761   32.6160   49.4730 H   0  0  0  0  0  0  0  0  0  0  0  0
   61.9233   33.9084   49.7112 H   0  0  0  0  0  0  0  0  0  0  0  0
   62.2756   30.6660   45.7333 H   0  0  0  0  0  0  0  0  0  0  0  0
   60.2307   29.6272   44.7605 H   0  0  0  0  0  0  0  0  0  0  0  0
   57.0739   31.6691   47.4997 H   0  0  0  0  0  0  0  0  0  0  0  0
   58.5250   33.3423   48.6420 H   0  0  0  0  0  0  0  0  0  0  0  0
  1  2  1  0
  2  3  2  0
  3  4  1  0
  4  5  2  0
  5  6  1  0
  6  7  2  0
  6  8  1  0
  8  9  1  0
  9 10  1  0
  9 11  2  0
 11 12  1  0
 11 13  1  0
 13 14  1  0
 14 15  1  0
 15 16  1  0
 16 17  1  0
 17 18  1  0
 18 19  1  0
 19 20  1  0
 20 21  1  0
 13 22  1  0
 22 23  1  0
 23 24  2  0
 24 25  1  0
 25 26  2  0
 26 27  1  0
 27 28  2  0
 27 29  1  0
 29 30  1  0
 30 31  1  0
 31 32  1  0
 32 33  1  0
 33 34  1  0
 26 35  1  0
 35 36  2  0
  5 37  1  0
 37 38  2  0
 38  2  1  0
 22  8  2  0
 36 23  1  0
 21 16  1  0
 34 29  1  0
  1 39  1  0
  1 40  1  0
  1 41  1  0
  3 42  1  0
  4 43  1  0
 14 44  1  0
 14 45  1  0
 15 46  1  0
 15 47  1  0
 17 48  1  0
 17 49  1  0
 18 50  1  0
 18 51  1  0
 20 52  1  0
 20 53  1  0
 21 54  1  0
 21 55  1  0
 24 56  1  0
 25 57  1  0
 30 58  1  0
 30 59  1  0
 31 60  1  0
 31 61  1  0
 33 62  1  0
 33 63  1  0
 34 64  1  0
 34 65  1  0
 35 66  1  0
 36 67  1  0
 37 68  1  0
 38 69  1  0
M  CHG  2  10  -1  12  -1
M  END
>  <UniqueID>  (46) 
42

>  <SMILES>  (46) 
Cc1ccc(C(=O)c2c([O-])c([O-])n(CCN3CCOCC3)c2-c2ccc(C(=O)N3CCOCC3)cc2)cc1

>  <Energy>  (46) 
129.08253111763213

>  <Genealogy>  (46) 
Cc1ccc(C(=O)c2c([O-])c([O-])n(CCN3CCOCC3)c2-c2ccc(C(=O)N3CCOCC3)cc2)cc1 (protonated)
Cc1ccc(C(=O)c2c([O-])c([O-])n(CCN3CCOCC3)c2-c2ccc(C(=O)N3CCOCC3)cc2)cc1 (3D coordinates assigned)
Cc1ccc(C(=O)c2c([O-])c([O-])n(CCN3CCOCC3)c2-c2ccc(C(=O)N3CCOCC3)cc2)cc1 (nonaromatic ring conformer: 129.08253111763213 kcal/mol)

>  <smiles>  (46) 
Cc1ccc(C(=O)c2c(O)c(O)n(CCN3CCOCC3)c2-c2ccc(C(=O)N3CCOCC3)cc2)cc1

>  <score_type>  (46) 
oracle

>  <origin>  (46) 
adg

>  <m_score__min__energy>  (46) 
-14.75

>  <m_primary>  (46) 
energy

$$$$
46:0
     RDKit          3D

 58 61  0  0  0  0  0  0  0  0999 V2000
   57.4040   31.3010   42.9420 C   0  0  0  0  0  0  0  0  0  0  0  0
   56.8480   30.5580   44.1220 C   0  0  0  0  0  0  0  0  0  0  0  0
   55.6690   30.8160   44.4880 O   0  0  0  0  0  0  0  0  0  0  0  0
   57.6460   29.5410   44.8580 C   0  0  0  0  0  0  0  0  0  0  0  0
   56.9960   28.5140   45.5660 C   0  0  0  0  0  0  0  0  0  0  0  0
   57.7330   27.5510   46.2610 C   0  0  0  0  0  0  0  0  0  0  0  0
   59.1300   27.5870   46.2630 C   0  0  0  0  0  0  0  0  0  0  0  0
   59.8160   26.5910   46.9760 O   0  0  0  0  0  0  0  0  0  0  0  0
   60.9550   26.8010   47.8130 C   0  0  0  0  0  0  0  0  0  0  0  0
   60.5710   27.5300   49.1070 C   0  0  0  0  0  0  0  0  0  0  0  0
   60.2180   29.0090   48.8360 C   0  0  0  0  0  0  0  0  0  0  0  0
   61.3850   29.9180   48.7730 N   0  0  0  0  0  0  0  0  0  0  0  0
   61.4350   30.8890   49.8750 C   0  0  0  0  0  0  0  0  0  0  0  0
   62.8050   31.5740   49.8720 C   0  0  0  0  0  0  0  0  0  0  0  0
   63.0890   32.2470   48.5840 N   0  0  0  0  0  0  0  0  0  0  0  0
   62.3780   33.5110   48.4820 C   0  0  0  0  0  0  0  0  0  0  0  0
   62.8370   34.5520   49.0280 O   0  0  0  0  0  0  0  0  0  0  0  0
   61.1250   33.6230   47.6990 C   0  0  0  0  0  0  0  0  0  0  0  0
   61.0310   34.2150   46.4390 C   0  0  0  0  0  0  0  0  0  0  0  0
   59.7060   34.0900   46.0830 C   0  0  0  0  0  0  0  0  0  0  0  0
   59.0340   34.4970   44.9320 C   0  0  0  0  0  0  0  0  0  0  0  0
   57.6570   34.2250   44.8470 C   0  0  0  0  0  0  0  0  0  0  0  0
   56.9930   33.5580   45.9020 C   0  0  0  0  0  0  0  0  0  0  0  0
   57.7010   33.1590   47.0510 C   0  0  0  0  0  0  0  0  0  0  0  0
   59.0640   33.4460   47.1070 C   0  0  0  0  0  0  0  0  0  0  0  0
   59.9180   33.1520   48.1010 N   0  0  0  0  0  0  0  0  0  0  0  0
   62.8690   31.3520   47.4200 C   0  0  0  0  0  0  0  0  0  0  0  0
   61.5290   30.5940   47.4740 C   0  0  0  0  0  0  0  0  0  0  0  0
   59.7890   28.6150   45.5640 C   0  0  0  0  0  0  0  0  0  0  0  0
   59.0530   29.5790   44.8670 C   0  0  0  0  0  0  0  0  0  0  0  0
   58.0282   32.1352   43.2949 H   0  0  0  0  0  0  0  0  0  0  0  0
   58.0147   30.6180   42.3332 H   0  0  0  0  0  0  0  0  0  0  0  0
   56.5765   31.6942   42.3332 H   0  0  0  0  0  0  0  0  0  0  0  0
   55.8970   28.4683   45.5728 H   0  0  0  0  0  0  0  0  0  0  0  0
   57.2081   26.7567   46.8120 H   0  0  0  0  0  0  0  0  0  0  0  0
   61.3961   25.8263   48.0686 H   0  0  0  0  0  0  0  0  0  0  0  0
   61.6772   27.4243   47.2654 H   0  0  0  0  0  0  0  0  0  0  0  0
   59.6993   27.0300   49.5545 H   0  0  0  0  0  0  0  0  0  0  0  0
   61.4320   27.4989   49.7909 H   0  0  0  0  0  0  0  0  0  0  0  0
   59.6870   29.0647   47.8742 H   0  0  0  0  0  0  0  0  0  0  0  0
   59.6058   29.3449   49.6859 H   0  0  0  0  0  0  0  0  0  0  0  0
   60.6453   31.6425   49.7391 H   0  0  0  0  0  0  0  0  0  0  0  0
   61.2790   30.3726   50.8336 H   0  0  0  0  0  0  0  0  0  0  0  0
   62.8283   32.3238   50.6766 H   0  0  0  0  0  0  0  0  0  0  0  0
   63.5710   30.7996   50.0254 H   0  0  0  0  0  0  0  0  0  0  0  0
   64.1120   32.4700   48.5720 H   0  0  0  0  0  0  0  0  0  0  0  0
   61.8395   34.6806   45.8563 H   0  0  0  0  0  0  0  0  0  0  0  0
   59.5629   35.0136   44.1175 H   0  0  0  0  0  0  0  0  0  0  0  0
   57.0930   34.5331   43.9542 H   0  0  0  0  0  0  0  0  0  0  0  0
   55.9157   33.3495   45.8243 H   0  0  0  0  0  0  0  0  0  0  0  0
   57.1956   32.6379   47.8775 H   0  0  0  0  0  0  0  0  0  0  0  0
   59.6850   32.6520   48.9870 H   0  0  0  0  0  0  0  0  0  0  0  0
   62.8883   31.9606   46.5039 H   0  0  0  0  0  0  0  0  0  0  0  0
   63.6691   30.5973   47.4356 H   0  0  0  0  0  0  0  0  0  0  0  0
   60.7018   31.3067   47.3406 H   0  0  0  0  0  0  0  0  0  0  0  0
   61.5069   29.8421   46.6714 H   0  0  0  0  0  0  0  0  0  0  0  0
   60.8880   28.6609   45.5656 H   0  0  0  0  0  0  0  0  0  0  0  0
   59.5794   30.3752   44.3202 H   0  0  0  0  0  0  0  0  0  0  0  0
  1  2  1  0
  2  3  2  0
  2  4  1  0
  4  5  2  0
  5  6  1  0
  6  7  2  0
  7  8  1  0
  8  9  1  0
  9 10  1  0
 10 11  1  0
 11 12  1  0
 12 13  1  0
 13 14  1  0
 14 15  1  0
 15 16  1  0
 16 17  2  0
 16 18  1  0
 18 19  2  0
 19 20  1  0
 20 21  2  0
 21 22  1  0
 22 23  2  0
 23 24  1  0
 24 25  2  0
 25 26  1  0
 15 27  1  0
 27 28  1  0
  7 29  1  0
 29 30  2  0
 30  4  1  0
 28 12  1  0
 26 18  1  0
 25 20  1  0
  1 31  1  0
  1 32  1  0
  1 33  1  0
  5 34  1  0
  6 35  1  0
  9 36  1  0
  9 37  1  0
 10 38  1  0
 10 39  1  0
 11 40  1  0
 11 41  1  0
 13 42  1  0
 13 43  1  0
 14 44  1  0
 14 45  1  0
 15 46  1  0
 19 47  1  0
 21 48  1  0
 22 49  1  0
 23 50  1  0
 24 51  1  0
 26 52  1  0
 27 53  1  0
 27 54  1  0
 28 55  1  0
 28 56  1  0
 29 57  1  0
 30 58  1  0
M  CHG  1  15   1
M  END
>  <UniqueID>  (47) 
43

>  <SMILES>  (47) 
CC(=O)c1ccc(OCCCN2CC[NH+](C(=O)c3cc4ccccc4[nH]3)CC2)cc1

>  <Energy>  (47) 
100.73948317723469

>  <Genealogy>  (47) 
CC(=O)c1ccc(OCCCN2CC[NH+](C(=O)c3cc4ccccc4[nH]3)CC2)cc1 (protonated)
CC(=O)c1ccc(OCCCN2CC[NH+](C(=O)c3cc4ccccc4[nH]3)CC2)cc1 (3D coordinates assigned)
CC(=O)c1ccc(OCCCN2CC[NH+](C(=O)c3cc4ccccc4[nH]3)CC2)cc1 (nonaromatic ring conformer: 100.73948317723469 kcal/mol)

>  <smiles>  (47) 
CC(=O)c1ccc(OCCCN2CCN(C(=O)c3cc4ccccc4[nH]3)CC2)cc1

>  <score_type>  (47) 
oracle

>  <origin>  (47) 
adg

>  <m_score__min__energy>  (47) 
-8.3900000000000006

>  <m_primary>  (47) 
energy

$$$$
47:0
     RDKit          3D

 49 51  0  0  0  0  0  0  0  0999 V2000
   53.9410   29.1200   54.4990 C   0  0  0  0  0  0  0  0  0  0  0  0
   54.5470   29.7520   53.4810 C   0  0  0  0  0  0  0  0  0  0  0  0
   53.9150   30.5380   52.5100 C   0  0  0  0  0  0  0  0  0  0  0  0
   52.5970   30.7990   52.3970 C   0  0  0  0  0  0  0  0  0  0  0  0
   51.9270   31.1230   51.1240 C   0  0  0  0  0  0  0  0  0  0  0  0
   51.8180   30.2500   50.1070 N   0  0  0  0  0  0  0  0  0  0  0  0
   51.0740   30.9180   49.1990 C   0  0  0  0  0  0  0  0  0  0  0  0
   50.7640   30.4260   48.0830 O   0  0  0  0  0  0  0  0  0  0  0  0
   50.6810   32.1510   49.5840 N   0  0  0  0  0  0  0  0  0  0  0  0
   51.2170   32.2610   50.8100 C   0  0  0  0  0  0  0  0  0  0  0  0
   51.0200   33.3590   51.6390 O   0  0  0  0  0  0  0  0  0  0  0  0
   54.9080   30.9420   51.6320 C   0  0  0  0  0  0  0  0  0  0  0  0
   56.0930   30.4230   52.1050 C   0  0  0  0  0  0  0  0  0  0  0  0
   57.3850   30.5900   51.4110 C   0  0  0  0  0  0  0  0  0  0  0  0
   58.0760   29.5610   51.1760 O   0  0  0  0  0  0  0  0  0  0  0  0
   57.7610   31.8670   50.8400 N   0  0  0  0  0  0  0  0  0  0  0  0
   58.5490   31.6600   49.5920 C   0  0  0  0  0  0  0  0  0  0  0  0
   60.0450   31.9360   49.7900 C   0  0  0  0  0  0  0  0  0  0  0  0
   60.2540   33.3330   50.2250 N   0  0  0  0  0  0  0  0  0  0  0  0
   61.6540   33.6310   50.5980 C   0  0  0  0  0  0  0  0  0  0  0  0
   62.5040   34.1930   49.4500 C   0  0  0  0  0  0  0  0  0  0  0  0
   59.2430   33.8450   51.1830 C   0  0  0  0  0  0  0  0  0  0  0  0
   58.4520   32.7100   51.8510 C   0  0  0  0  0  0  0  0  0  0  0  0
   55.8850   29.7030   53.2350 N   0  0  0  0  0  0  0  0  0  0  0  0
   56.8810   28.8750   53.9300 C   0  0  0  0  0  0  0  0  0  0  0  0
   57.7600   29.7400   54.8270 C   0  0  0  0  0  0  0  0  0  0  0  0
   54.5348   28.5254   55.2088 H   0  0  0  0  0  0  0  0  0  0  0  0
   52.8507   29.1968   54.6231 H   0  0  0  0  0  0  0  0  0  0  0  0
   51.9843   30.7684   53.3100 H   0  0  0  0  0  0  0  0  0  0  0  0
   54.7754   31.5585   50.7307 H   0  0  0  0  0  0  0  0  0  0  0  0
   56.8840   32.3730   50.5650 H   0  0  0  0  0  0  0  0  0  0  0  0
   58.4229   30.6177   49.2638 H   0  0  0  0  0  0  0  0  0  0  0  0
   58.1749   32.3689   48.8387 H   0  0  0  0  0  0  0  0  0  0  0  0
   60.4419   31.2538   50.5562 H   0  0  0  0  0  0  0  0  0  0  0  0
   60.5686   31.7754   48.8360 H   0  0  0  0  0  0  0  0  0  0  0  0
   61.6443   34.3690   51.4136 H   0  0  0  0  0  0  0  0  0  0  0  0
   62.1130   32.6760   50.8935 H   0  0  0  0  0  0  0  0  0  0  0  0
   63.3540   34.7550   49.8642 H   0  0  0  0  0  0  0  0  0  0  0  0
   62.8789   33.3642   48.8315 H   0  0  0  0  0  0  0  0  0  0  0  0
   61.8882   34.8626   48.8315 H   0  0  0  0  0  0  0  0  0  0  0  0
   59.7562   34.4264   51.9631 H   0  0  0  0  0  0  0  0  0  0  0  0
   58.5314   34.4692   50.6227 H   0  0  0  0  0  0  0  0  0  0  0  0
   59.1456   32.0812   52.4285 H   0  0  0  0  0  0  0  0  0  0  0  0
   57.6922   33.1564   52.5094 H   0  0  0  0  0  0  0  0  0  0  0  0
   56.3627   28.1249   54.5454 H   0  0  0  0  0  0  0  0  0  0  0  0
   57.5156   28.3776   53.1818 H   0  0  0  0  0  0  0  0  0  0  0  0
   57.5365   29.5201   55.8814 H   0  0  0  0  0  0  0  0  0  0  0  0
   58.8187   29.5218   54.6233 H   0  0  0  0  0  0  0  0  0  0  0  0
   57.5588   30.8021   54.6233 H   0  0  0  0  0  0  0  0  0  0  0  0
  1  2  2  0
  2  3  1  0
  3  4  2  3
  4  5  1  0
  5  6  1  0
  6  7  1  0
  7  8  2  0
  7  9  1  0
  9 10  1  0
 10 11  1  0
  3 12  1  0
 12 13  2  0
 13 14  1  0
 14 15  2  0
 14 16  1  0
 16 17  1  0
 17 18  1  0
 18 19  1  0
 19 20  1  0
 20 21  1  0
 19 22  1  0
 22 23  1  0
 13 24  1  0
 24 25  1  0
 25 26  1  0
 24  2  1  0
 10  5  2  0
 23 16  1  0
  1 27  1  0
  1 28  1  0
  4 29  1  0
 12 30  1  0
 16 31  1  0
 17 32  1  0
 17 33  1  0
 18 34  1  0
 18 35  1  0
 20 36  1  0
 20 37  1  0
 21 38  1  0
 21 39  1  0
 21 40  1  0
 22 41  1  0
 22 42  1  0
 23 43  1  0
 23 44  1  0
 25 45  1  0
 25 46  1  0
 26 47  1  0
 26 48  1  0
 26 49  1  0
M  CHG  4   6  -1   9  -1  11  -1  16   1
M  END
>  <UniqueID>  (48) 
44

>  <SMILES>  (48) 
C=c1c(=Cc2[n-]c(=O)[n-]c2[O-])cc(C(=O)[NH+]2CCN(CC)CC2)n1CC

>  <Energy>  (48) 
133.936545942804

>  <Genealogy>  (48) 
C=c1c(=Cc2[n-]c(=O)[n-]c2[O-])cc(C(=O)[NH+]2CCN(CC)CC2)n1CC (protonated)
C=c1c(=Cc2[n-]c(=O)[n-]c2[O-])cc(C(=O)[NH+]2CCN(CC)CC2)n1CC (3D coordinates assigned)
C=c1c(=Cc2[n-]c(=O)[n-]c2[O-])cc(C(=O)[NH+]2CCN(CC)CC2)n1CC (nonaromatic ring conformer: 133.936545942804 kcal/mol)

>  <smiles>  (48) 
C=c1c(=Cc2[nH]c(=O)[nH]c2O)cc(C(=O)N2CCN(CC)CC2)n1CC

>  <score_type>  (48) 
oracle

>  <origin>  (48) 
adg

>  <m_score__min__energy>  (48) 
-15.550000000000001

>  <m_primary>  (48) 
energy

$$$$
48:0
     RDKit          3D

 48 51  0  0  0  0  0  0  0  0999 V2000
   60.5800   30.7940   46.8680 C   0  0  0  0  0  0  0  0  0  0  0  0
   59.0750   31.0400   46.8730 C   0  0  0  0  0  0  0  0  0  0  0  0
   58.5410   31.0640   45.5080 N   0  0  0  0  0  0  0  0  0  0  0  0
   57.7090   31.9750   44.9540 C   0  0  0  0  0  0  0  0  0  0  0  0
   57.0180   33.3950   45.8090 S   0  0  0  0  0  0  0  0  0  0  0  0
   58.4630   34.4720   45.5140 C   0  0  0  0  0  0  0  0  0  0  0  0
   59.5110   34.2370   46.5540 C   0  0  0  0  0  0  0  0  0  0  0  0
   59.1860   34.2970   47.8730 N   0  0  0  0  0  0  0  0  0  0  0  0
   60.1190   34.1140   48.8420 C   0  0  0  0  0  0  0  0  0  0  0  0
   59.7740   34.1780   50.0520 O   0  0  0  0  0  0  0  0  0  0  0  0
   61.4540   33.8600   48.4830 C   0  0  0  0  0  0  0  0  0  0  0  0
   62.4690   33.6650   49.4370 C   0  0  0  0  0  0  0  0  0  0  0  0
   63.7810   33.4180   49.0200 C   0  0  0  0  0  0  0  0  0  0  0  0
   64.0890   33.3650   47.6580 C   0  0  0  0  0  0  0  0  0  0  0  0
   63.0860   33.5580   46.7020 C   0  0  0  0  0  0  0  0  0  0  0  0
   61.7700   33.8060   47.1080 C   0  0  0  0  0  0  0  0  0  0  0  0
   60.7960   33.9960   46.1820 N   0  0  0  0  0  0  0  0  0  0  0  0
   57.4550   31.6990   43.6600 N   0  0  0  0  0  0  0  0  0  0  0  0
   58.1190   30.5890   43.3840 N   0  0  0  0  0  0  0  0  0  0  0  0
   58.7760   30.2040   44.4930 C   0  0  0  0  0  0  0  0  0  0  0  0
   59.6250   28.9650   44.5690 C   0  0  0  0  0  0  0  0  0  0  0  0
   58.8500   27.8180   45.1590 C   0  0  0  0  0  0  0  0  0  0  0  0
   58.1250   26.9460   44.3320 C   0  0  0  0  0  0  0  0  0  0  0  0
   57.4220   25.8710   44.8820 C   0  0  0  0  0  0  0  0  0  0  0  0
   57.4230   25.6520   46.2700 C   0  0  0  0  0  0  0  0  0  0  0  0
   56.6990   24.5430   46.8330 N   0  0  0  0  0  0  0  0  0  0  0  0
   55.4540   24.4810   46.7410 O   0  0  0  0  0  0  0  0  0  0  0  0
   57.3670   23.5310   47.4860 O   0  0  0  0  0  0  0  0  0  0  0  0
   58.1410   26.5350   47.0980 C   0  0  0  0  0  0  0  0  0  0  0  0
   58.8450   27.6090   46.5460 C   0  0  0  0  0  0  0  0  0  0  0  0
   60.9452   30.7343   47.9039 H   0  0  0  0  0  0  0  0  0  0  0  0
   60.7953   29.8487   46.3483 H   0  0  0  0  0  0  0  0  0  0  0  0
   61.0851   31.6215   46.3483 H   0  0  0  0  0  0  0  0  0  0  0  0
   58.5811   30.2358   47.4382 H   0  0  0  0  0  0  0  0  0  0  0  0
   58.8815   32.0161   47.3417 H   0  0  0  0  0  0  0  0  0  0  0  0
   58.8822   34.2517   44.5212 H   0  0  0  0  0  0  0  0  0  0  0  0
   58.1405   35.5224   45.5644 H   0  0  0  0  0  0  0  0  0  0  0  0
   62.2311   33.7067   50.5102 H   0  0  0  0  0  0  0  0  0  0  0  0
   64.5736   33.2648   49.7672 H   0  0  0  0  0  0  0  0  0  0  0  0
   65.1230   33.1710   47.3366 H   0  0  0  0  0  0  0  0  0  0  0  0
   63.3319   33.5148   45.6307 H   0  0  0  0  0  0  0  0  0  0  0  0
   58.1160   30.1100   42.4560 H   0  0  0  0  0  0  0  0  0  0  0  0
   59.9561   28.6926   43.5560 H   0  0  0  0  0  0  0  0  0  0  0  0
   60.4917   29.1720   45.2139 H   0  0  0  0  0  0  0  0  0  0  0  0
   58.1101   27.1099   43.2444 H   0  0  0  0  0  0  0  0  0  0  0  0
   56.8631   25.1904   44.2229 H   0  0  0  0  0  0  0  0  0  0  0  0
   58.1482   26.3789   48.1868 H   0  0  0  0  0  0  0  0  0  0  0  0
   59.3989   28.2950   47.2038 H   0  0  0  0  0  0  0  0  0  0  0  0
  1  2  1  0
  2  3  1  0
  3  4  1  0
  4  5  1  0
  5  6  1  0
  6  7  1  0
  7  8  2  0
  8  9  1  0
  9 10  2  0
  9 11  1  0
 11 12  2  0
 12 13  1  0
 13 14  2  0
 14 15  1  0
 15 16  2  0
 16 17  1  0
  4 18  2  0
 18 19  1  0
 19 20  2  0
 20 21  1  0
 21 22  1  0
 22 23  2  0
 23 24  1  0
 24 25  2  0
 25 26  1  0
 26 27  2  0
 26 28  1  0
 25 29  1  0
 29 30  2  0
 20  3  1  0
 30 22  1  0
 17  7  1  0
 16 11  1  0
  1 31  1  0
  1 32  1  0
  1 33  1  0
  2 34  1  0
  2 35  1  0
  6 36  1  0
  6 37  1  0
 12 38  1  0
 13 39  1  0
 14 40  1  0
 15 41  1  0
 19 42  1  0
 21 43  1  0
 21 44  1  0
 23 45  1  0
 24 46  1  0
 29 47  1  0
 30 48  1  0
M  CHG  4  17  -1  19   1  26   1  28  -1
M  END
>  <UniqueID>  (49) 
45

>  <SMILES>  (49) 
CCn1c(SCc2nc(=O)c3ccccc3[n-]2)n[nH+]c1Cc1ccc([N+](=O)[O-])cc1

>  <Energy>  (49) 
83.19936050907275

>  <Genealogy>  (49) 
CCn1c(SCc2nc(=O)c3ccccc3[n-]2)n[nH+]c1Cc1ccc([N+](=O)[O-])cc1 (protonated)
CCn1c(SCc2nc(=O)c3ccccc3[n-]2)n[nH+]c1Cc1ccc([N+](=O)[O-])cc1 (3D coordinates assigned)
CCn1c(SCc2nc(=O)c3ccccc3[n-]2)n[nH+]c1Cc1ccc([N+](=O)[O-])cc1 (optimized conformer: 83.19936050907275 kcal/mol)

>  <smiles>  (49) 
CCn1c(Cc2ccc([N+](=O)[O-])cc2)nnc1SCc1nc(=O)c2ccccc2[nH]1

>  <score_type>  (49) 
oracle

>  <origin>  (49) 
adg

>  <m_score__min__energy>  (49) 
-9.1999999999999993

>  <m_primary>  (49) 
energy

$$$$
49:0
     RDKit          3D

 62 65  0  0  0  0  0  0  0  0999 V2000
   57.8300   26.4840   43.7330 C   0  0  0  0  0  0  0  0  0  0  0  0
   57.8940   27.7340   44.2020 C   0  0  0  0  0  0  0  0  0  0  0  0
   57.8490   28.8020   43.3780 N   0  0  0  0  0  0  0  0  0  0  0  0
   57.7510   29.8980   44.1530 C   0  0  0  0  0  0  0  0  0  0  0  0
   57.4520   31.2670   43.6220 C   0  0  0  0  0  0  0  0  0  0  0  0
   57.4200   32.2250   44.7660 C   0  0  0  0  0  0  0  0  0  0  0  0
   56.3220   32.5060   45.3200 O   0  0  0  0  0  0  0  0  0  0  0  0
   58.6170   32.9080   45.1540 N   0  0  0  0  0  0  0  0  0  0  0  0
   58.9950   33.1070   46.5220 C   0  0  0  0  0  0  0  0  0  0  0  0
   59.7270   34.2460   46.8750 C   0  0  0  0  0  0  0  0  0  0  0  0
   60.0880   34.4670   48.2090 C   0  0  0  0  0  0  0  0  0  0  0  0
   59.6920   33.5660   49.2150 C   0  0  0  0  0  0  0  0  0  0  0  0
   60.0750   33.8030   50.6300 C   0  0  0  0  0  0  0  0  0  0  0  0
   59.2140   34.2100   51.4540 O   0  0  0  0  0  0  0  0  0  0  0  0
   61.4160   33.5730   51.0840 N   0  0  0  0  0  0  0  0  0  0  0  0
   61.6740   32.3630   51.8660 C   0  0  0  0  0  0  0  0  0  0  0  0
   62.9890   32.4720   52.6540 C   0  0  0  0  0  0  0  0  0  0  0  0
   64.1080   32.9560   51.8130 N   0  0  0  0  0  0  0  0  0  0  0  0
   64.5030   32.0140   50.7170 C   0  0  0  0  0  0  0  0  0  0  0  0
   65.2230   32.7570   49.5700 C   0  0  0  0  0  0  0  0  0  0  0  0
   65.4430   30.9070   51.2350 C   0  0  0  0  0  0  0  0  0  0  0  0
   63.7730   34.3210   51.3470 C   0  0  0  0  0  0  0  0  0  0  0  0
   62.5110   34.3450   50.4720 C   0  0  0  0  0  0  0  0  0  0  0  0
   58.9170   32.4490   48.8580 C   0  0  0  0  0  0  0  0  0  0  0  0
   58.5760   32.2190   47.5240 C   0  0  0  0  0  0  0  0  0  0  0  0
   57.7320   29.5460   45.4880 C   0  0  0  0  0  0  0  0  0  0  0  0
   57.8550   28.1670   45.5390 C   0  0  0  0  0  0  0  0  0  0  0  0
   57.8820   27.4790   46.6950 C   0  0  0  0  0  0  0  0  0  0  0  0
   57.2890   26.1520   46.9150 C   0  0  0  0  0  0  0  0  0  0  0  0
   57.8850   25.1480   47.5860 N   0  0  0  0  0  0  0  0  0  0  0  0
   56.9290   24.1960   47.6300 C   0  0  0  0  0  0  0  0  0  0  0  0
   57.1110   23.0790   48.1770 O   0  0  0  0  0  0  0  0  0  0  0  0
   55.7580   24.5390   47.0500 N   0  0  0  0  0  0  0  0  0  0  0  0
   55.9990   25.7880   46.6170 C   0  0  0  0  0  0  0  0  0  0  0  0
   55.0590   26.5840   45.9640 O   0  0  0  0  0  0  0  0  0  0  0  0
   57.8690   25.6329   44.4287 H   0  0  0  0  0  0  0  0  0  0  0  0
   57.7383   26.3064   42.6513 H   0  0  0  0  0  0  0  0  0  0  0  0
   57.8020   28.7820   42.3330 H   0  0  0  0  0  0  0  0  0  0  0  0
   58.2343   31.5670   42.9092 H   0  0  0  0  0  0  0  0  0  0  0  0
   56.4808   31.2659   43.1055 H   0  0  0  0  0  0  0  0  0  0  0  0
   60.0199   34.9706   46.1010 H   0  0  0  0  0  0  0  0  0  0  0  0
   60.6859   35.3517   48.4732 H   0  0  0  0  0  0  0  0  0  0  0  0
   60.8451   32.2107   52.5729 H   0  0  0  0  0  0  0  0  0  0  0  0
   61.7569   31.5141   51.1714 H   0  0  0  0  0  0  0  0  0  0  0  0
   62.8444   33.1735   53.4888 H   0  0  0  0  0  0  0  0  0  0  0  0
   63.2496   31.4665   53.0159 H   0  0  0  0  0  0  0  0  0  0  0  0
   63.5709   31.5643   50.3441 H   0  0  0  0  0  0  0  0  0  0  0  0
   65.9298   33.4864   49.9924 H   0  0  0  0  0  0  0  0  0  0  0  0
   65.7709   32.0318   48.9504 H   0  0  0  0  0  0  0  0  0  0  0  0
   64.4810   33.2819   48.9504 H   0  0  0  0  0  0  0  0  0  0  0  0
   65.4410   30.9093   52.3350 H   0  0  0  0  0  0  0  0  0  0  0  0
   65.0947   29.9296   50.8698 H   0  0  0  0  0  0  0  0  0  0  0  0
   66.4639   31.0923   50.8698 H   0  0  0  0  0  0  0  0  0  0  0  0
   63.6074   34.9636   52.2243 H   0  0  0  0  0  0  0  0  0  0  0  0
   64.6129   34.6836   50.7362 H   0  0  0  0  0  0  0  0  0  0  0  0
   62.1849   35.3876   50.3432 H   0  0  0  0  0  0  0  0  0  0  0  0
   62.7549   33.8887   49.5013 H   0  0  0  0  0  0  0  0  0  0  0  0
   58.5764   31.7503   49.6363 H   0  0  0  0  0  0  0  0  0  0  0  0
   57.9756   31.3368   47.2571 H   0  0  0  0  0  0  0  0  0  0  0  0
   57.6375   30.2286   46.3454 H   0  0  0  0  0  0  0  0  0  0  0  0
   58.3915   27.9499   47.5486 H   0  0  0  0  0  0  0  0  0  0  0  0
   54.7600   27.4640   46.3640 H   0  0  0  0  0  0  0  0  0  0  0  0
  1  2  2  0
  2  3  1  0
  3  4  1  0
  4  5  1  0
  5  6  1  0
  6  7  2  0
  6  8  1  0
  8  9  1  0
  9 10  2  0
 10 11  1  0
 11 12  2  0
 12 13  1  0
 13 14  2  0
 13 15  1  0
 15 16  1  0
 16 17  1  0
 17 18  1  0
 18 19  1  0
 19 20  1  0
 19 21  1  0
 18 22  1  0
 22 23  1  0
 12 24  1  0
 24 25  2  0
  4 26  2  0
 26 27  1  0
 27 28  2  3
 28 29  1  0
 29 30  1  0
 30 31  1  0
 31 32  2  0
 31 33  1  0
 33 34  1  0
 34 35  1  0
 27  2  1  0
 34 29  2  0
 25  9  1  0
 23 15  1  0
  1 36  1  0
  1 37  1  0
  3 38  1  0
  5 39  1  0
  5 40  1  0
 10 41  1  0
 11 42  1  0
 16 43  1  0
 16 44  1  0
 17 45  1  0
 17 46  1  0
 19 47  1  0
 20 48  1  0
 20 49  1  0
 20 50  1  0
 21 51  1  0
 21 52  1  0
 21 53  1  0
 22 54  1  0
 22 55  1  0
 23 56  1  0
 23 57  1  0
 24 58  1  0
 25 59  1  0
 26 60  1  0
 28 61  1  0
 35 62  1  0
M  CHG  3   8  -1  30  -1  33  -1
M  END
>  <UniqueID>  (50) 
46

>  <SMILES>  (50) 
C=c1[nH]c(CC(=O)[N-]c2ccc(C(=O)N3CCN(C(C)C)CC3)cc2)cc1=Cc1[n-]c(=O)[n-]c1O

>  <Energy>  (50) 
145.65238279769508

>  <Genealogy>  (50) 
C=c1[nH]c(CC(=O)[N-]c2ccc(C(=O)N3CCN(C(C)C)CC3)cc2)cc1=Cc1[n-]c(=O)[n-]c1O (protonated)
C=c1[nH]c(CC(=O)[N-]c2ccc(C(=O)N3CCN(C(C)C)CC3)cc2)cc1=Cc1[n-]c(=O)[n-]c1O (3D coordinates assigned)
C=c1[nH]c(CC(=O)[N-]c2ccc(C(=O)N3CCN(C(C)C)CC3)cc2)cc1=Cc1[n-]c(=O)[n-]c1O (nonaromatic ring conformer: 145.65238279769508 kcal/mol)

>  <smiles>  (50) 
C=c1[nH]c(CC(=O)Nc2ccc(C(=O)N3CCN(C(C)C)CC3)cc2)cc1=Cc1[nH]c(=O)[nH]c1O

>  <score_type>  (50) 
oracle

>  <origin>  (50) 
adg

>  <m_score__min__energy>  (50) 
-16.140000000000001

>  <m_primary>  (50) 
energy

$$$$
50:0
     RDKit          3D

 50 53  0  0  0  0  0  0  0  0999 V2000
   57.3490   32.3670   40.4150 C   0  0  0  0  0  0  0  0  0  0  0  0
   57.3910   31.9790   41.8630 C   0  0  0  0  0  0  0  0  0  0  0  0
   58.1870   32.7090   42.7530 C   0  0  0  0  0  0  0  0  0  0  0  0
   58.2170   32.3690   44.1060 C   0  0  0  0  0  0  0  0  0  0  0  0
   57.4420   31.3160   44.5960 C   0  0  0  0  0  0  0  0  0  0  0  0
   57.4950   31.0360   46.0000 N   0  0  0  0  0  0  0  0  0  0  0  0
   58.2380   31.8030   46.9570 C   0  0  0  0  0  0  0  0  0  0  0  0
   57.8120   32.9240   47.3390 O   0  0  0  0  0  0  0  0  0  0  0  0
   59.5670   31.3240   47.3890 C   0  0  0  0  0  0  0  0  0  0  0  0
   59.8460   30.0780   47.9890 C   0  0  0  0  0  0  0  0  0  0  0  0
   58.9670   28.9610   48.1290 N   0  0  0  0  0  0  0  0  0  0  0  0
   59.0520   27.6870   47.4750 C   0  0  0  0  0  0  0  0  0  0  0  0
   59.3870   26.6890   48.1640 O   0  0  0  0  0  0  0  0  0  0  0  0
   58.7850   27.4960   46.0300 C   0  0  0  0  0  0  0  0  0  0  0  0
   57.7240   26.8620   45.3930 C   0  0  0  0  0  0  0  0  0  0  0  0
   56.5170   26.2300   46.0110 C   0  0  0  0  0  0  0  0  0  0  0  0
   57.8660   26.9890   44.0590 N   0  0  0  0  0  0  0  0  0  0  0  0
   58.9380   27.6980   43.8510 O   0  0  0  0  0  0  0  0  0  0  0  0
   59.5100   28.0390   44.9820 C   0  0  0  0  0  0  0  0  0  0  0  0
   60.7040   28.9330   45.0680 C   0  0  0  0  0  0  0  0  0  0  0  0
   61.4080   30.0810   48.6470 S   0  0  0  0  0  0  0  0  0  0  0  0
   61.7670   31.6080   48.0710 C   0  0  0  0  0  0  0  0  0  0  0  0
   60.7000   32.1530   47.4490 C   0  0  0  0  0  0  0  0  0  0  0  0
   60.8900   33.6000   47.2080 C   0  0  0  0  0  0  0  0  0  0  0  0
   62.3240   33.8670   47.7310 C   0  0  0  0  0  0  0  0  0  0  0  0
   62.8400   32.5640   48.3840 C   0  0  0  0  0  0  0  0  0  0  0  0
   56.6850   30.5330   43.6980 C   0  0  0  0  0  0  0  0  0  0  0  0
   55.8920   29.3450   44.1550 C   0  0  0  0  0  0  0  0  0  0  0  0
   56.6470   30.8880   42.3380 C   0  0  0  0  0  0  0  0  0  0  0  0
   57.2310   33.4574   40.3309 H   0  0  0  0  0  0  0  0  0  0  0  0
   58.2855   32.0608   39.9260 H   0  0  0  0  0  0  0  0  0  0  0  0
   56.4997   31.8674   39.9260 H   0  0  0  0  0  0  0  0  0  0  0  0
   58.7901   33.5523   42.3853 H   0  0  0  0  0  0  0  0  0  0  0  0
   58.8590   32.9375   44.7949 H   0  0  0  0  0  0  0  0  0  0  0  0
   56.6007   26.2738   47.1069 H   0  0  0  0  0  0  0  0  0  0  0  0
   55.6148   26.7714   45.6902 H   0  0  0  0  0  0  0  0  0  0  0  0
   56.4480   25.1801   45.6902 H   0  0  0  0  0  0  0  0  0  0  0  0
   60.9492   29.1166   46.1245 H   0  0  0  0  0  0  0  0  0  0  0  0
   61.5592   28.4513   44.5714 H   0  0  0  0  0  0  0  0  0  0  0  0
   60.4826   29.8892   44.5714 H   0  0  0  0  0  0  0  0  0  0  0  0
   60.8123   33.8338   46.1360 H   0  0  0  0  0  0  0  0  0  0  0  0
   60.1297   34.2211   47.7043 H   0  0  0  0  0  0  0  0  0  0  0  0
   62.9800   34.1518   46.8952 H   0  0  0  0  0  0  0  0  0  0  0  0
   62.3189   34.6876   48.4635 H   0  0  0  0  0  0  0  0  0  0  0  0
   63.7961   32.2483   47.9410 H   0  0  0  0  0  0  0  0  0  0  0  0
   63.0414   32.6618   49.4610 H   0  0  0  0  0  0  0  0  0  0  0  0
   55.8736   29.3174   45.2545 H   0  0  0  0  0  0  0  0  0  0  0  0
   54.8634   29.4217   43.7729 H   0  0  0  0  0  0  0  0  0  0  0  0
   56.3574   28.4245   43.7729 H   0  0  0  0  0  0  0  0  0  0  0  0
   56.0283   30.3051   41.6398 H   0  0  0  0  0  0  0  0  0  0  0  0
  1  2  1  0
  2  3  2  0
  3  4  1  0
  4  5  2  0
  5  6  1  0
  6  7  1  0
  7  8  2  0
  7  9  1  0
  9 10  2  0
 10 11  1  0
 11 12  1  0
 12 13  2  0
 12 14  1  0
 14 15  1  0
 15 16  1  0
 15 17  2  0
 17 18  1  0
 18 19  1  0
 19 20  1  0
 10 21  1  0
 21 22  1  0
 22 23  2  0
 23 24  1  0
 24 25  1  0
 25 26  1  0
  5 27  1  0
 27 28  1  0
 27 29  2  0
 29  2  1  0
 23  9  1  0
 19 14  2  0
 26 22  1  0
  1 30  1  0
  1 31  1  0
  1 32  1  0
  3 33  1  0
  4 34  1  0
 16 35  1  0
 16 36  1  0
 16 37  1  0
 20 38  1  0
 20 39  1  0
 20 40  1  0
 24 41  1  0
 24 42  1  0
 25 43  1  0
 25 44  1  0
 26 45  1  0
 26 46  1  0
 28 47  1  0
 28 48  1  0
 28 49  1  0
 29 50  1  0
M  CHG  2   6  -1  11  -1
M  END
>  <UniqueID>  (51) 
47

>  <SMILES>  (51) 
Cc1ccc([N-]C(=O)c2c([N-]C(=O)c3c(C)noc3C)sc3c2CCC3)c(C)c1

>  <Energy>  (51) 
141.12921579692122

>  <Genealogy>  (51) 
Cc1ccc([N-]C(=O)c2c([N-]C(=O)c3c(C)noc3C)sc3c2CCC3)c(C)c1 (protonated)
Cc1ccc([N-]C(=O)c2c([N-]C(=O)c3c(C)noc3C)sc3c2CCC3)c(C)c1 (3D coordinates assigned)
Cc1ccc([N-]C(=O)c2c([N-]C(=O)c3c(C)noc3C)sc3c2CCC3)c(C)c1 (nonaromatic ring conformer: 141.12921579692122 kcal/mol)

>  <smiles>  (51) 
Cc1ccc(NC(=O)c2c(NC(=O)c3c(C)noc3C)sc3c2CCC3)c(C)c1

>  <score_type>  (51) 
oracle

>  <origin>  (51) 
adg

>  <m_score__min__energy>  (51) 
-12.970000000000001

>  <m_primary>  (51) 
energy

$$$$
51:0
     RDKit          3D

 45 46  0  0  0  0  0  0  0  0999 V2000
   63.3080   33.7060   46.7410 C   0  0  0  0  0  0  0  0  0  0  0  0
   63.5190   32.4850   47.6310 C   0  0  0  0  0  0  0  0  0  0  0  0
   62.4890   32.3970   48.6130 O   0  0  0  0  0  0  0  0  0  0  0  0
   61.1590   32.0780   48.3090 C   0  0  0  0  0  0  0  0  0  0  0  0
   60.9010   31.1460   47.4960 O   0  0  0  0  0  0  0  0  0  0  0  0
   60.0920   32.8580   48.8990 N   0  0  0  0  0  0  0  0  0  0  0  0
   58.7440   32.3140   48.5650 C   0  0  0  0  0  0  0  0  0  0  0  0
   57.9450   33.1750   47.5670 C   0  0  0  0  0  0  0  0  0  0  0  0
   58.8400   33.8040   46.5910 N   0  0  0  0  0  0  0  0  0  0  0  0
   58.4580   33.9210   45.2070 C   0  0  0  0  0  0  0  0  0  0  0  0
   58.6300   35.0190   44.6100 O   0  0  0  0  0  0  0  0  0  0  0  0
   57.8860   32.7760   44.4590 C   0  0  0  0  0  0  0  0  0  0  0  0
   57.9590   32.7420   43.0570 C   0  0  0  0  0  0  0  0  0  0  0  0
   57.4320   31.6600   42.3490 C   0  0  0  0  0  0  0  0  0  0  0  0
   56.8360   30.5960   43.0300 C   0  0  0  0  0  0  0  0  0  0  0  0
   56.7690   30.6060   44.4340 C   0  0  0  0  0  0  0  0  0  0  0  0
   56.1780   29.5310   45.1770 N   0  0  0  0  0  0  0  0  0  0  0  0
   56.9460   28.0190   45.5290 S   0  0  0  0  0  0  0  0  0  0  0  0
   57.7610   27.4310   44.0620 C   0  0  0  0  0  0  0  0  0  0  0  0
   55.9180   27.0110   45.9590 O   0  0  0  0  0  0  0  0  0  0  0  0
   57.9680   28.2060   46.6160 O   0  0  0  0  0  0  0  0  0  0  0  0
   57.3010   31.6940   45.1380 C   0  0  0  0  0  0  0  0  0  0  0  0
   59.9880   34.5750   47.0800 C   0  0  0  0  0  0  0  0  0  0  0  0
   60.2560   34.2900   48.5680 C   0  0  0  0  0  0  0  0  0  0  0  0
   63.1543   34.5956   47.3694 H   0  0  0  0  0  0  0  0  0  0  0  0
   64.1938   33.8543   46.1059 H   0  0  0  0  0  0  0  0  0  0  0  0
   62.4238   33.5484   46.1059 H   0  0  0  0  0  0  0  0  0  0  0  0
   63.5047   31.5775   47.0095 H   0  0  0  0  0  0  0  0  0  0  0  0
   64.4888   32.5808   48.1412 H   0  0  0  0  0  0  0  0  0  0  0  0
   60.2080   32.7770   49.9360 H   0  0  0  0  0  0  0  0  0  0  0  0
   58.8744   31.3124   48.1293 H   0  0  0  0  0  0  0  0  0  0  0  0
   58.1679   32.2994   49.5020 H   0  0  0  0  0  0  0  0  0  0  0  0
   57.2238   32.5363   47.0361 H   0  0  0  0  0  0  0  0  0  0  0  0
   57.4190   33.9644   48.1238 H   0  0  0  0  0  0  0  0  0  0  0  0
   58.4339   33.5722   42.5136 H   0  0  0  0  0  0  0  0  0  0  0  0
   57.4864   31.6455   41.2504 H   0  0  0  0  0  0  0  0  0  0  0  0
   56.4183   29.7487   42.4665 H   0  0  0  0  0  0  0  0  0  0  0  0
   58.6229   26.8092   44.3456 H   0  0  0  0  0  0  0  0  0  0  0  0
   57.0566   26.8317   43.4664 H   0  0  0  0  0  0  0  0  0  0  0  0
   58.1076   28.2884   43.4664 H   0  0  0  0  0  0  0  0  0  0  0  0
   57.2602   31.7013   46.2372 H   0  0  0  0  0  0  0  0  0  0  0  0
   60.8791   34.3013   46.4960 H   0  0  0  0  0  0  0  0  0  0  0  0
   59.7631   35.6456   46.9653 H   0  0  0  0  0  0  0  0  0  0  0  0
   61.2858   34.5936   48.8073 H   0  0  0  0  0  0  0  0  0  0  0  0
   59.5240   34.8600   49.1590 H   0  0  0  0  0  0  0  0  0  0  0  0
  1  2  1  0
  2  3  1  0
  3  4  1  0
  4  5  2  0
  4  6  1  0
  6  7  1  0
  7  8  1  0
  8  9  1  0
  9 10  1  0
 10 11  2  0
 10 12  1  0
 12 13  2  0
 13 14  1  0
 14 15  2  0
 15 16  1  0
 16 17  1  0
 17 18  1  0
 18 19  1  0
 18 20  2  0
 18 21  2  0
 16 22  2  0
  9 23  1  0
 23 24  1  0
 24  6  1  0
 22 12  1  0
  1 25  1  0
  1 26  1  0
  1 27  1  0
  2 28  1  0
  2 29  1  0
  6 30  1  0
  7 31  1  0
  7 32  1  0
  8 33  1  0
  8 34  1  0
 13 35  1  0
 14 36  1  0
 15 37  1  0
 19 38  1  0
 19 39  1  0
 19 40  1  0
 22 41  1  0
 23 42  1  0
 23 43  1  0
 24 44  1  0
 24 45  1  0
M  CHG  2   6   1  17  -1
M  END
>  <UniqueID>  (52) 
48

>  <SMILES>  (52) 
CCOC(=O)[NH+]1CCN(C(=O)c2cccc([N-]S(C)(=O)=O)c2)CC1

>  <Energy>  (52) 
52.17124252632075

>  <Genealogy>  (52) 
CCOC(=O)[NH+]1CCN(C(=O)c2cccc([N-]S(C)(=O)=O)c2)CC1 (protonated)
CCOC(=O)[NH+]1CCN(C(=O)c2cccc([N-]S(C)(=O)=O)c2)CC1 (3D coordinates assigned)
CCOC(=O)[NH+]1CCN(C(=O)c2cccc([N-]S(C)(=O)=O)c2)CC1 (nonaromatic ring conformer: 52.17124252632075 kcal/mol)

>  <smiles>  (52) 
CCOC(=O)N1CCN(C(=O)c2cccc(NS(C)(=O)=O)c2)CC1

>  <score_type>  (52) 
oracle

>  <origin>  (52) 
adg

>  <m_score__min__energy>  (52) 
-8.5

>  <m_primary>  (52) 
energy

$$$$
52:0
     RDKit          3D

 52 55  0  0  0  0  0  0  0  0999 V2000
   60.3230   34.7000   46.2540 C   0  0  0  0  0  0  0  0  0  0  0  0
   61.4360   34.1010   47.0740 C   0  0  0  0  0  0  0  0  0  0  0  0
   62.6570   33.7950   46.4460 C   0  0  0  0  0  0  0  0  0  0  0  0
   63.7140   33.2510   47.1770 C   0  0  0  0  0  0  0  0  0  0  0  0
   63.5700   33.0130   48.5430 C   0  0  0  0  0  0  0  0  0  0  0  0
   62.3690   33.3190   49.1840 C   0  0  0  0  0  0  0  0  0  0  0  0
   61.2910   33.8640   48.4650 C   0  0  0  0  0  0  0  0  0  0  0  0
   60.0150   34.1980   49.2040 C   0  0  0  0  0  0  0  0  0  0  0  0
   59.2200   32.9960   49.4270 N   0  0  0  0  0  0  0  0  0  0  0  0
   59.1810   31.8880   48.5190 C   0  0  0  0  0  0  0  0  0  0  0  0
   59.7810   30.8180   48.8100 O   0  0  0  0  0  0  0  0  0  0  0  0
   58.4280   31.9950   47.2470 C   0  0  0  0  0  0  0  0  0  0  0  0
   57.7690   33.1890   46.9040 C   0  0  0  0  0  0  0  0  0  0  0  0
   57.0460   33.2810   45.7120 C   0  0  0  0  0  0  0  0  0  0  0  0
   56.9700   32.1880   44.8500 C   0  0  0  0  0  0  0  0  0  0  0  0
   57.6320   30.9920   45.1650 C   0  0  0  0  0  0  0  0  0  0  0  0
   57.5040   29.7940   44.2580 C   0  0  0  0  0  0  0  0  0  0  0  0
   57.1940   28.5230   45.0200 C   0  0  0  0  0  0  0  0  0  0  0  0
   55.8950   28.1880   45.2520 N   0  0  0  0  0  0  0  0  0  0  0  0
   55.5550   27.0910   45.9240 N   0  0  0  0  0  0  0  0  0  0  0  0
   56.4870   26.2430   46.4190 C   0  0  0  0  0  0  0  0  0  0  0  0
   56.1160   25.2160   47.0490 O   0  0  0  0  0  0  0  0  0  0  0  0
   57.8510   26.5180   46.2290 C   0  0  0  0  0  0  0  0  0  0  0  0
   58.2170   27.7060   45.5520 C   0  0  0  0  0  0  0  0  0  0  0  0
   59.6780   28.0490   45.3160 C   0  0  0  0  0  0  0  0  0  0  0  0
   60.6310   27.2920   46.2430 C   0  0  0  0  0  0  0  0  0  0  0  0
   60.2860   25.8070   46.2550 C   0  0  0  0  0  0  0  0  0  0  0  0
   58.8890   25.5960   46.8380 C   0  0  0  0  0  0  0  0  0  0  0  0
   58.3500   30.8980   46.3690 C   0  0  0  0  0  0  0  0  0  0  0  0
   59.5551   35.1133   46.9245 H   0  0  0  0  0  0  0  0  0  0  0  0
   60.7263   35.5029   45.6194 H   0  0  0  0  0  0  0  0  0  0  0  0
   59.8750   33.9211   45.6194 H   0  0  0  0  0  0  0  0  0  0  0  0
   62.7797   33.9861   45.3697 H   0  0  0  0  0  0  0  0  0  0  0  0
   64.6623   33.0096   46.6745 H   0  0  0  0  0  0  0  0  0  0  0  0
   64.4045   32.5833   49.1165 H   0  0  0  0  0  0  0  0  0  0  0  0
   62.2647   33.1319   50.2629 H   0  0  0  0  0  0  0  0  0  0  0  0
   60.2673   34.6495   50.1748 H   0  0  0  0  0  0  0  0  0  0  0  0
   59.4283   34.9030   48.5968 H   0  0  0  0  0  0  0  0  0  0  0  0
   57.8231   34.0562   47.5786 H   0  0  0  0  0  0  0  0  0  0  0  0
   56.5346   34.2197   45.4526 H   0  0  0  0  0  0  0  0  0  0  0  0
   56.3887   32.2637   43.9192 H   0  0  0  0  0  0  0  0  0  0  0  0
   56.6934   29.9809   43.5383 H   0  0  0  0  0  0  0  0  0  0  0  0
   58.4696   29.6533   43.7503 H   0  0  0  0  0  0  0  0  0  0  0  0
   59.9319   27.8007   44.2749 H   0  0  0  0  0  0  0  0  0  0  0  0
   59.8004   29.1218   45.5259 H   0  0  0  0  0  0  0  0  0  0  0  0
   61.6637   27.4221   45.8871 H   0  0  0  0  0  0  0  0  0  0  0  0
   60.5318   27.6915   47.2631 H   0  0  0  0  0  0  0  0  0  0  0  0
   60.3130   25.4191   45.2260 H   0  0  0  0  0  0  0  0  0  0  0  0
   61.0195   25.2724   46.8764 H   0  0  0  0  0  0  0  0  0  0  0  0
   58.5852   24.5550   46.6538 H   0  0  0  0  0  0  0  0  0  0  0  0
   58.9420   25.8224   47.9131 H   0  0  0  0  0  0  0  0  0  0  0  0
   58.8567   29.9567   46.6282 H   0  0  0  0  0  0  0  0  0  0  0  0
  1  2  1  0
  2  3  2  0
  3  4  1  0
  4  5  2  0
  5  6  1  0
  6  7  2  0
  7  8  1  0
  8  9  1  0
  9 10  1  0
 10 11  2  0
 10 12  1  0
 12 13  2  0
 13 14  1  0
 14 15  2  0
 15 16  1  0
 16 17  1  0
 17 18  1  0
 18 19  2  0
 19 20  1  0
 20 21  1  0
 21 22  2  0
 21 23  1  0
 23 24  2  0
 24 25  1  0
 25 26  1  0
 26 27  1  0
 27 28  1  0
 16 29  2  0
  7  2  1  0
 29 12  1  0
 24 18  1  0
 28 23  1  0
  1 30  1  0
  1 31  1  0
  1 32  1  0
  3 33  1  0
  4 34  1  0
  5 35  1  0
  6 36  1  0
  8 37  1  0
  8 38  1  0
 13 39  1  0
 14 40  1  0
 15 41  1  0
 17 42  1  0
 17 43  1  0
 25 44  1  0
 25 45  1  0
 26 46  1  0
 26 47  1  0
 27 48  1  0
 27 49  1  0
 28 50  1  0
 28 51  1  0
 29 52  1  0
M  CHG  2   9  -1  20  -1
M  END
>  <UniqueID>  (53) 
49

>  <SMILES>  (53) 
Cc1ccccc1C[N-]C(=O)c1cccc(Cc2n[n-]c(=O)c3c2CCCC3)c1

>  <Energy>  (53) 
58.13352775284509

>  <Genealogy>  (53) 
Cc1ccccc1C[N-]C(=O)c1cccc(Cc2n[n-]c(=O)c3c2CCCC3)c1 (protonated)
Cc1ccccc1C[N-]C(=O)c1cccc(Cc2n[n-]c(=O)c3c2CCCC3)c1 (3D coordinates assigned)
Cc1ccccc1C[N-]C(=O)c1cccc(Cc2n[n-]c(=O)c3c2CCCC3)c1 (nonaromatic ring conformer: 58.13352775284509 kcal/mol)

>  <smiles>  (53) 
Cc1ccccc1CNC(=O)c1cccc(Cc2n[nH]c(=O)c3c2CCCC3)c1

>  <score_type>  (53) 
oracle

>  <origin>  (53) 
adg

>  <m_score__min__energy>  (53) 
-14.19

>  <m_primary>  (53) 
energy

$$$$
53:0
     RDKit          3D

 64 67  0  0  0  0  0  0  0  0999 V2000
   59.5800   35.5280   45.9940 C   0  0  0  0  0  0  0  0  0  0  0  0
   58.8460   34.3090   45.5190 C   0  0  0  0  0  0  0  0  0  0  0  0
   57.9730   33.6220   46.3790 C   0  0  0  0  0  0  0  0  0  0  0  0
   57.3140   32.4680   45.9400 C   0  0  0  0  0  0  0  0  0  0  0  0
   57.5290   31.9820   44.6440 C   0  0  0  0  0  0  0  0  0  0  0  0
   56.6830   30.5380   44.0980 S   0  0  0  0  0  0  0  0  0  0  0  0
   55.3820   30.3750   44.8340 O   0  0  0  0  0  0  0  0  0  0  0  0
   56.4010   30.6680   42.6270 O   0  0  0  0  0  0  0  0  0  0  0  0
   57.6620   29.1360   44.3710 N   0  0  0  0  0  0  0  0  0  0  0  0
   58.1250   28.7530   45.6690 C   0  0  0  0  0  0  0  0  0  0  0  0
   57.7440   27.6590   46.1680 O   0  0  0  0  0  0  0  0  0  0  0  0
   59.0510   29.6370   46.4200 C   0  0  0  0  0  0  0  0  0  0  0  0
   58.5860   30.3490   47.5410 C   0  0  0  0  0  0  0  0  0  0  0  0
   59.4380   31.1990   48.2510 C   0  0  0  0  0  0  0  0  0  0  0  0
   60.7790   31.3570   47.8610 C   0  0  0  0  0  0  0  0  0  0  0  0
   61.6800   32.2660   48.6140 C   0  0  0  0  0  0  0  0  0  0  0  0
   61.2030   33.4890   49.1180 C   0  0  0  0  0  0  0  0  0  0  0  0
   62.0540   34.3470   49.8180 C   0  0  0  0  0  0  0  0  0  0  0  0
   63.3920   34.0010   50.0180 C   0  0  0  0  0  0  0  0  0  0  0  0
   63.8930   32.7920   49.5120 C   0  0  0  0  0  0  0  0  0  0  0  0
   65.3360   32.4100   49.7340 C   0  0  0  0  0  0  0  0  0  0  0  0
   65.5330   31.7390   51.0400 N   0  0  0  0  0  0  0  0  0  0  0  0
   66.7040   30.8350   51.1530 C   0  0  0  0  0  0  0  0  0  0  0  0
   67.8170   31.3600   52.0760 C   0  0  0  0  0  0  0  0  0  0  0  0
   68.4300   32.6890   51.6280 C   0  0  0  0  0  0  0  0  0  0  0  0
   67.3900   33.7010   51.3400 N   0  0  0  0  0  0  0  0  0  0  0  0
   68.0120   35.0280   51.1980 C   0  0  0  0  0  0  0  0  0  0  0  0
   66.3630   33.7240   52.4080 C   0  0  0  0  0  0  0  0  0  0  0  0
   65.3040   32.6270   52.2020 C   0  0  0  0  0  0  0  0  0  0  0  0
   63.0290   31.9210   48.8260 C   0  0  0  0  0  0  0  0  0  0  0  0
   61.2480   30.6410   46.7450 C   0  0  0  0  0  0  0  0  0  0  0  0
   60.3970   29.7940   46.0280 C   0  0  0  0  0  0  0  0  0  0  0  0
   60.9000   29.1190   44.9640 F   0  0  0  0  0  0  0  0  0  0  0  0
   58.4210   32.6520   43.7930 C   0  0  0  0  0  0  0  0  0  0  0  0
   59.0760   33.8080   44.2280 C   0  0  0  0  0  0  0  0  0  0  0  0
   59.5900   35.5446   47.0938 H   0  0  0  0  0  0  0  0  0  0  0  0
   60.6135   35.5033   45.6182 H   0  0  0  0  0  0  0  0  0  0  0  0
   59.0747   36.4299   45.6182 H   0  0  0  0  0  0  0  0  0  0  0  0
   57.8068   33.9925   47.4013 H   0  0  0  0  0  0  0  0  0  0  0  0
   56.6244   31.9405   46.6154 H   0  0  0  0  0  0  0  0  0  0  0  0
   57.5401   30.2352   47.8620 H   0  0  0  0  0  0  0  0  0  0  0  0
   59.0557   31.7495   49.1232 H   0  0  0  0  0  0  0  0  0  0  0  0
   60.1519   33.7720   48.9598 H   0  0  0  0  0  0  0  0  0  0  0  0
   61.6690   35.2986   50.2132 H   0  0  0  0  0  0  0  0  0  0  0  0
   64.0559   34.6790   50.5745 H   0  0  0  0  0  0  0  0  0  0  0  0
   65.6509   31.7267   48.9316 H   0  0  0  0  0  0  0  0  0  0  0  0
   65.9381   33.3306   49.7284 H   0  0  0  0  0  0  0  0  0  0  0  0
   66.3570   29.8680   51.5460 H   0  0  0  0  0  0  0  0  0  0  0  0
   67.1395   30.7533   50.1462 H   0  0  0  0  0  0  0  0  0  0  0  0
   67.3944   31.4970   53.0823 H   0  0  0  0  0  0  0  0  0  0  0  0
   68.6258   30.6149   52.0507 H   0  0  0  0  0  0  0  0  0  0  0  0
   69.0842   33.0674   52.4273 H   0  0  0  0  0  0  0  0  0  0  0  0
   68.9999   32.5100   50.7043 H   0  0  0  0  0  0  0  0  0  0  0  0
   68.2093   35.4490   52.1949 H   0  0  0  0  0  0  0  0  0  0  0  0
   68.9589   34.9320   50.6465 H   0  0  0  0  0  0  0  0  0  0  0  0
   67.3324   35.6944   50.6465 H   0  0  0  0  0  0  0  0  0  0  0  0
   66.8550   33.5669   53.3792 H   0  0  0  0  0  0  0  0  0  0  0  0
   65.8567   34.7000   52.3763 H   0  0  0  0  0  0  0  0  0  0  0  0
   65.2802   32.0029   53.1075 H   0  0  0  0  0  0  0  0  0  0  0  0
   64.3572   33.1507   52.0036 H   0  0  0  0  0  0  0  0  0  0  0  0
   63.4104   30.9599   48.4508 H   0  0  0  0  0  0  0  0  0  0  0  0
   62.2971   30.7486   46.4323 H   0  0  0  0  0  0  0  0  0  0  0  0
   58.6057   32.2662   42.7796 H   0  0  0  0  0  0  0  0  0  0  0  0
   59.7747   34.3273   43.5556 H   0  0  0  0  0  0  0  0  0  0  0  0
  1  2  1  0
  2  3  2  0
  3  4  1  0
  4  5  2  0
  5  6  1  0
  6  7  2  0
  6  8  2  0
  6  9  1  0
  9 10  1  0
 10 11  2  0
 10 12  1  0
 12 13  2  0
 13 14  1  0
 14 15  2  0
 15 16  1  0
 16 17  2  0
 17 18  1  0
 18 19  2  0
 19 20  1  0
 20 21  1  0
 21 22  1  0
 22 23  1  0
 23 24  1  0
 24 25  1  0
 25 26  1  0
 26 27  1  0
 26 28  1  0
 28 29  1  0
 20 30  2  0
 15 31  1  0
 31 32  2  0
 32 33  1  0
  5 34  1  0
 34 35  2  0
 35  2  1  0
 32 12  1  0
 30 16  1  0
 29 22  1  0
  1 36  1  0
  1 37  1  0
  1 38  1  0
  3 39  1  0
  4 40  1  0
 13 41  1  0
 14 42  1  0
 17 43  1  0
 18 44  1  0
 19 45  1  0
 21 46  1  0
 21 47  1  0
 23 48  1  0
 23 49  1  0
 24 50  1  0
 24 51  1  0
 25 52  1  0
 25 53  1  0
 27 54  1  0
 27 55  1  0
 27 56  1  0
 28 57  1  0
 28 58  1  0
 29 59  1  0
 29 60  1  0
 30 61  1  0
 31 62  1  0
 34 63  1  0
 35 64  1  0
M  CHG  1   9  -1
M  END
>  <UniqueID>  (54) 
50

>  <SMILES>  (54) 
Cc1ccc(S(=O)(=O)[N-]C(=O)c2ccc(-c3cccc(CN4CCCN(C)CC4)c3)cc2F)cc1

>  <Energy>  (54) 
90.22535720389946

>  <Genealogy>  (54) 
Cc1ccc(S(=O)(=O)[N-]C(=O)c2ccc(-c3cccc(CN4CCCN(C)CC4)c3)cc2F)cc1 (protonated)
Cc1ccc(S(=O)(=O)[N-]C(=O)c2ccc(-c3cccc(CN4CCCN(C)CC4)c3)cc2F)cc1 (3D coordinates assigned)
Cc1ccc(S(=O)(=O)[N-]C(=O)c2ccc(-c3cccc(CN4CCCN(C)CC4)c3)cc2F)cc1 (nonaromatic ring conformer: 90.22535720389946 kcal/mol)

>  <smiles>  (54) 
Cc1ccc(S(=O)(=O)NC(=O)c2ccc(-c3cccc(CN4CCCN(C)CC4)c3)cc2F)cc1

>  <score_type>  (54) 
oracle

>  <origin>  (54) 
adg

>  <m_score__min__energy>  (54) 
-8.9199999999999999

>  <m_primary>  (54) 
energy

$$$$
54:0
     RDKit          3D

 42 43  0  0  0  0  0  0  0  0999 V2000
   61.8210   33.8820   49.1650 C   0  0  0  0  0  0  0  0  0  0  0  0
   60.8070   34.1400   48.1510 N   0  0  0  0  0  0  0  0  0  0  0  0
   61.1320   34.1980   46.7570 C   0  0  0  0  0  0  0  0  0  0  0  0
   62.3090   33.9670   46.3690 O   0  0  0  0  0  0  0  0  0  0  0  0
   60.0650   34.4810   45.7450 C   0  0  0  0  0  0  0  0  0  0  0  0
   58.7480   34.4490   46.3950 N   0  0  0  0  0  0  0  0  0  0  0  0
   57.9670   33.2550   46.0190 C   0  0  0  0  0  0  0  0  0  0  0  0
   58.6760   31.9500   46.4380 C   0  0  0  0  0  0  0  0  0  0  0  0
   57.7890   30.7470   46.0970 C   0  0  0  0  0  0  0  0  0  0  0  0
   57.2250   30.8490   44.7410 N   0  0  0  0  0  0  0  0  0  0  0  0
   56.3220   29.8240   44.2810 C   0  0  0  0  0  0  0  0  0  0  0  0
   55.9060   29.8310   43.0910 O   0  0  0  0  0  0  0  0  0  0  0  0
   55.8550   28.8210   45.1930 N   0  0  0  0  0  0  0  0  0  0  0  0
   56.6050   27.6820   45.6350 C   0  0  0  0  0  0  0  0  0  0  0  0
   58.0050   27.7540   45.6160 C   0  0  0  0  0  0  0  0  0  0  0  0
   58.7760   26.6650   46.0400 C   0  0  0  0  0  0  0  0  0  0  0  0
   60.5270   26.7770   46.0370 Cl  0  0  0  0  0  0  0  0  0  0  0  0
   58.1500   25.4910   46.4690 C   0  0  0  0  0  0  0  0  0  0  0  0
   56.7560   25.3970   46.4560 C   0  0  0  0  0  0  0  0  0  0  0  0
   55.9810   26.4800   46.0280 C   0  0  0  0  0  0  0  0  0  0  0  0
   54.5990   26.3360   45.9620 O   0  0  0  0  0  0  0  0  0  0  0  0
   57.7090   31.8950   43.8250 C   0  0  0  0  0  0  0  0  0  0  0  0
   57.6970   33.2830   44.4940 C   0  0  0  0  0  0  0  0  0  0  0  0
   61.3767   33.9950   50.1649 H   0  0  0  0  0  0  0  0  0  0  0  0
   62.2044   32.8577   49.0478 H   0  0  0  0  0  0  0  0  0  0  0  0
   62.6474   34.5985   49.0478 H   0  0  0  0  0  0  0  0  0  0  0  0
   59.8210   34.2980   48.4550 H   0  0  0  0  0  0  0  0  0  0  0  0
   60.2321   35.4753   45.3052 H   0  0  0  0  0  0  0  0  0  0  0  0
   60.1004   33.7176   44.9538 H   0  0  0  0  0  0  0  0  0  0  0  0
   58.2170   35.3150   46.1370 H   0  0  0  0  0  0  0  0  0  0  0  0
   57.0085   33.2766   46.5582 H   0  0  0  0  0  0  0  0  0  0  0  0
   59.6314   31.8640   45.8997 H   0  0  0  0  0  0  0  0  0  0  0  0
   58.8628   31.9690   47.5219 H   0  0  0  0  0  0  0  0  0  0  0  0
   58.3925   29.8298   46.1633 H   0  0  0  0  0  0  0  0  0  0  0  0
   56.9543   30.7244   46.8131 H   0  0  0  0  0  0  0  0  0  0  0  0
   58.5006   28.6715   45.2659 H   0  0  0  0  0  0  0  0  0  0  0  0
   58.7551   24.6409   46.8170 H   0  0  0  0  0  0  0  0  0  0  0  0
   56.2663   24.4681   46.7835 H   0  0  0  0  0  0  0  0  0  0  0  0
   58.7381   31.6544   43.5199 H   0  0  0  0  0  0  0  0  0  0  0  0
   57.0388   31.9268   42.9533 H   0  0  0  0  0  0  0  0  0  0  0  0
   58.4715   33.9022   44.0178 H   0  0  0  0  0  0  0  0  0  0  0  0
   56.6839   33.6899   44.3597 H   0  0  0  0  0  0  0  0  0  0  0  0
  1  2  1  0
  2  3  1  0
  3  4  2  0
  3  5  1  0
  5  6  1  0
  6  7  1  0
  7  8  1  0
  8  9  1  0
  9 10  1  0
 10 11  1  0
 11 12  2  0
 11 13  1  0
 13 14  1  0
 14 15  2  0
 15 16  1  0
 16 17  1  0
 16 18  2  0
 18 19  1  0
 19 20  2  0
 20 21  1  0
 10 22  1  0
 22 23  1  0
 23  7  1  0
 20 14  1  0
  1 24  1  0
  1 25  1  0
  1 26  1  0
  2 27  1  0
  5 28  1  0
  5 29  1  0
  6 30  1  0
  7 31  1  0
  8 32  1  0
  8 33  1  0
  9 34  1  0
  9 35  1  0
 15 36  1  0
 18 37  1  0
 19 38  1  0
 22 39  1  0
 22 40  1  0
 23 41  1  0
 23 42  1  0
M  CHG  2  13  -1  21  -1
M  END
>  <UniqueID>  (55) 
51

>  <SMILES>  (55) 
CNC(=O)CNC1CCN(C(=O)[N-]c2cc(Cl)ccc2[O-])CC1

>  <Energy>  (55) 
44.74247390455674

>  <Genealogy>  (55) 
CNC(=O)CNC1CCN(C(=O)[N-]c2cc(Cl)ccc2[O-])CC1 (protonated)
CNC(=O)CNC1CCN(C(=O)[N-]c2cc(Cl)ccc2[O-])CC1 (3D coordinates assigned)
CNC(=O)CNC1CCN(C(=O)[N-]c2cc(Cl)ccc2[O-])CC1 (nonaromatic ring conformer: 44.74247390455674 kcal/mol)

>  <smiles>  (55) 
CNC(=O)CNC1CCN(C(=O)Nc2cc(Cl)ccc2O)CC1

>  <score_type>  (55) 
oracle

>  <origin>  (55) 
adg

>  <m_score__min__energy>  (55) 
-13.56

>  <m_primary>  (55) 
energy

$$$$
55:0
     RDKit          3D

 46 48  0  0  0  0  0  0  0  0999 V2000
   56.2830   29.4140   42.5920 C   0  0  0  0  0  0  0  0  0  0  0  0
   56.9740   30.5430   43.2980 C   0  0  0  0  0  0  0  0  0  0  0  0
   57.0650   30.5480   44.6980 C   0  0  0  0  0  0  0  0  0  0  0  0
   57.6680   31.6210   45.3620 C   0  0  0  0  0  0  0  0  0  0  0  0
   58.1780   32.7050   44.6330 C   0  0  0  0  0  0  0  0  0  0  0  0
   59.0080   34.0260   45.4550 S   0  0  0  0  0  0  0  0  0  0  0  0
   60.4840   33.9040   45.1980 O   0  0  0  0  0  0  0  0  0  0  0  0
   58.5310   35.3350   44.8890 O   0  0  0  0  0  0  0  0  0  0  0  0
   58.7320   34.0250   47.1730 N   0  0  0  0  0  0  0  0  0  0  0  0
   59.4630   33.2280   48.1110 C   0  0  0  0  0  0  0  0  0  0  0  0
   59.9360   33.8210   49.2880 C   0  0  0  0  0  0  0  0  0  0  0  0
   60.7040   33.0790   50.1880 C   0  0  0  0  0  0  0  0  0  0  0  0
   60.9990   31.7400   49.9200 C   0  0  0  0  0  0  0  0  0  0  0  0
   60.4880   31.1190   48.7740 C   0  0  0  0  0  0  0  0  0  0  0  0
   60.8710   29.7660   48.4880 N   0  0  0  0  0  0  0  0  0  0  0  0
   60.0000   28.6270   48.4930 C   0  0  0  0  0  0  0  0  0  0  0  0
   59.7860   28.0060   49.5710 O   0  0  0  0  0  0  0  0  0  0  0  0
   59.3840   28.1570   47.2320 C   0  0  0  0  0  0  0  0  0  0  0  0
   59.8500   28.6270   45.9920 C   0  0  0  0  0  0  0  0  0  0  0  0
   59.2810   28.1650   44.8020 C   0  0  0  0  0  0  0  0  0  0  0  0
   58.2460   27.2280   44.8360 C   0  0  0  0  0  0  0  0  0  0  0  0
   57.7680   26.7520   46.0630 C   0  0  0  0  0  0  0  0  0  0  0  0
   56.4720   25.5610   46.1080 S   0  0  0  0  0  0  0  0  0  0  0  0
   54.9460   26.3580   45.9690 N   0  0  0  0  0  0  0  0  0  0  0  0
   56.6350   24.5910   44.9720 O   0  0  0  0  0  0  0  0  0  0  0  0
   56.5250   24.8000   47.4020 O   0  0  0  0  0  0  0  0  0  0  0  0
   58.3390   27.2150   47.2570 C   0  0  0  0  0  0  0  0  0  0  0  0
   59.6990   31.8650   47.8830 C   0  0  0  0  0  0  0  0  0  0  0  0
   58.0700   32.7090   43.2350 C   0  0  0  0  0  0  0  0  0  0  0  0
   57.4690   31.6350   42.5710 C   0  0  0  0  0  0  0  0  0  0  0  0
   55.8593   28.7218   43.3345 H   0  0  0  0  0  0  0  0  0  0  0  0
   55.4754   29.8151   41.9619 H   0  0  0  0  0  0  0  0  0  0  0  0
   57.0076   28.8773   41.9619 H   0  0  0  0  0  0  0  0  0  0  0  0
   56.6602   29.7042   45.2760 H   0  0  0  0  0  0  0  0  0  0  0  0
   57.7425   31.6147   46.4595 H   0  0  0  0  0  0  0  0  0  0  0  0
   59.7021   34.8739   49.5043 H   0  0  0  0  0  0  0  0  0  0  0  0
   61.0773   33.5497   51.1095 H   0  0  0  0  0  0  0  0  0  0  0  0
   61.6360   31.1707   50.6129 H   0  0  0  0  0  0  0  0  0  0  0  0
   60.6671   29.3626   45.9580 H   0  0  0  0  0  0  0  0  0  0  0  0
   59.6494   28.5405   43.8359 H   0  0  0  0  0  0  0  0  0  0  0  0
   57.8052   26.8630   43.8966 H   0  0  0  0  0  0  0  0  0  0  0  0
   55.1330   27.3840   45.9970 H   0  0  0  0  0  0  0  0  0  0  0  0
   57.9669   26.8387   48.2213 H   0  0  0  0  0  0  0  0  0  0  0  0
   59.2629   31.3760   46.9995 H   0  0  0  0  0  0  0  0  0  0  0  0
   58.4597   33.5606   42.6581 H   0  0  0  0  0  0  0  0  0  0  0  0
   57.3843   31.6469   41.4743 H   0  0  0  0  0  0  0  0  0  0  0  0
  1  2  1  0
  2  3  2  0
  3  4  1  0
  4  5  2  0
  5  6  1  0
  6  7  2  0
  6  8  2  0
  6  9  1  0
  9 10  1  0
 10 11  2  0
 11 12  1  0
 12 13  2  0
 13 14  1  0
 14 15  1  0
 15 16  1  0
 16 17  2  0
 16 18  1  0
 18 19  2  0
 19 20  1  0
 20 21  2  0
 21 22  1  0
 22 23  1  0
 23 24  1  0
 23 25  2  0
 23 26  2  0
 22 27  2  0
 14 28  2  0
  5 29  1  0
 29 30  2  0
 30  2  1  0
 28 10  1  0
 27 18  1  0
  1 31  1  0
  1 32  1  0
  1 33  1  0
  3 34  1  0
  4 35  1  0
 11 36  1  0
 12 37  1  0
 13 38  1  0
 19 39  1  0
 20 40  1  0
 21 41  1  0
 24 42  1  0
 27 43  1  0
 28 44  1  0
 29 45  1  0
 30 46  1  0
M  CHG  3   9  -1  15  -1  24  -1
M  END
>  <UniqueID>  (56) 
52

>  <SMILES>  (56) 
Cc1ccc(S(=O)(=O)[N-]c2cccc([N-]C(=O)c3cccc(S([NH-])(=O)=O)c3)c2)cc1

>  <Energy>  (56) 
56.45243098262084

>  <Genealogy>  (56) 
Cc1ccc(S(=O)(=O)[N-]c2cccc([N-]C(=O)c3cccc(S([NH-])(=O)=O)c3)c2)cc1 (protonated)
Cc1ccc(S(=O)(=O)[N-]c2cccc([N-]C(=O)c3cccc(S([NH-])(=O)=O)c3)c2)cc1 (3D coordinates assigned)
Cc1ccc(S(=O)(=O)[N-]c2cccc([N-]C(=O)c3cccc(S([NH-])(=O)=O)c3)c2)cc1 (optimized conformer: 56.45243098262084 kcal/mol)

>  <smiles>  (56) 
Cc1ccc(S(=O)(=O)Nc2cccc(NC(=O)c3cccc(S(N)(=O)=O)c3)c2)cc1

>  <score_type>  (56) 
oracle

>  <origin>  (56) 
adg

>  <m_score__min__energy>  (56) 
-15.130000000000001

>  <m_primary>  (56) 
energy

$$$$
56:0
     RDKit          3D

 56 58  0  0  0  0  0  0  0  0999 V2000
   53.6180   23.8410   45.4110 C   0  0  0  0  0  0  0  0  0  0  0  0
   55.0600   23.8170   45.1930 N   0  0  0  0  0  0  0  0  0  0  0  0
   55.7880   25.1990   45.9510 S   0  0  0  0  0  0  0  0  0  0  0  0
   56.2110   24.8540   47.3530 O   0  0  0  0  0  0  0  0  0  0  0  0
   54.8050   26.3350   45.9920 O   0  0  0  0  0  0  0  0  0  0  0  0
   57.2160   25.7040   45.0100 C   0  0  0  0  0  0  0  0  0  0  0  0
   57.7410   27.0170   45.5190 C   0  0  0  0  0  0  0  0  0  0  0  0
   58.9060   27.0580   46.3030 C   0  0  0  0  0  0  0  0  0  0  0  0
   59.4190   28.2820   46.7380 C   0  0  0  0  0  0  0  0  0  0  0  0
   58.7740   29.4740   46.3970 C   0  0  0  0  0  0  0  0  0  0  0  0
   57.5990   29.4470   45.6250 C   0  0  0  0  0  0  0  0  0  0  0  0
   56.9250   30.6530   45.2380 N   0  0  0  0  0  0  0  0  0  0  0  0
   57.5280   31.7990   44.6220 C   0  0  0  0  0  0  0  0  0  0  0  0
   57.3710   31.9700   43.3830 O   0  0  0  0  0  0  0  0  0  0  0  0
   58.2780   32.8100   45.4060 C   0  0  0  0  0  0  0  0  0  0  0  0
   58.6910   34.0170   44.8160 C   0  0  0  0  0  0  0  0  0  0  0  0
   59.3930   34.9640   45.5630 C   0  0  0  0  0  0  0  0  0  0  0  0
   59.7050   34.7120   46.9010 C   0  0  0  0  0  0  0  0  0  0  0  0
   59.3310   33.4990   47.4990 C   0  0  0  0  0  0  0  0  0  0  0  0
   59.6520   33.2300   48.9180 C   0  0  0  0  0  0  0  0  0  0  0  0
   58.7100   33.0910   49.7440 O   0  0  0  0  0  0  0  0  0  0  0  0
   61.0160   33.1190   49.3720 N   0  0  0  0  0  0  0  0  0  0  0  0
   61.9930   32.3790   48.5580 C   0  0  0  0  0  0  0  0  0  0  0  0
   63.1890   31.9080   49.3920 C   0  0  0  0  0  0  0  0  0  0  0  0
   63.7210   33.0150   50.2030 N   0  0  0  0  0  0  0  0  0  0  0  0
   65.1370   33.1440   50.4620 C   0  0  0  0  0  0  0  0  0  0  0  0
   66.1040   32.0460   50.1330 C   0  0  0  0  0  0  0  0  0  0  0  0
   65.5860   34.2090   50.9660 O   0  0  0  0  0  0  0  0  0  0  0  0
   62.7970   33.9620   50.8490 C   0  0  0  0  0  0  0  0  0  0  0  0
   61.3420   33.4940   50.7520 C   0  0  0  0  0  0  0  0  0  0  0  0
   58.6100   32.5560   46.7480 C   0  0  0  0  0  0  0  0  0  0  0  0
   57.1030   28.2190   45.1720 C   0  0  0  0  0  0  0  0  0  0  0  0
   53.4105   23.8445   46.4912 H   0  0  0  0  0  0  0  0  0  0  0  0
   53.1930   24.7463   44.9531 H   0  0  0  0  0  0  0  0  0  0  0  0
   53.1631   22.9503   44.9531 H   0  0  0  0  0  0  0  0  0  0  0  0
   58.0009   24.9390   45.1036 H   0  0  0  0  0  0  0  0  0  0  0  0
   56.9256   25.8204   43.9554 H   0  0  0  0  0  0  0  0  0  0  0  0
   59.4162   26.1223   46.5754 H   0  0  0  0  0  0  0  0  0  0  0  0
   60.3325   28.3079   47.3502 H   0  0  0  0  0  0  0  0  0  0  0  0
   59.1868   30.4364   46.7336 H   0  0  0  0  0  0  0  0  0  0  0  0
   58.4595   34.2164   43.7593 H   0  0  0  0  0  0  0  0  0  0  0  0
   59.7014   35.9114   45.0969 H   0  0  0  0  0  0  0  0  0  0  0  0
   60.2464   35.4680   47.4886 H   0  0  0  0  0  0  0  0  0  0  0  0
   61.4976   31.5007   48.1185 H   0  0  0  0  0  0  0  0  0  0  0  0
   62.3674   33.0551   47.7752 H   0  0  0  0  0  0  0  0  0  0  0  0
   62.8675   31.0936   50.0579 H   0  0  0  0  0  0  0  0  0  0  0  0
   63.9784   31.5538   48.7128 H   0  0  0  0  0  0  0  0  0  0  0  0
   66.4908   31.6068   51.0644 H   0  0  0  0  0  0  0  0  0  0  0  0
   65.5912   31.2693   49.5466 H   0  0  0  0  0  0  0  0  0  0  0  0
   66.9393   32.4565   49.5466 H   0  0  0  0  0  0  0  0  0  0  0  0
   63.0700   34.0578   51.9103 H   0  0  0  0  0  0  0  0  0  0  0  0
   62.8803   34.9283   50.3301 H   0  0  0  0  0  0  0  0  0  0  0  0
   61.1970   32.6231   51.4081 H   0  0  0  0  0  0  0  0  0  0  0  0
   60.6813   34.3164   51.0636 H   0  0  0  0  0  0  0  0  0  0  0  0
   58.3020   31.6089   47.2150 H   0  0  0  0  0  0  0  0  0  0  0  0
   56.2045   28.1952   44.5379 H   0  0  0  0  0  0  0  0  0  0  0  0
  1  2  1  0
  2  3  1  0
  3  4  2  0
  3  5  2  0
  3  6  1  0
  6  7  1  0
  7  8  2  0
  8  9  1  0
  9 10  2  0
 10 11  1  0
 11 12  1  0
 12 13  1  0
 13 14  2  0
 13 15  1  0
 15 16  2  0
 16 17  1  0
 17 18  2  0
 18 19  1  0
 19 20  1  0
 20 21  2  0
 20 22  1  0
 22 23  1  0
 23 24  1  0
 24 25  1  0
 25 26  1  0
 26 27  1  0
 26 28  2  0
 25 29  1  0
 29 30  1  0
 19 31  2  0
 11 32  2  0
 32  7  1  0
 31 15  1  0
 30 22  1  0
  1 33  1  0
  1 34  1  0
  1 35  1  0
  6 36  1  0
  6 37  1  0
  8 38  1  0
  9 39  1  0
 10 40  1  0
 16 41  1  0
 17 42  1  0
 18 43  1  0
 23 44  1  0
 23 45  1  0
 24 46  1  0
 24 47  1  0
 27 48  1  0
 27 49  1  0
 27 50  1  0
 29 51  1  0
 29 52  1  0
 30 53  1  0
 30 54  1  0
 31 55  1  0
 32 56  1  0
M  CHG  2   2  -1  12  -1
M  END
>  <UniqueID>  (57) 
53

>  <SMILES>  (57) 
C[N-]S(=O)(=O)Cc1cccc([N-]C(=O)c2cccc(C(=O)N3CCN(C(C)=O)CC3)c2)c1

>  <Energy>  (57) 
60.614586807476854

>  <Genealogy>  (57) 
C[N-]S(=O)(=O)Cc1cccc([N-]C(=O)c2cccc(C(=O)N3CCN(C(C)=O)CC3)c2)c1 (protonated)
C[N-]S(=O)(=O)Cc1cccc([N-]C(=O)c2cccc(C(=O)N3CCN(C(C)=O)CC3)c2)c1 (3D coordinates assigned)
C[N-]S(=O)(=O)Cc1cccc([N-]C(=O)c2cccc(C(=O)N3CCN(C(C)=O)CC3)c2)c1 (nonaromatic ring conformer: 60.614586807476854 kcal/mol)

>  <smiles>  (57) 
CNS(=O)(=O)Cc1cccc(NC(=O)c2cccc(C(=O)N3CCN(C(C)=O)CC3)c2)c1

>  <score_type>  (57) 
oracle

>  <origin>  (57) 
adg

>  <m_score__min__energy>  (57) 
-13.34

>  <m_primary>  (57) 
energy

$$$$
57:0
     RDKit          3D

 90 94  0  0  0  0  0  0  0  0999 V2000
   57.4670   32.6540   40.7920 C   0  0  0  0  0  0  0  0  0  0  0  0
   57.3210   31.6230   41.9090 C   0  0  0  0  0  0  0  0  0  0  0  0
   57.7770   32.1790   43.2320 C   0  0  0  0  0  0  0  0  0  0  0  0
   58.4030   33.3670   43.3710 N   0  0  0  0  0  0  0  0  0  0  0  0
   58.4910   33.5460   44.7070 C   0  0  0  0  0  0  0  0  0  0  0  0
   59.0920   34.7960   45.2960 C   0  0  0  0  0  0  0  0  0  0  0  0
   60.4320   34.4990   45.9670 C   0  0  0  0  0  0  0  0  0  0  0  0
   57.9440   32.5250   45.4200 N   0  0  0  0  0  0  0  0  0  0  0  0
   57.7980   32.4130   46.8820 C   0  0  0  0  0  0  0  0  0  0  0  0
   59.1390   32.3130   47.5580 C   0  0  0  0  0  0  0  0  0  0  0  0
   60.1290   31.4550   47.0500 C   0  0  0  0  0  0  0  0  0  0  0  0
   61.3910   31.3970   47.6480 C   0  0  0  0  0  0  0  0  0  0  0  0
   61.6750   32.1850   48.7690 C   0  0  0  0  0  0  0  0  0  0  0  0
   63.0170   32.1660   49.3720 C   0  0  0  0  0  0  0  0  0  0  0  0
   63.9630   33.0910   48.9070 C   0  0  0  0  0  0  0  0  0  0  0  0
   65.2620   33.0960   49.4150 C   0  0  0  0  0  0  0  0  0  0  0  0
   65.6280   32.1730   50.3980 C   0  0  0  0  0  0  0  0  0  0  0  0
   64.6920   31.2530   50.8850 C   0  0  0  0  0  0  0  0  0  0  0  0
   63.3810   31.2370   50.3850 C   0  0  0  0  0  0  0  0  0  0  0  0
   62.2460   30.0680   51.0890 S   0  0  0  0  0  0  0  0  0  0  0  0
   63.0310   28.8680   51.5350 O   0  0  0  0  0  0  0  0  0  0  0  0
   61.2120   29.6160   50.0910 O   0  0  0  0  0  0  0  0  0  0  0  0
   61.4380   30.7340   52.4700 N   0  0  0  0  0  0  0  0  0  0  0  0
   60.5320   30.0170   53.3160 C   0  0  0  0  0  0  0  0  0  0  0  0
   60.4660   30.2810   54.5500 O   0  0  0  0  0  0  0  0  0  0  0  0
   59.6900   28.9980   52.7630 N   0  0  0  0  0  0  0  0  0  0  0  0
   60.2260   27.6570   52.4860 C   0  0  0  0  0  0  0  0  0  0  0  0
   61.2560   27.2530   53.5440 C   0  0  0  0  0  0  0  0  0  0  0  0
   58.2930   29.2570   52.5990 C   0  0  0  0  0  0  0  0  0  0  0  0
   57.7100   30.1090   51.6880 C   0  0  0  0  0  0  0  0  0  0  0  0
   58.4080   30.9280   50.6480 C   0  0  0  0  0  0  0  0  0  0  0  0
   56.3790   30.1470   51.9050 N   0  0  0  0  0  0  0  0  0  0  0  0
   56.1190   29.3380   52.9250 N   0  0  0  0  0  0  0  0  0  0  0  0
   54.7930   29.1870   53.5120 C   0  0  0  0  0  0  0  0  0  0  0  0
   57.2620   28.7700   53.3690 C   0  0  0  0  0  0  0  0  0  0  0  0
   57.3790   27.8780   54.5630 C   0  0  0  0  0  0  0  0  0  0  0  0
   60.6800   33.0080   49.3090 C   0  0  0  0  0  0  0  0  0  0  0  0
   59.4240   33.0830   48.6970 C   0  0  0  0  0  0  0  0  0  0  0  0
   57.4700   31.6760   44.4820 C   0  0  0  0  0  0  0  0  0  0  0  0
   56.6390   30.5070   44.7520 C   0  0  0  0  0  0  0  0  0  0  0  0
   55.4420   30.4890   44.3500 O   0  0  0  0  0  0  0  0  0  0  0  0
   57.1810   29.4010   45.4750 N   0  0  0  0  0  0  0  0  0  0  0  0
   58.4060   28.7240   45.0640 C   0  0  0  0  0  0  0  0  0  0  0  0
   59.1150   28.1770   46.2670 C   0  0  0  0  0  0  0  0  0  0  0  0
   60.1110   27.1980   46.1100 C   0  0  0  0  0  0  0  0  0  0  0  0
   60.7690   26.6710   47.2230 C   0  0  0  0  0  0  0  0  0  0  0  0
   60.4200   27.0980   48.5070 C   0  0  0  0  0  0  0  0  0  0  0  0
   61.0510   26.5780   49.5860 F   0  0  0  0  0  0  0  0  0  0  0  0
   59.4120   28.0530   48.6790 C   0  0  0  0  0  0  0  0  0  0  0  0
   58.7630   28.5970   47.5640 C   0  0  0  0  0  0  0  0  0  0  0  0
   57.6084   33.6526   41.2310 H   0  0  0  0  0  0  0  0  0  0  0  0
   58.3381   32.4001   40.1702 H   0  0  0  0  0  0  0  0  0  0  0  0
   56.5596   32.6519   40.1702 H   0  0  0  0  0  0  0  0  0  0  0  0
   56.2640   31.3294   41.9893 H   0  0  0  0  0  0  0  0  0  0  0  0
   57.9495   30.7544   41.6631 H   0  0  0  0  0  0  0  0  0  0  0  0
   59.2474   35.5323   44.4937 H   0  0  0  0  0  0  0  0  0  0  0  0
   58.4012   35.1913   46.0553 H   0  0  0  0  0  0  0  0  0  0  0  0
   60.3089   34.5263   47.0597 H   0  0  0  0  0  0  0  0  0  0  0  0
   60.7816   33.5016   45.6622 H   0  0  0  0  0  0  0  0  0  0  0  0
   61.1703   35.2553   45.6622 H   0  0  0  0  0  0  0  0  0  0  0  0
   57.2718   33.3024   47.2590 H   0  0  0  0  0  0  0  0  0  0  0  0
   57.2268   31.4999   47.1056 H   0  0  0  0  0  0  0  0  0  0  0  0
   59.9093   30.8246   46.1757 H   0  0  0  0  0  0  0  0  0  0  0  0
   62.1630   30.7302   47.2364 H   0  0  0  0  0  0  0  0  0  0  0  0
   63.6778   33.8198   48.1340 H   0  0  0  0  0  0  0  0  0  0  0  0
   65.9967   33.8250   49.0425 H   0  0  0  0  0  0  0  0  0  0  0  0
   66.6555   32.1692   50.7907 H   0  0  0  0  0  0  0  0  0  0  0  0
   64.9867   30.5367   51.6661 H   0  0  0  0  0  0  0  0  0  0  0  0
   59.4000   26.9305   52.4912 H   0  0  0  0  0  0  0  0  0  0  0  0
   60.7183   27.6708   51.5024 H   0  0  0  0  0  0  0  0  0  0  0  0
   60.8354   27.4180   54.5470 H   0  0  0  0  0  0  0  0  0  0  0  0
   61.5084   26.1892   53.4226 H   0  0  0  0  0  0  0  0  0  0  0  0
   62.1643   27.8615   53.4226 H   0  0  0  0  0  0  0  0  0  0  0  0
   59.0465   31.6772   51.1389 H   0  0  0  0  0  0  0  0  0  0  0  0
   59.0288   30.2718   50.0203 H   0  0  0  0  0  0  0  0  0  0  0  0
   57.6617   31.4370   50.0203 H   0  0  0  0  0  0  0  0  0  0  0  0
   54.8744   29.1963   54.6089 H   0  0  0  0  0  0  0  0  0  0  0  0
   54.1505   30.0178   53.1850 H   0  0  0  0  0  0  0  0  0  0  0  0
   54.3537   28.2330   53.1850 H   0  0  0  0  0  0  0  0  0  0  0  0
   57.3000   28.4805   55.4799 H   0  0  0  0  0  0  0  0  0  0  0  0
   56.5710   27.1318   54.5438 H   0  0  0  0  0  0  0  0  0  0  0  0
   58.3521   27.3654   54.5438 H   0  0  0  0  0  0  0  0  0  0  0  0
   60.8856   33.5964   50.2154 H   0  0  0  0  0  0  0  0  0  0  0  0
   58.6539   33.7503   49.1114 H   0  0  0  0  0  0  0  0  0  0  0  0
   58.1552   27.8984   44.3817 H   0  0  0  0  0  0  0  0  0  0  0  0
   59.0628   29.4428   44.5522 H   0  0  0  0  0  0  0  0  0  0  0  0
   60.3743   26.8441   45.1023 H   0  0  0  0  0  0  0  0  0  0  0  0
   61.5617   25.9201   47.0892 H   0  0  0  0  0  0  0  0  0  0  0  0
   59.1291   28.3768   49.6915 H   0  0  0  0  0  0  0  0  0  0  0  0
   57.9767   29.3539   47.7015 H   0  0  0  0  0  0  0  0  0  0  0  0
  1  2  1  0
  2  3  1  0
  3  4  1  0
  4  5  2  0
  5  6  1  0
  6  7  1  0
  5  8  1  0
  8  9  1  0
  9 10  1  0
 10 11  2  0
 11 12  1  0
 12 13  2  0
 13 14  1  0
 14 15  2  0
 15 16  1  0
 16 17  2  0
 17 18  1  0
 18 19  2  0
 19 20  1  0
 20 21  2  0
 20 22  2  0
 20 23  1  0
 23 24  1  0
 24 25  2  0
 24 26  1  0
 26 27  1  0
 27 28  1  0
 26 29  1  0
 29 30  1  0
 30 31  1  0
 30 32  2  0
 32 33  1  0
 33 34  1  0
 33 35  1  0
 35 36  1  0
 13 37  1  0
 37 38  2  0
  8 39  1  0
 39 40  1  0
 40 41  2  0
 40 42  1  0
 42 43  1  0
 43 44  1  0
 44 45  2  0
 45 46  1  0
 46 47  2  0
 47 48  1  0
 47 49  1  0
 49 50  2  0
 39  3  2  0
 50 44  1  0
 38 10  1  0
 19 14  1  0
 35 29  2  0
  1 51  1  0
  1 52  1  0
  1 53  1  0
  2 54  1  0
  2 55  1  0
  6 56  1  0
  6 57  1  0
  7 58  1  0
  7 59  1  0
  7 60  1  0
  9 61  1  0
  9 62  1  0
 11 63  1  0
 12 64  1  0
 15 65  1  0
 16 66  1  0
 17 67  1  0
 18 68  1  0
 27 69  1  0
 27 70  1  0
 28 71  1  0
 28 72  1  0
 28 73  1  0
 31 74  1  0
 31 75  1  0
 31 76  1  0
 34 77  1  0
 34 78  1  0
 34 79  1  0
 36 80  1  0
 36 81  1  0
 36 82  1  0
 37 83  1  0
 38 84  1  0
 43 85  1  0
 43 86  1  0
 45 87  1  0
 46 88  1  0
 49 89  1  0
 50 90  1  0
M  CHG  2  23  -1  42  -1
M  END
>  <UniqueID>  (58) 
54

>  <SMILES>  (58) 
CCc1nc(CC)n(Cc2ccc(-c3ccccc3S(=O)(=O)[N-]C(=O)N(CC)c3c(C)nn(C)c3C)cc2)c1C(=O)[N-]Cc1ccc(F)cc1

>  <Energy>  (58) 
166.40145001574507

>  <Genealogy>  (58) 
CCc1nc(CC)n(Cc2ccc(-c3ccccc3S(=O)(=O)[N-]C(=O)N(CC)c3c(C)nn(C)c3C)cc2)c1C(=O)[N-]Cc1ccc(F)cc1 (protonated)
CCc1nc(CC)n(Cc2ccc(-c3ccccc3S(=O)(=O)[N-]C(=O)N(CC)c3c(C)nn(C)c3C)cc2)c1C(=O)[N-]Cc1ccc(F)cc1 (3D coordinates assigned)
CCc1nc(CC)n(Cc2ccc(-c3ccccc3S(=O)(=O)[N-]C(=O)N(CC)c3c(C)nn(C)c3C)cc2)c1C(=O)[N-]Cc1ccc(F)cc1 (optimized conformer: 166.40145001574507 kcal/mol)

>  <smiles>  (58) 
CCc1nc(CC)n(Cc2ccc(-c3ccccc3S(=O)(=O)NC(=O)N(CC)c3c(C)nn(C)c3C)cc2)c1C(=O)NCc1ccc(F)cc1

>  <score_type>  (58) 
oracle

>  <origin>  (58) 
adg

>  <m_score__min__energy>  (58) 
-13.6

>  <m_primary>  (58) 
energy

$$$$
58:0
     RDKit          3D

 39 41  0  0  0  0  0  0  0  0999 V2000
   59.9514   27.2504   45.9437 H   0  0  0  0  0  0  0  0  0  0  0  0
   58.8690   27.0550   45.9600 C   0  0  0  0  0  0  0  0  0  0  0  0
   57.9960   28.0330   45.5970 N   0  0  0  0  0  0  0  0  0  0  0  0
   56.6460   27.8400   45.6090 C   0  0  0  0  0  0  0  0  0  0  0  0
   55.8220   28.7820   45.2440 N   0  0  0  0  0  0  0  0  0  0  0  0
   56.0570   29.8780   44.3420 C   0  0  0  0  0  0  0  0  0  0  0  0
   55.2770   30.8650   44.3870 O   0  0  0  0  0  0  0  0  0  0  0  0
   57.1980   29.8920   43.3570 C   0  0  0  0  0  0  0  0  0  0  0  0
   56.7951   29.7772   42.3399 H   0  0  0  0  0  0  0  0  0  0  0  0
   57.8784   29.0629   43.6011 H   0  0  0  0  0  0  0  0  0  0  0  0
   57.9320   31.1160   43.4320 O   0  0  0  0  0  0  0  0  0  0  0  0
   58.1880   31.8350   44.6110 C   0  0  0  0  0  0  0  0  0  0  0  0
   57.8630   33.1990   44.7560 C   0  0  0  0  0  0  0  0  0  0  0  0
   57.3907   33.7397   43.9226 H   0  0  0  0  0  0  0  0  0  0  0  0
   58.1370   33.8690   45.9520 C   0  0  0  0  0  0  0  0  0  0  0  0
   57.8818   34.9338   46.0568 H   0  0  0  0  0  0  0  0  0  0  0  0
   58.7360   33.1850   47.0160 C   0  0  0  0  0  0  0  0  0  0  0  0
   59.0220   33.8230   48.2270 C   0  0  0  0  0  0  0  0  0  0  0  0
   58.7832   34.8885   48.3600 H   0  0  0  0  0  0  0  0  0  0  0  0
   59.6140   33.0990   49.2700 C   0  0  0  0  0  0  0  0  0  0  0  0
   59.9540   33.7880   50.5690 C   0  0  0  0  0  0  0  0  0  0  0  0
   59.9654   34.8761   50.4081 H   0  0  0  0  0  0  0  0  0  0  0  0
   60.9423   33.4408   50.9047 H   0  0  0  0  0  0  0  0  0  0  0  0
   58.9260   33.4520   51.6440 C   0  0  0  0  0  0  0  0  0  0  0  0
   59.3738   33.5983   52.6380 H   0  0  0  0  0  0  0  0  0  0  0  0
   58.0523   34.1113   51.5347 H   0  0  0  0  0  0  0  0  0  0  0  0
   58.6104   32.4039   51.5347 H   0  0  0  0  0  0  0  0  0  0  0  0
   59.9260   31.7420   49.0490 C   0  0  0  0  0  0  0  0  0  0  0  0
   60.4800   31.0590   49.9500 O   0  0  0  0  0  0  0  0  0  0  0  0
   59.6400   31.1670   47.8830 O   0  0  0  0  0  0  0  0  0  0  0  0
   59.0660   31.8220   46.8790 C   0  0  0  0  0  0  0  0  0  0  0  0
   58.7890   31.1570   45.6800 C   0  0  0  0  0  0  0  0  0  0  0  0
   59.0452   30.0924   45.5753 H   0  0  0  0  0  0  0  0  0  0  0  0
   56.1350   26.5900   45.9920 C   0  0  0  0  0  0  0  0  0  0  0  0
   54.7640   26.3550   46.0030 O   0  0  0  0  0  0  0  0  0  0  0  0
   57.0170   25.5730   46.3660 C   0  0  0  0  0  0  0  0  0  0  0  0
   56.6269   24.5906   46.6705 H   0  0  0  0  0  0  0  0  0  0  0  0
   58.3920   25.8040   46.3530 C   0  0  0  0  0  0  0  0  0  0  0  0
   59.0925   25.0093   46.6491 H   0  0  0  0  0  0  0  0  0  0  0  0
  1  2  1  0
  2  3  1  0
  3  4  1  0
  4  5  2  0
  5  6  1  0
  6  7  2  0
  6  8  1  0
  8  9  1  0
  8 10  1  0
  8 11  1  0
 11 12  1  0
 12 13  2  0
 13 14  1  0
 13 15  1  0
 15 16  1  0
 15 17  2  0
 17 18  1  0
 18 19  1  0
 18 20  2  0
 20 21  1  0
 21 22  1  0
 21 23  1  0
 21 24  1  0
 24 25  1  0
 24 26  1  0
 24 27  1  0
 20 28  1  0
 28 29  2  0
 28 30  1  0
 30 31  1  0
 31 32  2  0
 32 33  1  0
  4 34  1  0
 34 35  1  0
 34 36  2  0
 36 37  1  0
 36 38  1  0
 38 39  1  0
 38  2  2  0
 32 12  1  0
 31 17  1  0
M  CHG  2   3  -1  35  -1
M  END
>  <UniqueID>  (59) 
55

>  <SMILES>  (59) 
CCc1cc2ccc(OCC(=O)/N=c3\[n-]cccc3[O-])cc2oc1=O

>  <Energy>  (59) 
48.87805043945625

>  <Genealogy>  (59) 
CCc1cc2ccc(OCC(=O)N=c3[n-]cccc3[O-])cc2oc1=O (protonated)
CCc1cc2ccc(OCC(=O)/N=c3\[n-]cccc3[O-])cc2oc1=O (cis-trans isomerization)
CCc1cc2ccc(OCC(=O)/N=c3\[n-]cccc3[O-])cc2oc1=O (3D coordinates assigned)
CCc1cc2ccc(OCC(=O)/N=c3\[n-]cccc3[O-])cc2oc1=O (optimized conformer: 48.87805043945625 kcal/mol)

>  <smiles>  (59) 
CCc1cc2ccc(OCC(=O)N=c3[nH]cccc3O)cc2oc1=O

>  <score_type>  (59) 
oracle

>  <origin>  (59) 
adg

>  <m_score__min__energy>  (59) 
-13.640000000000001

>  <m_primary>  (59) 
energy

$$$$
59:0
     RDKit          3D

 42 45  0  0  0  0  0  0  0  0999 V2000
   64.1150   33.1570   46.4210 O   0  0  0  0  0  0  0  0  0  0  0  0
   63.1950   33.2940   47.2710 C   0  0  0  0  0  0  0  0  0  0  0  0
   61.9700   33.7380   46.8630 N   0  0  0  0  0  0  0  0  0  0  0  0
   60.9330   33.9060   47.7330 C   0  0  0  0  0  0  0  0  0  0  0  0
   59.6570   34.3710   47.2490 N   0  0  0  0  0  0  0  0  0  0  0  0
   59.5940   35.3790   46.1860 C   0  0  0  0  0  0  0  0  0  0  0  0
   59.0240   34.7590   44.8940 C   0  0  0  0  0  0  0  0  0  0  0  0
   58.0690   33.6410   45.1320 N   0  0  0  0  0  0  0  0  0  0  0  0
   58.7010   32.3220   44.8920 C   0  0  0  0  0  0  0  0  0  0  0  0
   57.7390   31.3550   44.2500 C   0  0  0  0  0  0  0  0  0  0  0  0
   57.5100   31.3900   42.8640 C   0  0  0  0  0  0  0  0  0  0  0  0
   56.6240   30.4830   42.2760 C   0  0  0  0  0  0  0  0  0  0  0  0
   55.9610   29.5380   43.0630 C   0  0  0  0  0  0  0  0  0  0  0  0
   56.1850   29.4950   44.4430 C   0  0  0  0  0  0  0  0  0  0  0  0
   55.5280   28.5530   45.2250 O   0  0  0  0  0  0  0  0  0  0  0  0
   57.0730   30.4000   45.0350 C   0  0  0  0  0  0  0  0  0  0  0  0
   57.4030   33.7400   46.4520 C   0  0  0  0  0  0  0  0  0  0  0  0
   58.4140   33.6790   47.6110 C   0  0  0  0  0  0  0  0  0  0  0  0
   61.1680   33.6140   49.0790 C   0  0  0  0  0  0  0  0  0  0  0  0
   60.1650   33.7490   50.4230 S   0  0  0  0  0  0  0  0  0  0  0  0
   61.3150   33.2180   51.5410 C   0  0  0  0  0  0  0  0  0  0  0  0
   62.5020   32.9370   50.8700 C   0  0  0  0  0  0  0  0  0  0  0  0
   62.4110   33.1670   49.4890 C   0  0  0  0  0  0  0  0  0  0  0  0
   63.4220   33.0010   48.5930 N   0  0  0  0  0  0  0  0  0  0  0  0
   64.6550   32.5530   49.0270 O   0  0  0  0  0  0  0  0  0  0  0  0
   58.9449   36.2065   46.5085 H   0  0  0  0  0  0  0  0  0  0  0  0
   60.6092   35.7525   45.9862 H   0  0  0  0  0  0  0  0  0  0  0  0
   58.5014   35.5475   44.3326 H   0  0  0  0  0  0  0  0  0  0  0  0
   59.8755   34.3391   44.3384 H   0  0  0  0  0  0  0  0  0  0  0  0
   59.5679   32.4568   44.2284 H   0  0  0  0  0  0  0  0  0  0  0  0
   59.0104   31.9067   45.8625 H   0  0  0  0  0  0  0  0  0  0  0  0
   58.0291   32.1328   42.2405 H   0  0  0  0  0  0  0  0  0  0  0  0
   56.4482   30.5133   41.1906 H   0  0  0  0  0  0  0  0  0  0  0  0
   55.2624   28.8274   42.5971 H   0  0  0  0  0  0  0  0  0  0  0  0
   57.2501   30.3632   46.1200 H   0  0  0  0  0  0  0  0  0  0  0  0
   56.8585   34.6943   46.5049 H   0  0  0  0  0  0  0  0  0  0  0  0
   56.7171   32.8860   46.5527 H   0  0  0  0  0  0  0  0  0  0  0  0
   57.9769   34.1611   48.4978 H   0  0  0  0  0  0  0  0  0  0  0  0
   58.6444   32.6250   47.8257 H   0  0  0  0  0  0  0  0  0  0  0  0
   61.1522   33.1115   52.6237 H   0  0  0  0  0  0  0  0  0  0  0  0
   63.4128   32.5739   51.3687 H   0  0  0  0  0  0  0  0  0  0  0  0
   65.4430   32.4570   48.3970 H   0  0  0  0  0  0  0  0  0  0  0  0
  1  2  2  0
  2  3  1  0
  3  4  2  0
  4  5  1  0
  5  6  1  0
  6  7  1  0
  7  8  1  0
  8  9  1  0
  9 10  1  0
 10 11  2  0
 11 12  1  0
 12 13  2  0
 13 14  1  0
 14 15  1  0
 14 16  2  0
  8 17  1  0
 17 18  1  0
  4 19  1  0
 19 20  1  0
 20 21  1  0
 21 22  2  0
 22 23  1  0
 23 24  1  0
 24 25  1  0
 24  2  1  0
 18  5  1  0
 23 19  2  0
 16 10  1  0
  6 26  1  0
  6 27  1  0
  7 28  1  0
  7 29  1  0
  9 30  1  0
  9 31  1  0
 11 32  1  0
 12 33  1  0
 13 34  1  0
 16 35  1  0
 17 36  1  0
 17 37  1  0
 18 38  1  0
 18 39  1  0
 21 40  1  0
 22 41  1  0
 25 42  1  0
M  CHG  1  15  -1
M  END
>  <UniqueID>  (60) 
56

>  <SMILES>  (60) 
O=c1nc(N2CCN(Cc3cccc([O-])c3)CC2)c2sccc2n1O

>  <Energy>  (60) 
91.95799173618259

>  <Genealogy>  (60) 
O=c1nc(N2CCN(Cc3cccc([O-])c3)CC2)c2sccc2n1O (protonated)
O=c1nc(N2CCN(Cc3cccc([O-])c3)CC2)c2sccc2n1O (3D coordinates assigned)
O=c1nc(N2CCN(Cc3cccc([O-])c3)CC2)c2sccc2n1O (nonaromatic ring conformer: 91.95799173618259 kcal/mol)

>  <smiles>  (60) 
O=c1nc(N2CCN(Cc3cccc(O)c3)CC2)c2sccc2n1O

>  <score_type>  (60) 
oracle

>  <origin>  (60) 
adg

>  <m_score__min__energy>  (60) 
-11.859999999999999

>  <m_primary>  (60) 
energy

$$$$
60:0
     RDKit          3D

 69 73  0  0  0  0  0  0  0  0999 V2000
   60.5320   28.5250   50.0420 O   0  0  0  0  0  0  0  0  0  0  0  0
   59.6640   28.5880   49.1260 C   0  0  0  0  0  0  0  0  0  0  0  0
   58.6940   29.6420   49.1230 N   0  0  0  0  0  0  0  0  0  0  0  0
   58.6470   30.7530   48.2180 C   0  0  0  0  0  0  0  0  0  0  0  0
   58.2030   30.5550   46.8990 C   0  0  0  0  0  0  0  0  0  0  0  0
   58.0450   31.6340   46.0260 C   0  0  0  0  0  0  0  0  0  0  0  0
   57.4030   31.3860   44.4040 S   0  0  0  0  0  0  0  0  0  0  0  0
   57.6770   32.5950   43.5560 O   0  0  0  0  0  0  0  0  0  0  0  0
   55.9150   31.1890   44.4900 O   0  0  0  0  0  0  0  0  0  0  0  0
   58.1420   29.9680   43.7080 N   0  0  0  0  0  0  0  0  0  0  0  0
   57.2470   28.8120   43.7480 C   0  0  0  0  0  0  0  0  0  0  0  0
   58.1350   27.5760   43.7760 C   0  0  0  0  0  0  0  0  0  0  0  0
   59.5030   28.0670   44.2220 C   0  0  0  0  0  0  0  0  0  0  0  0
   59.3460   29.5670   44.4350 C   0  0  0  0  0  0  0  0  0  0  0  0
   58.3180   32.9270   46.4740 C   0  0  0  0  0  0  0  0  0  0  0  0
   58.7510   33.1430   47.7820 C   0  0  0  0  0  0  0  0  0  0  0  0
   58.9300   32.0680   48.6780 C   0  0  0  0  0  0  0  0  0  0  0  0
   59.4140   32.3270   50.0230 N   0  0  0  0  0  0  0  0  0  0  0  0
   58.6060   32.1280   51.2220 C   0  0  0  0  0  0  0  0  0  0  0  0
   59.4910   32.5120   52.3980 C   0  0  0  0  0  0  0  0  0  0  0  0
   60.6010   33.3700   51.8050 C   0  0  0  0  0  0  0  0  0  0  0  0
   60.6850   32.9680   50.3400 C   0  0  0  0  0  0  0  0  0  0  0  0
   59.5930   27.5270   48.1020 C   0  0  0  0  0  0  0  0  0  0  0  0
   60.7610   27.0990   47.4460 C   0  0  0  0  0  0  0  0  0  0  0  0
   60.6970   26.1120   46.4610 C   0  0  0  0  0  0  0  0  0  0  0  0
   59.4660   25.5530   46.1050 C   0  0  0  0  0  0  0  0  0  0  0  0
   58.2930   25.9740   46.7420 C   0  0  0  0  0  0  0  0  0  0  0  0
   56.7270   25.3610   46.2170 S   0  0  0  0  0  0  0  0  0  0  0  0
   56.1530   24.4510   47.2660 O   0  0  0  0  0  0  0  0  0  0  0  0
   55.7890   26.5190   46.0170 O   0  0  0  0  0  0  0  0  0  0  0  0
   56.9370   24.4820   44.7200 N   0  0  0  0  0  0  0  0  0  0  0  0
   57.7920   23.2880   44.9160 C   0  0  0  0  0  0  0  0  0  0  0  0
   56.9870   21.9780   44.8600 C   0  0  0  0  0  0  0  0  0  0  0  0
   56.2820   21.8120   43.6390 O   0  0  0  0  0  0  0  0  0  0  0  0
   55.7540   23.0210   43.1080 C   0  0  0  0  0  0  0  0  0  0  0  0
   55.6220   24.1620   44.1340 C   0  0  0  0  0  0  0  0  0  0  0  0
   58.3580   26.9530   47.7440 C   0  0  0  0  0  0  0  0  0  0  0  0
   57.9770   29.5367   46.5496 H   0  0  0  0  0  0  0  0  0  0  0  0
   58.3910   30.1770   42.7100 H   0  0  0  0  0  0  0  0  0  0  0  0
   56.6192   28.8490   44.6505 H   0  0  0  0  0  0  0  0  0  0  0  0
   56.5761   28.7991   42.8764 H   0  0  0  0  0  0  0  0  0  0  0  0
   57.7413   26.8361   44.4885 H   0  0  0  0  0  0  0  0  0  0  0  0
   58.1792   27.0836   42.7934 H   0  0  0  0  0  0  0  0  0  0  0  0
   59.8017   27.5746   45.1592 H   0  0  0  0  0  0  0  0  0  0  0  0
   60.2812   27.8391   43.4788 H   0  0  0  0  0  0  0  0  0  0  0  0
   59.2339   29.7886   45.5066 H   0  0  0  0  0  0  0  0  0  0  0  0
   60.2290   30.1139   44.0728 H   0  0  0  0  0  0  0  0  0  0  0  0
   58.1910   33.7805   45.7918 H   0  0  0  0  0  0  0  0  0  0  0  0
   58.9565   34.1691   48.1209 H   0  0  0  0  0  0  0  0  0  0  0  0
   57.7131   32.7697   51.1911 H   0  0  0  0  0  0  0  0  0  0  0  0
   58.2594   31.0872   51.3039 H   0  0  0  0  0  0  0  0  0  0  0  0
   58.9168   33.0850   53.1409 H   0  0  0  0  0  0  0  0  0  0  0  0
   59.8899   31.6274   52.9160 H   0  0  0  0  0  0  0  0  0  0  0  0
   60.3529   34.4377   51.8973 H   0  0  0  0  0  0  0  0  0  0  0  0
   61.5577   33.2178   52.3260 H   0  0  0  0  0  0  0  0  0  0  0  0
   60.8326   33.8563   49.7082 H   0  0  0  0  0  0  0  0  0  0  0  0
   61.5329   32.2916   50.1569 H   0  0  0  0  0  0  0  0  0  0  0  0
   61.7311   27.5448   47.7108 H   0  0  0  0  0  0  0  0  0  0  0  0
   61.6177   25.7731   45.9635 H   0  0  0  0  0  0  0  0  0  0  0  0
   59.4193   24.7809   45.3229 H   0  0  0  0  0  0  0  0  0  0  0  0
   58.5570   23.2672   44.1259 H   0  0  0  0  0  0  0  0  0  0  0  0
   58.2477   23.3606   45.9145 H   0  0  0  0  0  0  0  0  0  0  0  0
   57.6820   21.1340   44.9810 H   0  0  0  0  0  0  0  0  0  0  0  0
   56.2415   22.0151   45.6680 H   0  0  0  0  0  0  0  0  0  0  0  0
   56.4179   23.3605   42.2993 H   0  0  0  0  0  0  0  0  0  0  0  0
   54.7360   22.7927   42.7595 H   0  0  0  0  0  0  0  0  0  0  0  0
   55.2216   25.0555   43.6327 H   0  0  0  0  0  0  0  0  0  0  0  0
   54.9420   23.8422   44.9373 H   0  0  0  0  0  0  0  0  0  0  0  0
   57.4379   27.2747   48.2538 H   0  0  0  0  0  0  0  0  0  0  0  0
  1  2  2  0
  2  3  1  0
  3  4  1  0
  4  5  2  0
  5  6  1  0
  6  7  1  0
  7  8  2  0
  7  9  2  0
  7 10  1  0
 10 11  1  0
 11 12  1  0
 12 13  1  0
 13 14  1  0
  6 15  2  0
 15 16  1  0
 16 17  2  0
 17 18  1  0
 18 19  1  0
 19 20  1  0
 20 21  1  0
 21 22  1  0
  2 23  1  0
 23 24  2  0
 24 25  1  0
 25 26  2  0
 26 27  1  0
 27 28  1  0
 28 29  2  0
 28 30  2  0
 28 31  1  0
 31 32  1  0
 32 33  1  0
 33 34  1  0
 34 35  1  0
 35 36  1  0
 27 37  2  0
 17  4  1  0
 22 18  1  0
 37 23  1  0
 14 10  1  0
 36 31  1  0
  5 38  1  0
 10 39  1  0
 11 40  1  0
 11 41  1  0
 12 42  1  0
 12 43  1  0
 13 44  1  0
 13 45  1  0
 14 46  1  0
 14 47  1  0
 15 48  1  0
 16 49  1  0
 19 50  1  0
 19 51  1  0
 20 52  1  0
 20 53  1  0
 21 54  1  0
 21 55  1  0
 22 56  1  0
 22 57  1  0
 24 58  1  0
 25 59  1  0
 26 60  1  0
 32 61  1  0
 32 62  1  0
 33 63  1  0
 33 64  1  0
 35 65  1  0
 35 66  1  0
 36 67  1  0
 36 68  1  0
 37 69  1  0
M  CHG  2   3  -1  10   1
M  END
>  <UniqueID>  (61) 
57

>  <SMILES>  (61) 
O=C([N-]c1cc(S(=O)(=O)[NH+]2CCCC2)ccc1N1CCCC1)c1cccc(S(=O)(=O)N2CCOCC2)c1

>  <Energy>  (61) 
94.2558359304627

>  <Genealogy>  (61) 
O=C([N-]c1cc(S(=O)(=O)[NH+]2CCCC2)ccc1N1CCCC1)c1cccc(S(=O)(=O)N2CCOCC2)c1 (protonated)
O=C([N-]c1cc(S(=O)(=O)[NH+]2CCCC2)ccc1N1CCCC1)c1cccc(S(=O)(=O)N2CCOCC2)c1 (3D coordinates assigned)
O=C([N-]c1cc(S(=O)(=O)[NH+]2CCCC2)ccc1N1CCCC1)c1cccc(S(=O)(=O)N2CCOCC2)c1 (nonaromatic ring conformer: 94.2558359304627 kcal/mol)

>  <smiles>  (61) 
O=C(Nc1cc(S(=O)(=O)N2CCCC2)ccc1N1CCCC1)c1cccc(S(=O)(=O)N2CCOCC2)c1

>  <score_type>  (61) 
oracle

>  <origin>  (61) 
adg

>  <m_score__min__energy>  (61) 
-11.130000000000001

>  <m_primary>  (61) 
energy

$$$$
61:0
     RDKit          3D

 51 54  0  0  0  0  0  0  0  0999 V2000
   57.5720   24.3090   48.1060 H   0  0  0  0  0  0  0  0  0  0  0  0
   57.0990   23.8140   47.3590 O   0  0  0  0  0  0  0  0  0  0  0  0
   56.0280   24.3990   46.6900 C   0  0  0  0  0  0  0  0  0  0  0  0
   54.8920   23.7500   46.3850 N   0  0  0  0  0  0  0  0  0  0  0  0
   54.1680   24.7020   45.7590 C   0  0  0  0  0  0  0  0  0  0  0  0
   53.0120   24.4900   45.3080 O   0  0  0  0  0  0  0  0  0  0  0  0
   54.7820   25.9010   45.6530 N   0  0  0  0  0  0  0  0  0  0  0  0
   55.9700   25.7010   46.2510 C   0  0  0  0  0  0  0  0  0  0  0  0
   57.0430   26.7090   46.4170 C   0  0  0  0  0  0  0  0  0  0  0  0
   57.9194   26.4115   47.0114 H   0  0  0  0  0  0  0  0  0  0  0  0
   57.0450   27.9550   45.9080 C   0  0  0  0  0  0  0  0  0  0  0  0
   58.0390   28.9190   46.0140 C   0  0  0  0  0  0  0  0  0  0  0  0
   58.9889   28.8247   46.5606 H   0  0  0  0  0  0  0  0  0  0  0  0
   57.6030   30.0230   45.2980 C   0  0  0  0  0  0  0  0  0  0  0  0
   58.4100   31.2400   45.0790 C   0  0  0  0  0  0  0  0  0  0  0  0
   59.5250   31.3860   45.6470 O   0  0  0  0  0  0  0  0  0  0  0  0
   57.8880   32.2900   44.2550 N   0  0  0  0  0  0  0  0  0  0  0  0
   57.4270   33.5660   44.7850 C   0  0  0  0  0  0  0  0  0  0  0  0
   57.3016   34.2834   43.9606 H   0  0  0  0  0  0  0  0  0  0  0  0
   56.4625   33.4280   45.2956 H   0  0  0  0  0  0  0  0  0  0  0  0
   58.4390   34.0890   45.7540 C   0  0  0  0  0  0  0  0  0  0  0  0
   58.4720   33.7030   47.3910 S   0  0  0  0  0  0  0  0  0  0  0  0
   60.0010   34.3410   47.6870 C   0  0  0  0  0  0  0  0  0  0  0  0
   60.7370   34.2450   48.9940 C   0  0  0  0  0  0  0  0  0  0  0  0
   61.5197   35.0177   49.0109 H   0  0  0  0  0  0  0  0  0  0  0  0
   59.9961   34.3858   49.7948 H   0  0  0  0  0  0  0  0  0  0  0  0
   61.3740   32.9270   49.2150 N   0  0  0  0  0  0  0  0  0  0  0  0
   62.6430   32.9540   49.9780 C   0  0  0  0  0  0  0  0  0  0  0  0
   62.7866   33.9674   50.3809 H   0  0  0  0  0  0  0  0  0  0  0  0
   62.5606   32.1992   50.7740 H   0  0  0  0  0  0  0  0  0  0  0  0
   63.8710   32.5880   49.1290 C   0  0  0  0  0  0  0  0  0  0  0  0
   64.7502   33.1287   49.5093 H   0  0  0  0  0  0  0  0  0  0  0  0
   64.0416   31.5032   49.1926 H   0  0  0  0  0  0  0  0  0  0  0  0
   63.6450   32.9550   47.7320 N   0  0  0  0  0  0  0  0  0  0  0  0
   64.5320   32.7830   47.2040 H   0  0  0  0  0  0  0  0  0  0  0  0
   62.5990   32.1050   47.1530 C   0  0  0  0  0  0  0  0  0  0  0  0
   62.2999   32.5260   46.1818 H   0  0  0  0  0  0  0  0  0  0  0  0
   63.0138   31.0920   47.0444 H   0  0  0  0  0  0  0  0  0  0  0  0
   61.3480   32.0060   48.0570 C   0  0  0  0  0  0  0  0  0  0  0  0
   60.4613   32.2383   47.4489 H   0  0  0  0  0  0  0  0  0  0  0  0
   61.3248   30.9833   48.4613 H   0  0  0  0  0  0  0  0  0  0  0  0
   60.5010   34.8740   46.5020 C   0  0  0  0  0  0  0  0  0  0  0  0
   61.4816   35.3667   46.4263 H   0  0  0  0  0  0  0  0  0  0  0  0
   59.6310   34.7200   45.4170 C   0  0  0  0  0  0  0  0  0  0  0  0
   59.8667   35.0639   44.3991 H   0  0  0  0  0  0  0  0  0  0  0  0
   56.3500   29.6850   44.7910 C   0  0  0  0  0  0  0  0  0  0  0  0
   55.5450   30.4450   44.0410 C   0  0  0  0  0  0  0  0  0  0  0  0
   55.8555   31.4614   43.7571 H   0  0  0  0  0  0  0  0  0  0  0  0
   54.5723   30.0538   43.7080 H   0  0  0  0  0  0  0  0  0  0  0  0
   56.0220   28.4330   45.1690 N   0  0  0  0  0  0  0  0  0  0  0  0
   55.1430   27.9220   44.9240 H   0  0  0  0  0  0  0  0  0  0  0  0
  1  2  1  0
  2  3  1  0
  3  4  1  0
  4  5  1  0
  5  6  2  0
  5  7  1  0
  7  8  1  0
  8  9  1  0
  9 10  1  0
  9 11  2  0
 11 12  1  0
 12 13  1  0
 12 14  2  0
 14 15  1  0
 15 16  2  0
 15 17  1  0
 17 18  1  0
 18 19  1  0
 18 20  1  0
 18 21  1  0
 21 22  1  0
 22 23  1  0
 23 24  1  0
 24 25  1  0
 24 26  1  0
 24 27  1  0
 27 28  1  0
 28 29  1  0
 28 30  1  0
 28 31  1  0
 31 32  1  0
 31 33  1  0
 31 34  1  0
 34 35  1  0
 34 36  1  0
 36 37  1  0
 36 38  1  0
 36 39  1  0
 39 40  1  0
 39 41  1  0
 23 42  2  0
 42 43  1  0
 42 44  1  0
 44 45  1  0
 14 46  1  0
 46 47  2  0
 47 48  1  0
 47 49  1  0
 46 50  1  0
 50 51  1  0
  8  3  2  0
 50 11  1  0
 44 21  2  0
 39 27  1  0
M  CHG  3   4  -1   7  -1  17  -1
M  END
>  <UniqueID>  (62) 
58

>  <SMILES>  (62) 
C=c1[nH]/c(=C/c2[n-]c(=O)[n-]c2O)cc1C(=O)[N-]Cc1ccc(CN2CCNCC2)s1

>  <Energy>  (62) 
145.59801813675108

>  <Genealogy>  (62) 
C=c1[nH]c(=Cc2[n-]c(=O)[n-]c2O)cc1C(=O)[N-]Cc1ccc(CN2CCNCC2)s1 (protonated)
C=c1[nH]/c(=C/c2[n-]c(=O)[n-]c2O)cc1C(=O)[N-]Cc1ccc(CN2CCNCC2)s1 (cis-trans isomerization)
C=c1[nH]/c(=C/c2[n-]c(=O)[n-]c2O)cc1C(=O)[N-]Cc1ccc(CN2CCNCC2)s1 (3D coordinates assigned)
C=c1[nH]/c(=C/c2[n-]c(=O)[n-]c2O)cc1C(=O)[N-]Cc1ccc(CN2CCNCC2)s1 (nonaromatic ring conformer: 145.59801813675108 kcal/mol)

>  <smiles>  (62) 
C=c1[nH]c(=Cc2[nH]c(=O)[nH]c2O)cc1C(=O)NCc1ccc(CN2CCNCC2)s1

>  <score_type>  (62) 
oracle

>  <origin>  (62) 
adg

>  <m_score__min__energy>  (62) 
-15.199999999999999

>  <m_primary>  (62) 
energy

$$$$
62:0
     RDKit          3D

 49 51  0  0  0  0  0  0  0  0999 V2000
   56.5260   22.2320   41.3760 H   0  0  0  0  0  0  0  0  0  0  0  0
   56.0930   21.8420   42.2420 N   0  0  0  0  0  0  0  0  0  0  0  0
   56.2200   22.4310   43.3870 C   0  0  0  0  0  0  0  0  0  0  0  0
   55.1200   22.8040   44.0880 N   0  0  0  0  0  0  0  0  0  0  0  0
   55.1950   23.4170   45.2980 C   0  0  0  0  0  0  0  0  0  0  0  0
   53.9000   23.7990   45.9610 C   0  0  0  0  0  0  0  0  0  0  0  0
   54.0228   23.7628   47.0535 H   0  0  0  0  0  0  0  0  0  0  0  0
   53.6192   24.8182   45.6572 H   0  0  0  0  0  0  0  0  0  0  0  0
   53.1110   23.0953   45.6572 H   0  0  0  0  0  0  0  0  0  0  0  0
   56.4640   23.6530   45.8950 C   0  0  0  0  0  0  0  0  0  0  0  0
   56.5670   24.2950   47.2720 C   0  0  0  0  0  0  0  0  0  0  0  0
   55.6170   24.1514   47.8075 H   0  0  0  0  0  0  0  0  0  0  0  0
   57.3943   23.8190   47.8189 H   0  0  0  0  0  0  0  0  0  0  0  0
   56.8430   25.7250   47.1650 N   0  0  0  0  0  0  0  0  0  0  0  0
   58.1360   26.3410   47.1830 C   0  0  0  0  0  0  0  0  0  0  0  0
   58.8520   26.2090   48.2100 O   0  0  0  0  0  0  0  0  0  0  0  0
   58.6590   27.1490   46.0300 C   0  0  0  0  0  0  0  0  0  0  0  0
   59.6089   27.6181   46.3260 H   0  0  0  0  0  0  0  0  0  0  0  0
   58.8015   26.4716   45.1751 H   0  0  0  0  0  0  0  0  0  0  0  0
   57.6930   28.2250   45.6170 C   0  0  0  0  0  0  0  0  0  0  0  0
   56.4330   27.9680   45.2200 N   0  0  0  0  0  0  0  0  0  0  0  0
   55.9480   29.1820   44.9000 C   0  0  0  0  0  0  0  0  0  0  0  0
   54.7730   29.3550   44.4830 O   0  0  0  0  0  0  0  0  0  0  0  0
   56.8190   30.1960   45.0570 N   0  0  0  0  0  0  0  0  0  0  0  0
   57.9290   29.5870   45.5130 C   0  0  0  0  0  0  0  0  0  0  0  0
   59.1980   30.3300   45.8280 C   0  0  0  0  0  0  0  0  0  0  0  0
   59.9858   29.6018   46.0711 H   0  0  0  0  0  0  0  0  0  0  0  0
   59.4711   30.9288   44.9466 H   0  0  0  0  0  0  0  0  0  0  0  0
   59.0200   31.2850   47.0170 C   0  0  0  0  0  0  0  0  0  0  0  0
   58.0122   31.1463   47.4354 H   0  0  0  0  0  0  0  0  0  0  0  0
   59.7966   31.0495   47.7596 H   0  0  0  0  0  0  0  0  0  0  0  0
   59.1850   32.7290   46.6150 C   0  0  0  0  0  0  0  0  0  0  0  0
   59.8190   33.6400   47.4780 C   0  0  0  0  0  0  0  0  0  0  0  0
   60.1804   33.3027   48.4606 H   0  0  0  0  0  0  0  0  0  0  0  0
   59.9920   34.9720   47.0930 C   0  0  0  0  0  0  0  0  0  0  0  0
   60.4855   35.6808   47.7741 H   0  0  0  0  0  0  0  0  0  0  0  0
   59.5390   35.4050   45.8440 C   0  0  0  0  0  0  0  0  0  0  0  0
   59.6751   36.4543   45.5431 H   0  0  0  0  0  0  0  0  0  0  0  0
   58.9130   34.5050   44.9770 C   0  0  0  0  0  0  0  0  0  0  0  0
   58.5584   34.8462   43.9932 H   0  0  0  0  0  0  0  0  0  0  0  0
   58.7370   33.1710   45.3590 C   0  0  0  0  0  0  0  0  0  0  0  0
   58.2458   32.4651   44.6731 H   0  0  0  0  0  0  0  0  0  0  0  0
   57.6260   23.3340   45.1400 C   0  0  0  0  0  0  0  0  0  0  0  0
   59.0170   23.6560   45.6230 C   0  0  0  0  0  0  0  0  0  0  0  0
   59.0316   23.6594   46.7229 H   0  0  0  0  0  0  0  0  0  0  0  0
   59.7198   22.8968   45.2493 H   0  0  0  0  0  0  0  0  0  0  0  0
   59.3147   24.6468   45.2493 H   0  0  0  0  0  0  0  0  0  0  0  0
   57.4880   22.6980   43.8960 C   0  0  0  0  0  0  0  0  0  0  0  0
   58.3821   22.4106   43.3233 H   0  0  0  0  0  0  0  0  0  0  0  0
  1  2  1  0
  2  3  2  0
  3  4  1  0
  4  5  1  0
  5  6  1  0
  6  7  1  0
  6  8  1  0
  6  9  1  0
  5 10  2  0
 10 11  1  0
 11 12  1  0
 11 13  1  0
 11 14  1  0
 14 15  1  0
 15 16  2  0
 15 17  1  0
 17 18  1  0
 17 19  1  0
 17 20  1  0
 20 21  1  0
 21 22  1  0
 22 23  2  0
 22 24  1  0
 24 25  1  0
 25 26  1  0
 26 27  1  0
 26 28  1  0
 26 29  1  0
 29 30  1  0
 29 31  1  0
 29 32  1  0
 32 33  2  0
 33 34  1  0
 33 35  1  0
 35 36  1  0
 35 37  2  0
 37 38  1  0
 37 39  1  0
 39 40  1  0
 39 41  2  0
 41 42  1  0
 10 43  1  0
 43 44  1  0
 44 45  1  0
 44 46  1  0
 44 47  1  0
 43 48  2  0
 48 49  1  0
 48  3  1  0
 25 20  2  0
 41 32  1  0
M  CHG  4   4  -1  14  -1  21  -1  24  -1
M  END
>  <UniqueID>  (63) 
59

>  <SMILES>  (63) 
[H]/N=c1/cc(C)c(C[N-]C(=O)Cc2[n-]c(=O)[n-]c2CCc2ccccc2)c(C)[n-]1

>  <Energy>  (63) 
73.37304331184987

>  <Genealogy>  (63) 
Cc1cc(=N)[n-]c(C)c1C[N-]C(=O)Cc1[n-]c(=O)[n-]c1CCc1ccccc1 (protonated)
[H]/N=c1/cc(C)c(C[N-]C(=O)Cc2[n-]c(=O)[n-]c2CCc2ccccc2)c(C)[n-]1 (cis-trans isomerization)
[H]/N=c1/cc(C)c(C[N-]C(=O)Cc2[n-]c(=O)[n-]c2CCc2ccccc2)c(C)[n-]1 (3D coordinates assigned)
[H]/N=c1/cc(C)c(C[N-]C(=O)Cc2[n-]c(=O)[n-]c2CCc2ccccc2)c(C)[n-]1 (optimized conformer: 73.37304331184987 kcal/mol)

>  <smiles>  (63) 
Cc1cc(=N)[nH]c(C)c1CNC(=O)Cc1[nH]c(=O)[nH]c1CCc1ccccc1

>  <score_type>  (63) 
oracle

>  <origin>  (63) 
adg

>  <m_score__min__energy>  (63) 
-15.68

>  <m_primary>  (63) 
energy

$$$$
63:0
     RDKit          3D

 67 71  0  0  0  0  0  0  0  0999 V2000
   54.6660   29.3460   45.7680 H   0  0  0  0  0  0  0  0  0  0  0  0
   55.1630   29.2390   44.8560 N   0  0  0  0  0  0  0  0  0  0  0  0
   56.5870   29.2750   44.7910 C   0  0  0  0  0  0  0  0  0  0  0  0
   57.2170   28.2170   44.5160 O   0  0  0  0  0  0  0  0  0  0  0  0
   57.3360   30.5260   45.0470 C   0  0  0  0  0  0  0  0  0  0  0  0
   57.1650   31.6960   44.3010 C   0  0  0  0  0  0  0  0  0  0  0  0
   56.4685   31.8614   43.4658 H   0  0  0  0  0  0  0  0  0  0  0  0
   58.0570   32.5960   44.8380 C   0  0  0  0  0  0  0  0  0  0  0  0
   58.3590   33.9090   44.5150 C   0  0  0  0  0  0  0  0  0  0  0  0
   57.8333   34.4299   43.7012 H   0  0  0  0  0  0  0  0  0  0  0  0
   59.3310   34.5340   45.2410 N   0  0  0  0  0  0  0  0  0  0  0  0
   60.0000   33.8930   46.2550 C   0  0  0  0  0  0  0  0  0  0  0  0
   60.9200   34.5000   46.9470 N   0  0  0  0  0  0  0  0  0  0  0  0
   61.9520   33.8940   47.7460 C   0  0  0  0  0  0  0  0  0  0  0  0
   62.7830   32.8780   47.2430 C   0  0  0  0  0  0  0  0  0  0  0  0
   62.6728   32.5470   46.1998 H   0  0  0  0  0  0  0  0  0  0  0  0
   63.7460   32.2880   48.0600 C   0  0  0  0  0  0  0  0  0  0  0  0
   64.4119   31.5155   47.6478 H   0  0  0  0  0  0  0  0  0  0  0  0
   63.8730   32.6710   49.4030 C   0  0  0  0  0  0  0  0  0  0  0  0
   64.8860   31.9890   50.2290 C   0  0  0  0  0  0  0  0  0  0  0  0
   66.2100   32.4480   50.2440 C   0  0  0  0  0  0  0  0  0  0  0  0
   66.4933   33.3296   49.6502 H   0  0  0  0  0  0  0  0  0  0  0  0
   67.1700   31.7860   51.0130 C   0  0  0  0  0  0  0  0  0  0  0  0
   68.2043   32.1594   51.0402 H   0  0  0  0  0  0  0  0  0  0  0  0
   66.8190   30.6500   51.7480 C   0  0  0  0  0  0  0  0  0  0  0  0
   67.5769   30.1350   52.3566 H   0  0  0  0  0  0  0  0  0  0  0  0
   65.5020   30.1640   51.7120 C   0  0  0  0  0  0  0  0  0  0  0  0
   65.0760   28.6740   52.5590 S   0  0  0  0  0  0  0  0  0  0  0  0
   65.4370   27.4950   51.6970 O   0  0  0  0  0  0  0  0  0  0  0  0
   65.8700   28.5800   53.8340 O   0  0  0  0  0  0  0  0  0  0  0  0
   63.3660   28.6200   52.9310 N   0  0  0  0  0  0  0  0  0  0  0  0
   62.5710   28.1070   51.7890 C   0  0  0  0  0  0  0  0  0  0  0  0
   63.2452   27.5769   51.1002 H   0  0  0  0  0  0  0  0  0  0  0  0
   61.7979   27.4380   52.1949 H   0  0  0  0  0  0  0  0  0  0  0  0
   61.8560   29.2300   51.0130 C   0  0  0  0  0  0  0  0  0  0  0  0
   62.6150   29.8910   50.5691 H   0  0  0  0  0  0  0  0  0  0  0  0
   61.2307   28.7580   50.2409 H   0  0  0  0  0  0  0  0  0  0  0  0
   60.9670   30.0410   51.8810 N   0  0  0  0  0  0  0  0  0  0  0  0
   59.5640   29.6140   51.7610 C   0  0  0  0  0  0  0  0  0  0  0  0
   59.1335   29.4830   52.7647 H   0  0  0  0  0  0  0  0  0  0  0  0
   58.9933   30.3791   51.2143 H   0  0  0  0  0  0  0  0  0  0  0  0
   59.5163   28.6607   51.2143 H   0  0  0  0  0  0  0  0  0  0  0  0
   61.3830   30.0640   53.3050 C   0  0  0  0  0  0  0  0  0  0  0  0
   61.0661   31.0160   53.7558 H   0  0  0  0  0  0  0  0  0  0  0  0
   60.9102   29.2142   53.8191 H   0  0  0  0  0  0  0  0  0  0  0  0
   62.9040   29.9280   53.4420 C   0  0  0  0  0  0  0  0  0  0  0  0
   63.3903   30.7307   52.8682 H   0  0  0  0  0  0  0  0  0  0  0  0
   63.1684   30.0019   54.5072 H   0  0  0  0  0  0  0  0  0  0  0  0
   64.5350   30.8460   50.9610 C   0  0  0  0  0  0  0  0  0  0  0  0
   63.4967   30.4831   50.9458 H   0  0  0  0  0  0  0  0  0  0  0  0
   63.0130   33.6630   49.9380 C   0  0  0  0  0  0  0  0  0  0  0  0
   63.1270   34.1030   51.3110 N   0  0  0  0  0  0  0  0  0  0  0  0
   64.0900   33.9160   51.6720 H   0  0  0  0  0  0  0  0  0  0  0  0
   62.9670   35.1330   51.3880 H   0  0  0  0  0  0  0  0  0  0  0  0
   62.1650   33.3950   52.1560 C   0  0  0  0  0  0  0  0  0  0  0  0
   62.4063   33.5726   53.2144 H   0  0  0  0  0  0  0  0  0  0  0  0
   61.1504   33.7634   51.9444 H   0  0  0  0  0  0  0  0  0  0  0  0
   62.2151   32.3167   51.9444 H   0  0  0  0  0  0  0  0  0  0  0  0
   62.0620   34.2670   49.0930 C   0  0  0  0  0  0  0  0  0  0  0  0
   61.3952   35.0434   49.4960 H   0  0  0  0  0  0  0  0  0  0  0  0
   59.6800   32.6010   46.5700 N   0  0  0  0  0  0  0  0  0  0  0  0
   58.7130   31.9750   45.8540 C   0  0  0  0  0  0  0  0  0  0  0  0
   58.2910   30.7060   46.0080 N   0  0  0  0  0  0  0  0  0  0  0  0
   58.7880   29.7430   46.9870 C   0  0  0  0  0  0  0  0  0  0  0  0
   58.5939   30.1190   48.0024 H   0  0  0  0  0  0  0  0  0  0  0  0
   58.2741   28.7804   46.8480 H   0  0  0  0  0  0  0  0  0  0  0  0
   59.8703   29.6042   46.8480 H   0  0  0  0  0  0  0  0  0  0  0  0
  1  2  1  0
  2  3  1  0
  3  4  2  0
  3  5  1  0
  5  6  2  0
  6  7  1  0
  6  8  1  0
  8  9  2  0
  9 10  1  0
  9 11  1  0
 11 12  1  0
 12 13  2  0
 13 14  1  0
 14 15  2  0
 15 16  1  0
 15 17  1  0
 17 18  1  0
 17 19  2  0
 19 20  1  0
 20 21  2  0
 21 22  1  0
 21 23  1  0
 23 24  1  0
 23 25  2  0
 25 26  1  0
 25 27  1  0
 27 28  1  0
 28 29  2  0
 28 30  2  0
 28 31  1  0
 31 32  1  0
 32 33  1  0
 32 34  1  0
 32 35  1  0
 35 36  1  0
 35 37  1  0
 35 38  1  0
 38 39  1  0
 39 40  1  0
 39 41  1  0
 39 42  1  0
 38 43  1  0
 43 44  1  0
 43 45  1  0
 43 46  1  0
 46 47  1  0
 46 48  1  0
 27 49  2  0
 49 50  1  0
 19 51  1  0
 51 52  1  0
 52 53  1  0
 52 54  1  0
 52 55  1  0
 55 56  1  0
 55 57  1  0
 55 58  1  0
 51 59  2  0
 59 60  1  0
 12 61  1  0
 61 62  2  0
 62 63  1  0
 63 64  1  0
 64 65  1  0
 64 66  1  0
 64 67  1  0
 63  5  1  0
 62  8  1  0
 59 14  1  0
 49 20  1  0
 46 31  1  0
M  CHG  3   2  -1  11  -1  52   1
M  END
>  <UniqueID>  (64) 
60

>  <SMILES>  (64) 
C[NH2+]c1cc(/N=c2/nc3c(c[n-]2)cc(C([NH-])=O)n3C)ccc1-c1cccc(S(=O)(=O)N2CCN(C)CC2)c1

>  <Energy>  (64) 
132.9525296329694

>  <Genealogy>  (64) 
C[NH2+]c1cc(N=c2nc3c(c[n-]2)cc(C([NH-])=O)n3C)ccc1-c1cccc(S(=O)(=O)N2CCN(C)CC2)c1 (protonated)
C[NH2+]c1cc(/N=c2/nc3c(c[n-]2)cc(C([NH-])=O)n3C)ccc1-c1cccc(S(=O)(=O)N2CCN(C)CC2)c1 (cis-trans isomerization)
C[NH2+]c1cc(/N=c2/nc3c(c[n-]2)cc(C([NH-])=O)n3C)ccc1-c1cccc(S(=O)(=O)N2CCN(C)CC2)c1 (3D coordinates assigned)
C[NH2+]c1cc(/N=c2/nc3c(c[n-]2)cc(C([NH-])=O)n3C)ccc1-c1cccc(S(=O)(=O)N2CCN(C)CC2)c1 (nonaromatic ring conformer: 132.9525296329694 kcal/mol)

>  <smiles>  (64) 
CNc1cc(N=c2nc3c(c[nH]2)cc(C(N)=O)n3C)ccc1-c1cccc(S(=O)(=O)N2CCN(C)CC2)c1

>  <score_type>  (64) 
oracle

>  <origin>  (64) 
adg

>  <m_score__min__energy>  (64) 
-12.48

>  <m_primary>  (64) 
energy

$$$$
64:0
     RDKit          3D

 25 26  0  0  0  0  0  0  0  0999 V2000
   56.3940   31.7530   42.8440 H   0  0  0  0  0  0  0  0  0  0  0  0
   57.2730   31.2760   43.1460 N   0  0  0  0  0  0  0  0  0  0  0  0
   57.2500   30.2560   43.9450 C   0  0  0  0  0  0  0  0  0  0  0  0
   58.4130   29.6660   44.3330 N   0  0  0  0  0  0  0  0  0  0  0  0
   58.4290   28.5960   45.1700 C   0  0  0  0  0  0  0  0  0  0  0  0
   59.6600   28.0410   45.5210 O   0  0  0  0  0  0  0  0  0  0  0  0
   59.8040   27.0460   45.6400 H   0  0  0  0  0  0  0  0  0  0  0  0
   57.2070   28.0820   45.6550 C   0  0  0  0  0  0  0  0  0  0  0  0
   57.1690   26.8940   46.5870 C   0  0  0  0  0  0  0  0  0  0  0  0
   58.1782   26.7340   46.9943 H   0  0  0  0  0  0  0  0  0  0  0  0
   56.4404   27.1177   47.3802 H   0  0  0  0  0  0  0  0  0  0  0  0
   56.7190   25.6260   45.8990 C   0  0  0  0  0  0  0  0  0  0  0  0
   57.6740   24.6830   45.4780 C   0  0  0  0  0  0  0  0  0  0  0  0
   58.7417   24.8604   45.6740 H   0  0  0  0  0  0  0  0  0  0  0  0
   57.2730   23.5220   44.8120 C   0  0  0  0  0  0  0  0  0  0  0  0
   58.0247   22.7849   44.4931 H   0  0  0  0  0  0  0  0  0  0  0  0
   55.9190   23.2950   44.5500 C   0  0  0  0  0  0  0  0  0  0  0  0
   55.5230   22.1400   43.8880 O   0  0  0  0  0  0  0  0  0  0  0  0
   54.9630   24.2330   44.9520 C   0  0  0  0  0  0  0  0  0  0  0  0
   53.8978   24.0538   44.7440 H   0  0  0  0  0  0  0  0  0  0  0  0
   55.3570   25.3990   45.6180 C   0  0  0  0  0  0  0  0  0  0  0  0
   54.3920   26.3270   45.9950 O   0  0  0  0  0  0  0  0  0  0  0  0
   56.0470   28.6790   45.2570 N   0  0  0  0  0  0  0  0  0  0  0  0
   56.0360   29.7470   44.4200 C   0  0  0  0  0  0  0  0  0  0  0  0
   54.9380   30.2660   44.0820 O   0  0  0  0  0  0  0  0  0  0  0  0
  1  2  1  0
  2  3  2  0
  3  4  1  0
  4  5  1  0
  5  6  1  0
  6  7  1  0
  5  8  2  0
  8  9  1  0
  9 10  1  0
  9 11  1  0
  9 12  1  0
 12 13  2  0
 13 14  1  0
 13 15  1  0
 15 16  1  0
 15 17  2  0
 17 18  1  0
 17 19  1  0
 19 20  1  0
 19 21  2  0
 21 22  1  0
  8 23  1  0
 23 24  1  0
 24 25  2  0
 24  3  1  0
 21 12  1  0
M  CHG  4   4  -1  18  -1  22  -1  23  -1
M  END
>  <UniqueID>  (65) 
61

>  <SMILES>  (65) 
[H]/N=c1\[n-]c(O)c(Cc2ccc([O-])cc2[O-])[n-]c1=O

>  <Energy>  (65) 
30.200917979149924

>  <Genealogy>  (65) 
N=c1[n-]c(O)c(Cc2ccc([O-])cc2[O-])[n-]c1=O (protonated)
[H]/N=c1\[n-]c(O)c(Cc2ccc([O-])cc2[O-])[n-]c1=O (cis-trans isomerization)
[H]/N=c1\[n-]c(O)c(Cc2ccc([O-])cc2[O-])[n-]c1=O (3D coordinates assigned)
[H]/N=c1\[n-]c(O)c(Cc2ccc([O-])cc2[O-])[n-]c1=O (optimized conformer: 30.200917979149924 kcal/mol)

>  <smiles>  (65) 
N=c1[nH]c(O)c(Cc2ccc(O)cc2O)[nH]c1=O

>  <score_type>  (65) 
oracle

>  <origin>  (65) 
adg

>  <m_score__min__energy>  (65) 
-13.83

>  <m_primary>  (65) 
energy

$$$$
65:0
     RDKit          3D

 39 41  0  0  0  0  0  0  0  0999 V2000
   59.3360   35.3350   47.0780 C   0  0  0  0  0  0  0  0  0  0  0  0
   59.2210   33.9570   46.4960 C   0  0  0  0  0  0  0  0  0  0  0  0
   59.8370   32.8680   47.1290 C   0  0  0  0  0  0  0  0  0  0  0  0
   59.7610   31.5900   46.5670 C   0  0  0  0  0  0  0  0  0  0  0  0
   59.0870   31.3870   45.3500 C   0  0  0  0  0  0  0  0  0  0  0  0
   58.9740   30.0790   44.7640 N   0  0  0  0  0  0  0  0  0  0  0  0
   57.9250   29.1440   45.0700 C   0  0  0  0  0  0  0  0  0  0  0  0
   58.2520   27.8990   45.6160 C   0  0  0  0  0  0  0  0  0  0  0  0
   57.2490   26.9710   45.9320 C   0  0  0  0  0  0  0  0  0  0  0  0
   57.6270   25.6110   46.4680 C   0  0  0  0  0  0  0  0  0  0  0  0
   57.2030   24.5250   45.5090 C   0  0  0  0  0  0  0  0  0  0  0  0
   56.8890   24.8550   44.1780 C   0  0  0  0  0  0  0  0  0  0  0  0
   56.4600   23.8670   43.2860 C   0  0  0  0  0  0  0  0  0  0  0  0
   56.3370   22.5430   43.7140 C   0  0  0  0  0  0  0  0  0  0  0  0
   55.9100   21.5630   42.8250 O   0  0  0  0  0  0  0  0  0  0  0  0
   56.6410   22.2050   45.0350 C   0  0  0  0  0  0  0  0  0  0  0  0
   57.0710   23.1870   45.9340 C   0  0  0  0  0  0  0  0  0  0  0  0
   57.3660   22.8240   47.2430 O   0  0  0  0  0  0  0  0  0  0  0  0
   55.9080   27.3310   45.7050 C   0  0  0  0  0  0  0  0  0  0  0  0
   54.8730   26.4500   46.0000 O   0  0  0  0  0  0  0  0  0  0  0  0
   55.6080   28.5570   45.2030 N   0  0  0  0  0  0  0  0  0  0  0  0
   56.5680   29.4670   44.8910 C   0  0  0  0  0  0  0  0  0  0  0  0
   56.2270   30.6000   44.4600 O   0  0  0  0  0  0  0  0  0  0  0  0
   58.4700   32.4790   44.7210 C   0  0  0  0  0  0  0  0  0  0  0  0
   58.5460   33.7570   45.2820 C   0  0  0  0  0  0  0  0  0  0  0  0
   59.3306   35.2709   48.1761 H   0  0  0  0  0  0  0  0  0  0  0  0
   60.2759   35.7976   46.7423 H   0  0  0  0  0  0  0  0  0  0  0  0
   58.4858   35.9469   46.7423 H   0  0  0  0  0  0  0  0  0  0  0  0
   60.3825   33.0198   48.0720 H   0  0  0  0  0  0  0  0  0  0  0  0
   60.2314   30.7383   47.0801 H   0  0  0  0  0  0  0  0  0  0  0  0
   59.6540   29.8150   44.0150 H   0  0  0  0  0  0  0  0  0  0  0  0
   59.3064   27.6449   45.7995 H   0  0  0  0  0  0  0  0  0  0  0  0
   58.7175   25.5668   46.6049 H   0  0  0  0  0  0  0  0  0  0  0  0
   57.1160   25.4543   47.4294 H   0  0  0  0  0  0  0  0  0  0  0  0
   56.9815   25.8966   43.8367 H   0  0  0  0  0  0  0  0  0  0  0  0
   56.2191   24.1328   42.2461 H   0  0  0  0  0  0  0  0  0  0  0  0
   56.5418   21.1619   45.3699 H   0  0  0  0  0  0  0  0  0  0  0  0
   57.9222   32.3282   43.7791 H   0  0  0  0  0  0  0  0  0  0  0  0
   58.0750   34.6091   44.7700 H   0  0  0  0  0  0  0  0  0  0  0  0
  1  2  1  0
  2  3  2  0
  3  4  1  0
  4  5  2  0
  5  6  1  0
  6  7  1  0
  7  8  2  0
  8  9  1  0
  9 10  1  0
 10 11  1  0
 11 12  2  0
 12 13  1  0
 13 14  2  0
 14 15  1  0
 14 16  1  0
 16 17  2  0
 17 18  1  0
  9 19  2  0
 19 20  1  0
 19 21  1  0
 21 22  1  0
 22 23  2  0
  5 24  1  0
 24 25  2  0
 25  2  1  0
 22  7  1  0
 17 11  1  0
  1 26  1  0
  1 27  1  0
  1 28  1  0
  3 29  1  0
  4 30  1  0
  6 31  1  0
  8 32  1  0
 10 33  1  0
 10 34  1  0
 12 35  1  0
 13 36  1  0
 16 37  1  0
 24 38  1  0
 25 39  1  0
M  CHG  4  15  -1  18  -1  20  -1  21  -1
M  END
>  <UniqueID>  (66) 
62

>  <SMILES>  (66) 
Cc1ccc(Nc2cc(Cc3ccc([O-])cc3[O-])c([O-])[n-]c2=O)cc1

>  <Energy>  (66) 
49.2787563623554

>  <Genealogy>  (66) 
Cc1ccc(Nc2cc(Cc3ccc([O-])cc3[O-])c([O-])[n-]c2=O)cc1 (protonated)
Cc1ccc(Nc2cc(Cc3ccc([O-])cc3[O-])c([O-])[n-]c2=O)cc1 (3D coordinates assigned)
Cc1ccc(Nc2cc(Cc3ccc([O-])cc3[O-])c([O-])[n-]c2=O)cc1 (optimized conformer: 49.2787563623554 kcal/mol)

>  <smiles>  (66) 
Cc1ccc(Nc2cc(Cc3ccc(O)cc3O)c(O)[nH]c2=O)cc1

>  <score_type>  (66) 
oracle

>  <origin>  (66) 
adg

>  <m_score__min__energy>  (66) 
-18.02

>  <m_primary>  (66) 
energy

$$$$
66:0
     RDKit          3D

 73 77  0  0  0  0  0  0  0  0999 V2000
   59.3290   34.2550   45.9810 C   0  0  0  0  0  0  0  0  0  0  0  0
   58.1650   33.8030   46.8560 C   0  0  0  0  0  0  0  0  0  0  0  0
   58.4830   32.4810   47.5650 C   0  0  0  0  0  0  0  0  0  0  0  0
   58.7990   32.7290   49.0150 C   0  0  0  0  0  0  0  0  0  0  0  0
   59.6730   33.7650   49.3780 C   0  0  0  0  0  0  0  0  0  0  0  0
   59.9160   34.0420   50.7240 C   0  0  0  0  0  0  0  0  0  0  0  0
   59.2820   33.2940   51.7250 C   0  0  0  0  0  0  0  0  0  0  0  0
   59.5280   33.6990   53.4200 S   0  0  0  0  0  0  0  0  0  0  0  0
   58.5520   32.9310   54.2670 O   0  0  0  0  0  0  0  0  0  0  0  0
   59.2670   35.1670   53.6090 O   0  0  0  0  0  0  0  0  0  0  0  0
   61.1430   33.3440   53.9470 N   0  0  0  0  0  0  0  0  0  0  0  0
   62.3230   33.7480   53.2440 C   0  0  0  0  0  0  0  0  0  0  0  0
   63.2790   34.5840   53.8400 C   0  0  0  0  0  0  0  0  0  0  0  0
   64.4370   34.9380   53.1430 C   0  0  0  0  0  0  0  0  0  0  0  0
   64.6610   34.4350   51.8590 C   0  0  0  0  0  0  0  0  0  0  0  0
   63.7410   33.5580   51.2700 C   0  0  0  0  0  0  0  0  0  0  0  0
   64.0080   33.0700   49.9820 O   0  0  0  0  0  0  0  0  0  0  0  0
   63.1220   32.3210   49.1970 C   0  0  0  0  0  0  0  0  0  0  0  0
   62.8420   32.6650   47.8630 C   0  0  0  0  0  0  0  0  0  0  0  0
   61.9640   31.8770   47.1200 C   0  0  0  0  0  0  0  0  0  0  0  0
   61.3500   30.7610   47.7080 C   0  0  0  0  0  0  0  0  0  0  0  0
   60.4360   29.9360   46.9710 N   0  0  0  0  0  0  0  0  0  0  0  0
   59.3110   29.2780   47.5790 C   0  0  0  0  0  0  0  0  0  0  0  0
   58.9320   29.6120   48.7350 O   0  0  0  0  0  0  0  0  0  0  0  0
   58.5650   28.1860   46.8550 C   0  0  0  0  0  0  0  0  0  0  0  0
   58.8020   28.2330   45.3350 C   0  0  0  0  0  0  0  0  0  0  0  0
   57.8600   27.2410   44.6310 C   0  0  0  0  0  0  0  0  0  0  0  0
   57.6770   26.0160   45.4260 N   0  0  0  0  0  0  0  0  0  0  0  0
   56.5660   25.1460   45.1290 C   0  0  0  0  0  0  0  0  0  0  0  0
   56.6390   24.2070   44.0860 C   0  0  0  0  0  0  0  0  0  0  0  0
   55.5450   23.3790   43.8310 C   0  0  0  0  0  0  0  0  0  0  0  0
   54.3970   23.4770   44.6200 C   0  0  0  0  0  0  0  0  0  0  0  0
   54.3600   24.4160   45.6530 C   0  0  0  0  0  0  0  0  0  0  0  0
   55.4350   25.2170   45.8850 N   0  0  0  0  0  0  0  0  0  0  0  0
   58.6970   25.6520   46.4220 C   0  0  0  0  0  0  0  0  0  0  0  0
   58.9130   26.7940   47.4340 C   0  0  0  0  0  0  0  0  0  0  0  0
   61.6090   30.4870   49.0570 C   0  0  0  0  0  0  0  0  0  0  0  0
   62.4830   31.2580   49.7590 N   0  0  0  0  0  0  0  0  0  0  0  0
   62.5630   33.2270   51.9680 C   0  0  0  0  0  0  0  0  0  0  0  0
   58.4080   32.2580   51.3660 C   0  0  0  0  0  0  0  0  0  0  0  0
   58.1650   31.9800   50.0170 C   0  0  0  0  0  0  0  0  0  0  0  0
   60.1637   34.5791   46.6199 H   0  0  0  0  0  0  0  0  0  0  0  0
   59.6566   33.4187   45.3459 H   0  0  0  0  0  0  0  0  0  0  0  0
   59.0064   35.0932   45.3459 H   0  0  0  0  0  0  0  0  0  0  0  0
   57.9637   34.5760   47.6122 H   0  0  0  0  0  0  0  0  0  0  0  0
   57.2857   33.6500   46.2131 H   0  0  0  0  0  0  0  0  0  0  0  0
   57.6129   31.8119   47.4925 H   0  0  0  0  0  0  0  0  0  0  0  0
   59.3561   32.0173   47.0827 H   0  0  0  0  0  0  0  0  0  0  0  0
   60.1689   34.3615   48.5981 H   0  0  0  0  0  0  0  0  0  0  0  0
   60.6082   34.8510   51.0003 H   0  0  0  0  0  0  0  0  0  0  0  0
   63.1163   34.9623   54.8600 H   0  0  0  0  0  0  0  0  0  0  0  0
   65.1724   35.6128   53.6053 H   0  0  0  0  0  0  0  0  0  0  0  0
   65.5657   34.7295   51.3069 H   0  0  0  0  0  0  0  0  0  0  0  0
   63.3123   33.5495   47.4086 H   0  0  0  0  0  0  0  0  0  0  0  0
   61.7523   32.1308   46.0708 H   0  0  0  0  0  0  0  0  0  0  0  0
   60.5710   29.8570   45.9370 H   0  0  0  0  0  0  0  0  0  0  0  0
   57.4919   28.3639   47.0186 H   0  0  0  0  0  0  0  0  0  0  0  0
   58.6039   29.2500   44.9656 H   0  0  0  0  0  0  0  0  0  0  0  0
   59.8454   27.9582   45.1209 H   0  0  0  0  0  0  0  0  0  0  0  0
   56.8813   27.7208   44.4828 H   0  0  0  0  0  0  0  0  0  0  0  0
   58.3092   26.9630   43.6661 H   0  0  0  0  0  0  0  0  0  0  0  0
   57.5506   24.1254   43.4759 H   0  0  0  0  0  0  0  0  0  0  0  0
   55.5869   22.6494   43.0088 H   0  0  0  0  0  0  0  0  0  0  0  0
   53.5331   22.8231   44.4303 H   0  0  0  0  0  0  0  0  0  0  0  0
   53.4607   24.5081   46.2798 H   0  0  0  0  0  0  0  0  0  0  0  0
   58.3682   24.7512   46.9609 H   0  0  0  0  0  0  0  0  0  0  0  0
   59.6460   25.4632   45.8988 H   0  0  0  0  0  0  0  0  0  0  0  0
   58.2763   26.6100   48.3119 H   0  0  0  0  0  0  0  0  0  0  0  0
   59.9810   26.8038   47.6974 H   0  0  0  0  0  0  0  0  0  0  0  0
   61.1033   29.6444   49.5512 H   0  0  0  0  0  0  0  0  0  0  0  0
   61.8260   32.5536   51.5061 H   0  0  0  0  0  0  0  0  0  0  0  0
   57.9124   31.6626   52.1470 H   0  0  0  0  0  0  0  0  0  0  0  0
   57.4736   31.1703   49.7407 H   0  0  0  0  0  0  0  0  0  0  0  0
  1  2  1  0
  2  3  1  0
  3  4  1  0
  4  5  2  0
  5  6  1  0
  6  7  2  0
  7  8  1  0
  8  9  2  0
  8 10  2  0
  8 11  1  0
 11 12  1  0
 12 13  2  0
 13 14  1  0
 14 15  2  0
 15 16  1  0
 16 17  1  0
 17 18  1  0
 18 19  2  0
 19 20  1  0
 20 21  2  0
 21 22  1  0
 22 23  1  0
 23 24  2  0
 23 25  1  0
 25 26  1  0
 26 27  1  0
 27 28  1  0
 28 29  1  0
 29 30  2  0
 30 31  1  0
 31 32  2  0
 32 33  1  0
 33 34  2  0
 28 35  1  0
 35 36  1  0
 21 37  1  0
 37 38  2  0
 16 39  2  0
  7 40  1  0
 40 41  2  0
 41  4  1  0
 39 12  1  0
 38 18  1  0
 36 25  1  0
 34 29  1  0
  1 42  1  0
  1 43  1  0
  1 44  1  0
  2 45  1  0
  2 46  1  0
  3 47  1  0
  3 48  1  0
  5 49  1  0
  6 50  1  0
 13 51  1  0
 14 52  1  0
 15 53  1  0
 19 54  1  0
 20 55  1  0
 22 56  1  0
 25 57  1  0
 26 58  1  0
 26 59  1  0
 27 60  1  0
 27 61  1  0
 30 62  1  0
 31 63  1  0
 32 64  1  0
 33 65  1  0
 35 66  1  0
 35 67  1  0
 36 68  1  0
 36 69  1  0
 37 70  1  0
 39 71  1  0
 40 72  1  0
 41 73  1  0
M  CHG  1  11  -1
M  END
>  <UniqueID>  (67) 
63

>  <SMILES>  (67) 
CCCc1ccc(S(=O)(=O)[N-]c2cccc(Oc3ccc(NC(=O)C4CCN(c5ccccn5)CC4)cn3)c2)cc1

>  <Energy>  (67) 
98.22407353961843

>  <Genealogy>  (67) 
CCCc1ccc(S(=O)(=O)[N-]c2cccc(Oc3ccc(NC(=O)C4CCN(c5ccccn5)CC4)cn3)c2)cc1 (protonated)
CCCc1ccc(S(=O)(=O)[N-]c2cccc(Oc3ccc(NC(=O)C4CCN(c5ccccn5)CC4)cn3)c2)cc1 (3D coordinates assigned)
CCCc1ccc(S(=O)(=O)[N-]c2cccc(Oc3ccc(NC(=O)C4CCN(c5ccccn5)CC4)cn3)c2)cc1 (nonaromatic ring conformer: 98.22407353961843 kcal/mol)

>  <smiles>  (67) 
CCCc1ccc(S(=O)(=O)Nc2cccc(Oc3ccc(NC(=O)C4CCN(c5ccccn5)CC4)cn3)c2)cc1

>  <score_type>  (67) 
oracle

>  <origin>  (67) 
adg

>  <m_score__min__energy>  (67) 
-11.23

>  <m_primary>  (67) 
energy

$$$$
67:0
     RDKit          3D

 57 59  0  0  0  0  0  0  0  0999 V2000
   57.3880   32.3670   40.8100 C   0  0  0  0  0  0  0  0  0  0  0  0
   57.6440   31.9660   42.2580 C   0  0  0  0  0  0  0  0  0  0  0  0
   56.6740   31.0160   42.6970 O   0  0  0  0  0  0  0  0  0  0  0  0
   57.0060   29.7840   43.2730 C   0  0  0  0  0  0  0  0  0  0  0  0
   56.9260   28.7180   42.6040 O   0  0  0  0  0  0  0  0  0  0  0  0
   57.4660   29.7370   44.6620 C   0  0  0  0  0  0  0  0  0  0  0  0
   56.6690   30.0240   45.5940 O   0  0  0  0  0  0  0  0  0  0  0  0
   58.8070   29.3320   44.9580 N   0  0  0  0  0  0  0  0  0  0  0  0
   59.3980   29.3860   46.2620 C   0  0  0  0  0  0  0  0  0  0  0  0
   59.9180   30.6070   46.7080 C   0  0  0  0  0  0  0  0  0  0  0  0
   60.5220   30.7180   47.9700 C   0  0  0  0  0  0  0  0  0  0  0  0
   61.0630   31.9880   48.3780 N   0  0  0  0  0  0  0  0  0  0  0  0
   60.1150   33.4260   48.5890 S   0  0  0  0  0  0  0  0  0  0  0  0
   61.0320   34.6030   48.7730 O   0  0  0  0  0  0  0  0  0  0  0  0
   59.2640   33.2780   49.8200 O   0  0  0  0  0  0  0  0  0  0  0  0
   59.1230   33.6980   47.1610 C   0  0  0  0  0  0  0  0  0  0  0  0
   57.8030   33.2280   47.1050 C   0  0  0  0  0  0  0  0  0  0  0  0
   57.0300   33.4430   45.9600 C   0  0  0  0  0  0  0  0  0  0  0  0
   57.5710   34.1290   44.8680 C   0  0  0  0  0  0  0  0  0  0  0  0
   58.8860   34.6000   44.9210 C   0  0  0  0  0  0  0  0  0  0  0  0
   59.6610   34.3850   46.0640 C   0  0  0  0  0  0  0  0  0  0  0  0
   60.5910   29.5810   48.7940 C   0  0  0  0  0  0  0  0  0  0  0  0
   60.0440   28.3680   48.3720 C   0  0  0  0  0  0  0  0  0  0  0  0
   59.4360   28.2580   47.1120 C   0  0  0  0  0  0  0  0  0  0  0  0
   58.7890   27.0260   46.7500 N   0  0  0  0  0  0  0  0  0  0  0  0
   59.5480   26.0170   45.9960 C   0  0  0  0  0  0  0  0  0  0  0  0
   58.7710   24.6990   45.9080 C   0  0  0  0  0  0  0  0  0  0  0  0
   57.3470   24.8870   45.3190 C   0  0  0  0  0  0  0  0  0  0  0  0
   57.3380   24.6320   43.8060 C   0  0  0  0  0  0  0  0  0  0  0  0
   56.7350   26.2760   45.6380 C   0  0  0  0  0  0  0  0  0  0  0  0
   57.3330   26.8850   46.9080 C   0  0  0  0  0  0  0  0  0  0  0  0
   56.7962   33.2939   40.7854 H   0  0  0  0  0  0  0  0  0  0  0  0
   58.3485   32.5315   40.2998 H   0  0  0  0  0  0  0  0  0  0  0  0
   56.8345   31.5649   40.2998 H   0  0  0  0  0  0  0  0  0  0  0  0
   58.6469   31.5212   42.3377 H   0  0  0  0  0  0  0  0  0  0  0  0
   57.5729   32.8626   42.8913 H   0  0  0  0  0  0  0  0  0  0  0  0
   59.8522   31.4929   46.0593 H   0  0  0  0  0  0  0  0  0  0  0  0
   62.0940   32.0780   48.5190 H   0  0  0  0  0  0  0  0  0  0  0  0
   57.3750   32.6893   47.9633 H   0  0  0  0  0  0  0  0  0  0  0  0
   55.9952   33.0722   45.9180 H   0  0  0  0  0  0  0  0  0  0  0  0
   56.9619   34.2979   43.9677 H   0  0  0  0  0  0  0  0  0  0  0  0
   59.3112   35.1403   44.0624 H   0  0  0  0  0  0  0  0  0  0  0  0
   60.6959   34.7559   46.1028 H   0  0  0  0  0  0  0  0  0  0  0  0
   61.0791   29.6476   49.7775 H   0  0  0  0  0  0  0  0  0  0  0  0
   60.0900   27.4902   49.0333 H   0  0  0  0  0  0  0  0  0  0  0  0
   59.7351   26.3930   44.9793 H   0  0  0  0  0  0  0  0  0  0  0  0
   60.4979   25.8300   46.5182 H   0  0  0  0  0  0  0  0  0  0  0  0
   59.3295   24.0024   45.2654 H   0  0  0  0  0  0  0  0  0  0  0  0
   58.6611   24.3067   46.9298 H   0  0  0  0  0  0  0  0  0  0  0  0
   56.7105   24.1380   45.8128 H   0  0  0  0  0  0  0  0  0  0  0  0
   57.2998   23.5490   43.6169 H   0  0  0  0  0  0  0  0  0  0  0  0
   56.4563   25.1137   43.3582 H   0  0  0  0  0  0  0  0  0  0  0  0
   58.2515   25.0504   43.3582 H   0  0  0  0  0  0  0  0  0  0  0  0
   56.9299   26.9530   44.7932 H   0  0  0  0  0  0  0  0  0  0  0  0
   55.6550   26.1437   45.7993 H   0  0  0  0  0  0  0  0  0  0  0  0
   56.8865   27.8747   47.0847 H   0  0  0  0  0  0  0  0  0  0  0  0
   57.1206   26.2269   47.7635 H   0  0  0  0  0  0  0  0  0  0  0  0
  1  2  1  0
  2  3  1  0
  3  4  1  0
  4  5  2  0
  4  6  1  0
  6  7  2  0
  6  8  1  0
  8  9  1  0
  9 10  2  0
 10 11  1  0
 11 12  1  0
 12 13  1  0
 13 14  2  0
 13 15  2  0
 13 16  1  0
 16 17  2  0
 17 18  1  0
 18 19  2  0
 19 20  1  0
 20 21  2  0
 11 22  2  0
 22 23  1  0
 23 24  2  0
 24 25  1  0
 25 26  1  0
 26 27  1  0
 27 28  1  0
 28 29  1  0
 28 30  1  0
 30 31  1  0
 24  9  1  0
 31 25  1  0
 21 16  1  0
  1 32  1  0
  1 33  1  0
  1 34  1  0
  2 35  1  0
  2 36  1  0
 10 37  1  0
 12 38  1  0
 17 39  1  0
 18 40  1  0
 19 41  1  0
 20 42  1  0
 21 43  1  0
 22 44  1  0
 23 45  1  0
 26 46  1  0
 26 47  1  0
 27 48  1  0
 27 49  1  0
 28 50  1  0
 29 51  1  0
 29 52  1  0
 29 53  1  0
 30 54  1  0
 30 55  1  0
 31 56  1  0
 31 57  1  0
M  CHG  1   8  -1
M  END
>  <UniqueID>  (68) 
64

>  <SMILES>  (68) 
CCOC(=O)C(=O)[N-]c1cc(NS(=O)(=O)c2ccccc2)ccc1N1CCC(C)CC1

>  <Energy>  (68) 
65.43950967170117

>  <Genealogy>  (68) 
CCOC(=O)C(=O)[N-]c1cc(NS(=O)(=O)c2ccccc2)ccc1N1CCC(C)CC1 (protonated)
CCOC(=O)C(=O)[N-]c1cc(NS(=O)(=O)c2ccccc2)ccc1N1CCC(C)CC1 (3D coordinates assigned)
CCOC(=O)C(=O)[N-]c1cc(NS(=O)(=O)c2ccccc2)ccc1N1CCC(C)CC1 (nonaromatic ring conformer: 65.43950967170117 kcal/mol)

>  <smiles>  (68) 
CCOC(=O)C(=O)Nc1cc(NS(=O)(=O)c2ccccc2)ccc1N1CCC(C)CC1

>  <score_type>  (68) 
oracle

>  <origin>  (68) 
adg

>  <m_score__min__energy>  (68) 
-11.220000000000001

>  <m_primary>  (68) 
energy

$$$$
68:0
     RDKit          3D

 81 86  0  0  0  0  0  0  0  0999 V2000
   59.0401   27.4859   46.4154 H   0  0  0  0  0  0  0  0  0  0  0  0
   58.8420   27.9500   45.4380 C   0  0  0  0  0  0  0  0  0  0  0  0
   58.9269   27.3527   44.5182 H   0  0  0  0  0  0  0  0  0  0  0  0
   58.4980   29.2400   45.3680 C   0  0  0  0  0  0  0  0  0  0  0  0
   58.4730   30.1880   46.4050 C   0  0  0  0  0  0  0  0  0  0  0  0
   58.5470   30.0120   47.7430 C   0  0  0  0  0  0  0  0  0  0  0  0
   57.6891   29.5324   48.2369 H   0  0  0  0  0  0  0  0  0  0  0  0
   59.6780   30.4080   48.5920 C   0  0  0  0  0  0  0  0  0  0  0  0
   59.5400   31.0390   49.7330 O   0  0  0  0  0  0  0  0  0  0  0  0
   60.7340   31.2170   50.2530 C   0  0  0  0  0  0  0  0  0  0  0  0
   60.9850   31.9390   51.5510 C   0  0  0  0  0  0  0  0  0  0  0  0
   61.7924   31.4186   52.0871 H   0  0  0  0  0  0  0  0  0  0  0  0
   61.2500   32.9756   51.2955 H   0  0  0  0  0  0  0  0  0  0  0  0
   59.7970   32.0020   52.4400 N   0  0  0  0  0  0  0  0  0  0  0  0
   60.1590   32.3520   53.3590 H   0  0  0  0  0  0  0  0  0  0  0  0
   59.2330   30.6530   52.7090 C   0  0  0  0  0  0  0  0  0  0  0  0
   59.2059   30.0811   51.7697 H   0  0  0  0  0  0  0  0  0  0  0  0
   59.8708   30.1491   53.4502 H   0  0  0  0  0  0  0  0  0  0  0  0
   57.8100   30.7520   53.2770 C   0  0  0  0  0  0  0  0  0  0  0  0
   57.4375   29.7366   53.4774 H   0  0  0  0  0  0  0  0  0  0  0  0
   57.8560   31.3517   54.1980 H   0  0  0  0  0  0  0  0  0  0  0  0
   56.8750   31.4280   52.3400 N   0  0  0  0  0  0  0  0  0  0  0  0
   56.0000   30.4670   51.6360 C   0  0  0  0  0  0  0  0  0  0  0  0
   56.0307   30.6736   50.5560 H   0  0  0  0  0  0  0  0  0  0  0  0
   56.3580   29.4466   51.8375 H   0  0  0  0  0  0  0  0  0  0  0  0
   54.5800   30.5900   52.1240 C   0  0  0  0  0  0  0  0  0  0  0  0
   53.5730   31.0370   51.2530 C   0  0  0  0  0  0  0  0  0  0  0  0
   53.8258   31.3060   50.2168 H   0  0  0  0  0  0  0  0  0  0  0  0
   52.2500   31.1420   51.6960 C   0  0  0  0  0  0  0  0  0  0  0  0
   51.4666   31.4955   51.0095 H   0  0  0  0  0  0  0  0  0  0  0  0
   51.9240   30.7980   53.0100 C   0  0  0  0  0  0  0  0  0  0  0  0
   50.8837   30.8796   53.3579 H   0  0  0  0  0  0  0  0  0  0  0  0
   52.9200   30.3500   53.8830 C   0  0  0  0  0  0  0  0  0  0  0  0
   52.6618   30.0780   54.9171 H   0  0  0  0  0  0  0  0  0  0  0  0
   54.2440   30.2470   53.4440 C   0  0  0  0  0  0  0  0  0  0  0  0
   55.0248   29.8962   54.1348 H   0  0  0  0  0  0  0  0  0  0  0  0
   57.5490   32.3200   51.3710 C   0  0  0  0  0  0  0  0  0  0  0  0
   57.8634   31.7273   50.4993 H   0  0  0  0  0  0  0  0  0  0  0  0
   56.8388   33.1066   51.0763 H   0  0  0  0  0  0  0  0  0  0  0  0
   58.7830   32.9940   51.9860 C   0  0  0  0  0  0  0  0  0  0  0  0
   59.2418   33.6497   51.2313 H   0  0  0  0  0  0  0  0  0  0  0  0
   58.4526   33.5664   52.8653 H   0  0  0  0  0  0  0  0  0  0  0  0
   61.6960   30.6560   49.4320 C   0  0  0  0  0  0  0  0  0  0  0  0
   62.7825   30.6341   49.6026 H   0  0  0  0  0  0  0  0  0  0  0  0
   61.0130   30.1300   48.3560 C   0  0  0  0  0  0  0  0  0  0  0  0
   61.4397   29.6005   47.4914 H   0  0  0  0  0  0  0  0  0  0  0  0
   58.2860   31.4200   45.7760 C   0  0  0  0  0  0  0  0  0  0  0  0
   58.2250   32.7580   46.4030 C   0  0  0  0  0  0  0  0  0  0  0  0
   57.1240   33.3720   46.4210 O   0  0  0  0  0  0  0  0  0  0  0  0
   59.4030   33.3840   46.9460 N   0  0  0  0  0  0  0  0  0  0  0  0
   59.2630   34.4220   47.9790 C   0  0  0  0  0  0  0  0  0  0  0  0
   59.2832   35.4131   47.5022 H   0  0  0  0  0  0  0  0  0  0  0  0
   58.3083   34.2756   48.5054 H   0  0  0  0  0  0  0  0  0  0  0  0
   60.4100   34.3250   48.9920 C   0  0  0  0  0  0  0  0  0  0  0  0
   60.4635   35.2648   49.5611 H   0  0  0  0  0  0  0  0  0  0  0  0
   60.2089   33.4724   49.6574 H   0  0  0  0  0  0  0  0  0  0  0  0
   61.7010   34.0950   48.3300 N   0  0  0  0  0  0  0  0  0  0  0  0
   62.8580   33.7830   49.1280 C   0  0  0  0  0  0  0  0  0  0  0  0
   63.8870   32.9820   48.6060 C   0  0  0  0  0  0  0  0  0  0  0  0
   63.8059   32.5835   47.5839 H   0  0  0  0  0  0  0  0  0  0  0  0
   65.0140   32.6890   49.3800 C   0  0  0  0  0  0  0  0  0  0  0  0
   65.8149   32.0579   48.9674 H   0  0  0  0  0  0  0  0  0  0  0  0
   65.1240   33.1970   50.6770 C   0  0  0  0  0  0  0  0  0  0  0  0
   66.0108   32.9652   51.2852 H   0  0  0  0  0  0  0  0  0  0  0  0
   64.1080   33.9990   51.2010 C   0  0  0  0  0  0  0  0  0  0  0  0
   64.1983   34.4027   52.2203 H   0  0  0  0  0  0  0  0  0  0  0  0
   62.9770   34.2900   50.4340 C   0  0  0  0  0  0  0  0  0  0  0  0
   62.1770   34.9179   50.8533 H   0  0  0  0  0  0  0  0  0  0  0  0
   61.7820   34.0900   46.8660 C   0  0  0  0  0  0  0  0  0  0  0  0
   61.6229   35.1103   46.4870 H   0  0  0  0  0  0  0  0  0  0  0  0
   62.7753   33.7329   46.5563 H   0  0  0  0  0  0  0  0  0  0  0  0
   60.7080   33.1620   46.2960 C   0  0  0  0  0  0  0  0  0  0  0  0
   60.6071   33.3519   45.2172 H   0  0  0  0  0  0  0  0  0  0  0  0
   61.0149   32.1224   46.4830 H   0  0  0  0  0  0  0  0  0  0  0  0
   58.1200   31.1570   44.4260 C   0  0  0  0  0  0  0  0  0  0  0  0
   57.9070   32.1760   43.3520 C   0  0  0  0  0  0  0  0  0  0  0  0
   57.7024   33.1547   43.8105 H   0  0  0  0  0  0  0  0  0  0  0  0
   58.8101   32.2451   42.7278 H   0  0  0  0  0  0  0  0  0  0  0  0
   57.0518   31.8776   42.7278 H   0  0  0  0  0  0  0  0  0  0  0  0
   58.2480   29.8410   44.1860 N   0  0  0  0  0  0  0  0  0  0  0  0
   58.2290   29.3840   43.2470 H   0  0  0  0  0  0  0  0  0  0  0  0
  1  2  1  0
  2  3  1  0
  2  4  2  0
  4  5  1  0
  5  6  2  0
  6  7  1  0
  6  8  1  0
  8  9  1  0
  9 10  1  0
 10 11  1  0
 11 12  1  0
 11 13  1  0
 11 14  1  0
 14 15  1  0
 14 16  1  0
 16 17  1  0
 16 18  1  0
 16 19  1  0
 19 20  1  0
 19 21  1  0
 19 22  1  0
 22 23  1  0
 23 24  1  0
 23 25  1  0
 23 26  1  0
 26 27  2  0
 27 28  1  0
 27 29  1  0
 29 30  1  0
 29 31  2  0
 31 32  1  0
 31 33  1  0
 33 34  1  0
 33 35  2  0
 35 36  1  0
 22 37  1  0
 37 38  1  0
 37 39  1  0
 37 40  1  0
 40 41  1  0
 40 42  1  0
 10 43  2  0
 43 44  1  0
 43 45  1  0
 45 46  1  0
  5 47  1  0
 47 48  1  0
 48 49  2  0
 48 50  1  0
 50 51  1  0
 51 52  1  0
 51 53  1  0
 51 54  1  0
 54 55  1  0
 54 56  1  0
 54 57  1  0
 57 58  1  0
 58 59  2  0
 59 60  1  0
 59 61  1  0
 61 62  1  0
 61 63  2  0
 63 64  1  0
 63 65  1  0
 65 66  1  0
 65 67  2  0
 67 68  1  0
 57 69  1  0
 69 70  1  0
 69 71  1  0
 69 72  1  0
 72 73  1  0
 72 74  1  0
 47 75  2  0
 75 76  1  0
 76 77  1  0
 76 78  1  0
 76 79  1  0
 75 80  1  0
 80 81  1  0
 80  4  1  0
 45  8  2  0
 72 50  1  0
 40 14  1  0
 67 58  1  0
 35 26  1  0
M  CHG  1  14   1
M  END
>  <UniqueID>  (69) 
65

>  <SMILES>  (69) 
C=c1[nH]c(C)c(C(=O)N2CCN(c3ccccc3)CC2)/c1=C/c1ccc(C[NH+]2CCN(Cc3ccccc3)CC2)o1

>  <Energy>  (69) 
172.65450143371848

>  <Genealogy>  (69) 
C=c1[nH]c(C)c(C(=O)N2CCN(c3ccccc3)CC2)c1=Cc1ccc(C[NH+]2CCN(Cc3ccccc3)CC2)o1 (protonated)
C=c1[nH]c(C)c(C(=O)N2CCN(c3ccccc3)CC2)/c1=C/c1ccc(C[NH+]2CCN(Cc3ccccc3)CC2)o1 (cis-trans isomerization)
C=c1[nH]c(C)c(C(=O)N2CCN(c3ccccc3)CC2)/c1=C/c1ccc(C[NH+]2CCN(Cc3ccccc3)CC2)o1 (3D coordinates assigned)
C=c1[nH]c(C)c(C(=O)N2CCN(c3ccccc3)CC2)/c1=C/c1ccc(C[NH+]2CCN(Cc3ccccc3)CC2)o1 (nonaromatic ring conformer: 172.65450143371848 kcal/mol)

>  <smiles>  (69) 
C=c1[nH]c(C)c(C(=O)N2CCN(c3ccccc3)CC2)c1=Cc1ccc(CN2CCN(Cc3ccccc3)CC2)o1

>  <score_type>  (69) 
oracle

>  <origin>  (69) 
adg

>  <m_score__min__energy>  (69) 
-8.2799999999999994

>  <m_primary>  (69) 
energy

$$$$
69:0
     RDKit          3D

 50 53  0  0  0  0  0  0  0  0999 V2000
   55.1999   31.0785   43.8973 H   0  0  0  0  0  0  0  0  0  0  0  0
   55.9090   30.3660   44.3440 C   0  0  0  0  0  0  0  0  0  0  0  0
   55.4700   29.1540   44.7650 N   0  0  0  0  0  0  0  0  0  0  0  0
   56.3020   28.2400   45.3340 C   0  0  0  0  0  0  0  0  0  0  0  0
   55.8610   27.0770   45.7240 N   0  0  0  0  0  0  0  0  0  0  0  0
   56.5410   25.8140   45.6100 C   0  0  0  0  0  0  0  0  0  0  0  0
   57.1710   25.4970   44.4010 C   0  0  0  0  0  0  0  0  0  0  0  0
   57.1177   26.2004   43.5570 H   0  0  0  0  0  0  0  0  0  0  0  0
   57.8670   24.2940   44.2580 C   0  0  0  0  0  0  0  0  0  0  0  0
   58.3487   24.0496   43.2998 H   0  0  0  0  0  0  0  0  0  0  0  0
   57.9530   23.3980   45.3320 C   0  0  0  0  0  0  0  0  0  0  0  0
   58.8360   21.8870   45.1630 S   0  0  0  0  0  0  0  0  0  0  0  0
   58.8090   21.4440   43.7270 O   0  0  0  0  0  0  0  0  0  0  0  0
   60.2670   22.0740   45.5820 O   0  0  0  0  0  0  0  0  0  0  0  0
   58.0810   20.6460   46.1870 C   0  0  0  0  0  0  0  0  0  0  0  0
   58.2358   20.9005   47.2459 H   0  0  0  0  0  0  0  0  0  0  0  0
   57.0027   20.6015   45.9744 H   0  0  0  0  0  0  0  0  0  0  0  0
   58.5373   19.6679   45.9744 H   0  0  0  0  0  0  0  0  0  0  0  0
   57.3580   23.7270   46.5560 C   0  0  0  0  0  0  0  0  0  0  0  0
   57.4379   23.0352   47.4075 H   0  0  0  0  0  0  0  0  0  0  0  0
   56.6630   24.9310   46.7000 C   0  0  0  0  0  0  0  0  0  0  0  0
   56.2097   25.1897   47.6683 H   0  0  0  0  0  0  0  0  0  0  0  0
   57.6610   28.5400   45.4720 C   0  0  0  0  0  0  0  0  0  0  0  0
   58.3420   27.8057   45.9270 H   0  0  0  0  0  0  0  0  0  0  0  0
   58.1570   29.7760   45.0310 C   0  0  0  0  0  0  0  0  0  0  0  0
   59.6220   30.0910   45.2300 C   0  0  0  0  0  0  0  0  0  0  0  0
   59.5744   31.0947   44.7825 H   0  0  0  0  0  0  0  0  0  0  0  0
   60.2630   29.4960   46.4820 C   0  0  0  0  0  0  0  0  0  0  0  0
   61.0441   30.0550   47.0181 H   0  0  0  0  0  0  0  0  0  0  0  0
   59.8842   29.1067   47.4385 H   0  0  0  0  0  0  0  0  0  0  0  0
   60.5610   28.8920   45.1210 C   0  0  0  0  0  0  0  0  0  0  0  0
   61.5578   29.0138   44.6722 H   0  0  0  0  0  0  0  0  0  0  0  0
   60.4870   27.8847   44.6853 H   0  0  0  0  0  0  0  0  0  0  0  0
   57.2610   30.7180   44.4740 C   0  0  0  0  0  0  0  0  0  0  0  0
   57.6920   32.0770   44.0730 C   0  0  0  0  0  0  0  0  0  0  0  0
   57.5470   32.4370   42.8760 O   0  0  0  0  0  0  0  0  0  0  0  0
   58.2980   32.9830   45.0170 N   0  0  0  0  0  0  0  0  0  0  0  0
   57.9740   32.8980   46.4470 C   0  0  0  0  0  0  0  0  0  0  0  0
   56.9218   32.5992   46.5635 H   0  0  0  0  0  0  0  0  0  0  0  0
   58.6317   32.1534   46.9192 H   0  0  0  0  0  0  0  0  0  0  0  0
   58.1920   34.2570   47.1240 C   0  0  0  0  0  0  0  0  0  0  0  0
   57.4242   34.9618   46.7721 H   0  0  0  0  0  0  0  0  0  0  0  0
   58.1200   34.1221   48.2133 H   0  0  0  0  0  0  0  0  0  0  0  0
   59.4710   34.7750   46.8170 O   0  0  0  0  0  0  0  0  0  0  0  0
   59.5380   35.0660   45.4340 C   0  0  0  0  0  0  0  0  0  0  0  0
   58.6984   35.7225   45.1617 H   0  0  0  0  0  0  0  0  0  0  0  0
   60.4953   35.5648   45.2227 H   0  0  0  0  0  0  0  0  0  0  0  0
   59.4590   33.7780   44.6070 C   0  0  0  0  0  0  0  0  0  0  0  0
   59.3650   34.0355   43.5417 H   0  0  0  0  0  0  0  0  0  0  0  0
   60.3733   33.1891   44.7721 H   0  0  0  0  0  0  0  0  0  0  0  0
  1  2  1  0
  2  3  1  0
  3  4  1  0
  4  5  2  0
  5  6  1  0
  6  7  2  0
  7  8  1  0
  7  9  1  0
  9 10  1  0
  9 11  2  0
 11 12  1  0
 12 13  2  0
 12 14  2  0
 12 15  1  0
 15 16  1  0
 15 17  1  0
 15 18  1  0
 11 19  1  0
 19 20  1  0
 19 21  2  0
 21 22  1  0
  4 23  1  0
 23 24  1  0
 23 25  2  0
 25 26  1  0
 26 27  1  0
 26 28  1  0
 28 29  1  0
 28 30  1  0
 28 31  1  0
 31 32  1  0
 31 33  1  0
 25 34  1  0
 34 35  1  0
 35 36  2  0
 35 37  1  0
 37 38  1  0
 38 39  1  0
 38 40  1  0
 38 41  1  0
 41 42  1  0
 41 43  1  0
 41 44  1  0
 44 45  1  0
 45 46  1  0
 45 47  1  0
 45 48  1  0
 48 49  1  0
 48 50  1  0
 34  2  2  0
 48 37  1  0
 21  6  1  0
 31 26  1  0
M  CHG  1   3  -1
M  END
>  <UniqueID>  (70) 
66

>  <SMILES>  (70) 
CS(=O)(=O)c1ccc(/N=c2/cc(C3CC3)c(C(=O)N3CCOCC3)c[n-]2)cc1

>  <Energy>  (70) 
328.7536727096047

>  <Genealogy>  (70) 
CS(=O)(=O)c1ccc(N=c2cc(C3CC3)c(C(=O)N3CCOCC3)c[n-]2)cc1 (protonated)
CS(=O)(=O)c1ccc(/N=c2/cc(C3CC3)c(C(=O)N3CCOCC3)c[n-]2)cc1 (cis-trans isomerization)
CS(=O)(=O)c1ccc(/N=c2/cc(C3CC3)c(C(=O)N3CCOCC3)c[n-]2)cc1 (3D coordinates assigned)
CS(=O)(=O)c1ccc(/N=c2/cc(C3CC3)c(C(=O)N3CCOCC3)c[n-]2)cc1 (nonaromatic ring conformer: 328.7536727096047 kcal/mol)

>  <smiles>  (70) 
CS(=O)(=O)c1ccc(N=c2cc(C3CC3)c(C(=O)N3CCOCC3)c[nH]2)cc1

>  <score_type>  (70) 
oracle

>  <origin>  (70) 
adg

>  <m_score__min__energy>  (70) 
-10.880000000000001

>  <m_primary>  (70) 
energy

$$$$
70:0
     RDKit          3D

 38 40  0  0  0  0  0  0  0  0999 V2000
   56.9880   29.7200   43.3740 C   0  0  0  0  0  0  0  0  0  0  0  0
   57.3260   30.7460   44.3500 N   0  0  0  0  0  0  0  0  0  0  0  0
   57.3300   32.0730   44.1260 C   0  0  0  0  0  0  0  0  0  0  0  0
   57.6290   32.7010   45.3180 C   0  0  0  0  0  0  0  0  0  0  0  0
   57.7730   34.1780   45.5580 C   0  0  0  0  0  0  0  0  0  0  0  0
   59.1840   34.6120   45.5500 N   0  0  0  0  0  0  0  0  0  0  0  0
   60.0700   33.9560   46.5350 C   0  0  2  0  0  0  0  0  0  0  0  0
   60.0160   34.6020   47.9480 C   0  0  0  0  0  0  0  0  0  0  0  0
   60.7920   33.7620   48.9820 C   0  0  0  0  0  0  0  0  0  0  0  0
   62.1220   33.3450   48.4240 C   0  0  0  0  0  0  0  0  0  0  0  0
   62.4160   33.3190   47.0800 C   0  0  0  0  0  0  0  0  0  0  0  0
   63.7130   32.8470   46.9940 C   0  0  0  0  0  0  0  0  0  0  0  0
   64.1430   32.5730   48.2430 N   0  0  0  0  0  0  0  0  0  0  0  0
   63.1760   32.8580   49.1060 N   0  0  0  0  0  0  0  0  0  0  0  0
   63.2960   32.7270   50.5540 C   0  0  0  0  0  0  0  0  0  0  0  0
   61.5210   33.8460   46.0030 C   0  0  0  0  0  0  0  0  0  0  0  0
   57.7990   31.6790   46.2340 C   0  0  0  0  0  0  0  0  0  0  0  0
   57.5970   30.4960   45.6210 N   0  0  0  0  0  0  0  0  0  0  0  0
   56.6853   28.8012   43.8977 H   0  0  0  0  0  0  0  0  0  0  0  0
   56.1586   30.0728   42.7434 H   0  0  0  0  0  0  0  0  0  0  0  0
   57.8647   29.5107   42.7434 H   0  0  0  0  0  0  0  0  0  0  0  0
   57.1306   32.5686   43.1645 H   0  0  0  0  0  0  0  0  0  0  0  0
   57.2320   34.7192   44.7678 H   0  0  0  0  0  0  0  0  0  0  0  0
   57.3585   34.3993   46.5526 H   0  0  0  0  0  0  0  0  0  0  0  0
   59.5980   34.5150   44.5920 H   0  0  0  0  0  0  0  0  0  0  0  0
   59.6787   32.9362   46.6653 H   0  0  0  0  0  0  0  0  0  0  0  0
   60.4594   35.6075   47.8988 H   0  0  0  0  0  0  0  0  0  0  0  0
   58.9638   34.6538   48.2644 H   0  0  0  0  0  0  0  0  0  0  0  0
   60.9517   34.3618   49.8901 H   0  0  0  0  0  0  0  0  0  0  0  0
   60.2073   32.8618   49.2222 H   0  0  0  0  0  0  0  0  0  0  0  0
   64.2931   32.7175   46.0684 H   0  0  0  0  0  0  0  0  0  0  0  0
   65.0860   32.2060   48.5000 H   0  0  0  0  0  0  0  0  0  0  0  0
   62.6308   33.4531   51.0442 H   0  0  0  0  0  0  0  0  0  0  0  0
   63.0115   31.7079   50.8548 H   0  0  0  0  0  0  0  0  0  0  0  0
   64.3361   32.9212   50.8548 H   0  0  0  0  0  0  0  0  0  0  0  0
   61.8719   34.8406   45.6904 H   0  0  0  0  0  0  0  0  0  0  0  0
   61.5423   33.1592   45.1440 H   0  0  0  0  0  0  0  0  0  0  0  0
   58.0581   31.8108   47.2949 H   0  0  0  0  0  0  0  0  0  0  0  0
  1  2  1  0
  2  3  1  0
  3  4  2  0
  4  5  1  0
  5  6  1  0
  6  7  1  0
  7  8  1  0
  8  9  1  0
  9 10  1  0
 10 11  2  0
 11 12  1  0
 12 13  2  0
 13 14  1  0
 14 15  1  0
 11 16  1  0
  4 17  1  0
 17 18  2  0
 18  2  1  0
 16  7  1  0
 14 10  1  0
  1 19  1  0
  1 20  1  0
  1 21  1  0
  3 22  1  0
  5 23  1  0
  5 24  1  0
  6 25  1  0
  7 26  1  1
  8 27  1  0
  8 28  1  0
  9 29  1  0
  9 30  1  0
 12 31  1  0
 13 32  1  0
 15 33  1  0
 15 34  1  0
 15 35  1  0
 16 36  1  0
 16 37  1  0
 17 38  1  0
M  CHG  1  13   1
M  END
>  <UniqueID>  (71) 
67

>  <SMILES>  (71) 
Cn1cc(CN[C@@H]2CCc3c(c[nH+]n3C)C2)cn1

>  <Energy>  (71) 
103.08187196746786

>  <Genealogy>  (71) 
Cn1cc(CNC2CCc3c(c[nH+]n3C)C2)cn1 (protonated)
Cn1cc(CN[C@@H]2CCc3c(c[nH+]n3C)C2)cn1 (chirality)
Cn1cc(CN[C@@H]2CCc3c(c[nH+]n3C)C2)cn1 (3D coordinates assigned)
Cn1cc(CN[C@@H]2CCc3c(c[nH+]n3C)C2)cn1 (nonaromatic ring conformer: 103.08187196746786 kcal/mol)

>  <smiles>  (71) 
Cn1cc(CNC2CCc3c(cnn3C)C2)cn1

>  <score_type>  (71) 
oracle

>  <origin>  (71) 
adg

>  <m_score__min__energy>  (71) 
-6.21

>  <m_primary>  (71) 
energy

$$$$
71:0
     RDKit          3D

 59 63  0  0  0  0  0  0  0  0999 V2000
   59.6662   34.4989   44.9302 H   0  0  0  0  0  0  0  0  0  0  0  0
   58.9690   33.6550   45.0380 C   0  0  0  0  0  0  0  0  0  0  0  0
   57.7000   33.2850   44.0030 S   0  0  0  0  0  0  0  0  0  0  0  0
   57.2340   31.9250   44.8810 C   0  0  0  0  0  0  0  0  0  0  0  0
   56.2020   31.1700   44.6500 N   0  0  0  0  0  0  0  0  0  0  0  0
   56.2010   29.7500   44.4380 C   0  0  0  0  0  0  0  0  0  0  0  0
   55.2100   29.0400   44.7700 O   0  0  0  0  0  0  0  0  0  0  0  0
   57.3910   29.1080   43.8010 C   0  0  0  0  0  0  0  0  0  0  0  0
   57.0849   28.1674   43.3197 H   0  0  0  0  0  0  0  0  0  0  0  0
   57.8120   29.7894   43.0471 H   0  0  0  0  0  0  0  0  0  0  0  0
   58.4340   28.8180   44.8480 C   0  0  0  0  0  0  0  0  0  0  0  0
   58.0500   28.4240   46.1400 C   0  0  0  0  0  0  0  0  0  0  0  0
   56.9861   28.2655   46.3703 H   0  0  0  0  0  0  0  0  0  0  0  0
   59.0140   28.2320   47.1360 C   0  0  0  0  0  0  0  0  0  0  0  0
   58.7082   27.9226   48.1463 H   0  0  0  0  0  0  0  0  0  0  0  0
   60.3660   28.4340   46.8450 C   0  0  0  0  0  0  0  0  0  0  0  0
   61.1241   28.2860   47.6282 H   0  0  0  0  0  0  0  0  0  0  0  0
   60.7570   28.8240   45.5600 C   0  0  0  0  0  0  0  0  0  0  0  0
   61.8222   28.9775   45.3326 H   0  0  0  0  0  0  0  0  0  0  0  0
   59.7950   29.0190   44.5640 C   0  0  0  0  0  0  0  0  0  0  0  0
   60.1048   29.3306   43.5556 H   0  0  0  0  0  0  0  0  0  0  0  0
   58.0190   31.7470   45.9620 N   0  0  0  0  0  0  0  0  0  0  0  0
   58.9840   32.7040   46.0590 C   0  0  0  0  0  0  0  0  0  0  0  0
   59.8800   32.7610   47.2250 C   0  0  0  0  0  0  0  0  0  0  0  0
   59.7720   33.7270   48.0330 O   0  0  0  0  0  0  0  0  0  0  0  0
   60.9510   31.8150   47.3780 N   0  0  0  0  0  0  0  0  0  0  0  0
   61.0840   31.0850   46.6420 H   0  0  0  0  0  0  0  0  0  0  0  0
   62.0800   32.0960   48.2150 C   0  0  0  0  0  0  0  0  0  0  0  0
   63.1630   32.8450   47.7360 C   0  0  0  0  0  0  0  0  0  0  0  0
   63.1470   33.2381   46.7087 H   0  0  0  0  0  0  0  0  0  0  0  0
   64.2650   33.0940   48.5620 C   0  0  0  0  0  0  0  0  0  0  0  0
   65.1062   33.6931   48.1832 H   0  0  0  0  0  0  0  0  0  0  0  0
   64.3060   32.5840   49.8740 C   0  0  0  0  0  0  0  0  0  0  0  0
   65.4570   32.8030   50.7180 N   0  0  0  0  0  0  0  0  0  0  0  0
   66.6160   31.9050   50.6970 C   0  0  0  0  0  0  0  0  0  0  0  0
   66.6360   31.3104   51.6222 H   0  0  0  0  0  0  0  0  0  0  0  0
   66.5428   31.2318   49.8302 H   0  0  0  0  0  0  0  0  0  0  0  0
   67.9000   32.7320   50.5940 C   0  0  0  0  0  0  0  0  0  0  0  0
   68.7679   32.0625   50.6863 H   0  0  0  0  0  0  0  0  0  0  0  0
   67.9112   33.2438   49.6204 H   0  0  0  0  0  0  0  0  0  0  0  0
   67.9590   33.7540   51.6670 N   0  0  0  0  0  0  0  0  0  0  0  0
   69.1900   34.5900   51.6660 C   0  0  0  0  0  0  0  0  0  0  0  0
   69.7382   33.9363   52.3603 H   0  0  0  0  0  0  0  0  0  0  0  0
   69.3850   35.2850   50.3230 C   0  0  0  0  0  0  0  0  0  0  0  0
   70.3799   35.3033   49.8541 H   0  0  0  0  0  0  0  0  0  0  0  0
   68.9169   35.1996   49.3312 H   0  0  0  0  0  0  0  0  0  0  0  0
   69.1170   36.1190   51.5650 C   0  0  0  0  0  0  0  0  0  0  0  0
   69.9180   36.7378   51.9957 H   0  0  0  0  0  0  0  0  0  0  0  0
   68.3768   36.8831   51.8447 H   0  0  0  0  0  0  0  0  0  0  0  0
   66.7880   34.6550   51.5840 C   0  0  0  0  0  0  0  0  0  0  0  0
   66.8482   35.3969   52.3939 H   0  0  0  0  0  0  0  0  0  0  0  0
   66.7991   35.1505   50.6020 H   0  0  0  0  0  0  0  0  0  0  0  0
   65.4780   33.8750   51.7180 C   0  0  0  0  0  0  0  0  0  0  0  0
   65.4089   33.4405   52.7262 H   0  0  0  0  0  0  0  0  0  0  0  0
   64.6249   34.5505   51.5571 H   0  0  0  0  0  0  0  0  0  0  0  0
   63.2160   31.8330   50.3430 C   0  0  0  0  0  0  0  0  0  0  0  0
   63.2378   31.4176   51.3613 H   0  0  0  0  0  0  0  0  0  0  0  0
   62.1040   31.6090   49.5270 C   0  0  0  0  0  0  0  0  0  0  0  0
   61.2430   31.0470   49.9178 H   0  0  0  0  0  0  0  0  0  0  0  0
  1  2  1  0
  2  3  1  0
  3  4  1  0
  4  5  2  0
  5  6  1  0
  6  7  2  0
  6  8  1  0
  8  9  1  0
  8 10  1  0
  8 11  1  0
 11 12  2  0
 12 13  1  0
 12 14  1  0
 14 15  1  0
 14 16  2  0
 16 17  1  0
 16 18  1  0
 18 19  1  0
 18 20  2  0
 20 21  1  0
  4 22  1  0
 22 23  1  0
 23 24  1  0
 24 25  2  0
 24 26  1  0
 26 27  1  0
 26 28  1  0
 28 29  2  0
 29 30  1  0
 29 31  1  0
 31 32  1  0
 31 33  2  0
 33 34  1  0
 34 35  1  0
 35 36  1  0
 35 37  1  0
 35 38  1  0
 38 39  1  0
 38 40  1  0
 38 41  1  0
 41 42  1  0
 42 43  1  0
 42 44  1  0
 44 45  1  0
 44 46  1  0
 44 47  1  0
 47 48  1  0
 47 49  1  0
 41 50  1  0
 50 51  1  0
 50 52  1  0
 50 53  1  0
 53 54  1  0
 53 55  1  0
 33 56  1  0
 56 57  1  0
 56 58  2  0
 58 59  1  0
 23  2  2  0
 58 28  1  0
 20 11  1  0
 53 34  1  0
 47 42  1  0
M  CHG  1  22  -1
M  END
>  <UniqueID>  (72) 
68

>  <SMILES>  (72) 
O=C(Cc1ccccc1)/N=c1/[n-]c(C(=O)Nc2ccc(N3CCN(C4CC4)CC3)cc2)cs1

>  <Energy>  (72) 
380.01786587008945

>  <Genealogy>  (72) 
O=C(Cc1ccccc1)N=c1[n-]c(C(=O)Nc2ccc(N3CCN(C4CC4)CC3)cc2)cs1 (protonated)
O=C(Cc1ccccc1)/N=c1/[n-]c(C(=O)Nc2ccc(N3CCN(C4CC4)CC3)cc2)cs1 (cis-trans isomerization)
O=C(Cc1ccccc1)/N=c1/[n-]c(C(=O)Nc2ccc(N3CCN(C4CC4)CC3)cc2)cs1 (3D coordinates assigned)
O=C(Cc1ccccc1)/N=c1/[n-]c(C(=O)Nc2ccc(N3CCN(C4CC4)CC3)cc2)cs1 (nonaromatic ring conformer: 380.01786587008945 kcal/mol)

>  <smiles>  (72) 
O=C(Cc1ccccc1)N=c1[nH]c(C(=O)Nc2ccc(N3CCN(C4CC4)CC3)cc2)cs1

>  <score_type>  (72) 
oracle

>  <origin>  (72) 
adg

>  <m_score__min__energy>  (72) 
-10.359999999999999

>  <m_primary>  (72) 
energy

$$$$
72:0
     RDKit          3D

 60 63  0  0  0  0  0  0  0  0999 V2000
   57.3940   25.4810   44.6550 C   0  0  0  0  0  0  0  0  0  0  0  0
   56.6610   26.4390   45.9650 S   0  0  0  0  0  0  0  0  0  0  0  0
   57.2170   25.9550   47.2750 O   0  0  0  0  0  0  0  0  0  0  0  0
   55.1690   26.2580   45.9750 O   0  0  0  0  0  0  0  0  0  0  0  0
   57.0570   28.1190   45.7740 N   0  0  0  0  0  0  0  0  0  0  0  0
   58.3870   28.6530   45.9070 C   0  0  0  0  0  0  0  0  0  0  0  0
   58.8010   29.3200   47.0760 C   0  0  0  0  0  0  0  0  0  0  0  0
   60.1040   29.8430   47.1940 C   0  0  0  0  0  0  0  0  0  0  0  0
   60.5560   30.5700   48.4190 C   0  0  0  0  0  0  0  0  0  0  0  0
   59.7020   30.8430   49.3060 O   0  0  0  0  0  0  0  0  0  0  0  0
   62.0090   30.9790   48.6320 C   0  0  0  0  0  0  0  0  0  0  0  0
   62.1800   31.8650   49.8940 C   0  0  0  0  0  0  0  0  0  0  0  0
   62.6440   33.2970   49.5780 C   0  0  0  0  0  0  0  0  0  0  0  0
   61.9400   33.8730   48.4130 N   0  0  0  0  0  0  0  0  0  0  0  0
   60.5120   34.1630   48.6740 C   0  0  0  0  0  0  0  0  0  0  0  0
   59.6920   34.0430   47.4140 C   0  0  0  0  0  0  0  0  0  0  0  0
   59.7040   35.0690   46.4560 C   0  0  0  0  0  0  0  0  0  0  0  0
   58.9650   34.9370   45.2790 C   0  0  0  0  0  0  0  0  0  0  0  0
   58.2020   33.7880   45.0510 C   0  0  0  0  0  0  0  0  0  0  0  0
   58.1660   32.7620   46.0130 C   0  0  0  0  0  0  0  0  0  0  0  0
   57.4170   31.5550   45.8080 N   0  0  0  0  0  0  0  0  0  0  0  0
   56.9170   31.0660   44.5580 C   0  0  0  0  0  0  0  0  0  0  0  0
   55.7740   30.5410   44.4790 O   0  0  0  0  0  0  0  0  0  0  0  0
   57.8060   31.0790   43.3550 C   0  0  0  0  0  0  0  0  0  0  0  0
   57.8020   32.3880   42.5830 C   0  0  0  0  0  0  0  0  0  0  0  0
   57.0770   31.1760   42.0240 C   0  0  0  0  0  0  0  0  0  0  0  0
   58.9310   32.8880   47.1800 C   0  0  0  0  0  0  0  0  0  0  0  0
   62.1430   33.0910   47.1640 C   0  0  0  0  0  0  0  0  0  0  0  0
   62.6370   31.6440   47.3880 C   0  0  0  0  0  0  0  0  0  0  0  0
   60.9960   29.6710   46.1200 C   0  0  0  0  0  0  0  0  0  0  0  0
   60.5980   28.9970   44.9650 C   0  0  0  0  0  0  0  0  0  0  0  0
   59.3050   28.4870   44.8570 C   0  0  0  0  0  0  0  0  0  0  0  0
   58.9430   27.8430   43.7190 F   0  0  0  0  0  0  0  0  0  0  0  0
   58.0085   24.6778   45.0878 H   0  0  0  0  0  0  0  0  0  0  0  0
   56.5998   25.0409   44.0340 H   0  0  0  0  0  0  0  0  0  0  0  0
   58.0264   26.1325   44.0340 H   0  0  0  0  0  0  0  0  0  0  0  0
   56.2510   28.7780   45.6820 H   0  0  0  0  0  0  0  0  0  0  0  0
   58.0949   29.4347   47.9116 H   0  0  0  0  0  0  0  0  0  0  0  0
   62.5647   30.0447   48.8001 H   0  0  0  0  0  0  0  0  0  0  0  0
   61.2130   31.9191   50.4154 H   0  0  0  0  0  0  0  0  0  0  0  0
   62.9614   31.4001   50.5131 H   0  0  0  0  0  0  0  0  0  0  0  0
   62.4530   33.9320   50.4556 H   0  0  0  0  0  0  0  0  0  0  0  0
   63.7162   33.2564   49.3356 H   0  0  0  0  0  0  0  0  0  0  0  0
   60.1313   33.4491   49.4192 H   0  0  0  0  0  0  0  0  0  0  0  0
   60.4285   35.1945   49.0470 H   0  0  0  0  0  0  0  0  0  0  0  0
   60.2967   35.9786   46.6330 H   0  0  0  0  0  0  0  0  0  0  0  0
   58.9831   35.7404   44.5279 H   0  0  0  0  0  0  0  0  0  0  0  0
   57.6287   33.6859   44.1178 H   0  0  0  0  0  0  0  0  0  0  0  0
   58.5810   30.4191   43.7720 H   0  0  0  0  0  0  0  0  0  0  0  0
   57.2274   33.2469   42.9600 H   0  0  0  0  0  0  0  0  0  0  0  0
   58.5778   33.0715   42.2075 H   0  0  0  0  0  0  0  0  0  0  0  0
   55.9775   31.1571   41.9964 H   0  0  0  0  0  0  0  0  0  0  0  0
   57.1103   30.6183   41.0764 H   0  0  0  0  0  0  0  0  0  0  0  0
   58.9349   32.0737   47.9196 H   0  0  0  0  0  0  0  0  0  0  0  0
   61.1845   33.0476   46.6260 H   0  0  0  0  0  0  0  0  0  0  0  0
   62.9314   33.6067   46.5962 H   0  0  0  0  0  0  0  0  0  0  0  0
   62.3797   31.0445   46.5023 H   0  0  0  0  0  0  0  0  0  0  0  0
   63.7239   31.6885   47.5515 H   0  0  0  0  0  0  0  0  0  0  0  0
   62.0178   30.0720   46.1915 H   0  0  0  0  0  0  0  0  0  0  0  0
   61.3083   28.8673   44.1351 H   0  0  0  0  0  0  0  0  0  0  0  0
  1  2  1  0
  2  3  2  0
  2  4  2  0
  2  5  1  0
  5  6  1  0
  6  7  2  0
  7  8  1  0
  8  9  1  0
  9 10  2  0
  9 11  1  0
 11 12  1  0
 12 13  1  0
 13 14  1  0
 14 15  1  0
 15 16  1  0
 16 17  2  0
 17 18  1  0
 18 19  2  0
 19 20  1  0
 20 21  1  0
 21 22  1  0
 22 23  2  0
 22 24  1  0
 24 25  1  0
 25 26  1  0
 20 27  2  0
 14 28  1  0
 28 29  1  0
  8 30  2  0
 30 31  1  0
 31 32  2  0
 32 33  1  0
 32  6  1  0
 29 11  1  0
 27 16  1  0
 26 24  1  0
  1 34  1  0
  1 35  1  0
  1 36  1  0
  5 37  1  0
  7 38  1  0
 11 39  1  0
 12 40  1  0
 12 41  1  0
 13 42  1  0
 13 43  1  0
 15 44  1  0
 15 45  1  0
 17 46  1  0
 18 47  1  0
 19 48  1  0
 24 49  1  0
 25 50  1  0
 25 51  1  0
 26 52  1  0
 26 53  1  0
 27 54  1  0
 28 55  1  0
 28 56  1  0
 29 57  1  0
 29 58  1  0
 30 59  1  0
 31 60  1  0
M  CHG  1  21  -1
M  END
>  <UniqueID>  (73) 
69

>  <SMILES>  (73) 
CS(=O)(=O)Nc1cc(C(=O)C2CCN(Cc3cccc([N-]C(=O)C4CC4)c3)CC2)ccc1F

>  <Energy>  (73) 
340.4251631731351

>  <Genealogy>  (73) 
CS(=O)(=O)Nc1cc(C(=O)C2CCN(Cc3cccc([N-]C(=O)C4CC4)c3)CC2)ccc1F (protonated)
CS(=O)(=O)Nc1cc(C(=O)C2CCN(Cc3cccc([N-]C(=O)C4CC4)c3)CC2)ccc1F (3D coordinates assigned)
CS(=O)(=O)Nc1cc(C(=O)C2CCN(Cc3cccc([N-]C(=O)C4CC4)c3)CC2)ccc1F (nonaromatic ring conformer: 340.4251631731351 kcal/mol)

>  <smiles>  (73) 
CS(=O)(=O)Nc1cc(C(=O)C2CCN(Cc3cccc(NC(=O)C4CC4)c3)CC2)ccc1F

>  <score_type>  (73) 
oracle

>  <origin>  (73) 
adg

>  <m_score__min__energy>  (73) 
-12.19

>  <m_primary>  (73) 
energy

$$$$
73:0
     RDKit          3D

 56 59  0  0  0  0  0  0  0  0999 V2000
   56.2070   28.2150   44.4230 H   0  0  0  0  0  0  0  0  0  0  0  0
   55.7440   27.9470   45.2810 O   0  0  0  0  0  0  0  0  0  0  0  0
   56.0660   26.7500   45.9140 C   0  0  0  0  0  0  0  0  0  0  0  0
   55.1570   25.8320   46.2830 N   0  0  0  0  0  0  0  0  0  0  0  0
   55.9240   24.8390   46.7790 C   0  0  0  0  0  0  0  0  0  0  0  0
   55.4380   23.7690   47.2320 O   0  0  0  0  0  0  0  0  0  0  0  0
   57.2540   25.0740   46.7400 N   0  0  0  0  0  0  0  0  0  0  0  0
   57.3370   26.3070   46.2110 C   0  0  0  0  0  0  0  0  0  0  0  0
   58.6140   26.9670   45.8890 C   0  0  0  0  0  0  0  0  0  0  0  0
   59.1806   26.6020   45.0197 H   0  0  0  0  0  0  0  0  0  0  0  0
   59.1290   27.9920   46.5970 C   0  0  0  0  0  0  0  0  0  0  0  0
   58.7230   28.4020   47.8570 C   0  0  0  0  0  0  0  0  0  0  0  0
   57.9133   27.9646   48.4595 H   0  0  0  0  0  0  0  0  0  0  0  0
   59.5300   29.4650   48.2110 C   0  0  0  0  0  0  0  0  0  0  0  0
   59.3650   30.2240   49.4660 C   0  0  0  0  0  0  0  0  0  0  0  0
   58.9740   29.6210   50.5010 O   0  0  0  0  0  0  0  0  0  0  0  0
   59.5880   31.6380   49.5030 N   0  0  0  0  0  0  0  0  0  0  0  0
   58.5340   32.6280   49.3140 C   0  0  0  0  0  0  0  0  0  0  0  0
   57.5571   32.1226   49.2975 H   0  0  0  0  0  0  0  0  0  0  0  0
   58.5631   33.3518   50.1418 H   0  0  0  0  0  0  0  0  0  0  0  0
   58.7430   33.3530   48.0130 C   0  0  0  0  0  0  0  0  0  0  0  0
   59.8090   34.2560   47.8720 C   0  0  0  0  0  0  0  0  0  0  0  0
   60.4469   34.4895   48.7372 H   0  0  0  0  0  0  0  0  0  0  0  0
   60.0630   34.8590   46.6380 C   0  0  0  0  0  0  0  0  0  0  0  0
   60.8879   35.5800   46.5394 H   0  0  0  0  0  0  0  0  0  0  0  0
   59.2720   34.5490   45.5280 C   0  0  0  0  0  0  0  0  0  0  0  0
   59.4846   35.0161   44.5551 H   0  0  0  0  0  0  0  0  0  0  0  0
   58.2070   33.6430   45.6520 C   0  0  0  0  0  0  0  0  0  0  0  0
   57.4170   33.2360   44.4360 C   0  0  0  0  0  0  0  0  0  0  0  0
   56.4141   32.9119   44.7509 H   0  0  0  0  0  0  0  0  0  0  0  0
   57.3488   34.0996   43.7582 H   0  0  0  0  0  0  0  0  0  0  0  0
   58.0820   32.1230   43.7160 N   0  0  0  0  0  0  0  0  0  0  0  0
   57.2230   31.5620   42.6460 C   0  0  0  0  0  0  0  0  0  0  0  0
   56.5179   32.3395   42.3168 H   0  0  0  0  0  0  0  0  0  0  0  0
   57.8816   31.2373   41.8270 H   0  0  0  0  0  0  0  0  0  0  0  0
   56.4180   30.3310   43.1130 C   0  0  0  0  0  0  0  0  0  0  0  0
   55.4557   30.3055   42.5807 H   0  0  0  0  0  0  0  0  0  0  0  0
   56.9994   29.4235   42.8931 H   0  0  0  0  0  0  0  0  0  0  0  0
   56.1780   30.3910   44.5010 O   0  0  0  0  0  0  0  0  0  0  0  0
   57.3940   30.2320   45.2150 C   0  0  0  0  0  0  0  0  0  0  0  0
   57.2343   30.5554   46.2542 H   0  0  0  0  0  0  0  0  0  0  0  0
   57.6743   29.1702   45.1518 H   0  0  0  0  0  0  0  0  0  0  0  0
   58.5620   31.0530   44.6180 C   0  0  0  0  0  0  0  0  0  0  0  0
   59.1315   31.5105   45.4404 H   0  0  0  0  0  0  0  0  0  0  0  0
   59.1924   30.3697   44.0300 H   0  0  0  0  0  0  0  0  0  0  0  0
   57.9380   33.0590   46.9000 C   0  0  0  0  0  0  0  0  0  0  0  0
   57.0905   32.3660   47.0071 H   0  0  0  0  0  0  0  0  0  0  0  0
   60.4440   29.7090   47.2390 N   0  0  0  0  0  0  0  0  0  0  0  0
   61.4930   30.7350   47.2700 C   0  0  0  0  0  0  0  0  0  0  0  0
   61.7394   30.9760   48.3146 H   0  0  0  0  0  0  0  0  0  0  0  0
   62.3909   30.3569   46.7593 H   0  0  0  0  0  0  0  0  0  0  0  0
   61.1349   31.6411   46.7593 H   0  0  0  0  0  0  0  0  0  0  0  0
   60.1920   28.8260   46.2360 C   0  0  0  0  0  0  0  0  0  0  0  0
   60.8490   28.8010   45.0630 C   0  0  0  0  0  0  0  0  0  0  0  0
   61.6748   29.5043   44.8800 H   0  0  0  0  0  0  0  0  0  0  0  0
   60.5607   28.0772   44.2864 H   0  0  0  0  0  0  0  0  0  0  0  0
  1  2  1  0
  2  3  1  0
  3  4  1  0
  4  5  1  0
  5  6  2  0
  5  7  1  0
  7  8  1  0
  8  9  1  0
  9 10  1  0
  9 11  2  0
 11 12  1  0
 12 13  1  0
 12 14  2  0
 14 15  1  0
 15 16  2  0
 15 17  1  0
 17 18  1  0
 18 19  1  0
 18 20  1  0
 18 21  1  0
 21 22  2  0
 22 23  1  0
 22 24  1  0
 24 25  1  0
 24 26  2  0
 26 27  1  0
 26 28  1  0
 28 29  1  0
 29 30  1  0
 29 31  1  0
 29 32  1  0
 32 33  1  0
 33 34  1  0
 33 35  1  0
 33 36  1  0
 36 37  1  0
 36 38  1  0
 36 39  1  0
 39 40  1  0
 40 41  1  0
 40 42  1  0
 40 43  1  0
 43 44  1  0
 43 45  1  0
 28 46  2  0
 46 47  1  0
 14 48  1  0
 48 49  1  0
 49 50  1  0
 49 51  1  0
 49 52  1  0
 48 53  1  0
 53 54  2  0
 54 55  1  0
 54 56  1  0
  8  3  2  0
 53 11  1  0
 46 21  1  0
 43 32  1  0
M  CHG  3   4  -1   7  -1  17  -1
M  END
>  <UniqueID>  (74) 
70

>  <SMILES>  (74) 
C=c1/c(=C/c2[n-]c(=O)[n-]c2O)cc(C(=O)[N-]Cc2cccc(CN3CCOCC3)c2)n1C

>  <Energy>  (74) 
134.27430417108536

>  <Genealogy>  (74) 
C=c1c(=Cc2[n-]c(=O)[n-]c2O)cc(C(=O)[N-]Cc2cccc(CN3CCOCC3)c2)n1C (protonated)
C=c1/c(=C/c2[n-]c(=O)[n-]c2O)cc(C(=O)[N-]Cc2cccc(CN3CCOCC3)c2)n1C (cis-trans isomerization)
C=c1/c(=C/c2[n-]c(=O)[n-]c2O)cc(C(=O)[N-]Cc2cccc(CN3CCOCC3)c2)n1C (3D coordinates assigned)
C=c1/c(=C/c2[n-]c(=O)[n-]c2O)cc(C(=O)[N-]Cc2cccc(CN3CCOCC3)c2)n1C (nonaromatic ring conformer: 134.27430417108536 kcal/mol)

>  <smiles>  (74) 
C=c1c(=Cc2[nH]c(=O)[nH]c2O)cc(C(=O)NCc2cccc(CN3CCOCC3)c2)n1C

>  <score_type>  (74) 
oracle

>  <origin>  (74) 
adg

>  <m_score__min__energy>  (74) 
-16.190000000000001

>  <m_primary>  (74) 
energy

$$$$
74:0
     RDKit          3D

 38 40  0  0  0  0  0  0  0  0999 V2000
   57.8648   32.7872   44.6013 H   0  0  0  0  0  0  0  0  0  0  0  0
   57.4040   31.8580   44.2350 C   0  0  0  0  0  0  0  0  0  0  0  0
   56.8100   30.9580   45.0630 N   0  0  0  0  0  0  0  0  0  0  0  0
   56.3040   29.9050   44.3860 C   0  0  0  0  0  0  0  0  0  0  0  0
   55.6900   28.9300   44.9930 N   0  0  0  0  0  0  0  0  0  0  0  0
   56.2730   27.7710   45.6140 C   0  0  0  0  0  0  0  0  0  0  0  0
   55.5630   26.7710   45.9040 O   0  0  0  0  0  0  0  0  0  0  0  0
   57.7250   27.7510   45.9180 C   0  0  0  0  0  0  0  0  0  0  0  0
   58.5310   26.6860   45.4780 C   0  0  0  0  0  0  0  0  0  0  0  0
   58.0796   25.8559   44.9148 H   0  0  0  0  0  0  0  0  0  0  0  0
   59.9000   26.6750   45.7510 C   0  0  0  0  0  0  0  0  0  0  0  0
   60.5229   25.8405   45.3966 H   0  0  0  0  0  0  0  0  0  0  0  0
   60.4810   27.7190   46.4720 C   0  0  0  0  0  0  0  0  0  0  0  0
   61.5624   27.7086   46.6733 H   0  0  0  0  0  0  0  0  0  0  0  0
   59.6960   28.7800   46.9410 C   0  0  0  0  0  0  0  0  0  0  0  0
   60.3220   29.8550   47.6630 N   0  0  0  0  0  0  0  0  0  0  0  0
   60.5310   29.7020   48.6750 H   0  0  0  0  0  0  0  0  0  0  0  0
   60.5570   31.1610   47.1100 C   0  0  0  0  0  0  0  0  0  0  0  0
   59.9650   31.5200   46.0570 O   0  0  0  0  0  0  0  0  0  0  0  0
   61.4610   32.1090   47.7860 C   0  0  0  0  0  0  0  0  0  0  0  0
   61.2420   32.7550   49.3270 S   0  0  0  0  0  0  0  0  0  0  0  0
   62.6530   33.6690   49.3350 C   0  0  0  0  0  0  0  0  0  0  0  0
   63.0690   34.5990   50.4250 C   0  0  0  0  0  0  0  0  0  0  0  0
   62.8619   34.1359   51.4010 H   0  0  0  0  0  0  0  0  0  0  0  0
   64.1458   34.8066   50.3388 H   0  0  0  0  0  0  0  0  0  0  0  0
   62.5061   35.5401   50.3388 H   0  0  0  0  0  0  0  0  0  0  0  0
   63.3050   33.5000   48.1200 C   0  0  0  0  0  0  0  0  0  0  0  0
   64.2459   34.0081   47.8621 H   0  0  0  0  0  0  0  0  0  0  0  0
   62.6440   32.6180   47.2570 C   0  0  0  0  0  0  0  0  0  0  0  0
   63.0222   32.3530   46.2586 H   0  0  0  0  0  0  0  0  0  0  0  0
   58.3200   28.8010   46.6450 C   0  0  0  0  0  0  0  0  0  0  0  0
   57.7029   29.6459   46.9848 H   0  0  0  0  0  0  0  0  0  0  0  0
   56.5690   30.0480   42.7220 S   0  0  0  0  0  0  0  0  0  0  0  0
   57.3830   31.5110   42.8880 C   0  0  0  0  0  0  0  0  0  0  0  0
   57.8900   32.3480   41.7620 C   0  0  0  0  0  0  0  0  0  0  0  0
   58.4202   33.2233   42.1655 H   0  0  0  0  0  0  0  0  0  0  0  0
   58.5800   31.7536   41.1451 H   0  0  0  0  0  0  0  0  0  0  0  0
   57.0436   32.6843   41.1451 H   0  0  0  0  0  0  0  0  0  0  0  0
  1  2  1  0
  2  3  1  0
  3  4  1  0
  4  5  2  0
  5  6  1  0
  6  7  2  0
  6  8  1  0
  8  9  2  0
  9 10  1  0
  9 11  1  0
 11 12  1  0
 11 13  2  0
 13 14  1  0
 13 15  1  0
 15 16  1  0
 16 17  1  0
 16 18  1  0
 18 19  2  0
 18 20  1  0
 20 21  1  0
 21 22  1  0
 22 23  1  0
 23 24  1  0
 23 25  1  0
 23 26  1  0
 22 27  2  0
 27 28  1  0
 27 29  1  0
 29 30  1  0
 15 31  2  0
 31 32  1  0
  4 33  1  0
 33 34  1  0
 34 35  1  0
 35 36  1  0
 35 37  1  0
 35 38  1  0
 34  2  2  0
 31  8  1  0
 29 20  2  0
M  CHG  1   3  -1
M  END
>  <UniqueID>  (75) 
71

>  <SMILES>  (75) 
Cc1ccc(C(=O)Nc2cccc(C(=O)/N=c3/[n-]cc(C)s3)c2)s1

>  <Energy>  (75) 
101.34789068222787

>  <Genealogy>  (75) 
Cc1ccc(C(=O)Nc2cccc(C(=O)N=c3[n-]cc(C)s3)c2)s1 (protonated)
Cc1ccc(C(=O)Nc2cccc(C(=O)/N=c3/[n-]cc(C)s3)c2)s1 (cis-trans isomerization)
Cc1ccc(C(=O)Nc2cccc(C(=O)/N=c3/[n-]cc(C)s3)c2)s1 (3D coordinates assigned)
Cc1ccc(C(=O)Nc2cccc(C(=O)/N=c3/[n-]cc(C)s3)c2)s1 (optimized conformer: 101.34789068222787 kcal/mol)

>  <smiles>  (75) 
Cc1ccc(C(=O)Nc2cccc(C(=O)N=c3[nH]cc(C)s3)c2)s1

>  <score_type>  (75) 
oracle

>  <origin>  (75) 
adg

>  <m_score__min__energy>  (75) 
-9.8100000000000005

>  <m_primary>  (75) 
energy

$$$$
75:0
     RDKit          3D

 57 60  0  0  0  0  0  0  0  0999 V2000
   58.5010   27.7330   47.5260 C   0  0  0  0  0  0  0  0  0  0  0  0
   59.6900   27.9310   46.6670 N   0  0  0  0  0  0  0  0  0  0  0  0
   59.6530   27.0870   45.4590 C   0  0  0  0  0  0  0  0  0  0  0  0
   58.5210   27.4600   44.4850 C   0  0  0  0  0  0  0  0  0  0  0  0
   58.1630   28.9260   44.4930 C   0  0  0  0  0  0  0  0  0  0  0  0
   57.1020   29.3680   43.6840 C   0  0  0  0  0  0  0  0  0  0  0  0
   56.7030   30.7010   43.7050 C   0  0  0  0  0  0  0  0  0  0  0  0
   57.3680   31.6160   44.5190 C   0  0  0  0  0  0  0  0  0  0  0  0
   58.4230   31.2050   45.3380 C   0  0  0  0  0  0  0  0  0  0  0  0
   59.1240   32.1750   46.1290 N   0  0  0  0  0  0  0  0  0  0  0  0
   58.4190   33.7100   46.5130 S   0  0  0  0  0  0  0  0  0  0  0  0
   58.4340   34.5720   45.2820 O   0  0  0  0  0  0  0  0  0  0  0  0
   56.9990   33.5300   46.9670 O   0  0  0  0  0  0  0  0  0  0  0  0
   59.3920   34.4920   47.7850 C   0  0  0  0  0  0  0  0  0  0  0  0
   60.7650   33.8650   47.8550 C   0  0  0  0  0  0  0  0  0  0  0  0
   61.5760   33.9010   46.7050 C   0  0  0  0  0  0  0  0  0  0  0  0
   62.8830   33.4160   46.7410 C   0  0  0  0  0  0  0  0  0  0  0  0
   63.4050   32.9010   47.9270 C   0  0  0  0  0  0  0  0  0  0  0  0
   62.6200   32.8650   49.0800 C   0  0  0  0  0  0  0  0  0  0  0  0
   61.2970   33.3380   49.0590 C   0  0  0  0  0  0  0  0  0  0  0  0
   60.5080   33.2640   50.3050 C   0  0  0  0  0  0  0  0  0  0  0  0
   60.6630   34.1670   51.1700 O   0  0  0  0  0  0  0  0  0  0  0  0
   59.5950   32.1730   50.5510 N   0  0  0  0  0  0  0  0  0  0  0  0
   58.5870   32.2890   51.6030 C   0  0  0  0  0  0  0  0  0  0  0  0
   57.3820   31.4200   51.2560 C   0  0  0  0  0  0  0  0  0  0  0  0
   57.7810   30.0850   51.0070 O   0  0  0  0  0  0  0  0  0  0  0  0
   58.5870   30.0350   49.8470 C   0  0  0  0  0  0  0  0  0  0  0  0
   59.8880   30.8280   50.0420 C   0  0  0  0  0  0  0  0  0  0  0  0
   58.7980   29.8400   45.3570 C   0  0  0  0  0  0  0  0  0  0  0  0
   59.8700   29.3450   46.2980 C   0  0  0  0  0  0  0  0  0  0  0  0
   58.8002   27.7828   48.5834 H   0  0  0  0  0  0  0  0  0  0  0  0
   57.7621   28.5205   47.3165 H   0  0  0  0  0  0  0  0  0  0  0  0
   58.0571   26.7486   47.3165 H   0  0  0  0  0  0  0  0  0  0  0  0
   60.6134   27.1898   44.9327 H   0  0  0  0  0  0  0  0  0  0  0  0
   59.4680   26.0546   45.7906 H   0  0  0  0  0  0  0  0  0  0  0  0
   58.8361   27.1864   43.4672 H   0  0  0  0  0  0  0  0  0  0  0  0
   57.6254   26.9118   44.8127 H   0  0  0  0  0  0  0  0  0  0  0  0
   56.5824   28.6538   43.0283 H   0  0  0  0  0  0  0  0  0  0  0  0
   55.8619   31.0328   43.0785 H   0  0  0  0  0  0  0  0  0  0  0  0
   57.0595   32.6718   44.5168 H   0  0  0  0  0  0  0  0  0  0  0  0
   59.9410   31.8670   46.7160 H   0  0  0  0  0  0  0  0  0  0  0  0
   59.4935   35.5633   47.5571 H   0  0  0  0  0  0  0  0  0  0  0  0
   58.8880   34.3589   48.7537 H   0  0  0  0  0  0  0  0  0  0  0  0
   61.1748   34.3159   45.7686 H   0  0  0  0  0  0  0  0  0  0  0  0
   63.5029   33.4397   45.8326 H   0  0  0  0  0  0  0  0  0  0  0  0
   64.4375   32.5224   47.9537 H   0  0  0  0  0  0  0  0  0  0  0  0
   63.0405   32.4628   50.0135 H   0  0  0  0  0  0  0  0  0  0  0  0
   59.0159   31.9550   52.5593 H   0  0  0  0  0  0  0  0  0  0  0  0
   58.2679   33.3382   51.6888 H   0  0  0  0  0  0  0  0  0  0  0  0
   56.6731   31.4338   52.0970 H   0  0  0  0  0  0  0  0  0  0  0  0
   56.9070   31.8214   50.3487 H   0  0  0  0  0  0  0  0  0  0  0  0
   58.8353   28.9862   49.6271 H   0  0  0  0  0  0  0  0  0  0  0  0
   58.0268   30.4831   49.0131 H   0  0  0  0  0  0  0  0  0  0  0  0
   60.5302   30.2997   50.7621 H   0  0  0  0  0  0  0  0  0  0  0  0
   60.4009   30.9167   49.0729 H   0  0  0  0  0  0  0  0  0  0  0  0
   60.8486   29.4597   45.8090 H   0  0  0  0  0  0  0  0  0  0  0  0
   59.8052   29.9411   47.2202 H   0  0  0  0  0  0  0  0  0  0  0  0
  1  2  1  0
  2  3  1  0
  3  4  1  0
  4  5  1  0
  5  6  2  0
  6  7  1  0
  7  8  2  0
  8  9  1  0
  9 10  1  0
 10 11  1  0
 11 12  2  0
 11 13  2  0
 11 14  1  0
 14 15  1  0
 15 16  2  0
 16 17  1  0
 17 18  2  0
 18 19  1  0
 19 20  2  0
 20 21  1  0
 21 22  2  0
 21 23  1  0
 23 24  1  0
 24 25  1  0
 25 26  1  0
 26 27  1  0
 27 28  1  0
  9 29  2  0
 29 30  1  0
 30  2  1  0
 29  5  1  0
 20 15  1  0
 28 23  1  0
  1 31  1  0
  1 32  1  0
  1 33  1  0
  3 34  1  0
  3 35  1  0
  4 36  1  0
  4 37  1  0
  6 38  1  0
  7 39  1  0
  8 40  1  0
 10 41  1  0
 14 42  1  0
 14 43  1  0
 16 44  1  0
 17 45  1  0
 18 46  1  0
 19 47  1  0
 24 48  1  0
 24 49  1  0
 25 50  1  0
 25 51  1  0
 27 52  1  0
 27 53  1  0
 28 54  1  0
 28 55  1  0
 30 56  1  0
 30 57  1  0
M  END
>  <UniqueID>  (76) 
72

>  <SMILES>  (76) 
CN1CCc2cccc(NS(=O)(=O)Cc3ccccc3C(=O)N3CCOCC3)c2C1

>  <Energy>  (76) 
71.92952466204802

>  <Genealogy>  (76) 
CN1CCc2cccc(NS(=O)(=O)Cc3ccccc3C(=O)N3CCOCC3)c2C1 (3D coordinates assigned)
CN1CCc2cccc(NS(=O)(=O)Cc3ccccc3C(=O)N3CCOCC3)c2C1 (nonaromatic ring conformer: 71.92952466204802 kcal/mol)

>  <smiles>  (76) 
CN1CCc2cccc(NS(=O)(=O)Cc3ccccc3C(=O)N3CCOCC3)c2C1

>  <score_type>  (76) 
oracle

>  <origin>  (76) 
adg

>  <m_score__min__energy>  (76) 
-11.02

>  <m_primary>  (76) 
energy

$$$$
76:0
     RDKit          3D

 28 29  0  0  0  0  0  0  0  0999 V2000
   56.4070   19.9760   47.2960 H   0  0  0  0  0  0  0  0  0  0  0  0
   56.2500   20.0590   46.2990 O   0  0  0  0  0  0  0  0  0  0  0  0
   56.5440   21.2270   45.5960 C   0  0  0  0  0  0  0  0  0  0  0  0
   56.3040   21.2680   44.2190 C   0  0  0  0  0  0  0  0  0  0  0  0
   55.8945   20.3845   43.7075 H   0  0  0  0  0  0  0  0  0  0  0  0
   56.5820   22.4250   43.4920 C   0  0  0  0  0  0  0  0  0  0  0  0
   56.3862   22.4529   42.4099 H   0  0  0  0  0  0  0  0  0  0  0  0
   57.1080   23.5480   44.1330 C   0  0  0  0  0  0  0  0  0  0  0  0
   57.3181   24.4589   43.5532 H   0  0  0  0  0  0  0  0  0  0  0  0
   57.3720   23.5240   45.5170 C   0  0  0  0  0  0  0  0  0  0  0  0
   57.9160   24.7100   46.2260 C   0  0  0  0  0  0  0  0  0  0  0  0
   58.2253   24.5935   47.2752 H   0  0  0  0  0  0  0  0  0  0  0  0
   58.0500   25.9160   45.6540 C   0  0  0  0  0  0  0  0  0  0  0  0
   58.9281   26.1032   45.0185 H   0  0  0  0  0  0  0  0  0  0  0  0
   57.0670   27.0040   45.8420 C   0  0  0  0  0  0  0  0  0  0  0  0
   55.8950   26.6960   46.1880 O   0  0  0  0  0  0  0  0  0  0  0  0
   57.4000   28.4340   45.6500 C   0  0  0  0  0  0  0  0  0  0  0  0
   56.4480   29.3620   45.1820 C   0  0  0  0  0  0  0  0  0  0  0  0
   55.1460   28.9670   44.8980 O   0  0  0  0  0  0  0  0  0  0  0  0
   56.7930   30.6690   45.0250 N   0  0  0  0  0  0  0  0  0  0  0  0
   58.0390   31.1250   45.3190 C   0  0  0  0  0  0  0  0  0  0  0  0
   58.3160   32.3420   45.1530 O   0  0  0  0  0  0  0  0  0  0  0  0
   59.0070   30.2440   45.8080 C   0  0  0  0  0  0  0  0  0  0  0  0
   60.0155   30.6078   46.0541 H   0  0  0  0  0  0  0  0  0  0  0  0
   58.6820   28.8990   45.9810 C   0  0  0  0  0  0  0  0  0  0  0  0
   59.4330   28.2003   46.3782 H   0  0  0  0  0  0  0  0  0  0  0  0
   57.0750   22.3540   46.2470 C   0  0  0  0  0  0  0  0  0  0  0  0
   57.3150   22.3050   47.6190 O   0  0  0  0  0  0  0  0  0  0  0  0
  1  2  1  0
  2  3  1  0
  3  4  2  0
  4  5  1  0
  4  6  1  0
  6  7  1  0
  6  8  2  0
  8  9  1  0
  8 10  1  0
 10 11  1  0
 11 12  1  0
 11 13  2  0
 13 14  1  0
 13 15  1  0
 15 16  2  0
 15 17  1  0
 17 18  2  0
 18 19  1  0
 18 20  1  0
 20 21  1  0
 21 22  2  0
 21 23  1  0
 23 24  1  0
 23 25  2  0
 25 26  1  0
 10 27  2  0
 27 28  1  0
 27  3  1  0
 25 17  1  0
M  CHG  3  19  -1  20  -1  28  -1
M  END
>  <UniqueID>  (77) 
73

>  <SMILES>  (77) 
O=C(/C=C/c1cccc(O)c1[O-])c1ccc(=O)[n-]c1[O-]

>  <Energy>  (77) 
39.638440281599685

>  <Genealogy>  (77) 
O=C(C=Cc1cccc(O)c1[O-])c1ccc(=O)[n-]c1[O-] (protonated)
O=C(/C=C/c1cccc(O)c1[O-])c1ccc(=O)[n-]c1[O-] (cis-trans isomerization)
O=C(/C=C/c1cccc(O)c1[O-])c1ccc(=O)[n-]c1[O-] (3D coordinates assigned)
O=C(/C=C/c1cccc(O)c1[O-])c1ccc(=O)[n-]c1[O-] (optimized conformer: 39.638440281599685 kcal/mol)

>  <smiles>  (77) 
O=C(C=Cc1cccc(O)c1O)c1ccc(=O)[nH]c1O

>  <score_type>  (77) 
oracle

>  <origin>  (77) 
adg

>  <m_score__min__energy>  (77) 
-15.460000000000001

>  <m_primary>  (77) 
energy

$$$$
77:0
     RDKit          3D

 52 55  0  0  0  0  0  0  0  0999 V2000
   57.3560   28.5810   43.1040 C   0  0  0  0  0  0  0  0  0  0  0  0
   57.7400   29.4730   44.0310 C   0  0  0  0  0  0  0  0  0  0  0  0
   58.3490   29.2000   45.2660 C   0  0  0  0  0  0  0  0  0  0  0  0
   58.5320   28.0390   45.9270 C   0  0  0  0  0  0  0  0  0  0  0  0
   57.5230   26.9840   46.1040 C   0  0  0  0  0  0  0  0  0  0  0  0
   57.7650   25.8250   46.7400 N   0  0  0  0  0  0  0  0  0  0  0  0
   56.5500   25.2340   46.7830 C   0  0  0  0  0  0  0  0  0  0  0  0
   56.3680   24.1000   47.2980 O   0  0  0  0  0  0  0  0  0  0  0  0
   55.5460   25.9570   46.2440 N   0  0  0  0  0  0  0  0  0  0  0  0
   56.1750   27.0700   45.8320 C   0  0  0  0  0  0  0  0  0  0  0  0
   55.5270   28.1500   45.2470 O   0  0  0  0  0  0  0  0  0  0  0  0
   58.7710   30.4190   45.7660 C   0  0  0  0  0  0  0  0  0  0  0  0
   58.3660   31.3850   44.8680 C   0  0  0  0  0  0  0  0  0  0  0  0
   58.5840   32.8600   45.0600 C   0  0  0  0  0  0  0  0  0  0  0  0
   58.5110   33.2170   46.5220 C   0  0  0  0  0  0  0  0  0  0  0  0
   57.4000   33.5830   46.9970 O   0  0  0  0  0  0  0  0  0  0  0  0
   59.6670   33.1480   47.3820 N   0  0  0  0  0  0  0  0  0  0  0  0
   59.6700   33.9000   48.6430 C   0  0  0  0  0  0  0  0  0  0  0  0
   61.0930   34.3400   49.0010 C   0  0  0  0  0  0  0  0  0  0  0  0
   62.0350   33.2110   48.9590 N   0  0  0  0  0  0  0  0  0  0  0  0
   63.2950   33.3060   49.6630 C   0  0  0  0  0  0  0  0  0  0  0  0
   64.4480   32.6720   49.1600 C   0  0  0  0  0  0  0  0  0  0  0  0
   65.6620   32.7580   49.8480 C   0  0  0  0  0  0  0  0  0  0  0  0
   65.7410   33.4750   51.0440 C   0  0  0  0  0  0  0  0  0  0  0  0
   66.9200   33.5560   51.7090 F   0  0  0  0  0  0  0  0  0  0  0  0
   64.6050   34.1060   51.5540 C   0  0  0  0  0  0  0  0  0  0  0  0
   63.3880   34.0220   50.8710 C   0  0  0  0  0  0  0  0  0  0  0  0
   61.6440   31.9530   48.3060 C   0  0  0  0  0  0  0  0  0  0  0  0
   60.7720   32.2260   47.0750 C   0  0  0  0  0  0  0  0  0  0  0  0
   57.7140   30.8160   43.8270 N   0  0  0  0  0  0  0  0  0  0  0  0
   57.1870   31.5110   42.6470 C   0  0  0  0  0  0  0  0  0  0  0  0
   56.8866   28.9252   42.1707 H   0  0  0  0  0  0  0  0  0  0  0  0
   57.5108   27.5059   43.2778 H   0  0  0  0  0  0  0  0  0  0  0  0
   59.5226   27.8660   46.3728 H   0  0  0  0  0  0  0  0  0  0  0  0
   59.3244   30.5863   46.7018 H   0  0  0  0  0  0  0  0  0  0  0  0
   59.5753   33.1335   44.6694 H   0  0  0  0  0  0  0  0  0  0  0  0
   57.7993   33.4095   44.5194 H   0  0  0  0  0  0  0  0  0  0  0  0
   59.0321   34.7897   48.5356 H   0  0  0  0  0  0  0  0  0  0  0  0
   59.2852   33.2525   49.4447 H   0  0  0  0  0  0  0  0  0  0  0  0
   61.4213   35.1058   48.2829 H   0  0  0  0  0  0  0  0  0  0  0  0
   61.0819   34.7412   50.0251 H   0  0  0  0  0  0  0  0  0  0  0  0
   64.3927   32.1051   48.2190 H   0  0  0  0  0  0  0  0  0  0  0  0
   66.5569   32.2599   49.4465 H   0  0  0  0  0  0  0  0  0  0  0  0
   64.6676   34.6708   52.4958 H   0  0  0  0  0  0  0  0  0  0  0  0
   62.4965   34.5193   51.2809 H   0  0  0  0  0  0  0  0  0  0  0  0
   62.5496   31.4123   47.9936 H   0  0  0  0  0  0  0  0  0  0  0  0
   61.0652   31.3500   49.0211 H   0  0  0  0  0  0  0  0  0  0  0  0
   61.3977   32.6700   46.2868 H   0  0  0  0  0  0  0  0  0  0  0  0
   60.3385   31.2707   46.7443 H   0  0  0  0  0  0  0  0  0  0  0  0
   56.5514   32.3492   42.9686 H   0  0  0  0  0  0  0  0  0  0  0  0
   58.0229   31.8951   42.0439 H   0  0  0  0  0  0  0  0  0  0  0  0
   56.5916   30.8097   42.0439 H   0  0  0  0  0  0  0  0  0  0  0  0
  1  2  2  0
  2  3  1  0
  3  4  2  3
  4  5  1  0
  5  6  1  0
  6  7  1  0
  7  8  2  0
  7  9  1  0
  9 10  1  0
 10 11  1  0
  3 12  1  0
 12 13  2  0
 13 14  1  0
 14 15  1  0
 15 16  2  0
 15 17  1  0
 17 18  1  0
 18 19  1  0
 19 20  1  0
 20 21  1  0
 21 22  2  0
 22 23  1  0
 23 24  2  0
 24 25  1  0
 24 26  1  0
 26 27  2  0
 20 28  1  0
 28 29  1  0
 13 30  1  0
 30 31  1  0
 30  2  1  0
 10  5  2  0
 29 17  1  0
 27 21  1  0
  1 32  1  0
  1 33  1  0
  4 34  1  0
 12 35  1  0
 14 36  1  0
 14 37  1  0
 18 38  1  0
 18 39  1  0
 19 40  1  0
 19 41  1  0
 22 42  1  0
 23 43  1  0
 26 44  1  0
 27 45  1  0
 28 46  1  0
 28 47  1  0
 29 48  1  0
 29 49  1  0
 31 50  1  0
 31 51  1  0
 31 52  1  0
M  CHG  3   6  -1   9  -1  11  -1
M  END
>  <UniqueID>  (78) 
74

>  <SMILES>  (78) 
C=c1c(=Cc2[n-]c(=O)[n-]c2[O-])cc(CC(=O)N2CCN(c3ccc(F)cc3)CC2)n1C

>  <Energy>  (78) 
128.13776154887222

>  <Genealogy>  (78) 
C=c1c(=Cc2[n-]c(=O)[n-]c2[O-])cc(CC(=O)N2CCN(c3ccc(F)cc3)CC2)n1C (protonated)
C=c1c(=Cc2[n-]c(=O)[n-]c2[O-])cc(CC(=O)N2CCN(c3ccc(F)cc3)CC2)n1C (3D coordinates assigned)
C=c1c(=Cc2[n-]c(=O)[n-]c2[O-])cc(CC(=O)N2CCN(c3ccc(F)cc3)CC2)n1C (nonaromatic ring conformer: 128.13776154887222 kcal/mol)

>  <smiles>  (78) 
C=c1c(=Cc2[nH]c(=O)[nH]c2O)cc(CC(=O)N2CCN(c3ccc(F)cc3)CC2)n1C

>  <score_type>  (78) 
oracle

>  <origin>  (78) 
adg

>  <m_score__min__energy>  (78) 
-17.649999999999999

>  <m_primary>  (78) 
energy

$$$$
78:0
     RDKit          3D

 60 61  0  0  0  0  0  0  0  0999 V2000
   59.1173   29.6707   47.0423 H   0  0  0  0  0  0  0  0  0  0  0  0
   58.7760   30.7040   47.2030 C   0  0  0  0  0  0  0  0  0  0  0  0
   58.6679   31.0948   48.2255 H   0  0  0  0  0  0  0  0  0  0  0  0
   58.4890   31.4950   46.1420 C   0  0  0  0  0  0  0  0  0  0  0  0
   58.0430   32.8450   46.3460 C   0  0  0  0  0  0  0  0  0  0  0  0
   58.2660   33.5780   47.4760 C   0  0  0  0  0  0  0  0  0  0  0  0
   57.4530   34.2364   47.8159 H   0  0  0  0  0  0  0  0  0  0  0  0
   59.5040   33.5640   48.2820 C   0  0  0  0  0  0  0  0  0  0  0  0
   60.8100   33.6590   47.8170 C   0  0  0  0  0  0  0  0  0  0  0  0
   61.2530   33.8250   46.3900 C   0  0  0  0  0  0  0  0  0  0  0  0
   62.2829   34.2109   46.3683 H   0  0  0  0  0  0  0  0  0  0  0  0
   61.2153   32.8517   45.8788 H   0  0  0  0  0  0  0  0  0  0  0  0
   60.5850   34.5338   45.8788 H   0  0  0  0  0  0  0  0  0  0  0  0
   61.6340   33.6170   48.9380 C   0  0  0  0  0  0  0  0  0  0  0  0
   63.1170   33.6680   48.9280 C   0  0  0  0  0  0  0  0  0  0  0  0
   63.7250   34.1780   49.9070 O   0  0  0  0  0  0  0  0  0  0  0  0
   63.9210   33.1130   47.7950 C   0  0  0  0  0  0  0  0  0  0  0  0
   64.7644   32.5308   48.1946 H   0  0  0  0  0  0  0  0  0  0  0  0
   63.2846   32.4609   47.1787 H   0  0  0  0  0  0  0  0  0  0  0  0
   64.3051   33.9392   47.1787 H   0  0  0  0  0  0  0  0  0  0  0  0
   60.7790   33.5170   50.0370 C   0  0  0  0  0  0  0  0  0  0  0  0
   61.1690   33.3890   51.4760 C   0  0  0  0  0  0  0  0  0  0  0  0
   60.3170   33.6686   52.1131 H   0  0  0  0  0  0  0  0  0  0  0  0
   61.4583   32.3488   51.6864 H   0  0  0  0  0  0  0  0  0  0  0  0
   62.0184   34.0555   51.6864 H   0  0  0  0  0  0  0  0  0  0  0  0
   59.4960   33.5040   49.6270 N   0  0  0  0  0  0  0  0  0  0  0  0
   58.6490   33.4320   50.2350 H   0  0  0  0  0  0  0  0  0  0  0  0
   57.3740   33.4690   45.2730 C   0  0  0  0  0  0  0  0  0  0  0  0
   56.8300   34.6000   45.4040 O   0  0  0  0  0  0  0  0  0  0  0  0
   57.3500   32.8830   44.0600 N   0  0  0  0  0  0  0  0  0  0  0  0
   57.9340   31.6880   43.8270 C   0  0  0  0  0  0  0  0  0  0  0  0
   57.9280   31.2390   42.6470 O   0  0  0  0  0  0  0  0  0  0  0  0
   58.5040   30.9730   44.8540 N   0  0  0  0  0  0  0  0  0  0  0  0
   59.0900   29.6430   44.5430 C   0  0  0  0  0  0  0  0  0  0  0  0
   59.8450   29.7644   43.7522 H   0  0  0  0  0  0  0  0  0  0  0  0
   59.5383   29.2466   45.4660 H   0  0  0  0  0  0  0  0  0  0  0  0
   58.0250   28.6370   44.0630 C   0  0  0  0  0  0  0  0  0  0  0  0
   57.7002   28.9234   43.0518 H   0  0  0  0  0  0  0  0  0  0  0  0
   58.4826   27.6368   44.0740 H   0  0  0  0  0  0  0  0  0  0  0  0
   56.7970   28.5960   44.9800 C   0  0  0  0  0  0  0  0  0  0  0  0
   56.6145   29.6043   45.3800 H   0  0  0  0  0  0  0  0  0  0  0  0
   55.9350   28.2494   44.3911 H   0  0  0  0  0  0  0  0  0  0  0  0
   57.0060   27.6300   46.1430 C   0  0  0  0  0  0  0  0  0  0  0  0
   57.9348   27.0620   45.9859 H   0  0  0  0  0  0  0  0  0  0  0  0
   57.0784   28.1968   47.0829 H   0  0  0  0  0  0  0  0  0  0  0  0
   55.9050   26.7300   46.2140 O   0  0  0  0  0  0  0  0  0  0  0  0
   55.9590   25.4270   45.7140 C   0  0  0  0  0  0  0  0  0  0  0  0
   55.4640   24.4690   46.3720 O   0  0  0  0  0  0  0  0  0  0  0  0
   56.5870   25.1890   44.4510 N   0  0  0  0  0  0  0  0  0  0  0  0
   57.0640   25.9950   43.9870 H   0  0  0  0  0  0  0  0  0  0  0  0
   56.6050   23.8660   43.8150 C   0  0  0  0  0  0  0  0  0  0  0  0
   57.0827   23.9532   42.8280 H   0  0  0  0  0  0  0  0  0  0  0  0
   55.1760   23.3520   43.6240 C   0  0  0  0  0  0  0  0  0  0  0  0
   54.7119   23.1851   44.6072 H   0  0  0  0  0  0  0  0  0  0  0  0
   54.5906   24.0959   43.0638 H   0  0  0  0  0  0  0  0  0  0  0  0
   55.1985   22.4056   43.0638 H   0  0  0  0  0  0  0  0  0  0  0  0
   57.4130   22.8820   44.6690 C   0  0  0  0  0  0  0  0  0  0  0  0
   57.2396   23.0931   45.7345 H   0  0  0  0  0  0  0  0  0  0  0  0
   57.0954   21.8535   44.4426 H   0  0  0  0  0  0  0  0  0  0  0  0
   58.4837   22.9934   44.4426 H   0  0  0  0  0  0  0  0  0  0  0  0
  1  2  1  0
  2  3  1  0
  2  4  2  0
  4  5  1  0
  5  6  2  0
  6  7  1  0
  6  8  1  0
  8  9  2  0
  9 10  1  0
 10 11  1  0
 10 12  1  0
 10 13  1  0
  9 14  1  0
 14 15  1  0
 15 16  2  0
 15 17  1  0
 17 18  1  0
 17 19  1  0
 17 20  1  0
 14 21  2  0
 21 22  1  0
 22 23  1  0
 22 24  1  0
 22 25  1  0
 21 26  1  0
 26 27  1  0
  5 28  1  0
 28 29  2  0
 28 30  1  0
 30 31  1  0
 31 32  2  0
 31 33  1  0
 33 34  1  0
 34 35  1  0
 34 36  1  0
 34 37  1  0
 37 38  1  0
 37 39  1  0
 37 40  1  0
 40 41  1  0
 40 42  1  0
 40 43  1  0
 43 44  1  0
 43 45  1  0
 43 46  1  0
 46 47  1  0
 47 48  2  0
 47 49  1  0
 49 50  1  0
 49 51  1  0
 51 52  1  0
 51 53  1  0
 53 54  1  0
 53 55  1  0
 53 56  1  0
 51 57  1  0
 57 58  1  0
 57 59  1  0
 57 60  1  0
 33  4  1  0
 26  8  1  0
M  CHG  1  30  -1
M  END
>  <UniqueID>  (79) 
75

>  <SMILES>  (79) 
C=c1/c(=C\c2[nH]c(C)c(C(C)=O)c2C)c(=O)[n-]c(=O)n1CCCCOC(=O)NC(C)C

>  <Energy>  (79) 
104.16436855208475

>  <Genealogy>  (79) 
C=c1c(=Cc2[nH]c(C)c(C(C)=O)c2C)c(=O)[n-]c(=O)n1CCCCOC(=O)NC(C)C (protonated)
C=c1/c(=C\c2[nH]c(C)c(C(C)=O)c2C)c(=O)[n-]c(=O)n1CCCCOC(=O)NC(C)C (cis-trans isomerization)
C=c1/c(=C\c2[nH]c(C)c(C(C)=O)c2C)c(=O)[n-]c(=O)n1CCCCOC(=O)NC(C)C (3D coordinates assigned)
C=c1/c(=C\c2[nH]c(C)c(C(C)=O)c2C)c(=O)[n-]c(=O)n1CCCCOC(=O)NC(C)C (optimized conformer: 104.16436855208475 kcal/mol)

>  <smiles>  (79) 
C=c1c(=Cc2[nH]c(C)c(C(C)=O)c2C)c(=O)[nH]c(=O)n1CCCCOC(=O)NC(C)C

>  <score_type>  (79) 
oracle

>  <origin>  (79) 
adg

>  <m_score__min__energy>  (79) 
-10.289999999999999

>  <m_primary>  (79) 
energy

$$$$
79:0
     RDKit          3D

 20 20  0  0  0  0  0  0  0  0999 V2000
   57.7950   32.1060   42.6710 C   0  0  0  0  0  0  0  0  0  0  0  0
   57.4350   31.2800   43.6580 C   0  0  0  0  0  0  0  0  0  0  0  0
   56.9430   29.8870   43.3860 C   0  0  0  0  0  0  0  0  0  0  0  0
   56.3330   29.2830   44.6270 C   0  0  0  0  0  0  0  0  0  0  0  0
   55.1540   29.4900   44.8720 O   0  0  0  0  0  0  0  0  0  0  0  0
   57.1400   28.4360   45.5830 C   0  0  0  0  0  0  0  0  0  0  0  0
   58.5180   28.1700   45.0710 C   0  0  0  0  0  0  0  0  0  0  0  0
   59.3820   29.0580   44.8460 O   0  0  0  0  0  0  0  0  0  0  0  0
   58.7420   26.7410   44.8810 C   0  0  0  0  0  0  0  0  0  0  0  0
   57.6470   26.0810   45.2230 C   0  0  0  0  0  0  0  0  0  0  0  0
   56.6320   27.0330   45.6610 C   0  0  0  0  0  0  0  0  0  0  0  0
   55.4860   26.7080   46.0680 O   0  0  0  0  0  0  0  0  0  0  0  0
   58.1511   33.1202   42.9049 H   0  0  0  0  0  0  0  0  0  0  0  0
   57.7352   31.7717   41.6247 H   0  0  0  0  0  0  0  0  0  0  0  0
   57.5008   31.6300   44.6988 H   0  0  0  0  0  0  0  0  0  0  0  0
   56.1837   29.9214   42.5909 H   0  0  0  0  0  0  0  0  0  0  0  0
   57.7958   29.2662   43.0740 H   0  0  0  0  0  0  0  0  0  0  0  0
   57.0908   29.0032   46.5242 H   0  0  0  0  0  0  0  0  0  0  0  0
   59.6726   26.2848   44.5123 H   0  0  0  0  0  0  0  0  0  0  0  0
   57.5221   24.9888   45.1833 H   0  0  0  0  0  0  0  0  0  0  0  0
  1  2  2  0
  2  3  1  0
  3  4  1  0
  4  5  2  0
  4  6  1  0
  6  7  1  0
  7  8  2  0
  7  9  1  0
  9 10  2  0
 10 11  1  0
 11 12  2  0
 11  6  1  0
  1 13  1  0
  1 14  1  0
  2 15  1  0
  3 16  1  0
  3 17  1  0
  6 18  1  0
  9 19  1  0
 10 20  1  0
M  END
>  <UniqueID>  (80) 
76

>  <SMILES>  (80) 
C=CCC(=O)C1C(=O)C=CC1=O

>  <Energy>  (80) 
27.244851374592596

>  <Genealogy>  (80) 
C=CCC(=O)C1C(=O)C=CC1=O (3D coordinates assigned)
C=CCC(=O)C1C(=O)C=CC1=O (nonaromatic ring conformer: 27.244851374592596 kcal/mol)

>  <smiles>  (80) 
C=CCC(=O)C1C(=O)C=CC1=O

>  <score_type>  (80) 
oracle

>  <origin>  (80) 
adg

>  <m_score__min__energy>  (80) 
-5.6100000000000003

>  <m_primary>  (80) 
energy

$$$$
80:0
     RDKit          3D

 59 62  0  0  0  0  0  0  0  0999 V2000
   56.0497   29.7511   44.7196 H   0  0  0  0  0  0  0  0  0  0  0  0
   56.5600   29.0080   45.3500 C   0  0  0  0  0  0  0  0  0  0  0  0
   56.0280   27.7650   45.5000 N   0  0  0  0  0  0  0  0  0  0  0  0
   56.6320   26.7990   46.2450 C   0  0  0  0  0  0  0  0  0  0  0  0
   56.0380   25.6420   46.3560 N   0  0  0  0  0  0  0  0  0  0  0  0
   56.1870   24.5000   45.4980 C   0  0  0  0  0  0  0  0  0  0  0  0
   55.2450   24.2750   44.4890 C   0  0  0  0  0  0  0  0  0  0  0  0
   54.3789   24.9457   44.3891 H   0  0  0  0  0  0  0  0  0  0  0  0
   55.3990   23.2030   43.6080 C   0  0  0  0  0  0  0  0  0  0  0  0
   54.6434   23.0207   42.8297 H   0  0  0  0  0  0  0  0  0  0  0  0
   56.5100   22.3600   43.7110 C   0  0  0  0  0  0  0  0  0  0  0  0
   56.6193   21.5104   43.0209 H   0  0  0  0  0  0  0  0  0  0  0  0
   57.4890   22.5950   44.6950 C   0  0  0  0  0  0  0  0  0  0  0  0
   58.6580   21.7640   44.8120 N   0  0  0  0  0  0  0  0  0  0  0  0
   58.5370   20.7290   44.8930 H   0  0  0  0  0  0  0  0  0  0  0  0
   60.0180   22.2910   44.8530 C   0  0  0  0  0  0  0  0  0  0  0  0
   60.3326   22.4129   45.9000 H   0  0  0  0  0  0  0  0  0  0  0  0
   60.6979   21.5912   44.3450 H   0  0  0  0  0  0  0  0  0  0  0  0
   60.0488   23.2662   44.3450 H   0  0  0  0  0  0  0  0  0  0  0  0
   57.3220   23.6750   45.5790 C   0  0  0  0  0  0  0  0  0  0  0  0
   58.0879   23.8767   46.3424 H   0  0  0  0  0  0  0  0  0  0  0  0
   57.8480   27.0950   46.8910 C   0  0  0  0  0  0  0  0  0  0  0  0
   58.3486   26.3323   47.5056 H   0  0  0  0  0  0  0  0  0  0  0  0
   58.4130   28.3620   46.7460 C   0  0  0  0  0  0  0  0  0  0  0  0
   59.3779   28.5905   47.2223 H   0  0  0  0  0  0  0  0  0  0  0  0
   57.7550   29.3430   45.9960 C   0  0  0  0  0  0  0  0  0  0  0  0
   58.3570   30.6840   45.8440 C   0  0  0  0  0  0  0  0  0  0  0  0
   58.9120   30.9420   44.7400 O   0  0  0  0  0  0  0  0  0  0  0  0
   58.3330   31.7100   46.8800 N   0  0  0  0  0  0  0  0  0  0  0  0
   57.3360   31.7660   47.2000 H   0  0  0  0  0  0  0  0  0  0  0  0
   59.1410   31.4390   48.0930 C   0  0  0  0  0  0  0  0  0  0  0  0
   58.8485   32.1569   48.8734 H   0  0  0  0  0  0  0  0  0  0  0  0
   58.9425   30.3979   48.3873 H   0  0  0  0  0  0  0  0  0  0  0  0
   60.6590   31.5620   47.8620 C   0  0  0  0  0  0  0  0  0  0  0  0
   61.1686   31.5865   48.8365 H   0  0  0  0  0  0  0  0  0  0  0  0
   60.9906   30.6962   47.2700 H   0  0  0  0  0  0  0  0  0  0  0  0
   60.9900   32.7840   47.1190 N   0  0  0  0  0  0  0  0  0  0  0  0
   62.3320   33.3060   47.1980 C   0  0  0  0  0  0  0  0  0  0  0  0
   62.9190   33.6860   46.1490 O   0  0  0  0  0  0  0  0  0  0  0  0
   63.0550   33.3810   48.4870 C   0  0  0  0  0  0  0  0  0  0  0  0
   64.4220   33.0580   48.5090 C   0  0  0  0  0  0  0  0  0  0  0  0
   64.9321   32.7808   47.5747 H   0  0  0  0  0  0  0  0  0  0  0  0
   65.1390   33.0860   49.7080 C   0  0  0  0  0  0  0  0  0  0  0  0
   66.2084   32.8284   49.7146 H   0  0  0  0  0  0  0  0  0  0  0  0
   64.5010   33.4400   50.8960 C   0  0  0  0  0  0  0  0  0  0  0  0
   65.0647   33.4485   51.8405 H   0  0  0  0  0  0  0  0  0  0  0  0
   63.1470   33.7840   50.8890 C   0  0  0  0  0  0  0  0  0  0  0  0
   62.6499   34.0618   51.8301 H   0  0  0  0  0  0  0  0  0  0  0  0
   62.4140   33.7780   49.6880 C   0  0  0  0  0  0  0  0  0  0  0  0
   60.9680   34.1990   49.7130 C   0  0  0  0  0  0  0  0  0  0  0  0
   60.6325   34.2967   50.7560 H   0  0  0  0  0  0  0  0  0  0  0  0
   60.8588   35.1662   49.2006 H   0  0  0  0  0  0  0  0  0  0  0  0
   60.3567   33.4416   49.2006 H   0  0  0  0  0  0  0  0  0  0  0  0
   60.1620   33.1400   45.9640 C   0  0  0  0  0  0  0  0  0  0  0  0
   60.3912   34.1712   45.6571 H   0  0  0  0  0  0  0  0  0  0  0  0
   60.3793   32.4447   45.1398 H   0  0  0  0  0  0  0  0  0  0  0  0
   58.6760   33.0380   46.3240 C   0  0  0  0  0  0  0  0  0  0  0  0
   58.4374   33.8089   47.0715 H   0  0  0  0  0  0  0  0  0  0  0  0
   58.0914   33.1837   45.4037 H   0  0  0  0  0  0  0  0  0  0  0  0
  1  2  1  0
  2  3  1  0
  3  4  1  0
  4  5  2  0
  5  6  1  0
  6  7  2  0
  7  8  1  0
  7  9  1  0
  9 10  1  0
  9 11  2  0
 11 12  1  0
 11 13  1  0
 13 14  1  0
 14 15  1  0
 14 16  1  0
 16 17  1  0
 16 18  1  0
 16 19  1  0
 13 20  2  0
 20 21  1  0
  4 22  1  0
 22 23  1  0
 22 24  2  0
 24 25  1  0
 24 26  1  0
 26 27  1  0
 27 28  2  0
 27 29  1  0
 29 30  1  0
 29 31  1  0
 31 32  1  0
 31 33  1  0
 31 34  1  0
 34 35  1  0
 34 36  1  0
 34 37  1  0
 37 38  1  0
 38 39  2  0
 38 40  1  0
 40 41  2  0
 41 42  1  0
 41 43  1  0
 43 44  1  0
 43 45  2  0
 45 46  1  0
 45 47  1  0
 47 48  1  0
 47 49  2  0
 49 50  1  0
 50 51  1  0
 50 52  1  0
 50 53  1  0
 37 54  1  0
 54 55  1  0
 54 56  1  0
 54 57  1  0
 57 58  1  0
 57 59  1  0
 26  2  2  0
 57 29  1  0
 20  6  1  0
 49 40  1  0
M  CHG  2   3  -1  29   1
M  END
>  <UniqueID>  (81) 
77

>  <SMILES>  (81) 
CNc1cccc(/N=c2\ccc(C(=O)[NH+]3CCN(C(=O)c4ccccc4C)CC3)c[n-]2)c1

>  <Energy>  (81) 
92.41392341938554

>  <Genealogy>  (81) 
CNc1cccc(N=c2ccc(C(=O)[NH+]3CCN(C(=O)c4ccccc4C)CC3)c[n-]2)c1 (protonated)
CNc1cccc(/N=c2\ccc(C(=O)[NH+]3CCN(C(=O)c4ccccc4C)CC3)c[n-]2)c1 (cis-trans isomerization)
CNc1cccc(/N=c2\ccc(C(=O)[NH+]3CCN(C(=O)c4ccccc4C)CC3)c[n-]2)c1 (3D coordinates assigned)
CNc1cccc(/N=c2\ccc(C(=O)[NH+]3CCN(C(=O)c4ccccc4C)CC3)c[n-]2)c1 (nonaromatic ring conformer: 92.41392341938554 kcal/mol)

>  <smiles>  (81) 
CNc1cccc(N=c2ccc(C(=O)N3CCN(C(=O)c4ccccc4C)CC3)c[nH]2)c1

>  <score_type>  (81) 
oracle

>  <origin>  (81) 
adg

>  <m_score__min__energy>  (81) 
-9.3699999999999992

>  <m_primary>  (81) 
energy

$$$$
81:0
     RDKit          3D

 45 47  0  0  0  0  0  0  0  0999 V2000
   56.9450   31.8680   45.2940 O   0  0  0  0  0  0  0  0  0  0  0  0
   57.3980   32.1940   44.2530 C   0  0  0  0  0  0  0  0  0  0  0  0
   57.1840   31.5990   42.9110 C   0  0  0  0  0  0  0  0  0  0  0  0
   56.6740   29.8690   42.8750 S   0  0  0  0  0  0  0  0  0  0  0  0
   57.0770   28.9980   44.3390 C   0  0  0  0  0  0  0  0  0  0  0  0
   58.2660   28.7960   44.8430 N   0  0  0  0  0  0  0  0  0  0  0  0
   58.1740   27.9130   45.8260 C   0  0  0  0  0  0  0  0  0  0  0  0
   59.4290   27.3430   46.4710 C   0  0  0  0  0  0  0  0  0  0  0  0
   59.8970   28.5130   47.3120 C   0  0  0  0  0  0  0  0  0  0  0  0
   59.9490   28.5020   48.6700 C   0  0  0  0  0  0  0  0  0  0  0  0
   60.6250   29.5880   49.2520 C   0  0  0  0  0  0  0  0  0  0  0  0
   61.1970   30.5940   48.5490 C   0  0  0  0  0  0  0  0  0  0  0  0
   61.1110   30.5760   47.1650 C   0  0  0  0  0  0  0  0  0  0  0  0
   60.4590   29.5250   46.6120 C   0  0  0  0  0  0  0  0  0  0  0  0
   56.8340   27.5300   45.9620 C   0  0  0  0  0  0  0  0  0  0  0  0
   56.5090   26.6210   46.9390 O   0  0  0  0  0  0  0  0  0  0  0  0
   56.1490   28.2170   45.0240 N   0  0  0  0  0  0  0  0  0  0  0  0
   58.4840   33.5120   44.2680 N   0  0  0  0  0  0  0  0  0  0  0  0
   58.7440   33.4420   45.6910 C   0  0  0  0  0  0  0  0  0  0  0  0
   58.1960   32.9890   46.6110 O   0  0  0  0  0  0  0  0  0  0  0  0
   60.1190   34.0880   45.7600 N   0  0  0  0  0  0  0  0  0  0  0  0
   60.9420   34.0410   46.8650 C   0  0  0  0  0  0  0  0  0  0  0  0
   62.3120   33.7530   46.4690 C   0  0  0  0  0  0  0  0  0  0  0  0
   63.3050   33.6030   47.3960 C   0  0  0  0  0  0  0  0  0  0  0  0
   62.9560   33.7430   48.7180 C   0  0  0  0  0  0  0  0  0  0  0  0
   61.6690   34.0170   49.1130 C   0  0  0  0  0  0  0  0  0  0  0  0
   60.6110   34.1790   48.1840 C   0  0  0  0  0  0  0  0  0  0  0  0
   56.4060   32.1882   42.4035 H   0  0  0  0  0  0  0  0  0  0  0  0
   58.1674   31.6249   42.4188 H   0  0  0  0  0  0  0  0  0  0  0  0
   59.1974   26.4673   47.0950 H   0  0  0  0  0  0  0  0  0  0  0  0
   60.1778   26.9815   45.7508 H   0  0  0  0  0  0  0  0  0  0  0  0
   59.4945   27.7004   49.2707 H   0  0  0  0  0  0  0  0  0  0  0  0
   60.6939   29.6230   50.3493 H   0  0  0  0  0  0  0  0  0  0  0  0
   61.7207   31.4112   49.0666 H   0  0  0  0  0  0  0  0  0  0  0  0
   61.5496   31.3740   46.5479 H   0  0  0  0  0  0  0  0  0  0  0  0
   60.3810   29.4922   45.5153 H   0  0  0  0  0  0  0  0  0  0  0  0
   57.1980   26.2520   47.5760 H   0  0  0  0  0  0  0  0  0  0  0  0
   55.1440   28.1750   44.9000 H   0  0  0  0  0  0  0  0  0  0  0  0
   58.3150   33.5440   43.4330 H   0  0  0  0  0  0  0  0  0  0  0  0
   60.4010   34.6200   44.8830 H   0  0  0  0  0  0  0  0  0  0  0  0
   62.5538   33.6538   45.4005 H   0  0  0  0  0  0  0  0  0  0  0  0
   64.3397   33.3797   47.0968 H   0  0  0  0  0  0  0  0  0  0  0  0
   63.7347   33.6317   49.4869 H   0  0  0  0  0  0  0  0  0  0  0  0
   61.4523   34.1140   50.1871 H   0  0  0  0  0  0  0  0  0  0  0  0
   59.5832   34.4028   48.5057 H   0  0  0  0  0  0  0  0  0  0  0  0
  1  2  2  0
  2  3  1  0
  3  4  1  0
  4  5  1  0
  5  6  2  0
  6  7  1  0
  7  8  1  0
  8  9  1  0
  9 10  2  0
 10 11  1  0
 11 12  2  0
 12 13  1  0
 13 14  2  0
  7 15  2  0
 15 16  1  0
 15 17  1  0
  2 18  1  0
 18 19  1  0
 19 20  2  0
 19 21  1  0
 21 22  1  0
 22 23  2  0
 23 24  1  0
 24 25  2  0
 25 26  1  0
 26 27  2  0
 17  5  1  0
 27 22  1  0
 14  9  1  0
  3 28  1  0
  3 29  1  0
  8 30  1  0
  8 31  1  0
 10 32  1  0
 11 33  1  0
 12 34  1  0
 13 35  1  0
 14 36  1  0
 16 37  1  0
 17 38  1  0
 18 39  1  0
 21 40  1  0
 23 41  1  0
 24 42  1  0
 25 43  1  0
 26 44  1  0
 27 45  1  0
M  END
>  <smiles>  (82) 
O=C(CSc1nc(Cc2ccccc2)c(O)[nH]1)NC(=O)Nc1ccccc1

>  <score_type>  (82) 
oracle

>  <origin>  (82) 
adg

>  <m_score__min__energy>  (82) 
-8.9199999999999999

>  <m_primary>  (82) 
energy

$$$$
82:0
     RDKit          3D

 57 60  0  0  0  0  0  0  0  0999 V2000
   55.0640   31.5430   52.0240 C   0  0  0  0  0  0  0  0  0  0  0  0
   54.7030   30.4650   52.7270 C   0  0  0  0  0  0  0  0  0  0  0  0
   55.6150   29.6260   53.2610 N   0  0  0  0  0  0  0  0  0  0  0  0
   54.9490   28.7710   54.0590 C   0  0  0  0  0  0  0  0  0  0  0  0
   55.5850   27.6790   54.8090 C   0  0  0  0  0  0  0  0  0  0  0  0
   55.4250   27.5980   56.0570 O   0  0  0  0  0  0  0  0  0  0  0  0
   56.3670   26.6990   54.1160 N   0  0  0  0  0  0  0  0  0  0  0  0
   57.7410   26.3620   54.4750 C   0  0  0  0  0  0  0  0  0  0  0  0
   58.6780   27.4160   53.9450 C   0  0  0  0  0  0  0  0  0  0  0  0
   59.9270   27.6340   54.5490 C   0  0  0  0  0  0  0  0  0  0  0  0
   60.7730   28.6400   54.0730 C   0  0  0  0  0  0  0  0  0  0  0  0
   60.3680   29.4570   53.0140 C   0  0  0  0  0  0  0  0  0  0  0  0
   59.1140   29.2660   52.4140 C   0  0  0  0  0  0  0  0  0  0  0  0
   58.6580   30.1510   51.3220 C   0  0  0  0  0  0  0  0  0  0  0  0
   57.4320   30.4290   51.2170 O   0  0  0  0  0  0  0  0  0  0  0  0
   59.5920   30.6960   50.3720 N   0  0  0  0  0  0  0  0  0  0  0  0
   59.4270   32.0790   49.9160 C   0  0  0  0  0  0  0  0  0  0  0  0
   60.7950   32.7030   49.6290 C   0  0  0  0  0  0  0  0  0  0  0  0
   61.6290   31.8270   48.7900 N   0  0  0  0  0  0  0  0  0  0  0  0
   62.8170   32.3530   48.1640 C   0  0  0  0  0  0  0  0  0  0  0  0
   63.5370   33.5350   48.7390 C   0  0  0  0  0  0  0  0  0  0  0  0
   63.2440   31.8460   47.0900 O   0  0  0  0  0  0  0  0  0  0  0  0
   61.1770   30.4660   48.4660 C   0  0  0  0  0  0  0  0  0  0  0  0
   60.5490   29.8020   49.6980 C   0  0  0  0  0  0  0  0  0  0  0  0
   58.2940   28.2180   52.8600 C   0  0  0  0  0  0  0  0  0  0  0  0
   53.5960   29.0450   54.0360 C   0  0  0  0  0  0  0  0  0  0  0  0
   53.4190   30.1020   53.1570 C   0  0  0  0  0  0  0  0  0  0  0  0
   52.2070   30.5910   52.8340 C   0  0  0  0  0  0  0  0  0  0  0  0
   51.7700   30.9550   51.4770 C   0  0  0  0  0  0  0  0  0  0  0  0
   51.8890   30.1630   50.3940 N   0  0  0  0  0  0  0  0  0  0  0  0
   51.2410   30.8520   49.4310 C   0  0  0  0  0  0  0  0  0  0  0  0
   51.1460   30.4350   48.2470 O   0  0  0  0  0  0  0  0  0  0  0  0
   50.6910   32.0170   49.8380 N   0  0  0  0  0  0  0  0  0  0  0  0
   51.0240   32.0580   51.1380 C   0  0  0  0  0  0  0  0  0  0  0  0
   50.6470   33.0810   52.0010 O   0  0  0  0  0  0  0  0  0  0  0  0
   54.2954   32.2071   51.6019 H   0  0  0  0  0  0  0  0  0  0  0  0
   56.1297   31.7661   51.8676 H   0  0  0  0  0  0  0  0  0  0  0  0
   56.6500   29.6620   53.1220 H   0  0  0  0  0  0  0  0  0  0  0  0
   57.8306   26.3106   55.5701 H   0  0  0  0  0  0  0  0  0  0  0  0
   58.0034   25.3879   54.0365 H   0  0  0  0  0  0  0  0  0  0  0  0
   60.2407   27.0110   55.3996 H   0  0  0  0  0  0  0  0  0  0  0  0
   61.7608   28.7890   54.5336 H   0  0  0  0  0  0  0  0  0  0  0  0
   61.0345   30.2525   52.6495 H   0  0  0  0  0  0  0  0  0  0  0  0
   58.8219   32.0898   48.9975 H   0  0  0  0  0  0  0  0  0  0  0  0
   58.9230   32.6604   50.7021 H   0  0  0  0  0  0  0  0  0  0  0  0
   60.6476   33.6604   49.1079 H   0  0  0  0  0  0  0  0  0  0  0  0
   61.3118   32.8513   50.5886 H   0  0  0  0  0  0  0  0  0  0  0  0
   63.5062   33.4844   49.8374 H   0  0  0  0  0  0  0  0  0  0  0  0
   64.5837   33.5269   48.4008 H   0  0  0  0  0  0  0  0  0  0  0  0
   63.0496   34.4613   48.4008 H   0  0  0  0  0  0  0  0  0  0  0  0
   60.4296   30.5148   47.6604 H   0  0  0  0  0  0  0  0  0  0  0  0
   62.0435   29.8703   48.1432 H   0  0  0  0  0  0  0  0  0  0  0  0
   60.0221   28.8898   49.3813 H   0  0  0  0  0  0  0  0  0  0  0  0
   61.3553   29.5660   50.4080 H   0  0  0  0  0  0  0  0  0  0  0  0
   57.3379   28.0230   52.3523 H   0  0  0  0  0  0  0  0  0  0  0  0
   52.8109   28.5253   54.6048 H   0  0  0  0  0  0  0  0  0  0  0  0
   51.4842   30.7298   53.6515 H   0  0  0  0  0  0  0  0  0  0  0  0
  1  2  2  0
  2  3  1  0
  3  4  1  0
  4  5  1  0
  5  6  2  0
  5  7  1  0
  7  8  1  0
  8  9  1  0
  9 10  2  0
 10 11  1  0
 11 12  2  0
 12 13  1  0
 13 14  1  0
 14 15  2  0
 14 16  1  0
 16 17  1  0
 17 18  1  0
 18 19  1  0
 19 20  1  0
 20 21  1  0
 20 22  2  0
 19 23  1  0
 23 24  1  0
 13 25  2  0
  4 26  2  0
 26 27  1  0
 27 28  2  3
 28 29  1  0
 29 30  1  0
 30 31  1  0
 31 32  2  0
 31 33  1  0
 33 34  1  0
 34 35  1  0
 27  2  1  0
 34 29  2  0
 25  9  1  0
 24 16  1  0
  1 36  1  0
  1 37  1  0
  3 38  1  0
  8 39  1  0
  8 40  1  0
 10 41  1  0
 11 42  1  0
 12 43  1  0
 17 44  1  0
 17 45  1  0
 18 46  1  0
 18 47  1  0
 21 48  1  0
 21 49  1  0
 21 50  1  0
 23 51  1  0
 23 52  1  0
 24 53  1  0
 24 54  1  0
 25 55  1  0
 26 56  1  0
 28 57  1  0
M  CHG  4   7  -1  30  -1  33  -1  35  -1
M  END
>  <UniqueID>  (83) 
78

>  <SMILES>  (83) 
C=c1[nH]c(C(=O)[N-]Cc2cccc(C(=O)N3CCN(C(C)=O)CC3)c2)cc1=Cc1[n-]c(=O)[n-]c1[O-]

>  <Energy>  (83) 
124.4367187990562

>  <Genealogy>  (83) 
C=c1[nH]c(C(=O)[N-]Cc2cccc(C(=O)N3CCN(C(C)=O)CC3)c2)cc1=Cc1[n-]c(=O)[n-]c1[O-] (protonated)
C=c1[nH]c(C(=O)[N-]Cc2cccc(C(=O)N3CCN(C(C)=O)CC3)c2)cc1=Cc1[n-]c(=O)[n-]c1[O-] (3D coordinates assigned)
C=c1[nH]c(C(=O)[N-]Cc2cccc(C(=O)N3CCN(C(C)=O)CC3)c2)cc1=Cc1[n-]c(=O)[n-]c1[O-] (nonaromatic ring conformer: 124.4367187990562 kcal/mol)

>  <smiles>  (83) 
C=c1[nH]c(C(=O)NCc2cccc(C(=O)N3CCN(C(C)=O)CC3)c2)cc1=Cc1[nH]c(=O)[nH]c1O

>  <score_type>  (83) 
oracle

>  <origin>  (83) 
adg

>  <m_score__min__energy>  (83) 
-19.170000000000002

>  <m_primary>  (83) 
energy

$$$$
83:0
     RDKit          3D

 39 41  0  0  0  0  0  0  0  0999 V2000
   61.3626   32.6054   46.6242 H   0  0  0  0  0  0  0  0  0  0  0  0
   61.3670   33.0000   47.6510 C   0  0  0  0  0  0  0  0  0  0  0  0
   62.1132   33.7516   47.9482 H   0  0  0  0  0  0  0  0  0  0  0  0
   60.4610   32.5640   48.5420 C   0  0  0  0  0  0  0  0  0  0  0  0
   60.4970   33.0900   49.8430 C   0  0  0  0  0  0  0  0  0  0  0  0
   61.2456   33.8551   50.0965 H   0  0  0  0  0  0  0  0  0  0  0  0
   59.6000   32.6590   50.8190 C   0  0  0  0  0  0  0  0  0  0  0  0
   59.6497   33.0932   51.8285 H   0  0  0  0  0  0  0  0  0  0  0  0
   58.6320   31.6780   50.5350 C   0  0  0  0  0  0  0  0  0  0  0  0
   57.7770   31.2650   51.5070 C   0  0  0  0  0  0  0  0  0  0  0  0
   56.5380   30.7770   51.2360 N   0  0  0  0  0  0  0  0  0  0  0  0
   56.0070   30.4870   52.4410 C   0  0  0  0  0  0  0  0  0  0  0  0
   54.7930   29.9500   52.6410 C   0  0  0  0  0  0  0  0  0  0  0  0
   54.7423   28.9042   52.9781 H   0  0  0  0  0  0  0  0  0  0  0  0
   53.5170   30.6750   52.4370 C   0  0  0  0  0  0  0  0  0  0  0  0
   52.6430   30.8270   53.5250 C   0  0  0  0  0  0  0  0  0  0  0  0
   52.9080   30.3970   54.5022 H   0  0  0  0  0  0  0  0  0  0  0  0
   51.4380   31.5210   53.3760 C   0  0  0  0  0  0  0  0  0  0  0  0
   50.7528   31.6215   54.2307 H   0  0  0  0  0  0  0  0  0  0  0  0
   51.1030   32.0870   52.1430 C   0  0  0  0  0  0  0  0  0  0  0  0
   49.9060   32.7760   51.9960 O   0  0  0  0  0  0  0  0  0  0  0  0
   51.9780   31.9650   51.0590 C   0  0  0  0  0  0  0  0  0  0  0  0
   51.7180   32.4166   50.0903 H   0  0  0  0  0  0  0  0  0  0  0  0
   53.1830   31.2700   51.2040 C   0  0  0  0  0  0  0  0  0  0  0  0
   53.8733   31.1874   50.3515 H   0  0  0  0  0  0  0  0  0  0  0  0
   56.9320   30.7910   53.4110 C   0  0  0  0  0  0  0  0  0  0  0  0
   56.7880   30.6420   54.6540 O   0  0  0  0  0  0  0  0  0  0  0  0
   58.0400   31.2820   52.8390 N   0  0  0  0  0  0  0  0  0  0  0  0
   58.8960   31.5920   53.3500 H   0  0  0  0  0  0  0  0  0  0  0  0
   58.5890   31.1500   49.2260 C   0  0  0  0  0  0  0  0  0  0  0  0
   57.8452   30.3766   48.9840 H   0  0  0  0  0  0  0  0  0  0  0  0
   59.4750   31.5890   48.2220 C   0  0  0  0  0  0  0  0  0  0  0  0
   59.3560   30.9580   46.8470 C   0  0  0  0  0  0  0  0  0  0  0  0
   58.3218   30.6145   46.6970 H   0  0  0  0  0  0  0  0  0  0  0  0
   59.6252   31.7106   46.0913 H   0  0  0  0  0  0  0  0  0  0  0  0
   60.3020   29.7690   46.7080 C   0  0  0  0  0  0  0  0  0  0  0  0
   60.5882   29.4093   47.7074 H   0  0  0  0  0  0  0  0  0  0  0  0
   59.7971   28.9610   46.1582 H   0  0  0  0  0  0  0  0  0  0  0  0
   61.2028   30.0794   46.1582 H   0  0  0  0  0  0  0  0  0  0  0  0
  1  2  1  0
  2  3  1  0
  2  4  2  0
  4  5  1  0
  5  6  1  0
  5  7  2  0
  7  8  1  0
  7  9  1  0
  9 10  2  3
 10 11  1  0
 11 12  1  0
 12 13  2  0
 13 14  1  0
 13 15  1  0
 15 16  2  0
 16 17  1  0
 16 18  1  0
 18 19  1  0
 18 20  2  0
 20 21  1  0
 20 22  1  0
 22 23  1  0
 22 24  2  0
 24 25  1  0
 12 26  1  0
 26 27  2  0
 26 28  1  0
 28 29  1  0
  9 30  1  0
 30 31  1  0
 30 32  2  0
 32 33  1  0
 33 34  1  0
 33 35  1  0
 33 36  1  0
 36 37  1  0
 36 38  1  0
 36 39  1  0
 32  4  1  0
 28 10  1  0
 24 15  1  0
M  CHG  2  11  -1  21  -1
M  END
>  <UniqueID>  (84) 
79

>  <SMILES>  (84) 
C=c1ccc(=c2[n-]/c(=C\c3ccc([O-])cc3)c(=O)[nH]2)cc1CC

>  <Energy>  (84) 
84.34944428189155

>  <Genealogy>  (84) 
C=c1ccc(=c2[n-]c(=Cc3ccc([O-])cc3)c(=O)[nH]2)cc1CC (protonated)
C=c1ccc(=c2[n-]/c(=C\c3ccc([O-])cc3)c(=O)[nH]2)cc1CC (cis-trans isomerization)
C=c1ccc(=c2[n-]/c(=C\c3ccc([O-])cc3)c(=O)[nH]2)cc1CC (3D coordinates assigned)
C=c1ccc(=c2[n-]/c(=C\c3ccc([O-])cc3)c(=O)[nH]2)cc1CC (optimized conformer: 84.34944428189155 kcal/mol)

>  <smiles>  (84) 
C=c1ccc(=c2[nH]c(=O)c(=Cc3ccc(O)cc3)[nH]2)cc1CC

>  <score_type>  (84) 
oracle

>  <origin>  (84) 
adg

>  <m_score__min__energy>  (84) 
-12.380000000000001

>  <m_primary>  (84) 
energy

$$$$
84:0
     RDKit          3D

 59 61  0  0  0  0  0  0  0  0999 V2000
   55.1880   26.2850   45.9960 O   0  0  0  0  0  0  0  0  0  0  0  0
   56.3900   26.4260   46.1710 C   0  0  0  0  0  0  0  0  0  0  0  0
   57.0640   27.6970   45.7330 C   0  0  0  0  0  0  0  0  0  0  0  0
   57.7730   27.5590   44.0570 S   0  0  0  0  0  0  0  0  0  0  0  0
   57.0790   29.1090   43.3860 C   0  0  0  0  0  0  0  0  0  0  0  0
   56.4010   29.8910   44.4670 C   0  0  0  0  0  0  0  0  0  0  0  0
   55.2380   29.5710   44.8470 O   0  0  0  0  0  0  0  0  0  0  0  0
   57.0860   30.9920   45.0640 N   0  0  0  0  0  0  0  0  0  0  0  0
   56.7000   32.3840   44.8710 C   0  0  0  0  0  0  0  0  0  0  0  0
   57.7050   33.2980   45.5170 C   0  0  0  0  0  0  0  0  0  0  0  0
   57.7970   33.3970   46.9210 C   0  0  0  0  0  0  0  0  0  0  0  0
   58.7640   34.2130   47.5060 C   0  0  0  0  0  0  0  0  0  0  0  0
   59.6560   34.9250   46.6980 C   0  0  0  0  0  0  0  0  0  0  0  0
   59.5790   34.8300   45.3120 C   0  0  0  0  0  0  0  0  0  0  0  0
   58.6140   34.0120   44.7200 C   0  0  0  0  0  0  0  0  0  0  0  0
   57.1920   25.3730   46.9000 C   0  0  0  0  0  0  0  0  0  0  0  0
   58.4340   24.9520   46.1590 C   0  0  0  0  0  0  0  0  0  0  0  0
   58.3720   23.9640   45.3820 O   0  0  0  0  0  0  0  0  0  0  0  0
   59.7110   25.5540   46.3990 N   0  0  0  0  0  0  0  0  0  0  0  0
   59.9540   26.9260   46.7160 C   0  0  0  0  0  0  0  0  0  0  0  0
   60.4120   27.7820   45.7100 C   0  0  0  0  0  0  0  0  0  0  0  0
   60.6710   29.1230   45.9930 C   0  0  0  0  0  0  0  0  0  0  0  0
   60.4450   29.6270   47.2820 C   0  0  0  0  0  0  0  0  0  0  0  0
   60.8140   31.3110   47.6590 S   0  0  0  0  0  0  0  0  0  0  0  0
   59.8460   31.7940   48.7080 O   0  0  0  0  0  0  0  0  0  0  0  0
   60.6200   32.1580   46.4290 O   0  0  0  0  0  0  0  0  0  0  0  0
   62.4540   31.5200   48.2360 N   0  0  0  0  0  0  0  0  0  0  0  0
   63.3920   31.9200   47.1670 C   0  0  0  0  0  0  0  0  0  0  0  0
   63.7180   33.4210   47.1820 C   0  0  0  0  0  0  0  0  0  0  0  0
   62.6480   34.1620   47.7210 O   0  0  0  0  0  0  0  0  0  0  0  0
   62.5260   33.8890   49.1040 C   0  0  0  0  0  0  0  0  0  0  0  0
   62.5260   32.3770   49.4340 C   0  0  0  0  0  0  0  0  0  0  0  0
   59.9280   28.7840   48.2740 C   0  0  0  0  0  0  0  0  0  0  0  0
   59.6880   27.4370   47.9950 C   0  0  0  0  0  0  0  0  0  0  0  0
   56.3238   28.5106   45.7386 H   0  0  0  0  0  0  0  0  0  0  0  0
   57.8881   27.9007   46.4326 H   0  0  0  0  0  0  0  0  0  0  0  0
   57.8917   29.7137   42.9572 H   0  0  0  0  0  0  0  0  0  0  0  0
   56.3403   28.8612   42.6095 H   0  0  0  0  0  0  0  0  0  0  0  0
   56.6515   32.6013   43.7938 H   0  0  0  0  0  0  0  0  0  0  0  0
   55.7157   32.5501   45.3332 H   0  0  0  0  0  0  0  0  0  0  0  0
   57.1029   32.8280   47.5569 H   0  0  0  0  0  0  0  0  0  0  0  0
   58.8253   34.2967   48.6011 H   0  0  0  0  0  0  0  0  0  0  0  0
   60.4228   35.5637   47.1607 H   0  0  0  0  0  0  0  0  0  0  0  0
   60.2784   35.3994   44.6822 H   0  0  0  0  0  0  0  0  0  0  0  0
   58.5659   33.9268   43.6244 H   0  0  0  0  0  0  0  0  0  0  0  0
   57.4893   25.7762   47.8793 H   0  0  0  0  0  0  0  0  0  0  0  0
   56.5519   24.4835   46.9954 H   0  0  0  0  0  0  0  0  0  0  0  0
   60.5686   27.3966   44.6917 H   0  0  0  0  0  0  0  0  0  0  0  0
   61.0533   29.7866   45.2034 H   0  0  0  0  0  0  0  0  0  0  0  0
   64.3284   31.3571   47.2942 H   0  0  0  0  0  0  0  0  0  0  0  0
   62.9063   31.6994   46.2050 H   0  0  0  0  0  0  0  0  0  0  0  0
   64.6165   33.5884   47.7941 H   0  0  0  0  0  0  0  0  0  0  0  0
   63.8904   33.7537   46.1478 H   0  0  0  0  0  0  0  0  0  0  0  0
   63.3703   34.3604   49.6283 H   0  0  0  0  0  0  0  0  0  0  0  0
   61.5563   34.2928   49.4306 H   0  0  0  0  0  0  0  0  0  0  0  0
   63.4511   32.1383   49.9793 H   0  0  0  0  0  0  0  0  0  0  0  0
   61.6274   32.1740   50.0351 H   0  0  0  0  0  0  0  0  0  0  0  0
   59.7105   29.1841   49.2753 H   0  0  0  0  0  0  0  0  0  0  0  0
   59.2900   26.7760   48.7789 H   0  0  0  0  0  0  0  0  0  0  0  0
  1  2  2  0
  2  3  1  0
  3  4  1  0
  4  5  1  0
  5  6  1  0
  6  7  2  0
  6  8  1  0
  8  9  1  0
  9 10  1  0
 10 11  2  0
 11 12  1  0
 12 13  2  0
 13 14  1  0
 14 15  2  0
  2 16  1  0
 16 17  1  0
 17 18  2  0
 17 19  1  0
 19 20  1  0
 20 21  2  0
 21 22  1  0
 22 23  2  0
 23 24  1  0
 24 25  2  0
 24 26  2  0
 24 27  1  0
 27 28  1  0
 28 29  1  0
 29 30  1  0
 30 31  1  0
 31 32  1  0
 23 33  1  0
 33 34  2  0
 15 10  1  0
 34 20  1  0
 32 27  1  0
  3 35  1  0
  3 36  1  0
  5 37  1  0
  5 38  1  0
  9 39  1  0
  9 40  1  0
 11 41  1  0
 12 42  1  0
 13 43  1  0
 14 44  1  0
 15 45  1  0
 16 46  1  0
 16 47  1  0
 21 48  1  0
 22 49  1  0
 28 50  1  0
 28 51  1  0
 29 52  1  0
 29 53  1  0
 31 54  1  0
 31 55  1  0
 32 56  1  0
 32 57  1  0
 33 58  1  0
 34 59  1  0
M  CHG  2   8  -1  19  -1
M  END
>  <UniqueID>  (85) 
80

>  <SMILES>  (85) 
O=C(CSCC(=O)[N-]Cc1ccccc1)CC(=O)[N-]c1ccc(S(=O)(=O)N2CCOCC2)cc1

>  <Energy>  (85) 
65.14787355097411

>  <Genealogy>  (85) 
O=C(CSCC(=O)[N-]Cc1ccccc1)CC(=O)[N-]c1ccc(S(=O)(=O)N2CCOCC2)cc1 (protonated)
O=C(CSCC(=O)[N-]Cc1ccccc1)CC(=O)[N-]c1ccc(S(=O)(=O)N2CCOCC2)cc1 (3D coordinates assigned)
O=C(CSCC(=O)[N-]Cc1ccccc1)CC(=O)[N-]c1ccc(S(=O)(=O)N2CCOCC2)cc1 (nonaromatic ring conformer: 65.14787355097411 kcal/mol)

>  <smiles>  (85) 
O=C(CSCC(=O)NCc1ccccc1)CC(=O)Nc1ccc(S(=O)(=O)N2CCOCC2)cc1

>  <score_type>  (85) 
oracle

>  <origin>  (85) 
adg

>  <m_score__min__energy>  (85) 
-13.73

>  <m_primary>  (85) 
energy

$$$$
85:0
     RDKit          3D

 35 36  0  0  0  0  0  0  0  0999 V2000
   58.0895   34.6581   45.6157 H   0  0  0  0  0  0  0  0  0  0  0  0
   57.3600   33.9200   45.2510 C   0  0  0  0  0  0  0  0  0  0  0  0
   56.3094   34.2111   45.1045 H   0  0  0  0  0  0  0  0  0  0  0  0
   57.7500   32.6700   44.9860 C   0  0  0  0  0  0  0  0  0  0  0  0
   58.8040   32.3939   45.1375 H   0  0  0  0  0  0  0  0  0  0  0  0
   56.7850   31.6310   44.4860 C   0  0  0  0  0  0  0  0  0  0  0  0
   55.8391   31.7210   45.0402 H   0  0  0  0  0  0  0  0  0  0  0  0
   56.6163   31.7946   43.4114 H   0  0  0  0  0  0  0  0  0  0  0  0
   57.3430   30.2430   44.6820 C   0  0  0  0  0  0  0  0  0  0  0  0
   58.7190   30.0130   44.5260 C   0  0  0  0  0  0  0  0  0  0  0  0
   59.3883   30.8508   44.2806 H   0  0  0  0  0  0  0  0  0  0  0  0
   59.2440   28.7290   44.6800 C   0  0  0  0  0  0  0  0  0  0  0  0
   60.3261   28.5665   44.5674 H   0  0  0  0  0  0  0  0  0  0  0  0
   58.4060   27.6430   44.9770 C   0  0  0  0  0  0  0  0  0  0  0  0
   59.0170   26.3010   45.1370 C   0  0  0  0  0  0  0  0  0  0  0  0
   59.7147   25.9541   44.3605 H   0  0  0  0  0  0  0  0  0  0  0  0
   58.7690   25.4850   46.1730 C   0  0  0  0  0  0  0  0  0  0  0  0
   59.6177   24.9966   46.6741 H   0  0  0  0  0  0  0  0  0  0  0  0
   57.4030   25.2150   46.6690 C   0  0  0  0  0  0  0  0  0  0  0  0
   57.1220   25.5430   47.8520 O   0  0  0  0  0  0  0  0  0  0  0  0
   56.3550   24.5730   45.8410 C   0  0  0  0  0  0  0  0  0  0  0  0
   56.6110   23.3190   45.2610 C   0  0  0  0  0  0  0  0  0  0  0  0
   57.5824   22.8293   45.4242 H   0  0  0  0  0  0  0  0  0  0  0  0
   55.6390   22.6900   44.4780 C   0  0  0  0  0  0  0  0  0  0  0  0
   55.9050   21.4560   43.8980 O   0  0  0  0  0  0  0  0  0  0  0  0
   54.3980   23.3010   44.2780 C   0  0  0  0  0  0  0  0  0  0  0  0
   53.6363   22.8086   43.6557 H   0  0  0  0  0  0  0  0  0  0  0  0
   54.1250   24.5380   44.8690 C   0  0  0  0  0  0  0  0  0  0  0  0
   53.1460   25.0150   44.7140 H   0  0  0  0  0  0  0  0  0  0  0  0
   55.0920   25.1720   45.6570 C   0  0  0  0  0  0  0  0  0  0  0  0
   54.7800   26.3820   46.2670 O   0  0  0  0  0  0  0  0  0  0  0  0
   57.0260   27.8740   45.1400 C   0  0  0  0  0  0  0  0  0  0  0  0
   56.3585   27.0363   45.3903 H   0  0  0  0  0  0  0  0  0  0  0  0
   56.4970   29.1610   44.9860 C   0  0  0  0  0  0  0  0  0  0  0  0
   55.1290   29.3560   45.1420 O   0  0  0  0  0  0  0  0  0  0  0  0
  1  2  1  0
  2  3  1  0
  2  4  2  0
  4  5  1  0
  4  6  1  0
  6  7  1  0
  6  8  1  0
  6  9  1  0
  9 10  2  0
 10 11  1  0
 10 12  1  0
 12 13  1  0
 12 14  2  0
 14 15  1  0
 15 16  1  0
 15 17  2  0
 17 18  1  0
 17 19  1  0
 19 20  2  0
 19 21  1  0
 21 22  2  0
 22 23  1  0
 22 24  1  0
 24 25  1  0
 24 26  2  0
 26 27  1  0
 26 28  1  0
 28 29  1  0
 28 30  2  0
 30 31  1  0
 14 32  1  0
 32 33  1  0
 32 34  2  0
 34 35  1  0
 34  9  1  0
 30 21  1  0
M  CHG  3  25  -1  31  -1  35  -1
M  END
>  <UniqueID>  (86) 
81

>  <SMILES>  (86) 
C=CCc1ccc(/C=C/C(=O)c2cc([O-])ccc2[O-])cc1[O-]

>  <Energy>  (86) 
41.66654763835257

>  <Genealogy>  (86) 
C=CCc1ccc(C=CC(=O)c2cc([O-])ccc2[O-])cc1[O-] (protonated)
C=CCc1ccc(/C=C/C(=O)c2cc([O-])ccc2[O-])cc1[O-] (cis-trans isomerization)
C=CCc1ccc(/C=C/C(=O)c2cc([O-])ccc2[O-])cc1[O-] (3D coordinates assigned)
C=CCc1ccc(/C=C/C(=O)c2cc([O-])ccc2[O-])cc1[O-] (optimized conformer: 41.66654763835257 kcal/mol)

>  <smiles>  (86) 
C=CCc1ccc(C=CC(=O)c2cc(O)ccc2O)cc1O

>  <score_type>  (86) 
oracle

>  <origin>  (86) 
adg

>  <m_score__min__energy>  (86) 
-15.65

>  <m_primary>  (86) 
energy

$$$$
86:0
     RDKit          3D

 45 47  0  0  0  0  0  0  0  0999 V2000
   59.2640   30.0810   44.7340 O   0  0  0  0  0  0  0  0  0  0  0  0
   58.2310   29.4920   45.1550 C   0  0  0  0  0  0  0  0  0  0  0  0
   56.9960   30.2080   45.2620 N   0  0  0  0  0  0  0  0  0  0  0  0
   56.6370   31.3260   44.3980 C   0  0  0  0  0  0  0  0  0  0  0  0
   57.3970   32.5490   44.8010 C   0  0  0  0  0  0  0  0  0  0  0  0
   58.4880   33.0840   44.1280 C   0  0  0  0  0  0  0  0  0  0  0  0
   59.0440   34.1950   44.7740 C   0  0  0  0  0  0  0  0  0  0  0  0
   58.4010   34.5280   45.9610 C   0  0  0  0  0  0  0  0  0  0  0  0
   57.1420   33.4400   46.2060 S   0  0  0  0  0  0  0  0  0  0  0  0
   58.3020   28.0750   45.5810 C   0  0  0  0  0  0  0  0  0  0  0  0
   57.9120   27.0830   44.6630 C   0  0  0  0  0  0  0  0  0  0  0  0
   57.8820   25.7380   45.0350 C   0  0  0  0  0  0  0  0  0  0  0  0
   58.2430   25.3630   46.3270 C   0  0  0  0  0  0  0  0  0  0  0  0
   58.6500   26.3280   47.2480 C   0  0  0  0  0  0  0  0  0  0  0  0
   58.7000   27.6890   46.8910 C   0  0  0  0  0  0  0  0  0  0  0  0
   59.2500   28.6540   47.8730 C   0  0  0  0  0  0  0  0  0  0  0  0
   59.9250   28.2340   48.8520 O   0  0  0  0  0  0  0  0  0  0  0  0
   58.9830   30.0570   47.7380 N   0  0  0  0  0  0  0  0  0  0  0  0
   59.3150   31.0290   48.7810 C   0  0  0  0  0  0  0  0  0  0  0  0
   59.6030   32.4130   48.1850 C   0  0  0  0  0  0  0  0  0  0  0  0
   61.0350   32.5350   47.7310 C   0  0  0  0  0  0  0  0  0  0  0  0
   61.9390   31.4810   47.9440 C   0  0  0  0  0  0  0  0  0  0  0  0
   63.2770   31.6110   47.5610 C   0  0  0  0  0  0  0  0  0  0  0  0
   63.7220   32.7940   46.9670 C   0  0  0  0  0  0  0  0  0  0  0  0
   62.8310   33.8510   46.7560 C   0  0  0  0  0  0  0  0  0  0  0  0
   61.4920   33.7250   47.1400 C   0  0  0  0  0  0  0  0  0  0  0  0
   56.8801   31.0732   43.3554 H   0  0  0  0  0  0  0  0  0  0  0  0
   55.5590   31.5235   44.4926 H   0  0  0  0  0  0  0  0  0  0  0  0
   58.8760   32.6761   43.1830 H   0  0  0  0  0  0  0  0  0  0  0  0
   59.9073   34.7513   44.3799 H   0  0  0  0  0  0  0  0  0  0  0  0
   58.6700   35.3614   46.6267 H   0  0  0  0  0  0  0  0  0  0  0  0
   57.6274   27.3706   43.6401 H   0  0  0  0  0  0  0  0  0  0  0  0
   57.5729   24.9734   44.3071 H   0  0  0  0  0  0  0  0  0  0  0  0
   58.2070   24.3038   46.6215 H   0  0  0  0  0  0  0  0  0  0  0  0
   58.9353   26.0222   48.2654 H   0  0  0  0  0  0  0  0  0  0  0  0
   58.5670   30.4140   46.8490 H   0  0  0  0  0  0  0  0  0  0  0  0
   58.4682   31.1088   49.4785 H   0  0  0  0  0  0  0  0  0  0  0  0
   60.2190   30.6818   49.3028 H   0  0  0  0  0  0  0  0  0  0  0  0
   58.9401   32.5751   47.3223 H   0  0  0  0  0  0  0  0  0  0  0  0
   59.4242   33.1674   48.9653 H   0  0  0  0  0  0  0  0  0  0  0  0
   61.5923   30.5490   48.4144 H   0  0  0  0  0  0  0  0  0  0  0  0
   63.9797   30.7812   47.7275 H   0  0  0  0  0  0  0  0  0  0  0  0
   64.7749   32.8945   46.6647 H   0  0  0  0  0  0  0  0  0  0  0  0
   63.1834   34.7819   46.2878 H   0  0  0  0  0  0  0  0  0  0  0  0
   60.7945   34.5602   46.9788 H   0  0  0  0  0  0  0  0  0  0  0  0
  1  2  2  0
  2  3  1  0
  3  4  1  0
  4  5  1  0
  5  6  2  0
  6  7  1  0
  7  8  2  0
  8  9  1  0
  2 10  1  0
 10 11  2  0
 11 12  1  0
 12 13  2  0
 13 14  1  0
 14 15  2  0
 15 16  1  0
 16 17  2  0
 16 18  1  0
 18 19  1  0
 19 20  1  0
 20 21  1  0
 21 22  2  0
 22 23  1  0
 23 24  2  0
 24 25  1  0
 25 26  2  0
  9  5  1  0
 15 10  1  0
 26 21  1  0
  4 27  1  0
  4 28  1  0
  6 29  1  0
  7 30  1  0
  8 31  1  0
 11 32  1  0
 12 33  1  0
 13 34  1  0
 14 35  1  0
 18 36  1  0
 19 37  1  0
 19 38  1  0
 20 39  1  0
 20 40  1  0
 22 41  1  0
 23 42  1  0
 24 43  1  0
 25 44  1  0
 26 45  1  0
M  CHG  1   3  -1
M  END
>  <UniqueID>  (87) 
82

>  <SMILES>  (87) 
O=C([N-]Cc1cccs1)c1ccccc1C(=O)NCCc1ccccc1

>  <Energy>  (87) 
73.11899946657726

>  <Genealogy>  (87) 
O=C([N-]Cc1cccs1)c1ccccc1C(=O)NCCc1ccccc1 (protonated)
O=C([N-]Cc1cccs1)c1ccccc1C(=O)NCCc1ccccc1 (3D coordinates assigned)
O=C([N-]Cc1cccs1)c1ccccc1C(=O)NCCc1ccccc1 (optimized conformer: 73.11899946657726 kcal/mol)

>  <smiles>  (87) 
O=C(NCCc1ccccc1)c1ccccc1C(=O)NCc1cccs1

>  <score_type>  (87) 
oracle

>  <origin>  (87) 
adg

>  <m_score__min__energy>  (87) 
-9.7100000000000009

>  <m_primary>  (87) 
energy

$$$$
87:0
     RDKit          3D

 68 71  0  0  0  0  0  0  0  0999 V2000
   57.5490   28.2250   43.5620 C   0  0  0  0  0  0  0  0  0  0  0  0
   56.5890   29.7090   43.7790 S   0  0  0  0  0  0  0  0  0  0  0  0
   56.4630   30.4010   42.4520 O   0  0  0  0  0  0  0  0  0  0  0  0
   55.2130   29.3470   44.2590 O   0  0  0  0  0  0  0  0  0  0  0  0
   57.3530   30.7550   44.9550 N   0  0  0  0  0  0  0  0  0  0  0  0
   57.9230   30.1410   46.1250 C   0  0  0  0  0  0  0  0  0  0  0  0
   57.3610   29.1360   46.6370 O   0  0  0  0  0  0  0  0  0  0  0  0
   59.1110   30.6760   46.7320 N   0  0  0  0  0  0  0  0  0  0  0  0
   59.7840   30.0150   47.8480 C   0  0  0  0  0  0  0  0  0  0  0  0
   59.2240   30.5010   49.1560 C   0  0  0  0  0  0  0  0  0  0  0  0
   59.3610   31.8490   49.5180 C   0  0  0  0  0  0  0  0  0  0  0  0
   58.8460   32.3050   50.7340 C   0  0  0  0  0  0  0  0  0  0  0  0
   58.1820   31.4260   51.5910 C   0  0  0  0  0  0  0  0  0  0  0  0
   58.0100   30.0770   51.2280 C   0  0  0  0  0  0  0  0  0  0  0  0
   57.3540   29.1310   52.0860 N   0  0  0  0  0  0  0  0  0  0  0  0
   56.4340   29.4230   53.1480 C   0  0  0  0  0  0  0  0  0  0  0  0
   56.7640   29.2140   54.3480 O   0  0  0  0  0  0  0  0  0  0  0  0
   55.1100   30.0140   52.8400 C   0  0  0  0  0  0  0  0  0  0  0  0
   54.0710   29.9770   53.7870 C   0  0  0  0  0  0  0  0  0  0  0  0
   52.8260   30.5450   53.4990 C   0  0  0  0  0  0  0  0  0  0  0  0
   52.5920   31.1630   52.2590 C   0  0  0  0  0  0  0  0  0  0  0  0
   51.2740   31.7710   51.9520 C   0  0  0  0  0  0  0  0  0  0  0  0
   51.0240   32.3500   50.6730 N   0  0  0  0  0  0  0  0  0  0  0  0
   50.3610   31.7810   52.8210 O   0  0  0  0  0  0  0  0  0  0  0  0
   53.6290   31.1950   51.3100 C   0  0  0  0  0  0  0  0  0  0  0  0
   54.8730   30.6280   51.5980 C   0  0  0  0  0  0  0  0  0  0  0  0
   58.5500   29.6200   50.0180 C   0  0  0  0  0  0  0  0  0  0  0  0
   57.3170   32.2270   44.8330 C   0  0  2  0  0  0  0  0  0  0  0  0
   58.1330   32.7150   43.6340 C   0  0  0  0  0  0  0  0  0  0  0  0
   58.9830   33.8510   44.1780 C   0  0  0  0  0  0  0  0  0  0  0  0
   59.1470   33.5750   45.6060 N   0  0  0  0  0  0  0  0  0  0  0  0
   59.6260   34.7100   46.4270 C   0  0  0  0  0  0  0  0  0  0  0  0
   60.8050   34.3950   47.3250 C   0  0  0  0  0  0  0  0  0  0  0  0
   60.7150   34.5890   48.7150 C   0  0  0  0  0  0  0  0  0  0  0  0
   61.7990   34.2840   49.5430 C   0  0  0  0  0  0  0  0  0  0  0  0
   62.9750   33.7650   48.9950 C   0  0  0  0  0  0  0  0  0  0  0  0
   63.0660   33.5450   47.6180 C   0  0  0  0  0  0  0  0  0  0  0  0
   61.9830   33.8500   46.7870 C   0  0  0  0  0  0  0  0  0  0  0  0
   57.9050   32.9450   46.0550 C   0  0  0  0  0  0  0  0  0  0  0  0
   57.8153   27.8133   44.5467 H   0  0  0  0  0  0  0  0  0  0  0  0
   56.9582   27.4847   43.0026 H   0  0  0  0  0  0  0  0  0  0  0  0
   58.4665   28.4603   43.0026 H   0  0  0  0  0  0  0  0  0  0  0  0
   59.4890   31.5950   46.4090 H   0  0  0  0  0  0  0  0  0  0  0  0
   59.6336   28.9281   47.7702 H   0  0  0  0  0  0  0  0  0  0  0  0
   60.8578   30.2503   47.8087 H   0  0  0  0  0  0  0  0  0  0  0  0
   59.8752   32.5489   48.8429 H   0  0  0  0  0  0  0  0  0  0  0  0
   58.9643   33.3613   51.0172 H   0  0  0  0  0  0  0  0  0  0  0  0
   57.7918   31.7887   52.5534 H   0  0  0  0  0  0  0  0  0  0  0  0
   54.2390   29.4972   54.7625 H   0  0  0  0  0  0  0  0  0  0  0  0
   52.0229   30.5077   54.2497 H   0  0  0  0  0  0  0  0  0  0  0  0
   50.1920   32.0660   50.1090 H   0  0  0  0  0  0  0  0  0  0  0  0
   53.4594   31.6704   50.3327 H   0  0  0  0  0  0  0  0  0  0  0  0
   55.6747   30.6624   50.8456 H   0  0  0  0  0  0  0  0  0  0  0  0
   58.4450   28.5608   49.7405 H   0  0  0  0  0  0  0  0  0  0  0  0
   56.2485   32.4649   44.7246 H   0  0  0  0  0  0  0  0  0  0  0  0
   58.7698   31.9071   43.2443 H   0  0  0  0  0  0  0  0  0  0  0  0
   57.4924   33.0387   42.8004 H   0  0  0  0  0  0  0  0  0  0  0  0
   59.9618   33.8716   43.6766 H   0  0  0  0  0  0  0  0  0  0  0  0
   58.5110   34.8295   44.0054 H   0  0  0  0  0  0  0  0  0  0  0  0
   59.9218   35.5226   45.7472 H   0  0  0  0  0  0  0  0  0  0  0  0
   58.7942   34.9811   47.0937 H   0  0  0  0  0  0  0  0  0  0  0  0
   59.7861   34.9831   49.1531 H   0  0  0  0  0  0  0  0  0  0  0  0
   61.7263   34.4528   50.6275 H   0  0  0  0  0  0  0  0  0  0  0  0
   63.8289   33.5297   49.6473 H   0  0  0  0  0  0  0  0  0  0  0  0
   63.9899   33.1317   47.1873 H   0  0  0  0  0  0  0  0  0  0  0  0
   62.0540   33.6620   45.7055 H   0  0  0  0  0  0  0  0  0  0  0  0
   58.1136   32.2219   46.8572 H   0  0  0  0  0  0  0  0  0  0  0  0
   57.2022   33.6901   46.4561 H   0  0  0  0  0  0  0  0  0  0  0  0
  1  2  1  0
  2  3  2  0
  2  4  2  0
  2  5  1  0
  5  6  1  0
  6  7  2  0
  6  8  1  0
  8  9  1  0
  9 10  1  0
 10 11  2  0
 11 12  1  0
 12 13  2  0
 13 14  1  0
 14 15  1  0
 15 16  1  0
 16 17  2  0
 16 18  1  0
 18 19  2  0
 19 20  1  0
 20 21  2  0
 21 22  1  0
 22 23  1  0
 22 24  2  0
 21 25  1  0
 25 26  2  0
 14 27  2  0
  5 28  1  0
 28 29  1  0
 29 30  1  0
 30 31  1  0
 31 32  1  0
 32 33  1  0
 33 34  2  0
 34 35  1  0
 35 36  2  0
 36 37  1  0
 37 38  2  0
 31 39  1  0
 27 10  1  0
 39 28  1  0
 26 18  1  0
 38 33  1  0
  1 40  1  0
  1 41  1  0
  1 42  1  0
  8 43  1  0
  9 44  1  0
  9 45  1  0
 11 46  1  0
 12 47  1  0
 13 48  1  0
 19 49  1  0
 20 50  1  0
 23 51  1  0
 25 52  1  0
 26 53  1  0
 27 54  1  0
 28 55  1  6
 29 56  1  0
 29 57  1  0
 30 58  1  0
 30 59  1  0
 32 60  1  0
 32 61  1  0
 34 62  1  0
 35 63  1  0
 36 64  1  0
 37 65  1  0
 38 66  1  0
 39 67  1  0
 39 68  1  0
M  CHG  2  15  -1  23  -1
M  END
>  <UniqueID>  (88) 
83

>  <SMILES>  (88) 
CS(=O)(=O)N(C(=O)NCc1cccc([N-]C(=O)c2ccc(C([NH-])=O)cc2)c1)[C@@H]1CCN(Cc2ccccc2)C1

>  <Energy>  (88) 
81.92108564679167

>  <Genealogy>  (88) 
CS(=O)(=O)N(C(=O)NCc1cccc([N-]C(=O)c2ccc(C([NH-])=O)cc2)c1)C1CCN(Cc2ccccc2)C1 (protonated)
CS(=O)(=O)N(C(=O)NCc1cccc([N-]C(=O)c2ccc(C([NH-])=O)cc2)c1)[C@@H]1CCN(Cc2ccccc2)C1 (chirality)
CS(=O)(=O)N(C(=O)NCc1cccc([N-]C(=O)c2ccc(C([NH-])=O)cc2)c1)[C@@H]1CCN(Cc2ccccc2)C1 (3D coordinates assigned)
CS(=O)(=O)N(C(=O)NCc1cccc([N-]C(=O)c2ccc(C([NH-])=O)cc2)c1)[C@@H]1CCN(Cc2ccccc2)C1 (nonaromatic ring conformer: 81.92108564679167 kcal/mol)

>  <smiles>  (88) 
CS(=O)(=O)N(C(=O)NCc1cccc(NC(=O)c2ccc(C(N)=O)cc2)c1)C1CCN(Cc2ccccc2)C1

>  <score_type>  (88) 
oracle

>  <origin>  (88) 
adg

>  <m_score__min__energy>  (88) 
-16.699999999999999

>  <m_primary>  (88) 
energy

$$$$
