0:0
     RDKit          3D

 34 36  0  0  0  0  0  0  0  0999 V2000
   58.6412   35.0725   47.5863 H   0  0  0  0  0  0  0  0  0  0  0  0
   58.8830   34.0200   47.3770 C   0  0  0  0  0  0  0  0  0  0  0  0
   57.8730   33.1340   47.0030 C   0  0  0  0  0  0  0  0  0  0  0  0
   56.8336   33.4857   46.9263 H   0  0  0  0  0  0  0  0  0  0  0  0
   58.1810   31.8010   46.7260 C   0  0  0  0  0  0  0  0  0  0  0  0
   57.3785   31.1036   46.4440 H   0  0  0  0  0  0  0  0  0  0  0  0
   59.5060   31.3420   46.8040 C   0  0  0  0  0  0  0  0  0  0  0  0
   59.7780   29.9340   46.4570 C   0  0  0  0  0  0  0  0  0  0  0  0
   59.1690   28.9110   47.0100 O   0  0  0  0  0  0  0  0  0  0  0  0
   59.6290   27.8570   46.3760 C   0  0  0  0  0  0  0  0  0  0  0  0
   59.1140   26.1770   46.7100 S   0  0  0  0  0  0  0  0  0  0  0  0
   57.3960   26.6290   47.1560 C   0  0  0  0  0  0  0  0  0  0  0  0
   57.4190   27.5280   47.7894 H   0  0  0  0  0  0  0  0  0  0  0  0
   56.9492   25.7764   47.6884 H   0  0  0  0  0  0  0  0  0  0  0  0
   56.5500   26.9120   45.9420 C   0  0  0  0  0  0  0  0  0  0  0  0
   55.3080   26.7050   45.9940 O   0  0  0  0  0  0  0  0  0  0  0  0
   57.0800   27.6190   44.8120 N   0  0  0  0  0  0  0  0  0  0  0  0
   56.9800   28.8940   44.5740 C   0  0  0  0  0  0  0  0  0  0  0  0
   55.9770   29.6460   45.0640 N   0  0  0  0  0  0  0  0  0  0  0  0
   56.1520   30.8490   44.5970 O   0  0  0  0  0  0  0  0  0  0  0  0
   57.2110   30.9050   43.8220 C   0  0  0  0  0  0  0  0  0  0  0  0
   57.6900   32.1340   43.1260 C   0  0  0  0  0  0  0  0  0  0  0  0
   57.9835   32.8871   43.8721 H   0  0  0  0  0  0  0  0  0  0  0  0
   58.5567   31.8845   42.4963 H   0  0  0  0  0  0  0  0  0  0  0  0
   56.8831   32.5368   42.4963 H   0  0  0  0  0  0  0  0  0  0  0  0
   57.7980   29.6600   43.7650 C   0  0  0  0  0  0  0  0  0  0  0  0
   58.6971   29.3513   43.2115 H   0  0  0  0  0  0  0  0  0  0  0  0
   60.5230   28.1960   45.4270 N   0  0  0  0  0  0  0  0  0  0  0  0
   60.6100   29.5140   45.4870 N   0  0  0  0  0  0  0  0  0  0  0  0
   61.1830   30.0970   44.8370 H   0  0  0  0  0  0  0  0  0  0  0  0
   60.5230   32.2380   47.2080 C   0  0  0  0  0  0  0  0  0  0  0  0
   62.3360   31.6840   47.5030 Br  0  0  0  0  0  0  0  0  0  0  0  0
   60.2010   33.5720   47.4860 C   0  0  0  0  0  0  0  0  0  0  0  0
   60.9921   34.2722   47.7925 H   0  0  0  0  0  0  0  0  0  0  0  0
  1  2  1  0
  2  3  2  0
  3  4  1  0
  3  5  1  0
  5  6  1  0
  5  7  2  0
  7  8  1  0
  8  9  1  0
  9 10  1  0
 10 11  1  0
 11 12  1  0
 12 13  1  0
 12 14  1  0
 12 15  1  0
 15 16  2  0
 15 17  1  0
 17 18  2  0
 18 19  1  0
 19 20  1  0
 20 21  1  0
 21 22  1  0
 22 23  1  0
 22 24  1  0
 22 25  1  0
 21 26  2  0
 26 27  1  0
 10 28  2  0
 28 29  1  0
 29 30  1  0
  7 31  1  0
 31 32  1  0
 31 33  2  0
 33 34  1  0
 33  2  1  0
 29  8  2  0
 26 18  1  0
M  CHG  2  19  -1  29   1
M  END
>  <UniqueID>  (1) 
1

>  <SMILES>  (1) 
Cc1c/c(=N\C(=O)CSc2n[nH+]c(-c3ccccc3Br)o2)[n-]o1

>  <Energy>  (1) 
108.95337595367491

>  <Genealogy>  (1) 
Cc1cc(=NC(=O)CSc2n[nH+]c(-c3ccccc3Br)o2)[n-]o1 (protonated)
Cc1c/c(=N\C(=O)CSc2n[nH+]c(-c3ccccc3Br)o2)[n-]o1 (cis-trans isomerization)
Cc1c/c(=N\C(=O)CSc2n[nH+]c(-c3ccccc3Br)o2)[n-]o1 (3D coordinates assigned)
Cc1c/c(=N\C(=O)CSc2n[nH+]c(-c3ccccc3Br)o2)[n-]o1 (optimized conformer: 108.95337595367491 kcal/mol)

>  <smiles>  (1) 
Cc1cc(=NC(=O)CSc2nnc(-c3ccccc3Br)o2)[nH]o1

>  <score_type>  (1) 
oracle

>  <origin>  (1) 
adg

>  <m_score__min__energy>  (1) 
-9.5199999999999996

>  <m_primary>  (1) 
energy

$$$$
1:0
     RDKit          3D

 36 38  0  0  0  0  0  0  0  0999 V2000
   60.6910   28.8510   45.2760 C   0  0  0  0  0  0  0  0  0  0  0  0
   59.4220   28.0730   45.4820 C   0  0  0  0  0  0  0  0  0  0  0  0
   59.5150   26.7640   45.8380 N   0  0  0  0  0  0  0  0  0  0  0  0
   58.4150   25.9870   46.0100 C   0  0  0  0  0  0  0  0  0  0  0  0
   57.1430   26.5390   45.8110 C   0  0  0  0  0  0  0  0  0  0  0  0
   55.9180   25.7340   45.9670 C   0  0  0  0  0  0  0  0  0  0  0  0
   54.7980   26.3110   46.0020 O   0  0  0  0  0  0  0  0  0  0  0  0
   56.0020   24.3120   46.1300 N   0  0  0  0  0  0  0  0  0  0  0  0
   56.4080   23.3760   45.1220 C   0  0  0  0  0  0  0  0  0  0  0  0
   55.8640   23.4970   43.8360 C   0  0  0  0  0  0  0  0  0  0  0  0
   56.2220   22.5970   42.8290 C   0  0  0  0  0  0  0  0  0  0  0  0
   57.1120   21.5560   43.1050 C   0  0  0  0  0  0  0  0  0  0  0  0
   57.6350   21.4070   44.3920 C   0  0  0  0  0  0  0  0  0  0  0  0
   57.2810   22.3060   45.4050 C   0  0  0  0  0  0  0  0  0  0  0  0
   57.7440   22.0910   46.6610 F   0  0  0  0  0  0  0  0  0  0  0  0
   57.0450   27.8500   45.4670 N   0  0  0  0  0  0  0  0  0  0  0  0
   58.1390   28.6440   45.3130 C   0  0  0  0  0  0  0  0  0  0  0  0
   57.9320   30.0620   44.9470 C   0  0  0  0  0  0  0  0  0  0  0  0
   57.5870   30.4260   43.6340 C   0  0  0  0  0  0  0  0  0  0  0  0
   57.4170   31.7720   43.2970 C   0  0  0  0  0  0  0  0  0  0  0  0
   57.6040   32.7650   44.2630 C   0  0  0  0  0  0  0  0  0  0  0  0
   57.9690   32.4130   45.5660 C   0  0  0  0  0  0  0  0  0  0  0  0
   58.2150   33.6600   46.7750 Cl  0  0  0  0  0  0  0  0  0  0  0  0
   58.1400   31.0660   45.9060 C   0  0  0  0  0  0  0  0  0  0  0  0
   61.1218   29.1151   46.2530 H   0  0  0  0  0  0  0  0  0  0  0  0
   61.4095   28.2380   44.7121 H   0  0  0  0  0  0  0  0  0  0  0  0
   60.4706   29.7694   44.7121 H   0  0  0  0  0  0  0  0  0  0  0  0
   58.5218   24.9322   46.3033 H   0  0  0  0  0  0  0  0  0  0  0  0
   55.1507   24.3056   43.6181 H   0  0  0  0  0  0  0  0  0  0  0  0
   55.8028   22.7081   41.8181 H   0  0  0  0  0  0  0  0  0  0  0  0
   57.4009   20.8538   42.3091 H   0  0  0  0  0  0  0  0  0  0  0  0
   58.3273   20.5804   44.6100 H   0  0  0  0  0  0  0  0  0  0  0  0
   57.4502   29.6483   42.8682 H   0  0  0  0  0  0  0  0  0  0  0  0
   57.1358   32.0501   42.2706 H   0  0  0  0  0  0  0  0  0  0  0  0
   57.4640   33.8234   43.9980 H   0  0  0  0  0  0  0  0  0  0  0  0
   58.4386   30.7930   46.9289 H   0  0  0  0  0  0  0  0  0  0  0  0
  1  2  1  0
  2  3  2  0
  3  4  1  0
  4  5  2  0
  5  6  1  0
  6  7  2  0
  6  8  1  0
  8  9  1  0
  9 10  2  0
 10 11  1  0
 11 12  2  0
 12 13  1  0
 13 14  2  0
 14 15  1  0
  5 16  1  0
 16 17  2  0
 17 18  1  0
 18 19  2  0
 19 20  1  0
 20 21  2  0
 21 22  1  0
 22 23  1  0
 22 24  2  0
 17  2  1  0
 24 18  1  0
 14  9  1  0
  1 25  1  0
  1 26  1  0
  1 27  1  0
  4 28  1  0
 10 29  1  0
 11 30  1  0
 12 31  1  0
 13 32  1  0
 19 33  1  0
 20 34  1  0
 21 35  1  0
 24 36  1  0
M  CHG  1   8  -1
M  END
>  <UniqueID>  (2) 
2

>  <SMILES>  (2) 
Cc1ncc(C(=O)[N-]c2ccccc2F)nc1-c1cccc(Cl)c1

>  <Energy>  (2) 
51.46251263604576

>  <Genealogy>  (2) 
Cc1ncc(C(=O)[N-]c2ccccc2F)nc1-c1cccc(Cl)c1 (protonated)
Cc1ncc(C(=O)[N-]c2ccccc2F)nc1-c1cccc(Cl)c1 (3D coordinates assigned)
Cc1ncc(C(=O)[N-]c2ccccc2F)nc1-c1cccc(Cl)c1 (optimized conformer: 51.46251263604576 kcal/mol)

>  <smiles>  (2) 
Cc1ncc(C(=O)Nc2ccccc2F)nc1-c1cccc(Cl)c1

>  <score_type>  (2) 
oracle

>  <origin>  (2) 
adg

>  <m_score__min__energy>  (2) 
-10.32

>  <m_primary>  (2) 
energy

$$$$
2:0
     RDKit          3D

 52 55  0  0  0  0  0  0  0  0999 V2000
   59.7380   34.9510   48.2830 O   0  0  0  0  0  0  0  0  0  0  0  0
   59.0470   34.3620   47.4060 C   0  0  0  0  0  0  0  0  0  0  0  0
   58.9480   34.9500   46.0260 C   0  0  0  0  0  0  0  0  0  0  0  0
   59.3310   33.9290   44.9480 C   0  0  0  0  0  0  0  0  0  0  0  0
   58.4370   32.7260   44.9710 C   0  0  0  0  0  0  0  0  0  0  0  0
   58.8680   31.4630   45.1560 N   0  0  0  0  0  0  0  0  0  0  0  0
   57.7120   30.7720   45.0600 C   0  0  0  0  0  0  0  0  0  0  0  0
   57.6230   29.3000   45.1510 C   0  0  0  0  0  0  0  0  0  0  0  0
   58.7270   28.4960   44.8120 C   0  0  0  0  0  0  0  0  0  0  0  0
   58.6330   27.1030   44.8780 C   0  0  0  0  0  0  0  0  0  0  0  0
   57.4370   26.4980   45.2720 C   0  0  0  0  0  0  0  0  0  0  0  0
   56.3350   27.2880   45.6090 C   0  0  0  0  0  0  0  0  0  0  0  0
   55.1460   26.6870   45.9990 O   0  0  0  0  0  0  0  0  0  0  0  0
   56.4280   28.6830   45.5550 C   0  0  0  0  0  0  0  0  0  0  0  0
   56.6510   31.5730   44.8410 N   0  0  0  0  0  0  0  0  0  0  0  0
   57.1420   32.7740   44.7920 O   0  0  0  0  0  0  0  0  0  0  0  0
   58.3970   33.1180   47.7030 N   0  0  0  0  0  0  0  0  0  0  0  0
   58.6720   32.3480   48.9160 C   0  0  0  0  0  0  0  0  0  0  0  0
   59.3180   31.0320   48.5570 C   0  0  0  0  0  0  0  0  0  0  0  0
   58.5470   29.8610   48.6070 C   0  0  0  0  0  0  0  0  0  0  0  0
   59.1040   28.6330   48.2500 C   0  0  0  0  0  0  0  0  0  0  0  0
   60.4350   28.5800   47.8470 C   0  0  0  0  0  0  0  0  0  0  0  0
   61.1800   29.7140   47.8110 N   0  0  0  0  0  0  0  0  0  0  0  0
   60.6740   30.9290   48.1620 C   0  0  0  0  0  0  0  0  0  0  0  0
   61.5300   32.0790   48.0790 N   0  0  0  0  0  0  0  0  0  0  0  0
   61.7370   32.7110   46.7740 C   0  0  0  0  0  0  0  0  0  0  0  0
   62.9190   33.6740   46.8340 C   0  0  0  0  0  0  0  0  0  0  0  0
   63.9700   33.0630   47.5490 O   0  0  0  0  0  0  0  0  0  0  0  0
   63.6730   33.0430   48.9350 C   0  0  0  0  0  0  0  0  0  0  0  0
   62.2370   32.5690   49.2690 C   0  0  0  0  0  0  0  0  0  0  0  0
   57.9134   35.2811   45.8525 H   0  0  0  0  0  0  0  0  0  0  0  0
   59.6476   35.7964   45.9619 H   0  0  0  0  0  0  0  0  0  0  0  0
   59.2551   34.4091   43.9612 H   0  0  0  0  0  0  0  0  0  0  0  0
   60.3588   33.5924   45.1487 H   0  0  0  0  0  0  0  0  0  0  0  0
   59.6690   28.9663   44.4934 H   0  0  0  0  0  0  0  0  0  0  0  0
   59.5029   26.4815   44.6191 H   0  0  0  0  0  0  0  0  0  0  0  0
   57.3630   25.4014   45.3168 H   0  0  0  0  0  0  0  0  0  0  0  0
   55.5600   29.3000   45.8306 H   0  0  0  0  0  0  0  0  0  0  0  0
   57.8030   32.6800   46.9660 H   0  0  0  0  0  0  0  0  0  0  0  0
   59.3499   32.9213   49.5655 H   0  0  0  0  0  0  0  0  0  0  0  0
   57.7259   32.1539   49.4426 H   0  0  0  0  0  0  0  0  0  0  0  0
   57.4966   29.9116   48.9298 H   0  0  0  0  0  0  0  0  0  0  0  0
   58.4975   27.7160   48.2866 H   0  0  0  0  0  0  0  0  0  0  0  0
   60.8836   27.6183   47.5574 H   0  0  0  0  0  0  0  0  0  0  0  0
   61.9398   31.9338   46.0224 H   0  0  0  0  0  0  0  0  0  0  0  0
   60.8314   33.2723   46.5004 H   0  0  0  0  0  0  0  0  0  0  0  0
   63.2550   33.9103   45.8136 H   0  0  0  0  0  0  0  0  0  0  0  0
   62.6169   34.6041   47.3376 H   0  0  0  0  0  0  0  0  0  0  0  0
   64.3840   32.3656   49.4306 H   0  0  0  0  0  0  0  0  0  0  0  0
   63.7546   34.0806   49.2911 H   0  0  0  0  0  0  0  0  0  0  0  0
   62.2939   31.7564   50.0083 H   0  0  0  0  0  0  0  0  0  0  0  0
   61.6785   33.4293   49.6665 H   0  0  0  0  0  0  0  0  0  0  0  0
  1  2  2  0
  2  3  1  0
  3  4  1  0
  4  5  1  0
  5  6  2  0
  6  7  1  0
  7  8  1  0
  8  9  2  0
  9 10  1  0
 10 11  2  0
 11 12  1  0
 12 13  1  0
 12 14  2  0
  7 15  2  0
 15 16  1  0
  2 17  1  0
 17 18  1  0
 18 19  1  0
 19 20  2  0
 20 21  1  0
 21 22  2  0
 22 23  1  0
 23 24  2  0
 24 25  1  0
 25 26  1  0
 26 27  1  0
 27 28  1  0
 28 29  1  0
 29 30  1  0
 16  5  1  0
 24 19  1  0
 30 25  1  0
 14  8  1  0
  3 31  1  0
  3 32  1  0
  4 33  1  0
  4 34  1  0
  9 35  1  0
 10 36  1  0
 11 37  1  0
 14 38  1  0
 17 39  1  0
 18 40  1  0
 18 41  1  0
 20 42  1  0
 21 43  1  0
 22 44  1  0
 26 45  1  0
 26 46  1  0
 27 47  1  0
 27 48  1  0
 29 49  1  0
 29 50  1  0
 30 51  1  0
 30 52  1  0
M  CHG  1  13  -1
M  END
>  <UniqueID>  (3) 
3

>  <SMILES>  (3) 
O=C(CCc1nc(-c2cccc([O-])c2)no1)NCc1cccnc1N1CCOCC1

>  <Energy>  (3) 
88.6485849972515

>  <Genealogy>  (3) 
O=C(CCc1nc(-c2cccc([O-])c2)no1)NCc1cccnc1N1CCOCC1 (protonated)
O=C(CCc1nc(-c2cccc([O-])c2)no1)NCc1cccnc1N1CCOCC1 (3D coordinates assigned)
O=C(CCc1nc(-c2cccc([O-])c2)no1)NCc1cccnc1N1CCOCC1 (nonaromatic ring conformer: 88.6485849972515 kcal/mol)

>  <smiles>  (3) 
O=C(CCc1nc(-c2cccc(O)c2)no1)NCc1cccnc1N1CCOCC1

>  <score_type>  (3) 
oracle

>  <origin>  (3) 
adg

>  <m_score__min__energy>  (3) 
-13.949999999999999

>  <m_primary>  (3) 
energy

$$$$
3:0
     RDKit          3D

 49 52  0  0  0  0  0  0  0  0999 V2000
   56.2800   24.9430   47.4830 O   0  0  0  0  0  0  0  0  0  0  0  0
   56.3150   25.5250   46.0950 S   0  0  0  0  0  0  0  0  0  0  0  0
   54.8880   25.7700   45.7000 O   0  0  0  0  0  0  0  0  0  0  0  0
   57.3010   27.0300   46.1020 C   0  0  0  0  0  0  0  0  0  0  0  0
   56.8260   28.0300   45.2450 C   0  0  0  0  0  0  0  0  0  0  0  0
   57.2200   29.3490   45.1080 C   0  0  0  0  0  0  0  0  0  0  0  0
   58.0900   30.0830   45.9020 C   0  0  0  0  0  0  0  0  0  0  0  0
   58.2240   31.4880   45.6260 N   0  0  0  0  0  0  0  0  0  0  0  0
   58.0720   31.9090   44.2260 C   0  0  0  0  0  0  0  0  0  0  0  0
   57.8200   33.4130   44.1160 C   0  0  0  0  0  0  0  0  0  0  0  0
   58.9180   34.1880   44.8410 C   0  0  0  0  0  0  0  0  0  0  0  0
   59.0280   33.7410   46.2750 C   0  0  0  0  0  0  0  0  0  0  0  0
   59.5080   34.6350   47.2460 C   0  0  0  0  0  0  0  0  0  0  0  0
   59.6220   34.2340   48.5770 C   0  0  0  0  0  0  0  0  0  0  0  0
   59.2620   32.9390   48.9500 C   0  0  0  0  0  0  0  0  0  0  0  0
   58.8000   32.0350   47.9910 C   0  0  0  0  0  0  0  0  0  0  0  0
   58.7000   32.4150   46.6360 C   0  0  0  0  0  0  0  0  0  0  0  0
   58.7750   29.5930   46.9550 N   0  0  0  0  0  0  0  0  0  0  0  0
   58.9500   28.3590   47.4760 C   0  0  0  0  0  0  0  0  0  0  0  0
   59.9830   28.2870   48.7510 S   0  0  0  0  0  0  0  0  0  0  0  0
   58.3900   27.1560   46.9990 C   0  0  0  0  0  0  0  0  0  0  0  0
   58.9700   25.9940   47.5180 O   0  0  0  0  0  0  0  0  0  0  0  0
   57.0000   24.3300   45.0140 N   0  0  0  0  0  0  0  0  0  0  0  0
   57.0920   22.9960   45.6460 C   0  0  0  0  0  0  0  0  0  0  0  0
   56.0310   22.0240   45.1000 C   0  0  0  0  0  0  0  0  0  0  0  0
   56.1180   21.8350   43.6940 O   0  0  0  0  0  0  0  0  0  0  0  0
   56.5310   22.9950   42.9820 C   0  0  0  0  0  0  0  0  0  0  0  0
   56.2770   24.3150   43.7280 C   0  0  0  0  0  0  0  0  0  0  0  0
   56.0113   27.7177   44.5751 H   0  0  0  0  0  0  0  0  0  0  0  0
   56.7849   29.8891   44.2542 H   0  0  0  0  0  0  0  0  0  0  0  0
   58.9916   31.6597   43.6762 H   0  0  0  0  0  0  0  0  0  0  0  0
   57.2053   31.3823   43.8000 H   0  0  0  0  0  0  0  0  0  0  0  0
   57.8111   33.7029   43.0549 H   0  0  0  0  0  0  0  0  0  0  0  0
   56.8502   33.6484   44.5787 H   0  0  0  0  0  0  0  0  0  0  0  0
   59.8783   34.0132   44.3338 H   0  0  0  0  0  0  0  0  0  0  0  0
   58.6657   35.2585   44.8229 H   0  0  0  0  0  0  0  0  0  0  0  0
   59.7954   35.6563   46.9554 H   0  0  0  0  0  0  0  0  0  0  0  0
   59.9962   34.9397   49.3333 H   0  0  0  0  0  0  0  0  0  0  0  0
   59.3422   32.6290   50.0024 H   0  0  0  0  0  0  0  0  0  0  0  0
   58.5116   31.0179   48.2947 H   0  0  0  0  0  0  0  0  0  0  0  0
   58.4300   25.1750   47.7550 H   0  0  0  0  0  0  0  0  0  0  0  0
   58.0905   22.5783   45.4498 H   0  0  0  0  0  0  0  0  0  0  0  0
   56.9166   23.1188   46.7250 H   0  0  0  0  0  0  0  0  0  0  0  0
   56.1625   21.0495   45.5929 H   0  0  0  0  0  0  0  0  0  0  0  0
   55.0448   22.4630   45.3112 H   0  0  0  0  0  0  0  0  0  0  0  0
   57.6099   22.9125   42.7840 H   0  0  0  0  0  0  0  0  0  0  0  0
   55.9307   23.0314   42.0610 H   0  0  0  0  0  0  0  0  0  0  0  0
   56.6249   25.1540   43.1075 H   0  0  0  0  0  0  0  0  0  0  0  0
   55.1990   24.4101   43.9252 H   0  0  0  0  0  0  0  0  0  0  0  0
  1  2  2  0
  2  3  2  0
  2  4  1  0
  4  5  1  0
  5  6  2  0
  6  7  1  0
  7  8  1  0
  8  9  1  0
  9 10  1  0
 10 11  1  0
 11 12  1  0
 12 13  2  0
 13 14  1  0
 14 15  2  0
 15 16  1  0
 16 17  2  0
  7 18  2  0
 18 19  1  0
 19 20  2  0
 19 21  1  0
 21 22  1  0
  2 23  1  0
 23 24  1  0
 24 25  1  0
 25 26  1  0
 26 27  1  0
 27 28  1  0
 21  4  2  0
 28 23  1  0
 17  8  1  0
 17 12  1  0
  5 29  1  0
  6 30  1  0
  9 31  1  0
  9 32  1  0
 10 33  1  0
 10 34  1  0
 11 35  1  0
 11 36  1  0
 13 37  1  0
 14 38  1  0
 15 39  1  0
 16 40  1  0
 22 41  1  0
 24 42  1  0
 24 43  1  0
 25 44  1  0
 25 45  1  0
 27 46  1  0
 27 47  1  0
 28 48  1  0
 28 49  1  0
M  END
>  <UniqueID>  (4) 
4

>  <SMILES>  (4) 
O=S(=O)(c1ccc(N2CCCc3ccccc32)nc(=S)c1O)N1CCOCC1

>  <Energy>  (4) 
106.20591646525375

>  <Genealogy>  (4) 
O=S(=O)(c1ccc(N2CCCc3ccccc32)nc(=S)c1O)N1CCOCC1 (3D coordinates assigned)
O=S(=O)(c1ccc(N2CCCc3ccccc32)nc(=S)c1O)N1CCOCC1 (nonaromatic ring conformer: 106.20591646525375 kcal/mol)

>  <smiles>  (4) 
O=S(=O)(c1ccc(N2CCCc3ccccc32)nc(=S)c1O)N1CCOCC1

>  <score_type>  (4) 
oracle

>  <origin>  (4) 
adg

>  <m_score__min__energy>  (4) 
-9.6400000000000006

>  <m_primary>  (4) 
energy

$$$$
4:0
     RDKit          3D

 48 52  0  0  0  0  0  0  0  0999 V2000
   57.4390   27.4710   44.4240 O   0  0  0  0  0  0  0  0  0  0  0  0
   56.6250   27.9460   45.2590 C   0  0  0  0  0  0  0  0  0  0  0  0
   55.7070   27.0890   45.9510 N   0  0  0  0  0  0  0  0  0  0  0  0
   55.8230   25.6710   46.1220 C   0  0  0  0  0  0  0  0  0  0  0  0
   54.8860   24.7730   45.5770 C   0  0  0  0  0  0  0  0  0  0  0  0
   55.0480   23.3950   45.7510 C   0  0  0  0  0  0  0  0  0  0  0  0
   56.1500   22.9020   46.4560 C   0  0  0  0  0  0  0  0  0  0  0  0
   56.3530   21.1720   46.6710 Cl  0  0  0  0  0  0  0  0  0  0  0  0
   57.0970   23.7880   46.9800 C   0  0  0  0  0  0  0  0  0  0  0  0
   56.9370   25.1660   46.8050 C   0  0  0  0  0  0  0  0  0  0  0  0
   56.5460   29.3650   45.4190 N   0  0  0  0  0  0  0  0  0  0  0  0
   56.9620   30.3310   44.4460 C   0  0  0  0  0  0  0  0  0  0  0  0
   56.5390   30.2480   43.1080 C   0  0  0  0  0  0  0  0  0  0  0  0
   56.9460   31.2080   42.1810 C   0  0  0  0  0  0  0  0  0  0  0  0
   57.7790   32.2560   42.5790 C   0  0  0  0  0  0  0  0  0  0  0  0
   58.1950   32.3550   43.9090 C   0  0  0  0  0  0  0  0  0  0  0  0
   57.7730   31.4020   44.8570 C   0  0  0  0  0  0  0  0  0  0  0  0
   58.1910   31.4340   46.1950 O   0  0  0  0  0  0  0  0  0  0  0  0
   58.8190   32.4960   46.8550 C   0  0  0  0  0  0  0  0  0  0  0  0
   58.3120   33.7630   46.7990 N   0  0  0  0  0  0  0  0  0  0  0  0
   58.8840   34.7940   47.4890 C   0  0  0  0  0  0  0  0  0  0  0  0
   59.9740   34.5750   48.2760 N   0  0  0  0  0  0  0  0  0  0  0  0
   60.4860   33.3240   48.3460 C   0  0  0  0  0  0  0  0  0  0  0  0
   61.7880   32.8200   49.2710 S   0  0  0  0  0  0  0  0  0  0  0  0
   61.6930   31.2020   48.7810 C   0  0  0  0  0  0  0  0  0  0  0  0
   60.6380   31.0520   47.8760 C   0  0  0  0  0  0  0  0  0  0  0  0
   60.3300   29.7610   47.2290 C   0  0  0  0  0  0  0  0  0  0  0  0
   60.7010   29.5360   45.8930 C   0  0  0  0  0  0  0  0  0  0  0  0
   60.3930   28.3220   45.2700 C   0  0  0  0  0  0  0  0  0  0  0  0
   59.7260   27.3210   45.9810 C   0  0  0  0  0  0  0  0  0  0  0  0
   59.3710   27.5300   47.3160 C   0  0  0  0  0  0  0  0  0  0  0  0
   59.6740   28.7430   47.9440 C   0  0  0  0  0  0  0  0  0  0  0  0
   59.3080   28.9340   49.2370 F   0  0  0  0  0  0  0  0  0  0  0  0
   59.9500   32.2620   47.6460 C   0  0  0  0  0  0  0  0  0  0  0  0
   54.0234   25.1565   45.0123 H   0  0  0  0  0  0  0  0  0  0  0  0
   54.3072   22.6978   45.3325 H   0  0  0  0  0  0  0  0  0  0  0  0
   57.9675   23.4008   47.5297 H   0  0  0  0  0  0  0  0  0  0  0  0
   57.6914   25.8586   47.2066 H   0  0  0  0  0  0  0  0  0  0  0  0
   55.8845   29.4229   42.7906 H   0  0  0  0  0  0  0  0  0  0  0  0
   56.6105   31.1394   41.1357 H   0  0  0  0  0  0  0  0  0  0  0  0
   58.1082   33.0050   41.8437 H   0  0  0  0  0  0  0  0  0  0  0  0
   58.8543   33.1799   44.2171 H   0  0  0  0  0  0  0  0  0  0  0  0
   58.4620   35.8066   47.4086 H   0  0  0  0  0  0  0  0  0  0  0  0
   62.3579   30.3946   49.1217 H   0  0  0  0  0  0  0  0  0  0  0  0
   61.2361   30.3179   45.3342 H   0  0  0  0  0  0  0  0  0  0  0  0
   60.6760   28.1554   44.2202 H   0  0  0  0  0  0  0  0  0  0  0  0
   59.4803   26.3681   45.4895 H   0  0  0  0  0  0  0  0  0  0  0  0
   58.8514   26.7381   47.8754 H   0  0  0  0  0  0  0  0  0  0  0  0
  1  2  2  0
  2  3  1  0
  3  4  1  0
  4  5  2  0
  5  6  1  0
  6  7  2  0
  7  8  1  0
  7  9  1  0
  9 10  2  0
  2 11  1  0
 11 12  1  0
 12 13  2  0
 13 14  1  0
 14 15  2  0
 15 16  1  0
 16 17  2  0
 17 18  1  0
 18 19  1  0
 19 20  2  0
 20 21  1  0
 21 22  2  0
 22 23  1  0
 23 24  1  0
 24 25  1  0
 25 26  2  0
 26 27  1  0
 27 28  2  0
 28 29  1  0
 29 30  2  0
 30 31  1  0
 31 32  2  0
 32 33  1  0
 26 34  1  0
 10  4  1  0
 17 12  1  0
 34 19  1  0
 34 23  2  0
 32 27  1  0
  5 35  1  0
  6 36  1  0
  9 37  1  0
 10 38  1  0
 13 39  1  0
 14 40  1  0
 15 41  1  0
 16 42  1  0
 21 43  1  0
 25 44  1  0
 28 45  1  0
 29 46  1  0
 30 47  1  0
 31 48  1  0
M  CHG  2   3  -1  11  -1
M  END
>  <UniqueID>  (5) 
5

>  <SMILES>  (5) 
O=C([N-]c1ccc(Cl)cc1)[N-]c1ccccc1Oc1ncnc2scc(-c3ccccc3F)c12

>  <Energy>  (5) 
105.06885820849119

>  <Genealogy>  (5) 
O=C([N-]c1ccc(Cl)cc1)[N-]c1ccccc1Oc1ncnc2scc(-c3ccccc3F)c12 (protonated)
O=C([N-]c1ccc(Cl)cc1)[N-]c1ccccc1Oc1ncnc2scc(-c3ccccc3F)c12 (3D coordinates assigned)
O=C([N-]c1ccc(Cl)cc1)[N-]c1ccccc1Oc1ncnc2scc(-c3ccccc3F)c12 (optimized conformer: 105.06885820849119 kcal/mol)

>  <smiles>  (5) 
O=C(Nc1ccc(Cl)cc1)Nc1ccccc1Oc1ncnc2scc(-c3ccccc3F)c12

>  <score_type>  (5) 
oracle

>  <origin>  (5) 
adg

>  <m_score__min__energy>  (5) 
-12.380000000000001

>  <m_primary>  (5) 
energy

$$$$
5:0
     RDKit          3D

 51 54  0  0  1  0  0  0  0  0999 V2000
   62.6420   31.3780   47.2670 N   0  0  0  0  0  0  0  0  0  0  0  0
   61.4810   30.8600   47.5670 C   0  0  0  0  0  0  0  0  0  0  0  0
   60.7190   30.3000   46.5990 N   0  0  0  0  0  0  0  0  0  0  0  0
   59.5050   29.7560   46.9060 C   0  0  0  0  0  0  0  0  0  0  0  0
   58.7290   29.2160   45.8060 C   0  0  0  0  0  0  0  0  0  0  0  0
   58.8640   27.8790   45.5840 N   0  0  0  0  0  0  0  0  0  0  0  0
   58.2240   27.2380   44.5980 C   0  0  0  0  0  0  0  0  0  0  0  0
   58.3280   25.9950   44.3580 N   0  0  0  0  0  0  0  0  0  0  0  0
   57.2030   25.1400   44.4570 C   0  0  0  0  0  0  0  0  0  0  0  0
   56.3170   25.1620   45.5190 C   0  0  0  0  0  0  0  0  0  0  0  0
   55.2600   24.2800   45.5170 C   0  0  0  0  0  0  0  0  0  0  0  0
   55.0820   23.3800   44.4680 C   0  0  0  0  0  0  0  0  0  0  0  0
   55.9640   23.3450   43.3960 C   0  0  0  0  0  0  0  0  0  0  0  0
   57.0220   24.2370   43.4090 C   0  0  0  0  0  0  0  0  0  0  0  0
   57.3990   27.9470   43.7750 N   0  0  0  0  0  0  0  0  0  0  0  0
   57.2500   29.2610   43.9720 C   0  0  0  0  0  0  0  0  0  0  0  0
   57.9050   29.9550   44.9930 C   0  0  0  0  0  0  0  0  0  0  0  0
   57.7030   31.3760   45.0510 C   0  0  0  0  0  0  0  0  0  0  0  0
   56.6520   32.0230   44.9610 O   0  0  0  0  0  0  0  0  0  0  0  0
   58.9030   32.1780   45.2430 N   0  0  0  0  0  0  0  0  0  0  0  0
   58.6980   33.6230   45.3140 C   0  0  0  0  0  0  0  0  0  0  0  0
   60.0240   34.2270   45.6920 C   0  0  0  0  0  0  0  0  0  0  0  0
   60.3530   34.1150   47.1210 C   0  0  0  0  0  0  0  0  0  0  0  0
   59.3870   33.9510   48.1050 C   0  0  0  0  0  0  0  0  0  0  0  0
   59.7600   33.8400   49.4230 C   0  0  0  0  0  0  0  0  0  0  0  0
   61.1220   33.8980   49.7290 C   0  0  0  0  0  0  0  0  0  0  0  0
   62.0710   34.0640   48.7280 C   0  0  0  0  0  0  0  0  0  0  0  0
   61.6780   34.1700   47.4480 N   0  0  0  0  0  0  0  0  0  0  0  0
   59.1230   29.8070   48.2070 C   0  0  0  0  0  0  0  0  0  0  0  0
   59.9210   30.3890   49.2010 C   0  0  0  0  0  0  0  0  0  0  0  0
   61.1060   30.9110   48.8440 N   0  0  0  0  0  0  0  0  0  0  0  0
   62.7410   32.3770   46.9820 H   0  0  0  0  0  0  0  0  0  0  0  0
   56.4544   25.8706   46.3491 H   0  0  0  0  0  0  0  0  0  0  0  0
   54.5466   24.2857   46.3543 H   0  0  0  0  0  0  0  0  0  0  0  0
   54.2289   22.6860   44.4895 H   0  0  0  0  0  0  0  0  0  0  0  0
   55.8268   22.6347   42.5673 H   0  0  0  0  0  0  0  0  0  0  0  0
   57.7372   24.2340   42.5732 H   0  0  0  0  0  0  0  0  0  0  0  0
   56.8920   27.4570   43.0050 H   0  0  0  0  0  0  0  0  0  0  0  0
   56.5822   29.8207   43.3006 H   0  0  0  0  0  0  0  0  0  0  0  0
   59.8410   31.7320   45.3200 H   0  0  0  0  0  0  0  0  0  0  0  0
   58.3700   34.0083   44.3373 H   0  0  0  0  0  0  0  0  0  0  0  0
   57.9215   33.8780   46.0502 H   0  0  0  0  0  0  0  0  0  0  0  0
   60.8112   33.7185   45.1161 H   0  0  0  0  0  0  0  0  0  0  0  0
   59.9571   35.3016   45.4667 H   0  0  0  0  0  0  0  0  0  0  0  0
   58.3229   33.9099   47.8294 H   0  0  0  0  0  0  0  0  0  0  0  0
   59.0075   33.7092   50.2146 H   0  0  0  0  0  0  0  0  0  0  0  0
   61.4472   33.8111   50.7762 H   0  0  0  0  0  0  0  0  0  0  0  0
   63.1402   34.1085   48.9827 H   0  0  0  0  0  0  0  0  0  0  0  0
   58.1519   29.3759   48.4917 H   0  0  0  0  0  0  0  0  0  0  0  0
   59.5852   30.4177   50.2481 H   0  0  0  0  0  0  0  0  0  0  0  0
   61.6740   31.3350   49.6070 H   0  0  0  0  0  0  0  0  0  0  0  0
  1  2  2  3
  2  3  1  0
  3  4  2  0
  4  5  1  0
  5  6  2  0
  6  7  1  0
  7  8  2  0
  8  9  1  0
  9 10  2  0
 10 11  1  0
 11 12  2  0
 12 13  1  0
 13 14  2  0
  7 15  1  0
 15 16  1  0
 16 17  2  0
 17 18  1  0
 18 19  2  0
 18 20  1  0
 20 21  1  0
 21 22  1  0
 22 23  1  0
 23 24  2  0
 24 25  1  0
 25 26  2  0
 26 27  1  0
 27 28  2  0
  4 29  1  0
 29 30  2  0
 30 31  1  0
 31  2  1  0
 17  5  1  0
 28 23  1  0
 14  9  1  0
  1 32  1  0
 10 33  1  0
 11 34  1  0
 12 35  1  0
 13 36  1  0
 14 37  1  0
 15 38  1  0
 16 39  1  0
 20 40  1  0
 21 41  1  0
 21 42  1  0
 22 43  1  0
 22 44  1  0
 24 45  1  0
 25 46  1  0
 26 47  1  0
 27 48  1  0
 29 49  1  0
 30 50  1  0
 31 51  1  0
M  END
>  <smiles>  (6) 
N=c1nc(-c2nc(=Nc3ccccc3)[nH]cc2C(=O)NCCc2ccccn2)cc[nH]1

>  <score_type>  (6) 
oracle

>  <origin>  (6) 
adg

>  <m_score__min__energy>  (6) 
-8.3499999999999996

>  <m_primary>  (6) 
energy

$$$$
6:0
     RDKit          3D

 38 40  0  0  1  0  0  0  0  0999 V2000
   60.7770   27.5660   50.3640 C   0  0  0  0  0  0  0  0  0  0  0  0
   60.8380   28.4520   49.2310 N   0  0  0  0  0  0  0  0  0  0  0  0
   60.3860   27.9910   47.9470 C   0  0  0  0  0  0  0  0  0  0  0  0
   59.8670   26.8050   47.8890 N   0  0  0  0  0  0  0  0  0  0  0  0
   59.3420   26.1190   46.7250 C   0  0  0  0  0  0  0  0  0  0  0  0
   58.2450   26.8330   46.0770 C   0  0  0  0  0  0  0  0  0  0  0  0
   56.9390   26.3470   45.9600 C   0  0  0  0  0  0  0  0  0  0  0  0
   56.3110   24.8420   46.5230 S   0  0  0  0  0  0  0  0  0  0  0  0
   57.2010   23.5060   45.7130 C   0  0  0  0  0  0  0  0  0  0  0  0
   56.6720   24.7030   47.9960 O   0  0  0  0  0  0  0  0  0  0  0  0
   54.8480   24.6700   46.3650 O   0  0  0  0  0  0  0  0  0  0  0  0
   56.2720   27.2960   45.3140 N   0  0  0  0  0  0  0  0  0  0  0  0
   57.0450   28.3200   45.0250 N   0  0  0  0  0  0  0  0  0  0  0  0
   58.3100   28.0820   45.4850 C   0  0  0  0  0  0  0  0  0  0  0  0
   59.4240   29.0360   45.3230 C   0  0  1  0  0  0  0  0  0  0  0  0
   58.8320   30.3870   45.1300 C   0  0  0  0  0  0  0  0  0  0  0  0
   58.1010   30.7410   44.0200 C   0  0  0  0  0  0  0  0  0  0  0  0
   57.6000   32.0290   43.9540 C   0  0  0  0  0  0  0  0  0  0  0  0
   57.8130   32.9600   44.9640 C   0  0  0  0  0  0  0  0  0  0  0  0
   57.1810   34.5900   44.8840 Cl  0  0  0  0  0  0  0  0  0  0  0  0
   58.5490   32.6020   46.0790 C   0  0  0  0  0  0  0  0  0  0  0  0
   58.8930   33.8090   47.5130 Br  0  0  0  0  0  0  0  0  0  0  0  0
   59.0420   31.3140   46.1310 C   0  0  0  0  0  0  0  0  0  0  0  0
   60.6040   29.1210   46.6230 S   0  0  0  0  0  0  0  0  0  0  0  0
   60.8175   28.1546   51.2924 H   0  0  0  0  0  0  0  0  0  0  0  0
   59.8374   26.9949   50.3327 H   0  0  0  0  0  0  0  0  0  0  0  0
   61.6295   26.8715   50.3327 H   0  0  0  0  0  0  0  0  0  0  0  0
   61.2030   29.4370   49.2870 H   0  0  0  0  0  0  0  0  0  0  0  0
   60.1565   25.9956   45.9961 H   0  0  0  0  0  0  0  0  0  0  0  0
   58.9427   25.1537   47.0695 H   0  0  0  0  0  0  0  0  0  0  0  0
   57.6415   22.8448   46.4737 H   0  0  0  0  0  0  0  0  0  0  0  0
   56.5055   22.9300   45.0849 H   0  0  0  0  0  0  0  0  0  0  0  0
   58.0005   23.9259   45.0849 H   0  0  0  0  0  0  0  0  0  0  0  0
   56.7090   29.1800   44.5130 H   0  0  0  0  0  0  0  0  0  0  0  0
   60.0000   28.6652   44.4623 H   0  0  0  0  0  0  0  0  0  0  0  0
   57.9200   30.0210   43.2083 H   0  0  0  0  0  0  0  0  0  0  0  0
   57.0132   32.3264   43.0724 H   0  0  0  0  0  0  0  0  0  0  0  0
   59.6294   31.0122   47.0107 H   0  0  0  0  0  0  0  0  0  0  0  0
  1  2  1  0
  2  3  1  0
  3  4  2  0
  4  5  1  0
  5  6  1  0
  6  7  1  0
  7  8  1  0
  8  9  1  0
  8 10  2  0
  8 11  2  0
  7 12  2  0
 12 13  1  0
 13 14  1  0
 14 15  1  0
 15 16  1  0
 16 17  2  0
 17 18  1  0
 18 19  2  0
 19 20  1  0
 19 21  1  0
 21 22  1  0
 21 23  2  0
 15 24  1  0
 24  3  1  0
 14  6  2  0
 23 16  1  0
  1 25  1  0
  1 26  1  0
  1 27  1  0
  2 28  1  0
  5 29  1  0
  5 30  1  0
  9 31  1  0
  9 32  1  0
  9 33  1  0
 13 34  1  0
 15 35  1  6
 17 36  1  0
 18 37  1  0
 23 38  1  0
M  END
>  <smiles>  (7) 
CNC1=NCc2c(S(C)(=O)=O)n[nH]c2C(c2ccc(Cl)c(Br)c2)S1

>  <score_type>  (7) 
oracle

>  <origin>  (7) 
adg

>  <m_score__min__energy>  (7) 
-7.9900000000000002

>  <m_primary>  (7) 
energy

$$$$
7:0
     RDKit          3D

 47 49  0  0  0  0  0  0  0  0999 V2000
   51.0170   32.3310   49.9230 N   0  0  0  0  0  0  0  0  0  0  0  0
   51.3990   32.3180   51.2970 C   0  0  0  0  0  0  0  0  0  0  0  0
   51.0320   33.2650   52.0440 O   0  0  0  0  0  0  0  0  0  0  0  0
   52.2160   31.2080   51.8420 C   0  0  0  0  0  0  0  0  0  0  0  0
   51.6000   30.0940   52.4350 C   0  0  0  0  0  0  0  0  0  0  0  0
   52.3720   29.0460   52.9440 C   0  0  0  0  0  0  0  0  0  0  0  0
   53.7650   29.1000   52.8730 C   0  0  0  0  0  0  0  0  0  0  0  0
   54.4060   30.2090   52.2950 C   0  0  0  0  0  0  0  0  0  0  0  0
   55.8850   30.2730   52.2060 C   0  0  0  0  0  0  0  0  0  0  0  0
   56.5540   29.2060   52.2460 O   0  0  0  0  0  0  0  0  0  0  0  0
   56.5640   31.5320   52.0650 N   0  0  0  0  0  0  0  0  0  0  0  0
   58.0210   31.6520   52.2030 C   0  0  0  0  0  0  0  0  0  0  0  0
   58.7350   30.5130   51.4330 C   0  0  0  0  0  0  0  0  0  0  0  0
   60.1590   30.9240   51.0400 C   0  0  0  0  0  0  0  0  0  0  0  0
   60.1760   32.1220   50.1630 N   0  0  0  0  0  0  0  0  0  0  0  0
   60.5540   31.8500   48.7580 C   0  0  0  0  0  0  0  0  0  0  0  0
   59.9640   32.8300   47.7630 C   0  0  0  0  0  0  0  0  0  0  0  0
   60.4380   34.1520   47.6900 C   0  0  0  0  0  0  0  0  0  0  0  0
   59.8980   35.0480   46.7620 C   0  0  0  0  0  0  0  0  0  0  0  0
   58.8720   34.6380   45.9080 C   0  0  0  0  0  0  0  0  0  0  0  0
   58.3740   33.3340   45.9870 C   0  0  0  0  0  0  0  0  0  0  0  0
   57.0790   32.8220   44.9230 Cl  0  0  0  0  0  0  0  0  0  0  0  0
   58.9110   32.4370   46.9170 C   0  0  0  0  0  0  0  0  0  0  0  0
   59.0050   33.0200   50.2970 C   0  0  0  0  0  0  0  0  0  0  0  0
   58.4950   33.0530   51.7410 C   0  0  0  0  0  0  0  0  0  0  0  0
   53.6220   31.2540   51.7730 C   0  0  0  0  0  0  0  0  0  0  0  0
   50.0110   32.3470   49.6440 H   0  0  0  0  0  0  0  0  0  0  0  0
   50.5029   30.0459   52.4993 H   0  0  0  0  0  0  0  0  0  0  0  0
   51.8800   28.1754   53.4023 H   0  0  0  0  0  0  0  0  0  0  0  0
   54.3650   28.2689   53.2721 H   0  0  0  0  0  0  0  0  0  0  0  0
   56.0050   32.3690   51.7810 H   0  0  0  0  0  0  0  0  0  0  0  0
   58.2901   31.5479   53.2645 H   0  0  0  0  0  0  0  0  0  0  0  0
   58.7822   29.6201   52.0738 H   0  0  0  0  0  0  0  0  0  0  0  0
   58.1661   30.2996   50.5160 H   0  0  0  0  0  0  0  0  0  0  0  0
   60.7284   31.1465   51.9545 H   0  0  0  0  0  0  0  0  0  0  0  0
   60.6086   30.0902   50.4808 H   0  0  0  0  0  0  0  0  0  0  0  0
   61.6503   31.8942   48.6794 H   0  0  0  0  0  0  0  0  0  0  0  0
   60.1525   30.8575   48.5055 H   0  0  0  0  0  0  0  0  0  0  0  0
   61.2388   34.4835   48.3673 H   0  0  0  0  0  0  0  0  0  0  0  0
   60.2820   36.0772   46.7047 H   0  0  0  0  0  0  0  0  0  0  0  0
   58.4552   35.3417   45.1724 H   0  0  0  0  0  0  0  0  0  0  0  0
   58.5066   31.4165   46.9871 H   0  0  0  0  0  0  0  0  0  0  0  0
   59.2964   34.0371   49.9960 H   0  0  0  0  0  0  0  0  0  0  0  0
   58.1992   32.6405   49.6515 H   0  0  0  0  0  0  0  0  0  0  0  0
   59.3077   33.3917   52.4004 H   0  0  0  0  0  0  0  0  0  0  0  0
   57.6397   33.7429   51.7914 H   0  0  0  0  0  0  0  0  0  0  0  0
   54.1140   32.1191   51.3044 H   0  0  0  0  0  0  0  0  0  0  0  0
  1  2  1  0
  2  3  2  0
  2  4  1  0
  4  5  2  0
  5  6  1  0
  6  7  2  0
  7  8  1  0
  8  9  1  0
  9 10  2  0
  9 11  1  0
 11 12  1  0
 12 13  1  0
 13 14  1  0
 14 15  1  0
 15 16  1  0
 16 17  1  0
 17 18  2  0
 18 19  1  0
 19 20  2  0
 20 21  1  0
 21 22  1  0
 21 23  2  0
 15 24  1  0
 24 25  1  0
  8 26  2  0
 26  4  1  0
 25 12  1  0
 23 17  1  0
  1 27  1  0
  5 28  1  0
  6 29  1  0
  7 30  1  0
 11 31  1  0
 12 32  1  0
 13 33  1  0
 13 34  1  0
 14 35  1  0
 14 36  1  0
 16 37  1  0
 16 38  1  0
 18 39  1  0
 19 40  1  0
 20 41  1  0
 23 42  1  0
 24 43  1  0
 24 44  1  0
 25 45  1  0
 25 46  1  0
 26 47  1  0
M  CHG  1   1  -1
M  END
>  <UniqueID>  (8) 
6

>  <SMILES>  (8) 
[NH-]C(=O)c1cccc(C(=O)NC2CCN(Cc3cccc(Cl)c3)CC2)c1

>  <Energy>  (8) 
60.15805992487809

>  <Genealogy>  (8) 
[NH-]C(=O)c1cccc(C(=O)NC2CCN(Cc3cccc(Cl)c3)CC2)c1 (protonated)
[NH-]C(=O)c1cccc(C(=O)NC2CCN(Cc3cccc(Cl)c3)CC2)c1 (3D coordinates assigned)
[NH-]C(=O)c1cccc(C(=O)NC2CCN(Cc3cccc(Cl)c3)CC2)c1 (nonaromatic ring conformer: 60.15805992487809 kcal/mol)

>  <smiles>  (8) 
NC(=O)c1cccc(C(=O)NC2CCN(Cc3cccc(Cl)c3)CC2)c1

>  <score_type>  (8) 
oracle

>  <origin>  (8) 
adg

>  <m_score__min__energy>  (8) 
-13.449999999999999

>  <m_primary>  (8) 
energy

$$$$
8:0
     RDKit          3D

 45 48  0  0  0  0  0  0  0  0999 V2000
   58.4400   31.4430   46.1500 O   0  0  0  0  0  0  0  0  0  0  0  0
   59.0650   32.5180   46.2850 C   0  0  0  0  0  0  0  0  0  0  0  0
   58.4430   33.6530   46.0040 N   0  0  0  0  0  0  0  0  0  0  0  0
   59.0420   34.8680   46.1250 C   0  0  0  0  0  0  0  0  0  0  0  0
   60.3170   34.9220   46.5440 N   0  0  0  0  0  0  0  0  0  0  0  0
   60.9850   33.7800   46.8400 C   0  0  0  0  0  0  0  0  0  0  0  0
   62.3080   33.8480   47.2870 C   0  0  0  0  0  0  0  0  0  0  0  0
   62.9610   32.6580   47.5920 C   0  0  0  0  0  0  0  0  0  0  0  0
   62.3130   31.4500   47.4520 C   0  0  0  0  0  0  0  0  0  0  0  0
   60.9870   31.3720   47.0050 C   0  0  0  0  0  0  0  0  0  0  0  0
   60.4590   30.0690   46.8700 N   0  0  0  0  0  0  0  0  0  0  0  0
   59.6580   29.3960   47.8750 C   0  0  0  0  0  0  0  0  0  0  0  0
   59.7590   27.8840   47.7490 C   0  0  0  0  0  0  0  0  0  0  0  0
   59.2070   27.5140   46.4820 N   0  0  0  0  0  0  0  0  0  0  0  0
   59.3490   26.1120   46.2380 C   0  0  0  0  0  0  0  0  0  0  0  0
   58.0070   25.5480   45.9130 C   0  0  0  0  0  0  0  0  0  0  0  0
   57.9860   24.2450   45.4120 C   0  0  0  0  0  0  0  0  0  0  0  0
   56.7730   23.6370   45.0800 C   0  0  0  0  0  0  0  0  0  0  0  0
   55.5990   24.3340   45.2530 C   0  0  0  0  0  0  0  0  0  0  0  0
   54.4270   23.7380   44.9290 F   0  0  0  0  0  0  0  0  0  0  0  0
   55.6330   25.6250   45.7500 C   0  0  0  0  0  0  0  0  0  0  0  0
   54.4370   26.3250   45.9200 O   0  0  0  0  0  0  0  0  0  0  0  0
   56.8360   26.2480   46.0860 C   0  0  0  0  0  0  0  0  0  0  0  0
   59.5370   28.3690   45.3860 C   0  0  0  0  0  0  0  0  0  0  0  0
   60.7110   29.2910   45.6420 C   0  0  0  0  0  0  0  0  0  0  0  0
   60.3680   32.5370   46.7150 C   0  0  0  0  0  0  0  0  0  0  0  0
   57.4540   33.6420   45.6770 H   0  0  0  0  0  0  0  0  0  0  0  0
   58.4922   35.7898   45.8841 H   0  0  0  0  0  0  0  0  0  0  0  0
   62.8188   34.8162   47.3946 H   0  0  0  0  0  0  0  0  0  0  0  0
   64.0018   32.6816   47.9474 H   0  0  0  0  0  0  0  0  0  0  0  0
   62.8507   30.5223   47.6976 H   0  0  0  0  0  0  0  0  0  0  0  0
   60.0111   29.6957   48.8728 H   0  0  0  0  0  0  0  0  0  0  0  0
   58.6068   29.6846   47.7280 H   0  0  0  0  0  0  0  0  0  0  0  0
   60.8128   27.5733   47.8034 H   0  0  0  0  0  0  0  0  0  0  0  0
   59.2105   27.3924   48.5660 H   0  0  0  0  0  0  0  0  0  0  0  0
   60.0337   25.9504   45.3924 H   0  0  0  0  0  0  0  0  0  0  0  0
   59.7602   25.6149   47.1290 H   0  0  0  0  0  0  0  0  0  0  0  0
   58.9290   23.6947   45.2781 H   0  0  0  0  0  0  0  0  0  0  0  0
   56.7563   22.6109   44.6841 H   0  0  0  0  0  0  0  0  0  0  0  0
   53.6830   25.8340   46.3710 H   0  0  0  0  0  0  0  0  0  0  0  0
   56.8471   27.2750   46.4800 H   0  0  0  0  0  0  0  0  0  0  0  0
   59.7784   27.7378   44.5180 H   0  0  0  0  0  0  0  0  0  0  0  0
   58.6624   29.0145   45.2175 H   0  0  0  0  0  0  0  0  0  0  0  0
   61.6269   28.6945   45.7660 H   0  0  0  0  0  0  0  0  0  0  0  0
   60.8354   29.9757   44.7901 H   0  0  0  0  0  0  0  0  0  0  0  0
  1  2  2  0
  2  3  1  0
  3  4  1  0
  4  5  2  0
  5  6  1  0
  6  7  2  0
  7  8  1  0
  8  9  2  0
  9 10  1  0
 10 11  1  0
 11 12  1  0
 12 13  1  0
 13 14  1  0
 14 15  1  0
 15 16  1  0
 16 17  2  0
 17 18  1  0
 18 19  2  0
 19 20  1  0
 19 21  1  0
 21 22  1  0
 21 23  2  0
 14 24  1  0
 24 25  1  0
 10 26  2  0
 26  2  1  0
 26  6  1  0
 25 11  1  0
 23 16  1  0
  3 27  1  0
  4 28  1  0
  7 29  1  0
  8 30  1  0
  9 31  1  0
 12 32  1  0
 12 33  1  0
 13 34  1  0
 13 35  1  0
 15 36  1  0
 15 37  1  0
 17 38  1  0
 18 39  1  0
 22 40  1  0
 23 41  1  0
 24 42  1  0
 24 43  1  0
 25 44  1  0
 25 45  1  0
M  END
>  <smiles>  (9) 
O=c1[nH]cnc2cccc(N3CCN(Cc4ccc(F)c(O)c4)CC3)c12

>  <score_type>  (9) 
oracle

>  <origin>  (9) 
adg

>  <m_score__min__energy>  (9) 
-8.7599999999999998

>  <m_primary>  (9) 
energy

$$$$
9:0
     RDKit          3D

 41 43  0  0  1  0  0  0  0  0999 V2000
   63.2090   33.4530   46.7200 C   0  0  0  0  0  0  0  0  0  0  0  0
   62.9780   32.0230   47.1830 C   0  0  0  0  0  0  0  0  0  0  0  0
   61.6110   31.8150   47.4890 O   0  0  0  0  0  0  0  0  0  0  0  0
   60.9170   30.6660   47.1330 C   0  0  0  0  0  0  0  0  0  0  0  0
   60.4140   30.5480   45.9990 O   0  0  0  0  0  0  0  0  0  0  0  0
   60.7610   29.5700   48.0860 C   0  0  0  0  0  0  0  0  0  0  0  0
   61.0080   29.6600   49.4060 N   0  0  0  0  0  0  0  0  0  0  0  0
   60.7670   28.4830   49.9870 N   0  0  0  0  0  0  0  0  0  0  0  0
   60.3530   27.5950   49.0540 C   0  0  0  0  0  0  0  0  0  0  0  0
   60.0280   26.3860   49.1980 O   0  0  0  0  0  0  0  0  0  0  0  0
   60.3450   28.2730   47.8470 C   0  0  0  0  0  0  0  0  0  0  0  0
   59.9900   27.7960   46.5510 N   0  0  0  0  0  0  0  0  0  0  0  0
   58.7660   27.7750   46.2160 C   0  0  0  0  0  0  0  0  0  0  0  0
   58.0810   26.5720   46.3870 C   0  0  0  0  0  0  0  0  0  0  0  0
   56.7490   26.4820   46.0420 C   0  0  0  0  0  0  0  0  0  0  0  0
   56.1590   27.5850   45.5450 N   0  0  0  0  0  0  0  0  0  0  0  0
   56.8250   28.7550   45.3780 C   0  0  0  0  0  0  0  0  0  0  0  0
   56.1350   29.7300   44.8910 N   0  0  0  0  0  0  0  0  0  0  0  0
   56.8470   30.8100   44.2940 C   0  0  0  0  0  0  0  0  0  0  0  0
   57.0270   30.9340   42.9320 C   0  0  0  0  0  0  0  0  0  0  0  0
   57.7340   32.0120   42.3870 C   0  0  0  0  0  0  0  0  0  0  0  0
   58.2620   32.9700   43.2360 C   0  0  0  0  0  0  0  0  0  0  0  0
   58.0950   32.8690   44.6080 C   0  0  0  0  0  0  0  0  0  0  0  0
   58.8280   34.2010   45.7910 Br  0  0  0  0  0  0  0  0  0  0  0  0
   57.3950   31.7970   45.1060 C   0  0  0  0  0  0  0  0  0  0  0  0
   58.1210   28.8550   45.7100 N   0  0  0  0  0  0  0  0  0  0  0  0
   63.3150   34.1095   47.5962 H   0  0  0  0  0  0  0  0  0  0  0  0
   64.1262   33.4987   46.1144 H   0  0  0  0  0  0  0  0  0  0  0  0
   62.3529   33.7852   46.1144 H   0  0  0  0  0  0  0  0  0  0  0  0
   63.2793   31.3305   46.3832 H   0  0  0  0  0  0  0  0  0  0  0  0
   63.5766   31.8411   48.0878 H   0  0  0  0  0  0  0  0  0  0  0  0
   61.3450   30.5150   49.9370 H   0  0  0  0  0  0  0  0  0  0  0  0
   60.8740   28.2510   51.0190 H   0  0  0  0  0  0  0  0  0  0  0  0
   58.6034   25.6951   46.7971 H   0  0  0  0  0  0  0  0  0  0  0  0
   56.1893   25.5435   46.1683 H   0  0  0  0  0  0  0  0  0  0  0  0
   55.1520   27.5040   45.2890 H   0  0  0  0  0  0  0  0  0  0  0  0
   56.6066   30.1705   42.2609 H   0  0  0  0  0  0  0  0  0  0  0  0
   57.8684   32.0971   41.2986 H   0  0  0  0  0  0  0  0  0  0  0  0
   58.8200   33.8203   42.8169 H   0  0  0  0  0  0  0  0  0  0  0  0
   57.2621   31.7158   46.1949 H   0  0  0  0  0  0  0  0  0  0  0  0
   58.6240   29.7580   45.5770 H   0  0  0  0  0  0  0  0  0  0  0  0
  1  2  1  0
  2  3  1  0
  3  4  1  0
  4  5  2  0
  4  6  1  0
  6  7  1  0
  7  8  1  0
  8  9  1  0
  9 10  2  0
  9 11  1  0
 11 12  1  0
 12 13  2  0
 13 14  1  0
 14 15  2  0
 15 16  1  0
 16 17  1  0
 17 18  2  0
 18 19  1  0
 19 20  2  0
 20 21  1  0
 21 22  2  0
 22 23  1  0
 23 24  1  0
 23 25  2  0
 17 26  1  0
 11  6  2  0
 26 13  1  0
 25 19  1  0
  1 27  1  0
  1 28  1  0
  1 29  1  0
  2 30  1  0
  2 31  1  0
  7 32  1  0
  8 33  1  0
 14 34  1  0
 15 35  1  0
 16 36  1  0
 20 37  1  0
 21 38  1  0
 22 39  1  0
 25 40  1  0
 26 41  1  0
M  END
>  <smiles>  (10) 
CCOC(=O)c1[nH][nH]c(=O)c1N=c1cc[nH]c(=Nc2cccc(Br)c2)[nH]1

>  <score_type>  (10) 
oracle

>  <origin>  (10) 
adg

>  <m_score__min__energy>  (10) 
-8.7200000000000006

>  <m_primary>  (10) 
energy

$$$$
10:0
     RDKit          3D

 61 63  0  0  0  0  0  0  0  0999 V2000
   63.7370   32.7360   46.8520 C   0  0  0  0  0  0  0  0  0  0  0  0
   62.6610   33.8270   46.8900 C   0  0  0  0  0  0  0  0  0  0  0  0
   61.8210   33.8500   48.2000 C   0  0  0  0  0  0  0  0  0  0  0  0
   61.5730   32.4050   48.6780 C   0  0  0  0  0  0  0  0  0  0  0  0
   62.5780   34.6030   49.3090 C   0  0  0  0  0  0  0  0  0  0  0  0
   60.5350   34.5280   47.9940 N   0  0  0  0  0  0  0  0  0  0  0  0
   59.9000   34.8130   46.7400 C   0  0  0  0  0  0  0  0  0  0  0  0
   59.9620   35.9700   46.2400 O   0  0  0  0  0  0  0  0  0  0  0  0
   59.1620   33.7050   46.0280 C   0  0  0  0  0  0  0  0  0  0  0  0
   59.1510   32.4190   46.8850 C   0  0  0  0  0  0  0  0  0  0  0  0
   57.8770   31.5720   46.6900 C   0  0  0  0  0  0  0  0  0  0  0  0
   57.3820   31.6100   45.2990 N   0  0  0  0  0  0  0  0  0  0  0  0
   58.2690   30.8860   44.3620 C   0  0  0  0  0  0  0  0  0  0  0  0
   58.7700   29.6220   45.0080 C   0  0  0  0  0  0  0  0  0  0  0  0
   60.1440   29.3420   45.0620 C   0  0  0  0  0  0  0  0  0  0  0  0
   60.5980   28.1640   45.6600 C   0  0  0  0  0  0  0  0  0  0  0  0
   59.6860   27.2520   46.1940 C   0  0  0  0  0  0  0  0  0  0  0  0
   58.3100   27.5000   46.1210 C   0  0  0  0  0  0  0  0  0  0  0  0
   57.4080   26.5410   46.6960 N   0  0  0  0  0  0  0  0  0  0  0  0
   56.2440   25.9770   46.0750 C   0  0  0  0  0  0  0  0  0  0  0  0
   55.1430   26.5910   46.1200 O   0  0  0  0  0  0  0  0  0  0  0  0
   56.3450   24.6980   45.3340 C   0  0  0  0  0  0  0  0  0  0  0  0
   56.6580   24.6890   43.9630 C   0  0  0  0  0  0  0  0  0  0  0  0
   56.7590   23.4810   43.2670 C   0  0  0  0  0  0  0  0  0  0  0  0
   56.5520   22.2660   43.9270 C   0  0  0  0  0  0  0  0  0  0  0  0
   56.6900   20.7670   43.0170 Cl  0  0  0  0  0  0  0  0  0  0  0  0
   56.2410   22.2610   45.2960 C   0  0  0  0  0  0  0  0  0  0  0  0
   55.9790   20.7540   46.1650 Cl  0  0  0  0  0  0  0  0  0  0  0  0
   56.1380   23.4710   45.9930 C   0  0  0  0  0  0  0  0  0  0  0  0
   57.8560   28.7000   45.5420 C   0  0  0  0  0  0  0  0  0  0  0  0
   57.0370   32.9800   44.8360 C   0  0  0  0  0  0  0  0  0  0  0  0
   57.7330   34.1090   45.6250 C   0  0  0  0  0  0  0  0  0  0  0  0
   64.0124   32.4567   47.8797 H   0  0  0  0  0  0  0  0  0  0  0  0
   63.3459   31.8535   46.3245 H   0  0  0  0  0  0  0  0  0  0  0  0
   64.6248   33.1148   46.3245 H   0  0  0  0  0  0  0  0  0  0  0  0
   63.1558   34.8033   46.7804 H   0  0  0  0  0  0  0  0  0  0  0  0
   61.9611   33.6091   46.0698 H   0  0  0  0  0  0  0  0  0  0  0  0
   61.5684   32.3783   49.7777 H   0  0  0  0  0  0  0  0  0  0  0  0
   60.6016   32.0549   48.2987 H   0  0  0  0  0  0  0  0  0  0  0  0
   62.3720   31.7511   48.2987 H   0  0  0  0  0  0  0  0  0  0  0  0
   62.2286   34.2555   50.2924 H   0  0  0  0  0  0  0  0  0  0  0  0
   63.6565   34.4090   49.2135 H   0  0  0  0  0  0  0  0  0  0  0  0
   62.3897   35.6826   49.2135 H   0  0  0  0  0  0  0  0  0  0  0  0
   59.7080   33.5043   45.0944 H   0  0  0  0  0  0  0  0  0  0  0  0
   60.0231   31.8077   46.6099 H   0  0  0  0  0  0  0  0  0  0  0  0
   59.1806   32.7282   47.9402 H   0  0  0  0  0  0  0  0  0  0  0  0
   58.1024   30.5288   46.9562 H   0  0  0  0  0  0  0  0  0  0  0  0
   57.0927   31.9929   47.3363 H   0  0  0  0  0  0  0  0  0  0  0  0
   57.7082   30.6327   43.4502 H   0  0  0  0  0  0  0  0  0  0  0  0
   59.1255   31.5264   44.1044 H   0  0  0  0  0  0  0  0  0  0  0  0
   60.8657   30.0522   44.6322 H   0  0  0  0  0  0  0  0  0  0  0  0
   61.6767   27.9546   45.7102 H   0  0  0  0  0  0  0  0  0  0  0  0
   60.0508   26.3326   46.6752 H   0  0  0  0  0  0  0  0  0  0  0  0
   56.8245   25.6393   43.4346 H   0  0  0  0  0  0  0  0  0  0  0  0
   57.0026   23.4863   42.1943 H   0  0  0  0  0  0  0  0  0  0  0  0
   55.8931   23.4630   47.0654 H   0  0  0  0  0  0  0  0  0  0  0  0
   56.7781   28.9167   45.5077 H   0  0  0  0  0  0  0  0  0  0  0  0
   57.3259   33.0696   43.7784 H   0  0  0  0  0  0  0  0  0  0  0  0
   55.9556   33.1040   44.9947 H   0  0  0  0  0  0  0  0  0  0  0  0
   57.7785   35.0108   44.9968 H   0  0  0  0  0  0  0  0  0  0  0  0
   57.1542   34.3034   46.5400 H   0  0  0  0  0  0  0  0  0  0  0  0
  1  2  1  0
  2  3  1  0
  3  4  1  0
  3  5  1  0
  3  6  1  0
  6  7  1  0
  7  8  2  0
  7  9  1  0
  9 10  1  0
 10 11  1  0
 11 12  1  0
 12 13  1  0
 13 14  1  0
 14 15  2  0
 15 16  1  0
 16 17  2  0
 17 18  1  0
 18 19  1  0
 19 20  1  0
 20 21  2  0
 20 22  1  0
 22 23  2  0
 23 24  1  0
 24 25  2  0
 25 26  1  0
 25 27  1  0
 27 28  1  0
 27 29  2  0
 18 30  2  0
 12 31  1  0
 31 32  1  0
 32  9  1  0
 30 14  1  0
 29 22  1  0
  1 33  1  0
  1 34  1  0
  1 35  1  0
  2 36  1  0
  2 37  1  0
  4 38  1  0
  4 39  1  0
  4 40  1  0
  5 41  1  0
  5 42  1  0
  5 43  1  0
  9 44  1  0
 10 45  1  0
 10 46  1  0
 11 47  1  0
 11 48  1  0
 13 49  1  0
 13 50  1  0
 15 51  1  0
 16 52  1  0
 17 53  1  0
 23 54  1  0
 24 55  1  0
 29 56  1  0
 30 57  1  0
 31 58  1  0
 31 59  1  0
 32 60  1  0
 32 61  1  0
M  CHG  2   6  -1  19  -1
M  END
>  <UniqueID>  (11) 
7

>  <SMILES>  (11) 
CCC(C)(C)[N-]C(=O)C1CCN(Cc2cccc([N-]C(=O)c3ccc(Cl)c(Cl)c3)c2)CC1

>  <Energy>  (11) 
70.27388285087764

>  <Genealogy>  (11) 
CCC(C)(C)[N-]C(=O)C1CCN(Cc2cccc([N-]C(=O)c3ccc(Cl)c(Cl)c3)c2)CC1 (protonated)
CCC(C)(C)[N-]C(=O)C1CCN(Cc2cccc([N-]C(=O)c3ccc(Cl)c(Cl)c3)c2)CC1 (3D coordinates assigned)
CCC(C)(C)[N-]C(=O)C1CCN(Cc2cccc([N-]C(=O)c3ccc(Cl)c(Cl)c3)c2)CC1 (nonaromatic ring conformer: 70.27388285087764 kcal/mol)

>  <smiles>  (11) 
CCC(C)(C)NC(=O)C1CCN(Cc2cccc(NC(=O)c3ccc(Cl)c(Cl)c3)c2)CC1

>  <score_type>  (11) 
oracle

>  <origin>  (11) 
adg

>  <m_score__min__energy>  (11) 
-12.42

>  <m_primary>  (11) 
energy

$$$$
11:0
     RDKit          3D

 78 82  0  0  0  0  0  0  0  0999 V2000
   53.0760   30.9040   51.7060 C   0  0  0  0  0  0  0  0  0  0  0  0
   54.4680   30.8710   51.2710 N   0  0  0  0  0  0  0  0  0  0  0  0
   55.4800   30.3220   52.5740 S   0  0  0  0  0  0  0  0  0  0  0  0
   54.6910   30.3210   53.8550 O   0  0  0  0  0  0  0  0  0  0  0  0
   55.9430   28.9230   52.2820 O   0  0  0  0  0  0  0  0  0  0  0  0
   56.8870   31.3700   52.7350 C   0  0  0  0  0  0  0  0  0  0  0  0
   57.3500   32.0950   51.6280 C   0  0  0  0  0  0  0  0  0  0  0  0
   58.4820   32.9050   51.7430 C   0  0  0  0  0  0  0  0  0  0  0  0
   59.1620   33.0100   52.9680 C   0  0  0  0  0  0  0  0  0  0  0  0
   60.3910   33.8700   53.0880 C   0  0  0  0  0  0  0  0  0  0  0  0
   61.5050   33.1160   53.7400 C   0  0  0  0  0  0  0  0  0  0  0  0
   61.8780   33.4310   54.9010 O   0  0  0  0  0  0  0  0  0  0  0  0
   62.1640   32.0730   53.0100 N   0  0  0  0  0  0  0  0  0  0  0  0
   61.6220   31.2500   51.9640 C   0  0  0  0  0  0  0  0  0  0  0  0
   60.9680   30.0370   52.2490 C   0  0  0  0  0  0  0  0  0  0  0  0
   60.4330   29.2620   51.2180 C   0  0  0  0  0  0  0  0  0  0  0  0
   60.5260   29.6890   49.8840 C   0  0  0  0  0  0  0  0  0  0  0  0
   59.9710   28.9120   48.8100 N   0  0  0  0  0  0  0  0  0  0  0  0
   60.1830   27.4990   48.6610 C   0  0  0  0  0  0  0  0  0  0  0  0
   60.7950   26.8450   49.5500 O   0  0  0  0  0  0  0  0  0  0  0  0
   59.6130   26.7700   47.4790 C   0  0  0  0  0  0  0  0  0  0  0  0
   59.1100   27.7430   46.4480 C   0  0  0  0  0  0  0  0  0  0  0  0
   59.9960   28.6330   45.8230 C   0  0  0  0  0  0  0  0  0  0  0  0
   59.5390   29.5030   44.8310 C   0  0  0  0  0  0  0  0  0  0  0  0
   58.1890   29.4760   44.4250 C   0  0  0  0  0  0  0  0  0  0  0  0
   57.6850   30.2990   43.4040 O   0  0  0  0  0  0  0  0  0  0  0  0
   57.0410   31.5600   43.6010 C   0  0  0  0  0  0  0  0  0  0  0  0
   57.7930   32.4000   44.6000 C   0  0  0  0  0  0  0  0  0  0  0  0
   58.5460   33.5080   44.1700 C   0  0  0  0  0  0  0  0  0  0  0  0
   59.2590   34.2750   45.0960 C   0  0  0  0  0  0  0  0  0  0  0  0
   59.2130   33.9520   46.4550 C   0  0  0  0  0  0  0  0  0  0  0  0
   58.4530   32.8640   46.8930 C   0  0  0  0  0  0  0  0  0  0  0  0
   57.7410   32.0940   45.9710 C   0  0  0  0  0  0  0  0  0  0  0  0
   57.3100   28.5910   45.0540 C   0  0  0  0  0  0  0  0  0  0  0  0
   57.7640   27.7280   46.0550 C   0  0  0  0  0  0  0  0  0  0  0  0
   61.1890   30.8890   49.5950 C   0  0  0  0  0  0  0  0  0  0  0  0
   61.7090   31.6900   50.6230 C   0  0  0  0  0  0  0  0  0  0  0  0
   62.3640   32.9700   50.2650 C   0  0  0  0  0  0  0  0  0  0  0  0
   61.6530   33.8910   49.7760 O   0  0  0  0  0  0  0  0  0  0  0  0
   63.8150   33.2120   50.4920 C   0  0  0  0  0  0  0  0  0  0  0  0
   64.2320   34.1580   51.4480 C   0  0  0  0  0  0  0  0  0  0  0  0
   65.5930   34.3840   51.6730 C   0  0  0  0  0  0  0  0  0  0  0  0
   66.5530   33.6670   50.9530 C   0  0  0  0  0  0  0  0  0  0  0  0
   66.1530   32.7190   50.0080 C   0  0  0  0  0  0  0  0  0  0  0  0
   64.7930   32.4870   49.7830 C   0  0  0  0  0  0  0  0  0  0  0  0
   58.7050   32.2710   54.0720 C   0  0  0  0  0  0  0  0  0  0  0  0
   57.5750   31.4560   53.9550 C   0  0  0  0  0  0  0  0  0  0  0  0
   53.0353   30.9050   52.8052 H   0  0  0  0  0  0  0  0  0  0  0  0
   52.5928   31.8139   51.3204 H   0  0  0  0  0  0  0  0  0  0  0  0
   52.5502   30.0181   51.3204 H   0  0  0  0  0  0  0  0  0  0  0  0
   56.8204   32.0257   50.6664 H   0  0  0  0  0  0  0  0  0  0  0  0
   58.8438   33.4649   50.8680 H   0  0  0  0  0  0  0  0  0  0  0  0
   60.7091   34.1865   52.0837 H   0  0  0  0  0  0  0  0  0  0  0  0
   60.1489   34.7465   53.7070 H   0  0  0  0  0  0  0  0  0  0  0  0
   60.8776   29.6970   53.2912 H   0  0  0  0  0  0  0  0  0  0  0  0
   59.9349   28.3098   51.4529 H   0  0  0  0  0  0  0  0  0  0  0  0
   59.2660   29.3740   48.1880 H   0  0  0  0  0  0  0  0  0  0  0  0
   60.3960   26.1409   47.0305 H   0  0  0  0  0  0  0  0  0  0  0  0
   58.7721   26.1474   47.8186 H   0  0  0  0  0  0  0  0  0  0  0  0
   61.0562   28.6456   46.1159 H   0  0  0  0  0  0  0  0  0  0  0  0
   60.2364   30.2137   44.3635 H   0  0  0  0  0  0  0  0  0  0  0  0
   56.9974   32.0955   42.6411 H   0  0  0  0  0  0  0  0  0  0  0  0
   56.0272   31.3791   43.9878 H   0  0  0  0  0  0  0  0  0  0  0  0
   58.5737   33.7714   43.1024 H   0  0  0  0  0  0  0  0  0  0  0  0
   59.8566   35.1332   44.7549 H   0  0  0  0  0  0  0  0  0  0  0  0
   59.7764   34.5557   47.1817 H   0  0  0  0  0  0  0  0  0  0  0  0
   58.4157   32.6143   47.9636 H   0  0  0  0  0  0  0  0  0  0  0  0
   57.1364   31.2437   46.3193 H   0  0  0  0  0  0  0  0  0  0  0  0
   56.2506   28.5733   44.7586 H   0  0  0  0  0  0  0  0  0  0  0  0
   57.0613   27.0328   46.5375 H   0  0  0  0  0  0  0  0  0  0  0  0
   61.3034   31.2074   48.5483 H   0  0  0  0  0  0  0  0  0  0  0  0
   63.4821   34.7227   52.0214 H   0  0  0  0  0  0  0  0  0  0  0  0
   65.9095   35.1281   52.4187 H   0  0  0  0  0  0  0  0  0  0  0  0
   67.6232   33.8492   51.1305 H   0  0  0  0  0  0  0  0  0  0  0  0
   66.9083   32.1551   49.4409 H   0  0  0  0  0  0  0  0  0  0  0  0
   64.4836   31.7315   49.0457 H   0  0  0  0  0  0  0  0  0  0  0  0
   59.2382   32.3338   55.0321 H   0  0  0  0  0  0  0  0  0  0  0  0
   57.2236   30.8795   54.8234 H   0  0  0  0  0  0  0  0  0  0  0  0
  1  2  1  0
  2  3  1  0
  3  4  2  0
  3  5  2  0
  3  6  1  0
  6  7  2  0
  7  8  1  0
  8  9  2  0
  9 10  1  0
 10 11  1  0
 11 12  2  0
 11 13  1  0
 13 14  1  0
 14 15  2  0
 15 16  1  0
 16 17  2  0
 17 18  1  0
 18 19  1  0
 19 20  2  0
 19 21  1  0
 21 22  1  0
 22 23  2  0
 23 24  1  0
 24 25  2  0
 25 26  1  0
 26 27  1  0
 27 28  1  0
 28 29  2  0
 29 30  1  0
 30 31  2  0
 31 32  1  0
 32 33  2  0
 25 34  1  0
 34 35  2  0
 17 36  1  0
 36 37  2  0
 37 38  1  0
 38 39  2  0
 38 40  1  0
 40 41  2  0
 41 42  1  0
 42 43  2  0
 43 44  1  0
 44 45  2  0
  9 46  1  0
 46 47  2  0
 47  6  1  0
 37 14  1  0
 45 40  1  0
 35 22  1  0
 33 28  1  0
  1 48  1  0
  1 49  1  0
  1 50  1  0
  7 51  1  0
  8 52  1  0
 10 53  1  0
 10 54  1  0
 15 55  1  0
 16 56  1  0
 18 57  1  0
 21 58  1  0
 21 59  1  0
 23 60  1  0
 24 61  1  0
 27 62  1  0
 27 63  1  0
 29 64  1  0
 30 65  1  0
 31 66  1  0
 32 67  1  0
 33 68  1  0
 34 69  1  0
 35 70  1  0
 36 71  1  0
 41 72  1  0
 42 73  1  0
 43 74  1  0
 44 75  1  0
 45 76  1  0
 46 77  1  0
 47 78  1  0
M  CHG  2   2  -1  13  -1
M  END
>  <UniqueID>  (12) 
8

>  <SMILES>  (12) 
C[N-]S(=O)(=O)c1ccc(CC(=O)[N-]c2ccc(NC(=O)Cc3ccc(OCc4ccccc4)cc3)cc2C(=O)c2ccccc2)cc1

>  <Energy>  (12) 
93.87494299259811

>  <Genealogy>  (12) 
C[N-]S(=O)(=O)c1ccc(CC(=O)[N-]c2ccc(NC(=O)Cc3ccc(OCc4ccccc4)cc3)cc2C(=O)c2ccccc2)cc1 (protonated)
C[N-]S(=O)(=O)c1ccc(CC(=O)[N-]c2ccc(NC(=O)Cc3ccc(OCc4ccccc4)cc3)cc2C(=O)c2ccccc2)cc1 (3D coordinates assigned)
C[N-]S(=O)(=O)c1ccc(CC(=O)[N-]c2ccc(NC(=O)Cc3ccc(OCc4ccccc4)cc3)cc2C(=O)c2ccccc2)cc1 (optimized conformer: 93.87494299259811 kcal/mol)

>  <smiles>  (12) 
CNS(=O)(=O)c1ccc(CC(=O)Nc2ccc(NC(=O)Cc3ccc(OCc4ccccc4)cc3)cc2C(=O)c2ccccc2)cc1

>  <score_type>  (12) 
oracle

>  <origin>  (12) 
adg

>  <m_score__min__energy>  (12) 
-13.34

>  <m_primary>  (12) 
energy

$$$$
12:0
     RDKit          3D

 43 45  0  0  0  0  0  0  0  0999 V2000
   54.4976   29.7529   43.4635 H   0  0  0  0  0  0  0  0  0  0  0  0
   55.4300   29.7690   44.0470 C   0  0  0  0  0  0  0  0  0  0  0  0
   55.7360   28.7290   44.8620 N   0  0  0  0  0  0  0  0  0  0  0  0
   56.8780   28.7070   45.5950 C   0  0  0  0  0  0  0  0  0  0  0  0
   57.0923   27.8453   46.2443 H   0  0  0  0  0  0  0  0  0  0  0  0
   57.7900   29.7760   45.5320 C   0  0  0  0  0  0  0  0  0  0  0  0
   59.0220   29.7360   46.3630 C   0  0  0  0  0  0  0  0  0  0  0  0
   59.0920   28.9410   47.3400 O   0  0  0  0  0  0  0  0  0  0  0  0
   60.1370   30.5890   46.0640 N   0  0  0  0  0  0  0  0  0  0  0  0
   60.0460   31.3310   45.3330 H   0  0  0  0  0  0  0  0  0  0  0  0
   61.3940   30.4890   46.7940 C   0  0  0  0  0  0  0  0  0  0  0  0
   61.1924   30.5050   47.8752 H   0  0  0  0  0  0  0  0  0  0  0  0
   61.8981   29.5479   46.5289 H   0  0  0  0  0  0  0  0  0  0  0  0
   62.0405   31.3385   46.5289 H   0  0  0  0  0  0  0  0  0  0  0  0
   57.4900   30.8770   44.6910 C   0  0  0  0  0  0  0  0  0  0  0  0
   58.3360   31.8700   44.6100 N   0  0  0  0  0  0  0  0  0  0  0  0
   58.1890   33.2160   45.1680 C   0  0  0  0  0  0  0  0  0  0  0  0
   58.7668   33.9248   44.5567 H   0  0  0  0  0  0  0  0  0  0  0  0
   57.1225   33.4854   45.1618 H   0  0  0  0  0  0  0  0  0  0  0  0
   58.6910   33.2650   46.5880 C   0  0  0  0  0  0  0  0  0  0  0  0
   57.9580   32.6470   47.6150 C   0  0  0  0  0  0  0  0  0  0  0  0
   57.0200   32.1227   47.3798 H   0  0  0  0  0  0  0  0  0  0  0  0
   58.4160   32.6960   48.9330 C   0  0  0  0  0  0  0  0  0  0  0  0
   57.8325   32.2194   49.7345 H   0  0  0  0  0  0  0  0  0  0  0  0
   59.6140   33.3490   49.2370 C   0  0  0  0  0  0  0  0  0  0  0  0
   59.9618   33.3969   50.2795 H   0  0  0  0  0  0  0  0  0  0  0  0
   60.3730   33.9420   48.2220 C   0  0  0  0  0  0  0  0  0  0  0  0
   61.5640   34.5970   48.5690 O   0  0  0  0  0  0  0  0  0  0  0  0
   62.7000   33.9830   49.1180 C   0  0  0  0  0  0  0  0  0  0  0  0
   63.0880   34.3270   50.4190 C   0  0  0  0  0  0  0  0  0  0  0  0
   62.5100   35.0743   50.9824 H   0  0  0  0  0  0  0  0  0  0  0  0
   64.2060   33.7260   51.0060 C   0  0  0  0  0  0  0  0  0  0  0  0
   64.5096   34.0075   52.0251 H   0  0  0  0  0  0  0  0  0  0  0  0
   64.9380   32.7680   50.2990 C   0  0  0  0  0  0  0  0  0  0  0  0
   65.8213   32.3007   50.7588 H   0  0  0  0  0  0  0  0  0  0  0  0
   64.5470   32.4040   49.0070 C   0  0  0  0  0  0  0  0  0  0  0  0
   65.1195   31.6455   48.4531 H   0  0  0  0  0  0  0  0  0  0  0  0
   63.4290   33.0030   48.4180 C   0  0  0  0  0  0  0  0  0  0  0  0
   63.1184   32.7076   47.4050 H   0  0  0  0  0  0  0  0  0  0  0  0
   59.9010   33.9080   46.8970 C   0  0  0  0  0  0  0  0  0  0  0  0
   60.4838   34.3884   46.0973 H   0  0  0  0  0  0  0  0  0  0  0  0
   56.2940   30.8580   43.9470 C   0  0  0  0  0  0  0  0  0  0  0  0
   56.0422   31.7018   43.2878 H   0  0  0  0  0  0  0  0  0  0  0  0
  1  2  1  0
  2  3  1  0
  3  4  1  0
  4  5  1  0
  4  6  2  0
  6  7  1  0
  7  8  2  0
  7  9  1  0
  9 10  1  0
  9 11  1  0
 11 12  1  0
 11 13  1  0
 11 14  1  0
  6 15  1  0
 15 16  2  0
 16 17  1  0
 17 18  1  0
 17 19  1  0
 17 20  1  0
 20 21  2  0
 21 22  1  0
 21 23  1  0
 23 24  1  0
 23 25  2  0
 25 26  1  0
 25 27  1  0
 27 28  1  0
 28 29  1  0
 29 30  2  0
 30 31  1  0
 30 32  1  0
 32 33  1  0
 32 34  2  0
 34 35  1  0
 34 36  1  0
 36 37  1  0
 36 38  2  0
 38 39  1  0
 27 40  2  0
 40 41  1  0
 15 42  1  0
 42 43  1  0
 42  2  2  0
 40 20  1  0
 38 29  1  0
M  CHG  1   3  -1
M  END
>  <UniqueID>  (13) 
9

>  <SMILES>  (13) 
CNC(=O)c1c[n-]cc/c1=N\Cc1cccc(Oc2ccccc2)c1

>  <Energy>  (13) 
56.13503405671804

>  <Genealogy>  (13) 
CNC(=O)c1c[n-]ccc1=NCc1cccc(Oc2ccccc2)c1 (protonated)
CNC(=O)c1c[n-]cc/c1=N\Cc1cccc(Oc2ccccc2)c1 (cis-trans isomerization)
CNC(=O)c1c[n-]cc/c1=N\Cc1cccc(Oc2ccccc2)c1 (3D coordinates assigned)
CNC(=O)c1c[n-]cc/c1=N\Cc1cccc(Oc2ccccc2)c1 (optimized conformer: 56.13503405671804 kcal/mol)

>  <smiles>  (13) 
CNC(=O)c1c[nH]ccc1=NCc1cccc(Oc2ccccc2)c1

>  <score_type>  (13) 
oracle

>  <origin>  (13) 
adg

>  <m_score__min__energy>  (13) 
-9.4199999999999999

>  <m_primary>  (13) 
energy

$$$$
13:0
     RDKit          3D

 50 54  0  0  0  0  0  0  0  0999 V2000
   59.5850   29.6190   51.5370 C   0  0  0  0  0  0  0  0  0  0  0  0
   58.1480   30.0070   51.7040 C   0  0  0  0  0  0  0  0  0  0  0  0
   57.3090   29.1330   52.3240 N   0  0  0  0  0  0  0  0  0  0  0  0
   55.9940   29.4150   52.5110 C   0  0  0  0  0  0  0  0  0  0  0  0
   55.1500   28.5010   53.1520 C   0  0  0  0  0  0  0  0  0  0  0  0
   53.7990   28.8110   53.3340 C   0  0  0  0  0  0  0  0  0  0  0  0
   53.2890   30.0340   52.8760 C   0  0  0  0  0  0  0  0  0  0  0  0
   54.1300   30.9500   52.2350 C   0  0  0  0  0  0  0  0  0  0  0  0
   55.4830   30.6430   52.0510 C   0  0  0  0  0  0  0  0  0  0  0  0
   56.3150   31.5180   51.4320 N   0  0  0  0  0  0  0  0  0  0  0  0
   57.6330   31.2410   51.2410 C   0  0  0  0  0  0  0  0  0  0  0  0
   58.4450   32.2180   50.5760 N   0  0  0  0  0  0  0  0  0  0  0  0
   58.5430   32.7210   49.1950 C   0  0  0  0  0  0  0  0  0  0  0  0
   59.6360   33.7180   49.4530 C   0  0  0  0  0  0  0  0  0  0  0  0
   60.9320   33.4360   48.7160 C   0  0  0  0  0  0  0  0  0  0  0  0
   62.1090   33.4620   49.4020 N   0  0  0  0  0  0  0  0  0  0  0  0
   63.2980   33.2100   48.7980 C   0  0  0  0  0  0  0  0  0  0  0  0
   63.3270   32.9180   47.4370 C   0  0  0  0  0  0  0  0  0  0  0  0
   62.1670   32.9190   46.7320 N   0  0  0  0  0  0  0  0  0  0  0  0
   60.9700   33.1910   47.3210 C   0  0  0  0  0  0  0  0  0  0  0  0
   59.7600   33.2010   46.4740 C   0  0  0  0  0  0  0  0  0  0  0  0
   59.1270   34.4070   46.1430 C   0  0  0  0  0  0  0  0  0  0  0  0
   57.9780   34.4020   45.3510 C   0  0  0  0  0  0  0  0  0  0  0  0
   57.4620   33.1980   44.8690 C   0  0  0  0  0  0  0  0  0  0  0  0
   58.1010   31.9790   45.1610 C   0  0  0  0  0  0  0  0  0  0  0  0
   57.5440   30.7080   44.6380 C   0  0  0  0  0  0  0  0  0  0  0  0
   57.9420   30.1810   43.3690 N   0  0  0  0  0  0  0  0  0  0  0  0
   56.6890   30.0760   45.3170 O   0  0  0  0  0  0  0  0  0  0  0  0
   59.2540   31.9930   45.9680 C   0  0  0  0  0  0  0  0  0  0  0  0
   59.5370   33.1720   50.8510 C   0  0  0  0  0  0  0  0  0  0  0  0
   60.0484   29.4939   52.5267 H   0  0  0  0  0  0  0  0  0  0  0  0
   59.6468   28.6720   50.9808 H   0  0  0  0  0  0  0  0  0  0  0  0
   60.1151   30.4062   50.9808 H   0  0  0  0  0  0  0  0  0  0  0  0
   55.5487   27.5410   53.5118 H   0  0  0  0  0  0  0  0  0  0  0  0
   53.1345   28.0936   53.8378 H   0  0  0  0  0  0  0  0  0  0  0  0
   52.2253   30.2739   53.0210 H   0  0  0  0  0  0  0  0  0  0  0  0
   53.7287   31.9094   51.8764 H   0  0  0  0  0  0  0  0  0  0  0  0
   58.8432   31.9400   48.4810 H   0  0  0  0  0  0  0  0  0  0  0  0
   57.6182   33.1047   48.7394 H   0  0  0  0  0  0  0  0  0  0  0  0
   59.5825   34.7901   49.2126 H   0  0  0  0  0  0  0  0  0  0  0  0
   64.2315   33.2363   49.3793 H   0  0  0  0  0  0  0  0  0  0  0  0
   64.2802   32.6888   46.9381 H   0  0  0  0  0  0  0  0  0  0  0  0
   59.5370   35.3600   46.5085 H   0  0  0  0  0  0  0  0  0  0  0  0
   57.4772   35.3502   45.1057 H   0  0  0  0  0  0  0  0  0  0  0  0
   56.5486   33.2022   44.2560 H   0  0  0  0  0  0  0  0  0  0  0  0
   58.5180   30.7370   42.7010 H   0  0  0  0  0  0  0  0  0  0  0  0
   57.5790   29.2560   43.0540 H   0  0  0  0  0  0  0  0  0  0  0  0
   59.7641   31.0476   46.2048 H   0  0  0  0  0  0  0  0  0  0  0  0
   60.4619   32.6744   51.1779 H   0  0  0  0  0  0  0  0  0  0  0  0
   59.3722   33.8990   51.6599 H   0  0  0  0  0  0  0  0  0  0  0  0
  1  2  1  0
  2  3  2  0
  3  4  1  0
  4  5  2  0
  5  6  1  0
  6  7  2  0
  7  8  1  0
  8  9  2  0
  9 10  1  0
 10 11  2  0
 11 12  1  0
 12 13  1  0
 13 14  1  0
 14 15  1  0
 15 16  2  0
 16 17  1  0
 17 18  2  0
 18 19  1  0
 19 20  2  0
 20 21  1  0
 21 22  2  0
 22 23  1  0
 23 24  2  0
 24 25  1  0
 25 26  1  0
 26 27  1  0
 26 28  2  0
 25 29  2  0
 14 30  1  0
 11  2  1  0
 30 12  1  0
  9  4  1  0
 20 15  1  0
 29 21  1  0
  1 31  1  0
  1 32  1  0
  1 33  1  0
  5 34  1  0
  6 35  1  0
  7 36  1  0
  8 37  1  0
 13 38  1  0
 13 39  1  0
 14 40  1  0
 17 41  1  0
 18 42  1  0
 22 43  1  0
 23 44  1  0
 24 45  1  0
 27 46  1  0
 27 47  1  0
 29 48  1  0
 30 49  1  0
 30 50  1  0
M  END
>  <UniqueID>  (14) 
10

>  <SMILES>  (14) 
Cc1nc2ccccc2nc1N1CC(c2nccnc2-c2cccc(C(N)=O)c2)C1

>  <Energy>  (14) 
115.72763049473207

>  <Genealogy>  (14) 
Cc1nc2ccccc2nc1N1CC(c2nccnc2-c2cccc(C(N)=O)c2)C1 (3D coordinates assigned)
Cc1nc2ccccc2nc1N1CC(c2nccnc2-c2cccc(C(N)=O)c2)C1 (nonaromatic ring conformer: 115.72763049473207 kcal/mol)

>  <smiles>  (14) 
Cc1nc2ccccc2nc1N1CC(c2nccnc2-c2cccc(C(N)=O)c2)C1

>  <score_type>  (14) 
oracle

>  <origin>  (14) 
adg

>  <m_score__min__energy>  (14) 
-9.3699999999999992

>  <m_primary>  (14) 
energy

$$$$
14:0
     RDKit          3D

 32 34  0  0  0  0  0  0  0  0999 V2000
   53.8660   24.0620   45.3770 C   0  0  0  0  0  0  0  0  0  0  0  0
   55.2010   23.9540   44.7940 N   0  0  0  0  0  0  0  0  0  0  0  0
   55.5650   23.0300   43.8820 C   0  0  0  0  0  0  0  0  0  0  0  0
   56.8610   23.2550   43.4700 C   0  0  0  0  0  0  0  0  0  0  0  0
   57.3090   24.3630   44.1600 C   0  0  0  0  0  0  0  0  0  0  0  0
   56.2690   24.7680   44.9800 C   0  0  0  0  0  0  0  0  0  0  0  0
   56.3580   25.9310   45.8930 C   0  0  0  0  0  0  0  0  0  0  0  0
   55.3600   26.6950   45.9940 O   0  0  0  0  0  0  0  0  0  0  0  0
   57.6120   26.2920   46.6420 C   0  0  0  0  0  0  0  0  0  0  0  0
   58.9110   26.9050   45.5110 S   0  0  0  0  0  0  0  0  0  0  0  0
   58.1010   28.4720   45.1980 C   0  0  0  0  0  0  0  0  0  0  0  0
   56.8850   28.6040   44.6440 N   0  0  0  0  0  0  0  0  0  0  0  0
   56.6170   29.8960   44.5780 N   0  0  0  0  0  0  0  0  0  0  0  0
   57.6990   30.5120   45.0990 C   0  0  0  0  0  0  0  0  0  0  0  0
   57.8400   31.9650   45.2270 C   0  0  0  0  0  0  0  0  0  0  0  0
   57.7710   32.6920   46.4090 C   0  0  0  0  0  0  0  0  0  0  0  0
   57.9440   34.0670   46.2180 C   0  0  0  0  0  0  0  0  0  0  0  0
   58.1500   34.4250   44.8920 C   0  0  0  0  0  0  0  0  0  0  0  0
   58.1160   33.0280   43.9560 S   0  0  0  0  0  0  0  0  0  0  0  0
   58.6120   29.6450   45.4810 O   0  0  0  0  0  0  0  0  0  0  0  0
   53.9435   24.0557   46.4742 H   0  0  0  0  0  0  0  0  0  0  0  0
   53.3970   25.0010   45.0479 H   0  0  0  0  0  0  0  0  0  0  0  0
   53.2522   23.2106   45.0479 H   0  0  0  0  0  0  0  0  0  0  0  0
   54.9213   22.2150   43.5194 H   0  0  0  0  0  0  0  0  0  0  0  0
   57.4280   22.6658   42.7342 H   0  0  0  0  0  0  0  0  0  0  0  0
   58.2998   24.8332   44.0752 H   0  0  0  0  0  0  0  0  0  0  0  0
   57.3771   27.0768   47.3761 H   0  0  0  0  0  0  0  0  0  0  0  0
   57.9880   25.3882   47.1438 H   0  0  0  0  0  0  0  0  0  0  0  0
   56.2490   27.8410   44.3210 H   0  0  0  0  0  0  0  0  0  0  0  0
   57.5981   32.2335   47.3938 H   0  0  0  0  0  0  0  0  0  0  0  0
   57.9192   34.7964   47.0410 H   0  0  0  0  0  0  0  0  0  0  0  0
   58.3083   35.4473   44.5179 H   0  0  0  0  0  0  0  0  0  0  0  0
  1  2  1  0
  2  3  1  0
  3  4  2  0
  4  5  1  0
  5  6  2  0
  6  7  1  0
  7  8  2  0
  7  9  1  0
  9 10  1  0
 10 11  1  0
 11 12  2  0
 12 13  1  0
 13 14  2  0
 14 15  1  0
 15 16  2  0
 16 17  1  0
 17 18  2  0
 18 19  1  0
 14 20  1  0
  6  2  1  0
 20 11  1  0
 19 15  1  0
  1 21  1  0
  1 22  1  0
  1 23  1  0
  3 24  1  0
  4 25  1  0
  5 26  1  0
  9 27  1  0
  9 28  1  0
 12 29  1  0
 16 30  1  0
 17 31  1  0
 18 32  1  0
M  CHG  1  12   1
M  END
>  <UniqueID>  (15) 
11

>  <SMILES>  (15) 
Cn1cccc1C(=O)CSc1[nH+]nc(-c2cccs2)o1

>  <Energy>  (15) 
118.920923286505

>  <Genealogy>  (15) 
Cn1cccc1C(=O)CSc1[nH+]nc(-c2cccs2)o1 (protonated)
Cn1cccc1C(=O)CSc1[nH+]nc(-c2cccs2)o1 (3D coordinates assigned)
Cn1cccc1C(=O)CSc1[nH+]nc(-c2cccs2)o1 (optimized conformer: 118.920923286505 kcal/mol)

>  <smiles>  (15) 
Cn1cccc1C(=O)CSc1nnc(-c2cccs2)o1

>  <score_type>  (15) 
oracle

>  <origin>  (15) 
adg

>  <m_score__min__energy>  (15) 
-5.8399999999999999

>  <m_primary>  (15) 
energy

$$$$
15:0
     RDKit          3D

 55 57  0  0  0  0  0  0  0  0999 V2000
   57.7600   21.7460   43.7120 C   0  0  0  0  0  0  0  0  0  0  0  0
   59.0570   22.1970   44.3650 C   0  0  0  0  0  0  0  0  0  0  0  0
   58.8390   22.4350   45.7870 N   0  0  0  0  0  0  0  0  0  0  0  0
   57.5590   22.7120   46.3630 C   0  0  0  0  0  0  0  0  0  0  0  0
   57.0200   21.8400   47.0960 O   0  0  0  0  0  0  0  0  0  0  0  0
   56.8890   23.9570   46.1140 N   0  0  0  0  0  0  0  0  0  0  0  0
   55.5210   24.2190   46.5620 C   0  0  0  0  0  0  0  0  0  0  0  0
   54.8150   25.2050   45.6160 C   0  0  0  0  0  0  0  0  0  0  0  0
   55.1700   26.5860   45.9580 N   0  0  0  0  0  0  0  0  0  0  0  0
   56.8530   26.8940   45.6390 S   0  0  0  0  0  0  0  0  0  0  0  0
   57.6650   26.5540   46.8570 O   0  0  0  0  0  0  0  0  0  0  0  0
   57.3050   26.0130   44.5090 O   0  0  0  0  0  0  0  0  0  0  0  0
   57.1190   28.5800   45.1980 C   0  0  0  0  0  0  0  0  0  0  0  0
   58.1940   29.2930   45.7450 C   0  0  0  0  0  0  0  0  0  0  0  0
   58.3900   30.6370   45.4130 C   0  0  0  0  0  0  0  0  0  0  0  0
   57.5210   31.2800   44.5160 C   0  0  0  0  0  0  0  0  0  0  0  0
   57.7990   32.6970   44.0800 C   0  0  0  0  0  0  0  0  0  0  0  0
   58.4060   33.4780   45.2100 C   0  0  0  0  0  0  0  0  0  0  0  0
   57.7140   34.2520   46.1360 C   0  0  0  0  0  0  0  0  0  0  0  0
   58.4800   34.7680   47.1360 N   0  0  0  0  0  0  0  0  0  0  0  0
   59.7750   34.4080   47.0100 C   0  0  0  0  0  0  0  0  0  0  0  0
   60.6720   34.7350   47.8940 N   0  0  0  0  0  0  0  0  0  0  0  0
   60.9170   34.0720   49.1470 C   0  0  0  0  0  0  0  0  0  0  0  0
   61.9660   34.3530   49.7840 O   0  0  0  0  0  0  0  0  0  0  0  0
   59.9740   33.0910   49.7290 C   0  0  0  0  0  0  0  0  0  0  0  0
   59.1470   33.5060   50.7280 N   0  0  0  0  0  0  0  0  0  0  0  0
   58.2880   32.6610   51.3590 C   0  0  0  0  0  0  0  0  0  0  0  0
   58.2390   31.3130   50.9910 C   0  0  0  0  0  0  0  0  0  0  0  0
   57.3570   30.4040   51.6720 C   0  0  0  0  0  0  0  0  0  0  0  0
   56.6440   29.6740   52.2200 N   0  0  0  0  0  0  0  0  0  0  0  0
   59.0530   30.8600   49.9520 C   0  0  0  0  0  0  0  0  0  0  0  0
   59.9160   31.7460   49.2990 C   0  0  0  0  0  0  0  0  0  0  0  0
   60.8560   31.1470   47.9350 Cl  0  0  0  0  0  0  0  0  0  0  0  0
   60.0340   33.4750   45.6280 S   0  0  0  0  0  0  0  0  0  0  0  0
   56.4420   30.5640   43.9730 C   0  0  0  0  0  0  0  0  0  0  0  0
   56.2410   29.2230   44.3170 C   0  0  0  0  0  0  0  0  0  0  0  0
   57.0266   21.4910   44.4911 H   0  0  0  0  0  0  0  0  0  0  0  0
   57.3626   22.5587   43.0862 H   0  0  0  0  0  0  0  0  0  0  0  0
   57.9526   20.8621   43.0862 H   0  0  0  0  0  0  0  0  0  0  0  0
   59.8203   21.4151   44.2387 H   0  0  0  0  0  0  0  0  0  0  0  0
   59.3975   23.1286   43.8895 H   0  0  0  0  0  0  0  0  0  0  0  0
   57.3900   24.7270   45.6200 H   0  0  0  0  0  0  0  0  0  0  0  0
   54.9603   23.2728   46.5804 H   0  0  0  0  0  0  0  0  0  0  0  0
   55.5586   24.6619   47.5682 H   0  0  0  0  0  0  0  0  0  0  0  0
   55.1232   24.9975   44.5807 H   0  0  0  0  0  0  0  0  0  0  0  0
   53.7269   25.0807   45.7190 H   0  0  0  0  0  0  0  0  0  0  0  0
   58.8865   28.7934   46.4384 H   0  0  0  0  0  0  0  0  0  0  0  0
   59.2288   31.1936   45.8564 H   0  0  0  0  0  0  0  0  0  0  0  0
   58.4973   32.6852   43.2302 H   0  0  0  0  0  0  0  0  0  0  0  0
   56.8530   33.1729   43.7824 H   0  0  0  0  0  0  0  0  0  0  0  0
   56.6313   34.4331   46.0655 H   0  0  0  0  0  0  0  0  0  0  0  0
   57.6325   33.0378   52.1580 H   0  0  0  0  0  0  0  0  0  0  0  0
   59.0158   29.8041   49.6460 H   0  0  0  0  0  0  0  0  0  0  0  0
   55.7520   31.0596   43.2743 H   0  0  0  0  0  0  0  0  0  0  0  0
   55.3891   28.6710   43.8933 H   0  0  0  0  0  0  0  0  0  0  0  0
  1  2  1  0
  2  3  1  0
  3  4  1  0
  4  5  2  0
  4  6  1  0
  6  7  1  0
  7  8  1  0
  8  9  1  0
  9 10  1  0
 10 11  2  0
 10 12  2  0
 10 13  1  0
 13 14  2  0
 14 15  1  0
 15 16  2  0
 16 17  1  0
 17 18  1  0
 18 19  2  0
 19 20  1  0
 20 21  1  0
 21 22  2  3
 22 23  1  0
 23 24  2  0
 23 25  1  0
 25 26  2  0
 26 27  1  0
 27 28  2  0
 28 29  1  0
 29 30  3  0
 28 31  1  0
 31 32  2  0
 32 33  1  0
 21 34  1  0
 16 35  1  0
 35 36  2  0
 36 13  1  0
 34 18  1  0
 32 25  1  0
  1 37  1  0
  1 38  1  0
  1 39  1  0
  2 40  1  0
  2 41  1  0
  6 42  1  0
  7 43  1  0
  7 44  1  0
  8 45  1  0
  8 46  1  0
 14 47  1  0
 15 48  1  0
 17 49  1  0
 17 50  1  0
 19 51  1  0
 27 52  1  0
 31 53  1  0
 35 54  1  0
 36 55  1  0
M  CHG  3   3  -1   9  -1  20  -1
M  END
>  <UniqueID>  (16) 
12

>  <SMILES>  (16) 
CC[N-]C(=O)NCC[N-]S(=O)(=O)c1ccc(Cc2c[n-]c(=NC(=O)c3ncc(C#N)cc3Cl)s2)cc1

>  <Energy>  (16) 
85.18331053090408

>  <Genealogy>  (16) 
CC[N-]C(=O)NCC[N-]S(=O)(=O)c1ccc(Cc2c[n-]c(=NC(=O)c3ncc(C#N)cc3Cl)s2)cc1 (protonated)
CC[N-]C(=O)NCC[N-]S(=O)(=O)c1ccc(Cc2c[n-]c(=NC(=O)c3ncc(C#N)cc3Cl)s2)cc1 (3D coordinates assigned)
CC[N-]C(=O)NCC[N-]S(=O)(=O)c1ccc(Cc2c[n-]c(=NC(=O)c3ncc(C#N)cc3Cl)s2)cc1 (optimized conformer: 85.18331053090408 kcal/mol)

>  <smiles>  (16) 
CCNC(=O)NCCNS(=O)(=O)c1ccc(Cc2c[nH]c(=NC(=O)c3ncc(C#N)cc3Cl)s2)cc1

>  <score_type>  (16) 
oracle

>  <origin>  (16) 
adg

>  <m_score__min__energy>  (16) 
-14.199999999999999

>  <m_primary>  (16) 
energy

$$$$
16:0
     RDKit          3D

 33 36  0  0  0  0  0  0  0  0999 V2000
   61.5980   30.1420   47.8770 O   0  0  0  0  0  0  0  0  0  0  0  0
   60.5400   30.1620   47.1950 C   0  0  0  0  0  0  0  0  0  0  0  0
   59.8670   28.9990   46.9660 N   0  0  0  0  0  0  0  0  0  0  0  0
   58.7330   28.9560   46.2000 C   0  0  0  0  0  0  0  0  0  0  0  0
   58.0310   27.6670   45.9760 C   0  0  0  0  0  0  0  0  0  0  0  0
   58.7600   26.4860   45.7360 C   0  0  0  0  0  0  0  0  0  0  0  0
   58.0980   25.2740   45.5240 C   0  0  0  0  0  0  0  0  0  0  0  0
   56.7020   25.2220   45.5500 C   0  0  0  0  0  0  0  0  0  0  0  0
   56.0500   24.0120   45.3390 O   0  0  0  0  0  0  0  0  0  0  0  0
   55.9650   26.3870   45.7860 C   0  0  0  0  0  0  0  0  0  0  0  0
   54.5760   26.3410   45.8120 O   0  0  0  0  0  0  0  0  0  0  0  0
   56.6240   27.6030   45.9990 C   0  0  0  0  0  0  0  0  0  0  0  0
   58.2610   30.1040   45.6330 N   0  0  0  0  0  0  0  0  0  0  0  0
   58.9130   31.2680   45.8540 C   0  0  0  0  0  0  0  0  0  0  0  0
   58.5200   32.7690   45.2240 S   0  0  0  0  0  0  0  0  0  0  0  0
   59.8100   33.5730   45.9620 C   0  0  0  0  0  0  0  0  0  0  0  0
   60.5560   32.6630   46.7230 C   0  0  0  0  0  0  0  0  0  0  0  0
   61.7170   33.0890   47.5290 C   0  0  0  0  0  0  0  0  0  0  0  0
   63.0220   32.7480   47.1370 C   0  0  0  0  0  0  0  0  0  0  0  0
   64.1150   33.1280   47.9220 C   0  0  0  0  0  0  0  0  0  0  0  0
   63.9130   33.8370   49.1090 C   0  0  0  0  0  0  0  0  0  0  0  0
   62.6150   34.1630   49.5160 C   0  0  0  0  0  0  0  0  0  0  0  0
   61.5190   33.7840   48.7330 C   0  0  0  0  0  0  0  0  0  0  0  0
   60.0430   31.3500   46.6420 C   0  0  0  0  0  0  0  0  0  0  0  0
   59.8593   26.5181   45.7153 H   0  0  0  0  0  0  0  0  0  0  0  0
   58.6775   24.3581   45.3361 H   0  0  0  0  0  0  0  0  0  0  0  0
   56.0390   28.5156   46.1858 H   0  0  0  0  0  0  0  0  0  0  0  0
   60.0304   34.6459   45.8606 H   0  0  0  0  0  0  0  0  0  0  0  0
   63.1847   32.1800   46.2092 H   0  0  0  0  0  0  0  0  0  0  0  0
   65.1357   32.8683   47.6045 H   0  0  0  0  0  0  0  0  0  0  0  0
   64.7743   34.1387   49.7231 H   0  0  0  0  0  0  0  0  0  0  0  0
   62.4557   34.7178   50.4524 H   0  0  0  0  0  0  0  0  0  0  0  0
   60.4988   34.0313   49.0617 H   0  0  0  0  0  0  0  0  0  0  0  0
  1  2  2  0
  2  3  1  0
  3  4  2  0
  4  5  1  0
  5  6  2  0
  6  7  1  0
  7  8  2  0
  8  9  1  0
  8 10  1  0
 10 11  1  0
 10 12  2  0
  4 13  1  0
 13 14  1  0
 14 15  1  0
 15 16  1  0
 16 17  2  0
 17 18  1  0
 18 19  2  0
 19 20  1  0
 20 21  2  0
 21 22  1  0
 22 23  2  0
 17 24  1  0
 24  2  1  0
 12  5  1  0
 24 14  2  0
 23 18  1  0
  6 25  1  0
  7 26  1  0
 12 27  1  0
 16 28  1  0
 19 29  1  0
 20 30  1  0
 21 31  1  0
 22 32  1  0
 23 33  1  0
M  CHG  3   9  -1  11  -1  13  -1
M  END
>  <UniqueID>  (17) 
13

>  <SMILES>  (17) 
O=c1nc(-c2ccc([O-])c([O-])c2)[n-]c2scc(-c3ccccc3)c12

>  <Energy>  (17) 
81.22670205136227

>  <Genealogy>  (17) 
O=c1nc(-c2ccc([O-])c([O-])c2)[n-]c2scc(-c3ccccc3)c12 (protonated)
O=c1nc(-c2ccc([O-])c([O-])c2)[n-]c2scc(-c3ccccc3)c12 (3D coordinates assigned)
O=c1nc(-c2ccc([O-])c([O-])c2)[n-]c2scc(-c3ccccc3)c12 (optimized conformer: 81.22670205136227 kcal/mol)

>  <smiles>  (17) 
O=c1nc(-c2ccc(O)c(O)c2)[nH]c2scc(-c3ccccc3)c12

>  <score_type>  (17) 
oracle

>  <origin>  (17) 
adg

>  <m_score__min__energy>  (17) 
-15.529999999999999

>  <m_primary>  (17) 
energy

$$$$
17:0
     RDKit          3D

 56 59  0  0  0  0  0  0  0  0999 V2000
   56.6290   21.9990   47.9080 H   0  0  0  0  0  0  0  0  0  0  0  0
   57.0590   22.8560   47.4910 N   0  0  0  0  0  0  0  0  0  0  0  0
   56.3540   23.7760   46.9130 C   0  0  0  0  0  0  0  0  0  0  0  0
   55.0370   23.5000   46.5280 C   0  0  0  0  0  0  0  0  0  0  0  0
   54.6011   22.5075   46.7149 H   0  0  0  0  0  0  0  0  0  0  0  0
   54.2800   24.4960   45.9040 C   0  0  0  0  0  0  0  0  0  0  0  0
   53.2438   24.2883   45.5987 H   0  0  0  0  0  0  0  0  0  0  0  0
   54.8230   25.7210   45.6740 N   0  0  0  0  0  0  0  0  0  0  0  0
   56.1000   26.0160   46.0370 C   0  0  0  0  0  0  0  0  0  0  0  0
   56.6270   27.3250   45.7700 C   0  0  0  0  0  0  0  0  0  0  0  0
   57.0660   28.4270   45.5550 C   0  0  0  0  0  0  0  0  0  0  0  0
   57.5990   29.7500   45.3110 C   0  0  0  0  0  0  0  0  0  0  0  0
   58.6040   30.2840   46.1500 C   0  0  0  0  0  0  0  0  0  0  0  0
   59.1940   29.5050   47.2660 C   0  0  0  0  0  0  0  0  0  0  0  0
   58.9880   29.8960   48.5980 C   0  0  0  0  0  0  0  0  0  0  0  0
   58.3792   30.7851   48.8191 H   0  0  0  0  0  0  0  0  0  0  0  0
   59.5520   29.1620   49.6450 C   0  0  0  0  0  0  0  0  0  0  0  0
   59.3981   29.4867   50.6847 H   0  0  0  0  0  0  0  0  0  0  0  0
   60.3130   28.0140   49.3790 C   0  0  0  0  0  0  0  0  0  0  0  0
   60.9250   27.2400   50.4830 C   0  0  0  0  0  0  0  0  0  0  0  0
   60.5730   26.0420   50.6590 O   0  0  0  0  0  0  0  0  0  0  0  0
   61.8960   27.8320   51.3670 N   0  0  0  0  0  0  0  0  0  0  0  0
   62.9390   27.0090   51.9840 C   0  0  0  0  0  0  0  0  0  0  0  0
   62.8793   25.9865   51.5828 H   0  0  0  0  0  0  0  0  0  0  0  0
   63.9221   27.4464   51.7555 H   0  0  0  0  0  0  0  0  0  0  0  0
   62.7520   26.9670   53.5120 C   0  0  0  0  0  0  0  0  0  0  0  0
   62.0537   26.1520   53.7531 H   0  0  0  0  0  0  0  0  0  0  0  0
   63.7487   26.8133   53.9513 H   0  0  0  0  0  0  0  0  0  0  0  0
   62.2160   28.2290   54.0890 N   0  0  0  0  0  0  0  0  0  0  0  0
   60.8160   28.0820   54.5230 C   0  0  0  0  0  0  0  0  0  0  0  0
   60.7714   28.0773   55.6221 H   0  0  0  0  0  0  0  0  0  0  0  0
   60.2218   28.9227   54.1355 H   0  0  0  0  0  0  0  0  0  0  0  0
   60.4094   27.1362   54.1355 H   0  0  0  0  0  0  0  0  0  0  0  0
   62.3970   29.4050   53.2120 C   0  0  0  0  0  0  0  0  0  0  0  0
   61.9587   30.2861   53.7035 H   0  0  0  0  0  0  0  0  0  0  0  0
   63.4753   29.5412   53.0423 H   0  0  0  0  0  0  0  0  0  0  0  0
   61.7200   29.2100   51.8450 C   0  0  0  0  0  0  0  0  0  0  0  0
   60.6453   29.4238   51.9412 H   0  0  0  0  0  0  0  0  0  0  0  0
   62.1838   29.8961   51.1210 H   0  0  0  0  0  0  0  0  0  0  0  0
   60.5210   27.6240   48.0460 C   0  0  0  0  0  0  0  0  0  0  0  0
   61.1298   26.7348   47.8252 H   0  0  0  0  0  0  0  0  0  0  0  0
   59.9590   28.3590   46.9980 C   0  0  0  0  0  0  0  0  0  0  0  0
   60.1171   28.0376   45.9580 H   0  0  0  0  0  0  0  0  0  0  0  0
   59.0500   31.5940   45.9270 C   0  0  0  0  0  0  0  0  0  0  0  0
   59.8210   32.0315   46.5783 H   0  0  0  0  0  0  0  0  0  0  0  0
   58.5160   32.3410   44.8800 C   0  0  0  0  0  0  0  0  0  0  0  0
   58.8694   33.3678   44.7048 H   0  0  0  0  0  0  0  0  0  0  0  0
   57.5600   31.8080   44.0730 N   0  0  0  0  0  0  0  0  0  0  0  0
   57.1840   32.4010   43.2990 H   0  0  0  0  0  0  0  0  0  0  0  0
   57.0880   30.5400   44.2570 C   0  0  0  0  0  0  0  0  0  0  0  0
   56.0130   30.0100   43.3430 C   0  0  0  0  0  0  0  0  0  0  0  0
   55.1874   29.6030   43.9453 H   0  0  0  0  0  0  0  0  0  0  0  0
   55.6364   30.8257   42.7083 H   0  0  0  0  0  0  0  0  0  0  0  0
   56.4307   29.2146   42.7083 H   0  0  0  0  0  0  0  0  0  0  0  0
   56.8920   25.0480   46.6650 C   0  0  0  0  0  0  0  0  0  0  0  0
   57.9253   25.2818   46.9610 H   0  0  0  0  0  0  0  0  0  0  0  0
  1  2  1  0
  2  3  2  0
  3  4  1  0
  4  5  1  0
  4  6  2  0
  6  7  1  0
  6  8  1  0
  8  9  1  0
  9 10  1  0
 10 11  3  0
 11 12  1  0
 12 13  1  0
 13 14  1  0
 14 15  2  0
 15 16  1  0
 15 17  1  0
 17 18  1  0
 17 19  2  0
 19 20  1  0
 20 21  2  0
 20 22  1  0
 22 23  1  0
 23 24  1  0
 23 25  1  0
 23 26  1  0
 26 27  1  0
 26 28  1  0
 26 29  1  0
 29 30  1  0
 30 31  1  0
 30 32  1  0
 30 33  1  0
 29 34  1  0
 34 35  1  0
 34 36  1  0
 34 37  1  0
 37 38  1  0
 37 39  1  0
 19 40  1  0
 40 41  1  0
 40 42  2  0
 42 43  1  0
 13 44  2  0
 44 45  1  0
 44 46  1  0
 46 47  1  0
 46 48  2  0
 48 49  1  0
 48 50  1  0
 50 51  1  0
 51 52  1  0
 51 53  1  0
 51 54  1  0
  9 55  2  0
 55 56  1  0
 55  3  1  0
 50 12  2  0
 42 14  1  0
 37 22  1  0
M  CHG  2   8  -1  48   1
M  END
>  <UniqueID>  (18) 
14

>  <SMILES>  (18) 
[H]/N=c1/cc[n-]c(C#Cc2c(-c3ccc(C(=O)N4CCN(C)CC4)cc3)cc[nH+]c2C)c1

>  <Energy>  (18) 
76.81664836805056

>  <Genealogy>  (18) 
Cc1[nH+]ccc(-c2ccc(C(=O)N3CCN(C)CC3)cc2)c1C#Cc1cc(=N)cc[n-]1 (protonated)
[H]/N=c1/cc[n-]c(C#Cc2c(-c3ccc(C(=O)N4CCN(C)CC4)cc3)cc[nH+]c2C)c1 (cis-trans isomerization)
[H]/N=c1/cc[n-]c(C#Cc2c(-c3ccc(C(=O)N4CCN(C)CC4)cc3)cc[nH+]c2C)c1 (3D coordinates assigned)
[H]/N=c1/cc[n-]c(C#Cc2c(-c3ccc(C(=O)N4CCN(C)CC4)cc3)cc[nH+]c2C)c1 (nonaromatic ring conformer: 76.81664836805056 kcal/mol)

>  <smiles>  (18) 
Cc1nccc(-c2ccc(C(=O)N3CCN(C)CC3)cc2)c1C#Cc1cc(=N)cc[nH]1

>  <score_type>  (18) 
oracle

>  <origin>  (18) 
adg

>  <m_score__min__energy>  (18) 
-7.6699999999999999

>  <m_primary>  (18) 
energy

$$$$
18:0
     RDKit          3D

 18 19  0  0  0  0  0  0  0  0999 V2000
   59.2178   30.9392   44.4379 H   0  0  0  0  0  0  0  0  0  0  0  0
   59.2720   29.9110   44.8250 C   0  0  0  0  0  0  0  0  0  0  0  0
   60.4200   29.1980   45.1500 C   0  0  0  0  0  0  0  0  0  0  0  0
   61.4453   29.5854   45.0568 H   0  0  0  0  0  0  0  0  0  0  0  0
   60.1020   27.9640   45.5960 N   0  0  0  0  0  0  0  0  0  0  0  0
   60.7620   27.2170   45.9090 H   0  0  0  0  0  0  0  0  0  0  0  0
   58.7640   27.9020   45.5510 C   0  0  0  0  0  0  0  0  0  0  0  0
   57.7760   26.6170   45.9820 S   0  0  0  0  0  0  0  0  0  0  0  0
   56.1510   27.0800   45.7260 C   0  0  0  0  0  0  0  0  0  0  0  0
   55.1560   26.2810   45.9740 N   0  0  0  0  0  0  0  0  0  0  0  0
   55.1010   24.8710   45.6000 C   0  0  0  0  0  0  0  0  0  0  0  0
   55.0768   24.2513   46.5085 H   0  0  0  0  0  0  0  0  0  0  0  0
   54.1949   24.6846   45.0048 H   0  0  0  0  0  0  0  0  0  0  0  0
   55.9898   24.6146   45.0048 H   0  0  0  0  0  0  0  0  0  0  0  0
   55.8980   28.3320   45.2440 N   0  0  0  0  0  0  0  0  0  0  0  0
   56.8310   29.2890   44.9330 C   0  0  0  0  0  0  0  0  0  0  0  0
   56.4350   30.4020   44.4970 O   0  0  0  0  0  0  0  0  0  0  0  0
   58.2120   29.0630   45.0880 C   0  0  0  0  0  0  0  0  0  0  0  0
  1  2  1  0
  2  3  2  0
  3  4  1  0
  3  5  1  0
  5  6  1  0
  5  7  1  0
  7  8  1  0
  8  9  1  0
  9 10  2  0
 10 11  1  0
 11 12  1  0
 11 13  1  0
 11 14  1  0
  9 15  1  0
 15 16  1  0
 16 17  2  0
 16 18  1  0
 18  2  1  0
 18  7  2  0
M  CHG  1  15  -1
M  END
>  <UniqueID>  (19) 
15

>  <SMILES>  (19) 
C/N=c1/[n-]c(=O)c2cc[nH]c2s1

>  <Energy>  (19) 
53.53462355955642

>  <Genealogy>  (19) 
CN=c1[n-]c(=O)c2cc[nH]c2s1 (protonated)
C/N=c1/[n-]c(=O)c2cc[nH]c2s1 (cis-trans isomerization)
C/N=c1/[n-]c(=O)c2cc[nH]c2s1 (3D coordinates assigned)
C/N=c1/[n-]c(=O)c2cc[nH]c2s1 (optimized conformer: 53.53462355955642 kcal/mol)

>  <smiles>  (19) 
CN=c1[nH]c(=O)c2cc[nH]c2s1

>  <score_type>  (19) 
oracle

>  <origin>  (19) 
adg

>  <m_score__min__energy>  (19) 
-7.2199999999999998

>  <m_primary>  (19) 
energy

$$$$
19:0
     RDKit          3D

 44 45  0  0  0  0  0  0  0  0999 V2000
   55.9300   29.7560   42.9760 C   0  0  0  0  0  0  0  0  0  0  0  0
   55.8270   30.1960   44.4360 C   0  0  0  0  0  0  0  0  0  0  0  0
   57.1530   30.5230   45.0130 N   0  0  0  0  0  0  0  0  0  0  0  0
   58.0860   30.9580   43.9440 C   0  0  0  0  0  0  0  0  0  0  0  0
   58.2210   32.4950   43.9260 C   0  0  0  0  0  0  0  0  0  0  0  0
   57.6030   33.1430   45.0950 N   0  0  0  0  0  0  0  0  0  0  0  0
   58.2420   34.4200   45.4330 C   0  0  0  0  0  0  0  0  0  0  0  0
   59.2690   34.1980   46.5070 C   0  0  0  0  0  0  0  0  0  0  0  0
   58.8960   34.2200   47.8620 C   0  0  0  0  0  0  0  0  0  0  0  0
   59.8590   34.0470   48.8600 C   0  0  0  0  0  0  0  0  0  0  0  0
   61.2010   33.8640   48.5150 C   0  0  0  0  0  0  0  0  0  0  0  0
   61.5840   33.8560   47.1700 C   0  0  0  0  0  0  0  0  0  0  0  0
   63.2700   33.6360   46.7390 Cl  0  0  0  0  0  0  0  0  0  0  0  0
   60.6220   34.0290   46.1680 C   0  0  0  0  0  0  0  0  0  0  0  0
   57.7300   29.3790   45.7690 C   0  0  0  0  0  0  0  0  0  0  0  0
   58.9100   29.8100   46.6010 C   0  0  0  0  0  0  0  0  0  0  0  0
   58.7520   30.0760   47.9710 C   0  0  0  0  0  0  0  0  0  0  0  0
   59.8430   30.4950   48.7390 C   0  0  0  0  0  0  0  0  0  0  0  0
   61.0940   30.6660   48.1440 C   0  0  0  0  0  0  0  0  0  0  0  0
   61.2570   30.4250   46.7760 C   0  0  0  0  0  0  0  0  0  0  0  0
   60.1680   30.0080   46.0050 C   0  0  0  0  0  0  0  0  0  0  0  0
   56.1805   28.6858   42.9324 H   0  0  0  0  0  0  0  0  0  0  0  0
   54.9673   29.9280   42.4724 H   0  0  0  0  0  0  0  0  0  0  0  0
   56.7163   30.3375   42.4724 H   0  0  0  0  0  0  0  0  0  0  0  0
   55.1851   31.0874   44.4937 H   0  0  0  0  0  0  0  0  0  0  0  0
   55.4022   29.3614   45.0130 H   0  0  0  0  0  0  0  0  0  0  0  0
   59.0748   30.5113   44.1247 H   0  0  0  0  0  0  0  0  0  0  0  0
   57.6881   30.6278   42.9731 H   0  0  0  0  0  0  0  0  0  0  0  0
   59.2903   32.7523   43.9077 H   0  0  0  0  0  0  0  0  0  0  0  0
   57.6941   32.8600   43.0320 H   0  0  0  0  0  0  0  0  0  0  0  0
   57.6570   32.4990   45.9200 H   0  0  0  0  0  0  0  0  0  0  0  0
   58.7306   34.8335   44.5384 H   0  0  0  0  0  0  0  0  0  0  0  0
   57.4804   35.1264   45.7947 H   0  0  0  0  0  0  0  0  0  0  0  0
   57.8424   34.3739   48.1379 H   0  0  0  0  0  0  0  0  0  0  0  0
   59.5603   34.0549   49.9186 H   0  0  0  0  0  0  0  0  0  0  0  0
   61.9568   33.7261   49.3023 H   0  0  0  0  0  0  0  0  0  0  0  0
   60.9265   34.0327   45.1110 H   0  0  0  0  0  0  0  0  0  0  0  0
   56.9576   28.9620   46.4320 H   0  0  0  0  0  0  0  0  0  0  0  0
   58.0728   28.6238   45.0464 H   0  0  0  0  0  0  0  0  0  0  0  0
   57.7655   29.9542   48.4421 H   0  0  0  0  0  0  0  0  0  0  0  0
   59.7150   30.6902   49.8140 H   0  0  0  0  0  0  0  0  0  0  0  0
   61.9519   30.9904   48.7512 H   0  0  0  0  0  0  0  0  0  0  0  0
   62.2422   30.5636   46.3067 H   0  0  0  0  0  0  0  0  0  0  0  0
   60.2959   29.8339   44.9264 H   0  0  0  0  0  0  0  0  0  0  0  0
  1  2  1  0
  2  3  1  0
  3  4  1  0
  4  5  1  0
  5  6  1  0
  6  7  1  0
  7  8  1  0
  8  9  2  0
  9 10  1  0
 10 11  2  0
 11 12  1  0
 12 13  1  0
 12 14  2  0
  3 15  1  0
 15 16  1  0
 16 17  2  0
 17 18  1  0
 18 19  2  0
 19 20  1  0
 20 21  2  0
 14  8  1  0
 21 16  1  0
  1 22  1  0
  1 23  1  0
  1 24  1  0
  2 25  1  0
  2 26  1  0
  4 27  1  0
  4 28  1  0
  5 29  1  0
  5 30  1  0
  6 31  1  0
  7 32  1  0
  7 33  1  0
  9 34  1  0
 10 35  1  0
 11 36  1  0
 14 37  1  0
 15 38  1  0
 15 39  1  0
 17 40  1  0
 18 41  1  0
 19 42  1  0
 20 43  1  0
 21 44  1  0
M  END
>  <UniqueID>  (20) 
16

>  <SMILES>  (20) 
CCN(CCNCc1cccc(Cl)c1)Cc1ccccc1

>  <Energy>  (20) 
44.534447519638825

>  <Genealogy>  (20) 
CCN(CCNCc1cccc(Cl)c1)Cc1ccccc1 (3D coordinates assigned)
CCN(CCNCc1cccc(Cl)c1)Cc1ccccc1 (optimized conformer: 44.534447519638825 kcal/mol)

>  <smiles>  (20) 
CCN(CCNCc1cccc(Cl)c1)Cc1ccccc1

>  <score_type>  (20) 
oracle

>  <origin>  (20) 
adg

>  <m_score__min__energy>  (20) 
-6.8300000000000001

>  <m_primary>  (20) 
energy

$$$$
20:0
     RDKit          3D

 42 45  0  0  0  0  0  0  0  0999 V2000
   56.1390   30.1610   44.6330 O   0  0  0  0  0  0  0  0  0  0  0  0
   57.1270   29.6550   45.2310 C   0  0  0  0  0  0  0  0  0  0  0  0
   58.3010   30.4390   45.4870 N   0  0  0  0  0  0  0  0  0  0  0  0
   58.3490   31.8480   45.7630 C   0  0  0  0  0  0  0  0  0  0  0  0
   57.9250   32.7990   44.8160 C   0  0  0  0  0  0  0  0  0  0  0  0
   58.0120   34.1640   45.1020 C   0  0  0  0  0  0  0  0  0  0  0  0
   58.5300   34.5910   46.3250 C   0  0  0  0  0  0  0  0  0  0  0  0
   58.9740   33.6560   47.2620 C   0  0  0  0  0  0  0  0  0  0  0  0
   58.8970   32.2770   46.9840 C   0  0  0  0  0  0  0  0  0  0  0  0
   59.3440   31.3020   47.8930 O   0  0  0  0  0  0  0  0  0  0  0  0
   60.4860   30.4650   47.7140 C   0  0  0  0  0  0  0  0  0  0  0  0
   61.7370   31.1750   48.1390 C   0  0  0  0  0  0  0  0  0  0  0  0
   62.3190   32.1410   47.3180 C   0  0  0  0  0  0  0  0  0  0  0  0
   63.4790   32.7870   47.7490 C   0  0  0  0  0  0  0  0  0  0  0  0
   64.0000   33.6620   47.0020 O   0  0  0  0  0  0  0  0  0  0  0  0
   64.0360   32.4700   48.9640 N   0  0  0  0  0  0  0  0  0  0  0  0
   65.1750   33.0990   49.4000 C   0  0  0  0  0  0  0  0  0  0  0  0
   65.7420   32.7760   50.6350 C   0  0  0  0  0  0  0  0  0  0  0  0
   65.1440   31.8040   51.4320 C   0  0  0  0  0  0  0  0  0  0  0  0
   63.9880   31.1660   50.9920 C   0  0  0  0  0  0  0  0  0  0  0  0
   63.4400   31.5070   49.7510 C   0  0  0  0  0  0  0  0  0  0  0  0
   62.3120   30.8790   49.3300 N   0  0  0  0  0  0  0  0  0  0  0  0
   57.0470   28.2620   45.7110 C   0  0  0  0  0  0  0  0  0  0  0  0
   58.1640   27.6130   46.2560 C   0  0  0  0  0  0  0  0  0  0  0  0
   58.0230   26.2930   46.6900 C   0  0  0  0  0  0  0  0  0  0  0  0
   59.0060   25.6800   47.1830 O   0  0  0  0  0  0  0  0  0  0  0  0
   56.8240   25.6660   46.5790 N   0  0  0  0  0  0  0  0  0  0  0  0
   55.7500   26.3070   46.0490 C   0  0  0  0  0  0  0  0  0  0  0  0
   54.6470   25.7100   45.9520 O   0  0  0  0  0  0  0  0  0  0  0  0
   55.8660   27.5910   45.6220 N   0  0  0  0  0  0  0  0  0  0  0  0
   57.5237   32.4665   43.8473 H   0  0  0  0  0  0  0  0  0  0  0  0
   57.6716   34.9030   44.3617 H   0  0  0  0  0  0  0  0  0  0  0  0
   58.5887   35.6659   46.5514 H   0  0  0  0  0  0  0  0  0  0  0  0
   59.3863   33.9980   48.2228 H   0  0  0  0  0  0  0  0  0  0  0  0
   60.3645   29.5545   48.3192 H   0  0  0  0  0  0  0  0  0  0  0  0
   60.5711   30.2070   46.6481 H   0  0  0  0  0  0  0  0  0  0  0  0
   61.8703   32.3901   46.3450 H   0  0  0  0  0  0  0  0  0  0  0  0
   65.6471   33.8667   48.7694 H   0  0  0  0  0  0  0  0  0  0  0  0
   66.6550   33.2864   50.9755 H   0  0  0  0  0  0  0  0  0  0  0  0
   65.5833   31.5412   52.4056 H   0  0  0  0  0  0  0  0  0  0  0  0
   63.5081   30.3981   51.6165 H   0  0  0  0  0  0  0  0  0  0  0  0
   59.1302   28.1321   46.3399 H   0  0  0  0  0  0  0  0  0  0  0  0
  1  2  2  0
  2  3  1  0
  3  4  1  0
  4  5  2  0
  5  6  1  0
  6  7  2  0
  7  8  1  0
  8  9  2  0
  9 10  1  0
 10 11  1  0
 11 12  1  0
 12 13  2  0
 13 14  1  0
 14 15  2  0
 14 16  1  0
 16 17  1  0
 17 18  2  0
 18 19  1  0
 19 20  2  0
 20 21  1  0
 21 22  2  0
  2 23  1  0
 23 24  2  0
 24 25  1  0
 25 26  2  0
 25 27  1  0
 27 28  1  0
 28 29  2  0
 28 30  1  0
  9  4  1  0
 22 12  1  0
 30 23  1  0
 21 16  1  0
  5 31  1  0
  6 32  1  0
  7 33  1  0
  8 34  1  0
 11 35  1  0
 11 36  1  0
 13 37  1  0
 17 38  1  0
 18 39  1  0
 19 40  1  0
 20 41  1  0
 24 42  1  0
M  CHG  3   3  -1  27  -1  30  -1
M  END
>  <UniqueID>  (21) 
17

>  <SMILES>  (21) 
O=C([N-]c1ccccc1OCc1cc(=O)n2ccccc2n1)c1cc(=O)[n-]c(=O)[n-]1

>  <Energy>  (21) 
56.70750440613383

>  <Genealogy>  (21) 
O=C([N-]c1ccccc1OCc1cc(=O)n2ccccc2n1)c1cc(=O)[n-]c(=O)[n-]1 (protonated)
O=C([N-]c1ccccc1OCc1cc(=O)n2ccccc2n1)c1cc(=O)[n-]c(=O)[n-]1 (3D coordinates assigned)
O=C([N-]c1ccccc1OCc1cc(=O)n2ccccc2n1)c1cc(=O)[n-]c(=O)[n-]1 (optimized conformer: 56.70750440613383 kcal/mol)

>  <smiles>  (21) 
O=C(Nc1ccccc1OCc1cc(=O)n2ccccc2n1)c1cc(=O)[nH]c(=O)[nH]1

>  <score_type>  (21) 
oracle

>  <origin>  (21) 
adg

>  <m_score__min__energy>  (21) 
-15.84

>  <m_primary>  (21) 
energy

$$$$
21:0
     RDKit          3D

 55 58  0  0  1  0  0  0  0  0999 V2000
   56.2520   29.1320   42.5920 N   0  0  0  0  0  0  0  0  0  0  0  0
   55.9780   29.4200   43.9550 C   0  0  0  0  0  0  0  0  0  0  0  0
   54.7830   29.3310   44.3310 O   0  0  0  0  0  0  0  0  0  0  0  0
   57.0680   29.7980   44.8490 C   0  0  0  0  0  0  0  0  0  0  0  0
   57.5770   28.8910   45.7490 C   0  0  0  0  0  0  0  0  0  0  0  0
   58.5950   29.2030   46.6050 N   0  0  0  0  0  0  0  0  0  0  0  0
   59.0060   28.1620   47.5020 C   0  0  0  0  0  0  0  0  0  0  0  0
   58.9990   26.8070   46.9340 C   0  0  0  0  0  0  0  0  0  0  0  0
   57.7640   26.1670   46.7900 C   0  0  0  0  0  0  0  0  0  0  0  0
   57.6940   24.8750   46.2510 C   0  0  0  0  0  0  0  0  0  0  0  0
   58.8030   24.1830   45.8460 C   0  0  0  0  0  0  0  0  0  0  0  0
   58.8110   22.8540   45.2830 C   0  0  0  0  0  0  0  0  0  0  0  0
   59.8540   21.9650   45.6200 O   0  0  0  0  0  0  0  0  0  0  0  0
   57.9360   22.3740   44.4750 N   0  0  0  0  0  0  0  0  0  0  0  0
   57.8760   21.0980   44.0590 O   0  0  0  0  0  0  0  0  0  0  0  0
   60.0180   24.8220   45.9920 C   0  0  0  0  0  0  0  0  0  0  0  0
   60.0920   26.0920   46.5210 C   0  0  0  0  0  0  0  0  0  0  0  0
   59.1040   30.4350   46.5510 C   0  0  0  0  0  0  0  0  0  0  0  0
   60.1300   30.7910   47.3840 C   0  0  0  0  0  0  0  0  0  0  0  0
   60.7120   32.0600   47.3780 C   0  0  0  0  0  0  0  0  0  0  0  0
   61.7720   32.2740   48.2740 N   0  0  0  0  0  0  0  0  0  0  0  0
   63.1380   31.8700   48.1040 C   0  0  0  0  0  0  0  0  0  0  0  0
   64.1240   32.8910   48.6300 C   0  0  0  0  0  0  0  0  0  0  0  0
   63.7330   33.3800   49.8840 O   0  0  0  0  0  0  0  0  0  0  0  0
   62.5150   34.0440   49.7580 C   0  0  0  0  0  0  0  0  0  0  0  0
   61.4480   32.9870   49.5180 C   0  0  0  0  0  0  0  0  0  0  0  0
   60.2240   32.9870   46.4910 C   0  0  0  0  0  0  0  0  0  0  0  0
   60.6860   34.3120   46.3830 N   0  0  0  0  0  0  0  0  0  0  0  0
   60.0110   35.3390   46.3130 O   0  0  0  0  0  0  0  0  0  0  0  0
   62.0690   34.4870   46.3540 O   0  0  0  0  0  0  0  0  0  0  0  0
   59.1760   32.6230   45.6390 C   0  0  0  0  0  0  0  0  0  0  0  0
   58.6160   31.3640   45.6610 C   0  0  0  0  0  0  0  0  0  0  0  0
   57.5980   31.0810   44.7950 C   0  0  0  0  0  0  0  0  0  0  0  0
   57.1350   31.9250   43.9660 O   0  0  0  0  0  0  0  0  0  0  0  0
   56.6630   28.2040   42.3190 H   0  0  0  0  0  0  0  0  0  0  0  0
   56.0290   29.8790   41.8740 H   0  0  0  0  0  0  0  0  0  0  0  0
   57.1491   27.8781   45.7807 H   0  0  0  0  0  0  0  0  0  0  0  0
   60.0299   28.3855   47.8361 H   0  0  0  0  0  0  0  0  0  0  0  0
   58.2688   28.1542   48.3184 H   0  0  0  0  0  0  0  0  0  0  0  0
   56.8423   26.6804   47.1015 H   0  0  0  0  0  0  0  0  0  0  0  0
   56.7080   24.3981   46.1495 H   0  0  0  0  0  0  0  0  0  0  0  0
   59.8500   21.0110   45.2730 H   0  0  0  0  0  0  0  0  0  0  0  0
   58.4970   20.3510   44.4090 H   0  0  0  0  0  0  0  0  0  0  0  0
   60.9405   24.3097   45.6814 H   0  0  0  0  0  0  0  0  0  0  0  0
   61.0839   26.5577   46.6170 H   0  0  0  0  0  0  0  0  0  0  0  0
   60.5143   30.0417   48.0918 H   0  0  0  0  0  0  0  0  0  0  0  0
   63.2933   30.9228   48.6413 H   0  0  0  0  0  0  0  0  0  0  0  0
   63.3185   31.7625   47.0243 H   0  0  0  0  0  0  0  0  0  0  0  0
   65.1132   32.4188   48.7224 H   0  0  0  0  0  0  0  0  0  0  0  0
   64.1587   33.7344   47.9247 H   0  0  0  0  0  0  0  0  0  0  0  0
   62.2926   34.6012   50.6800 H   0  0  0  0  0  0  0  0  0  0  0  0
   62.5467   34.7623   48.9255 H   0  0  0  0  0  0  0  0  0  0  0  0
   61.4317   32.2781   50.3589 H   0  0  0  0  0  0  0  0  0  0  0  0
   60.4588   33.4609   49.4351 H   0  0  0  0  0  0  0  0  0  0  0  0
   58.7860   33.3662   44.9280 H   0  0  0  0  0  0  0  0  0  0  0  0
  1  2  1  0
  2  3  2  0
  2  4  1  0
  4  5  2  0
  5  6  1  0
  6  7  1  0
  7  8  1  0
  8  9  2  0
  9 10  1  0
 10 11  2  0
 11 12  1  0
 12 13  1  0
 12 14  2  0
 14 15  1  0
 11 16  1  0
 16 17  2  0
  6 18  1  0
 18 19  2  0
 19 20  1  0
 20 21  1  0
 21 22  1  0
 22 23  1  0
 23 24  1  0
 24 25  1  0
 25 26  1  0
 20 27  2  0
 27 28  1  0
 28 29  2  0
 28 30  1  0
 27 31  1  0
 31 32  2  0
 32 33  1  0
 33 34  2  0
 33  4  1  0
 17  8  1  0
 32 18  1  0
 26 21  1  0
  1 35  1  0
  1 36  1  0
  5 37  1  0
  7 38  1  0
  7 39  1  0
  9 40  1  0
 10 41  1  0
 13 42  1  0
 15 43  1  0
 16 44  1  0
 17 45  1  0
 19 46  1  0
 22 47  1  0
 22 48  1  0
 23 49  1  0
 23 50  1  0
 25 51  1  0
 25 52  1  0
 26 53  1  0
 26 54  1  0
 31 55  1  0
M  CHG  2  28   1  30  -1
M  END
>  <smiles>  (22) 
NC(=O)c1cn(Cc2ccc(C(O)=NO)cc2)c2cc(N3CCOCC3)c([N+](=O)[O-])cc2c1=O

>  <score_type>  (22) 
oracle

>  <origin>  (22) 
adg

>  <m_score__min__energy>  (22) 
-9.4199999999999999

>  <m_primary>  (22) 
energy

$$$$
22:0
     RDKit          3D

 37 38  0  0  0  0  0  0  0  0999 V2000
   54.1530   25.9700   45.6330 N   0  0  0  0  0  0  0  0  0  0  0  0
   55.0310   24.4820   45.6050 S   0  0  0  0  0  0  0  0  0  0  0  0
   54.6860   23.7160   44.3590 O   0  0  0  0  0  0  0  0  0  0  0  0
   54.6470   23.6550   46.7990 O   0  0  0  0  0  0  0  0  0  0  0  0
   56.7580   24.8180   45.6390 C   0  0  0  0  0  0  0  0  0  0  0  0
   57.6810   23.7680   45.7340 C   0  0  0  0  0  0  0  0  0  0  0  0
   59.0510   24.0380   45.7630 C   0  0  0  0  0  0  0  0  0  0  0  0
   59.5080   25.3580   45.7100 C   0  0  0  0  0  0  0  0  0  0  0  0
   58.5920   26.4230   45.6450 C   0  0  0  0  0  0  0  0  0  0  0  0
   59.0370   27.7890   45.5660 N   0  0  0  0  0  0  0  0  0  0  0  0
   58.3310   28.8360   44.8810 C   0  0  0  0  0  0  0  0  0  0  0  0
   57.6680   28.5770   43.7900 N   0  0  0  0  0  0  0  0  0  0  0  0
   58.4360   30.1770   45.3890 N   0  0  0  0  0  0  0  0  0  0  0  0
   57.8150   31.5840   44.5850 S   0  0  0  0  0  0  0  0  0  0  0  0
   56.3200   31.6220   44.7390 O   0  0  0  0  0  0  0  0  0  0  0  0
   58.1530   31.5030   43.1220 O   0  0  0  0  0  0  0  0  0  0  0  0
   58.4940   33.0410   45.3020 C   0  0  0  0  0  0  0  0  0  0  0  0
   58.7580   33.0870   46.6780 C   0  0  0  0  0  0  0  0  0  0  0  0
   59.3020   34.2410   47.2500 C   0  0  0  0  0  0  0  0  0  0  0  0
   59.5810   35.3550   46.4520 C   0  0  0  0  0  0  0  0  0  0  0  0
   59.3150   35.3150   45.0800 C   0  0  0  0  0  0  0  0  0  0  0  0
   58.7710   34.1620   44.5040 C   0  0  0  0  0  0  0  0  0  0  0  0
   57.2180   26.1420   45.5930 C   0  0  0  0  0  0  0  0  0  0  0  0
   54.7800   26.7000   45.2260 H   0  0  0  0  0  0  0  0  0  0  0  0
   57.3256   22.7283   45.7859 H   0  0  0  0  0  0  0  0  0  0  0  0
   59.7722   23.2099   45.8277 H   0  0  0  0  0  0  0  0  0  0  0  0
   60.5884   25.5645   45.7192 H   0  0  0  0  0  0  0  0  0  0  0  0
   59.9230   28.0450   46.0570 H   0  0  0  0  0  0  0  0  0  0  0  0
   57.0110   27.7680   43.7400 H   0  0  0  0  0  0  0  0  0  0  0  0
   57.7750   29.1430   42.9220 H   0  0  0  0  0  0  0  0  0  0  0  0
   58.9550   30.3300   46.2830 H   0  0  0  0  0  0  0  0  0  0  0  0
   58.5367   32.2135   47.3089 H   0  0  0  0  0  0  0  0  0  0  0  0
   59.5109   34.2727   48.3295 H   0  0  0  0  0  0  0  0  0  0  0  0
   60.0094   36.2620   46.9034 H   0  0  0  0  0  0  0  0  0  0  0  0
   59.5338   36.1915   44.4525 H   0  0  0  0  0  0  0  0  0  0  0  0
   58.5602   34.1339   43.4248 H   0  0  0  0  0  0  0  0  0  0  0  0
   56.4954   26.9677   45.5155 H   0  0  0  0  0  0  0  0  0  0  0  0
  1  2  1  0
  2  3  2  0
  2  4  2  0
  2  5  1  0
  5  6  2  0
  6  7  1  0
  7  8  2  0
  8  9  1  0
  9 10  1  0
 10 11  1  0
 11 12  2  0
 11 13  1  0
 13 14  1  0
 14 15  2  0
 14 16  2  0
 14 17  1  0
 17 18  2  0
 18 19  1  0
 19 20  2  0
 20 21  1  0
 21 22  2  0
  9 23  2  0
 23  5  1  0
 22 17  1  0
  1 24  1  0
  6 25  1  0
  7 26  1  0
  8 27  1  0
 10 28  1  0
 12 29  1  0
 12 30  1  0
 13 31  1  0
 18 32  1  0
 19 33  1  0
 20 34  1  0
 21 35  1  0
 22 36  1  0
 23 37  1  0
M  CHG  2   1  -1  12   1
M  END
>  <UniqueID>  (23) 
18

>  <SMILES>  (23) 
[NH-]S(=O)(=O)c1cccc(NC(=[NH2+])NS(=O)(=O)c2ccccc2)c1

>  <Energy>  (23) 
43.76031711248274

>  <Genealogy>  (23) 
[NH-]S(=O)(=O)c1cccc(NC(=[NH2+])NS(=O)(=O)c2ccccc2)c1 (protonated)
[NH-]S(=O)(=O)c1cccc(NC(=[NH2+])NS(=O)(=O)c2ccccc2)c1 (3D coordinates assigned)
[NH-]S(=O)(=O)c1cccc(NC(=[NH2+])NS(=O)(=O)c2ccccc2)c1 (optimized conformer: 43.76031711248274 kcal/mol)

>  <smiles>  (23) 
N=C(Nc1cccc(S(N)(=O)=O)c1)NS(=O)(=O)c1ccccc1

>  <score_type>  (23) 
oracle

>  <origin>  (23) 
adg

>  <m_score__min__energy>  (23) 
-9.9600000000000009

>  <m_primary>  (23) 
energy

$$$$
23:0
     RDKit          3D

 47 49  0  0  0  0  0  0  0  0999 V2000
   60.7712   34.2391   46.3835 H   0  0  0  0  0  0  0  0  0  0  0  0
   59.8350   33.7720   46.0440 C   0  0  0  0  0  0  0  0  0  0  0  0
   59.5200   32.4710   46.4450 C   0  0  0  0  0  0  0  0  0  0  0  0
   60.2099   31.9183   47.0996 H   0  0  0  0  0  0  0  0  0  0  0  0
   58.3250   31.8640   46.0160 C   0  0  0  0  0  0  0  0  0  0  0  0
   57.9790   30.4620   46.4630 C   0  0  2  0  0  0  0  0  0  0  0  0
   57.2683   30.5091   47.3013 H   0  0  0  0  0  0  0  0  0  0  0  0
   59.1950   29.7780   46.9110 N   0  0  0  0  0  0  0  0  0  0  0  0
   59.2350   28.6700   47.8230 C   0  0  0  0  0  0  0  0  0  0  0  0
   59.1400   28.8890   49.0580 O   0  0  0  0  0  0  0  0  0  0  0  0
   59.4700   27.3330   47.3650 N   0  0  0  0  0  0  0  0  0  0  0  0
   58.5500   26.5330   46.9190 C   0  0  0  0  0  0  0  0  0  0  0  0
   58.8450   25.2290   46.5910 N   0  0  0  0  0  0  0  0  0  0  0  0
   57.8980   24.3600   46.1290 C   0  0  0  0  0  0  0  0  0  0  0  0
   58.1542   23.3210   45.8746 H   0  0  0  0  0  0  0  0  0  0  0  0
   56.6020   24.8340   45.9920 C   0  0  0  0  0  0  0  0  0  0  0  0
   55.4250   24.2670   45.5790 C   0  0  0  0  0  0  0  0  0  0  0  0
   55.2580   22.9420   45.1660 O   0  0  0  0  0  0  0  0  0  0  0  0
   56.2450   22.2250   44.4260 C   0  0  0  0  0  0  0  0  0  0  0  0
   57.2128   22.3057   44.9426 H   0  0  0  0  0  0  0  0  0  0  0  0
   55.9370   21.1714   44.3544 H   0  0  0  0  0  0  0  0  0  0  0  0
   56.3810   22.7930   43.0160 C   0  0  0  0  0  0  0  0  0  0  0  0
   57.0119   22.1133   42.4244 H   0  0  0  0  0  0  0  0  0  0  0  0
   56.9700   24.0430   43.0520 F   0  0  0  0  0  0  0  0  0  0  0  0
   55.1280   22.9040   42.4390 F   0  0  0  0  0  0  0  0  0  0  0  0
   54.4430   25.1970   45.6430 N   0  0  0  0  0  0  0  0  0  0  0  0
   54.9680   26.3380   46.0830 N   0  0  0  0  0  0  0  0  0  0  0  0
   56.2790   26.1200   46.2970 C   0  0  0  0  0  0  0  0  0  0  0  0
   57.2330   27.0170   46.7630 C   0  0  0  0  0  0  0  0  0  0  0  0
   56.9730   28.0592   47.0001 H   0  0  0  0  0  0  0  0  0  0  0  0
   57.3240   29.7010   45.3280 C   0  0  0  0  0  0  0  0  0  0  0  0
   56.0630   29.6900   45.2610 O   0  0  0  0  0  0  0  0  0  0  0  0
   58.0920   28.9820   44.3360 N   0  0  0  0  0  0  0  0  0  0  0  0
   57.3980   28.4380   43.1640 C   0  0  0  0  0  0  0  0  0  0  0  0
   56.5723   27.7907   43.4945 H   0  0  0  0  0  0  0  0  0  0  0  0
   56.9965   29.2645   42.5592 H   0  0  0  0  0  0  0  0  0  0  0  0
   58.1047   27.8508   42.5592 H   0  0  0  0  0  0  0  0  0  0  0  0
   59.5370   28.7760   44.4880 C   0  0  0  0  0  0  0  0  0  0  0  0
   59.7917   28.7397   45.5575 H   0  0  0  0  0  0  0  0  0  0  0  0
   59.8245   27.8278   44.0102 H   0  0  0  0  0  0  0  0  0  0  0  0
   60.0780   29.6061   44.0102 H   0  0  0  0  0  0  0  0  0  0  0  0
   57.4540   32.5880   45.1790 C   0  0  0  0  0  0  0  0  0  0  0  0
   56.5158   32.1271   44.8365 H   0  0  0  0  0  0  0  0  0  0  0  0
   57.7750   33.8890   44.7810 C   0  0  0  0  0  0  0  0  0  0  0  0
   57.0899   34.4476   44.1263 H   0  0  0  0  0  0  0  0  0  0  0  0
   58.9640   34.4810   45.2130 C   0  0  0  0  0  0  0  0  0  0  0  0
   59.2720   35.7430   44.8260 F   0  0  0  0  0  0  0  0  0  0  0  0
  1  2  1  0
  2  3  2  0
  3  4  1  0
  3  5  1  0
  5  6  1  0
  6  7  1  1
  6  8  1  0
  8  9  1  0
  9 10  2  0
  9 11  1  0
 11 12  2  0
 12 13  1  0
 13 14  1  0
 14 15  1  0
 14 16  2  0
 16 17  1  0
 17 18  1  0
 18 19  1  0
 19 20  1  0
 19 21  1  0
 19 22  1  0
 22 23  1  0
 22 24  1  0
 22 25  1  0
 17 26  2  0
 26 27  1  0
 27 28  1  0
 28 29  2  0
 29 30  1  0
  6 31  1  0
 31 32  2  0
 31 33  1  0
 33 34  1  0
 34 35  1  0
 34 36  1  0
 34 37  1  0
 33 38  1  0
 38 39  1  0
 38 40  1  0
 38 41  1  0
  5 42  2  0
 42 43  1  0
 42 44  1  0
 44 45  1  0
 44 46  2  0
 46 47  1  0
 46  2  1  0
 29 12  1  0
 28 16  1  0
M  CHG  3   8  -1  13  -1  27  -1
M  END
>  <UniqueID>  (24) 
19

>  <SMILES>  (24) 
CN(C)C(=O)[C@@H]([N-]C(=O)/N=c1/cc2[n-]nc(OCC(F)F)c2c[n-]1)c1ccc(F)cc1

>  <Energy>  (24) 
88.5882383562278

>  <Genealogy>  (24) 
CN(C)C(=O)C([N-]C(=O)N=c1cc2[n-]nc(OCC(F)F)c2c[n-]1)c1ccc(F)cc1 (protonated)
CN(C)C(=O)[C@@H]([N-]C(=O)N=c1cc2[n-]nc(OCC(F)F)c2c[n-]1)c1ccc(F)cc1 (chirality)
CN(C)C(=O)[C@@H]([N-]C(=O)/N=c1/cc2[n-]nc(OCC(F)F)c2c[n-]1)c1ccc(F)cc1 (cis-trans isomerization)
CN(C)C(=O)[C@@H]([N-]C(=O)/N=c1/cc2[n-]nc(OCC(F)F)c2c[n-]1)c1ccc(F)cc1 (3D coordinates assigned)
CN(C)C(=O)[C@@H]([N-]C(=O)/N=c1/cc2[n-]nc(OCC(F)F)c2c[n-]1)c1ccc(F)cc1 (optimized conformer: 88.5882383562278 kcal/mol)

>  <smiles>  (24) 
CN(C)C(=O)C(NC(=O)N=c1cc2[nH]nc(OCC(F)F)c2c[nH]1)c1ccc(F)cc1

>  <score_type>  (24) 
oracle

>  <origin>  (24) 
adg

>  <m_score__min__energy>  (24) 
-11.99

>  <m_primary>  (24) 
energy

$$$$
24:0
     RDKit          3D

 47 50  0  0  0  0  0  0  0  0999 V2000
   56.4790   22.6250   41.7560 H   0  0  0  0  0  0  0  0  0  0  0  0
   55.8620   22.2560   42.5160 N   0  0  0  0  0  0  0  0  0  0  0  0
   56.0230   22.6140   43.7490 C   0  0  0  0  0  0  0  0  0  0  0  0
   56.1850   21.6790   44.7180 N   0  0  0  0  0  0  0  0  0  0  0  0
   56.3420   22.0350   46.0180 C   0  0  0  0  0  0  0  0  0  0  0  0
   56.4820   21.0420   46.9950 C   0  0  0  0  0  0  0  0  0  0  0  0
   56.4983   19.9818   46.7023 H   0  0  0  0  0  0  0  0  0  0  0  0
   56.6010   21.3960   48.3410 C   0  0  0  0  0  0  0  0  0  0  0  0
   56.7225   20.6147   49.1057 H   0  0  0  0  0  0  0  0  0  0  0  0
   56.5660   22.7400   48.7170 C   0  0  0  0  0  0  0  0  0  0  0  0
   56.6458   23.0133   49.7795 H   0  0  0  0  0  0  0  0  0  0  0  0
   56.4300   23.7400   47.7500 C   0  0  0  0  0  0  0  0  0  0  0  0
   56.3914   24.7958   48.0563 H   0  0  0  0  0  0  0  0  0  0  0  0
   56.3420   23.4020   46.3830 C   0  0  0  0  0  0  0  0  0  0  0  0
   56.2080   24.3600   45.3500 C   0  0  0  0  0  0  0  0  0  0  0  0
   56.2610   25.8170   45.5810 C   0  0  0  0  0  0  0  0  0  0  0  0
   55.4060   26.3470   46.3430 O   0  0  0  0  0  0  0  0  0  0  0  0
   57.1980   26.6410   44.8720 N   0  0  0  0  0  0  0  0  0  0  0  0
   57.6200   26.2600   43.9940 H   0  0  0  0  0  0  0  0  0  0  0  0
   57.3740   28.0360   45.1550 C   0  0  0  0  0  0  0  0  0  0  0  0
   56.7670   28.9810   44.3160 C   0  0  0  0  0  0  0  0  0  0  0  0
   56.1636   28.6438   43.4603 H   0  0  0  0  0  0  0  0  0  0  0  0
   56.9230   30.3480   44.5590 C   0  0  0  0  0  0  0  0  0  0  0  0
   56.4288   31.0807   43.9041 H   0  0  0  0  0  0  0  0  0  0  0  0
   57.7060   30.7890   45.6330 C   0  0  0  0  0  0  0  0  0  0  0  0
   57.9240   32.5150   45.9210 S   0  0  0  0  0  0  0  0  0  0  0  0
   57.5290   32.8330   47.3370 O   0  0  0  0  0  0  0  0  0  0  0  0
   57.0060   33.2770   45.0080 O   0  0  0  0  0  0  0  0  0  0  0  0
   59.5730   33.0400   45.6490 N   0  0  0  0  0  0  0  0  0  0  0  0
   59.6600   34.4570   45.2540 C   0  0  0  0  0  0  0  0  0  0  0  0
   60.6042   34.6117   44.7113 H   0  0  0  0  0  0  0  0  0  0  0  0
   58.7835   34.6769   44.6269 H   0  0  0  0  0  0  0  0  0  0  0  0
   59.6200   35.4270   46.4590 C   0  0  0  0  0  0  0  0  0  0  0  0
   60.4605   36.1309   46.3687 H   0  0  0  0  0  0  0  0  0  0  0  0
   58.6466   35.9386   46.4335 H   0  0  0  0  0  0  0  0  0  0  0  0
   59.7160   34.7710   47.7080 O   0  0  0  0  0  0  0  0  0  0  0  0
   60.7940   33.8650   47.6850 C   0  0  0  0  0  0  0  0  0  0  0  0
   61.6936   34.3820   47.3196 H   0  0  0  0  0  0  0  0  0  0  0  0
   60.9619   33.4860   48.7039 H   0  0  0  0  0  0  0  0  0  0  0  0
   60.4810   32.6790   46.7590 C   0  0  0  0  0  0  0  0  0  0  0  0
   61.4248   32.3071   46.3337 H   0  0  0  0  0  0  0  0  0  0  0  0
   59.9746   31.9124   47.3639 H   0  0  0  0  0  0  0  0  0  0  0  0
   58.3280   29.8490   46.4650 C   0  0  0  0  0  0  0  0  0  0  0  0
   58.9390   30.1917   47.3130 H   0  0  0  0  0  0  0  0  0  0  0  0
   58.1790   28.4780   46.2270 C   0  0  0  0  0  0  0  0  0  0  0  0
   59.0820   27.3510   47.2320 Cl  0  0  0  0  0  0  0  0  0  0  0  0
   56.0360   23.9320   44.0690 N   0  0  0  0  0  0  0  0  0  0  0  0
  1  2  1  0
  2  3  2  0
  3  4  1  0
  4  5  2  0
  5  6  1  0
  6  7  1  0
  6  8  2  0
  8  9  1  0
  8 10  1  0
 10 11  1  0
 10 12  2  0
 12 13  1  0
 12 14  1  0
 14 15  2  0
 15 16  1  0
 16 17  2  0
 16 18  1  0
 18 19  1  0
 18 20  1  0
 20 21  2  0
 21 22  1  0
 21 23  1  0
 23 24  1  0
 23 25  2  0
 25 26  1  0
 26 27  2  0
 26 28  2  0
 26 29  1  0
 29 30  1  0
 30 31  1  0
 30 32  1  0
 30 33  1  0
 33 34  1  0
 33 35  1  0
 33 36  1  0
 36 37  1  0
 37 38  1  0
 37 39  1  0
 37 40  1  0
 40 41  1  0
 40 42  1  0
 25 43  1  0
 43 44  1  0
 43 45  2  0
 45 46  1  0
 15 47  1  0
 47  3  1  0
 14  5  1  0
 45 20  1  0
 40 29  1  0
M  CHG  1  47  -1
M  END
>  <UniqueID>  (25) 
20

>  <SMILES>  (25) 
[H]/N=c1\nc2ccccc2c(C(=O)Nc2ccc(S(=O)(=O)N3CCOCC3)cc2Cl)[n-]1

>  <Energy>  (25) 
76.1904772191487

>  <Genealogy>  (25) 
N=c1nc2ccccc2c(C(=O)Nc2ccc(S(=O)(=O)N3CCOCC3)cc2Cl)[n-]1 (protonated)
[H]/N=c1\nc2ccccc2c(C(=O)Nc2ccc(S(=O)(=O)N3CCOCC3)cc2Cl)[n-]1 (cis-trans isomerization)
[H]/N=c1\nc2ccccc2c(C(=O)Nc2ccc(S(=O)(=O)N3CCOCC3)cc2Cl)[n-]1 (3D coordinates assigned)
[H]/N=c1\nc2ccccc2c(C(=O)Nc2ccc(S(=O)(=O)N3CCOCC3)cc2Cl)[n-]1 (nonaromatic ring conformer: 76.1904772191487 kcal/mol)

>  <smiles>  (25) 
N=c1nc2ccccc2c(C(=O)Nc2ccc(S(=O)(=O)N3CCOCC3)cc2Cl)[nH]1

>  <score_type>  (25) 
oracle

>  <origin>  (25) 
adg

>  <m_score__min__energy>  (25) 
-11.09

>  <m_primary>  (25) 
energy

$$$$
25:0
     RDKit          3D

 36 37  0  0  0  0  0  0  0  0999 V2000
   55.5370   26.7860   45.9600 N   0  0  0  0  0  0  0  0  0  0  0  0
   56.5990   28.0410   45.4270 S   0  0  0  0  0  0  0  0  0  0  0  0
   57.5440   27.4840   44.4000 O   0  0  0  0  0  0  0  0  0  0  0  0
   57.3850   28.5500   46.6030 O   0  0  0  0  0  0  0  0  0  0  0  0
   55.6570   29.3210   44.7200 N   0  0  0  0  0  0  0  0  0  0  0  0
   56.3430   29.9000   43.5650 C   0  0  0  0  0  0  0  0  0  0  0  0
   57.0790   31.1360   43.9780 C   0  0  0  0  0  0  0  0  0  0  0  0
   57.3470   32.0180   43.1170 O   0  0  0  0  0  0  0  0  0  0  0  0
   57.4910   31.3060   45.3410 N   0  0  0  0  0  0  0  0  0  0  0  0
   58.4110   32.3330   45.7410 C   0  0  0  0  0  0  0  0  0  0  0  0
   58.3580   33.5780   45.1000 C   0  0  0  0  0  0  0  0  0  0  0  0
   59.2700   34.5830   45.4310 C   0  0  0  0  0  0  0  0  0  0  0  0
   60.2340   34.3560   46.4150 C   0  0  0  0  0  0  0  0  0  0  0  0
   60.2790   33.1300   47.0820 C   0  0  0  0  0  0  0  0  0  0  0  0
   59.3680   32.1090   46.7600 C   0  0  0  0  0  0  0  0  0  0  0  0
   59.3640   30.8610   47.5570 C   0  0  0  0  0  0  0  0  0  0  0  0
   58.9190   30.9020   48.7380 O   0  0  0  0  0  0  0  0  0  0  0  0
   59.8700   29.5740   47.0150 C   0  0  0  0  0  0  0  0  0  0  0  0
   60.1940   29.4370   45.6520 C   0  0  0  0  0  0  0  0  0  0  0  0
   60.6430   28.2120   45.1510 C   0  0  0  0  0  0  0  0  0  0  0  0
   60.7660   27.1100   45.9990 C   0  0  0  0  0  0  0  0  0  0  0  0
   60.4350   27.2290   47.3500 C   0  0  0  0  0  0  0  0  0  0  0  0
   59.9870   28.4530   47.8580 C   0  0  0  0  0  0  0  0  0  0  0  0
   54.7750   26.7120   45.2500 H   0  0  0  0  0  0  0  0  0  0  0  0
   57.0573   29.1680   43.1601 H   0  0  0  0  0  0  0  0  0  0  0  0
   55.6012   30.1598   42.7954 H   0  0  0  0  0  0  0  0  0  0  0  0
   57.0080   30.7520   46.0840 H   0  0  0  0  0  0  0  0  0  0  0  0
   57.5936   33.7650   44.3315 H   0  0  0  0  0  0  0  0  0  0  0  0
   59.2286   35.5541   44.9159 H   0  0  0  0  0  0  0  0  0  0  0  0
   60.9593   35.1442   46.6653 H   0  0  0  0  0  0  0  0  0  0  0  0
   61.0329   32.9620   47.8652 H   0  0  0  0  0  0  0  0  0  0  0  0
   60.0931   30.2996   44.9769 H   0  0  0  0  0  0  0  0  0  0  0  0
   60.9001   28.1160   44.0858 H   0  0  0  0  0  0  0  0  0  0  0  0
   61.1236   26.1481   45.6028 H   0  0  0  0  0  0  0  0  0  0  0  0
   60.5266   26.3586   48.0163 H   0  0  0  0  0  0  0  0  0  0  0  0
   59.7246   28.5399   48.9227 H   0  0  0  0  0  0  0  0  0  0  0  0
  1  2  1  0
  2  3  2  0
  2  4  2  0
  2  5  1  0
  5  6  1  0
  6  7  1  0
  7  8  2  0
  7  9  1  0
  9 10  1  0
 10 11  2  0
 11 12  1  0
 12 13  2  0
 13 14  1  0
 14 15  2  0
 15 16  1  0
 16 17  2  0
 16 18  1  0
 18 19  2  0
 19 20  1  0
 20 21  2  0
 21 22  1  0
 22 23  2  0
 15 10  1  0
 23 18  1  0
  1 24  1  0
  6 25  1  0
  6 26  1  0
  9 27  1  0
 11 28  1  0
 12 29  1  0
 13 30  1  0
 14 31  1  0
 19 32  1  0
 20 33  1  0
 21 34  1  0
 22 35  1  0
 23 36  1  0
M  CHG  2   1  -1   5  -1
M  END
>  <UniqueID>  (26) 
21

>  <SMILES>  (26) 
[NH-]S(=O)(=O)[N-]CC(=O)Nc1ccccc1C(=O)c1ccccc1

>  <Energy>  (26) 
42.876733766115436

>  <Genealogy>  (26) 
[NH-]S(=O)(=O)[N-]CC(=O)Nc1ccccc1C(=O)c1ccccc1 (protonated)
[NH-]S(=O)(=O)[N-]CC(=O)Nc1ccccc1C(=O)c1ccccc1 (3D coordinates assigned)
[NH-]S(=O)(=O)[N-]CC(=O)Nc1ccccc1C(=O)c1ccccc1 (optimized conformer: 42.876733766115436 kcal/mol)

>  <smiles>  (26) 
NS(=O)(=O)NCC(=O)Nc1ccccc1C(=O)c1ccccc1

>  <score_type>  (26) 
oracle

>  <origin>  (26) 
adg

>  <m_score__min__energy>  (26) 
-12.539999999999999

>  <m_primary>  (26) 
energy

$$$$
26:0
     RDKit          3D

 43 45  0  0  0  0  0  0  0  0999 V2000
   59.7370   27.8460   46.6430 C   0  0  0  0  0  0  0  0  0  0  0  0
   58.4800   27.4570   47.1870 O   0  0  0  0  0  0  0  0  0  0  0  0
   57.7440   26.3340   46.7760 C   0  0  0  0  0  0  0  0  0  0  0  0
   58.1290   25.0250   47.1310 C   0  0  0  0  0  0  0  0  0  0  0  0
   57.3470   23.9300   46.7530 C   0  0  0  0  0  0  0  0  0  0  0  0
   56.1730   24.1260   46.0250 C   0  0  0  0  0  0  0  0  0  0  0  0
   55.7840   25.4160   45.6600 C   0  0  0  0  0  0  0  0  0  0  0  0
   56.5730   26.5230   46.0090 C   0  0  0  0  0  0  0  0  0  0  0  0
   56.1370   27.8370   45.6250 N   0  0  0  0  0  0  0  0  0  0  0  0
   56.9120   28.7100   44.7890 C   0  0  0  0  0  0  0  0  0  0  0  0
   57.8540   28.2470   44.0910 O   0  0  0  0  0  0  0  0  0  0  0  0
   56.5750   30.0960   44.6660 N   0  0  0  0  0  0  0  0  0  0  0  0
   57.3890   31.1940   45.0990 C   0  0  0  0  0  0  0  0  0  0  0  0
   58.1410   31.0590   46.2720 C   0  0  0  0  0  0  0  0  0  0  0  0
   58.9370   32.1150   46.7270 C   0  0  0  0  0  0  0  0  0  0  0  0
   58.9720   33.3260   46.0240 C   0  0  0  0  0  0  0  0  0  0  0  0
   60.0130   34.6320   46.5810 S   0  0  0  0  0  0  0  0  0  0  0  0
   59.7490   34.8810   48.0400 O   0  0  0  0  0  0  0  0  0  0  0  0
   59.7320   35.8990   45.8230 O   0  0  0  0  0  0  0  0  0  0  0  0
   61.6750   34.1840   46.3700 N   0  0  0  0  0  0  0  0  0  0  0  0
   62.3390   33.4570   47.2150 C   0  0  0  0  0  0  0  0  0  0  0  0
   61.9460   32.1840   47.5040 N   0  0  0  0  0  0  0  0  0  0  0  0
   62.6340   31.4220   48.3940 C   0  0  0  0  0  0  0  0  0  0  0  0
   63.7640   31.9420   49.0250 C   0  0  0  0  0  0  0  0  0  0  0  0
   64.1550   33.2440   48.7190 C   0  0  0  0  0  0  0  0  0  0  0  0
   63.4390   33.9750   47.8230 N   0  0  0  0  0  0  0  0  0  0  0  0
   58.1980   33.4750   44.8640 C   0  0  0  0  0  0  0  0  0  0  0  0
   57.4060   32.4180   44.4080 C   0  0  0  0  0  0  0  0  0  0  0  0
   60.4392   28.0633   47.4613 H   0  0  0  0  0  0  0  0  0  0  0  0
   60.1370   27.0296   46.0237 H   0  0  0  0  0  0  0  0  0  0  0  0
   59.6059   28.7456   46.0237 H   0  0  0  0  0  0  0  0  0  0  0  0
   59.0509   24.8645   47.7093 H   0  0  0  0  0  0  0  0  0  0  0  0
   57.6577   22.9118   47.0300 H   0  0  0  0  0  0  0  0  0  0  0  0
   55.5535   23.2634   45.7385 H   0  0  0  0  0  0  0  0  0  0  0  0
   54.8523   25.5660   45.0948 H   0  0  0  0  0  0  0  0  0  0  0  0
   55.1510   28.1100   45.8360 H   0  0  0  0  0  0  0  0  0  0  0  0
   58.1056   30.1171   46.8390 H   0  0  0  0  0  0  0  0  0  0  0  0
   59.5379   31.9941   47.6404 H   0  0  0  0  0  0  0  0  0  0  0  0
   62.3007   30.3976   48.6163 H   0  0  0  0  0  0  0  0  0  0  0  0
   64.3332   31.3384   49.7473 H   0  0  0  0  0  0  0  0  0  0  0  0
   65.0420   33.6802   49.2017 H   0  0  0  0  0  0  0  0  0  0  0  0
   58.2145   34.4262   44.3118 H   0  0  0  0  0  0  0  0  0  0  0  0
   56.7927   32.5444   43.5037 H   0  0  0  0  0  0  0  0  0  0  0  0
  1  2  1  0
  2  3  1  0
  3  4  2  0
  4  5  1  0
  5  6  2  0
  6  7  1  0
  7  8  2  0
  8  9  1  0
  9 10  1  0
 10 11  2  0
 10 12  1  0
 12 13  1  0
 13 14  2  0
 14 15  1  0
 15 16  2  0
 16 17  1  0
 17 18  2  0
 17 19  2  0
 17 20  1  0
 20 21  2  3
 21 22  1  0
 22 23  2  0
 23 24  1  0
 24 25  2  0
 25 26  1  0
 16 27  1  0
 27 28  2  0
  8  3  1  0
 28 13  1  0
 26 21  1  0
  1 29  1  0
  1 30  1  0
  1 31  1  0
  4 32  1  0
  5 33  1  0
  6 34  1  0
  7 35  1  0
  9 36  1  0
 14 37  1  0
 15 38  1  0
 23 39  1  0
 24 40  1  0
 25 41  1  0
 27 42  1  0
 28 43  1  0
M  CHG  2  12  -1  26  -1
M  END
>  <UniqueID>  (27) 
22

>  <SMILES>  (27) 
COc1ccccc1NC(=O)[N-]c1ccc(S(=O)(=O)N=c2nccc[n-]2)cc1

>  <Energy>  (27) 
57.23065258771482

>  <Genealogy>  (27) 
COc1ccccc1NC(=O)[N-]c1ccc(S(=O)(=O)N=c2nccc[n-]2)cc1 (protonated)
COc1ccccc1NC(=O)[N-]c1ccc(S(=O)(=O)N=c2nccc[n-]2)cc1 (3D coordinates assigned)
COc1ccccc1NC(=O)[N-]c1ccc(S(=O)(=O)N=c2nccc[n-]2)cc1 (optimized conformer: 57.23065258771482 kcal/mol)

>  <smiles>  (27) 
COc1ccccc1NC(=O)Nc1ccc(S(=O)(=O)N=c2nccc[nH]2)cc1

>  <score_type>  (27) 
oracle

>  <origin>  (27) 
adg

>  <m_score__min__energy>  (27) 
-11.66

>  <m_primary>  (27) 
energy

$$$$
27:0
     RDKit          3D

 35 36  0  0  0  0  0  0  0  0999 V2000
   64.3410   33.0920   48.5680 C   0  0  0  0  0  0  0  0  0  0  0  0
   62.9390   33.3890   48.1250 C   0  0  0  0  0  0  0  0  0  0  0  0
   61.9070   33.4960   49.0690 C   0  0  0  0  0  0  0  0  0  0  0  0
   60.5940   33.7360   48.6530 C   0  0  0  0  0  0  0  0  0  0  0  0
   60.2870   33.8450   47.2860 C   0  0  0  0  0  0  0  0  0  0  0  0
   58.8680   34.1350   46.8510 C   0  0  0  0  0  0  0  0  0  0  0  0
   58.4430   33.2520   45.7430 N   0  0  0  0  0  0  0  0  0  0  0  0
   58.3000   33.8250   44.5090 C   0  0  0  0  0  0  0  0  0  0  0  0
   57.8930   33.0780   43.4130 C   0  0  0  0  0  0  0  0  0  0  0  0
   57.5860   31.7350   43.5700 C   0  0  0  0  0  0  0  0  0  0  0  0
   57.2180   31.0740   42.5620 O   0  0  0  0  0  0  0  0  0  0  0  0
   57.6890   31.1290   44.8350 C   0  0  0  0  0  0  0  0  0  0  0  0
   57.1990   29.4210   45.0160 S   0  0  0  0  0  0  0  0  0  0  0  0
   55.4810   29.2900   44.8790 N   0  0  0  0  0  0  0  0  0  0  0  0
   57.6170   28.9020   46.3640 O   0  0  0  0  0  0  0  0  0  0  0  0
   57.8580   28.5610   43.9750 O   0  0  0  0  0  0  0  0  0  0  0  0
   58.1900   31.9030   45.9240 C   0  0  0  0  0  0  0  0  0  0  0  0
   58.3840   31.2580   47.2830 C   0  0  0  0  0  0  0  0  0  0  0  0
   61.3250   33.7440   46.3440 C   0  0  0  0  0  0  0  0  0  0  0  0
   62.6380   33.5040   46.7600 C   0  0  0  0  0  0  0  0  0  0  0  0
   64.3841   33.0829   49.6671 H   0  0  0  0  0  0  0  0  0  0  0  0
   64.6474   32.1090   48.1809 H   0  0  0  0  0  0  0  0  0  0  0  0
   65.0197   33.8663   48.1809 H   0  0  0  0  0  0  0  0  0  0  0  0
   62.1316   33.3907   50.1407 H   0  0  0  0  0  0  0  0  0  0  0  0
   59.7949   33.8403   49.4017 H   0  0  0  0  0  0  0  0  0  0  0  0
   58.1945   33.9817   47.7071 H   0  0  0  0  0  0  0  0  0  0  0  0
   58.8245   35.1752   46.4958 H   0  0  0  0  0  0  0  0  0  0  0  0
   58.5115   34.8972   44.3835 H   0  0  0  0  0  0  0  0  0  0  0  0
   57.8141   33.5498   42.4224 H   0  0  0  0  0  0  0  0  0  0  0  0
   55.1550   28.6330   45.6230 H   0  0  0  0  0  0  0  0  0  0  0  0
   58.1633   31.9919   48.0721 H   0  0  0  0  0  0  0  0  0  0  0  0
   57.7046   30.3985   47.3813 H   0  0  0  0  0  0  0  0  0  0  0  0
   59.4248   30.9158   47.3813 H   0  0  0  0  0  0  0  0  0  0  0  0
   61.1029   33.8545   45.2723 H   0  0  0  0  0  0  0  0  0  0  0  0
   63.4392   33.4049   46.0128 H   0  0  0  0  0  0  0  0  0  0  0  0
  1  2  1  0
  2  3  2  0
  3  4  1  0
  4  5  2  0
  5  6  1  0
  6  7  1  0
  7  8  1  0
  8  9  2  0
  9 10  1  0
 10 11  2  0
 10 12  1  0
 12 13  1  0
 13 14  1  0
 13 15  2  0
 13 16  2  0
 12 17  2  0
 17 18  1  0
  5 19  1  0
 19 20  2  0
 20  2  1  0
 17  7  1  0
  1 21  1  0
  1 22  1  0
  1 23  1  0
  3 24  1  0
  4 25  1  0
  6 26  1  0
  6 27  1  0
  8 28  1  0
  9 29  1  0
 14 30  1  0
 18 31  1  0
 18 32  1  0
 18 33  1  0
 19 34  1  0
 20 35  1  0
M  CHG  1  14  -1
M  END
>  <UniqueID>  (28) 
23

>  <SMILES>  (28) 
Cc1ccc(Cn2ccc(=O)c(S([NH-])(=O)=O)c2C)cc1

>  <Energy>  (28) 
44.090011700547755

>  <Genealogy>  (28) 
Cc1ccc(Cn2ccc(=O)c(S([NH-])(=O)=O)c2C)cc1 (protonated)
Cc1ccc(Cn2ccc(=O)c(S([NH-])(=O)=O)c2C)cc1 (3D coordinates assigned)
Cc1ccc(Cn2ccc(=O)c(S([NH-])(=O)=O)c2C)cc1 (optimized conformer: 44.090011700547755 kcal/mol)

>  <smiles>  (28) 
Cc1ccc(Cn2ccc(=O)c(S(N)(=O)=O)c2C)cc1

>  <score_type>  (28) 
oracle

>  <origin>  (28) 
adg

>  <m_score__min__energy>  (28) 
-10.15

>  <m_primary>  (28) 
energy

$$$$
28:0
     RDKit          3D

 44 46  0  0  0  0  0  0  0  0999 V2000
   63.7760   33.0190   47.0890 C   0  0  0  0  0  0  0  0  0  0  0  0
   62.4980   33.4400   47.7420 C   0  0  0  0  0  0  0  0  0  0  0  0
   62.2700   33.1680   49.0970 C   0  0  0  0  0  0  0  0  0  0  0  0
   61.0600   33.5500   49.6760 C   0  0  0  0  0  0  0  0  0  0  0  0
   60.0900   34.1920   48.9040 C   0  0  0  0  0  0  0  0  0  0  0  0
   60.3410   34.4410   47.5500 C   0  0  0  0  0  0  0  0  0  0  0  0
   59.4390   35.0510   46.8370 N   0  0  0  0  0  0  0  0  0  0  0  0
   59.0590   34.7460   45.4840 C   0  0  0  0  0  0  0  0  0  0  0  0
   59.2440   35.5870   44.5630 O   0  0  0  0  0  0  0  0  0  0  0  0
   58.4680   33.4250   45.1660 C   0  0  0  0  0  0  0  0  0  0  0  0
   58.3550   32.4360   46.1600 C   0  0  0  0  0  0  0  0  0  0  0  0
   57.7720   31.2000   45.8680 C   0  0  0  0  0  0  0  0  0  0  0  0
   57.2980   30.9300   44.5770 C   0  0  0  0  0  0  0  0  0  0  0  0
   56.5390   29.3880   44.1990 S   0  0  0  0  0  0  0  0  0  0  0  0
   55.1170   29.6120   43.7670 O   0  0  0  0  0  0  0  0  0  0  0  0
   57.2900   28.7140   43.0840 O   0  0  0  0  0  0  0  0  0  0  0  0
   56.5760   28.3870   45.6130 N   0  0  0  0  0  0  0  0  0  0  0  0
   57.3200   27.1660   45.6780 C   0  0  0  0  0  0  0  0  0  0  0  0
   56.6200   25.9560   45.5980 C   0  0  0  0  0  0  0  0  0  0  0  0
   57.2980   24.7380   45.6870 C   0  0  0  0  0  0  0  0  0  0  0  0
   58.6840   24.7210   45.8470 C   0  0  0  0  0  0  0  0  0  0  0  0
   59.3990   25.9200   45.8980 C   0  0  0  0  0  0  0  0  0  0  0  0
   58.7320   27.1530   45.7880 C   0  0  0  0  0  0  0  0  0  0  0  0
   59.5370   28.4230   45.7920 C   0  0  0  0  0  0  0  0  0  0  0  0
   57.4160   31.9060   43.5810 C   0  0  0  0  0  0  0  0  0  0  0  0
   57.9960   33.1450   43.8710 C   0  0  0  0  0  0  0  0  0  0  0  0
   61.5330   34.0580   47.0080 N   0  0  0  0  0  0  0  0  0  0  0  0
   64.5194   32.7741   47.8619 H   0  0  0  0  0  0  0  0  0  0  0  0
   63.5933   32.1336   46.4624 H   0  0  0  0  0  0  0  0  0  0  0  0
   64.1553   33.8397   46.4624 H   0  0  0  0  0  0  0  0  0  0  0  0
   63.0373   32.6584   49.6982 H   0  0  0  0  0  0  0  0  0  0  0  0
   60.8701   33.3456   50.7400 H   0  0  0  0  0  0  0  0  0  0  0  0
   59.1358   34.4997   49.3565 H   0  0  0  0  0  0  0  0  0  0  0  0
   58.7284   32.6371   47.1749 H   0  0  0  0  0  0  0  0  0  0  0  0
   57.6848   30.4360   46.6545 H   0  0  0  0  0  0  0  0  0  0  0  0
   55.5282   25.9646   45.4641 H   0  0  0  0  0  0  0  0  0  0  0  0
   56.7392   23.7922   45.6309 H   0  0  0  0  0  0  0  0  0  0  0  0
   59.2148   23.7614   45.9332 H   0  0  0  0  0  0  0  0  0  0  0  0
   60.4914   25.8995   46.0251 H   0  0  0  0  0  0  0  0  0  0  0  0
   59.7318   28.7304   46.8301 H   0  0  0  0  0  0  0  0  0  0  0  0
   60.4926   28.2530   45.2744 H   0  0  0  0  0  0  0  0  0  0  0  0
   58.9754   29.2147   45.2744 H   0  0  0  0  0  0  0  0  0  0  0  0
   57.0506   31.6975   42.5646 H   0  0  0  0  0  0  0  0  0  0  0  0
   58.0836   33.9056   43.0812 H   0  0  0  0  0  0  0  0  0  0  0  0
  1  2  1  0
  2  3  2  0
  3  4  1  0
  4  5  2  0
  5  6  1  0
  6  7  2  3
  7  8  1  0
  8  9  2  0
  8 10  1  0
 10 11  2  0
 11 12  1  0
 12 13  2  0
 13 14  1  0
 14 15  2  0
 14 16  2  0
 14 17  1  0
 17 18  1  0
 18 19  2  0
 19 20  1  0
 20 21  2  0
 21 22  1  0
 22 23  2  0
 23 24  1  0
 13 25  1  0
 25 26  2  0
  6 27  1  0
 27  2  1  0
 26 10  1  0
 23 18  1  0
  1 28  1  0
  1 29  1  0
  1 30  1  0
  3 31  1  0
  4 32  1  0
  5 33  1  0
 11 34  1  0
 12 35  1  0
 19 36  1  0
 20 37  1  0
 21 38  1  0
 22 39  1  0
 24 40  1  0
 24 41  1  0
 24 42  1  0
 25 43  1  0
 26 44  1  0
M  CHG  2  17  -1  27  -1
M  END
>  <UniqueID>  (29) 
24

>  <SMILES>  (29) 
Cc1cccc(=NC(=O)c2ccc(S(=O)(=O)[N-]c3ccccc3C)cc2)[n-]1

>  <Energy>  (29) 
59.906025916433464

>  <Genealogy>  (29) 
Cc1cccc(=NC(=O)c2ccc(S(=O)(=O)[N-]c3ccccc3C)cc2)[n-]1 (protonated)
Cc1cccc(=NC(=O)c2ccc(S(=O)(=O)[N-]c3ccccc3C)cc2)[n-]1 (3D coordinates assigned)
Cc1cccc(=NC(=O)c2ccc(S(=O)(=O)[N-]c3ccccc3C)cc2)[n-]1 (optimized conformer: 59.906025916433464 kcal/mol)

>  <smiles>  (29) 
Cc1cccc(=NC(=O)c2ccc(S(=O)(=O)Nc3ccccc3C)cc2)[nH]1

>  <score_type>  (29) 
oracle

>  <origin>  (29) 
adg

>  <m_score__min__energy>  (29) 
-11.539999999999999

>  <m_primary>  (29) 
energy

$$$$
29:0
     RDKit          3D

 47 49  0  0  0  0  0  0  0  0999 V2000
   53.9960   26.4080   46.3720 H   0  0  0  0  0  0  0  0  0  0  0  0
   54.9220   26.1070   45.9900 N   0  0  0  0  0  0  0  0  0  0  0  0
   55.9550   26.8880   45.9780 C   0  0  0  0  0  0  0  0  0  0  0  0
   55.8990   28.0580   45.2880 N   0  0  0  0  0  0  0  0  0  0  0  0
   56.9480   28.9230   45.2380 C   0  0  0  0  0  0  0  0  0  0  0  0
   56.7690   30.3990   44.2980 Cl  0  0  0  0  0  0  0  0  0  0  0  0
   58.1420   28.6190   45.9220 C   0  0  0  0  0  0  0  0  0  0  0  0
   59.3410   29.5350   45.8700 C   0  0  0  0  0  0  0  0  0  0  0  0
   60.2362   28.9418   45.6318 H   0  0  0  0  0  0  0  0  0  0  0  0
   59.1650   30.2971   45.0965 H   0  0  0  0  0  0  0  0  0  0  0  0
   59.5490   30.2310   47.1880 C   0  0  0  0  0  0  0  0  0  0  0  0
   60.3450   29.7430   48.1610 N   0  0  0  0  0  0  0  0  0  0  0  0
   60.3260   30.6160   49.1560 N   0  0  0  0  0  0  0  0  0  0  0  0
   59.5000   31.6130   48.7880 C   0  0  0  0  0  0  0  0  0  0  0  0
   59.2550   33.0920   49.7800 S   0  0  0  0  0  0  0  0  0  0  0  0
   59.9720   34.2470   48.5590 C   0  0  0  0  0  0  0  0  0  0  0  0
   59.3592   34.2326   47.6456 H   0  0  0  0  0  0  0  0  0  0  0  0
   59.9858   35.2571   48.9944 H   0  0  0  0  0  0  0  0  0  0  0  0
   61.3810   33.8510   48.2140 C   0  0  0  0  0  0  0  0  0  0  0  0
   61.8150   33.8490   46.8780 C   0  0  0  0  0  0  0  0  0  0  0  0
   61.1162   34.1256   46.0747 H   0  0  0  0  0  0  0  0  0  0  0  0
   63.1310   33.4970   46.5650 C   0  0  0  0  0  0  0  0  0  0  0  0
   63.4656   33.4979   45.5171 H   0  0  0  0  0  0  0  0  0  0  0  0
   64.0220   33.1440   47.5820 C   0  0  0  0  0  0  0  0  0  0  0  0
   65.0574   32.8674   47.3339 H   0  0  0  0  0  0  0  0  0  0  0  0
   63.5990   33.1420   48.9140 C   0  0  0  0  0  0  0  0  0  0  0  0
   64.3009   32.8620   49.7134 H   0  0  0  0  0  0  0  0  0  0  0  0
   62.2830   33.4960   49.2310 C   0  0  0  0  0  0  0  0  0  0  0  0
   61.9533   33.4964   50.2804 H   0  0  0  0  0  0  0  0  0  0  0  0
   58.9790   31.4000   47.5590 N   0  0  0  0  0  0  0  0  0  0  0  0
   58.1390   32.3040   46.7610 C   0  0  0  0  0  0  0  0  0  0  0  0
   57.2354   31.7615   46.4460 H   0  0  0  0  0  0  0  0  0  0  0  0
   57.8879   33.1720   47.3884 H   0  0  0  0  0  0  0  0  0  0  0  0
   58.8670   32.8230   45.5080 C   0  0  0  0  0  0  0  0  0  0  0  0
   59.9296   32.9603   45.7573 H   0  0  0  0  0  0  0  0  0  0  0  0
   58.7109   32.0752   44.7165 H   0  0  0  0  0  0  0  0  0  0  0  0
   58.3200   34.1550   44.9750 C   0  0  0  0  0  0  0  0  0  0  0  0
   58.1454   34.0563   43.8934 H   0  0  0  0  0  0  0  0  0  0  0  0
   57.3891   34.3736   45.5188 H   0  0  0  0  0  0  0  0  0  0  0  0
   59.2770   35.3210   45.2110 C   0  0  0  0  0  0  0  0  0  0  0  0
   59.4051   35.4771   46.2923 H   0  0  0  0  0  0  0  0  0  0  0  0
   60.2519   35.0932   44.7554 H   0  0  0  0  0  0  0  0  0  0  0  0
   58.8634   36.2328   44.7554 H   0  0  0  0  0  0  0  0  0  0  0  0
   58.2200   27.4090   46.6270 C   0  0  0  0  0  0  0  0  0  0  0  0
   59.1474   27.1417   47.1548 H   0  0  0  0  0  0  0  0  0  0  0  0
   57.1270   26.5430   46.6620 C   0  0  0  0  0  0  0  0  0  0  0  0
   57.1853   25.5979   47.2217 H   0  0  0  0  0  0  0  0  0  0  0  0
  1  2  1  0
  2  3  2  0
  3  4  1  0
  4  5  1  0
  5  6  1  0
  5  7  2  0
  7  8  1  0
  8  9  1  0
  8 10  1  0
  8 11  1  0
 11 12  2  0
 12 13  1  0
 13 14  2  0
 14 15  1  0
 15 16  1  0
 16 17  1  0
 16 18  1  0
 16 19  1  0
 19 20  2  0
 20 21  1  0
 20 22  1  0
 22 23  1  0
 22 24  2  0
 24 25  1  0
 24 26  1  0
 26 27  1  0
 26 28  2  0
 28 29  1  0
 14 30  1  0
 30 31  1  0
 31 32  1  0
 31 33  1  0
 31 34  1  0
 34 35  1  0
 34 36  1  0
 34 37  1  0
 37 38  1  0
 37 39  1  0
 37 40  1  0
 40 41  1  0
 40 42  1  0
 40 43  1  0
  7 44  1  0
 44 45  1  0
 44 46  2  0
 46 47  1  0
 46  3  1  0
 30 11  1  0
 28 19  1  0
M  CHG  1   4  -1
M  END
>  <UniqueID>  (30) 
25

>  <SMILES>  (30) 
[H]/N=c1\ccc(Cc2nnc(SCc3ccccc3)n2CCCC)c(Cl)[n-]1

>  <Energy>  (30) 
74.75895047117292

>  <Genealogy>  (30) 
CCCCn1c(Cc2ccc(=N)[n-]c2Cl)nnc1SCc1ccccc1 (protonated)
[H]/N=c1\ccc(Cc2nnc(SCc3ccccc3)n2CCCC)c(Cl)[n-]1 (cis-trans isomerization)
[H]/N=c1\ccc(Cc2nnc(SCc3ccccc3)n2CCCC)c(Cl)[n-]1 (3D coordinates assigned)
[H]/N=c1\ccc(Cc2nnc(SCc3ccccc3)n2CCCC)c(Cl)[n-]1 (optimized conformer: 74.75895047117292 kcal/mol)

>  <smiles>  (30) 
CCCCn1c(Cc2ccc(=N)[nH]c2Cl)nnc1SCc1ccccc1

>  <score_type>  (30) 
oracle

>  <origin>  (30) 
adg

>  <m_score__min__energy>  (30) 
-10.77

>  <m_primary>  (30) 
energy

$$$$
30:0
     RDKit          3D

 46 48  0  0  0  0  0  0  0  0999 V2000
   61.0720   33.4440   47.2330 C   0  0  0  0  0  0  0  0  0  0  0  0
   59.7800   33.5830   47.9640 C   0  0  0  0  0  0  0  0  0  0  0  0
   59.6260   34.5380   48.7730 O   0  0  0  0  0  0  0  0  0  0  0  0
   58.7240   32.7170   47.6580 O   0  0  0  0  0  0  0  0  0  0  0  0
   58.3180   32.3640   46.3620 C   0  0  0  0  0  0  0  0  0  0  0  0
   58.1060   31.0250   45.9830 C   0  0  0  0  0  0  0  0  0  0  0  0
   57.6900   30.7110   44.6790 C   0  0  0  0  0  0  0  0  0  0  0  0
   57.4510   29.2780   44.2730 C   0  0  0  0  0  0  0  0  0  0  0  0
   56.6130   28.5930   45.2600 N   0  0  0  0  0  0  0  0  0  0  0  0
   56.6830   27.3430   45.6230 C   0  0  0  0  0  0  0  0  0  0  0  0
   57.9030   26.7110   45.9390 C   0  0  0  0  0  0  0  0  0  0  0  0
   57.9030   25.3700   46.3250 C   0  0  0  0  0  0  0  0  0  0  0  0
   56.7010   24.6570   46.3840 C   0  0  0  0  0  0  0  0  0  0  0  0
   56.6850   23.2390   46.7990 C   0  0  0  0  0  0  0  0  0  0  0  0
   56.4640   22.9450   48.1550 C   0  0  0  0  0  0  0  0  0  0  0  0
   56.4710   21.6230   48.6030 C   0  0  0  0  0  0  0  0  0  0  0  0
   56.6960   20.5810   47.7040 C   0  0  0  0  0  0  0  0  0  0  0  0
   56.9040   20.8570   46.3510 C   0  0  0  0  0  0  0  0  0  0  0  0
   56.8900   22.1800   45.8800 C   0  0  0  0  0  0  0  0  0  0  0  0
   57.1000   22.4650   44.1430 S   0  0  0  0  0  0  0  0  0  0  0  0
   58.0580   21.2010   43.4570 N   0  0  0  0  0  0  0  0  0  0  0  0
   55.7570   22.4910   43.4660 O   0  0  0  0  0  0  0  0  0  0  0  0
   57.7700   23.7900   43.9130 O   0  0  0  0  0  0  0  0  0  0  0  0
   55.5080   25.3190   46.0730 C   0  0  0  0  0  0  0  0  0  0  0  0
   55.5300   26.6260   45.7000 N   0  0  0  0  0  0  0  0  0  0  0  0
   57.5220   31.7420   43.7430 C   0  0  0  0  0  0  0  0  0  0  0  0
   57.7580   33.0700   44.1070 C   0  0  0  0  0  0  0  0  0  0  0  0
   58.1570   33.3790   45.4100 C   0  0  0  0  0  0  0  0  0  0  0  0
   58.3800   34.6720   45.7520 F   0  0  0  0  0  0  0  0  0  0  0  0
   61.8953   33.3554   47.9571 H   0  0  0  0  0  0  0  0  0  0  0  0
   61.0409   32.5440   46.6013 H   0  0  0  0  0  0  0  0  0  0  0  0
   61.2330   34.3300   46.6013 H   0  0  0  0  0  0  0  0  0  0  0  0
   58.2674   30.2187   46.7136 H   0  0  0  0  0  0  0  0  0  0  0  0
   56.9466   29.2589   43.2957 H   0  0  0  0  0  0  0  0  0  0  0  0
   58.4202   28.7613   44.2125 H   0  0  0  0  0  0  0  0  0  0  0  0
   58.8481   27.2710   45.8817 H   0  0  0  0  0  0  0  0  0  0  0  0
   58.8497   24.8729   46.5833 H   0  0  0  0  0  0  0  0  0  0  0  0
   56.2842   23.7625   48.8687 H   0  0  0  0  0  0  0  0  0  0  0  0
   56.2988   21.4028   49.6669 H   0  0  0  0  0  0  0  0  0  0  0  0
   56.7097   19.5406   48.0610 H   0  0  0  0  0  0  0  0  0  0  0  0
   57.0805   20.0302   45.6473 H   0  0  0  0  0  0  0  0  0  0  0  0
   58.8100   20.9790   44.1470 H   0  0  0  0  0  0  0  0  0  0  0  0
   57.4470   20.3550   43.3920 H   0  0  0  0  0  0  0  0  0  0  0  0
   54.5505   24.7807   46.1305 H   0  0  0  0  0  0  0  0  0  0  0  0
   57.2029   31.5038   42.7176 H   0  0  0  0  0  0  0  0  0  0  0  0
   57.6295   33.8735   43.3668 H   0  0  0  0  0  0  0  0  0  0  0  0
  1  2  1  0
  2  3  2  0
  2  4  1  0
  4  5  1  0
  5  6  2  0
  6  7  1  0
  7  8  1  0
  8  9  1  0
  9 10  2  3
 10 11  1  0
 11 12  2  0
 12 13  1  0
 13 14  1  0
 14 15  2  0
 15 16  1  0
 16 17  2  0
 17 18  1  0
 18 19  2  0
 19 20  1  0
 20 21  1  0
 20 22  2  0
 20 23  2  0
 13 24  2  0
 24 25  1  0
  7 26  2  0
 26 27  1  0
 27 28  2  0
 28 29  1  0
 28  5  1  0
 25 10  1  0
 19 14  1  0
  1 30  1  0
  1 31  1  0
  1 32  1  0
  6 33  1  0
  8 34  1  0
  8 35  1  0
 11 36  1  0
 12 37  1  0
 15 38  1  0
 16 39  1  0
 17 40  1  0
 18 41  1  0
 21 42  1  0
 21 43  1  0
 24 44  1  0
 26 45  1  0
 27 46  1  0
M  CHG  1  25  -1
M  END
>  <UniqueID>  (31) 
26

>  <SMILES>  (31) 
CC(=O)Oc1cc(CN=c2ccc(-c3ccccc3S(N)(=O)=O)c[n-]2)ccc1F

>  <Energy>  (31) 
60.4274386275627

>  <Genealogy>  (31) 
CC(=O)Oc1cc(CN=c2ccc(-c3ccccc3S(N)(=O)=O)c[n-]2)ccc1F (protonated)
CC(=O)Oc1cc(CN=c2ccc(-c3ccccc3S(N)(=O)=O)c[n-]2)ccc1F (3D coordinates assigned)
CC(=O)Oc1cc(CN=c2ccc(-c3ccccc3S(N)(=O)=O)c[n-]2)ccc1F (optimized conformer: 60.4274386275627 kcal/mol)

>  <smiles>  (31) 
CC(=O)Oc1cc(CN=c2ccc(-c3ccccc3S(N)(=O)=O)c[nH]2)ccc1F

>  <score_type>  (31) 
oracle

>  <origin>  (31) 
adg

>  <m_score__min__energy>  (31) 
-10.02

>  <m_primary>  (31) 
energy

$$$$
31:0
     RDKit          3D

 38 40  0  0  0  0  0  0  0  0999 V2000
   58.8104   30.4895   48.6318 H   0  0  0  0  0  0  0  0  0  0  0  0
   59.1210   29.4450   48.4820 C   0  0  0  0  0  0  0  0  0  0  0  0
   58.2860   28.5710   47.8590 N   0  0  0  0  0  0  0  0  0  0  0  0
   58.6230   27.2700   47.6410 C   0  0  0  0  0  0  0  0  0  0  0  0
   57.7530   26.5030   47.0440 N   0  0  0  0  0  0  0  0  0  0  0  0
   56.8430   26.8330   45.9810 C   0  0  0  0  0  0  0  0  0  0  0  0
   55.6100   26.5920   46.0790 O   0  0  0  0  0  0  0  0  0  0  0  0
   57.3820   27.4210   44.7170 C   0  0  0  0  0  0  0  0  0  0  0  0
   56.8377   27.0021   43.8578 H   0  0  0  0  0  0  0  0  0  0  0  0
   58.4517   27.1795   44.6303 H   0  0  0  0  0  0  0  0  0  0  0  0
   57.2100   28.9070   44.7380 C   0  0  0  0  0  0  0  0  0  0  0  0
   58.4430   30.0220   45.0000 S   0  0  0  0  0  0  0  0  0  0  0  0
   57.3860   31.3410   44.9670 C   0  0  0  0  0  0  0  0  0  0  0  0
   57.7060   32.5870   45.1580 N   0  0  0  0  0  0  0  0  0  0  0  0
   58.5650   33.1010   46.1880 C   0  0  0  0  0  0  0  0  0  0  0  0
   59.6630   33.8870   45.8240 C   0  0  0  0  0  0  0  0  0  0  0  0
   59.8367   34.1252   44.7642 H   0  0  0  0  0  0  0  0  0  0  0  0
   60.5410   34.3720   46.7970 C   0  0  0  0  0  0  0  0  0  0  0  0
   61.3890   35.0063   46.4993 H   0  0  0  0  0  0  0  0  0  0  0  0
   60.3500   34.0570   48.1480 C   0  0  0  0  0  0  0  0  0  0  0  0
   61.2580   34.5700   49.0860 O   0  0  0  0  0  0  0  0  0  0  0  0
   62.6250   34.1800   49.1780 C   0  0  0  0  0  0  0  0  0  0  0  0
   62.9124   34.0980   50.2366 H   0  0  0  0  0  0  0  0  0  0  0  0
   62.7627   33.2067   48.6842 H   0  0  0  0  0  0  0  0  0  0  0  0
   63.2555   34.9341   48.6842 H   0  0  0  0  0  0  0  0  0  0  0  0
   59.2650   33.2380   48.5130 C   0  0  0  0  0  0  0  0  0  0  0  0
   59.1075   32.9769   49.5699 H   0  0  0  0  0  0  0  0  0  0  0  0
   58.3870   32.7550   47.5390 C   0  0  0  0  0  0  0  0  0  0  0  0
   57.5523   32.1007   47.8309 H   0  0  0  0  0  0  0  0  0  0  0  0
   56.1050   30.9510   44.7930 N   0  0  0  0  0  0  0  0  0  0  0  0
   56.0060   29.6020   44.6670 C   0  0  0  0  0  0  0  0  0  0  0  0
   54.7800   28.9740   44.4930 O   0  0  0  0  0  0  0  0  0  0  0  0
   59.8740   26.8040   48.1010 C   0  0  0  0  0  0  0  0  0  0  0  0
   60.1612   25.7521   47.9557 H   0  0  0  0  0  0  0  0  0  0  0  0
   60.7440   27.6890   48.7420 C   0  0  0  0  0  0  0  0  0  0  0  0
   61.7236   27.3370   49.0975 H   0  0  0  0  0  0  0  0  0  0  0  0
   60.3700   29.0190   48.9310 C   0  0  0  0  0  0  0  0  0  0  0  0
   61.0525   29.7237   49.4285 H   0  0  0  0  0  0  0  0  0  0  0  0
  1  2  1  0
  2  3  1  0
  3  4  1  0
  4  5  2  0
  5  6  1  0
  6  7  2  0
  6  8  1  0
  8  9  1  0
  8 10  1  0
  8 11  1  0
 11 12  1  0
 12 13  1  0
 13 14  2  0
 14 15  1  0
 15 16  2  0
 16 17  1  0
 16 18  1  0
 18 19  1  0
 18 20  2  0
 20 21  1  0
 21 22  1  0
 22 23  1  0
 22 24  1  0
 22 25  1  0
 20 26  1  0
 26 27  1  0
 26 28  2  0
 28 29  1  0
 13 30  1  0
 30 31  1  0
 31 32  1  0
  4 33  1  0
 33 34  1  0
 33 35  2  0
 35 36  1  0
 35 37  1  0
 37 38  1  0
 37  2  2  0
 31 11  2  0
 28 15  1  0
M  CHG  3   3  -1  30  -1  32  -1
M  END
>  <UniqueID>  (32) 
27

>  <SMILES>  (32) 
COc1ccc(/N=c2/[n-]c([O-])c(CC(=O)/N=c3\cccc[n-]3)s2)cc1

>  <Energy>  (32) 
83.29667800151088

>  <Genealogy>  (32) 
COc1ccc(N=c2[n-]c([O-])c(CC(=O)N=c3cccc[n-]3)s2)cc1 (protonated)
COc1ccc(/N=c2/[n-]c([O-])c(CC(=O)/N=c3\cccc[n-]3)s2)cc1 (cis-trans isomerization)
COc1ccc(/N=c2/[n-]c([O-])c(CC(=O)/N=c3\cccc[n-]3)s2)cc1 (3D coordinates assigned)
COc1ccc(/N=c2/[n-]c([O-])c(CC(=O)/N=c3\cccc[n-]3)s2)cc1 (optimized conformer: 83.29667800151088 kcal/mol)

>  <smiles>  (32) 
COc1ccc(N=c2[nH]c(O)c(CC(=O)N=c3cccc[nH]3)s2)cc1

>  <score_type>  (32) 
oracle

>  <origin>  (32) 
adg

>  <m_score__min__energy>  (32) 
-14.5

>  <m_primary>  (32) 
energy

$$$$
32:0
     RDKit          3D

 47 50  0  0  1  0  0  0  0  0999 V2000
   58.4390   29.0020   47.0840 C   0  0  0  0  0  0  0  0  0  0  0  0
   57.8800   29.7160   45.9200 C   0  0  0  0  0  0  0  0  0  0  0  0
   56.9360   29.1690   45.0660 C   0  0  0  0  0  0  0  0  0  0  0  0
   56.4310   29.8390   43.9980 C   0  0  0  0  0  0  0  0  0  0  0  0
   56.8400   31.1260   43.7000 C   0  0  0  0  0  0  0  0  0  0  0  0
   57.7810   31.7020   44.5320 C   0  0  0  0  0  0  0  0  0  0  0  0
   58.2490   33.0880   44.2470 C   0  0  0  0  0  0  0  0  0  0  0  0
   58.2920   31.0030   45.6270 C   0  0  0  0  0  0  0  0  0  0  0  0
   59.2820   31.6880   46.4490 C   0  0  0  0  0  0  0  0  0  0  0  0
   60.5840   31.1920   46.3900 C   0  0  0  0  0  0  0  0  0  0  0  0
   61.5640   31.8090   47.1550 C   0  0  0  0  0  0  0  0  0  0  0  0
   62.8720   31.3460   47.1240 C   0  0  0  0  0  0  0  0  0  0  0  0
   63.7690   31.9780   47.8790 N   0  0  0  0  0  0  0  0  0  0  0  0
   63.4490   33.0370   48.6580 C   0  0  0  0  0  0  0  0  0  0  0  0
   64.3920   33.5630   49.3380 N   0  0  0  0  0  0  0  0  0  0  0  0
   65.2990   32.7420   50.0640 C   0  0  0  0  0  0  0  0  0  0  0  0
   66.6380   33.0740   50.1410 C   0  0  0  0  0  0  0  0  0  0  0  0
   67.5200   32.2720   50.8500 C   0  0  0  0  0  0  0  0  0  0  0  0
   67.1070   31.1220   51.5020 C   0  0  0  0  0  0  0  0  0  0  0  0
   65.7560   30.8050   51.4120 C   0  0  0  0  0  0  0  0  0  0  0  0
   64.8770   31.5970   50.7110 C   0  0  0  0  0  0  0  0  0  0  0  0
   62.1940   33.5020   48.7040 N   0  0  0  0  0  0  0  0  0  0  0  0
   61.2400   32.8930   47.9530 C   0  0  0  0  0  0  0  0  0  0  0  0
   59.9690   33.3310   47.9740 N   0  0  0  0  0  0  0  0  0  0  0  0
   59.6290   34.4690   48.8110 C   0  0  0  0  0  0  0  0  0  0  0  0
   59.0000   32.7600   47.2490 C   0  0  0  0  0  0  0  0  0  0  0  0
   57.8320   33.2000   47.2980 O   0  0  0  0  0  0  0  0  0  0  0  0
   58.0736   29.4688   48.0106 H   0  0  0  0  0  0  0  0  0  0  0  0
   58.1229   27.9488   47.0546 H   0  0  0  0  0  0  0  0  0  0  0  0
   59.5373   29.0561   47.0546 H   0  0  0  0  0  0  0  0  0  0  0  0
   56.5798   28.1468   45.2617 H   0  0  0  0  0  0  0  0  0  0  0  0
   55.6826   29.3487   43.3580 H   0  0  0  0  0  0  0  0  0  0  0  0
   56.4324   31.6696   42.8349 H   0  0  0  0  0  0  0  0  0  0  0  0
   58.4276   33.6169   45.1948 H   0  0  0  0  0  0  0  0  0  0  0  0
   59.1834   33.0477   43.6679 H   0  0  0  0  0  0  0  0  0  0  0  0
   57.4815   33.6224   43.6679 H   0  0  0  0  0  0  0  0  0  0  0  0
   60.8289   30.3307   45.7512 H   0  0  0  0  0  0  0  0  0  0  0  0
   63.1577   30.4877   46.4982 H   0  0  0  0  0  0  0  0  0  0  0  0
   64.7610   31.6230   47.8520 H   0  0  0  0  0  0  0  0  0  0  0  0
   67.0067   33.9796   49.6371 H   0  0  0  0  0  0  0  0  0  0  0  0
   68.5811   32.5584   50.8959 H   0  0  0  0  0  0  0  0  0  0  0  0
   67.8122   30.4911   52.0629 H   0  0  0  0  0  0  0  0  0  0  0  0
   65.3818   29.9000   51.9130 H   0  0  0  0  0  0  0  0  0  0  0  0
   63.8154   31.3126   50.6646 H   0  0  0  0  0  0  0  0  0  0  0  0
   59.7142   34.1838   49.8700 H   0  0  0  0  0  0  0  0  0  0  0  0
   60.3182   35.2995   48.5984 H   0  0  0  0  0  0  0  0  0  0  0  0
   58.5971   34.7853   48.5984 H   0  0  0  0  0  0  0  0  0  0  0  0
  1  2  1  0
  2  3  2  0
  3  4  1  0
  4  5  2  0
  5  6  1  0
  6  7  1  0
  6  8  2  0
  8  9  1  0
  9 10  2  0
 10 11  1  0
 11 12  2  0
 12 13  1  0
 13 14  1  0
 14 15  2  0
 15 16  1  0
 16 17  2  0
 17 18  1  0
 18 19  2  0
 19 20  1  0
 20 21  2  0
 14 22  1  0
 22 23  2  0
 23 24  1  0
 24 25  1  0
 24 26  1  0
 26 27  2  0
  8  2  1  0
 26  9  1  0
 23 11  1  0
 21 16  1  0
  1 28  1  0
  1 29  1  0
  1 30  1  0
  3 31  1  0
  4 32  1  0
  5 33  1  0
  7 34  1  0
  7 35  1  0
  7 36  1  0
 10 37  1  0
 12 38  1  0
 13 39  1  0
 17 40  1  0
 18 41  1  0
 19 42  1  0
 20 43  1  0
 21 44  1  0
 25 45  1  0
 25 46  1  0
 25 47  1  0
M  END
>  <smiles>  (33) 
Cc1cccc(C)c1-c1cc2c[nH]c(=Nc3ccccc3)nc2n(C)c1=O

>  <score_type>  (33) 
oracle

>  <origin>  (33) 
adg

>  <m_score__min__energy>  (33) 
-8.2899999999999991

>  <m_primary>  (33) 
energy

$$$$
33:0
     RDKit          3D

 32 33  0  0  0  0  0  0  0  0999 V2000
   56.2740   24.3440   44.5640 C   0  0  0  0  0  0  0  0  0  0  0  0
   55.3720   24.9830   45.9580 S   0  0  0  0  0  0  0  0  0  0  0  0
   55.9040   24.4030   47.2390 O   0  0  0  0  0  0  0  0  0  0  0  0
   53.9280   24.5950   45.8170 O   0  0  0  0  0  0  0  0  0  0  0  0
   55.4800   26.7130   45.9990 N   0  0  0  0  0  0  0  0  0  0  0  0
   56.6160   27.4940   45.5980 C   0  0  0  0  0  0  0  0  0  0  0  0
   57.9260   26.9850   45.6300 C   0  0  0  0  0  0  0  0  0  0  0  0
   58.9980   27.7820   45.2280 C   0  0  0  0  0  0  0  0  0  0  0  0
   58.7790   29.0910   44.7950 C   0  0  0  0  0  0  0  0  0  0  0  0
   57.4770   29.6200   44.7560 C   0  0  0  0  0  0  0  0  0  0  0  0
   57.2430   31.0100   44.2980 C   0  0  0  0  0  0  0  0  0  0  0  0
   57.1400   31.2560   43.0660 O   0  0  0  0  0  0  0  0  0  0  0  0
   57.0780   32.0640   45.2580 N   0  0  0  0  0  0  0  0  0  0  0  0
   58.0550   33.0490   45.6280 C   0  0  0  0  0  0  0  0  0  0  0  0
   58.2170   34.2400   44.8940 C   0  0  0  0  0  0  0  0  0  0  0  0
   59.1930   35.1700   45.2650 C   0  0  0  0  0  0  0  0  0  0  0  0
   60.0230   34.9160   46.3600 C   0  0  0  0  0  0  0  0  0  0  0  0
   59.8860   33.7270   47.0790 C   0  0  0  0  0  0  0  0  0  0  0  0
   58.9120   32.7900   46.7120 C   0  0  0  0  0  0  0  0  0  0  0  0
   58.7700   31.3000   47.6350 Cl  0  0  0  0  0  0  0  0  0  0  0  0
   56.4010   28.8080   45.1640 C   0  0  0  0  0  0  0  0  0  0  0  0
   57.1230   23.7426   44.9211 H   0  0  0  0  0  0  0  0  0  0  0  0
   55.6092   23.7143   43.9545 H   0  0  0  0  0  0  0  0  0  0  0  0
   56.6475   25.1801   43.9545 H   0  0  0  0  0  0  0  0  0  0  0  0
   58.1062   25.9555   45.9730 H   0  0  0  0  0  0  0  0  0  0  0  0
   60.0205   27.3772   45.2523 H   0  0  0  0  0  0  0  0  0  0  0  0
   59.6309   29.7127   44.4822 H   0  0  0  0  0  0  0  0  0  0  0  0
   57.5728   34.4395   44.0250 H   0  0  0  0  0  0  0  0  0  0  0  0
   59.3076   36.1031   44.6939 H   0  0  0  0  0  0  0  0  0  0  0  0
   60.7844   35.6528   46.6556 H   0  0  0  0  0  0  0  0  0  0  0  0
   60.5451   33.5256   47.9363 H   0  0  0  0  0  0  0  0  0  0  0  0
   55.3779   29.2114   45.1415 H   0  0  0  0  0  0  0  0  0  0  0  0
  1  2  1  0
  2  3  2  0
  2  4  2  0
  2  5  1  0
  5  6  1  0
  6  7  2  0
  7  8  1  0
  8  9  2  0
  9 10  1  0
 10 11  1  0
 11 12  2  0
 11 13  1  0
 13 14  1  0
 14 15  2  0
 15 16  1  0
 16 17  2  0
 17 18  1  0
 18 19  2  0
 19 20  1  0
 10 21  2  0
 21  6  1  0
 19 14  1  0
  1 22  1  0
  1 23  1  0
  1 24  1  0
  7 25  1  0
  8 26  1  0
  9 27  1  0
 15 28  1  0
 16 29  1  0
 17 30  1  0
 18 31  1  0
 21 32  1  0
M  CHG  2   5  -1  13  -1
M  END
>  <UniqueID>  (34) 
28

>  <SMILES>  (34) 
CS(=O)(=O)[N-]c1cccc(C(=O)[N-]c2ccccc2Cl)c1

>  <Energy>  (34) 
36.45077513582545

>  <Genealogy>  (34) 
CS(=O)(=O)[N-]c1cccc(C(=O)[N-]c2ccccc2Cl)c1 (protonated)
CS(=O)(=O)[N-]c1cccc(C(=O)[N-]c2ccccc2Cl)c1 (3D coordinates assigned)
CS(=O)(=O)[N-]c1cccc(C(=O)[N-]c2ccccc2Cl)c1 (optimized conformer: 36.45077513582545 kcal/mol)

>  <smiles>  (34) 
CS(=O)(=O)Nc1cccc(C(=O)Nc2ccccc2Cl)c1

>  <score_type>  (34) 
oracle

>  <origin>  (34) 
adg

>  <m_score__min__energy>  (34) 
-11.4

>  <m_primary>  (34) 
energy

$$$$
34:0
     RDKit          3D

 45 47  0  0  0  0  0  0  0  0999 V2000
   56.3154   32.4908   43.8880 H   0  0  0  0  0  0  0  0  0  0  0  0
   57.1470   32.4060   44.6030 C   0  0  0  0  0  0  0  0  0  0  0  0
   57.7450   33.6430   45.5670 S   0  0  0  0  0  0  0  0  0  0  0  0
   58.8970   32.6730   46.3030 C   0  0  0  0  0  0  0  0  0  0  0  0
   59.6040   33.0980   47.3150 N   0  0  0  0  0  0  0  0  0  0  0  0
   61.0300   33.1600   47.4200 C   0  0  0  0  0  0  0  0  0  0  0  0
   61.7880   33.8210   46.4380 C   0  0  0  0  0  0  0  0  0  0  0  0
   61.2816   34.3279   45.6034 H   0  0  0  0  0  0  0  0  0  0  0  0
   63.1830   33.8360   46.5190 C   0  0  0  0  0  0  0  0  0  0  0  0
   63.7720   34.3767   45.7635 H   0  0  0  0  0  0  0  0  0  0  0  0
   63.8300   33.1640   47.5600 C   0  0  0  0  0  0  0  0  0  0  0  0
   64.9278   33.1819   47.6275 H   0  0  0  0  0  0  0  0  0  0  0  0
   63.0810   32.4680   48.5170 C   0  0  0  0  0  0  0  0  0  0  0  0
   63.7100   31.8020   49.5160 F   0  0  0  0  0  0  0  0  0  0  0  0
   61.6840   32.4550   48.4380 C   0  0  0  0  0  0  0  0  0  0  0  0
   61.0980   31.8895   49.1775 H   0  0  0  0  0  0  0  0  0  0  0  0
   58.9070   31.4140   45.7710 N   0  0  0  0  0  0  0  0  0  0  0  0
   59.9580   30.4060   45.9790 C   0  0  0  0  0  0  0  0  0  0  0  0
   60.1141   30.2563   47.0575 H   0  0  0  0  0  0  0  0  0  0  0  0
   59.6512   29.4558   45.5175 H   0  0  0  0  0  0  0  0  0  0  0  0
   60.8946   30.7522   45.5175 H   0  0  0  0  0  0  0  0  0  0  0  0
   57.8850   31.2530   44.8640 C   0  0  0  0  0  0  0  0  0  0  0  0
   57.5200   29.9260   44.2380 C   0  0  0  0  0  0  0  0  0  0  0  0
   58.2405   29.1637   44.5692 H   0  0  0  0  0  0  0  0  0  0  0  0
   57.5476   30.0397   43.1442 H   0  0  0  0  0  0  0  0  0  0  0  0
   56.1370   29.4960   44.6340 C   0  0  0  0  0  0  0  0  0  0  0  0
   55.1740   30.2950   44.4830 O   0  0  0  0  0  0  0  0  0  0  0  0
   55.9330   28.2160   45.2470 N   0  0  0  0  0  0  0  0  0  0  0  0
   56.9110   27.4050   45.9200 C   0  0  0  0  0  0  0  0  0  0  0  0
   58.0850   27.9760   46.4470 C   0  0  0  0  0  0  0  0  0  0  0  0
   58.2946   29.0431   46.2818 H   0  0  0  0  0  0  0  0  0  0  0  0
   58.9820   27.2010   47.1750 C   0  0  0  0  0  0  0  0  0  0  0  0
   59.9062   27.6535   47.5637 H   0  0  0  0  0  0  0  0  0  0  0  0
   58.7160   25.8560   47.4140 C   0  0  0  0  0  0  0  0  0  0  0  0
   59.4340   25.2517   47.9878 H   0  0  0  0  0  0  0  0  0  0  0  0
   57.5390   25.2640   46.9290 C   0  0  0  0  0  0  0  0  0  0  0  0
   57.2720   23.8140   47.2420 C   0  0  0  0  0  0  0  0  0  0  0  0
   57.2460   23.6731   48.3326 H   0  0  0  0  0  0  0  0  0  0  0  0
   56.3042   23.5180   46.8109 H   0  0  0  0  0  0  0  0  0  0  0  0
   58.0708   23.1927   46.8109 H   0  0  0  0  0  0  0  0  0  0  0  0
   56.6380   26.0350   46.1480 C   0  0  0  0  0  0  0  0  0  0  0  0
   55.3500   25.4290   45.6390 C   0  0  0  0  0  0  0  0  0  0  0  0
   54.7216   25.1334   46.4921 H   0  0  0  0  0  0  0  0  0  0  0  0
   54.8132   26.1690   45.0273 H   0  0  0  0  0  0  0  0  0  0  0  0
   55.5779   24.5437   45.0273 H   0  0  0  0  0  0  0  0  0  0  0  0
  1  2  1  0
  2  3  1  0
  3  4  1  0
  4  5  2  0
  5  6  1  0
  6  7  2  0
  7  8  1  0
  7  9  1  0
  9 10  1  0
  9 11  2  0
 11 12  1  0
 11 13  1  0
 13 14  1  0
 13 15  2  0
 15 16  1  0
  4 17  1  0
 17 18  1  0
 18 19  1  0
 18 20  1  0
 18 21  1  0
 17 22  1  0
 22 23  1  0
 23 24  1  0
 23 25  1  0
 23 26  1  0
 26 27  2  0
 26 28  1  0
 28 29  1  0
 29 30  2  0
 30 31  1  0
 30 32  1  0
 32 33  1  0
 32 34  2  0
 34 35  1  0
 34 36  1  0
 36 37  1  0
 37 38  1  0
 37 39  1  0
 37 40  1  0
 36 41  2  0
 41 42  1  0
 42 43  1  0
 42 44  1  0
 42 45  1  0
 22  2  2  0
 41 29  1  0
 15  6  1  0
M  CHG  1  28  -1
M  END
>  <UniqueID>  (35) 
29

>  <SMILES>  (35) 
Cc1cccc([N-]C(=O)Cc2cs/c(=N/c3cccc(F)c3)n2C)c1C

>  <Energy>  (35) 
95.23597908579468

>  <Genealogy>  (35) 
Cc1cccc([N-]C(=O)Cc2csc(=Nc3cccc(F)c3)n2C)c1C (protonated)
Cc1cccc([N-]C(=O)Cc2cs/c(=N/c3cccc(F)c3)n2C)c1C (cis-trans isomerization)
Cc1cccc([N-]C(=O)Cc2cs/c(=N/c3cccc(F)c3)n2C)c1C (3D coordinates assigned)
Cc1cccc([N-]C(=O)Cc2cs/c(=N/c3cccc(F)c3)n2C)c1C (optimized conformer: 95.23597908579468 kcal/mol)

>  <smiles>  (35) 
Cc1cccc(NC(=O)Cc2csc(=Nc3cccc(F)c3)n2C)c1C

>  <score_type>  (35) 
oracle

>  <origin>  (35) 
adg

>  <m_score__min__energy>  (35) 
-10.15

>  <m_primary>  (35) 
energy

$$$$
35:0
     RDKit          3D

 40 43  0  0  0  0  0  0  0  0999 V2000
   65.6210   33.0390   49.4130 F   0  0  0  0  0  0  0  0  0  0  0  0
   64.3580   32.7890   48.9890 C   0  0  0  0  0  0  0  0  0  0  0  0
   63.5490   31.8920   49.6900 C   0  0  0  0  0  0  0  0  0  0  0  0
   62.2460   31.6340   49.2530 C   0  0  0  0  0  0  0  0  0  0  0  0
   61.7400   32.2830   48.1140 C   0  0  0  0  0  0  0  0  0  0  0  0
   60.3650   32.0250   47.6460 C   0  0  0  0  0  0  0  0  0  0  0  0
   60.0610   31.6440   46.3900 N   0  0  0  0  0  0  0  0  0  0  0  0
   58.7410   31.5880   46.2670 N   0  0  0  0  0  0  0  0  0  0  0  0
   58.0460   31.2400   45.0540 C   0  0  0  0  0  0  0  0  0  0  0  0
   58.0930   32.0860   43.9300 C   0  0  0  0  0  0  0  0  0  0  0  0
   57.4180   31.7420   42.7550 C   0  0  0  0  0  0  0  0  0  0  0  0
   56.6870   30.5540   42.6900 C   0  0  0  0  0  0  0  0  0  0  0  0
   56.6310   29.7060   43.7980 C   0  0  0  0  0  0  0  0  0  0  0  0
   57.3060   30.0450   44.9750 C   0  0  0  0  0  0  0  0  0  0  0  0
   58.1770   31.9420   47.4420 C   0  0  0  0  0  0  0  0  0  0  0  0
   59.1830   32.2180   48.3500 C   0  0  0  0  0  0  0  0  0  0  0  0
   58.9950   32.8420   49.7020 C   0  0  0  0  0  0  0  0  0  0  0  0
   58.2090   31.9560   50.5570 N   0  0  0  0  0  0  0  0  0  0  0  0
   57.4350   32.3150   51.5930 C   0  0  0  0  0  0  0  0  0  0  0  0
   56.9330   31.1670   52.1610 C   0  0  0  0  0  0  0  0  0  0  0  0
   57.3950   30.0900   51.4910 N   0  0  0  0  0  0  0  0  0  0  0  0
   58.1740   30.6110   50.5200 C   0  0  0  0  0  0  0  0  0  0  0  0
   62.5660   33.1670   47.4030 C   0  0  0  0  0  0  0  0  0  0  0  0
   63.8690   33.4240   47.8430 C   0  0  0  0  0  0  0  0  0  0  0  0
   63.9374   31.3877   50.5872 H   0  0  0  0  0  0  0  0  0  0  0  0
   61.6148   30.9204   49.8029 H   0  0  0  0  0  0  0  0  0  0  0  0
   60.7460   31.4640   45.6220 H   0  0  0  0  0  0  0  0  0  0  0  0
   58.6649   33.0245   43.9764 H   0  0  0  0  0  0  0  0  0  0  0  0
   57.4628   32.4080   41.8807 H   0  0  0  0  0  0  0  0  0  0  0  0
   56.1549   30.2860   41.7653 H   0  0  0  0  0  0  0  0  0  0  0  0
   56.0553   28.7702   43.7450 H   0  0  0  0  0  0  0  0  0  0  0  0
   57.2584   29.3734   45.8449 H   0  0  0  0  0  0  0  0  0  0  0  0
   57.0972   32.0010   47.6433 H   0  0  0  0  0  0  0  0  0  0  0  0
   59.9786   33.0149   50.1632 H   0  0  0  0  0  0  0  0  0  0  0  0
   58.4631   33.7980   49.5873 H   0  0  0  0  0  0  0  0  0  0  0  0
   57.2373   33.3438   51.9282 H   0  0  0  0  0  0  0  0  0  0  0  0
   56.2580   31.1320   53.0289 H   0  0  0  0  0  0  0  0  0  0  0  0
   58.7190   30.0047   49.7815 H   0  0  0  0  0  0  0  0  0  0  0  0
   62.1873   33.6601   46.4956 H   0  0  0  0  0  0  0  0  0  0  0  0
   64.5088   34.1255   47.2875 H   0  0  0  0  0  0  0  0  0  0  0  0
  1  2  1  0
  2  3  2  0
  3  4  1  0
  4  5  2  0
  5  6  1  0
  6  7  2  0
  7  8  1  0
  8  9  1  0
  9 10  2  0
 10 11  1  0
 11 12  2  0
 12 13  1  0
 13 14  2  0
  8 15  1  0
 15 16  2  0
 16 17  1  0
 17 18  1  0
 18 19  1  0
 19 20  2  0
 20 21  1  0
 21 22  2  0
  5 23  1  0
 23 24  2  0
 24  2  1  0
 16  6  1  0
 22 18  1  0
 14  9  1  0
  3 25  1  0
  4 26  1  0
  7 27  1  0
 10 28  1  0
 11 29  1  0
 12 30  1  0
 13 31  1  0
 14 32  1  0
 15 33  1  0
 17 34  1  0
 17 35  1  0
 19 36  1  0
 20 37  1  0
 22 38  1  0
 23 39  1  0
 24 40  1  0
M  CHG  1   7   1
M  END
>  <UniqueID>  (36) 
30

>  <SMILES>  (36) 
Fc1ccc(-c2[nH+]n(-c3ccccc3)cc2Cn2ccnc2)cc1

>  <Energy>  (36) 
109.91506412531388

>  <Genealogy>  (36) 
Fc1ccc(-c2[nH+]n(-c3ccccc3)cc2Cn2ccnc2)cc1 (protonated)
Fc1ccc(-c2[nH+]n(-c3ccccc3)cc2Cn2ccnc2)cc1 (3D coordinates assigned)
Fc1ccc(-c2[nH+]n(-c3ccccc3)cc2Cn2ccnc2)cc1 (optimized conformer: 109.91506412531388 kcal/mol)

>  <smiles>  (36) 
Fc1ccc(-c2nn(-c3ccccc3)cc2Cn2ccnc2)cc1

>  <score_type>  (36) 
oracle

>  <origin>  (36) 
adg

>  <m_score__min__energy>  (36) 
-5.6799999999999997

>  <m_primary>  (36) 
energy

$$$$
36:0
     RDKit          3D

 25 26  0  0  0  0  0  0  0  0999 V2000
   58.0741   32.9831   42.2863 H   0  0  0  0  0  0  0  0  0  0  0  0
   57.9970   32.5960   43.3130 C   0  0  0  0  0  0  0  0  0  0  0  0
   57.4040   31.3520   43.5460 C   0  0  0  0  0  0  0  0  0  0  0  0
   57.0159   30.7648   42.7007 H   0  0  0  0  0  0  0  0  0  0  0  0
   57.3000   30.8450   44.8570 C   0  0  0  0  0  0  0  0  0  0  0  0
   56.6690   29.5280   45.1090 C   0  0  0  0  0  0  0  0  0  0  0  0
   55.4680   29.3380   44.7730 O   0  0  0  0  0  0  0  0  0  0  0  0
   57.3980   28.5090   45.8160 N   0  0  0  0  0  0  0  0  0  0  0  0
   57.0940   27.2530   45.9990 C   0  0  0  0  0  0  0  0  0  0  0  0
   58.0020   26.3160   46.5400 C   0  0  0  0  0  0  0  0  0  0  0  0
   59.0176   26.6296   46.8233 H   0  0  0  0  0  0  0  0  0  0  0  0
   57.6030   24.9900   46.7130 C   0  0  0  0  0  0  0  0  0  0  0  0
   58.3079   24.2536   47.1262 H   0  0  0  0  0  0  0  0  0  0  0  0
   56.3130   24.5980   46.3630 C   0  0  0  0  0  0  0  0  0  0  0  0
   55.7550   22.7870   46.5970 Br  0  0  0  0  0  0  0  0  0  0  0  0
   55.4300   25.5480   45.8490 C   0  0  0  0  0  0  0  0  0  0  0  0
   54.4068   25.2527   45.5736 H   0  0  0  0  0  0  0  0  0  0  0  0
   55.8300   26.8390   45.6870 N   0  0  0  0  0  0  0  0  0  0  0  0
   55.1430   27.5260   45.3000 H   0  0  0  0  0  0  0  0  0  0  0  0
   57.8000   31.6160   45.9240 C   0  0  0  0  0  0  0  0  0  0  0  0
   57.7234   31.2374   46.9540 H   0  0  0  0  0  0  0  0  0  0  0  0
   58.3930   32.8590   45.6840 C   0  0  0  0  0  0  0  0  0  0  0  0
   58.7825   33.4525   46.5242 H   0  0  0  0  0  0  0  0  0  0  0  0
   58.4920   33.3490   44.3800 C   0  0  0  0  0  0  0  0  0  0  0  0
   59.0670   34.5560   44.1510 F   0  0  0  0  0  0  0  0  0  0  0  0
  1  2  1  0
  2  3  2  0
  3  4  1  0
  3  5  1  0
  5  6  1  0
  6  7  2  0
  6  8  1  0
  8  9  2  0
  9 10  1  0
 10 11  1  0
 10 12  2  0
 12 13  1  0
 12 14  1  0
 14 15  1  0
 14 16  2  0
 16 17  1  0
 16 18  1  0
 18 19  1  0
  5 20  2  0
 20 21  1  0
 20 22  1  0
 22 23  1  0
 22 24  2  0
 24 25  1  0
 24  2  1  0
 18  9  1  0
M  END
>  <UniqueID>  (37) 
31

>  <SMILES>  (37) 
O=C(/N=c1\ccc(Br)c[nH]1)c1ccc(F)cc1

>  <Energy>  (37) 
34.668971380326944

>  <Genealogy>  (37) 
O=C(/N=c1\ccc(Br)c[nH]1)c1ccc(F)cc1 (cis-trans isomerization)
O=C(/N=c1\ccc(Br)c[nH]1)c1ccc(F)cc1 (3D coordinates assigned)
O=C(/N=c1\ccc(Br)c[nH]1)c1ccc(F)cc1 (optimized conformer: 34.668971380326944 kcal/mol)

>  <smiles>  (37) 
O=C(N=c1ccc(Br)c[nH]1)c1ccc(F)cc1

>  <score_type>  (37) 
oracle

>  <origin>  (37) 
adg

>  <m_score__min__energy>  (37) 
-7.0199999999999996

>  <m_primary>  (37) 
energy

$$$$
37:0
     RDKit          3D

 42 44  0  0  0  0  0  0  0  0999 V2000
   60.3581   35.8198   46.8290 H   0  0  0  0  0  0  0  0  0  0  0  0
   59.8520   34.8480   46.7320 C   0  0  0  0  0  0  0  0  0  0  0  0
   60.1060   33.7670   47.5740 C   0  0  0  0  0  0  0  0  0  0  0  0
   61.1020   33.7230   48.6730 C   0  0  0  0  0  0  0  0  0  0  0  0
   60.6420   33.8430   49.9890 C   0  0  0  0  0  0  0  0  0  0  0  0
   59.5665   33.9610   50.1875 H   0  0  0  0  0  0  0  0  0  0  0  0
   61.5440   33.8130   51.0440 C   0  0  0  0  0  0  0  0  0  0  0  0
   61.1827   33.9325   52.0761 H   0  0  0  0  0  0  0  0  0  0  0  0
   62.8690   33.6370   50.8090 N   0  0  0  0  0  0  0  0  0  0  0  0
   63.5110   33.5980   51.6330 H   0  0  0  0  0  0  0  0  0  0  0  0
   63.3760   33.4780   49.5520 C   0  0  0  0  0  0  0  0  0  0  0  0
   64.6610   33.2560   49.4500 N   0  0  0  0  0  0  0  0  0  0  0  0
   65.6860   33.3660   50.4440 C   0  0  0  0  0  0  0  0  0  0  0  0
   65.5610   34.2110   51.3700 O   0  0  0  0  0  0  0  0  0  0  0  0
   66.8060   32.3730   50.5030 C   0  0  0  0  0  0  0  0  0  0  0  0
   67.0496   32.1570   51.5537 H   0  0  0  0  0  0  0  0  0  0  0  0
   66.4996   31.4443   49.9993 H   0  0  0  0  0  0  0  0  0  0  0  0
   67.6913   32.7884   49.9993 H   0  0  0  0  0  0  0  0  0  0  0  0
   62.4920   33.5790   48.4350 C   0  0  0  0  0  0  0  0  0  0  0  0
   62.9850   33.7400   47.0820 C   0  0  0  0  0  0  0  0  0  0  0  0
   63.3880   33.8610   46.0040 N   0  0  0  0  0  0  0  0  0  0  0  0
   59.1470   32.4720   47.0790 S   0  0  0  0  0  0  0  0  0  0  0  0
   58.4000   33.2790   45.8050 C   0  0  0  0  0  0  0  0  0  0  0  0
   57.3760   32.6780   44.8830 C   0  0  0  0  0  0  0  0  0  0  0  0
   56.4511   32.5085   45.4538 H   0  0  0  0  0  0  0  0  0  0  0  0
   57.2324   33.3872   44.0544 H   0  0  0  0  0  0  0  0  0  0  0  0
   57.7990   31.3920   44.2850 N   0  0  0  0  0  0  0  0  0  0  0  0
   57.0110   30.9620   43.1100 C   0  0  0  0  0  0  0  0  0  0  0  0
   56.6202   31.8571   42.6040 H   0  0  0  0  0  0  0  0  0  0  0  0
   57.6819   30.3812   42.4599 H   0  0  0  0  0  0  0  0  0  0  0  0
   55.8200   30.0460   43.4800 C   0  0  0  0  0  0  0  0  0  0  0  0
   54.8854   30.5631   43.2169 H   0  0  0  0  0  0  0  0  0  0  0  0
   55.9418   29.1067   42.9206 H   0  0  0  0  0  0  0  0  0  0  0  0
   55.7810   29.7170   44.8540 O   0  0  0  0  0  0  0  0  0  0  0  0
   57.0310   29.2040   45.2490 C   0  0  0  0  0  0  0  0  0  0  0  0
   56.9444   28.7784   46.2596 H   0  0  0  0  0  0  0  0  0  0  0  0
   57.3377   28.4261   44.5343 H   0  0  0  0  0  0  0  0  0  0  0  0
   58.0910   30.3150   45.2580 C   0  0  0  0  0  0  0  0  0  0  0  0
   58.1326   30.7534   46.2660 H   0  0  0  0  0  0  0  0  0  0  0  0
   59.0509   29.8603   44.9718 H   0  0  0  0  0  0  0  0  0  0  0  0
   58.8910   34.5780   45.7510 C   0  0  0  0  0  0  0  0  0  0  0  0
   58.5575   35.3202   45.0108 H   0  0  0  0  0  0  0  0  0  0  0  0
  1  2  1  0
  2  3  2  0
  3  4  1  0
  4  5  1  0
  5  6  1  0
  5  7  2  0
  7  8  1  0
  7  9  1  0
  9 10  1  0
  9 11  1  0
 11 12  2  0
 12 13  1  0
 13 14  2  0
 13 15  1  0
 15 16  1  0
 15 17  1  0
 15 18  1  0
 11 19  1  0
 19 20  1  0
 20 21  3  0
  3 22  1  0
 22 23  1  0
 23 24  1  0
 24 25  1  0
 24 26  1  0
 24 27  1  0
 27 28  1  0
 28 29  1  0
 28 30  1  0
 28 31  1  0
 31 32  1  0
 31 33  1  0
 31 34  1  0
 34 35  1  0
 35 36  1  0
 35 37  1  0
 35 38  1  0
 38 39  1  0
 38 40  1  0
 23 41  2  0
 41 42  1  0
 41  2  1  0
 19  4  2  0
 38 27  1  0
M  END
>  <UniqueID>  (38) 
32

>  <SMILES>  (38) 
CC(=O)/N=c1/[nH]ccc(-c2ccc(CN3CCOCC3)s2)c1C#N

>  <Energy>  (38) 
103.80862104966702

>  <Genealogy>  (38) 
CC(=O)/N=c1/[nH]ccc(-c2ccc(CN3CCOCC3)s2)c1C#N (cis-trans isomerization)
CC(=O)/N=c1/[nH]ccc(-c2ccc(CN3CCOCC3)s2)c1C#N (3D coordinates assigned)
CC(=O)/N=c1/[nH]ccc(-c2ccc(CN3CCOCC3)s2)c1C#N (nonaromatic ring conformer: 103.80862104966702 kcal/mol)

>  <smiles>  (38) 
CC(=O)N=c1[nH]ccc(-c2ccc(CN3CCOCC3)s2)c1C#N

>  <score_type>  (38) 
oracle

>  <origin>  (38) 
adg

>  <m_score__min__energy>  (38) 
-7.9800000000000004

>  <m_primary>  (38) 
energy

$$$$
38:0
     RDKit          3D

 50 52  0  0  0  0  0  0  0  0999 V2000
   62.4830   31.6000   47.3910 C   0  0  0  0  0  0  0  0  0  0  0  0
   61.1660   32.1780   47.0620 N   0  0  0  0  0  0  0  0  0  0  0  0
   60.9080   33.4880   47.3680 C   0  0  0  0  0  0  0  0  0  0  0  0
   61.7930   34.2110   47.9080 O   0  0  0  0  0  0  0  0  0  0  0  0
   59.6620   34.0520   47.0870 C   0  0  0  0  0  0  0  0  0  0  0  0
   59.4650   35.2660   47.3800 O   0  0  0  0  0  0  0  0  0  0  0  0
   58.6740   33.3030   46.5020 N   0  0  0  0  0  0  0  0  0  0  0  0
   57.3640   33.9200   46.2170 C   0  0  0  0  0  0  0  0  0  0  0  0
   58.9230   31.9880   46.1630 C   0  0  0  0  0  0  0  0  0  0  0  0
   57.9470   31.1920   45.5130 C   0  0  0  0  0  0  0  0  0  0  0  0
   58.2360   29.8880   45.0930 C   0  0  0  0  0  0  0  0  0  0  0  0
   57.0580   28.9530   44.1720 S   0  0  0  0  0  0  0  0  0  0  0  0
   56.3410   29.8740   43.2270 O   0  0  0  0  0  0  0  0  0  0  0  0
   57.7470   27.8850   43.3710 O   0  0  0  0  0  0  0  0  0  0  0  0
   55.8980   28.2130   45.2350 N   0  0  0  0  0  0  0  0  0  0  0  0
   56.3160   26.8680   45.6400 C   0  0  0  0  0  0  0  0  0  0  0  0
   57.7790   26.9010   46.1030 C   0  0  0  0  0  0  0  0  0  0  0  0
   58.0020   25.9760   47.2710 C   0  0  0  0  0  0  0  0  0  0  0  0
   57.1920   25.0320   47.4670 O   0  0  0  0  0  0  0  0  0  0  0  0
   59.1220   26.1210   48.1540 N   0  0  0  0  0  0  0  0  0  0  0  0
   60.2240   27.0500   47.9310 C   0  0  0  0  0  0  0  0  0  0  0  0
   60.0360   28.2910   48.7490 C   0  0  0  0  0  0  0  0  0  0  0  0
   61.0300   28.6920   49.6580 C   0  0  0  0  0  0  0  0  0  0  0  0
   60.8630   29.8540   50.4140 C   0  0  0  0  0  0  0  0  0  0  0  0
   59.7000   30.6200   50.2740 C   0  0  0  0  0  0  0  0  0  0  0  0
   58.7010   30.2210   49.3800 C   0  0  0  0  0  0  0  0  0  0  0  0
   58.8640   29.0560   48.6220 C   0  0  0  0  0  0  0  0  0  0  0  0
   59.4880   29.3420   45.3550 C   0  0  0  0  0  0  0  0  0  0  0  0
   60.4570   30.0900   46.0190 C   0  0  0  0  0  0  0  0  0  0  0  0
   60.2020   31.4210   46.4310 C   0  0  0  0  0  0  0  0  0  0  0  0
   62.5985   31.5493   48.4837 H   0  0  0  0  0  0  0  0  0  0  0  0
   62.5552   30.5875   46.9673 H   0  0  0  0  0  0  0  0  0  0  0  0
   63.2771   32.2323   46.9673 H   0  0  0  0  0  0  0  0  0  0  0  0
   56.8573   34.1586   47.1638 H   0  0  0  0  0  0  0  0  0  0  0  0
   57.5118   34.8432   45.6374 H   0  0  0  0  0  0  0  0  0  0  0  0
   56.7464   33.2181   45.6374 H   0  0  0  0  0  0  0  0  0  0  0  0
   56.9437   31.6064   45.3352 H   0  0  0  0  0  0  0  0  0  0  0  0
   55.6784   26.5197   46.4659 H   0  0  0  0  0  0  0  0  0  0  0  0
   56.2187   26.1824   44.7853 H   0  0  0  0  0  0  0  0  0  0  0  0
   58.4261   26.5893   45.2699 H   0  0  0  0  0  0  0  0  0  0  0  0
   58.0210   27.9263   46.4196 H   0  0  0  0  0  0  0  0  0  0  0  0
   61.1693   26.5664   48.2184 H   0  0  0  0  0  0  0  0  0  0  0  0
   60.2481   27.3253   46.8663 H   0  0  0  0  0  0  0  0  0  0  0  0
   61.9424   28.0886   49.7743 H   0  0  0  0  0  0  0  0  0  0  0  0
   61.6460   30.1676   51.1201 H   0  0  0  0  0  0  0  0  0  0  0  0
   59.5714   31.5370   50.8678 H   0  0  0  0  0  0  0  0  0  0  0  0
   57.7868   30.8232   49.2727 H   0  0  0  0  0  0  0  0  0  0  0  0
   58.0737   28.7386   47.9258 H   0  0  0  0  0  0  0  0  0  0  0  0
   59.7140   28.3138   45.0360 H   0  0  0  0  0  0  0  0  0  0  0  0
   61.4384   29.6389   46.2273 H   0  0  0  0  0  0  0  0  0  0  0  0
  1  2  1  0
  2  3  1  0
  3  4  2  0
  3  5  1  0
  5  6  2  0
  5  7  1  0
  7  8  1  0
  7  9  1  0
  9 10  2  0
 10 11  1  0
 11 12  1  0
 12 13  2  0
 12 14  2  0
 12 15  1  0
 15 16  1  0
 16 17  1  0
 17 18  1  0
 18 19  2  0
 18 20  1  0
 20 21  1  0
 21 22  1  0
 22 23  2  0
 23 24  1  0
 24 25  2  0
 25 26  1  0
 26 27  2  0
 11 28  2  0
 28 29  1  0
 29 30  2  0
 30  2  1  0
 30  9  1  0
 27 22  1  0
  1 31  1  0
  1 32  1  0
  1 33  1  0
  8 34  1  0
  8 35  1  0
  8 36  1  0
 10 37  1  0
 16 38  1  0
 16 39  1  0
 17 40  1  0
 17 41  1  0
 21 42  1  0
 21 43  1  0
 23 44  1  0
 24 45  1  0
 25 46  1  0
 26 47  1  0
 27 48  1  0
 28 49  1  0
 29 50  1  0
M  CHG  2  15  -1  20  -1
M  END
>  <UniqueID>  (39) 
33

>  <SMILES>  (39) 
Cn1c(=O)c(=O)n(C)c2cc(S(=O)(=O)[N-]CCC(=O)[N-]Cc3ccccc3)ccc21

>  <Energy>  (39) 
56.81959232217461

>  <Genealogy>  (39) 
Cn1c(=O)c(=O)n(C)c2cc(S(=O)(=O)[N-]CCC(=O)[N-]Cc3ccccc3)ccc21 (protonated)
Cn1c(=O)c(=O)n(C)c2cc(S(=O)(=O)[N-]CCC(=O)[N-]Cc3ccccc3)ccc21 (3D coordinates assigned)
Cn1c(=O)c(=O)n(C)c2cc(S(=O)(=O)[N-]CCC(=O)[N-]Cc3ccccc3)ccc21 (optimized conformer: 56.81959232217461 kcal/mol)

>  <smiles>  (39) 
Cn1c(=O)c(=O)n(C)c2cc(S(=O)(=O)NCCC(=O)NCc3ccccc3)ccc21

>  <score_type>  (39) 
oracle

>  <origin>  (39) 
adg

>  <m_score__min__energy>  (39) 
-12.5

>  <m_primary>  (39) 
energy

$$$$
39:0
     RDKit          3D

 52 54  0  0  0  0  0  0  0  0999 V2000
   57.8520   33.4500   46.0840 O   0  0  0  0  0  0  0  0  0  0  0  0
   58.4110   32.4630   46.6270 C   0  0  0  0  0  0  0  0  0  0  0  0
   58.6380   31.2850   45.8630 N   0  0  0  0  0  0  0  0  0  0  0  0
   58.2220   31.2440   44.4720 C   0  0  0  0  0  0  0  0  0  0  0  0
   57.5400   29.9540   44.1240 C   0  0  0  0  0  0  0  0  0  0  0  0
   56.4210   29.6930   45.0940 C   0  0  0  0  0  0  0  0  0  0  0  0
   56.0440   28.3520   45.0710 O   0  0  0  0  0  0  0  0  0  0  0  0
   58.5230   28.8010   44.1230 C   0  0  0  0  0  0  0  0  0  0  0  0
   58.1050   27.7350   43.3360 O   0  0  0  0  0  0  0  0  0  0  0  0
   56.9310   30.1480   42.7750 C   0  0  0  0  0  0  0  0  0  0  0  0
   57.1420   31.1810   42.0870 O   0  0  0  0  0  0  0  0  0  0  0  0
   56.1080   29.1140   42.3140 O   0  0  0  0  0  0  0  0  0  0  0  0
   58.7940   32.5910   48.0280 C   0  0  0  0  0  0  0  0  0  0  0  0
   58.6610   31.4750   48.8280 C   0  0  0  0  0  0  0  0  0  0  0  0
   59.0020   31.4990   50.1850 C   0  0  0  0  0  0  0  0  0  0  0  0
   59.4760   32.6630   50.7160 C   0  0  0  0  0  0  0  0  0  0  0  0
   59.8500   32.7440   52.1420 C   0  0  0  0  0  0  0  0  0  0  0  0
   58.6820   33.1410   53.0160 C   0  0  0  0  0  0  0  0  0  0  0  0
   57.6730   32.0490   52.9290 C   0  0  0  0  0  0  0  0  0  0  0  0
   57.7560   30.8970   53.6450 N   0  0  0  0  0  0  0  0  0  0  0  0
   56.7000   30.1170   53.3460 C   0  0  0  0  0  0  0  0  0  0  0  0
   56.3200   28.8990   53.7750 N   0  0  0  0  0  0  0  0  0  0  0  0
   55.1950   28.3750   53.2810 C   0  0  0  0  0  0  0  0  0  0  0  0
   54.8590   27.2310   53.6990 O   0  0  0  0  0  0  0  0  0  0  0  0
   54.4170   29.0010   52.3740 N   0  0  0  0  0  0  0  0  0  0  0  0
   54.8090   30.2240   51.9520 C   0  0  0  0  0  0  0  0  0  0  0  0
   54.0980   30.8460   51.0940 O   0  0  0  0  0  0  0  0  0  0  0  0
   55.9610   30.8360   52.4150 C   0  0  0  0  0  0  0  0  0  0  0  0
   56.5680   32.0180   52.1670 N   0  0  0  0  0  0  0  0  0  0  0  0
   59.6100   33.7820   49.9200 C   0  0  0  0  0  0  0  0  0  0  0  0
   59.2720   33.7540   48.5820 C   0  0  0  0  0  0  0  0  0  0  0  0
   59.1000   30.4600   46.3040 H   0  0  0  0  0  0  0  0  0  0  0  0
   57.5256   32.0748   44.2856 H   0  0  0  0  0  0  0  0  0  0  0  0
   59.1229   31.3299   43.8467 H   0  0  0  0  0  0  0  0  0  0  0  0
   56.7556   29.9554   46.1085 H   0  0  0  0  0  0  0  0  0  0  0  0
   55.5550   30.3059   44.8037 H   0  0  0  0  0  0  0  0  0  0  0  0
   56.1900   27.9950   44.1660 H   0  0  0  0  0  0  0  0  0  0  0  0
   59.4883   29.1631   43.7396 H   0  0  0  0  0  0  0  0  0  0  0  0
   58.6045   28.4357   45.1574 H   0  0  0  0  0  0  0  0  0  0  0  0
   57.1110   27.6110   43.3550 H   0  0  0  0  0  0  0  0  0  0  0  0
   56.0380   28.2420   42.8120 H   0  0  0  0  0  0  0  0  0  0  0  0
   58.2772   30.5427   48.3881 H   0  0  0  0  0  0  0  0  0  0  0  0
   58.8905   30.6001   50.8092 H   0  0  0  0  0  0  0  0  0  0  0  0
   60.2185   31.7602   52.4682 H   0  0  0  0  0  0  0  0  0  0  0  0
   60.6268   33.5160   52.2445 H   0  0  0  0  0  0  0  0  0  0  0  0
   59.0153   33.2635   54.0571 H   0  0  0  0  0  0  0  0  0  0  0  0
   58.2519   34.0965   52.6812 H   0  0  0  0  0  0  0  0  0  0  0  0
   56.9370   28.4390   54.4740 H   0  0  0  0  0  0  0  0  0  0  0  0
   53.5460   28.5750   52.0040 H   0  0  0  0  0  0  0  0  0  0  0  0
   56.2230   32.7630   51.4980 H   0  0  0  0  0  0  0  0  0  0  0  0
   59.9935   34.7143   50.3601 H   0  0  0  0  0  0  0  0  0  0  0  0
   59.3845   34.6566   47.9634 H   0  0  0  0  0  0  0  0  0  0  0  0
  1  2  2  0
  2  3  1  0
  3  4  1  0
  4  5  1  0
  5  6  1  0
  6  7  1  0
  5  8  1  0
  8  9  1  0
  5 10  1  0
 10 11  2  0
 10 12  1  0
  2 13  1  0
 13 14  2  0
 14 15  1  0
 15 16  2  0
 16 17  1  0
 17 18  1  0
 18 19  1  0
 19 20  2  0
 20 21  1  0
 21 22  1  0
 22 23  1  0
 23 24  2  0
 23 25  1  0
 25 26  1  0
 26 27  2  0
 26 28  1  0
 28 29  1  0
 16 30  1  0
 30 31  2  0
 31 13  1  0
 29 19  1  0
 28 21  2  0
  3 32  1  0
  4 33  1  0
  4 34  1  0
  6 35  1  0
  6 36  1  0
  7 37  1  0
  8 38  1  0
  8 39  1  0
  9 40  1  0
 12 41  1  0
 14 42  1  0
 15 43  1  0
 17 44  1  0
 17 45  1  0
 18 46  1  0
 18 47  1  0
 22 48  1  0
 25 49  1  0
 29 50  1  0
 30 51  1  0
 31 52  1  0
M  END
>  <smiles>  (40) 
O=C(NCC(CO)(CO)C(=O)O)c1ccc(CCc2nc3[nH]c(=O)[nH]c(=O)c3[nH]2)cc1

>  <score_type>  (40) 
oracle

>  <origin>  (40) 
adg

>  <m_score__min__energy>  (40) 
-8.2899999999999991

>  <m_primary>  (40) 
energy

$$$$
40:0
     RDKit          3D

 73 77  0  0  0  0  0  0  0  0999 V2000
   60.1930   33.9030   53.6180 C   0  0  0  0  0  0  0  0  0  0  0  0
   59.4980   33.6800   52.3140 C   0  0  0  0  0  0  0  0  0  0  0  0
   58.2540   33.4670   52.3060 O   0  0  0  0  0  0  0  0  0  0  0  0
   60.2580   33.6150   51.0960 N   0  0  0  0  0  0  0  0  0  0  0  0
   59.6710   33.6460   49.7830 C   0  0  0  0  0  0  0  0  0  0  0  0
   60.1410   34.5210   48.7890 C   0  0  0  0  0  0  0  0  0  0  0  0
   59.5830   34.4990   47.5070 C   0  0  0  0  0  0  0  0  0  0  0  0
   58.5520   33.6020   47.2010 C   0  0  0  0  0  0  0  0  0  0  0  0
   57.9100   33.5080   45.5660 S   0  0  0  0  0  0  0  0  0  0  0  0
   56.4530   33.1390   45.6020 O   0  0  0  0  0  0  0  0  0  0  0  0
   58.0500   34.8400   44.8830 O   0  0  0  0  0  0  0  0  0  0  0  0
   58.8170   32.3220   44.6920 N   0  0  0  0  0  0  0  0  0  0  0  0
   59.0550   31.0240   45.2370 C   0  0  0  0  0  0  0  0  0  0  0  0
   58.6110   29.8950   44.5450 C   0  0  0  0  0  0  0  0  0  0  0  0
   58.8580   28.6200   45.0550 C   0  0  0  0  0  0  0  0  0  0  0  0
   59.5250   28.4570   46.2750 C   0  0  0  0  0  0  0  0  0  0  0  0
   59.7630   27.1480   46.7220 O   0  0  0  0  0  0  0  0  0  0  0  0
   59.0300   26.0150   46.3430 C   0  0  0  0  0  0  0  0  0  0  0  0
   59.6580   24.8110   45.9770 C   0  0  0  0  0  0  0  0  0  0  0  0
   58.8910   23.6980   45.6300 C   0  0  0  0  0  0  0  0  0  0  0  0
   57.4940   23.7790   45.6270 C   0  0  0  0  0  0  0  0  0  0  0  0
   56.8490   24.9830   45.9670 C   0  0  0  0  0  0  0  0  0  0  0  0
   55.3700   25.0730   45.9820 C   0  0  0  0  0  0  0  0  0  0  0  0
   54.7220   26.3400   45.9640 N   0  0  0  0  0  0  0  0  0  0  0  0
   54.6680   24.0260   46.0010 O   0  0  0  0  0  0  0  0  0  0  0  0
   57.6330   26.1010   46.3120 C   0  0  0  0  0  0  0  0  0  0  0  0
   59.8980   29.6030   47.0240 C   0  0  0  0  0  0  0  0  0  0  0  0
   60.4450   29.5040   48.3960 C   0  0  0  0  0  0  0  0  0  0  0  0
   60.2670   28.4370   49.0440 O   0  0  0  0  0  0  0  0  0  0  0  0
   61.2250   30.5740   48.9750 N   0  0  0  0  0  0  0  0  0  0  0  0
   61.3360   30.7140   50.4340 C   0  0  0  0  0  0  0  0  0  0  0  0
   62.8130   30.7050   50.8420 C   0  0  0  0  0  0  0  0  0  0  0  0
   63.6060   31.6190   50.0050 N   0  0  0  0  0  0  0  0  0  0  0  0
   64.9850   31.8820   50.3380 C   0  0  0  0  0  0  0  0  0  0  0  0
   65.7440   30.9300   51.0430 C   0  0  0  0  0  0  0  0  0  0  0  0
   67.0920   31.1730   51.3340 C   0  0  0  0  0  0  0  0  0  0  0  0
   67.6930   32.3680   50.9300 C   0  0  0  0  0  0  0  0  0  0  0  0
   66.9470   33.3250   50.2370 C   0  0  0  0  0  0  0  0  0  0  0  0
   65.5990   33.0860   49.9420 C   0  0  0  0  0  0  0  0  0  0  0  0
   62.9610   32.3590   48.9120 C   0  0  0  0  0  0  0  0  0  0  0  0
   62.0490   31.4300   48.1040 C   0  0  0  0  0  0  0  0  0  0  0  0
   59.6970   30.8780   46.4720 C   0  0  0  0  0  0  0  0  0  0  0  0
   58.0950   32.7160   48.1820 C   0  0  0  0  0  0  0  0  0  0  0  0
   58.6530   32.7340   49.4630 C   0  0  0  0  0  0  0  0  0  0  0  0
   59.5018   33.6812   54.4445 H   0  0  0  0  0  0  0  0  0  0  0  0
   61.0688   33.2408   53.6847 H   0  0  0  0  0  0  0  0  0  0  0  0
   60.5200   34.9512   53.6847 H   0  0  0  0  0  0  0  0  0  0  0  0
   61.2900   33.4650   51.1720 H   0  0  0  0  0  0  0  0  0  0  0  0
   60.9521   35.2270   49.0206 H   0  0  0  0  0  0  0  0  0  0  0  0
   59.9554   35.1892   46.7356 H   0  0  0  0  0  0  0  0  0  0  0  0
   58.0659   30.0111   43.5967 H   0  0  0  0  0  0  0  0  0  0  0  0
   58.5255   27.7346   44.4932 H   0  0  0  0  0  0  0  0  0  0  0  0
   60.7560   24.7465   45.9642 H   0  0  0  0  0  0  0  0  0  0  0  0
   59.3861   22.7541   45.3580 H   0  0  0  0  0  0  0  0  0  0  0  0
   56.8960   22.8960   45.3572 H   0  0  0  0  0  0  0  0  0  0  0  0
   54.8990   27.0450   46.7150 H   0  0  0  0  0  0  0  0  0  0  0  0
   57.1417   27.0534   46.5601 H   0  0  0  0  0  0  0  0  0  0  0  0
   60.8760   31.6631   50.7465 H   0  0  0  0  0  0  0  0  0  0  0  0
   60.8180   29.8748   50.9213 H   0  0  0  0  0  0  0  0  0  0  0  0
   62.8960   31.0190   51.8929 H   0  0  0  0  0  0  0  0  0  0  0  0
   63.2034   29.6854   50.7076 H   0  0  0  0  0  0  0  0  0  0  0  0
   65.2757   29.9891   51.3676 H   0  0  0  0  0  0  0  0  0  0  0  0
   67.6792   30.4214   51.8819 H   0  0  0  0  0  0  0  0  0  0  0  0
   68.7528   32.5553   51.1574 H   0  0  0  0  0  0  0  0  0  0  0  0
   67.4192   34.2675   49.9227 H   0  0  0  0  0  0  0  0  0  0  0  0
   65.0161   33.8435   49.3975 H   0  0  0  0  0  0  0  0  0  0  0  0
   62.3612   33.1789   49.3338 H   0  0  0  0  0  0  0  0  0  0  0  0
   63.7384   32.7631   48.2469 H   0  0  0  0  0  0  0  0  0  0  0  0
   61.3849   32.0419   47.4759 H   0  0  0  0  0  0  0  0  0  0  0  0
   62.6863   30.7772   47.4894 H   0  0  0  0  0  0  0  0  0  0  0  0
   60.0467   31.7689   47.0142 H   0  0  0  0  0  0  0  0  0  0  0  0
   57.2928   32.0019   47.9441 H   0  0  0  0  0  0  0  0  0  0  0  0
   58.2920   32.0286   50.2259 H   0  0  0  0  0  0  0  0  0  0  0  0
  1  2  1  0
  2  3  2  0
  2  4  1  0
  4  5  1  0
  5  6  2  0
  6  7  1  0
  7  8  2  0
  8  9  1  0
  9 10  2  0
  9 11  2  0
  9 12  1  0
 12 13  1  0
 13 14  2  0
 14 15  1  0
 15 16  2  0
 16 17  1  0
 17 18  1  0
 18 19  2  0
 19 20  1  0
 20 21  2  0
 21 22  1  0
 22 23  1  0
 23 24  1  0
 23 25  2  0
 22 26  2  0
 16 27  1  0
 27 28  1  0
 28 29  2  0
 28 30  1  0
 30 31  1  0
 31 32  1  0
 32 33  1  0
 33 34  1  0
 34 35  2  0
 35 36  1  0
 36 37  2  0
 37 38  1  0
 38 39  2  0
 33 40  1  0
 40 41  1  0
 27 42  2  0
  8 43  1  0
 43 44  2  0
 44  5  1  0
 42 13  1  0
 26 18  1  0
 41 30  1  0
 39 34  1  0
  1 45  1  0
  1 46  1  0
  1 47  1  0
  4 48  1  0
  6 49  1  0
  7 50  1  0
 14 51  1  0
 15 52  1  0
 19 53  1  0
 20 54  1  0
 21 55  1  0
 24 56  1  0
 26 57  1  0
 31 58  1  0
 31 59  1  0
 32 60  1  0
 32 61  1  0
 35 62  1  0
 36 63  1  0
 37 64  1  0
 38 65  1  0
 39 66  1  0
 40 67  1  0
 40 68  1  0
 41 69  1  0
 41 70  1  0
 42 71  1  0
 43 72  1  0
 44 73  1  0
M  CHG  2  12  -1  24  -1
M  END
>  <UniqueID>  (41) 
34

>  <SMILES>  (41) 
CC(=O)Nc1ccc(S(=O)(=O)[N-]c2ccc(Oc3cccc(C([NH-])=O)c3)c(C(=O)N3CCN(c4ccccc4)CC3)c2)cc1

>  <Energy>  (41) 
104.83469022717733

>  <Genealogy>  (41) 
CC(=O)Nc1ccc(S(=O)(=O)[N-]c2ccc(Oc3cccc(C([NH-])=O)c3)c(C(=O)N3CCN(c4ccccc4)CC3)c2)cc1 (protonated)
CC(=O)Nc1ccc(S(=O)(=O)[N-]c2ccc(Oc3cccc(C([NH-])=O)c3)c(C(=O)N3CCN(c4ccccc4)CC3)c2)cc1 (3D coordinates assigned)
CC(=O)Nc1ccc(S(=O)(=O)[N-]c2ccc(Oc3cccc(C([NH-])=O)c3)c(C(=O)N3CCN(c4ccccc4)CC3)c2)cc1 (nonaromatic ring conformer: 104.83469022717733 kcal/mol)

>  <smiles>  (41) 
CC(=O)Nc1ccc(S(=O)(=O)Nc2ccc(Oc3cccc(C(N)=O)c3)c(C(=O)N3CCN(c4ccccc4)CC3)c2)cc1

>  <score_type>  (41) 
oracle

>  <origin>  (41) 
adg

>  <m_score__min__energy>  (41) 
-15.5

>  <m_primary>  (41) 
energy

$$$$
41:0
     RDKit          3D

 49 50  0  0  0  0  0  0  0  0999 V2000
   63.9867   31.5718   46.8322 H   0  0  0  0  0  0  0  0  0  0  0  0
   63.1050   31.6050   47.4890 C   0  0  0  0  0  0  0  0  0  0  0  0
   63.2500   31.9960   48.7170 N   0  0  0  0  0  0  0  0  0  0  0  0
   63.1850   33.3240   49.0760 O   0  0  0  0  0  0  0  0  0  0  0  0
   63.4860   33.7220   50.4030 C   0  0  0  0  0  0  0  0  0  0  0  0
   62.9783   33.0507   51.1112 H   0  0  0  0  0  0  0  0  0  0  0  0
   64.5730   33.6703   50.5637 H   0  0  0  0  0  0  0  0  0  0  0  0
   63.1403   34.7538   50.5637 H   0  0  0  0  0  0  0  0  0  0  0  0
   61.8310   31.2150   46.9620 N   0  0  0  0  0  0  0  0  0  0  0  0
   61.5550   31.6210   46.0420 H   0  0  0  0  0  0  0  0  0  0  0  0
   61.0180   30.1880   47.5530 C   0  0  0  0  0  0  0  0  0  0  0  0
   61.3670   29.6460   48.6360 O   0  0  0  0  0  0  0  0  0  0  0  0
   59.7590   29.7580   46.9220 C   0  0  0  0  0  0  0  0  0  0  0  0
   59.2470   28.1550   46.8720 S   0  0  0  0  0  0  0  0  0  0  0  0
   57.8310   28.4430   46.0180 C   0  0  0  0  0  0  0  0  0  0  0  0
   56.9400   27.4080   45.5820 N   0  0  0  0  0  0  0  0  0  0  0  0
   56.6510   27.3980   44.5780 H   0  0  0  0  0  0  0  0  0  0  0  0
   56.5620   26.2930   46.3960 C   0  0  0  0  0  0  0  0  0  0  0  0
   57.1910   26.0440   47.4610 O   0  0  0  0  0  0  0  0  0  0  0  0
   55.5120   25.4680   45.9680 O   0  0  0  0  0  0  0  0  0  0  0  0
   55.6420   24.1640   45.3810 C   0  0  0  0  0  0  0  0  0  0  0  0
   56.5750   24.2100   44.1570 C   0  0  0  0  0  0  0  0  0  0  0  0
   57.6206   24.2616   44.4947 H   0  0  0  0  0  0  0  0  0  0  0  0
   56.4297   23.3036   43.5509 H   0  0  0  0  0  0  0  0  0  0  0  0
   56.3412   25.0977   43.5509 H   0  0  0  0  0  0  0  0  0  0  0  0
   56.1580   23.1510   46.4210 C   0  0  0  0  0  0  0  0  0  0  0  0
   55.9631   23.5337   47.4337 H   0  0  0  0  0  0  0  0  0  0  0  0
   55.6394   22.1904   46.2859 H   0  0  0  0  0  0  0  0  0  0  0  0
   57.2400   23.0057   46.2859 H   0  0  0  0  0  0  0  0  0  0  0  0
   54.2410   23.7320   44.9210 C   0  0  0  0  0  0  0  0  0  0  0  0
   53.6100   23.5374   45.8008 H   0  0  0  0  0  0  0  0  0  0  0  0
   53.7904   24.5329   44.3165 H   0  0  0  0  0  0  0  0  0  0  0  0
   54.3197   22.8164   44.3165 H   0  0  0  0  0  0  0  0  0  0  0  0
   57.7570   29.8010   45.7040 C   0  0  0  0  0  0  0  0  0  0  0  0
   56.7390   30.3710   44.8570 C   0  0  0  0  0  0  0  0  0  0  0  0
   55.9220   30.8290   44.1770 N   0  0  0  0  0  0  0  0  0  0  0  0
   58.8440   30.5420   46.2060 C   0  0  0  0  0  0  0  0  0  0  0  0
   59.0810   32.2900   45.8370 S   0  0  0  0  0  0  0  0  0  0  0  0
   59.2200   32.7500   47.5650 C   0  0  0  0  0  0  0  0  0  0  0  0
   60.0060   33.8480   47.9420 C   0  0  0  0  0  0  0  0  0  0  0  0
   60.5348   34.4336   47.1755 H   0  0  0  0  0  0  0  0  0  0  0  0
   60.1190   34.2000   49.2900 C   0  0  0  0  0  0  0  0  0  0  0  0
   60.7420   35.0576   49.5838 H   0  0  0  0  0  0  0  0  0  0  0  0
   59.4400   33.4620   50.2660 C   0  0  0  0  0  0  0  0  0  0  0  0
   59.5820   33.9040   51.9570 Cl  0  0  0  0  0  0  0  0  0  0  0  0
   58.6440   32.3740   49.8920 C   0  0  0  0  0  0  0  0  0  0  0  0
   58.1064   31.7963   50.6584 H   0  0  0  0  0  0  0  0  0  0  0  0
   58.5320   32.0210   48.5430 C   0  0  0  0  0  0  0  0  0  0  0  0
   57.9018   31.1685   48.2496 H   0  0  0  0  0  0  0  0  0  0  0  0
  1  2  1  0
  2  3  2  0
  3  4  1  0
  4  5  1  0
  5  6  1  0
  5  7  1  0
  5  8  1  0
  2  9  1  0
  9 10  1  0
  9 11  1  0
 11 12  2  0
 11 13  1  0
 13 14  1  0
 14 15  1  0
 15 16  1  0
 16 17  1  0
 16 18  1  0
 18 19  2  0
 18 20  1  0
 20 21  1  0
 21 22  1  0
 22 23  1  0
 22 24  1  0
 22 25  1  0
 21 26  1  0
 26 27  1  0
 26 28  1  0
 26 29  1  0
 21 30  1  0
 30 31  1  0
 30 32  1  0
 30 33  1  0
 15 34  2  0
 34 35  1  0
 35 36  3  0
 34 37  1  0
 37 38  1  0
 38 39  1  0
 39 40  2  0
 40 41  1  0
 40 42  1  0
 42 43  1  0
 42 44  2  0
 44 45  1  0
 44 46  1  0
 46 47  1  0
 46 48  2  0
 48 49  1  0
 37 13  2  0
 48 39  1  0
M  END
>  <UniqueID>  (42) 
35

>  <SMILES>  (42) 
CO/N=C\NC(=O)c1sc(NC(=O)OC(C)(C)C)c(C#N)c1Sc1ccc(Cl)cc1

>  <Energy>  (42) 
73.46376366340823

>  <Genealogy>  (42) 
CO/N=C\NC(=O)c1sc(NC(=O)OC(C)(C)C)c(C#N)c1Sc1ccc(Cl)cc1 (cis-trans isomerization)
CO/N=C\NC(=O)c1sc(NC(=O)OC(C)(C)C)c(C#N)c1Sc1ccc(Cl)cc1 (3D coordinates assigned)
CO/N=C\NC(=O)c1sc(NC(=O)OC(C)(C)C)c(C#N)c1Sc1ccc(Cl)cc1 (optimized conformer: 73.46376366340823 kcal/mol)

>  <smiles>  (42) 
CON=CNC(=O)c1sc(NC(=O)OC(C)(C)C)c(C#N)c1Sc1ccc(Cl)cc1

>  <score_type>  (42) 
oracle

>  <origin>  (42) 
adg

>  <m_score__min__energy>  (42) 
-7.5099999999999998

>  <m_primary>  (42) 
energy

$$$$
42:0
     RDKit          3D

 59 61  0  0  0  0  0  0  0  0999 V2000
   60.7430   28.8860   44.9680 C   0  0  0  0  0  0  0  0  0  0  0  0
   60.1230   28.3910   46.2720 C   0  0  0  0  0  0  0  0  0  0  0  0
   59.5540   26.9740   46.1060 C   0  0  0  0  0  0  0  0  0  0  0  0
   58.1460   26.8340   46.7160 C   0  0  0  0  0  0  0  0  0  0  0  0
   57.1020   26.4280   45.6680 C   0  0  0  0  0  0  0  0  0  0  0  0
   56.0140   27.3980   45.6180 N   0  0  0  0  0  0  0  0  0  0  0  0
   56.1880   28.7400   45.1560 C   0  0  0  0  0  0  0  0  0  0  0  0
   55.1760   29.4230   44.8420 O   0  0  0  0  0  0  0  0  0  0  0  0
   57.4730   29.2690   44.9970 O   0  0  0  0  0  0  0  0  0  0  0  0
   57.6950   30.4120   44.2270 C   0  0  0  0  0  0  0  0  0  0  0  0
   57.2030   30.4150   42.9220 C   0  0  0  0  0  0  0  0  0  0  0  0
   57.3200   31.5500   42.1260 C   0  0  0  0  0  0  0  0  0  0  0  0
   57.9230   32.7000   42.6340 C   0  0  0  0  0  0  0  0  0  0  0  0
   58.4320   32.7230   43.9430 C   0  0  0  0  0  0  0  0  0  0  0  0
   58.3480   31.5580   44.7500 C   0  0  0  0  0  0  0  0  0  0  0  0
   58.8500   31.5750   46.1840 C   0  0  0  0  0  0  0  0  0  0  0  0
   58.0900   32.5720   47.0760 C   0  0  0  0  0  0  0  0  0  0  0  0
   58.6220   33.9430   46.9200 N   0  0  0  0  0  0  0  0  0  0  0  0
   60.0980   33.9460   47.0080 C   0  0  0  0  0  0  0  0  0  0  0  0
   60.5490   33.4170   48.3450 C   0  0  0  0  0  0  0  0  0  0  0  0
   61.6660   32.5660   48.4380 C   0  0  0  0  0  0  0  0  0  0  0  0
   62.1160   32.1190   49.6850 C   0  0  0  0  0  0  0  0  0  0  0  0
   61.4560   32.5170   50.8500 C   0  0  0  0  0  0  0  0  0  0  0  0
   60.3460   33.3780   50.7770 C   0  0  0  0  0  0  0  0  0  0  0  0
   59.6170   33.7790   52.0250 C   0  0  0  0  0  0  0  0  0  0  0  0
   59.8880   33.8140   49.5210 C   0  0  0  0  0  0  0  0  0  0  0  0
   58.1730   34.5500   45.6460 C   0  0  0  0  0  0  0  0  0  0  0  0
   59.0010   34.0160   44.4800 C   0  0  0  0  0  0  0  0  0  0  0  0
   61.5843   29.5577   45.1938 H   0  0  0  0  0  0  0  0  0  0  0  0
   61.1061   28.0266   44.3852 H   0  0  0  0  0  0  0  0  0  0  0  0
   59.9854   29.4304   44.3852 H   0  0  0  0  0  0  0  0  0  0  0  0
   60.8946   28.3796   47.0559 H   0  0  0  0  0  0  0  0  0  0  0  0
   59.3023   29.0686   46.5500 H   0  0  0  0  0  0  0  0  0  0  0  0
   59.4997   26.7381   45.0330 H   0  0  0  0  0  0  0  0  0  0  0  0
   60.2213   26.2791   46.6369 H   0  0  0  0  0  0  0  0  0  0  0  0
   58.1752   26.0667   47.5036 H   0  0  0  0  0  0  0  0  0  0  0  0
   57.8542   27.8130   47.1239 H   0  0  0  0  0  0  0  0  0  0  0  0
   57.5838   26.3753   44.6805 H   0  0  0  0  0  0  0  0  0  0  0  0
   56.6876   25.4473   45.9446 H   0  0  0  0  0  0  0  0  0  0  0  0
   56.7188   29.5132   42.5191 H   0  0  0  0  0  0  0  0  0  0  0  0
   56.9365   31.5402   41.0951 H   0  0  0  0  0  0  0  0  0  0  0  0
   58.0009   33.5980   42.0035 H   0  0  0  0  0  0  0  0  0  0  0  0
   58.7339   30.5666   46.6078 H   0  0  0  0  0  0  0  0  0  0  0  0
   59.9030   31.8920   46.1599 H   0  0  0  0  0  0  0  0  0  0  0  0
   57.0264   32.5658   46.7954 H   0  0  0  0  0  0  0  0  0  0  0  0
   58.2163   32.2668   48.1252 H   0  0  0  0  0  0  0  0  0  0  0  0
   60.5093   33.3104   46.2100 H   0  0  0  0  0  0  0  0  0  0  0  0
   60.4587   34.9790   46.8945 H   0  0  0  0  0  0  0  0  0  0  0  0
   62.1892   32.2499   47.5234 H   0  0  0  0  0  0  0  0  0  0  0  0
   62.9899   31.4539   49.7481 H   0  0  0  0  0  0  0  0  0  0  0  0
   61.8057   32.1557   51.8284 H   0  0  0  0  0  0  0  0  0  0  0  0
   60.1949   33.4611   52.9054 H   0  0  0  0  0  0  0  0  0  0  0  0
   59.4936   34.8719   52.0424 H   0  0  0  0  0  0  0  0  0  0  0  0
   58.6279   33.2980   52.0424 H   0  0  0  0  0  0  0  0  0  0  0  0
   59.0071   34.4698   49.4580 H   0  0  0  0  0  0  0  0  0  0  0  0
   57.1137   34.3037   45.4809 H   0  0  0  0  0  0  0  0  0  0  0  0
   58.3032   35.6407   45.7055 H   0  0  0  0  0  0  0  0  0  0  0  0
   59.0086   34.7650   43.6744 H   0  0  0  0  0  0  0  0  0  0  0  0
   60.0210   33.8201   44.8422 H   0  0  0  0  0  0  0  0  0  0  0  0
  1  2  1  0
  2  3  1  0
  3  4  1  0
  4  5  1  0
  5  6  1  0
  6  7  1  0
  7  8  2  0
  7  9  1  0
  9 10  1  0
 10 11  2  0
 11 12  1  0
 12 13  2  0
 13 14  1  0
 14 15  2  0
 15 16  1  0
 16 17  1  0
 17 18  1  0
 18 19  1  0
 19 20  1  0
 20 21  2  0
 21 22  1  0
 22 23  2  0
 23 24  1  0
 24 25  1  0
 24 26  2  0
 18 27  1  0
 27 28  1  0
 15 10  1  0
 26 20  1  0
 28 14  1  0
  1 29  1  0
  1 30  1  0
  1 31  1  0
  2 32  1  0
  2 33  1  0
  3 34  1  0
  3 35  1  0
  4 36  1  0
  4 37  1  0
  5 38  1  0
  5 39  1  0
 11 40  1  0
 12 41  1  0
 13 42  1  0
 16 43  1  0
 16 44  1  0
 17 45  1  0
 17 46  1  0
 19 47  1  0
 19 48  1  0
 21 49  1  0
 22 50  1  0
 23 51  1  0
 25 52  1  0
 25 53  1  0
 25 54  1  0
 26 55  1  0
 27 56  1  0
 27 57  1  0
 28 58  1  0
 28 59  1  0
M  CHG  1   6  -1
M  END
>  <UniqueID>  (43) 
36

>  <SMILES>  (43) 
CCCCC[N-]C(=O)Oc1cccc2c1CCN(Cc1cccc(C)c1)CC2

>  <Energy>  (43) 
68.09894733981223

>  <Genealogy>  (43) 
CCCCC[N-]C(=O)Oc1cccc2c1CCN(Cc1cccc(C)c1)CC2 (protonated)
CCCCC[N-]C(=O)Oc1cccc2c1CCN(Cc1cccc(C)c1)CC2 (3D coordinates assigned)
CCCCC[N-]C(=O)Oc1cccc2c1CCN(Cc1cccc(C)c1)CC2 (nonaromatic ring conformer: 68.09894733981223 kcal/mol)

>  <smiles>  (43) 
CCCCCNC(=O)Oc1cccc2c1CCN(Cc1cccc(C)c1)CC2

>  <score_type>  (43) 
oracle

>  <origin>  (43) 
adg

>  <m_score__min__energy>  (43) 
-8.5500000000000007

>  <m_primary>  (43) 
energy

$$$$
43:0
     RDKit          3D

 17 17  0  0  0  0  0  0  0  0999 V2000
   56.4990   29.8100   42.5390 N   0  0  0  0  0  0  0  0  0  0  0  0
   56.4710   29.8640   44.2670 S   0  0  0  0  0  0  0  0  0  0  0  0
   56.6360   31.2840   44.7310 O   0  0  0  0  0  0  0  0  0  0  0  0
   55.1530   29.3430   44.7630 O   0  0  0  0  0  0  0  0  0  0  0  0
   57.7820   28.8750   44.9030 C   0  0  0  0  0  0  0  0  0  0  0  0
   59.1170   29.2100   44.6300 C   0  0  0  0  0  0  0  0  0  0  0  0
   60.1560   28.4290   45.1460 C   0  0  0  0  0  0  0  0  0  0  0  0
   59.8680   27.3150   45.9410 C   0  0  0  0  0  0  0  0  0  0  0  0
   60.8780   26.5610   46.4410 F   0  0  0  0  0  0  0  0  0  0  0  0
   58.5380   26.9820   46.2230 C   0  0  0  0  0  0  0  0  0  0  0  0
   58.2560   25.9060   46.9970 F   0  0  0  0  0  0  0  0  0  0  0  0
   57.4970   27.7610   45.7060 C   0  0  0  0  0  0  0  0  0  0  0  0
   57.3990   29.3580   42.2620 H   0  0  0  0  0  0  0  0  0  0  0  0
   55.7320   29.1660   42.2410 H   0  0  0  0  0  0  0  0  0  0  0  0
   59.3467   30.0884   44.0090 H   0  0  0  0  0  0  0  0  0  0  0  0
   61.2014   28.6913   44.9262 H   0  0  0  0  0  0  0  0  0  0  0  0
   56.4524   27.4990   45.9299 H   0  0  0  0  0  0  0  0  0  0  0  0
  1  2  1  0
  2  3  2  0
  2  4  2  0
  2  5  1  0
  5  6  2  0
  6  7  1  0
  7  8  2  0
  8  9  1  0
  8 10  1  0
 10 11  1  0
 10 12  2  0
 12  5  1  0
  1 13  1  0
  1 14  1  0
  6 15  1  0
  7 16  1  0
 12 17  1  0
M  END
>  <UniqueID>  (44) 
37

>  <SMILES>  (44) 
NS(=O)(=O)c1ccc(F)c(F)c1

>  <Energy>  (44) 
14.391196743651975

>  <Genealogy>  (44) 
NS(=O)(=O)c1ccc(F)c(F)c1 (3D coordinates assigned)
NS(=O)(=O)c1ccc(F)c(F)c1 (optimized conformer: 14.391196743651975 kcal/mol)

>  <smiles>  (44) 
NS(=O)(=O)c1ccc(F)c(F)c1

>  <score_type>  (44) 
oracle

>  <origin>  (44) 
adg

>  <m_score__min__energy>  (44) 
-5.6500000000000004

>  <m_primary>  (44) 
energy

$$$$
44:0
     RDKit          3D

 53 55  0  0  0  0  0  0  0  0999 V2000
   61.3990   34.2020   49.6940 C   0  0  0  0  0  0  0  0  0  0  0  0
   60.0160   33.8710   49.7720 O   0  0  0  0  0  0  0  0  0  0  0  0
   59.5100   32.5810   49.9990 C   0  0  0  0  0  0  0  0  0  0  0  0
   58.9340   32.2200   51.2340 C   0  0  0  0  0  0  0  0  0  0  0  0
   58.4530   30.9180   51.4580 C   0  0  0  0  0  0  0  0  0  0  0  0
   57.8510   30.5630   52.7750 C   0  0  0  0  0  0  0  0  0  0  0  0
   58.6020   30.2700   53.7450 O   0  0  0  0  0  0  0  0  0  0  0  0
   56.3660   30.5210   52.9930 C   0  0  0  0  0  0  0  0  0  0  0  0
   55.9160   29.1350   53.0220 N   0  0  0  0  0  0  0  0  0  0  0  0
   54.5630   28.7520   52.7590 C   0  0  0  0  0  0  0  0  0  0  0  0
   54.2430   27.5310   52.7840 O   0  0  0  0  0  0  0  0  0  0  0  0
   53.5410   29.7820   52.4590 C   0  0  0  0  0  0  0  0  0  0  0  0
   52.6280   30.1930   53.4490 C   0  0  0  0  0  0  0  0  0  0  0  0
   51.6660   31.1660   53.1650 C   0  0  0  0  0  0  0  0  0  0  0  0
   51.6020   31.7400   51.8930 C   0  0  0  0  0  0  0  0  0  0  0  0
   50.6460   32.7090   51.6130 O   0  0  0  0  0  0  0  0  0  0  0  0
   52.5020   31.3390   50.9020 C   0  0  0  0  0  0  0  0  0  0  0  0
   53.4670   30.3670   51.1810 C   0  0  0  0  0  0  0  0  0  0  0  0
   58.5650   29.9710   50.4240 C   0  0  0  0  0  0  0  0  0  0  0  0
   59.1320   30.3200   49.1990 C   0  0  0  0  0  0  0  0  0  0  0  0
   59.5890   31.6250   48.9640 C   0  0  0  0  0  0  0  0  0  0  0  0
   60.1960   31.9770   47.6220 C   0  0  0  0  0  0  0  0  0  0  0  0
   59.1540   32.4840   46.6450 C   0  0  0  0  0  0  0  0  0  0  0  0
   58.4280   31.5510   45.8790 C   0  0  0  0  0  0  0  0  0  0  0  0
   57.4840   31.9670   44.9240 C   0  0  0  0  0  0  0  0  0  0  0  0
   56.7440   30.9580   44.1170 C   0  0  0  0  0  0  0  0  0  0  0  0
   56.9660   30.8040   42.6430 C   0  0  0  0  0  0  0  0  0  0  0  0
   55.9060   30.2010   44.6780 O   0  0  0  0  0  0  0  0  0  0  0  0
   57.2630   33.3440   44.7480 C   0  0  0  0  0  0  0  0  0  0  0  0
   57.9650   34.2770   45.5110 C   0  0  0  0  0  0  0  0  0  0  0  0
   58.9030   33.8650   46.4610 C   0  0  0  0  0  0  0  0  0  0  0  0
   59.5520   34.8520   47.2040 O   0  0  0  0  0  0  0  0  0  0  0  0
   61.8103   34.3004   50.7095 H   0  0  0  0  0  0  0  0  0  0  0  0
   61.9365   33.4071   49.1562 H   0  0  0  0  0  0  0  0  0  0  0  0
   61.5184   35.1541   49.1562 H   0  0  0  0  0  0  0  0  0  0  0  0
   58.8596   32.9694   52.0358 H   0  0  0  0  0  0  0  0  0  0  0  0
   56.1225   31.0052   53.9502 H   0  0  0  0  0  0  0  0  0  0  0  0
   55.8608   31.0524   52.1730 H   0  0  0  0  0  0  0  0  0  0  0  0
   52.6723   29.7452   54.4527 H   0  0  0  0  0  0  0  0  0  0  0  0
   50.9573   31.4808   53.9451 H   0  0  0  0  0  0  0  0  0  0  0  0
   52.4509   31.7894   49.8998 H   0  0  0  0  0  0  0  0  0  0  0  0
   54.1732   30.0572   50.3966 H   0  0  0  0  0  0  0  0  0  0  0  0
   58.2017   28.9450   50.5834 H   0  0  0  0  0  0  0  0  0  0  0  0
   59.2221   29.5622   48.4068 H   0  0  0  0  0  0  0  0  0  0  0  0
   60.9553   32.7591   47.7695 H   0  0  0  0  0  0  0  0  0  0  0  0
   60.6427   31.0645   47.2004 H   0  0  0  0  0  0  0  0  0  0  0  0
   58.6032   30.4757   46.0311 H   0  0  0  0  0  0  0  0  0  0  0  0
   57.8585   30.1849   42.4693 H   0  0  0  0  0  0  0  0  0  0  0  0
   56.0893   30.3191   42.1888 H   0  0  0  0  0  0  0  0  0  0  0  0
   57.1132   31.7950   42.1888 H   0  0  0  0  0  0  0  0  0  0  0  0
   56.5308   33.6884   44.0028 H   0  0  0  0  0  0  0  0  0  0  0  0
   57.7778   35.3508   45.3629 H   0  0  0  0  0  0  0  0  0  0  0  0
   59.3590   35.0310   48.1780 H   0  0  0  0  0  0  0  0  0  0  0  0
  1  2  1  0
  2  3  1  0
  3  4  2  0
  4  5  1  0
  5  6  1  0
  6  7  2  0
  6  8  1  0
  8  9  1  0
  9 10  1  0
 10 11  2  0
 10 12  1  0
 12 13  2  0
 13 14  1  0
 14 15  2  0
 15 16  1  0
 15 17  1  0
 17 18  2  0
  5 19  2  0
 19 20  1  0
 20 21  2  0
 21 22  1  0
 22 23  1  0
 23 24  2  0
 24 25  1  0
 25 26  1  0
 26 27  1  0
 26 28  2  0
 25 29  2  0
 29 30  1  0
 30 31  2  0
 31 32  1  0
 21  3  1  0
 31 23  1  0
 18 12  1  0
  1 33  1  0
  1 34  1  0
  1 35  1  0
  4 36  1  0
  8 37  1  0
  8 38  1  0
 13 39  1  0
 14 40  1  0
 17 41  1  0
 18 42  1  0
 19 43  1  0
 20 44  1  0
 22 45  1  0
 22 46  1  0
 24 47  1  0
 27 48  1  0
 27 49  1  0
 27 50  1  0
 29 51  1  0
 30 52  1  0
 32 53  1  0
M  CHG  2   9  -1  16  -1
M  END
>  <UniqueID>  (45) 
38

>  <SMILES>  (45) 
COc1cc(C(=O)C[N-]C(=O)c2ccc([O-])cc2)ccc1Cc1cc(C(C)=O)ccc1O

>  <Energy>  (45) 
56.23824928869816

>  <Genealogy>  (45) 
COc1cc(C(=O)C[N-]C(=O)c2ccc([O-])cc2)ccc1Cc1cc(C(C)=O)ccc1O (protonated)
COc1cc(C(=O)C[N-]C(=O)c2ccc([O-])cc2)ccc1Cc1cc(C(C)=O)ccc1O (3D coordinates assigned)
COc1cc(C(=O)C[N-]C(=O)c2ccc([O-])cc2)ccc1Cc1cc(C(C)=O)ccc1O (optimized conformer: 56.23824928869816 kcal/mol)

>  <smiles>  (45) 
COc1cc(C(=O)CNC(=O)c2ccc(O)cc2)ccc1Cc1cc(C(C)=O)ccc1O

>  <score_type>  (45) 
oracle

>  <origin>  (45) 
adg

>  <m_score__min__energy>  (45) 
-14.550000000000001

>  <m_primary>  (45) 
energy

$$$$
45:0
     RDKit          3D

 45 47  0  0  0  0  0  0  0  0999 V2000
   63.9340   32.6580   50.8650 N   0  0  0  0  0  0  0  0  0  0  0  0
   63.2480   32.9510   49.7900 C   0  0  0  0  0  0  0  0  0  0  0  0
   63.8660   32.8590   48.5990 N   0  0  0  0  0  0  0  0  0  0  0  0
   63.2240   33.1460   47.4290 C   0  0  0  0  0  0  0  0  0  0  0  0
   63.9050   33.0240   46.3620 N   0  0  0  0  0  0  0  0  0  0  0  0
   61.9120   33.5360   47.5180 C   0  0  0  0  0  0  0  0  0  0  0  0
   61.2260   33.8360   46.3630 C   0  0  0  0  0  0  0  0  0  0  0  0
   59.9090   34.2250   46.4900 C   0  0  0  0  0  0  0  0  0  0  0  0
   59.0910   34.5680   45.2850 C   0  0  0  0  0  0  0  0  0  0  0  0
   58.4570   33.3540   44.7680 C   0  0  0  0  0  0  0  0  0  0  0  0
   58.8200   32.0860   45.2620 N   0  0  0  0  0  0  0  0  0  0  0  0
   57.8590   31.0360   45.2820 C   0  0  0  0  0  0  0  0  0  0  0  0
   56.7160   31.3000   44.8520 O   0  0  0  0  0  0  0  0  0  0  0  0
   58.1420   29.6980   45.7710 C   0  0  0  0  0  0  0  0  0  0  0  0
   59.3430   29.5130   46.4320 C   0  0  0  0  0  0  0  0  0  0  0  0
   59.7260   28.2830   46.9450 C   0  0  0  0  0  0  0  0  0  0  0  0
   58.8550   27.2230   46.7730 C   0  0  0  0  0  0  0  0  0  0  0  0
   57.6570   27.3880   46.1190 C   0  0  0  0  0  0  0  0  0  0  0  0
   56.6180   25.9900   45.9490 S   0  0  0  0  0  0  0  0  0  0  0  0
   56.9030   25.1780   44.4510 N   0  0  0  0  0  0  0  0  0  0  0  0
   56.9000   25.0540   47.0790 O   0  0  0  0  0  0  0  0  0  0  0  0
   55.1790   26.3820   45.9940 O   0  0  0  0  0  0  0  0  0  0  0  0
   57.3210   28.6260   45.6280 C   0  0  0  0  0  0  0  0  0  0  0  0
   59.2780   34.3170   47.7280 C   0  0  0  0  0  0  0  0  0  0  0  0
   59.9760   34.0120   48.9010 C   0  0  0  0  0  0  0  0  0  0  0  0
   61.2910   33.6260   48.7580 C   0  0  0  0  0  0  0  0  0  0  0  0
   61.9510   33.3350   49.9090 N   0  0  0  0  0  0  0  0  0  0  0  0
   63.5730   31.9490   51.5560 H   0  0  0  0  0  0  0  0  0  0  0  0
   64.8780   32.5540   48.5820 H   0  0  0  0  0  0  0  0  0  0  0  0
   64.9080   32.8110   46.3670 H   0  0  0  0  0  0  0  0  0  0  0  0
   61.7093   33.7681   45.3772 H   0  0  0  0  0  0  0  0  0  0  0  0
   58.3159   35.2974   45.5627 H   0  0  0  0  0  0  0  0  0  0  0  0
   59.7404   35.0025   44.5107 H   0  0  0  0  0  0  0  0  0  0  0  0
   57.3771   33.4632   44.9467 H   0  0  0  0  0  0  0  0  0  0  0  0
   58.8070   33.3200   43.7257 H   0  0  0  0  0  0  0  0  0  0  0  0
   59.7920   31.8710   45.6240 H   0  0  0  0  0  0  0  0  0  0  0  0
   60.0184   30.3725   46.5551 H   0  0  0  0  0  0  0  0  0  0  0  0
   60.6851   28.1555   47.4683 H   0  0  0  0  0  0  0  0  0  0  0  0
   59.1250   26.2316   47.1658 H   0  0  0  0  0  0  0  0  0  0  0  0
   56.7130   25.8960   43.6960 H   0  0  0  0  0  0  0  0  0  0  0  0
   57.9050   24.9280   44.3870 H   0  0  0  0  0  0  0  0  0  0  0  0
   56.3615   28.7523   45.1051 H   0  0  0  0  0  0  0  0  0  0  0  0
   58.2253   34.6311   47.7836 H   0  0  0  0  0  0  0  0  0  0  0  0
   59.4984   34.0771   49.8898 H   0  0  0  0  0  0  0  0  0  0  0  0
   61.4770   33.4030   50.8510 H   0  0  0  0  0  0  0  0  0  0  0  0
  1  2  2  3
  2  3  1  0
  3  4  1  0
  4  5  2  3
  4  6  1  0
  6  7  2  0
  7  8  1  0
  8  9  1  0
  9 10  1  0
 10 11  1  0
 11 12  1  0
 12 13  2  0
 12 14  1  0
 14 15  2  0
 15 16  1  0
 16 17  2  0
 17 18  1  0
 18 19  1  0
 19 20  1  0
 19 21  2  0
 19 22  2  0
 18 23  2  0
  8 24  2  0
 24 25  1  0
 25 26  2  0
 26 27  1  0
 27  2  1  0
 26  6  1  0
 23 14  1  0
  1 28  1  0
  3 29  1  0
  5 30  1  0
  7 31  1  0
  9 32  1  0
  9 33  1  0
 10 34  1  0
 10 35  1  0
 11 36  1  0
 15 37  1  0
 16 38  1  0
 17 39  1  0
 20 40  1  0
 20 41  1  0
 23 42  1  0
 24 43  1  0
 25 44  1  0
 27 45  1  0
M  END
>  <smiles>  (46) 
N=c1[nH]c(=N)c2cc(CCNC(=O)c3cccc(S(N)(=O)=O)c3)ccc2[nH]1

>  <score_type>  (46) 
oracle

>  <origin>  (46) 
adg

>  <m_score__min__energy>  (46) 
-9.8300000000000001

>  <m_primary>  (46) 
energy

$$$$
46:0
     RDKit          3D

 35 37  0  0  0  0  0  0  0  0999 V2000
   57.8200   25.1570   47.3510 C   0  0  0  0  0  0  0  0  0  0  0  0
   57.6880   25.1760   45.8700 C   0  0  0  0  0  0  0  0  0  0  0  0
   57.8950   26.3400   45.1290 C   0  0  0  0  0  0  0  0  0  0  0  0
   58.2540   27.5700   45.8840 C   0  0  0  0  0  0  0  0  0  0  0  0
   57.6980   28.7500   45.1640 C   0  0  0  0  0  0  0  0  0  0  0  0
   58.5920   29.6930   44.6470 C   0  0  0  0  0  0  0  0  0  0  0  0
   58.0920   30.7890   43.9790 C   0  0  0  0  0  0  0  0  0  0  0  0
   56.7390   30.9390   43.8330 C   0  0  0  0  0  0  0  0  0  0  0  0
   55.8760   29.9920   44.3550 C   0  0  0  0  0  0  0  0  0  0  0  0
   56.3700   28.9230   45.0050 N   0  0  0  0  0  0  0  0  0  0  0  0
   57.7730   26.3620   43.7530 C   0  0  0  0  0  0  0  0  0  0  0  0
   57.4400   25.2210   43.0530 C   0  0  0  0  0  0  0  0  0  0  0  0
   57.2330   24.0630   43.7680 C   0  0  0  0  0  0  0  0  0  0  0  0
   56.9060   22.9300   43.1120 N   0  0  0  0  0  0  0  0  0  0  0  0
   56.6910   21.7590   43.7700 C   0  0  0  0  0  0  0  0  0  0  0  0
   56.3780   20.7010   43.0720 N   0  0  0  0  0  0  0  0  0  0  0  0
   56.8070   21.7290   45.1100 N   0  0  0  0  0  0  0  0  0  0  0  0
   57.1320   22.8440   45.7920 C   0  0  0  0  0  0  0  0  0  0  0  0
   57.2320   22.7670   47.0680 N   0  0  0  0  0  0  0  0  0  0  0  0
   57.3570   24.0450   45.1610 C   0  0  0  0  0  0  0  0  0  0  0  0
   56.8302   25.2995   47.8092 H   0  0  0  0  0  0  0  0  0  0  0  0
   58.2358   24.1897   47.6697 H   0  0  0  0  0  0  0  0  0  0  0  0
   58.4917   25.9677   47.6697 H   0  0  0  0  0  0  0  0  0  0  0  0
   57.8287   27.5201   46.8972 H   0  0  0  0  0  0  0  0  0  0  0  0
   59.3478   27.6579   45.9602 H   0  0  0  0  0  0  0  0  0  0  0  0
   59.6770   29.5616   44.7718 H   0  0  0  0  0  0  0  0  0  0  0  0
   58.7781   31.5419   43.5639 H   0  0  0  0  0  0  0  0  0  0  0  0
   56.3376   31.8135   43.3000 H   0  0  0  0  0  0  0  0  0  0  0  0
   54.7889   30.1129   44.2388 H   0  0  0  0  0  0  0  0  0  0  0  0
   57.9437   27.3022   43.2082 H   0  0  0  0  0  0  0  0  0  0  0  0
   57.3429   25.2360   41.9574 H   0  0  0  0  0  0  0  0  0  0  0  0
   56.8230   22.9880   42.0600 H   0  0  0  0  0  0  0  0  0  0  0  0
   56.9870   19.8670   43.2180 H   0  0  0  0  0  0  0  0  0  0  0  0
   56.6400   20.8190   45.6130 H   0  0  0  0  0  0  0  0  0  0  0  0
   57.7730   21.9860   47.5010 H   0  0  0  0  0  0  0  0  0  0  0  0
  1  2  1  0
  2  3  2  0
  3  4  1  0
  4  5  1  0
  5  6  2  0
  6  7  1  0
  7  8  2  0
  8  9  1  0
  9 10  2  0
  3 11  1  0
 11 12  2  0
 12 13  1  0
 13 14  1  0
 14 15  1  0
 15 16  2  3
 15 17  1  0
 17 18  1  0
 18 19  2  3
 18 20  1  0
 20  2  1  0
 10  5  1  0
 20 13  2  0
  1 21  1  0
  1 22  1  0
  1 23  1  0
  4 24  1  0
  4 25  1  0
  6 26  1  0
  7 27  1  0
  8 28  1  0
  9 29  1  0
 11 30  1  0
 12 31  1  0
 14 32  1  0
 16 33  1  0
 17 34  1  0
 19 35  1  0
M  END
>  <smiles>  (47) 
Cc1c(Cc2ccccn2)ccc2[nH]c(=N)[nH]c(=N)c12

>  <score_type>  (47) 
oracle

>  <origin>  (47) 
adg

>  <m_score__min__energy>  (47) 
-7.0800000000000001

>  <m_primary>  (47) 
energy

$$$$
47:0
     RDKit          3D

 63 67  0  0  0  0  0  0  0  0999 V2000
   50.7240   23.2260   44.9710 C   0  0  0  0  0  0  0  0  0  0  0  0
   51.7490   22.2940   45.3000 O   0  0  0  0  0  0  0  0  0  0  0  0
   52.8470   22.5830   46.1230 C   0  0  0  0  0  0  0  0  0  0  0  0
   52.8910   22.2000   47.4930 C   0  0  0  0  0  0  0  0  0  0  0  0
   54.0050   22.5130   48.2910 C   0  0  0  0  0  0  0  0  0  0  0  0
   55.0540   23.2130   47.7010 C   0  0  0  0  0  0  0  0  0  0  0  0
   56.2030   23.5990   48.2810 N   0  0  0  0  0  0  0  0  0  0  0  0
   56.9150   24.2280   47.3180 C   0  0  0  0  0  0  0  0  0  0  0  0
   56.2030   24.2490   46.1230 C   0  0  0  0  0  0  0  0  0  0  0  0
   56.6840   24.7790   44.8070 C   0  0  0  0  0  0  0  0  0  0  0  0
   57.4250   26.0610   45.0150 C   0  0  0  0  0  0  0  0  0  0  0  0
   58.7680   26.1730   44.9590 N   0  0  0  0  0  0  0  0  0  0  0  0
   58.9990   27.4530   45.3210 C   0  0  0  0  0  0  0  0  0  0  0  0
   60.1590   27.9390   45.3750 O   0  0  0  0  0  0  0  0  0  0  0  0
   57.8720   28.1530   45.6100 N   0  0  0  0  0  0  0  0  0  0  0  0
   57.7270   29.5260   46.1270 C   0  0  2  0  0  0  0  0  0  0  0  0
   57.9080   30.6350   45.0470 C   0  0  0  0  0  0  0  0  0  0  0  0
   58.3250   31.9930   45.5610 C   0  0  0  0  0  0  0  0  0  0  0  0
   57.3840   33.0340   45.6430 C   0  0  0  0  0  0  0  0  0  0  0  0
   57.7610   34.2940   46.1190 C   0  0  0  0  0  0  0  0  0  0  0  0
   59.0740   34.5190   46.5330 C   0  0  0  0  0  0  0  0  0  0  0  0
   60.0130   33.4840   46.4770 C   0  0  0  0  0  0  0  0  0  0  0  0
   59.6400   32.2240   46.0010 C   0  0  0  0  0  0  0  0  0  0  0  0
   58.5710   29.7180   47.3680 C   0  0  0  0  0  0  0  0  0  0  0  0
   58.3660   30.7350   48.0850 O   0  0  0  0  0  0  0  0  0  0  0  0
   59.5410   28.7430   47.7810 N   0  0  0  0  0  0  0  0  0  0  0  0
   60.0790   28.7120   49.1390 C   0  0  0  0  0  0  0  0  0  0  0  0
   61.1270   29.7820   49.3020 C   0  0  0  0  0  0  0  0  0  0  0  0
   61.7760   29.9680   50.5370 C   0  0  0  0  0  0  0  0  0  0  0  0
   62.7860   30.9270   50.6640 C   0  0  0  0  0  0  0  0  0  0  0  0
   63.4060   31.1030   51.8570 F   0  0  0  0  0  0  0  0  0  0  0  0
   63.1570   31.7010   49.5620 C   0  0  0  0  0  0  0  0  0  0  0  0
   62.5240   31.5160   48.3290 C   0  0  0  0  0  0  0  0  0  0  0  0
   62.8940   32.2610   47.2590 F   0  0  0  0  0  0  0  0  0  0  0  0
   61.5110   30.5610   48.1980 C   0  0  0  0  0  0  0  0  0  0  0  0
   56.8840   27.2610   45.4190 C   0  0  0  0  0  0  0  0  0  0  0  0
   55.5320   27.5170   45.6240 O   0  0  0  0  0  0  0  0  0  0  0  0
   55.0180   23.5860   46.3830 C   0  0  0  0  0  0  0  0  0  0  0  0
   53.9350   23.2780   45.5610 C   0  0  0  0  0  0  0  0  0  0  0  0
   50.2828   23.6272   45.8953 H   0  0  0  0  0  0  0  0  0  0  0  0
   51.1529   24.0499   44.3818 H   0  0  0  0  0  0  0  0  0  0  0  0
   49.9445   22.7209   44.3818 H   0  0  0  0  0  0  0  0  0  0  0  0
   52.0438   21.6529   47.9323 H   0  0  0  0  0  0  0  0  0  0  0  0
   54.0467   22.2142   49.3488 H   0  0  0  0  0  0  0  0  0  0  0  0
   56.4970   23.4340   49.2700 H   0  0  0  0  0  0  0  0  0  0  0  0
   57.9159   24.6617   47.4598 H   0  0  0  0  0  0  0  0  0  0  0  0
   57.3539   24.0421   44.3399 H   0  0  0  0  0  0  0  0  0  0  0  0
   55.8192   24.9626   44.1525 H   0  0  0  0  0  0  0  0  0  0  0  0
   56.6773   29.6522   46.4307 H   0  0  0  0  0  0  0  0  0  0  0  0
   58.6756   30.2927   44.3374 H   0  0  0  0  0  0  0  0  0  0  0  0
   56.9144   30.7785   44.5974 H   0  0  0  0  0  0  0  0  0  0  0  0
   56.3443   32.8565   45.3308 H   0  0  0  0  0  0  0  0  0  0  0  0
   57.0221   35.1075   46.1669 H   0  0  0  0  0  0  0  0  0  0  0  0
   59.3710   35.5111   46.9038 H   0  0  0  0  0  0  0  0  0  0  0  0
   61.0468   33.6620   46.8081 H   0  0  0  0  0  0  0  0  0  0  0  0
   60.3787   31.4095   45.9705 H   0  0  0  0  0  0  0  0  0  0  0  0
   59.8240   27.9840   47.1270 H   0  0  0  0  0  0  0  0  0  0  0  0
   59.2647   28.8870   49.8576 H   0  0  0  0  0  0  0  0  0  0  0  0
   60.5350   27.7283   49.3246 H   0  0  0  0  0  0  0  0  0  0  0  0
   61.4879   29.3571   51.4052 H   0  0  0  0  0  0  0  0  0  0  0  0
   63.9488   32.4577   49.6644 H   0  0  0  0  0  0  0  0  0  0  0  0
   61.0133   30.4193   47.2273 H   0  0  0  0  0  0  0  0  0  0  0  0
   53.9305   23.5704   44.5006 H   0  0  0  0  0  0  0  0  0  0  0  0
  1  2  1  0
  2  3  1  0
  3  4  2  0
  4  5  1  0
  5  6  2  0
  6  7  1  0
  7  8  1  0
  8  9  2  0
  9 10  1  0
 10 11  1  0
 11 12  1  0
 12 13  1  0
 13 14  2  0
 13 15  1  0
 15 16  1  0
 16 17  1  0
 17 18  1  0
 18 19  2  0
 19 20  1  0
 20 21  2  0
 21 22  1  0
 22 23  2  0
 16 24  1  0
 24 25  2  0
 24 26  1  0
 26 27  1  0
 27 28  1  0
 28 29  2  0
 29 30  1  0
 30 31  1  0
 30 32  2  0
 32 33  1  0
 33 34  1  0
 33 35  2  0
 15 36  1  0
 36 37  1  0
  9 38  1  0
 38 39  2  0
 39  3  1  0
 38  6  1  0
 36 11  2  0
 23 18  1  0
 35 28  1  0
  1 40  1  0
  1 41  1  0
  1 42  1  0
  4 43  1  0
  5 44  1  0
  7 45  1  0
  8 46  1  0
 10 47  1  0
 10 48  1  0
 16 49  1  1
 17 50  1  0
 17 51  1  0
 19 52  1  0
 20 53  1  0
 21 54  1  0
 22 55  1  0
 23 56  1  0
 26 57  1  0
 27 58  1  0
 27 59  1  0
 29 60  1  0
 32 61  1  0
 35 62  1  0
 39 63  1  0
M  CHG  2  12  -1  37  -1
M  END
>  <UniqueID>  (48) 
39

>  <SMILES>  (48) 
COc1ccc2[nH]cc(Cc3[n-]c(=O)n([C@H](Cc4ccccc4)C(=O)NCc4cc(F)cc(F)c4)c3[O-])c2c1

>  <Energy>  (48) 
130.05092011140462

>  <Genealogy>  (48) 
COc1ccc2[nH]cc(Cc3[n-]c(=O)n(C(Cc4ccccc4)C(=O)NCc4cc(F)cc(F)c4)c3[O-])c2c1 (protonated)
COc1ccc2[nH]cc(Cc3[n-]c(=O)n([C@H](Cc4ccccc4)C(=O)NCc4cc(F)cc(F)c4)c3[O-])c2c1 (chirality)
COc1ccc2[nH]cc(Cc3[n-]c(=O)n([C@H](Cc4ccccc4)C(=O)NCc4cc(F)cc(F)c4)c3[O-])c2c1 (3D coordinates assigned)
COc1ccc2[nH]cc(Cc3[n-]c(=O)n([C@H](Cc4ccccc4)C(=O)NCc4cc(F)cc(F)c4)c3[O-])c2c1 (optimized conformer: 130.05092011140462 kcal/mol)

>  <smiles>  (48) 
COc1ccc2[nH]cc(Cc3[nH]c(=O)n(C(Cc4ccccc4)C(=O)NCc4cc(F)cc(F)c4)c3O)c2c1

>  <score_type>  (48) 
oracle

>  <origin>  (48) 
adg

>  <m_score__min__energy>  (48) 
-13.56

>  <m_primary>  (48) 
energy

$$$$
48:0
     RDKit          3D

 45 47  0  0  1  0  0  0  0  0999 V2000
   63.1720   31.2350   50.0060 C   0  0  0  0  0  0  0  0  0  0  0  0
   61.7690   31.3120   49.9200 O   0  0  0  0  0  0  0  0  0  0  0  0
   61.0590   30.3710   49.2190 C   0  0  0  0  0  0  0  0  0  0  0  0
   60.6860   30.7200   47.9180 C   0  0  0  0  0  0  0  0  0  0  0  0
   59.9780   29.8210   47.1760 C   0  0  0  0  0  0  0  0  0  0  0  0
   59.6270   28.5780   47.6940 C   0  0  0  0  0  0  0  0  0  0  0  0
   58.8540   27.6080   46.8930 C   0  0  0  0  0  0  0  0  0  0  0  0
   58.1640   26.7200   47.4580 O   0  0  0  0  0  0  0  0  0  0  0  0
   58.8900   27.6820   45.3960 C   0  0  0  0  0  0  0  0  0  0  0  0
   57.3760   28.3570   44.7490 S   0  0  0  0  0  0  0  0  0  0  0  0
   57.4490   30.0770   44.2990 C   0  0  0  0  0  0  0  0  0  0  0  0
   57.4790   30.9740   45.2940 N   0  0  0  0  0  0  0  0  0  0  0  0
   57.5140   32.3020   45.0820 C   0  0  0  0  0  0  0  0  0  0  0  0
   57.4070   33.1680   46.2160 C   0  0  0  0  0  0  0  0  0  0  0  0
   58.1740   34.1590   46.5500 C   0  0  0  0  0  0  0  0  0  0  0  0
   59.5440   34.1180   46.9730 C   0  0  0  0  0  0  0  0  0  0  0  0
   59.8060   34.2340   48.3210 C   0  0  0  0  0  0  0  0  0  0  0  0
   61.0520   34.0910   48.8640 C   0  0  0  0  0  0  0  0  0  0  0  0
   62.1360   33.8170   48.0650 C   0  0  0  0  0  0  0  0  0  0  0  0
   61.9320   33.6900   46.7060 C   0  0  0  0  0  0  0  0  0  0  0  0
   60.6420   33.8400   46.1780 C   0  0  0  0  0  0  0  0  0  0  0  0
   57.5130   32.6820   43.7490 C   0  0  0  0  0  0  0  0  0  0  0  0
   57.4820   31.7290   42.7180 C   0  0  0  0  0  0  0  0  0  0  0  0
   57.4850   32.0930   41.5180 O   0  0  0  0  0  0  0  0  0  0  0  0
   57.4500   30.4040   42.9960 N   0  0  0  0  0  0  0  0  0  0  0  0
   59.9970   28.2340   48.9800 C   0  0  0  0  0  0  0  0  0  0  0  0
   60.7240   29.1560   49.7400 C   0  0  0  0  0  0  0  0  0  0  0  0
   63.4742   31.2184   51.0636 H   0  0  0  0  0  0  0  0  0  0  0  0
   63.5198   30.3164   49.5108 H   0  0  0  0  0  0  0  0  0  0  0  0
   63.6183   32.1100   49.5108 H   0  0  0  0  0  0  0  0  0  0  0  0
   60.9582   31.7007   47.5007 H   0  0  0  0  0  0  0  0  0  0  0  0
   59.6792   30.0830   46.1503 H   0  0  0  0  0  0  0  0  0  0  0  0
   59.7291   28.3233   45.0885 H   0  0  0  0  0  0  0  0  0  0  0  0
   59.0149   26.6635   44.9996 H   0  0  0  0  0  0  0  0  0  0  0  0
   56.5638   32.9669   46.8932 H   0  0  0  0  0  0  0  0  0  0  0  0
   57.7157   35.1579   46.5029 H   0  0  0  0  0  0  0  0  0  0  0  0
   58.9664   34.4537   48.9968 H   0  0  0  0  0  0  0  0  0  0  0  0
   61.1884   34.1962   49.9504 H   0  0  0  0  0  0  0  0  0  0  0  0
   63.1408   33.7018   48.4977 H   0  0  0  0  0  0  0  0  0  0  0  0
   62.7791   33.4717   46.0391 H   0  0  0  0  0  0  0  0  0  0  0  0
   60.4974   33.7329   45.0928 H   0  0  0  0  0  0  0  0  0  0  0  0
   57.5370   33.7517   43.4936 H   0  0  0  0  0  0  0  0  0  0  0  0
   57.4270   29.6710   42.2430 H   0  0  0  0  0  0  0  0  0  0  0  0
   59.7250   27.2536   49.3982 H   0  0  0  0  0  0  0  0  0  0  0  0
   61.0278   28.8992   50.7656 H   0  0  0  0  0  0  0  0  0  0  0  0
  1  2  1  0
  2  3  1  0
  3  4  2  0
  4  5  1  0
  5  6  2  0
  6  7  1  0
  7  8  2  0
  7  9  1  0
  9 10  1  0
 10 11  1  0
 11 12  2  0
 12 13  1  0
 13 14  1  0
 14 15  2  0
 15 16  1  0
 16 17  2  0
 17 18  1  0
 18 19  2  0
 19 20  1  0
 20 21  2  0
 13 22  2  0
 22 23  1  0
 23 24  2  0
 23 25  1  0
  6 26  1  0
 26 27  2  0
 27  3  1  0
 25 11  1  0
 21 16  1  0
  1 28  1  0
  1 29  1  0
  1 30  1  0
  4 31  1  0
  5 32  1  0
  9 33  1  0
  9 34  1  0
 14 35  1  0
 15 36  1  0
 17 37  1  0
 18 38  1  0
 19 39  1  0
 20 40  1  0
 21 41  1  0
 22 42  1  0
 25 43  1  0
 26 44  1  0
 27 45  1  0
M  END
>  <smiles>  (49) 
COc1ccc(C(=O)CSc2nc(C=Cc3ccccc3)cc(=O)[nH]2)cc1

>  <score_type>  (49) 
oracle

>  <origin>  (49) 
adg

>  <m_score__min__energy>  (49) 
-9.0700000000000003

>  <m_primary>  (49) 
energy

$$$$
49:0
     RDKit          3D

 51 54  0  0  0  0  0  0  0  0999 V2000
   55.8320   35.3360   45.3600 H   0  0  0  0  0  0  0  0  0  0  0  0
   56.6010   34.9260   44.8440 O   0  0  0  0  0  0  0  0  0  0  0  0
   57.6440   34.2900   45.5090 C   0  0  0  0  0  0  0  0  0  0  0  0
   58.3040   34.8860   46.5350 N   0  0  0  0  0  0  0  0  0  0  0  0
   59.2790   34.0860   47.0230 C   0  0  0  0  0  0  0  0  0  0  0  0
   60.1520   34.4690   47.9060 N   0  0  0  0  0  0  0  0  0  0  0  0
   61.5140   34.0170   47.9560 C   0  0  0  0  0  0  0  0  0  0  0  0
   62.2540   33.7710   46.7860 C   0  0  0  0  0  0  0  0  0  0  0  0
   61.7933   33.9361   45.8009 H   0  0  0  0  0  0  0  0  0  0  0  0
   63.5740   33.3170   46.8710 C   0  0  0  0  0  0  0  0  0  0  0  0
   64.1499   33.1266   45.9533 H   0  0  0  0  0  0  0  0  0  0  0  0
   64.1620   33.1050   48.1210 C   0  0  0  0  0  0  0  0  0  0  0  0
   65.1975   32.7396   48.1865 H   0  0  0  0  0  0  0  0  0  0  0  0
   63.4350   33.3570   49.2880 C   0  0  0  0  0  0  0  0  0  0  0  0
   64.1640   33.0590   50.8550 Cl  0  0  0  0  0  0  0  0  0  0  0  0
   62.1210   33.8290   49.2060 C   0  0  0  0  0  0  0  0  0  0  0  0
   61.5614   34.0537   50.1260 H   0  0  0  0  0  0  0  0  0  0  0  0
   59.3580   32.6110   46.2160 S   0  0  0  0  0  0  0  0  0  0  0  0
   58.1130   33.0270   45.1530 C   0  0  0  0  0  0  0  0  0  0  0  0
   57.6560   32.2330   43.9600 C   0  0  0  0  0  0  0  0  0  0  0  0
   58.5367   32.0040   43.3420 H   0  0  0  0  0  0  0  0  0  0  0  0
   56.9130   32.8535   43.4375 H   0  0  0  0  0  0  0  0  0  0  0  0
   56.9650   30.9290   44.3000 C   0  0  0  0  0  0  0  0  0  0  0  0
   56.3090   30.3580   43.3910 O   0  0  0  0  0  0  0  0  0  0  0  0
   57.0300   30.2910   45.5880 N   0  0  0  0  0  0  0  0  0  0  0  0
   57.4260   28.9440   45.8720 C   0  0  0  0  0  0  0  0  0  0  0  0
   58.1450   28.6170   47.0300 C   0  0  0  0  0  0  0  0  0  0  0  0
   58.5583   29.4150   47.6644 H   0  0  0  0  0  0  0  0  0  0  0  0
   58.3370   27.2760   47.3790 C   0  0  0  0  0  0  0  0  0  0  0  0
   58.8850   27.0236   48.2988 H   0  0  0  0  0  0  0  0  0  0  0  0
   57.8330   26.2470   46.5600 C   0  0  0  0  0  0  0  0  0  0  0  0
   57.8760   24.8360   47.0030 C   0  0  0  0  0  0  0  0  0  0  0  0
   57.4180   24.5160   48.1340 O   0  0  0  0  0  0  0  0  0  0  0  0
   58.5120   23.8460   46.1840 N   0  0  0  0  0  0  0  0  0  0  0  0
   57.8540   23.1240   45.1370 C   0  0  0  0  0  0  0  0  0  0  0  0
   57.2160   23.8570   44.1270 C   0  0  0  0  0  0  0  0  0  0  0  0
   57.1826   24.9549   44.1870 H   0  0  0  0  0  0  0  0  0  0  0  0
   56.6230   23.2040   43.0460 C   0  0  0  0  0  0  0  0  0  0  0  0
   56.1336   23.7880   42.2526 H   0  0  0  0  0  0  0  0  0  0  0  0
   56.6500   21.8100   42.9700 C   0  0  0  0  0  0  0  0  0  0  0  0
   56.2004   21.2973   42.1069 H   0  0  0  0  0  0  0  0  0  0  0  0
   57.2480   21.0670   43.9900 C   0  0  0  0  0  0  0  0  0  0  0  0
   57.2567   19.9686   43.9315 H   0  0  0  0  0  0  0  0  0  0  0  0
   57.8380   21.7100   45.0890 C   0  0  0  0  0  0  0  0  0  0  0  0
   58.3550   20.9190   46.1670 N   0  0  0  0  0  0  0  0  0  0  0  0
   58.4810   21.3350   47.1170 H   0  0  0  0  0  0  0  0  0  0  0  0
   58.6960   19.9460   46.0160 H   0  0  0  0  0  0  0  0  0  0  0  0
   57.2170   26.5870   45.3430 C   0  0  0  0  0  0  0  0  0  0  0  0
   56.8830   25.7935   44.6583 H   0  0  0  0  0  0  0  0  0  0  0  0
   57.0270   27.9270   44.9990 C   0  0  0  0  0  0  0  0  0  0  0  0
   56.5610   28.1839   44.0363 H   0  0  0  0  0  0  0  0  0  0  0  0
  1  2  1  0
  2  3  1  0
  3  4  1  0
  4  5  1  0
  5  6  2  0
  6  7  1  0
  7  8  2  0
  8  9  1  0
  8 10  1  0
 10 11  1  0
 10 12  2  0
 12 13  1  0
 12 14  1  0
 14 15  1  0
 14 16  2  0
 16 17  1  0
  5 18  1  0
 18 19  1  0
 19 20  1  0
 20 21  1  0
 20 22  1  0
 20 23  1  0
 23 24  2  0
 23 25  1  0
 25 26  1  0
 26 27  2  0
 27 28  1  0
 27 29  1  0
 29 30  1  0
 29 31  2  0
 31 32  1  0
 32 33  2  0
 32 34  1  0
 34 35  1  0
 35 36  2  0
 36 37  1  0
 36 38  1  0
 38 39  1  0
 38 40  2  0
 40 41  1  0
 40 42  1  0
 42 43  1  0
 42 44  2  0
 44 45  1  0
 45 46  1  0
 45 47  1  0
 31 48  1  0
 48 49  1  0
 48 50  2  0
 50 51  1  0
 19  3  2  0
 50 26  1  0
 16  7  1  0
 44 35  1  0
M  CHG  3   4  -1  25  -1  34  -1
M  END
>  <UniqueID>  (50) 
40

>  <SMILES>  (50) 
Nc1ccccc1[N-]C(=O)c1ccc([N-]C(=O)Cc2s/c(=N/c3cccc(Cl)c3)[n-]c2O)cc1

>  <Energy>  (50) 
99.85053051336192

>  <Genealogy>  (50) 
Nc1ccccc1[N-]C(=O)c1ccc([N-]C(=O)Cc2sc(=Nc3cccc(Cl)c3)[n-]c2O)cc1 (protonated)
Nc1ccccc1[N-]C(=O)c1ccc([N-]C(=O)Cc2s/c(=N/c3cccc(Cl)c3)[n-]c2O)cc1 (cis-trans isomerization)
Nc1ccccc1[N-]C(=O)c1ccc([N-]C(=O)Cc2s/c(=N/c3cccc(Cl)c3)[n-]c2O)cc1 (3D coordinates assigned)
Nc1ccccc1[N-]C(=O)c1ccc([N-]C(=O)Cc2s/c(=N/c3cccc(Cl)c3)[n-]c2O)cc1 (optimized conformer: 99.85053051336192 kcal/mol)

>  <smiles>  (50) 
Nc1ccccc1NC(=O)c1ccc(NC(=O)Cc2sc(=Nc3cccc(Cl)c3)[nH]c2O)cc1

>  <score_type>  (50) 
oracle

>  <origin>  (50) 
adg

>  <m_score__min__energy>  (50) 
-14.23

>  <m_primary>  (50) 
energy

$$$$
50:0
     RDKit          3D

 26 27  0  0  0  0  0  0  0  0999 V2000
   56.6430   30.3820   42.6230 C   0  0  0  0  0  0  0  0  0  0  0  0
   56.4800   30.3890   44.1100 C   0  0  0  0  0  0  0  0  0  0  0  0
   55.3930   29.9890   44.6050 O   0  0  0  0  0  0  0  0  0  0  0  0
   57.5920   30.7920   45.0000 C   0  0  0  0  0  0  0  0  0  0  0  0
   58.4880   29.9840   45.7020 C   0  0  0  0  0  0  0  0  0  0  0  0
   58.4500   28.5170   45.8630 C   0  0  0  0  0  0  0  0  0  0  0  0
   59.6510   27.7930   45.9130 C   0  0  0  0  0  0  0  0  0  0  0  0
   59.6310   26.4080   46.0880 C   0  0  0  0  0  0  0  0  0  0  0  0
   58.4160   25.7340   46.2290 C   0  0  0  0  0  0  0  0  0  0  0  0
   57.2020   26.4440   46.2060 C   0  0  0  0  0  0  0  0  0  0  0  0
   55.9120   25.7370   46.3700 C   0  0  0  0  0  0  0  0  0  0  0  0
   55.8720   24.5890   46.8840 O   0  0  0  0  0  0  0  0  0  0  0  0
   54.7260   26.3320   45.9560 O   0  0  0  0  0  0  0  0  0  0  0  0
   57.2310   27.8400   46.0300 C   0  0  0  0  0  0  0  0  0  0  0  0
   59.4290   30.7570   46.2900 N   0  0  0  0  0  0  0  0  0  0  0  0
   59.1660   32.0200   45.9970 N   0  0  0  0  0  0  0  0  0  0  0  0
   58.0710   32.0690   45.2240 C   0  0  0  0  0  0  0  0  0  0  0  0
   57.5900   33.1360   44.7600 O   0  0  0  0  0  0  0  0  0  0  0  0
   57.7129   30.3361   42.3716 H   0  0  0  0  0  0  0  0  0  0  0  0
   56.1294   29.5051   42.2020 H   0  0  0  0  0  0  0  0  0  0  0  0
   56.2065   31.2997   42.2020 H   0  0  0  0  0  0  0  0  0  0  0  0
   60.6121   28.3188   45.8139 H   0  0  0  0  0  0  0  0  0  0  0  0
   60.5759   25.8455   46.1149 H   0  0  0  0  0  0  0  0  0  0  0  0
   58.4084   24.6417   46.3588 H   0  0  0  0  0  0  0  0  0  0  0  0
   56.2885   28.4071   46.0232 H   0  0  0  0  0  0  0  0  0  0  0  0
   59.7390   32.8330   46.3170 H   0  0  0  0  0  0  0  0  0  0  0  0
  1  2  1  0
  2  3  2  0
  2  4  1  0
  4  5  2  0
  5  6  1  0
  6  7  2  0
  7  8  1  0
  8  9  2  0
  9 10  1  0
 10 11  1  0
 11 12  2  0
 11 13  1  0
 10 14  2  0
  5 15  1  0
 15 16  1  0
 16 17  1  0
 17 18  2  0
 17  4  1  0
 14  6  1  0
  1 19  1  0
  1 20  1  0
  1 21  1  0
  7 22  1  0
  8 23  1  0
  9 24  1  0
 14 25  1  0
 16 26  1  0
M  CHG  2  13  -1  15  -1
M  END
>  <UniqueID>  (51) 
41

>  <SMILES>  (51) 
CC(=O)c1c(-c2cccc(C(=O)[O-])c2)[n-][nH]c1=O

>  <Energy>  (51) 
64.30683952374625

>  <Genealogy>  (51) 
CC(=O)c1c(-c2cccc(C(=O)[O-])c2)[n-][nH]c1=O (protonated)
CC(=O)c1c(-c2cccc(C(=O)[O-])c2)[n-][nH]c1=O (3D coordinates assigned)
CC(=O)c1c(-c2cccc(C(=O)[O-])c2)[n-][nH]c1=O (optimized conformer: 64.30683952374625 kcal/mol)

>  <smiles>  (51) 
CC(=O)c1c(-c2cccc(C(=O)O)c2)[nH][nH]c1=O

>  <score_type>  (51) 
oracle

>  <origin>  (51) 
adg

>  <m_score__min__energy>  (51) 
-10.33

>  <m_primary>  (51) 
energy

$$$$
51:0
     RDKit          3D

 39 41  0  0  0  0  0  0  0  0999 V2000
   63.2080   34.0030   46.8750 C   0  0  0  0  0  0  0  0  0  0  0  0
   61.9230   33.2420   46.8040 C   0  0  0  0  0  0  0  0  0  0  0  0
   61.8290   31.9570   47.3460 C   0  0  0  0  0  0  0  0  0  0  0  0
   60.6200   31.2630   47.2290 C   0  0  0  0  0  0  0  0  0  0  0  0
   60.4700   29.9170   47.8690 C   0  0  0  0  0  0  0  0  0  0  0  0
   59.5700   31.8470   46.5860 N   0  0  0  0  0  0  0  0  0  0  0  0
   59.6830   33.0960   46.0590 C   0  0  0  0  0  0  0  0  0  0  0  0
   58.2840   33.8520   45.2290 S   0  0  0  0  0  0  0  0  0  0  0  0
   58.3680   32.7510   43.7750 C   0  0  0  0  0  0  0  0  0  0  0  0
   57.9870   31.3540   44.1630 C   0  0  0  0  0  0  0  0  0  0  0  0
   56.6510   30.9970   44.3270 C   0  0  0  0  0  0  0  0  0  0  0  0
   56.3450   29.7050   44.7510 C   0  0  0  0  0  0  0  0  0  0  0  0
   55.1320   29.3890   44.8990 O   0  0  0  0  0  0  0  0  0  0  0  0
   57.3490   28.8000   45.0000 N   0  0  0  0  0  0  0  0  0  0  0  0
   57.0530   27.5280   45.4250 C   0  0  0  0  0  0  0  0  0  0  0  0
   58.0670   26.6050   45.6800 C   0  0  0  0  0  0  0  0  0  0  0  0
   59.3950   26.9740   45.5050 C   0  0  0  0  0  0  0  0  0  0  0  0
   59.7090   28.2610   45.0560 C   0  0  0  0  0  0  0  0  0  0  0  0
   61.1500   28.6450   44.8810 C   0  0  0  0  0  0  0  0  0  0  0  0
   58.6630   29.1790   44.8220 C   0  0  0  0  0  0  0  0  0  0  0  0
   58.9550   30.4450   44.4200 N   0  0  0  0  0  0  0  0  0  0  0  0
   60.8540   33.7780   46.1630 N   0  0  0  0  0  0  0  0  0  0  0  0
   63.4808   34.1645   47.9283 H   0  0  0  0  0  0  0  0  0  0  0  0
   64.0020   33.4294   46.3745 H   0  0  0  0  0  0  0  0  0  0  0  0
   63.0867   34.9750   46.3745 H   0  0  0  0  0  0  0  0  0  0  0  0
   62.6901   31.4997   47.8553 H   0  0  0  0  0  0  0  0  0  0  0  0
   60.4824   30.0279   48.9633 H   0  0  0  0  0  0  0  0  0  0  0  0
   59.5161   29.4668   47.5568 H   0  0  0  0  0  0  0  0  0  0  0  0
   61.3014   29.2679   47.5568 H   0  0  0  0  0  0  0  0  0  0  0  0
   58.6600   31.3430   46.5020 H   0  0  0  0  0  0  0  0  0  0  0  0
   57.6752   33.1156   43.0022 H   0  0  0  0  0  0  0  0  0  0  0  0
   59.3965   32.7481   43.3849 H   0  0  0  0  0  0  0  0  0  0  0  0
   55.8498   31.7232   44.1251 H   0  0  0  0  0  0  0  0  0  0  0  0
   56.0026   27.2334   45.5661 H   0  0  0  0  0  0  0  0  0  0  0  0
   57.8163   25.5888   46.0184 H   0  0  0  0  0  0  0  0  0  0  0  0
   60.1990   26.2545   45.7194 H   0  0  0  0  0  0  0  0  0  0  0  0
   61.6187   28.7699   45.8683 H   0  0  0  0  0  0  0  0  0  0  0  0
   61.6748   27.8554   44.3233 H   0  0  0  0  0  0  0  0  0  0  0  0
   61.2122   29.5911   44.3233 H   0  0  0  0  0  0  0  0  0  0  0  0
  1  2  1  0
  2  3  2  0
  3  4  1  0
  4  5  1  0
  4  6  2  0
  6  7  1  0
  7  8  1  0
  8  9  1  0
  9 10  1  0
 10 11  2  0
 11 12  1  0
 12 13  2  0
 12 14  1  0
 14 15  1  0
 15 16  2  0
 16 17  1  0
 17 18  2  0
 18 19  1  0
 18 20  1  0
 20 21  2  0
  7 22  2  0
 22  2  1  0
 21 10  1  0
 20 14  1  0
  1 23  1  0
  1 24  1  0
  1 25  1  0
  3 26  1  0
  5 27  1  0
  5 28  1  0
  5 29  1  0
  6 30  1  0
  9 31  1  0
  9 32  1  0
 11 33  1  0
 15 34  1  0
 16 35  1  0
 17 36  1  0
 19 37  1  0
 19 38  1  0
 19 39  1  0
M  CHG  1   6   1
M  END
>  <UniqueID>  (52) 
42

>  <SMILES>  (52) 
Cc1cc(C)[nH+]c(SCc2cc(=O)n3cccc(C)c3n2)n1

>  <Energy>  (52) 
38.33352740271385

>  <Genealogy>  (52) 
Cc1cc(C)[nH+]c(SCc2cc(=O)n3cccc(C)c3n2)n1 (protonated)
Cc1cc(C)[nH+]c(SCc2cc(=O)n3cccc(C)c3n2)n1 (3D coordinates assigned)
Cc1cc(C)[nH+]c(SCc2cc(=O)n3cccc(C)c3n2)n1 (optimized conformer: 38.33352740271385 kcal/mol)

>  <smiles>  (52) 
Cc1cc(C)nc(SCc2cc(=O)n3cccc(C)c3n2)n1

>  <score_type>  (52) 
oracle

>  <origin>  (52) 
adg

>  <m_score__min__energy>  (52) 
-6.3499999999999996

>  <m_primary>  (52) 
energy

$$$$
52:0
     RDKit          3D

 44 46  0  0  0  0  0  0  0  0999 V2000
   59.3080   34.3010   46.9440 C   0  0  0  0  0  0  0  0  0  0  0  0
   58.6890   33.2880   46.0160 C   0  0  0  0  0  0  0  0  0  0  0  0
   58.3580   33.6820   44.7110 C   0  0  0  0  0  0  0  0  0  0  0  0
   57.7550   32.7850   43.8320 C   0  0  0  0  0  0  0  0  0  0  0  0
   57.4740   31.4830   44.2380 C   0  0  0  0  0  0  0  0  0  0  0  0
   57.8270   31.0470   45.5280 C   0  0  0  0  0  0  0  0  0  0  0  0
   57.5030   29.7190   45.9760 N   0  0  0  0  0  0  0  0  0  0  0  0
   56.7770   28.7090   45.2630 C   0  0  0  0  0  0  0  0  0  0  0  0
   55.5770   28.8910   44.9240 O   0  0  0  0  0  0  0  0  0  0  0  0
   57.4850   27.4660   44.8280 C   0  0  0  0  0  0  0  0  0  0  0  0
   57.1990   26.3520   45.7880 C   0  0  0  0  0  0  0  0  0  0  0  0
   58.3290   25.2280   46.3370 S   0  0  0  0  0  0  0  0  0  0  0  0
   57.1770   24.3640   47.2080 C   0  0  0  0  0  0  0  0  0  0  0  0
   57.4520   23.2960   47.8970 N   0  0  0  0  0  0  0  0  0  0  0  0
   56.6050   22.1480   48.0590 C   0  0  0  0  0  0  0  0  0  0  0  0
   56.3980   21.7060   49.2220 O   0  0  0  0  0  0  0  0  0  0  0  0
   55.9530   21.5500   46.9280 N   0  0  0  0  0  0  0  0  0  0  0  0
   56.1580   21.8590   45.5430 C   0  0  0  0  0  0  0  0  0  0  0  0
   55.3280   22.8130   44.9420 C   0  0  0  0  0  0  0  0  0  0  0  0
   55.5180   23.1780   43.6050 C   0  0  0  0  0  0  0  0  0  0  0  0
   56.5430   22.5950   42.8590 C   0  0  0  0  0  0  0  0  0  0  0  0
   57.3810   21.6430   43.4500 C   0  0  0  0  0  0  0  0  0  0  0  0
   57.1960   21.2770   44.7880 C   0  0  0  0  0  0  0  0  0  0  0  0
   55.9380   24.8950   47.0840 N   0  0  0  0  0  0  0  0  0  0  0  0
   55.9500   25.9970   46.2900 C   0  0  0  0  0  0  0  0  0  0  0  0
   54.7880   26.7010   46.0020 O   0  0  0  0  0  0  0  0  0  0  0  0
   58.4510   31.9500   46.4240 C   0  0  0  0  0  0  0  0  0  0  0  0
   58.7900   31.4890   47.8240 C   0  0  0  0  0  0  0  0  0  0  0  0
   59.1256   34.0025   47.9869 H   0  0  0  0  0  0  0  0  0  0  0  0
   60.3915   34.3517   46.7613 H   0  0  0  0  0  0  0  0  0  0  0  0
   58.8588   35.2883   46.7613 H   0  0  0  0  0  0  0  0  0  0  0  0
   58.5764   34.7077   44.3790 H   0  0  0  0  0  0  0  0  0  0  0  0
   57.4995   33.1070   42.8117 H   0  0  0  0  0  0  0  0  0  0  0  0
   56.9727   30.7909   43.5454 H   0  0  0  0  0  0  0  0  0  0  0  0
   57.1369   27.1806   43.8243 H   0  0  0  0  0  0  0  0  0  0  0  0
   58.5683   27.6557   44.8067 H   0  0  0  0  0  0  0  0  0  0  0  0
   54.5204   23.2790   45.5256 H   0  0  0  0  0  0  0  0  0  0  0  0
   54.8582   23.9259   43.1410 H   0  0  0  0  0  0  0  0  0  0  0  0
   56.6920   22.8834   41.8080 H   0  0  0  0  0  0  0  0  0  0  0  0
   58.1873   21.1811   42.8614 H   0  0  0  0  0  0  0  0  0  0  0  0
   57.8618   20.5339   45.2511 H   0  0  0  0  0  0  0  0  0  0  0  0
   58.3035   32.1506   48.5558 H   0  0  0  0  0  0  0  0  0  0  0  0
   58.4330   30.4585   47.9672 H   0  0  0  0  0  0  0  0  0  0  0  0
   59.8801   31.5226   47.9672 H   0  0  0  0  0  0  0  0  0  0  0  0
  1  2  1  0
  2  3  2  0
  3  4  1  0
  4  5  2  0
  5  6  1  0
  6  7  1  0
  7  8  1  0
  8  9  2  0
  8 10  1  0
 10 11  1  0
 11 12  1  0
 12 13  1  0
 13 14  2  3
 14 15  1  0
 15 16  2  0
 15 17  1  0
 17 18  1  0
 18 19  2  0
 19 20  1  0
 20 21  2  0
 21 22  1  0
 22 23  2  0
 13 24  1  0
 24 25  1  0
 25 26  1  0
  6 27  2  0
 27 28  1  0
 27  2  1  0
 25 11  2  0
 23 18  1  0
  1 29  1  0
  1 30  1  0
  1 31  1  0
  3 32  1  0
  4 33  1  0
  5 34  1  0
 10 35  1  0
 10 36  1  0
 19 37  1  0
 20 38  1  0
 21 39  1  0
 22 40  1  0
 23 41  1  0
 28 42  1  0
 28 43  1  0
 28 44  1  0
M  CHG  4   7  -1  17  -1  24  -1  26  -1
M  END
>  <UniqueID>  (53) 
43

>  <SMILES>  (53) 
Cc1cccc([N-]C(=O)Cc2sc(=NC(=O)[N-]c3ccccc3)[n-]c2[O-])c1C

>  <Energy>  (53) 
85.4249643183241

>  <Genealogy>  (53) 
Cc1cccc([N-]C(=O)Cc2sc(=NC(=O)[N-]c3ccccc3)[n-]c2[O-])c1C (protonated)
Cc1cccc([N-]C(=O)Cc2sc(=NC(=O)[N-]c3ccccc3)[n-]c2[O-])c1C (3D coordinates assigned)
Cc1cccc([N-]C(=O)Cc2sc(=NC(=O)[N-]c3ccccc3)[n-]c2[O-])c1C (optimized conformer: 85.4249643183241 kcal/mol)

>  <smiles>  (53) 
Cc1cccc(NC(=O)Cc2sc(=NC(=O)Nc3ccccc3)[nH]c2O)c1C

>  <score_type>  (53) 
oracle

>  <origin>  (53) 
adg

>  <m_score__min__energy>  (53) 
-17.02

>  <m_primary>  (53) 
energy

$$$$
53:0
     RDKit          3D

 49 51  0  0  0  0  0  0  0  0999 V2000
   58.9450   34.4570   45.5160 C   0  0  0  0  0  0  0  0  0  0  0  0
   58.3580   33.6560   46.6730 C   0  0  0  0  0  0  0  0  0  0  0  0
   59.3410   33.5500   47.7970 C   0  0  0  0  0  0  0  0  0  0  0  0
   58.9020   33.4700   49.0750 N   0  0  0  0  0  0  0  0  0  0  0  0
   59.7610   33.3620   50.1210 C   0  0  0  0  0  0  0  0  0  0  0  0
   59.0230   33.2920   51.7630 S   0  0  0  0  0  0  0  0  0  0  0  0
   57.5690   32.3210   51.2350 C   0  0  0  0  0  0  0  0  0  0  0  0
   57.9470   30.8980   50.9580 C   0  0  0  0  0  0  0  0  0  0  0  0
   57.4040   29.9720   51.6190 O   0  0  0  0  0  0  0  0  0  0  0  0
   58.9060   30.5930   49.9360 N   0  0  0  0  0  0  0  0  0  0  0  0
   59.3580   29.2310   49.6660 C   0  0  0  0  0  0  0  0  0  0  0  0
   59.6670   29.0760   48.2040 C   0  0  0  0  0  0  0  0  0  0  0  0
   59.6860   27.8040   47.6070 C   0  0  0  0  0  0  0  0  0  0  0  0
   60.0150   27.6670   46.2540 C   0  0  0  0  0  0  0  0  0  0  0  0
   60.3330   28.7940   45.4910 C   0  0  0  0  0  0  0  0  0  0  0  0
   60.6560   28.6580   44.1810 F   0  0  0  0  0  0  0  0  0  0  0  0
   60.3240   30.0610   46.0810 C   0  0  0  0  0  0  0  0  0  0  0  0
   59.9980   30.2020   47.4340 C   0  0  0  0  0  0  0  0  0  0  0  0
   61.1610   33.3170   49.8760 C   0  0  0  0  0  0  0  0  0  0  0  0
   62.1460   33.1850   50.8780 C   0  0  0  0  0  0  0  0  0  0  0  0
   61.8120   33.0810   52.0900 O   0  0  0  0  0  0  0  0  0  0  0  0
   63.4740   33.1560   50.5390 N   0  0  0  0  0  0  0  0  0  0  0  0
   64.4940   32.9880   51.5910 C   0  0  0  0  0  0  0  0  0  0  0  0
   63.8570   33.2030   49.2230 C   0  0  0  0  0  0  0  0  0  0  0  0
   65.0810   33.0920   48.9260 O   0  0  0  0  0  0  0  0  0  0  0  0
   62.9270   33.3670   48.2280 N   0  0  0  0  0  0  0  0  0  0  0  0
   63.3560   33.4200   46.8180 C   0  0  0  0  0  0  0  0  0  0  0  0
   61.5930   33.4020   48.5340 C   0  0  0  0  0  0  0  0  0  0  0  0
   60.6690   33.5100   47.5400 N   0  0  0  0  0  0  0  0  0  0  0  0
   59.5513   35.2844   45.9132 H   0  0  0  0  0  0  0  0  0  0  0  0
   59.5780   33.8014   44.9000 H   0  0  0  0  0  0  0  0  0  0  0  0
   58.1291   34.8631   44.9000 H   0  0  0  0  0  0  0  0  0  0  0  0
   57.4487   34.1582   47.0349 H   0  0  0  0  0  0  0  0  0  0  0  0
   58.1190   32.6433   46.3161 H   0  0  0  0  0  0  0  0  0  0  0  0
   56.8121   32.3436   52.0328 H   0  0  0  0  0  0  0  0  0  0  0  0
   57.1678   32.7637   50.3114 H   0  0  0  0  0  0  0  0  0  0  0  0
   59.3410   31.3760   49.3990 H   0  0  0  0  0  0  0  0  0  0  0  0
   60.2640   29.0239   50.2544 H   0  0  0  0  0  0  0  0  0  0  0  0
   58.5636   28.5233   49.9456 H   0  0  0  0  0  0  0  0  0  0  0  0
   59.4416   26.9137   48.2050 H   0  0  0  0  0  0  0  0  0  0  0  0
   60.0234   26.6698   45.7897 H   0  0  0  0  0  0  0  0  0  0  0  0
   60.5736   30.9483   45.4807 H   0  0  0  0  0  0  0  0  0  0  0  0
   60.0010   31.1999   47.8967 H   0  0  0  0  0  0  0  0  0  0  0  0
   64.0177   33.0665   52.5794 H   0  0  0  0  0  0  0  0  0  0  0  0
   64.9666   31.9999   51.4891 H   0  0  0  0  0  0  0  0  0  0  0  0
   65.2585   33.7723   51.4891 H   0  0  0  0  0  0  0  0  0  0  0  0
   64.4467   33.5547   46.7714 H   0  0  0  0  0  0  0  0  0  0  0  0
   63.0807   32.4810   46.3154 H   0  0  0  0  0  0  0  0  0  0  0  0
   62.8605   34.2638   46.3154 H   0  0  0  0  0  0  0  0  0  0  0  0
  1  2  1  0
  2  3  1  0
  3  4  2  0
  4  5  1  0
  5  6  1  0
  6  7  1  0
  7  8  1  0
  8  9  2  0
  8 10  1  0
 10 11  1  0
 11 12  1  0
 12 13  2  0
 13 14  1  0
 14 15  2  0
 15 16  1  0
 15 17  1  0
 17 18  2  0
  5 19  2  0
 19 20  1  0
 20 21  2  0
 20 22  1  0
 22 23  1  0
 22 24  1  0
 24 25  2  0
 24 26  1  0
 26 27  1  0
 26 28  1  0
 28 29  2  0
 29  3  1  0
 18 12  1  0
 28 19  1  0
  1 30  1  0
  1 31  1  0
  1 32  1  0
  2 33  1  0
  2 34  1  0
  7 35  1  0
  7 36  1  0
 10 37  1  0
 11 38  1  0
 11 39  1  0
 13 40  1  0
 14 41  1  0
 17 42  1  0
 18 43  1  0
 23 44  1  0
 23 45  1  0
 23 46  1  0
 27 47  1  0
 27 48  1  0
 27 49  1  0
M  END
>  <UniqueID>  (54) 
44

>  <SMILES>  (54) 
CCc1nc(SCC(=O)NCc2ccc(F)cc2)c2c(=O)n(C)c(=O)n(C)c2n1

>  <Energy>  (54) 
55.36129976921188

>  <Genealogy>  (54) 
CCc1nc(SCC(=O)NCc2ccc(F)cc2)c2c(=O)n(C)c(=O)n(C)c2n1 (3D coordinates assigned)
CCc1nc(SCC(=O)NCc2ccc(F)cc2)c2c(=O)n(C)c(=O)n(C)c2n1 (optimized conformer: 55.36129976921188 kcal/mol)

>  <smiles>  (54) 
CCc1nc(SCC(=O)NCc2ccc(F)cc2)c2c(=O)n(C)c(=O)n(C)c2n1

>  <score_type>  (54) 
oracle

>  <origin>  (54) 
adg

>  <m_score__min__energy>  (54) 
-7.3799999999999999

>  <m_primary>  (54) 
energy

$$$$
54:0
     RDKit          3D

 62 66  0  0  0  0  0  0  0  0999 V2000
   62.3500   34.9510   50.0640 O   0  0  0  0  0  0  0  0  0  0  0  0
   61.6870   33.9170   49.7870 C   0  0  0  0  0  0  0  0  0  0  0  0
   61.6430   32.8510   50.7460 N   0  0  0  0  0  0  0  0  0  0  0  0
   62.3290   31.5720   50.6070 C   0  0  0  0  0  0  0  0  0  0  0  0
   61.5430   30.6860   49.6830 C   0  0  0  0  0  0  0  0  0  0  0  0
   61.8600   30.6280   48.3180 C   0  0  0  0  0  0  0  0  0  0  0  0
   61.1470   29.7830   47.4630 C   0  0  0  0  0  0  0  0  0  0  0  0
   60.1170   28.9710   47.9650 C   0  0  0  0  0  0  0  0  0  0  0  0
   59.3760   28.0990   47.0900 N   0  0  0  0  0  0  0  0  0  0  0  0
   58.9080   28.5900   45.7860 C   0  0  0  0  0  0  0  0  0  0  0  0
   57.5490   27.9720   45.4530 C   0  0  0  0  0  0  0  0  0  0  0  0
   57.6070   26.5190   45.6490 N   0  0  0  0  0  0  0  0  0  0  0  0
   57.3260   25.6140   44.5600 C   0  0  0  0  0  0  0  0  0  0  0  0
   57.5200   25.9860   43.3710 O   0  0  0  0  0  0  0  0  0  0  0  0
   56.8550   24.2310   44.8030 C   0  0  0  0  0  0  0  0  0  0  0  0
   57.7470   23.1770   44.5380 C   0  0  0  0  0  0  0  0  0  0  0  0
   57.3970   21.8580   44.8310 C   0  0  0  0  0  0  0  0  0  0  0  0
   56.1520   21.5740   45.3890 C   0  0  0  0  0  0  0  0  0  0  0  0
   55.2430   22.6040   45.6370 C   0  0  0  0  0  0  0  0  0  0  0  0
   55.5670   23.9390   45.3320 C   0  0  0  0  0  0  0  0  0  0  0  0
   54.5270   24.9770   45.5350 C   0  0  0  0  0  0  0  0  0  0  0  0
   53.3080   24.7150   45.3540 O   0  0  0  0  0  0  0  0  0  0  0  0
   54.8840   26.2460   45.9760 O   0  0  0  0  0  0  0  0  0  0  0  0
   58.0380   26.0370   46.9680 C   0  0  0  0  0  0  0  0  0  0  0  0
   59.3960   26.6490   47.3200 C   0  0  0  0  0  0  0  0  0  0  0  0
   59.8130   29.0170   49.3340 C   0  0  0  0  0  0  0  0  0  0  0  0
   60.5230   29.8650   50.1880 C   0  0  0  0  0  0  0  0  0  0  0  0
   61.0200   33.8240   48.4730 C   0  0  0  0  0  0  0  0  0  0  0  0
   61.7840   33.9050   47.2990 C   0  0  0  0  0  0  0  0  0  0  0  0
   61.1710   33.8260   46.0450 C   0  0  0  0  0  0  0  0  0  0  0  0
   59.7800   33.6780   45.9480 C   0  0  0  0  0  0  0  0  0  0  0  0
   59.1720   33.5970   44.7280 N   0  0  0  0  0  0  0  0  0  0  0  0
   57.8230   33.4580   44.6150 C   0  0  0  0  0  0  0  0  0  0  0  0
   57.0210   33.3950   45.7560 C   0  0  0  0  0  0  0  0  0  0  0  0
   57.6130   33.4760   47.0180 C   0  0  0  0  0  0  0  0  0  0  0  0
   59.0020   33.6160   47.1270 C   0  0  0  0  0  0  0  0  0  0  0  0
   59.6230   33.6990   48.3830 C   0  0  0  0  0  0  0  0  0  0  0  0
   63.3340   31.7371   50.1914 H   0  0  0  0  0  0  0  0  0  0  0  0
   62.4170   31.0915   51.5926 H   0  0  0  0  0  0  0  0  0  0  0  0
   62.6739   31.2507   47.9183 H   0  0  0  0  0  0  0  0  0  0  0  0
   61.3939   29.7538   46.3915 H   0  0  0  0  0  0  0  0  0  0  0  0
   58.8114   29.6852   45.8221 H   0  0  0  0  0  0  0  0  0  0  0  0
   59.6344   28.3056   45.0105 H   0  0  0  0  0  0  0  0  0  0  0  0
   56.7806   28.4000   46.1136 H   0  0  0  0  0  0  0  0  0  0  0  0
   57.2963   28.1891   44.4047 H   0  0  0  0  0  0  0  0  0  0  0  0
   58.7304   23.3940   44.0954 H   0  0  0  0  0  0  0  0  0  0  0  0
   58.1044   21.0421   44.6213 H   0  0  0  0  0  0  0  0  0  0  0  0
   55.8849   20.5356   45.6346 H   0  0  0  0  0  0  0  0  0  0  0  0
   54.2620   22.3693   46.0759 H   0  0  0  0  0  0  0  0  0  0  0  0
   57.2965   26.3312   47.7254 H   0  0  0  0  0  0  0  0  0  0  0  0
   58.1263   24.9408   46.9453 H   0  0  0  0  0  0  0  0  0  0  0  0
   59.6191   26.4525   48.3791 H   0  0  0  0  0  0  0  0  0  0  0  0
   60.1691   26.1959   46.6819 H   0  0  0  0  0  0  0  0  0  0  0  0
   59.0108   28.3816   49.7375 H   0  0  0  0  0  0  0  0  0  0  0  0
   60.2814   29.8891   51.2609 H   0  0  0  0  0  0  0  0  0  0  0  0
   62.8746   34.0317   47.3658 H   0  0  0  0  0  0  0  0  0  0  0  0
   61.7817   33.8801   45.1317 H   0  0  0  0  0  0  0  0  0  0  0  0
   59.7440   33.6430   43.8530 H   0  0  0  0  0  0  0  0  0  0  0  0
   57.3616   33.3949   43.6184 H   0  0  0  0  0  0  0  0  0  0  0  0
   55.9309   33.2824   45.6615 H   0  0  0  0  0  0  0  0  0  0  0  0
   56.9903   33.4300   47.9236 H   0  0  0  0  0  0  0  0  0  0  0  0
   59.0149   33.6661   49.2990 H   0  0  0  0  0  0  0  0  0  0  0  0
  1  2  2  0
  2  3  1  0
  3  4  1  0
  4  5  1  0
  5  6  2  0
  6  7  1  0
  7  8  2  0
  8  9  1  0
  9 10  1  0
 10 11  1  0
 11 12  1  0
 12 13  1  0
 13 14  2  0
 13 15  1  0
 15 16  2  0
 16 17  1  0
 17 18  2  0
 18 19  1  0
 19 20  2  0
 20 21  1  0
 21 22  2  0
 21 23  1  0
 12 24  1  0
 24 25  1  0
  8 26  1  0
 26 27  2  0
  2 28  1  0
 28 29  2  0
 29 30  1  0
 30 31  2  0
 31 32  1  0
 32 33  2  0
 33 34  1  0
 34 35  2  0
 35 36  1  0
 36 37  2  0
 27  5  1  0
 37 28  1  0
 25  9  1  0
 36 31  1  0
 20 15  1  0
  4 38  1  0
  4 39  1  0
  6 40  1  0
  7 41  1  0
 10 42  1  0
 10 43  1  0
 11 44  1  0
 11 45  1  0
 16 46  1  0
 17 47  1  0
 18 48  1  0
 19 49  1  0
 24 50  1  0
 24 51  1  0
 25 52  1  0
 25 53  1  0
 26 54  1  0
 27 55  1  0
 29 56  1  0
 30 57  1  0
 32 58  1  0
 33 59  1  0
 34 60  1  0
 35 61  1  0
 37 62  1  0
M  CHG  3   3  -1  23  -1  32   1
M  END
>  <UniqueID>  (55) 
45

>  <SMILES>  (55) 
O=C([N-]Cc1ccc(N2CCN(C(=O)c3ccccc3C(=O)[O-])CC2)cc1)c1ccc2[nH+]cccc2c1

>  <Energy>  (55) 
88.38415573885923

>  <Genealogy>  (55) 
O=C([N-]Cc1ccc(N2CCN(C(=O)c3ccccc3C(=O)[O-])CC2)cc1)c1ccc2[nH+]cccc2c1 (protonated)
O=C([N-]Cc1ccc(N2CCN(C(=O)c3ccccc3C(=O)[O-])CC2)cc1)c1ccc2[nH+]cccc2c1 (3D coordinates assigned)
O=C([N-]Cc1ccc(N2CCN(C(=O)c3ccccc3C(=O)[O-])CC2)cc1)c1ccc2[nH+]cccc2c1 (nonaromatic ring conformer: 88.38415573885923 kcal/mol)

>  <smiles>  (55) 
O=C(NCc1ccc(N2CCN(C(=O)c3ccccc3C(=O)O)CC2)cc1)c1ccc2ncccc2c1

>  <score_type>  (55) 
oracle

>  <origin>  (55) 
adg

>  <m_score__min__energy>  (55) 
-12.449999999999999

>  <m_primary>  (55) 
energy

$$$$
55:0
     RDKit          3D

 75 79  0  0  0  0  0  0  0  0999 V2000
   62.1707   32.6961   52.7333 H   0  0  0  0  0  0  0  0  0  0  0  0
   61.2860   32.8460   52.0970 C   0  0  0  0  0  0  0  0  0  0  0  0
   60.0370   32.3880   52.5220 C   0  0  0  0  0  0  0  0  0  0  0  0
   59.9324   31.9060   53.5052 H   0  0  0  0  0  0  0  0  0  0  0  0
   58.9200   32.5430   51.6960 C   0  0  0  0  0  0  0  0  0  0  0  0
   57.6370   32.1400   52.1740 N   0  0  0  0  0  0  0  0  0  0  0  0
   57.1600   32.7760   52.8510 H   0  0  0  0  0  0  0  0  0  0  0  0
   57.1530   30.7980   51.9880 C   0  0  0  0  0  0  0  0  0  0  0  0
   57.7320   30.0420   51.1510 O   0  0  0  0  0  0  0  0  0  0  0  0
   56.0110   30.2640   52.8420 C   0  0  0  0  0  0  0  0  0  0  0  0
   56.1600   30.7110   54.3150 C   0  0  0  0  0  0  0  0  0  0  0  0
   55.8830   29.8799   54.9802 H   0  0  0  0  0  0  0  0  0  0  0  0
   57.2036   31.0015   54.5062 H   0  0  0  0  0  0  0  0  0  0  0  0
   55.4995   31.5695   54.5062 H   0  0  0  0  0  0  0  0  0  0  0  0
   54.6810   30.8230   52.2980 C   0  0  0  0  0  0  0  0  0  0  0  0
   54.0274   31.0977   53.1390 H   0  0  0  0  0  0  0  0  0  0  0  0
   54.8814   31.7130   51.6834 H   0  0  0  0  0  0  0  0  0  0  0  0
   54.1854   30.0571   51.6834 H   0  0  0  0  0  0  0  0  0  0  0  0
   55.9870   28.7230   52.7970 C   0  0  0  0  0  0  0  0  0  0  0  0
   55.9808   28.3263   53.8229 H   0  0  0  0  0  0  0  0  0  0  0  0
   55.0835   28.3857   52.2680 H   0  0  0  0  0  0  0  0  0  0  0  0
   56.8796   28.3577   52.2680 H   0  0  0  0  0  0  0  0  0  0  0  0
   59.0500   33.1620   50.4460 C   0  0  0  0  0  0  0  0  0  0  0  0
   58.1787   33.2410   49.7792 H   0  0  0  0  0  0  0  0  0  0  0  0
   60.2960   33.6840   50.0410 C   0  0  0  0  0  0  0  0  0  0  0  0
   60.4780   34.3470   48.7770 N   0  0  0  0  0  0  0  0  0  0  0  0
   61.1740   35.1270   48.7350 H   0  0  0  0  0  0  0  0  0  0  0  0
   59.7890   34.0350   47.5490 C   0  0  0  0  0  0  0  0  0  0  0  0
   59.7910   34.9200   46.4330 C   0  0  0  0  0  0  0  0  0  0  0  0
   60.3851   35.8449   46.4727 H   0  0  0  0  0  0  0  0  0  0  0  0
   59.0380   34.6220   45.2760 C   0  0  0  0  0  0  0  0  0  0  0  0
   58.9998   35.3173   44.4244 H   0  0  0  0  0  0  0  0  0  0  0  0
   58.3470   33.4160   45.2550 C   0  0  0  0  0  0  0  0  0  0  0  0
   57.5520   32.9360   44.3360 O   0  0  0  0  0  0  0  0  0  0  0  0
   57.1450   31.7670   44.8030 C   0  0  0  0  0  0  0  0  0  0  0  0
   56.2560   31.0280   44.2160 N   0  0  0  0  0  0  0  0  0  0  0  0
   56.2320   29.6020   44.3000 C   0  0  0  0  0  0  0  0  0  0  0  0
   55.1450   29.0030   44.5220 O   0  0  0  0  0  0  0  0  0  0  0  0
   57.5150   28.8270   44.1240 C   0  0  0  0  0  0  0  0  0  0  0  0
   57.2799   27.7765   43.8979 H   0  0  0  0  0  0  0  0  0  0  0  0
   58.0934   29.2617   43.2955 H   0  0  0  0  0  0  0  0  0  0  0  0
   58.3090   28.8960   45.3640 N   0  0  0  0  0  0  0  0  0  0  0  0
   59.7490   29.0820   45.1020 C   0  0  0  0  0  0  0  0  0  0  0  0
   60.1943   28.1251   44.7921 H   0  0  0  0  0  0  0  0  0  0  0  0
   59.8887   29.8213   44.2996 H   0  0  0  0  0  0  0  0  0  0  0  0
   60.4330   29.5770   46.3920 C   0  0  0  0  0  0  0  0  0  0  0  0
   61.4872   29.2635   46.3745 H   0  0  0  0  0  0  0  0  0  0  0  0
   60.3363   30.6723   46.4215 H   0  0  0  0  0  0  0  0  0  0  0  0
   59.7670   29.0110   47.6750 C   0  0  0  0  0  0  0  0  0  0  0  0
   58.9725   29.7006   47.9964 H   0  0  0  0  0  0  0  0  0  0  0  0
   60.7530   28.9150   48.7820 N   0  0  0  0  0  0  0  0  0  0  0  0
   60.5400   27.7310   49.6240 C   0  0  0  0  0  0  0  0  0  0  0  0
   59.4637   27.5351   49.7389 H   0  0  0  0  0  0  0  0  0  0  0  0
   60.9940   26.8359   49.1737 H   0  0  0  0  0  0  0  0  0  0  0  0
   61.1610   28.0420   50.9680 C   0  0  0  0  0  0  0  0  0  0  0  0
   60.6079   27.5409   51.7761 H   0  0  0  0  0  0  0  0  0  0  0  0
   62.2010   27.6903   51.0372 H   0  0  0  0  0  0  0  0  0  0  0  0
   61.0550   29.5490   51.1020 C   0  0  0  0  0  0  0  0  0  0  0  0
   60.2750   29.8164   51.8300 H   0  0  0  0  0  0  0  0  0  0  0  0
   61.9946   29.9940   51.4614 H   0  0  0  0  0  0  0  0  0  0  0  0
   60.6830   30.0570   49.7100 C   0  0  0  0  0  0  0  0  0  0  0  0
   59.6628   30.4681   49.7217 H   0  0  0  0  0  0  0  0  0  0  0  0
   61.3732   30.8529   49.3936 H   0  0  0  0  0  0  0  0  0  0  0  0
   59.1290   27.6370   47.3760 C   0  0  0  0  0  0  0  0  0  0  0  0
   59.9265   26.9259   47.1148 H   0  0  0  0  0  0  0  0  0  0  0  0
   58.5837   27.3160   48.2758 H   0  0  0  0  0  0  0  0  0  0  0  0
   58.1140   27.7020   46.2030 C   0  0  0  0  0  0  0  0  0  0  0  0
   58.2376   26.8056   45.5776 H   0  0  0  0  0  0  0  0  0  0  0  0
   57.1032   27.7535   46.6337 H   0  0  0  0  0  0  0  0  0  0  0  0
   57.6640   31.4430   46.0130 N   0  0  0  0  0  0  0  0  0  0  0  0
   58.4140   32.5230   46.2810 C   0  0  0  0  0  0  0  0  0  0  0  0
   59.1240   32.7940   47.4470 C   0  0  0  0  0  0  0  0  0  0  0  0
   59.1658   32.0614   48.2664 H   0  0  0  0  0  0  0  0  0  0  0  0
   61.4150   33.4940   50.8660 C   0  0  0  0  0  0  0  0  0  0  0  0
   62.4009   33.8579   50.5412 H   0  0  0  0  0  0  0  0  0  0  0  0
  1  2  1  0
  2  3  2  0
  3  4  1  0
  3  5  1  0
  5  6  1  0
  6  7  1  0
  6  8  1  0
  8  9  2  0
  8 10  1  0
 10 11  1  0
 11 12  1  0
 11 13  1  0
 11 14  1  0
 10 15  1  0
 15 16  1  0
 15 17  1  0
 15 18  1  0
 10 19  1  0
 19 20  1  0
 19 21  1  0
 19 22  1  0
  5 23  2  0
 23 24  1  0
 23 25  1  0
 25 26  1  0
 26 27  1  0
 26 28  1  0
 28 29  2  0
 29 30  1  0
 29 31  1  0
 31 32  1  0
 31 33  2  0
 33 34  1  0
 34 35  1  0
 35 36  2  0
 36 37  1  0
 37 38  2  0
 37 39  1  0
 39 40  1  0
 39 41  1  0
 39 42  1  0
 42 43  1  0
 43 44  1  0
 43 45  1  0
 43 46  1  0
 46 47  1  0
 46 48  1  0
 46 49  1  0
 49 50  1  0
 49 51  1  0
 51 52  1  0
 52 53  1  0
 52 54  1  0
 52 55  1  0
 55 56  1  0
 55 57  1  0
 55 58  1  0
 58 59  1  0
 58 60  1  0
 58 61  1  0
 61 62  1  0
 61 63  1  0
 49 64  1  0
 64 65  1  0
 64 66  1  0
 64 67  1  0
 67 68  1  0
 67 69  1  0
 35 70  1  0
 70 71  1  0
 71 72  2  0
 72 73  1  0
 25 74  2  0
 74 75  1  0
 74  2  1  0
 72 28  1  0
 71 33  1  0
 67 42  1  0
 61 51  1  0
M  CHG  1  70  -1
M  END
>  <UniqueID>  (56) 
46

>  <SMILES>  (56) 
CC(C)(C)C(=O)Nc1cccc(Nc2ccc3o/c(=N\C(=O)CN4CCC(N5CCCC5)CC4)[n-]c3c2)c1

>  <Energy>  (56) 
144.24991784549798

>  <Genealogy>  (56) 
CC(C)(C)C(=O)Nc1cccc(Nc2ccc3oc(=NC(=O)CN4CCC(N5CCCC5)CC4)[n-]c3c2)c1 (protonated)
CC(C)(C)C(=O)Nc1cccc(Nc2ccc3o/c(=N\C(=O)CN4CCC(N5CCCC5)CC4)[n-]c3c2)c1 (cis-trans isomerization)
CC(C)(C)C(=O)Nc1cccc(Nc2ccc3o/c(=N\C(=O)CN4CCC(N5CCCC5)CC4)[n-]c3c2)c1 (3D coordinates assigned)
CC(C)(C)C(=O)Nc1cccc(Nc2ccc3o/c(=N\C(=O)CN4CCC(N5CCCC5)CC4)[n-]c3c2)c1 (nonaromatic ring conformer: 144.24991784549798 kcal/mol)

>  <smiles>  (56) 
CC(C)(C)C(=O)Nc1cccc(Nc2ccc3oc(=NC(=O)CN4CCC(N5CCCC5)CC4)[nH]c3c2)c1

>  <score_type>  (56) 
oracle

>  <origin>  (56) 
adg

>  <m_score__min__energy>  (56) 
-11.460000000000001

>  <m_primary>  (56) 
energy

$$$$
56:0
     RDKit          3D

 27 29  0  0  0  0  0  0  0  0999 V2000
   56.9530   30.8610   44.8780 O   0  0  0  0  0  0  0  0  0  0  0  0
   57.8980   30.0850   45.1880 C   0  0  0  0  0  0  0  0  0  0  0  0
   59.2650   30.6840   45.4140 C   0  0  0  0  0  0  0  0  0  0  0  0
   60.2880   29.7160   46.0370 C   0  0  1  0  0  0  0  0  0  0  0  0
   60.0440   29.3740   47.4900 C   0  0  0  0  0  0  0  0  0  0  0  0
   59.3520   30.1250   48.4290 C   0  0  0  0  0  0  0  0  0  0  0  0
   59.3830   29.4030   49.6050 C   0  0  0  0  0  0  0  0  0  0  0  0
   60.0900   28.2480   49.3410 C   0  0  0  0  0  0  0  0  0  0  0  0
   60.4900   28.2360   48.0580 N   0  0  0  0  0  0  0  0  0  0  0  0
   60.3830   28.2100   45.0110 S   0  0  0  0  0  0  0  0  0  0  0  0
   58.6940   27.7010   45.3570 C   0  0  0  0  0  0  0  0  0  0  0  0
   58.4420   26.3560   45.6480 C   0  0  0  0  0  0  0  0  0  0  0  0
   57.1350   25.9150   45.8620 C   0  0  0  0  0  0  0  0  0  0  0  0
   56.0720   26.8190   45.7930 C   0  0  0  0  0  0  0  0  0  0  0  0
   54.7710   26.3780   46.0010 O   0  0  0  0  0  0  0  0  0  0  0  0
   56.3190   28.1700   45.5300 C   0  0  0  0  0  0  0  0  0  0  0  0
   57.6330   28.6300   45.3260 C   0  0  0  0  0  0  0  0  0  0  0  0
   59.6575   31.0217   44.4435 H   0  0  0  0  0  0  0  0  0  0  0  0
   59.1328   31.5065   46.1324 H   0  0  0  0  0  0  0  0  0  0  0  0
   61.2532   30.2436   46.0447 H   0  0  0  0  0  0  0  0  0  0  0  0
   58.8734   31.1023   48.2682 H   0  0  0  0  0  0  0  0  0  0  0  0
   58.9319   29.6922   50.5657 H   0  0  0  0  0  0  0  0  0  0  0  0
   60.2961   27.4534   50.0733 H   0  0  0  0  0  0  0  0  0  0  0  0
   61.0410   27.4810   47.5910 H   0  0  0  0  0  0  0  0  0  0  0  0
   59.2774   25.6429   45.7084 H   0  0  0  0  0  0  0  0  0  0  0  0
   56.9419   24.8553   46.0851 H   0  0  0  0  0  0  0  0  0  0  0  0
   55.4792   28.8789   45.4822 H   0  0  0  0  0  0  0  0  0  0  0  0
  1  2  2  0
  2  3  1  0
  3  4  1  0
  4  5  1  0
  5  6  2  0
  6  7  1  0
  7  8  2  0
  8  9  1  0
  4 10  1  0
 10 11  1  0
 11 12  2  0
 12 13  1  0
 13 14  2  0
 14 15  1  0
 14 16  1  0
 16 17  2  0
 17  2  1  0
  9  5  1  0
 17 11  1  0
  3 18  1  0
  3 19  1  0
  4 20  1  1
  6 21  1  0
  7 22  1  0
  8 23  1  0
  9 24  1  0
 12 25  1  0
 13 26  1  0
 16 27  1  0
M  CHG  1  15  -1
M  END
>  <UniqueID>  (57) 
47

>  <SMILES>  (57) 
O=C1C[C@@H](c2ccc[nH]2)Sc2ccc([O-])cc21

>  <Energy>  (57) 
60.56369335651056

>  <Genealogy>  (57) 
O=C1CC(c2ccc[nH]2)Sc2ccc([O-])cc21 (protonated)
O=C1C[C@@H](c2ccc[nH]2)Sc2ccc([O-])cc21 (chirality)
O=C1C[C@@H](c2ccc[nH]2)Sc2ccc([O-])cc21 (3D coordinates assigned)
O=C1C[C@@H](c2ccc[nH]2)Sc2ccc([O-])cc21 (nonaromatic ring conformer: 60.56369335651056 kcal/mol)

>  <smiles>  (57) 
O=C1CC(c2ccc[nH]2)Sc2ccc(O)cc21

>  <score_type>  (57) 
oracle

>  <origin>  (57) 
adg

>  <m_score__min__energy>  (57) 
-9.3300000000000001

>  <m_primary>  (57) 
energy

$$$$
57:0
     RDKit          3D

 45 47  0  0  0  0  0  0  0  0999 V2000
   52.1883   31.3523   53.2508 H   0  0  0  0  0  0  0  0  0  0  0  0
   52.2170   31.4650   52.1570 C   0  0  0  0  0  0  0  0  0  0  0  0
   51.2270   32.3400   51.5050 C   0  0  0  0  0  0  0  0  0  0  0  0
   50.2300   32.7800   52.1360 O   0  0  0  0  0  0  0  0  0  0  0  0
   51.3980   32.6890   50.1720 O   0  0  0  0  0  0  0  0  0  0  0  0
   53.1510   30.8020   51.4620 C   0  0  0  0  0  0  0  0  0  0  0  0
   52.8919   30.4469   50.4536 H   0  0  0  0  0  0  0  0  0  0  0  0
   54.5150   30.5190   51.9740 C   0  0  0  0  0  0  0  0  0  0  0  0
   54.9170   29.2340   52.3830 C   0  0  0  0  0  0  0  0  0  0  0  0
   54.2032   28.3983   52.3375 H   0  0  0  0  0  0  0  0  0  0  0  0
   56.2150   29.0120   52.8460 C   0  0  0  0  0  0  0  0  0  0  0  0
   56.5130   28.0046   53.1721 H   0  0  0  0  0  0  0  0  0  0  0  0
   57.1450   30.0660   52.8990 C   0  0  0  0  0  0  0  0  0  0  0  0
   58.4630   29.8820   53.3520 O   0  0  0  0  0  0  0  0  0  0  0  0
   59.5920   29.6040   52.5240 C   0  0  0  0  0  0  0  0  0  0  0  0
   60.4969   30.0119   52.9981 H   0  0  0  0  0  0  0  0  0  0  0  0
   59.6831   28.5144   52.4034 H   0  0  0  0  0  0  0  0  0  0  0  0
   59.4220   30.2250   51.1750 C   0  0  0  0  0  0  0  0  0  0  0  0
   58.9210   29.5690   50.1050 N   0  0  0  0  0  0  0  0  0  0  0  0
   58.8760   30.3200   49.0070 N   0  0  0  0  0  0  0  0  0  0  0  0
   58.4750   29.9630   48.1120 H   0  0  0  0  0  0  0  0  0  0  0  0
   59.3490   31.5770   49.1800 C   0  0  0  0  0  0  0  0  0  0  0  0
   59.3640   32.6200   48.1320 C   0  0  0  0  0  0  0  0  0  0  0  0
   58.1450   32.9890   47.5380 C   0  0  0  0  0  0  0  0  0  0  0  0
   57.2096   32.5215   47.8793 H   0  0  0  0  0  0  0  0  0  0  0  0
   58.1090   33.9430   46.5190 C   0  0  0  0  0  0  0  0  0  0  0  0
   57.1488   34.2202   46.0594 H   0  0  0  0  0  0  0  0  0  0  0  0
   59.2880   34.5440   46.0840 C   0  0  0  0  0  0  0  0  0  0  0  0
   59.2586   35.2866   45.2730 H   0  0  0  0  0  0  0  0  0  0  0  0
   60.5070   34.2060   46.6750 C   0  0  0  0  0  0  0  0  0  0  0  0
   61.4338   34.6830   46.3235 H   0  0  0  0  0  0  0  0  0  0  0  0
   60.5610   33.2610   47.7160 C   0  0  0  0  0  0  0  0  0  0  0  0
   61.8950   32.9670   48.3490 C   0  0  0  0  0  0  0  0  0  0  0  0
   61.7941   32.9892   49.4441 H   0  0  0  0  0  0  0  0  0  0  0  0
   62.2395   31.9714   48.0327 H   0  0  0  0  0  0  0  0  0  0  0  0
   62.6261   33.7256   48.0327 H   0  0  0  0  0  0  0  0  0  0  0  0
   59.8420   31.8080   50.7770 S   0  0  0  0  0  0  0  0  0  0  0  0
   56.7590   31.3490   52.4840 C   0  0  0  0  0  0  0  0  0  0  0  0
   57.7090   32.3810   52.5450 O   0  0  0  0  0  0  0  0  0  0  0  0
   58.3690   32.8040   53.7340 C   0  0  0  0  0  0  0  0  0  0  0  0
   57.8099   32.4457   54.6110 H   0  0  0  0  0  0  0  0  0  0  0  0
   59.3880   32.3903   53.7547 H   0  0  0  0  0  0  0  0  0  0  0  0
   58.4188   33.9027   53.7547 H   0  0  0  0  0  0  0  0  0  0  0  0
   55.4480   31.5660   52.0190 C   0  0  0  0  0  0  0  0  0  0  0  0
   55.1507   32.5713   51.6860 H   0  0  0  0  0  0  0  0  0  0  0  0
  1  2  1  0
  2  3  1  0
  3  4  2  0
  3  5  1  0
  2  6  2  0
  6  7  1  0
  6  8  1  0
  8  9  2  0
  9 10  1  0
  9 11  1  0
 11 12  1  0
 11 13  2  0
 13 14  1  0
 14 15  1  0
 15 16  1  0
 15 17  1  0
 15 18  1  0
 18 19  2  0
 19 20  1  0
 20 21  1  0
 20 22  2  0
 22 23  1  0
 23 24  2  0
 24 25  1  0
 24 26  1  0
 26 27  1  0
 26 28  2  0
 28 29  1  0
 28 30  1  0
 30 31  1  0
 30 32  2  0
 32 33  1  0
 33 34  1  0
 33 35  1  0
 33 36  1  0
 22 37  1  0
 13 38  1  0
 38 39  1  0
 39 40  1  0
 40 41  1  0
 40 42  1  0
 40 43  1  0
 38 44  2  0
 44 45  1  0
 44  8  1  0
 37 18  1  0
 32 23  1  0
M  CHG  2   5  -1  20   1
M  END
>  <UniqueID>  (58) 
48

>  <SMILES>  (58) 
COc1cc(/C=C/C(=O)[O-])ccc1OCc1n[nH+]c(-c2ccccc2C)s1

>  <Energy>  (58) 
86.12540269767575

>  <Genealogy>  (58) 
COc1cc(C=CC(=O)[O-])ccc1OCc1n[nH+]c(-c2ccccc2C)s1 (protonated)
COc1cc(/C=C/C(=O)[O-])ccc1OCc1n[nH+]c(-c2ccccc2C)s1 (cis-trans isomerization)
COc1cc(/C=C/C(=O)[O-])ccc1OCc1n[nH+]c(-c2ccccc2C)s1 (3D coordinates assigned)
COc1cc(/C=C/C(=O)[O-])ccc1OCc1n[nH+]c(-c2ccccc2C)s1 (optimized conformer: 86.12540269767575 kcal/mol)

>  <smiles>  (58) 
COc1cc(C=CC(=O)O)ccc1OCc1nnc(-c2ccccc2C)s1

>  <score_type>  (58) 
oracle

>  <origin>  (58) 
adg

>  <m_score__min__energy>  (58) 
-10.25

>  <m_primary>  (58) 
energy

$$$$
58:0
     RDKit          3D

 52 54  0  0  0  0  0  0  0  0999 V2000
   61.0400   28.0430   50.8090 C   0  0  0  0  0  0  0  0  0  0  0  0
   61.9280   29.1880   51.1610 C   0  0  0  0  0  0  0  0  0  0  0  0
   61.9040   30.2350   50.4620 O   0  0  0  0  0  0  0  0  0  0  0  0
   62.7650   29.1050   52.3190 N   0  0  0  0  0  0  0  0  0  0  0  0
   64.2180   28.9940   52.2590 C   0  0  0  0  0  0  0  0  0  0  0  0
   64.8120   30.2650   51.7390 C   0  0  0  0  0  0  0  0  0  0  0  0
   64.0920   31.3600   51.4140 N   0  0  0  0  0  0  0  0  0  0  0  0
   64.8640   32.4050   51.0120 C   0  0  0  0  0  0  0  0  0  0  0  0
   64.2580   33.6160   50.6380 O   0  0  0  0  0  0  0  0  0  0  0  0
   63.4510   33.8250   49.4770 C   0  0  1  0  0  0  0  0  0  0  0  0
   64.0490   33.0850   48.2630 C   0  0  0  0  0  0  0  0  0  0  0  0
   63.7120   33.6820   46.8790 C   0  0  0  0  0  0  0  0  0  0  0  0
   62.2270   33.5790   46.4700 C   0  0  0  0  0  0  0  0  0  0  0  0
   61.4190   32.6820   47.4270 C   0  0  0  0  0  0  0  0  0  0  0  0
   61.0980   33.3570   48.6920 N   0  0  0  0  0  0  0  0  0  0  0  0
   59.8370   34.0850   48.8620 C   0  0  0  0  0  0  0  0  0  0  0  0
   59.0780   34.1020   47.5640 C   0  0  0  0  0  0  0  0  0  0  0  0
   58.0410   33.1800   47.3440 C   0  0  0  0  0  0  0  0  0  0  0  0
   57.3760   33.1500   46.1150 C   0  0  0  0  0  0  0  0  0  0  0  0
   57.7460   34.0320   45.0950 C   0  0  0  0  0  0  0  0  0  0  0  0
   58.7860   34.9420   45.3020 C   0  0  0  0  0  0  0  0  0  0  0  0
   59.4560   34.9740   46.5300 C   0  0  0  0  0  0  0  0  0  0  0  0
   62.0510   33.3710   49.7600 C   0  0  0  0  0  0  0  0  0  0  0  0
   61.7100   33.0010   50.9150 O   0  0  0  0  0  0  0  0  0  0  0  0
   66.2460   32.1440   51.0480 C   0  0  0  0  0  0  0  0  0  0  0  0
   67.3820   33.0820   50.8010 C   0  0  0  0  0  0  0  0  0  0  0  0
   66.4560   30.5580   51.5810 S   0  0  0  0  0  0  0  0  0  0  0  0
   60.6716   27.5680   51.7302 H   0  0  0  0  0  0  0  0  0  0  0  0
   60.1869   28.4086   50.2186 H   0  0  0  0  0  0  0  0  0  0  0  0
   61.6064   27.3078   50.2186 H   0  0  0  0  0  0  0  0  0  0  0  0
   64.6093   28.7961   53.2678 H   0  0  0  0  0  0  0  0  0  0  0  0
   64.4875   28.1689   51.5832 H   0  0  0  0  0  0  0  0  0  0  0  0
   63.0490   31.4030   51.4590 H   0  0  0  0  0  0  0  0  0  0  0  0
   63.4300   34.8967   49.2301 H   0  0  0  0  0  0  0  0  0  0  0  0
   65.1435   33.0852   48.3732 H   0  0  0  0  0  0  0  0  0  0  0  0
   63.5985   32.0816   48.2732 H   0  0  0  0  0  0  0  0  0  0  0  0
   63.9905   34.7461   46.8890 H   0  0  0  0  0  0  0  0  0  0  0  0
   64.2762   33.0908   46.1427 H   0  0  0  0  0  0  0  0  0  0  0  0
   61.7878   34.5875   46.4747 H   0  0  0  0  0  0  0  0  0  0  0  0
   62.1840   33.1274   45.4679 H   0  0  0  0  0  0  0  0  0  0  0  0
   60.4797   32.3939   46.9323 H   0  0  0  0  0  0  0  0  0  0  0  0
   62.0366   31.8030   47.6637 H   0  0  0  0  0  0  0  0  0  0  0  0
   59.2300   33.5883   49.6332 H   0  0  0  0  0  0  0  0  0  0  0  0
   60.0537   35.1189   49.1688 H   0  0  0  0  0  0  0  0  0  0  0  0
   57.7516   32.4797   48.1413 H   0  0  0  0  0  0  0  0  0  0  0  0
   56.5600   32.4311   45.9498 H   0  0  0  0  0  0  0  0  0  0  0  0
   57.2185   34.0095   44.1300 H   0  0  0  0  0  0  0  0  0  0  0  0
   59.0784   35.6341   44.4985 H   0  0  0  0  0  0  0  0  0  0  0  0
   60.2813   35.6843   46.6860 H   0  0  0  0  0  0  0  0  0  0  0  0
   67.7931   33.4214   51.7632 H   0  0  0  0  0  0  0  0  0  0  0  0
   68.1666   32.5651   50.2290 H   0  0  0  0  0  0  0  0  0  0  0  0
   67.0229   33.9502   50.2290 H   0  0  0  0  0  0  0  0  0  0  0  0
  1  2  1  0
  2  3  2  0
  2  4  1  0
  4  5  1  0
  5  6  1  0
  6  7  2  0
  7  8  1  0
  8  9  1  0
  9 10  1  0
 10 11  1  0
 11 12  1  0
 12 13  1  0
 13 14  1  0
 14 15  1  0
 15 16  1  0
 16 17  1  0
 17 18  2  0
 18 19  1  0
 19 20  2  0
 20 21  1  0
 21 22  2  0
 15 23  1  0
 23 24  2  0
  8 25  2  0
 25 26  1  0
 25 27  1  0
 27  6  1  0
 23 10  1  0
 22 17  1  0
  1 28  1  0
  1 29  1  0
  1 30  1  0
  5 31  1  0
  5 32  1  0
  7 33  1  0
 10 34  1  6
 11 35  1  0
 11 36  1  0
 12 37  1  0
 12 38  1  0
 13 39  1  0
 13 40  1  0
 14 41  1  0
 14 42  1  0
 16 43  1  0
 16 44  1  0
 18 45  1  0
 19 46  1  0
 20 47  1  0
 21 48  1  0
 22 49  1  0
 26 50  1  0
 26 51  1  0
 26 52  1  0
M  CHG  2   4  -1   7   1
M  END
>  <UniqueID>  (59) 
49

>  <SMILES>  (59) 
CC(=O)[N-]Cc1[nH+]c(O[C@H]2CCCCN(Cc3ccccc3)C2=O)c(C)s1

>  <Energy>  (59) 
83.91158117002776

>  <Genealogy>  (59) 
CC(=O)[N-]Cc1[nH+]c(OC2CCCCN(Cc3ccccc3)C2=O)c(C)s1 (protonated)
CC(=O)[N-]Cc1[nH+]c(O[C@H]2CCCCN(Cc3ccccc3)C2=O)c(C)s1 (chirality)
CC(=O)[N-]Cc1[nH+]c(O[C@H]2CCCCN(Cc3ccccc3)C2=O)c(C)s1 (3D coordinates assigned)
CC(=O)[N-]Cc1[nH+]c(O[C@H]2CCCCN(Cc3ccccc3)C2=O)c(C)s1 (nonaromatic ring conformer: 83.91158117002776 kcal/mol)

>  <smiles>  (59) 
CC(=O)NCc1nc(OC2CCCCN(Cc3ccccc3)C2=O)c(C)s1

>  <score_type>  (59) 
oracle

>  <origin>  (59) 
adg

>  <m_score__min__energy>  (59) 
-6.6500000000000004

>  <m_primary>  (59) 
energy

$$$$
59:0
     RDKit          3D

 21 22  0  0  0  0  0  0  0  0999 V2000
   57.3380   27.4470   45.2700 S   0  0  0  0  0  0  0  0  0  0  0  0
   56.8610   28.9570   44.8480 C   0  0  0  0  0  0  0  0  0  0  0  0
   55.6000   29.4660   44.9260 N   0  0  0  0  0  0  0  0  0  0  0  0
   55.6960   30.7240   44.4740 N   0  0  0  0  0  0  0  0  0  0  0  0
   56.9700   30.9810   44.1310 C   0  0  0  0  0  0  0  0  0  0  0  0
   57.5700   32.2280   43.5820 C   0  0  0  0  0  0  0  0  0  0  0  0
   58.0250   33.0400   44.7470 C   0  0  0  0  0  0  0  0  0  0  0  0
   58.8950   34.1150   44.5630 C   0  0  0  0  0  0  0  0  0  0  0  0
   59.3340   34.8840   45.6120 C   0  0  0  0  0  0  0  0  0  0  0  0
   58.9050   34.5940   46.9080 C   0  0  0  0  0  0  0  0  0  0  0  0
   58.0420   33.5330   47.1120 C   0  0  0  0  0  0  0  0  0  0  0  0
   57.6090   32.7680   46.0450 C   0  0  0  0  0  0  0  0  0  0  0  0
   57.6610   29.8980   44.3640 O   0  0  0  0  0  0  0  0  0  0  0  0
   54.7490   28.9650   45.2690 H   0  0  0  0  0  0  0  0  0  0  0  0
   58.4250   31.9831   42.9348 H   0  0  0  0  0  0  0  0  0  0  0  0
   56.8382   32.7835   42.9771 H   0  0  0  0  0  0  0  0  0  0  0  0
   59.2398   34.3537   43.5461 H   0  0  0  0  0  0  0  0  0  0  0  0
   60.0204   35.7245   45.4320 H   0  0  0  0  0  0  0  0  0  0  0  0
   59.2494   35.2024   47.7573 H   0  0  0  0  0  0  0  0  0  0  0  0
   57.6979   33.2962   48.1296 H   0  0  0  0  0  0  0  0  0  0  0  0
   56.9222   31.9281   46.2267 H   0  0  0  0  0  0  0  0  0  0  0  0
  1  2  2  0
  2  3  1  0
  3  4  1  0
  4  5  2  0
  5  6  1  0
  6  7  1  0
  7  8  2  0
  8  9  1  0
  9 10  2  0
 10 11  1  0
 11 12  2  0
  5 13  1  0
 13  2  1  0
 12  7  1  0
  3 14  1  0
  6 15  1  0
  6 16  1  0
  8 17  1  0
  9 18  1  0
 10 19  1  0
 11 20  1  0
 12 21  1  0
M  END
>  <smiles>  (60) 
S=c1[nH]nc(Cc2ccccc2)o1

>  <score_type>  (60) 
oracle

>  <origin>  (60) 
adg

>  <m_score__min__energy>  (60) 
-6.5099999999999998

>  <m_primary>  (60) 
energy

$$$$
60:0
     RDKit          3D

 53 56  0  0  1  0  0  0  0  0999 V2000
   56.7150   29.1950   42.7420 N   0  0  0  0  0  0  0  0  0  0  0  0
   56.5810   29.7740   44.3790 S   0  0  0  0  0  0  0  0  0  0  0  0
   55.4880   28.9700   45.0240 O   0  0  0  0  0  0  0  0  0  0  0  0
   56.2590   31.2330   44.4380 O   0  0  0  0  0  0  0  0  0  0  0  0
   58.0800   29.4370   45.2160 C   0  0  0  0  0  0  0  0  0  0  0  0
   59.2730   29.2170   44.5510 C   0  0  0  0  0  0  0  0  0  0  0  0
   60.4480   28.9490   45.2570 C   0  0  0  0  0  0  0  0  0  0  0  0
   60.4600   28.8960   46.6440 C   0  0  0  0  0  0  0  0  0  0  0  0
   59.2590   29.1180   47.2930 C   0  0  0  0  0  0  0  0  0  0  0  0
   59.1340   29.0910   48.7110 N   0  0  0  0  0  0  0  0  0  0  0  0
   58.8980   30.1110   49.4360 C   0  0  0  0  0  0  0  0  0  0  0  0
   58.1170   29.9920   50.5000 N   0  0  0  0  0  0  0  0  0  0  0  0
   57.8850   31.0880   51.2480 C   0  0  0  0  0  0  0  0  0  0  0  0
   57.0530   31.0150   52.4030 N   0  0  0  0  0  0  0  0  0  0  0  0
   55.9220   30.4200   52.4250 C   0  0  0  0  0  0  0  0  0  0  0  0
   55.7670   29.3720   53.3150 C   0  0  0  0  0  0  0  0  0  0  0  0
   54.5610   28.7010   53.3730 C   0  0  0  0  0  0  0  0  0  0  0  0
   53.5490   29.1120   52.5280 C   0  0  0  0  0  0  0  0  0  0  0  0
   53.7660   30.1630   51.6640 C   0  0  0  0  0  0  0  0  0  0  0  0
   54.9430   30.8290   51.5970 N   0  0  0  0  0  0  0  0  0  0  0  0
   58.4410   32.3290   50.9300 C   0  0  0  0  0  0  0  0  0  0  0  0
   59.2420   32.3900   49.8150 C   0  0  0  0  0  0  0  0  0  0  0  0
   59.8200   33.4690   49.4030 N   0  0  0  0  0  0  0  0  0  0  0  0
   60.4270   33.4370   48.0870 C   0  0  0  0  0  0  0  0  0  0  0  0
   59.4150   33.6950   47.0200 C   0  0  0  0  0  0  0  0  0  0  0  0
   59.7690   34.4010   45.8670 C   0  0  0  0  0  0  0  0  0  0  0  0
   58.8390   34.6500   44.8630 C   0  0  0  0  0  0  0  0  0  0  0  0
   57.5630   34.1930   45.0190 C   0  0  0  0  0  0  0  0  0  0  0  0
   57.2090   33.4910   46.1660 C   0  0  0  0  0  0  0  0  0  0  0  0
   58.1210   33.2380   47.1670 C   0  0  0  0  0  0  0  0  0  0  0  0
   59.4570   31.2790   49.0860 N   0  0  0  0  0  0  0  0  0  0  0  0
   58.0840   29.3840   46.5890 C   0  0  0  0  0  0  0  0  0  0  0  0
   56.6780   28.1440   42.7810 H   0  0  0  0  0  0  0  0  0  0  0  0
   55.8410   29.4970   42.2540 H   0  0  0  0  0  0  0  0  0  0  0  0
   59.2965   29.2536   43.4519 H   0  0  0  0  0  0  0  0  0  0  0  0
   61.3824   28.7765   44.7028 H   0  0  0  0  0  0  0  0  0  0  0  0
   61.3842   28.6866   47.2025 H   0  0  0  0  0  0  0  0  0  0  0  0
   57.7050   29.0770   50.7370 H   0  0  0  0  0  0  0  0  0  0  0  0
   56.5982   29.0753   53.9716 H   0  0  0  0  0  0  0  0  0  0  0  0
   54.4112   27.8644   54.0713 H   0  0  0  0  0  0  0  0  0  0  0  0
   52.5742   28.6026   52.5447 H   0  0  0  0  0  0  0  0  0  0  0  0
   52.9469   30.4748   50.9993 H   0  0  0  0  0  0  0  0  0  0  0  0
   55.0940   31.6090   50.9510 H   0  0  0  0  0  0  0  0  0  0  0  0
   58.2461   33.2195   51.5456 H   0  0  0  0  0  0  0  0  0  0  0  0
   61.2094   34.2084   48.0337 H   0  0  0  0  0  0  0  0  0  0  0  0
   60.8568   32.4374   47.9255 H   0  0  0  0  0  0  0  0  0  0  0  0
   60.8003   34.7659   45.7515 H   0  0  0  0  0  0  0  0  0  0  0  0
   59.1274   35.2059   43.9587 H   0  0  0  0  0  0  0  0  0  0  0  0
   56.8131   34.3801   44.2363 H   0  0  0  0  0  0  0  0  0  0  0  0
   56.1761   33.1291   46.2767 H   0  0  0  0  0  0  0  0  0  0  0  0
   57.8231   32.6814   48.0678 H   0  0  0  0  0  0  0  0  0  0  0  0
   60.0670   31.3170   48.2320 H   0  0  0  0  0  0  0  0  0  0  0  0
   57.1477   29.5537   47.1410 H   0  0  0  0  0  0  0  0  0  0  0  0
  1  2  1  0
  2  3  2  0
  2  4  2  0
  2  5  1  0
  5  6  2  0
  6  7  1  0
  7  8  2  0
  8  9  1  0
  9 10  1  0
 10 11  2  0
 11 12  1  0
 12 13  1  0
 13 14  1  0
 14 15  2  0
 15 16  1  0
 16 17  2  0
 17 18  1  0
 18 19  2  0
 19 20  1  0
 13 21  2  0
 21 22  1  0
 22 23  2  0
 23 24  1  0
 24 25  1  0
 25 26  2  0
 26 27  1  0
 27 28  2  0
 28 29  1  0
 29 30  2  0
 22 31  1  0
  9 32  2  0
 32  5  1  0
 31 11  1  0
 20 15  1  0
 30 25  1  0
  1 33  1  0
  1 34  1  0
  6 35  1  0
  7 36  1  0
  8 37  1  0
 12 38  1  0
 16 39  1  0
 17 40  1  0
 18 41  1  0
 19 42  1  0
 20 43  1  0
 21 44  1  0
 24 45  1  0
 24 46  1  0
 26 47  1  0
 27 48  1  0
 28 49  1  0
 29 50  1  0
 30 51  1  0
 31 52  1  0
 32 53  1  0
M  END
>  <smiles>  (61) 
NS(=O)(=O)c1cccc(N=c2[nH]c(N=c3cccc[nH]3)cc(=NCc3ccccc3)[nH]2)c1

>  <score_type>  (61) 
oracle

>  <origin>  (61) 
adg

>  <m_score__min__energy>  (61) 
-10.58

>  <m_primary>  (61) 
energy

$$$$
61:0
     RDKit          3D

 41 43  0  0  0  0  0  0  0  0999 V2000
   58.5220   34.4840   44.8580 C   0  0  0  0  0  0  0  0  0  0  0  0
   58.3000   33.0550   45.0510 N   0  0  0  0  0  0  0  0  0  0  0  0
   57.5970   32.2380   44.2310 C   0  0  0  0  0  0  0  0  0  0  0  0
   57.5250   30.9640   44.7800 C   0  0  0  0  0  0  0  0  0  0  0  0
   56.6310   29.5950   44.1410 S   0  0  0  0  0  0  0  0  0  0  0  0
   55.6410   30.0850   43.1220 O   0  0  0  0  0  0  0  0  0  0  0  0
   55.8930   28.8910   45.2450 O   0  0  0  0  0  0  0  0  0  0  0  0
   57.7350   28.4930   43.3910 N   0  0  0  0  0  0  0  0  0  0  0  0
   57.9840   27.1850   43.9130 C   0  0  0  0  0  0  0  0  0  0  0  0
   57.7490   26.1720   43.2020 O   0  0  0  0  0  0  0  0  0  0  0  0
   58.5630   27.0360   45.2660 C   0  0  0  0  0  0  0  0  0  0  0  0
   59.7900   27.6750   45.5270 C   0  0  0  0  0  0  0  0  0  0  0  0
   60.4110   27.5490   46.7690 C   0  0  0  0  0  0  0  0  0  0  0  0
   59.8160   26.7900   47.7730 C   0  0  0  0  0  0  0  0  0  0  0  0
   58.5900   26.1640   47.5430 C   0  0  0  0  0  0  0  0  0  0  0  0
   57.9420   26.2820   46.3010 C   0  0  0  0  0  0  0  0  0  0  0  0
   56.3370   25.5380   46.1240 S   0  0  0  0  0  0  0  0  0  0  0  0
   56.2730   24.4920   44.6840 C   0  0  0  0  0  0  0  0  0  0  0  0
   55.2970   26.6110   45.9490 O   0  0  0  0  0  0  0  0  0  0  0  0
   56.0000   24.7480   47.3570 O   0  0  0  0  0  0  0  0  0  0  0  0
   58.1950   31.0240   45.9840 C   0  0  0  0  0  0  0  0  0  0  0  0
   58.3870   30.0640   46.9770 C   0  0  0  0  0  0  0  0  0  0  0  0
   59.0740   30.4520   48.1410 C   0  0  0  0  0  0  0  0  0  0  0  0
   59.5400   31.7760   48.2880 C   0  0  0  0  0  0  0  0  0  0  0  0
   59.3260   32.7260   47.2730 C   0  0  0  0  0  0  0  0  0  0  0  0
   58.6490   32.3130   46.1220 C   0  0  0  0  0  0  0  0  0  0  0  0
   58.5989   34.9787   45.8375 H   0  0  0  0  0  0  0  0  0  0  0  0
   59.4548   34.6375   44.2955 H   0  0  0  0  0  0  0  0  0  0  0  0
   57.6798   34.9132   44.2955 H   0  0  0  0  0  0  0  0  0  0  0  0
   57.1493   32.5387   43.2723 H   0  0  0  0  0  0  0  0  0  0  0  0
   60.2647   28.2812   44.7414 H   0  0  0  0  0  0  0  0  0  0  0  0
   61.3723   28.0500   46.9558 H   0  0  0  0  0  0  0  0  0  0  0  0
   60.3127   26.6836   48.7487 H   0  0  0  0  0  0  0  0  0  0  0  0
   58.1247   25.5706   48.3439 H   0  0  0  0  0  0  0  0  0  0  0  0
   56.2086   23.4397   44.9978 H   0  0  0  0  0  0  0  0  0  0  0  0
   55.3890   24.7500   44.0824 H   0  0  0  0  0  0  0  0  0  0  0  0
   57.1819   24.6403   44.0824 H   0  0  0  0  0  0  0  0  0  0  0  0
   58.0133   29.0368   46.8538 H   0  0  0  0  0  0  0  0  0  0  0  0
   59.2493   29.7188   48.9421 H   0  0  0  0  0  0  0  0  0  0  0  0
   60.0750   32.0674   49.2039 H   0  0  0  0  0  0  0  0  0  0  0  0
   59.6804   33.7617   47.3817 H   0  0  0  0  0  0  0  0  0  0  0  0
  1  2  1  0
  2  3  1  0
  3  4  2  0
  4  5  1  0
  5  6  2  0
  5  7  2  0
  5  8  1  0
  8  9  1  0
  9 10  2  0
  9 11  1  0
 11 12  2  0
 12 13  1  0
 13 14  2  0
 14 15  1  0
 15 16  2  0
 16 17  1  0
 17 18  1  0
 17 19  2  0
 17 20  2  0
  4 21  1  0
 21 22  2  0
 22 23  1  0
 23 24  2  0
 24 25  1  0
 25 26  2  0
 26  2  1  0
 16 11  1  0
 26 21  1  0
  1 27  1  0
  1 28  1  0
  1 29  1  0
  3 30  1  0
 12 31  1  0
 13 32  1  0
 14 33  1  0
 15 34  1  0
 18 35  1  0
 18 36  1  0
 18 37  1  0
 22 38  1  0
 23 39  1  0
 24 40  1  0
 25 41  1  0
M  CHG  1   8  -1
M  END
>  <UniqueID>  (62) 
50

>  <SMILES>  (62) 
Cn1cc(S(=O)(=O)[N-]C(=O)c2ccccc2S(C)(=O)=O)c2ccccc21

>  <Energy>  (62) 
80.30750741237404

>  <Genealogy>  (62) 
Cn1cc(S(=O)(=O)[N-]C(=O)c2ccccc2S(C)(=O)=O)c2ccccc21 (protonated)
Cn1cc(S(=O)(=O)[N-]C(=O)c2ccccc2S(C)(=O)=O)c2ccccc21 (3D coordinates assigned)
Cn1cc(S(=O)(=O)[N-]C(=O)c2ccccc2S(C)(=O)=O)c2ccccc21 (optimized conformer: 80.30750741237404 kcal/mol)

>  <smiles>  (62) 
Cn1cc(S(=O)(=O)NC(=O)c2ccccc2S(C)(=O)=O)c2ccccc21

>  <score_type>  (62) 
oracle

>  <origin>  (62) 
adg

>  <m_score__min__energy>  (62) 
-10.5

>  <m_primary>  (62) 
energy

$$$$
62:0
     RDKit          3D

 37 39  0  0  0  0  0  0  0  0999 V2000
   63.7722   32.2829   47.9167 H   0  0  0  0  0  0  0  0  0  0  0  0
   62.7150   32.3100   47.6140 C   0  0  0  0  0  0  0  0  0  0  0  0
   62.0990   31.1760   47.1920 N   0  0  0  0  0  0  0  0  0  0  0  0
   60.7910   31.1780   46.8100 C   0  0  0  0  0  0  0  0  0  0  0  0
   60.1730   29.9470   46.3760 N   0  0  0  0  0  0  0  0  0  0  0  0
   60.7860   29.1720   45.2880 C   0  0  0  0  0  0  0  0  0  0  0  0
   61.5603   28.5108   45.7041 H   0  0  0  0  0  0  0  0  0  0  0  0
   61.2356   29.8653   44.5619 H   0  0  0  0  0  0  0  0  0  0  0  0
   59.7240   28.3250   44.5800 C   0  0  0  0  0  0  0  0  0  0  0  0
   60.2106   27.7269   43.7954 H   0  0  0  0  0  0  0  0  0  0  0  0
   58.9743   29.0059   44.1506 H   0  0  0  0  0  0  0  0  0  0  0  0
   59.0330   27.4130   45.5180 N   0  0  0  0  0  0  0  0  0  0  0  0
   57.7940   26.8290   44.9570 C   0  0  0  0  0  0  0  0  0  0  0  0
   57.8347   25.7369   45.0824 H   0  0  0  0  0  0  0  0  0  0  0  0
   57.7454   27.1226   43.8980 H   0  0  0  0  0  0  0  0  0  0  0  0
   56.5330   27.3440   45.6250 C   0  0  0  0  0  0  0  0  0  0  0  0
   55.9520   26.6220   46.4810 O   0  0  0  0  0  0  0  0  0  0  0  0
   55.9140   28.5810   45.2390 N   0  0  0  0  0  0  0  0  0  0  0  0
   56.4920   29.5690   44.6210 C   0  0  0  0  0  0  0  0  0  0  0  0
   57.0000   30.6620   45.2370 N   0  0  0  0  0  0  0  0  0  0  0  0
   57.5000   31.5540   44.3410 C   0  0  0  0  0  0  0  0  0  0  0  0
   57.9643   32.5027   44.6483 H   0  0  0  0  0  0  0  0  0  0  0  0
   57.3810   31.1780   43.0060 C   0  0  0  0  0  0  0  0  0  0  0  0
   57.7271   31.7589   42.1384 H   0  0  0  0  0  0  0  0  0  0  0  0
   56.6140   29.6770   42.9500 S   0  0  0  0  0  0  0  0  0  0  0  0
   58.8980   27.8970   46.9160 C   0  0  0  0  0  0  0  0  0  0  0  0
   59.7130   27.4662   47.5162 H   0  0  0  0  0  0  0  0  0  0  0  0
   57.9088   27.5812   47.2791 H   0  0  0  0  0  0  0  0  0  0  0  0
   58.9620   29.4280   47.0310 C   0  0  0  0  0  0  0  0  0  0  0  0
   58.9769   29.7102   48.0941 H   0  0  0  0  0  0  0  0  0  0  0  0
   58.0791   29.8578   46.5352 H   0  0  0  0  0  0  0  0  0  0  0  0
   60.0840   32.3510   46.8460 N   0  0  0  0  0  0  0  0  0  0  0  0
   59.0850   32.3880   46.5400 H   0  0  0  0  0  0  0  0  0  0  0  0
   60.6710   33.5080   47.2610 C   0  0  0  0  0  0  0  0  0  0  0  0
   60.0912   34.4426   47.2788 H   0  0  0  0  0  0  0  0  0  0  0  0
   62.0050   33.5090   47.6630 C   0  0  0  0  0  0  0  0  0  0  0  0
   62.4870   34.4345   48.0111 H   0  0  0  0  0  0  0  0  0  0  0  0
  1  2  1  0
  2  3  2  0
  3  4  1  0
  4  5  1  0
  5  6  1  0
  6  7  1  0
  6  8  1  0
  6  9  1  0
  9 10  1  0
  9 11  1  0
  9 12  1  0
 12 13  1  0
 13 14  1  0
 13 15  1  0
 13 16  1  0
 16 17  2  0
 16 18  1  0
 18 19  2  0
 19 20  1  0
 20 21  1  0
 21 22  1  0
 21 23  2  0
 23 24  1  0
 23 25  1  0
 12 26  1  0
 26 27  1  0
 26 28  1  0
 26 29  1  0
 29 30  1  0
 29 31  1  0
  4 32  2  0
 32 33  1  0
 32 34  1  0
 34 35  1  0
 34 36  2  0
 36 37  1  0
 36  2  1  0
 29  5  1  0
 25 19  1  0
M  CHG  2  20  -1  32   1
M  END
>  <UniqueID>  (63) 
51

>  <SMILES>  (63) 
O=C(CN1CCN(c2nccc[nH+]2)CC1)/N=c1\[n-]ccs1

>  <Energy>  (63) 
85.74225175082992

>  <Genealogy>  (63) 
O=C(CN1CCN(c2nccc[nH+]2)CC1)N=c1[n-]ccs1 (protonated)
O=C(CN1CCN(c2nccc[nH+]2)CC1)/N=c1\[n-]ccs1 (cis-trans isomerization)
O=C(CN1CCN(c2nccc[nH+]2)CC1)/N=c1\[n-]ccs1 (3D coordinates assigned)
O=C(CN1CCN(c2nccc[nH+]2)CC1)/N=c1\[n-]ccs1 (nonaromatic ring conformer: 85.74225175082992 kcal/mol)

>  <smiles>  (63) 
O=C(CN1CCN(c2ncccn2)CC1)N=c1[nH]ccs1

>  <score_type>  (63) 
oracle

>  <origin>  (63) 
adg

>  <m_score__min__energy>  (63) 
-7.3499999999999996

>  <m_primary>  (63) 
energy

$$$$
63:0
     RDKit          3D

 35 37  0  0  0  0  0  0  0  0999 V2000
   56.9170   29.8820   43.1460 C   0  0  0  0  0  0  0  0  0  0  0  0
   57.7500   30.5610   44.2080 C   0  0  0  0  0  0  0  0  0  0  0  0
   57.4300   31.8840   44.5450 C   0  0  0  0  0  0  0  0  0  0  0  0
   58.1620   32.5580   45.5190 C   0  0  0  0  0  0  0  0  0  0  0  0
   57.8460   33.8840   45.8590 C   0  0  0  0  0  0  0  0  0  0  0  0
   58.5870   34.5540   46.8350 C   0  0  0  0  0  0  0  0  0  0  0  0
   59.6440   33.9090   47.4770 C   0  0  0  0  0  0  0  0  0  0  0  0
   59.9670   32.5900   47.1470 C   0  0  0  0  0  0  0  0  0  0  0  0
   59.2290   31.9010   46.1640 C   0  0  0  0  0  0  0  0  0  0  0  0
   59.5300   30.5720   45.8080 C   0  0  0  0  0  0  0  0  0  0  0  0
   60.4890   29.9850   46.3840 O   0  0  0  0  0  0  0  0  0  0  0  0
   58.7960   29.9160   44.8420 N   0  0  0  0  0  0  0  0  0  0  0  0
   59.1530   28.5240   44.4770 C   0  0  0  0  0  0  0  0  0  0  0  0
   58.4290   27.5230   45.3440 C   0  0  0  0  0  0  0  0  0  0  0  0
   59.1550   26.6540   46.1770 C   0  0  0  0  0  0  0  0  0  0  0  0
   58.4910   25.7110   46.9640 C   0  0  0  0  0  0  0  0  0  0  0  0
   57.0970   25.6160   46.9210 C   0  0  0  0  0  0  0  0  0  0  0  0
   56.3630   26.4610   46.0830 C   0  0  0  0  0  0  0  0  0  0  0  0
   54.9750   26.3510   46.0420 O   0  0  0  0  0  0  0  0  0  0  0  0
   57.0280   27.4080   45.2910 C   0  0  0  0  0  0  0  0  0  0  0  0
   56.1498   29.2566   43.6259 H   0  0  0  0  0  0  0  0  0  0  0  0
   56.4299   30.6437   42.5194 H   0  0  0  0  0  0  0  0  0  0  0  0
   57.5648   29.2513   42.5194 H   0  0  0  0  0  0  0  0  0  0  0  0
   56.5966   32.3918   44.0374 H   0  0  0  0  0  0  0  0  0  0  0  0
   57.0128   34.3958   45.3552 H   0  0  0  0  0  0  0  0  0  0  0  0
   58.3365   35.5923   47.0979 H   0  0  0  0  0  0  0  0  0  0  0  0
   60.2251   34.4401   48.2453 H   0  0  0  0  0  0  0  0  0  0  0  0
   60.8017   32.0870   47.6572 H   0  0  0  0  0  0  0  0  0  0  0  0
   58.8813   28.3491   43.4255 H   0  0  0  0  0  0  0  0  0  0  0  0
   60.2347   28.3937   44.6282 H   0  0  0  0  0  0  0  0  0  0  0  0
   60.2527   26.7173   46.2090 H   0  0  0  0  0  0  0  0  0  0  0  0
   59.0664   25.0410   47.6197 H   0  0  0  0  0  0  0  0  0  0  0  0
   56.5771   24.8758   47.5470 H   0  0  0  0  0  0  0  0  0  0  0  0
   54.3930   26.7080   46.7900 H   0  0  0  0  0  0  0  0  0  0  0  0
   56.4505   28.0651   44.6241 H   0  0  0  0  0  0  0  0  0  0  0  0
  1  2  1  0
  2  3  2  0
  3  4  1  0
  4  5  2  0
  5  6  1  0
  6  7  2  0
  7  8  1  0
  8  9  2  0
  9 10  1  0
 10 11  2  0
 10 12  1  0
 12 13  1  0
 13 14  1  0
 14 15  2  0
 15 16  1  0
 16 17  2  0
 17 18  1  0
 18 19  1  0
 18 20  2  0
 12  2  1  0
 20 14  1  0
  9  4  1  0
  1 21  1  0
  1 22  1  0
  1 23  1  0
  3 24  1  0
  5 25  1  0
  6 26  1  0
  7 27  1  0
  8 28  1  0
 13 29  1  0
 13 30  1  0
 15 31  1  0
 16 32  1  0
 17 33  1  0
 19 34  1  0
 20 35  1  0
M  END
>  <UniqueID>  (64) 
52

>  <SMILES>  (64) 
Cc1cc2ccccc2c(=O)n1Cc1cccc(O)c1

>  <Energy>  (64) 
46.804413774104304

>  <Genealogy>  (64) 
Cc1cc2ccccc2c(=O)n1Cc1cccc(O)c1 (3D coordinates assigned)
Cc1cc2ccccc2c(=O)n1Cc1cccc(O)c1 (optimized conformer: 46.804413774104304 kcal/mol)

>  <smiles>  (64) 
Cc1cc2ccccc2c(=O)n1Cc1cccc(O)c1

>  <score_type>  (64) 
oracle

>  <origin>  (64) 
adg

>  <m_score__min__energy>  (64) 
-8.8000000000000007

>  <m_primary>  (64) 
energy

$$$$
64:0
     RDKit          3D

 34 36  0  0  0  0  0  0  0  0999 V2000
   55.1570   29.3370   44.8620 N   0  0  0  0  0  0  0  0  0  0  0  0
   56.8020   29.7950   44.5920 S   0  0  0  0  0  0  0  0  0  0  0  0
   57.1750   29.5110   43.1640 O   0  0  0  0  0  0  0  0  0  0  0  0
   56.9450   31.2660   44.8650 O   0  0  0  0  0  0  0  0  0  0  0  0
   57.8580   28.8820   45.6640 C   0  0  0  0  0  0  0  0  0  0  0  0
   57.8520   27.4800   45.6390 C   0  0  0  0  0  0  0  0  0  0  0  0
   58.6980   26.7610   46.4870 C   0  0  0  0  0  0  0  0  0  0  0  0
   59.5390   27.4350   47.3780 C   0  0  0  0  0  0  0  0  0  0  0  0
   59.5230   28.8340   47.4400 C   0  0  0  0  0  0  0  0  0  0  0  0
   60.4150   29.5030   48.3400 N   0  0  0  0  0  0  0  0  0  0  0  0
   60.0390   30.1970   49.5370 C   0  0  0  0  0  0  0  0  0  0  0  0
   59.3300   29.5940   50.3850 O   0  0  0  0  0  0  0  0  0  0  0  0
   60.3130   31.6700   49.7120 C   0  0  0  0  0  0  0  0  0  0  0  0
   60.0600   32.4100   48.4640 N   0  0  0  0  0  0  0  0  0  0  0  0
   61.1290   32.7860   47.6820 C   0  0  0  0  0  0  0  0  0  0  0  0
   60.9390   33.4490   46.5070 N   0  0  0  0  0  0  0  0  0  0  0  0
   59.6770   33.7320   46.1140 C   0  0  0  0  0  0  0  0  0  0  0  0
   59.2040   34.5290   44.7180 S   0  0  0  0  0  0  0  0  0  0  0  0
   57.5470   34.4150   45.0540 C   0  0  0  0  0  0  0  0  0  0  0  0
   57.3660   33.7490   46.2670 C   0  0  0  0  0  0  0  0  0  0  0  0
   58.5790   33.3680   46.8540 C   0  0  0  0  0  0  0  0  0  0  0  0
   58.7750   32.6880   48.0560 C   0  0  0  0  0  0  0  0  0  0  0  0
   57.7830   32.3370   48.7520 O   0  0  0  0  0  0  0  0  0  0  0  0
   58.7000   29.5560   46.5610 C   0  0  0  0  0  0  0  0  0  0  0  0
   55.1580   28.6330   45.6320 H   0  0  0  0  0  0  0  0  0  0  0  0
   57.1804   26.9457   44.9509 H   0  0  0  0  0  0  0  0  0  0  0  0
   58.7026   25.6615   46.4537 H   0  0  0  0  0  0  0  0  0  0  0  0
   60.2150   26.8647   48.0320 H   0  0  0  0  0  0  0  0  0  0  0  0
   59.6585   32.0654   50.5027 H   0  0  0  0  0  0  0  0  0  0  0  0
   61.3709   31.7978   49.9848 H   0  0  0  0  0  0  0  0  0  0  0  0
   62.1513   32.5476   48.0107 H   0  0  0  0  0  0  0  0  0  0  0  0
   56.7403   34.8049   44.4159 H   0  0  0  0  0  0  0  0  0  0  0  0
   56.3808   33.5460   46.7122 H   0  0  0  0  0  0  0  0  0  0  0  0
   58.7155   30.6558   46.5758 H   0  0  0  0  0  0  0  0  0  0  0  0
  1  2  1  0
  2  3  2  0
  2  4  2  0
  2  5  1  0
  5  6  2  0
  6  7  1  0
  7  8  2  0
  8  9  1  0
  9 10  1  0
 10 11  1  0
 11 12  2  0
 11 13  1  0
 13 14  1  0
 14 15  1  0
 15 16  2  0
 16 17  1  0
 17 18  1  0
 18 19  1  0
 19 20  2  0
 20 21  1  0
 21 22  1  0
 22 23  2  0
  9 24  2  0
 24  5  1  0
 22 14  1  0
 21 17  2  0
  1 25  1  0
  6 26  1  0
  7 27  1  0
  8 28  1  0
 13 29  1  0
 13 30  1  0
 15 31  1  0
 19 32  1  0
 20 33  1  0
 24 34  1  0
M  CHG  2   1  -1  10  -1
M  END
>  <UniqueID>  (65) 
53

>  <SMILES>  (65) 
[NH-]S(=O)(=O)c1cccc([N-]C(=O)Cn2cnc3sccc3c2=O)c1

>  <Energy>  (65) 
77.11209109125028

>  <Genealogy>  (65) 
[NH-]S(=O)(=O)c1cccc([N-]C(=O)Cn2cnc3sccc3c2=O)c1 (protonated)
[NH-]S(=O)(=O)c1cccc([N-]C(=O)Cn2cnc3sccc3c2=O)c1 (3D coordinates assigned)
[NH-]S(=O)(=O)c1cccc([N-]C(=O)Cn2cnc3sccc3c2=O)c1 (optimized conformer: 77.11209109125028 kcal/mol)

>  <smiles>  (65) 
NS(=O)(=O)c1cccc(NC(=O)Cn2cnc3sccc3c2=O)c1

>  <score_type>  (65) 
oracle

>  <origin>  (65) 
adg

>  <m_score__min__energy>  (65) 
-12.5

>  <m_primary>  (65) 
energy

$$$$
65:0
     RDKit          3D

 42 44  0  0  0  0  0  0  0  0999 V2000
   64.6160   32.7150   49.3720 C   0  0  0  0  0  0  0  0  0  0  0  0
   63.1910   33.0550   49.3310 N   0  0  0  0  0  0  0  0  0  0  0  0
   62.7430   34.4030   49.6980 C   0  0  0  0  0  0  0  0  0  0  0  0
   62.2290   32.0090   49.0810 C   0  0  0  0  0  0  0  0  0  0  0  0
   62.5220   30.8150   49.3640 O   0  0  0  0  0  0  0  0  0  0  0  0
   60.8980   32.2980   48.5060 C   0  0  0  0  0  0  0  0  0  0  0  0
   59.7530   32.2920   49.3160 C   0  0  0  0  0  0  0  0  0  0  0  0
   58.5030   32.5810   48.7670 C   0  0  0  0  0  0  0  0  0  0  0  0
   58.3840   32.8920   47.4110 C   0  0  0  0  0  0  0  0  0  0  0  0
   59.5250   32.9320   46.5880 C   0  0  0  0  0  0  0  0  0  0  0  0
   59.4430   33.2670   45.1900 N   0  0  0  0  0  0  0  0  0  0  0  0
   58.0820   32.8880   44.1820 S   0  0  0  0  0  0  0  0  0  0  0  0
   57.0100   33.9200   44.3900 O   0  0  0  0  0  0  0  0  0  0  0  0
   58.5150   32.9130   42.7430 O   0  0  0  0  0  0  0  0  0  0  0  0
   57.4350   31.3070   44.6100 C   0  0  0  0  0  0  0  0  0  0  0  0
   56.1800   30.9040   44.1320 C   0  0  0  0  0  0  0  0  0  0  0  0
   55.6720   29.6430   44.4590 C   0  0  0  0  0  0  0  0  0  0  0  0
   56.4140   28.7760   45.2670 C   0  0  0  0  0  0  0  0  0  0  0  0
   55.9240   27.5470   45.5830 N   0  0  0  0  0  0  0  0  0  0  0  0
   56.6190   26.6790   46.3660 C   0  0  0  0  0  0  0  0  0  0  0  0
   56.1310   25.5500   46.6350 O   0  0  0  0  0  0  0  0  0  0  0  0
   57.8740   27.0380   46.8690 C   0  0  0  0  0  0  0  0  0  0  0  0
   58.4040   28.2940   46.5630 C   0  0  0  0  0  0  0  0  0  0  0  0
   57.6770   29.1780   45.7550 C   0  0  0  0  0  0  0  0  0  0  0  0
   58.1800   30.4450   45.4280 C   0  0  0  0  0  0  0  0  0  0  0  0
   60.7780   32.6330   47.1470 C   0  0  0  0  0  0  0  0  0  0  0  0
   64.9443   32.6367   50.4189 H   0  0  0  0  0  0  0  0  0  0  0  0
   64.7782   31.7529   48.8639 H   0  0  0  0  0  0  0  0  0  0  0  0
   65.1951   33.5002   48.8639 H   0  0  0  0  0  0  0  0  0  0  0  0
   62.7129   34.4937   50.7938 H   0  0  0  0  0  0  0  0  0  0  0  0
   63.4424   35.1462   49.2877 H   0  0  0  0  0  0  0  0  0  0  0  0
   61.7378   34.5797   49.2877 H   0  0  0  0  0  0  0  0  0  0  0  0
   59.8406   32.0588   50.3874 H   0  0  0  0  0  0  0  0  0  0  0  0
   57.6074   32.5637   49.4054 H   0  0  0  0  0  0  0  0  0  0  0  0
   57.3934   33.1068   46.9838 H   0  0  0  0  0  0  0  0  0  0  0  0
   60.2000   33.8460   44.7640 H   0  0  0  0  0  0  0  0  0  0  0  0
   55.5923   31.5830   43.4968 H   0  0  0  0  0  0  0  0  0  0  0  0
   54.6871   29.3326   44.0800 H   0  0  0  0  0  0  0  0  0  0  0  0
   58.4392   26.3368   47.5006 H   0  0  0  0  0  0  0  0  0  0  0  0
   59.3888   28.5878   46.9552 H   0  0  0  0  0  0  0  0  0  0  0  0
   59.1599   30.7634   45.8133 H   0  0  0  0  0  0  0  0  0  0  0  0
   61.6765   32.6614   46.5130 H   0  0  0  0  0  0  0  0  0  0  0  0
  1  2  1  0
  2  3  1  0
  2  4  1  0
  4  5  2  0
  4  6  1  0
  6  7  2  0
  7  8  1  0
  8  9  2  0
  9 10  1  0
 10 11  1  0
 11 12  1  0
 12 13  2  0
 12 14  2  0
 12 15  1  0
 15 16  2  0
 16 17  1  0
 17 18  2  0
 18 19  1  0
 19 20  1  0
 20 21  2  0
 20 22  1  0
 22 23  2  0
 23 24  1  0
 24 25  2  0
 10 26  2  0
 26  6  1  0
 25 15  1  0
 24 18  1  0
  1 27  1  0
  1 28  1  0
  1 29  1  0
  3 30  1  0
  3 31  1  0
  3 32  1  0
  7 33  1  0
  8 34  1  0
  9 35  1  0
 11 36  1  0
 16 37  1  0
 17 38  1  0
 22 39  1  0
 23 40  1  0
 25 41  1  0
 26 42  1  0
M  CHG  1  19  -1
M  END
>  <UniqueID>  (66) 
54

>  <SMILES>  (66) 
CN(C)C(=O)c1cccc(NS(=O)(=O)c2ccc3[n-]c(=O)ccc3c2)c1

>  <Energy>  (66) 
53.3473177824133

>  <Genealogy>  (66) 
CN(C)C(=O)c1cccc(NS(=O)(=O)c2ccc3[n-]c(=O)ccc3c2)c1 (protonated)
CN(C)C(=O)c1cccc(NS(=O)(=O)c2ccc3[n-]c(=O)ccc3c2)c1 (3D coordinates assigned)
CN(C)C(=O)c1cccc(NS(=O)(=O)c2ccc3[n-]c(=O)ccc3c2)c1 (optimized conformer: 53.3473177824133 kcal/mol)

>  <smiles>  (66) 
CN(C)C(=O)c1cccc(NS(=O)(=O)c2ccc3[nH]c(=O)ccc3c2)c1

>  <score_type>  (66) 
oracle

>  <origin>  (66) 
adg

>  <m_score__min__energy>  (66) 
-9.9199999999999999

>  <m_primary>  (66) 
energy

$$$$
66:0
     RDKit          3D

 42 43  0  0  0  0  0  0  0  0999 V2000
   58.8580   33.7840   44.2420 C   0  0  0  0  0  0  0  0  0  0  0  0
   58.0650   32.5650   43.8460 C   0  0  0  0  0  0  0  0  0  0  0  0
   57.7680   32.3640   42.4880 C   0  0  0  0  0  0  0  0  0  0  0  0
   57.0520   31.2440   42.0760 C   0  0  0  0  0  0  0  0  0  0  0  0
   56.6260   30.3030   43.0090 C   0  0  0  0  0  0  0  0  0  0  0  0
   56.8890   30.4840   44.3750 C   0  0  0  0  0  0  0  0  0  0  0  0
   56.4940   29.4670   45.3130 N   0  0  0  0  0  0  0  0  0  0  0  0
   56.9810   28.1210   45.2630 C   0  0  0  0  0  0  0  0  0  0  0  0
   57.7590   27.7560   44.3410 O   0  0  0  0  0  0  0  0  0  0  0  0
   56.5330   27.1840   46.2450 N   0  0  0  0  0  0  0  0  0  0  0  0
   55.9670   25.5820   45.8950 S   0  0  0  0  0  0  0  0  0  0  0  0
   54.4870   25.6460   45.6360 O   0  0  0  0  0  0  0  0  0  0  0  0
   56.1990   24.6720   47.0700 O   0  0  0  0  0  0  0  0  0  0  0  0
   56.7700   24.9400   44.4750 N   0  0  0  0  0  0  0  0  0  0  0  0
   58.1010   24.3630   44.8180 C   0  0  0  0  0  0  0  0  0  0  0  0
   58.2350   22.8610   44.5130 C   0  0  0  0  0  0  0  0  0  0  0  0
   57.0030   22.1010   45.0000 C   0  0  0  0  0  0  0  0  0  0  0  0
   55.7070   22.6510   44.3820 C   0  0  0  0  0  0  0  0  0  0  0  0
   55.8840   24.0280   43.7140 C   0  0  0  0  0  0  0  0  0  0  0  0
   57.5910   31.6360   44.8100 C   0  0  0  0  0  0  0  0  0  0  0  0
   57.8570   31.8420   46.2850 C   0  0  0  0  0  0  0  0  0  0  0  0
   58.9023   33.8521   45.3390 H   0  0  0  0  0  0  0  0  0  0  0  0
   59.8781   33.7050   43.8380 H   0  0  0  0  0  0  0  0  0  0  0  0
   58.3724   34.6845   43.8380 H   0  0  0  0  0  0  0  0  0  0  0  0
   58.1048   33.0994   41.7425 H   0  0  0  0  0  0  0  0  0  0  0  0
   56.8220   31.1020   41.0097 H   0  0  0  0  0  0  0  0  0  0  0  0
   56.0787   29.4102   42.6725 H   0  0  0  0  0  0  0  0  0  0  0  0
   55.7460   29.6880   46.0080 H   0  0  0  0  0  0  0  0  0  0  0  0
   56.9360   25.7690   43.8580 H   0  0  0  0  0  0  0  0  0  0  0  0
   58.8689   24.9015   44.2432 H   0  0  0  0  0  0  0  0  0  0  0  0
   58.2241   24.4769   45.9051 H   0  0  0  0  0  0  0  0  0  0  0  0
   58.3403   22.7207   43.4271 H   0  0  0  0  0  0  0  0  0  0  0  0
   59.1212   22.4711   45.0351 H   0  0  0  0  0  0  0  0  0  0  0  0
   57.1068   21.0414   44.7235 H   0  0  0  0  0  0  0  0  0  0  0  0
   56.9378   22.2222   46.0914 H   0  0  0  0  0  0  0  0  0  0  0  0
   55.3528   21.9381   43.6228 H   0  0  0  0  0  0  0  0  0  0  0  0
   54.9848   22.7782   45.2019 H   0  0  0  0  0  0  0  0  0  0  0  0
   56.3148   23.8775   42.7131 H   0  0  0  0  0  0  0  0  0  0  0  0
   54.8910   24.4992   43.6717 H   0  0  0  0  0  0  0  0  0  0  0  0
   57.1220   31.2728   46.8731 H   0  0  0  0  0  0  0  0  0  0  0  0
   58.8711   31.4914   46.5272 H   0  0  0  0  0  0  0  0  0  0  0  0
   57.7713   32.9116   46.5272 H   0  0  0  0  0  0  0  0  0  0  0  0
  1  2  1  0
  2  3  2  0
  3  4  1  0
  4  5  2  0
  5  6  1  0
  6  7  1  0
  7  8  1  0
  8  9  2  0
  8 10  1  0
 10 11  1  0
 11 12  2  0
 11 13  2  0
 11 14  1  0
 14 15  1  0
 15 16  1  0
 16 17  1  0
 17 18  1  0
 18 19  1  0
  6 20  2  0
 20 21  1  0
 20  2  1  0
 19 14  1  0
  1 22  1  0
  1 23  1  0
  1 24  1  0
  3 25  1  0
  4 26  1  0
  5 27  1  0
  7 28  1  0
 14 29  1  0
 15 30  1  0
 15 31  1  0
 16 32  1  0
 16 33  1  0
 17 34  1  0
 17 35  1  0
 18 36  1  0
 18 37  1  0
 19 38  1  0
 19 39  1  0
 21 40  1  0
 21 41  1  0
 21 42  1  0
M  CHG  2  10  -1  14   1
M  END
>  <UniqueID>  (67) 
55

>  <SMILES>  (67) 
Cc1cccc(NC(=O)[N-]S(=O)(=O)[NH+]2CCCCC2)c1C

>  <Energy>  (67) 
54.2063986331363

>  <Genealogy>  (67) 
Cc1cccc(NC(=O)[N-]S(=O)(=O)[NH+]2CCCCC2)c1C (protonated)
Cc1cccc(NC(=O)[N-]S(=O)(=O)[NH+]2CCCCC2)c1C (3D coordinates assigned)
Cc1cccc(NC(=O)[N-]S(=O)(=O)[NH+]2CCCCC2)c1C (nonaromatic ring conformer: 54.2063986331363 kcal/mol)

>  <smiles>  (67) 
Cc1cccc(NC(=O)NS(=O)(=O)N2CCCCC2)c1C

>  <score_type>  (67) 
oracle

>  <origin>  (67) 
adg

>  <m_score__min__energy>  (67) 
-7.9400000000000004

>  <m_primary>  (67) 
energy

$$$$
67:0
     RDKit          3D

 43 46  0  0  0  0  0  0  0  0999 V2000
   59.3570   34.4410   49.4660 O   0  0  0  0  0  0  0  0  0  0  0  0
   60.1790   34.2250   48.5340 C   0  0  0  0  0  0  0  0  0  0  0  0
   61.5740   33.8530   48.8650 C   0  0  0  0  0  0  0  0  0  0  0  0
   62.1040   34.1500   50.1330 C   0  0  0  0  0  0  0  0  0  0  0  0
   63.4230   33.8040   50.4470 C   0  0  0  0  0  0  0  0  0  0  0  0
   64.2270   33.1670   49.4970 C   0  0  0  0  0  0  0  0  0  0  0  0
   65.8800   32.7360   49.8920 Cl  0  0  0  0  0  0  0  0  0  0  0  0
   63.7130   32.8810   48.2290 C   0  0  0  0  0  0  0  0  0  0  0  0
   62.3960   33.2250   47.9100 C   0  0  0  0  0  0  0  0  0  0  0  0
   59.7490   34.3870   47.1730 N   0  0  0  0  0  0  0  0  0  0  0  0
   59.8760   35.5180   46.4410 C   0  0  0  0  0  0  0  0  0  0  0  0
   59.3370   35.3420   45.1720 C   0  0  0  0  0  0  0  0  0  0  0  0
   58.8500   34.0540   45.1580 C   0  0  0  0  0  0  0  0  0  0  0  0
   58.1760   33.3600   44.1570 C   0  0  0  0  0  0  0  0  0  0  0  0
   57.7450   32.0400   44.4310 C   0  0  0  0  0  0  0  0  0  0  0  0
   57.0580   31.2520   43.4430 N   0  0  0  0  0  0  0  0  0  0  0  0
   56.5280   29.6220   43.7150 S   0  0  0  0  0  0  0  0  0  0  0  0
   55.2630   29.6380   44.5250 O   0  0  0  0  0  0  0  0  0  0  0  0
   56.2540   28.9650   42.3920 O   0  0  0  0  0  0  0  0  0  0  0  0
   57.7600   28.7380   44.6110 C   0  0  0  0  0  0  0  0  0  0  0  0
   59.1140   28.9120   44.2890 C   0  0  0  0  0  0  0  0  0  0  0  0
   60.0980   28.1980   44.9780 C   0  0  0  0  0  0  0  0  0  0  0  0
   59.7350   27.3090   45.9940 C   0  0  0  0  0  0  0  0  0  0  0  0
   58.3870   27.1340   46.3210 C   0  0  0  0  0  0  0  0  0  0  0  0
   57.4000   27.8470   45.6330 C   0  0  0  0  0  0  0  0  0  0  0  0
   57.9810   31.4840   45.7130 C   0  0  0  0  0  0  0  0  0  0  0  0
   58.6590   32.2140   46.7040 C   0  0  0  0  0  0  0  0  0  0  0  0
   59.1040   33.4990   46.3850 C   0  0  0  0  0  0  0  0  0  0  0  0
   61.4784   34.6571   50.8823 H   0  0  0  0  0  0  0  0  0  0  0  0
   63.8282   34.0337   51.4435 H   0  0  0  0  0  0  0  0  0  0  0  0
   64.3467   32.3838   47.4798 H   0  0  0  0  0  0  0  0  0  0  0  0
   62.0000   33.0039   46.9078 H   0  0  0  0  0  0  0  0  0  0  0  0
   60.3413   36.4477   46.8004 H   0  0  0  0  0  0  0  0  0  0  0  0
   59.3060   36.0756   44.3530 H   0  0  0  0  0  0  0  0  0  0  0  0
   57.9835   33.8252   43.1790 H   0  0  0  0  0  0  0  0  0  0  0  0
   56.7560   31.7050   42.5530 H   0  0  0  0  0  0  0  0  0  0  0  0
   59.4022   29.6127   43.4916 H   0  0  0  0  0  0  0  0  0  0  0  0
   61.1586   28.3355   44.7208 H   0  0  0  0  0  0  0  0  0  0  0  0
   60.5099   26.7472   46.5361 H   0  0  0  0  0  0  0  0  0  0  0  0
   58.1023   26.4344   47.1207 H   0  0  0  0  0  0  0  0  0  0  0  0
   56.3402   27.7090   45.8935 H   0  0  0  0  0  0  0  0  0  0  0  0
   57.6283   30.4661   45.9356 H   0  0  0  0  0  0  0  0  0  0  0  0
   58.8342   31.7859   47.7020 H   0  0  0  0  0  0  0  0  0  0  0  0
  1  2  2  0
  2  3  1  0
  3  4  2  0
  4  5  1  0
  5  6  2  0
  6  7  1  0
  6  8  1  0
  8  9  2  0
  2 10  1  0
 10 11  1  0
 11 12  2  0
 12 13  1  0
 13 14  2  0
 14 15  1  0
 15 16  1  0
 16 17  1  0
 17 18  2  0
 17 19  2  0
 17 20  1  0
 20 21  2  0
 21 22  1  0
 22 23  2  0
 23 24  1  0
 24 25  2  0
 15 26  2  0
 26 27  1  0
 27 28  2  0
  9  3  1  0
 28 10  1  0
 28 13  1  0
 25 20  1  0
  4 29  1  0
  5 30  1  0
  8 31  1  0
  9 32  1  0
 11 33  1  0
 12 34  1  0
 14 35  1  0
 16 36  1  0
 21 37  1  0
 22 38  1  0
 23 39  1  0
 24 40  1  0
 25 41  1  0
 26 42  1  0
 27 43  1  0
M  END
>  <UniqueID>  (68) 
56

>  <SMILES>  (68) 
O=C(c1ccc(Cl)cc1)n1ccc2cc(NS(=O)(=O)c3ccccc3)ccc21

>  <Energy>  (68) 
89.73988375613176

>  <Genealogy>  (68) 
O=C(c1ccc(Cl)cc1)n1ccc2cc(NS(=O)(=O)c3ccccc3)ccc21 (3D coordinates assigned)
O=C(c1ccc(Cl)cc1)n1ccc2cc(NS(=O)(=O)c3ccccc3)ccc21 (optimized conformer: 89.73988375613176 kcal/mol)

>  <smiles>  (68) 
O=C(c1ccc(Cl)cc1)n1ccc2cc(NS(=O)(=O)c3ccccc3)ccc21

>  <score_type>  (68) 
oracle

>  <origin>  (68) 
adg

>  <m_score__min__energy>  (68) 
-10.09

>  <m_primary>  (68) 
energy

$$$$
68:0
     RDKit          3D

 36 37  0  0  0  0  0  0  0  0999 V2000
   57.3990   32.0010   44.5200 C   0  0  0  0  0  0  0  0  0  0  0  0
   57.7410   31.3880   43.1680 C   0  0  0  0  0  0  0  0  0  0  0  0
   56.8510   30.3170   42.8610 O   0  0  0  0  0  0  0  0  0  0  0  0
   57.0070   29.0180   43.3600 C   0  0  0  0  0  0  0  0  0  0  0  0
   57.3930   28.0840   42.6060 O   0  0  0  0  0  0  0  0  0  0  0  0
   56.7040   28.7510   44.7750 C   0  0  0  0  0  0  0  0  0  0  0  0
   55.5440   28.9960   45.2070 O   0  0  0  0  0  0  0  0  0  0  0  0
   57.7050   28.1650   45.6960 C   0  0  0  0  0  0  0  0  0  0  0  0
   58.9330   28.8320   45.8460 C   0  0  0  0  0  0  0  0  0  0  0  0
   59.8910   28.3670   46.7480 C   0  0  0  0  0  0  0  0  0  0  0  0
   59.6380   27.2300   47.5110 C   0  0  0  0  0  0  0  0  0  0  0  0
   58.4350   26.5380   47.3600 C   0  0  0  0  0  0  0  0  0  0  0  0
   57.4670   26.9750   46.4390 C   0  0  0  0  0  0  0  0  0  0  0  0
   56.2500   26.1450   46.2580 C   0  0  0  0  0  0  0  0  0  0  0  0
   55.1570   26.7120   45.9940 O   0  0  0  0  0  0  0  0  0  0  0  0
   56.2760   24.7140   46.3480 N   0  0  0  0  0  0  0  0  0  0  0  0
   56.5310   23.7960   45.2750 C   0  0  0  0  0  0  0  0  0  0  0  0
   55.7140   23.8420   44.1380 C   0  0  0  0  0  0  0  0  0  0  0  0
   55.9350   22.9640   43.0720 C   0  0  0  0  0  0  0  0  0  0  0  0
   56.9670   22.0240   43.1440 C   0  0  0  0  0  0  0  0  0  0  0  0
   57.7710   21.9550   44.2840 C   0  0  0  0  0  0  0  0  0  0  0  0
   57.5520   22.8320   45.3510 C   0  0  0  0  0  0  0  0  0  0  0  0
   57.7651   31.3448   45.3233 H   0  0  0  0  0  0  0  0  0  0  0  0
   57.8768   32.9880   44.6065 H   0  0  0  0  0  0  0  0  0  0  0  0
   56.3081   32.1128   44.6065 H   0  0  0  0  0  0  0  0  0  0  0  0
   57.6581   32.1609   42.3897 H   0  0  0  0  0  0  0  0  0  0  0  0
   58.7676   30.9948   43.2073 H   0  0  0  0  0  0  0  0  0  0  0  0
   59.1412   29.7301   45.2460 H   0  0  0  0  0  0  0  0  0  0  0  0
   60.8474   28.8995   46.8564 H   0  0  0  0  0  0  0  0  0  0  0  0
   60.3876   26.8763   48.2342 H   0  0  0  0  0  0  0  0  0  0  0  0
   58.2426   25.6416   47.9679 H   0  0  0  0  0  0  0  0  0  0  0  0
   54.8938   24.5730   44.0833 H   0  0  0  0  0  0  0  0  0  0  0  0
   55.2970   23.0132   42.1773 H   0  0  0  0  0  0  0  0  0  0  0  0
   57.1460   21.3384   42.3026 H   0  0  0  0  0  0  0  0  0  0  0  0
   58.5778   21.2096   44.3426 H   0  0  0  0  0  0  0  0  0  0  0  0
   58.1799   22.7676   46.2519 H   0  0  0  0  0  0  0  0  0  0  0  0
  1  2  1  0
  2  3  1  0
  3  4  1  0
  4  5  2  0
  4  6  1  0
  6  7  2  0
  6  8  1  0
  8  9  2  0
  9 10  1  0
 10 11  2  0
 11 12  1  0
 12 13  2  0
 13 14  1  0
 14 15  2  0
 14 16  1  0
 16 17  1  0
 17 18  2  0
 18 19  1  0
 19 20  2  0
 20 21  1  0
 21 22  2  0
 13  8  1  0
 22 17  1  0
  1 23  1  0
  1 24  1  0
  1 25  1  0
  2 26  1  0
  2 27  1  0
  9 28  1  0
 10 29  1  0
 11 30  1  0
 12 31  1  0
 18 32  1  0
 19 33  1  0
 20 34  1  0
 21 35  1  0
 22 36  1  0
M  CHG  1  16  -1
M  END
>  <UniqueID>  (69) 
57

>  <SMILES>  (69) 
CCOC(=O)C(=O)c1ccccc1C(=O)[N-]c1ccccc1

>  <Energy>  (69) 
45.746422940163875

>  <Genealogy>  (69) 
CCOC(=O)C(=O)c1ccccc1C(=O)[N-]c1ccccc1 (protonated)
CCOC(=O)C(=O)c1ccccc1C(=O)[N-]c1ccccc1 (3D coordinates assigned)
CCOC(=O)C(=O)c1ccccc1C(=O)[N-]c1ccccc1 (optimized conformer: 45.746422940163875 kcal/mol)

>  <smiles>  (69) 
CCOC(=O)C(=O)c1ccccc1C(=O)Nc1ccccc1

>  <score_type>  (69) 
oracle

>  <origin>  (69) 
adg

>  <m_score__min__energy>  (69) 
-9.0099999999999998

>  <m_primary>  (69) 
energy

$$$$
69:0
     RDKit          3D

 52 54  0  0  0  0  0  0  0  0999 V2000
   56.2050   23.4220   43.0060 C   0  0  0  0  0  0  0  0  0  0  0  0
   56.7510   21.9960   43.0480 C   0  0  0  0  0  0  0  0  0  0  0  0
   56.5930   21.3310   44.4260 C   0  0  0  0  0  0  0  0  0  0  0  0
   57.7170   21.6950   45.4180 C   0  0  0  0  0  0  0  0  0  0  0  0
   57.1990   22.4970   46.6200 C   0  0  0  0  0  0  0  0  0  0  0  0
   56.9960   23.9110   46.2440 N   0  0  0  0  0  0  0  0  0  0  0  0
   55.7750   24.5070   46.4450 C   0  0  0  0  0  0  0  0  0  0  0  0
   54.8120   23.8570   46.9350 O   0  0  0  0  0  0  0  0  0  0  0  0
   55.5860   25.8110   46.1230 N   0  0  0  0  0  0  0  0  0  0  0  0
   56.5850   26.5680   45.6070 C   0  0  0  0  0  0  0  0  0  0  0  0
   56.3500   27.9090   45.2850 C   0  0  0  0  0  0  0  0  0  0  0  0
   57.3790   28.7040   44.7470 C   0  0  0  0  0  0  0  0  0  0  0  0
   57.1210   30.1260   44.4180 C   0  0  0  0  0  0  0  0  0  0  0  0
   56.0540   30.6700   44.8150 O   0  0  0  0  0  0  0  0  0  0  0  0
   58.0590   30.8890   43.6420 N   0  0  0  0  0  0  0  0  0  0  0  0
   57.9620   32.3410   43.5100 C   0  0  0  0  0  0  0  0  0  0  0  0
   58.4380   33.0080   44.7710 C   0  0  0  0  0  0  0  0  0  0  0  0
   59.1220   34.2330   44.7180 C   0  0  0  0  0  0  0  0  0  0  0  0
   59.5350   34.8610   45.8970 C   0  0  0  0  0  0  0  0  0  0  0  0
   59.2790   34.2690   47.1420 C   0  0  0  0  0  0  0  0  0  0  0  0
   59.6860   34.9630   48.4070 C   0  0  0  0  0  0  0  0  0  0  0  0
   58.5740   33.0570   47.1970 C   0  0  0  0  0  0  0  0  0  0  0  0
   58.1600   32.4290   46.0180 C   0  0  0  0  0  0  0  0  0  0  0  0
   58.6510   28.1360   44.5580 C   0  0  0  0  0  0  0  0  0  0  0  0
   58.8870   26.7960   44.8810 C   0  0  0  0  0  0  0  0  0  0  0  0
   57.8540   26.0010   45.4040 C   0  0  0  0  0  0  0  0  0  0  0  0
   58.0420   24.6490   45.7430 C   0  0  0  0  0  0  0  0  0  0  0  0
   59.1780   24.1180   45.5870 O   0  0  0  0  0  0  0  0  0  0  0  0
   56.0637   23.7909   44.0326 H   0  0  0  0  0  0  0  0  0  0  0  0
   56.9178   24.0721   42.4776 H   0  0  0  0  0  0  0  0  0  0  0  0
   55.2403   23.4298   42.4776 H   0  0  0  0  0  0  0  0  0  0  0  0
   56.2112   21.3922   42.3037 H   0  0  0  0  0  0  0  0  0  0  0  0
   57.8280   22.0501   42.8309 H   0  0  0  0  0  0  0  0  0  0  0  0
   55.6320   21.6479   44.8573 H   0  0  0  0  0  0  0  0  0  0  0  0
   56.6411   20.2435   44.2676 H   0  0  0  0  0  0  0  0  0  0  0  0
   58.1786   20.7665   45.7852 H   0  0  0  0  0  0  0  0  0  0  0  0
   58.4453   22.3232   44.8842 H   0  0  0  0  0  0  0  0  0  0  0  0
   56.2426   22.0700   46.9561 H   0  0  0  0  0  0  0  0  0  0  0  0
   57.9405   22.4454   47.4309 H   0  0  0  0  0  0  0  0  0  0  0  0
   55.3542   28.3449   45.4535 H   0  0  0  0  0  0  0  0  0  0  0  0
   58.8140   30.4000   43.1130 H   0  0  0  0  0  0  0  0  0  0  0  0
   58.5850   32.6719   42.6660 H   0  0  0  0  0  0  0  0  0  0  0  0
   56.9122   32.6167   43.3313 H   0  0  0  0  0  0  0  0  0  0  0  0
   59.3338   34.7005   43.7451 H   0  0  0  0  0  0  0  0  0  0  0  0
   60.0635   35.8245   45.8476 H   0  0  0  0  0  0  0  0  0  0  0  0
   59.3428   34.3779   49.2730 H   0  0  0  0  0  0  0  0  0  0  0  0
   60.7816   35.0558   48.4381 H   0  0  0  0  0  0  0  0  0  0  0  0
   59.2321   35.9645   48.4381 H   0  0  0  0  0  0  0  0  0  0  0  0
   58.3462   32.5992   48.1709 H   0  0  0  0  0  0  0  0  0  0  0  0
   57.6134   31.4758   46.0688 H   0  0  0  0  0  0  0  0  0  0  0  0
   59.4679   28.7510   44.1525 H   0  0  0  0  0  0  0  0  0  0  0  0
   59.8859   26.3628   44.7248 H   0  0  0  0  0  0  0  0  0  0  0  0
  1  2  1  0
  2  3  1  0
  3  4  1  0
  4  5  1  0
  5  6  1  0
  6  7  1  0
  7  8  2  0
  7  9  1  0
  9 10  1  0
 10 11  2  0
 11 12  1  0
 12 13  1  0
 13 14  2  0
 13 15  1  0
 15 16  1  0
 16 17  1  0
 17 18  2  0
 18 19  1  0
 19 20  2  0
 20 21  1  0
 20 22  1  0
 22 23  2  0
 12 24  2  0
 24 25  1  0
 25 26  2  0
 26 27  1  0
 27 28  2  0
 27  6  1  0
 26 10  1  0
 23 17  1  0
  1 29  1  0
  1 30  1  0
  1 31  1  0
  2 32  1  0
  2 33  1  0
  3 34  1  0
  3 35  1  0
  4 36  1  0
  4 37  1  0
  5 38  1  0
  5 39  1  0
 11 40  1  0
 15 41  1  0
 16 42  1  0
 16 43  1  0
 18 44  1  0
 19 45  1  0
 21 46  1  0
 21 47  1  0
 21 48  1  0
 22 49  1  0
 23 50  1  0
 24 51  1  0
 25 52  1  0
M  CHG  1   9  -1
M  END
>  <UniqueID>  (70) 
58

>  <SMILES>  (70) 
CCCCCn1c(=O)[n-]c2cc(C(=O)NCc3ccc(C)cc3)ccc2c1=O

>  <Energy>  (70) 
55.44424029563175

>  <Genealogy>  (70) 
CCCCCn1c(=O)[n-]c2cc(C(=O)NCc3ccc(C)cc3)ccc2c1=O (protonated)
CCCCCn1c(=O)[n-]c2cc(C(=O)NCc3ccc(C)cc3)ccc2c1=O (3D coordinates assigned)
CCCCCn1c(=O)[n-]c2cc(C(=O)NCc3ccc(C)cc3)ccc2c1=O (optimized conformer: 55.44424029563175 kcal/mol)

>  <smiles>  (70) 
CCCCCn1c(=O)[nH]c2cc(C(=O)NCc3ccc(C)cc3)ccc2c1=O

>  <score_type>  (70) 
oracle

>  <origin>  (70) 
adg

>  <m_score__min__energy>  (70) 
-10.83

>  <m_primary>  (70) 
energy

$$$$
70:0
     RDKit          3D

 40 43  0  0  0  0  0  0  0  0999 V2000
   63.3850   32.7980   47.3130 C   0  0  0  0  0  0  0  0  0  0  0  0
   62.0450   33.4480   47.4860 C   0  0  0  0  0  0  0  0  0  0  0  0
   61.4750   33.5640   48.7630 C   0  0  0  0  0  0  0  0  0  0  0  0
   60.2070   34.1280   48.9190 C   0  0  0  0  0  0  0  0  0  0  0  0
   59.4940   34.5750   47.8030 C   0  0  0  0  0  0  0  0  0  0  0  0
   60.0510   34.4630   46.5190 C   0  0  0  0  0  0  0  0  0  0  0  0
   59.2660   34.9010   45.3120 C   0  0  0  0  0  0  0  0  0  0  0  0
   57.8850   34.2420   45.2990 C   0  0  0  0  0  0  0  0  0  0  0  0
   57.9620   32.9200   44.6820 N   0  0  0  0  0  0  0  0  0  0  0  0
   57.7710   32.6180   43.3750 C   0  0  0  0  0  0  0  0  0  0  0  0
   57.9840   31.3070   43.0910 N   0  0  0  0  0  0  0  0  0  0  0  0
   58.3310   30.7890   44.2840 C   0  0  0  0  0  0  0  0  0  0  0  0
   58.6780   29.4700   44.5670 C   0  0  0  0  0  0  0  0  0  0  0  0
   59.0340   29.1510   45.8950 C   0  0  0  0  0  0  0  0  0  0  0  0
   59.3930   27.8390   46.2380 C   0  0  0  0  0  0  0  0  0  0  0  0
   59.7470   27.5300   47.5550 C   0  0  0  0  0  0  0  0  0  0  0  0
   59.7480   28.5230   48.5380 C   0  0  0  0  0  0  0  0  0  0  0  0
   59.3940   29.8370   48.2170 C   0  0  0  0  0  0  0  0  0  0  0  0
   59.0350   30.1680   46.9020 C   0  0  0  0  0  0  0  0  0  0  0  0
   58.6770   31.4920   46.5700 C   0  0  0  0  0  0  0  0  0  0  0  0
   58.3280   31.7560   45.2460 C   0  0  0  0  0  0  0  0  0  0  0  0
   61.3190   33.8820   46.3650 C   0  0  0  0  0  0  0  0  0  0  0  0
   63.8204   32.5868   48.3009 H   0  0  0  0  0  0  0  0  0  0  0  0
   63.2669   31.8571   46.7556 H   0  0  0  0  0  0  0  0  0  0  0  0
   64.0509   33.4732   46.7556 H   0  0  0  0  0  0  0  0  0  0  0  0
   62.0291   33.2093   49.6446 H   0  0  0  0  0  0  0  0  0  0  0  0
   59.7680   34.2208   49.9233 H   0  0  0  0  0  0  0  0  0  0  0  0
   58.4942   35.0155   47.9309 H   0  0  0  0  0  0  0  0  0  0  0  0
   59.1447   35.9940   45.3369 H   0  0  0  0  0  0  0  0  0  0  0  0
   59.8114   34.5990   44.4057 H   0  0  0  0  0  0  0  0  0  0  0  0
   57.5214   34.1400   46.3322 H   0  0  0  0  0  0  0  0  0  0  0  0
   57.1936   34.8695   44.7175 H   0  0  0  0  0  0  0  0  0  0  0  0
   57.4733   33.3602   42.6197 H   0  0  0  0  0  0  0  0  0  0  0  0
   58.6747   28.7012   43.7803 H   0  0  0  0  0  0  0  0  0  0  0  0
   59.3960   27.0519   45.4696 H   0  0  0  0  0  0  0  0  0  0  0  0
   60.0263   26.4992   47.8187 H   0  0  0  0  0  0  0  0  0  0  0  0
   60.0290   28.2694   49.5708 H   0  0  0  0  0  0  0  0  0  0  0  0
   59.3970   30.6126   48.9970 H   0  0  0  0  0  0  0  0  0  0  0  0
   58.6734   32.2880   47.3292 H   0  0  0  0  0  0  0  0  0  0  0  0
   61.7475   33.7656   45.3586 H   0  0  0  0  0  0  0  0  0  0  0  0
  1  2  1  0
  2  3  2  0
  3  4  1  0
  4  5  2  0
  5  6  1  0
  6  7  1  0
  7  8  1  0
  8  9  1  0
  9 10  1  0
 10 11  2  0
 11 12  1  0
 12 13  2  0
 13 14  1  0
 14 15  2  0
 15 16  1  0
 16 17  2  0
 17 18  1  0
 18 19  2  0
 19 20  1  0
 20 21  2  0
  6 22  2  0
 22  2  1  0
 21  9  1  0
 21 12  1  0
 19 14  1  0
  1 23  1  0
  1 24  1  0
  1 25  1  0
  3 26  1  0
  4 27  1  0
  5 28  1  0
  7 29  1  0
  7 30  1  0
  8 31  1  0
  8 32  1  0
 10 33  1  0
 13 34  1  0
 15 35  1  0
 16 36  1  0
 17 37  1  0
 18 38  1  0
 20 39  1  0
 22 40  1  0
M  END
>  <UniqueID>  (71) 
59

>  <SMILES>  (71) 
Cc1cccc(CCn2cnc3cc4ccccc4cc32)c1

>  <Energy>  (71) 
79.61330650984245

>  <Genealogy>  (71) 
Cc1cccc(CCn2cnc3cc4ccccc4cc32)c1 (3D coordinates assigned)
Cc1cccc(CCn2cnc3cc4ccccc4cc32)c1 (optimized conformer: 79.61330650984245 kcal/mol)

>  <smiles>  (71) 
Cc1cccc(CCn2cnc3cc4ccccc4cc32)c1

>  <score_type>  (71) 
oracle

>  <origin>  (71) 
adg

>  <m_score__min__energy>  (71) 
-8.1799999999999997

>  <m_primary>  (71) 
energy

$$$$
71:0
     RDKit          3D

 68 70  0  0  0  0  0  0  0  0999 V2000
   55.5290   26.6880   45.9780 N   0  0  0  0  0  0  0  0  0  0  0  0
   56.6700   27.4760   45.6390 C   0  0  0  0  0  0  0  0  0  0  0  0
   57.7870   26.9030   45.5270 O   0  0  0  0  0  0  0  0  0  0  0  0
   56.5750   28.9360   45.3620 C   0  0  0  0  0  0  0  0  0  0  0  0
   55.9430   29.4880   44.3060 C   0  0  0  0  0  0  0  0  0  0  0  0
   56.5790   30.0430   43.0600 C   0  0  0  0  0  0  0  0  0  0  0  0
   57.2210   31.3800   43.3080 C   0  0  0  0  0  0  0  0  0  0  0  0
   57.7800   31.9990   42.3620 O   0  0  0  0  0  0  0  0  0  0  0  0
   57.1190   31.9890   44.6040 N   0  0  0  0  0  0  0  0  0  0  0  0
   57.8920   33.1370   44.9970 C   0  0  0  0  0  0  0  0  0  0  0  0
   58.8210   33.6970   44.1020 C   0  0  0  0  0  0  0  0  0  0  0  0
   59.6130   34.7810   44.4840 C   0  0  0  0  0  0  0  0  0  0  0  0
   59.4990   35.3090   45.7700 C   0  0  0  0  0  0  0  0  0  0  0  0
   60.2750   36.3560   46.1440 F   0  0  0  0  0  0  0  0  0  0  0  0
   58.5890   34.7580   46.6740 C   0  0  0  0  0  0  0  0  0  0  0  0
   57.7780   33.6750   46.3000 C   0  0  0  0  0  0  0  0  0  0  0  0
   56.8290   33.1580   47.2420 N   0  0  0  0  0  0  0  0  0  0  0  0
   57.2470   29.8270   46.2570 N   0  0  0  0  0  0  0  0  0  0  0  0
   58.6530   30.0800   46.1750 C   0  0  0  0  0  0  0  0  0  0  0  0
   59.2860   29.7030   45.1540 O   0  0  0  0  0  0  0  0  0  0  0  0
   59.3630   30.8830   47.2370 C   0  0  2  0  0  0  0  0  0  0  0  0
   60.7760   30.3310   47.5240 C   0  0  0  0  0  0  0  0  0  0  0  0
   60.7810   29.1700   48.4900 C   0  0  0  0  0  0  0  0  0  0  0  0
   60.4150   27.8840   48.0560 C   0  0  0  0  0  0  0  0  0  0  0  0
   60.4090   26.8110   48.9540 C   0  0  0  0  0  0  0  0  0  0  0  0
   60.7650   27.0130   50.2890 C   0  0  0  0  0  0  0  0  0  0  0  0
   61.1380   28.2880   50.7290 C   0  0  0  0  0  0  0  0  0  0  0  0
   61.1510   29.3620   49.8340 C   0  0  0  0  0  0  0  0  0  0  0  0
   58.5610   30.9210   48.4620 N   0  0  0  0  0  0  0  0  0  0  0  0
   58.5990   31.9090   49.5020 C   0  0  0  0  0  0  0  0  0  0  0  0
   57.5040   32.3250   49.9670 O   0  0  0  0  0  0  0  0  0  0  0  0
   59.8960   32.4540   50.0590 C   0  0  2  0  0  0  0  0  0  0  0  0
   59.7270   32.7350   51.4860 N   0  0  0  0  0  0  0  0  0  0  0  0
   60.3440   33.7130   49.2810 C   0  0  0  0  0  0  0  0  0  0  0  0
   61.6530   33.5020   48.5600 C   0  0  0  0  0  0  0  0  0  0  0  0
   61.7710   33.8290   47.2000 C   0  0  0  0  0  0  0  0  0  0  0  0
   62.9820   33.6310   46.5290 C   0  0  0  0  0  0  0  0  0  0  0  0
   64.0790   33.0960   47.2080 C   0  0  0  0  0  0  0  0  0  0  0  0
   63.9660   32.7550   48.5590 C   0  0  0  0  0  0  0  0  0  0  0  0
   62.7590   32.9560   49.2350 C   0  0  0  0  0  0  0  0  0  0  0  0
   54.7570   27.0830   46.5590 H   0  0  0  0  0  0  0  0  0  0  0  0
   54.8455   29.5379   44.3614 H   0  0  0  0  0  0  0  0  0  0  0  0
   57.3475   29.3388   42.7087 H   0  0  0  0  0  0  0  0  0  0  0  0
   55.7906   30.1774   42.3048 H   0  0  0  0  0  0  0  0  0  0  0  0
   56.4420   31.5810   45.2890 H   0  0  0  0  0  0  0  0  0  0  0  0
   58.9245   33.2766   43.0908 H   0  0  0  0  0  0  0  0  0  0  0  0
   60.3270   35.2189   43.7709 H   0  0  0  0  0  0  0  0  0  0  0  0
   58.5068   35.1761   47.6881 H   0  0  0  0  0  0  0  0  0  0  0  0
   57.0360   32.3300   47.8400 H   0  0  0  0  0  0  0  0  0  0  0  0
   55.8670   33.5660   47.3030 H   0  0  0  0  0  0  0  0  0  0  0  0
   59.4852   31.9087   46.8589 H   0  0  0  0  0  0  0  0  0  0  0  0
   61.2193   29.9966   46.5745 H   0  0  0  0  0  0  0  0  0  0  0  0
   61.3539   31.1432   47.9891 H   0  0  0  0  0  0  0  0  0  0  0  0
   60.1320   27.7205   47.0057 H   0  0  0  0  0  0  0  0  0  0  0  0
   60.1234   25.8067   48.6077 H   0  0  0  0  0  0  0  0  0  0  0  0
   60.7522   26.1696   50.9951 H   0  0  0  0  0  0  0  0  0  0  0  0
   61.4213   28.4454   51.7802 H   0  0  0  0  0  0  0  0  0  0  0  0
   61.4517   30.3613   50.1819 H   0  0  0  0  0  0  0  0  0  0  0  0
   60.6903   31.7026   49.9388 H   0  0  0  0  0  0  0  0  0  0  0  0
   58.7220   32.6160   51.7520 H   0  0  0  0  0  0  0  0  0  0  0  0
   59.9930   33.7300   51.6710 H   0  0  0  0  0  0  0  0  0  0  0  0
   59.5696   33.9671   48.5422 H   0  0  0  0  0  0  0  0  0  0  0  0
   60.4862   34.5263   50.0079 H   0  0  0  0  0  0  0  0  0  0  0  0
   60.9070   34.2429   46.6595 H   0  0  0  0  0  0  0  0  0  0  0  0
   63.0706   33.8969   45.4653 H   0  0  0  0  0  0  0  0  0  0  0  0
   65.0317   32.9430   46.6798 H   0  0  0  0  0  0  0  0  0  0  0  0
   64.8286   32.3276   49.0912 H   0  0  0  0  0  0  0  0  0  0  0  0
   62.6743   32.6862   50.2980 H   0  0  0  0  0  0  0  0  0  0  0  0
  1  2  1  0
  2  3  2  0
  2  4  1  0
  4  5  2  3
  5  6  1  0
  6  7  1  0
  7  8  2  0
  7  9  1  0
  9 10  1  0
 10 11  2  0
 11 12  1  0
 12 13  2  0
 13 14  1  0
 13 15  1  0
 15 16  2  0
 16 17  1  0
  4 18  1  0
 18 19  1  0
 19 20  2  0
 19 21  1  0
 21 22  1  0
 22 23  1  0
 23 24  2  0
 24 25  1  0
 25 26  2  0
 26 27  1  0
 27 28  2  0
 21 29  1  0
 29 30  1  0
 30 31  2  0
 30 32  1  0
 32 33  1  0
 32 34  1  0
 34 35  1  0
 35 36  2  0
 36 37  1  0
 37 38  2  0
 38 39  1  0
 39 40  2  0
 16 10  1  0
 28 23  1  0
 40 35  1  0
  1 41  1  0
  5 42  1  0
  6 43  1  0
  6 44  1  0
  9 45  1  0
 11 46  1  0
 12 47  1  0
 15 48  1  0
 17 49  1  0
 17 50  1  0
 21 51  1  6
 22 52  1  0
 22 53  1  0
 24 54  1  0
 25 55  1  0
 26 56  1  0
 27 57  1  0
 28 58  1  0
 32 59  1  1
 33 60  1  0
 33 61  1  0
 34 62  1  0
 34 63  1  0
 36 64  1  0
 37 65  1  0
 38 66  1  0
 39 67  1  0
 40 68  1  0
M  CHG  3   1  -1  18  -1  29  -1
M  END
>  <UniqueID>  (72) 
60

>  <SMILES>  (72) 
[NH-]C(=O)C(=CCC(=O)Nc1ccc(F)cc1N)[N-]C(=O)[C@H](Cc1ccccc1)[N-]C(=O)[C@H](N)Cc1ccccc1

>  <Energy>  (72) 
85.00528436732704

>  <Genealogy>  (72) 
[NH-]C(=O)C(=CCC(=O)Nc1ccc(F)cc1N)[N-]C(=O)C(Cc1ccccc1)[N-]C(=O)C(N)Cc1ccccc1 (protonated)
[NH-]C(=O)C(=CCC(=O)Nc1ccc(F)cc1N)[N-]C(=O)[C@H](Cc1ccccc1)[N-]C(=O)[C@H](N)Cc1ccccc1 (chirality)
[NH-]C(=O)C(=CCC(=O)Nc1ccc(F)cc1N)[N-]C(=O)[C@H](Cc1ccccc1)[N-]C(=O)[C@H](N)Cc1ccccc1 (3D coordinates assigned)
[NH-]C(=O)C(=CCC(=O)Nc1ccc(F)cc1N)[N-]C(=O)[C@H](Cc1ccccc1)[N-]C(=O)[C@H](N)Cc1ccccc1 (optimized conformer: 85.00528436732704 kcal/mol)

>  <smiles>  (72) 
NC(=O)C(=CCC(=O)Nc1ccc(F)cc1N)NC(=O)C(Cc1ccccc1)NC(=O)C(N)Cc1ccccc1

>  <score_type>  (72) 
oracle

>  <origin>  (72) 
adg

>  <m_score__min__energy>  (72) 
-14.720000000000001

>  <m_primary>  (72) 
energy

$$$$
72:0
     RDKit          3D

 27 28  0  0  0  0  0  0  0  0999 V2000
   58.6474   32.0517   42.2855 H   0  0  0  0  0  0  0  0  0  0  0  0
   58.1390   32.1500   43.2560 C   0  0  0  0  0  0  0  0  0  0  0  0
   58.0480   33.3410   43.7770 N   0  0  0  0  0  0  0  0  0  0  0  0
   58.5050   33.7660   45.0720 C   0  0  0  0  0  0  0  0  0  0  0  0
   59.3050   34.9130   45.2300 C   0  0  0  0  0  0  0  0  0  0  0  0
   59.6190   35.4887   44.3468 H   0  0  0  0  0  0  0  0  0  0  0  0
   59.7020   35.3230   46.5070 C   0  0  0  0  0  0  0  0  0  0  0  0
   60.3423   36.2095   46.6256 H   0  0  0  0  0  0  0  0  0  0  0  0
   59.2850   34.6060   47.6330 C   0  0  0  0  0  0  0  0  0  0  0  0
   59.6057   34.9229   48.6364 H   0  0  0  0  0  0  0  0  0  0  0  0
   58.4610   33.4870   47.4840 C   0  0  0  0  0  0  0  0  0  0  0  0
   58.1254   32.9294   48.3708 H   0  0  0  0  0  0  0  0  0  0  0  0
   58.0630   33.0760   46.2080 C   0  0  0  0  0  0  0  0  0  0  0  0
   57.3992   32.2061   46.0958 H   0  0  0  0  0  0  0  0  0  0  0  0
   57.6040   30.9210   43.8830 C   0  0  0  0  0  0  0  0  0  0  0  0
   56.2400   30.5900   43.8030 C   0  0  0  0  0  0  0  0  0  0  0  0
   55.5430   31.2636   43.2830 H   0  0  0  0  0  0  0  0  0  0  0  0
   55.7650   29.4090   44.3810 C   0  0  0  0  0  0  0  0  0  0  0  0
   54.6935   29.1658   44.3283 H   0  0  0  0  0  0  0  0  0  0  0  0
   56.6480   28.5340   45.0270 C   0  0  0  0  0  0  0  0  0  0  0  0
   56.1620   27.3260   45.6180 N   0  0  0  0  0  0  0  0  0  0  0  0
   55.9430   26.4930   45.0290 H   0  0  0  0  0  0  0  0  0  0  0  0
   56.0190   27.2570   46.6500 H   0  0  0  0  0  0  0  0  0  0  0  0
   58.0130   28.8470   45.0810 C   0  0  0  0  0  0  0  0  0  0  0  0
   58.7126   28.1602   45.5798 H   0  0  0  0  0  0  0  0  0  0  0  0
   58.4900   30.0280   44.5040 C   0  0  0  0  0  0  0  0  0  0  0  0
   59.5652   30.2580   44.5372 H   0  0  0  0  0  0  0  0  0  0  0  0
  1  2  1  0
  2  3  2  0
  3  4  1  0
  4  5  2  0
  5  6  1  0
  5  7  1  0
  7  8  1  0
  7  9  2  0
  9 10  1  0
  9 11  1  0
 11 12  1  0
 11 13  2  0
 13 14  1  0
  2 15  1  0
 15 16  2  0
 16 17  1  0
 16 18  1  0
 18 19  1  0
 18 20  2  0
 20 21  1  0
 21 22  1  0
 21 23  1  0
 20 24  1  0
 24 25  1  0
 24 26  2  0
 26 27  1  0
 13  4  1  0
 26 15  1  0
M  END
>  <UniqueID>  (73) 
61

>  <SMILES>  (73) 
Nc1ccc(/C=N\c2ccccc2)cc1

>  <Energy>  (73) 
37.81854077977948

>  <Genealogy>  (73) 
Nc1ccc(/C=N\c2ccccc2)cc1 (cis-trans isomerization)
Nc1ccc(/C=N\c2ccccc2)cc1 (3D coordinates assigned)
Nc1ccc(/C=N\c2ccccc2)cc1 (optimized conformer: 37.81854077977948 kcal/mol)

>  <smiles>  (73) 
Nc1ccc(C=Nc2ccccc2)cc1

>  <score_type>  (73) 
oracle

>  <origin>  (73) 
adg

>  <m_score__min__energy>  (73) 
-6.4199999999999999

>  <m_primary>  (73) 
energy

$$$$
73:0
     RDKit          3D

 48 51  0  0  0  0  0  0  0  0999 V2000
   60.3540   28.2000   46.5730 C   0  0  0  0  0  0  0  0  0  0  0  0
   59.2910   27.4900   45.7990 C   0  0  0  0  0  0  0  0  0  0  0  0
   59.2560   26.1560   45.6320 N   0  0  0  0  0  0  0  0  0  0  0  0
   58.1660   25.8990   44.9210 N   0  0  0  0  0  0  0  0  0  0  0  0
   57.7560   24.5760   44.5300 C   0  0  0  0  0  0  0  0  0  0  0  0
   56.9440   24.3850   43.3960 C   0  0  0  0  0  0  0  0  0  0  0  0
   56.5470   23.0980   43.0190 C   0  0  0  0  0  0  0  0  0  0  0  0
   56.9550   21.9920   43.7670 C   0  0  0  0  0  0  0  0  0  0  0  0
   57.7600   22.1690   44.8940 C   0  0  0  0  0  0  0  0  0  0  0  0
   58.1600   23.4530   45.2760 C   0  0  0  0  0  0  0  0  0  0  0  0
   57.4950   27.0020   44.6200 N   0  0  0  0  0  0  0  0  0  0  0  0
   58.1890   28.0260   45.1500 C   0  0  0  0  0  0  0  0  0  0  0  0
   57.7630   29.4340   45.0510 C   0  0  0  0  0  0  0  0  0  0  0  0
   56.5440   29.7120   45.2040 O   0  0  0  0  0  0  0  0  0  0  0  0
   58.6980   30.4700   44.7180 N   0  0  0  0  0  0  0  0  0  0  0  0
   58.5080   31.8550   45.0540 C   0  0  0  0  0  0  0  0  0  0  0  0
   57.4590   32.6080   44.4950 C   0  0  0  0  0  0  0  0  0  0  0  0
   57.2750   33.9430   44.8640 C   0  0  0  0  0  0  0  0  0  0  0  0
   58.1250   34.5380   45.7970 C   0  0  0  0  0  0  0  0  0  0  0  0
   59.1710   33.8000   46.3700 C   0  0  0  0  0  0  0  0  0  0  0  0
   60.0580   34.4240   47.4150 C   0  0  0  0  0  0  0  0  0  0  0  0
   61.3310   33.6340   47.5540 C   0  0  0  0  0  0  0  0  0  0  0  0
   61.4940   32.7320   48.6190 C   0  0  0  0  0  0  0  0  0  0  0  0
   62.6910   32.0260   48.7670 C   0  0  0  0  0  0  0  0  0  0  0  0
   63.7360   32.2200   47.8600 C   0  0  0  0  0  0  0  0  0  0  0  0
   63.5860   33.1240   46.8050 C   0  0  0  0  0  0  0  0  0  0  0  0
   62.3900   33.8330   46.6530 C   0  0  0  0  0  0  0  0  0  0  0  0
   59.3470   32.4550   46.0060 C   0  0  0  0  0  0  0  0  0  0  0  0
   60.1681   28.0759   47.6501 H   0  0  0  0  0  0  0  0  0  0  0  0
   61.3370   27.7765   46.3193 H   0  0  0  0  0  0  0  0  0  0  0  0
   60.3393   29.2703   46.3193 H   0  0  0  0  0  0  0  0  0  0  0  0
   56.6199   25.2529   42.8030 H   0  0  0  0  0  0  0  0  0  0  0  0
   55.9123   22.9570   42.1317 H   0  0  0  0  0  0  0  0  0  0  0  0
   56.6421   20.9806   43.4683 H   0  0  0  0  0  0  0  0  0  0  0  0
   58.0801   21.2965   45.4825 H   0  0  0  0  0  0  0  0  0  0  0  0
   58.7942   23.5863   46.1648 H   0  0  0  0  0  0  0  0  0  0  0  0
   59.5020   30.2200   44.1000 H   0  0  0  0  0  0  0  0  0  0  0  0
   56.7807   32.1435   43.7641 H   0  0  0  0  0  0  0  0  0  0  0  0
   56.4570   34.5272   44.4173 H   0  0  0  0  0  0  0  0  0  0  0  0
   57.9742   35.5891   46.0840 H   0  0  0  0  0  0  0  0  0  0  0  0
   60.3006   35.4548   47.1174 H   0  0  0  0  0  0  0  0  0  0  0  0
   59.5296   34.4265   48.3798 H   0  0  0  0  0  0  0  0  0  0  0  0
   60.6763   32.5810   49.3391 H   0  0  0  0  0  0  0  0  0  0  0  0
   62.8107   31.3164   49.5989 H   0  0  0  0  0  0  0  0  0  0  0  0
   64.6764   31.6613   47.9764 H   0  0  0  0  0  0  0  0  0  0  0  0
   64.4100   33.2783   46.0928 H   0  0  0  0  0  0  0  0  0  0  0  0
   62.2784   34.5487   45.8252 H   0  0  0  0  0  0  0  0  0  0  0  0
   60.1506   31.8657   46.4718 H   0  0  0  0  0  0  0  0  0  0  0  0
  1  2  1  0
  2  3  2  0
  3  4  1  0
  4  5  1  0
  5  6  2  0
  6  7  1  0
  7  8  2  0
  8  9  1  0
  9 10  2  0
  4 11  1  0
 11 12  2  0
 12 13  1  0
 13 14  2  0
 13 15  1  0
 15 16  1  0
 16 17  2  0
 17 18  1  0
 18 19  2  0
 19 20  1  0
 20 21  1  0
 21 22  1  0
 22 23  2  0
 23 24  1  0
 24 25  2  0
 25 26  1  0
 26 27  2  0
 20 28  2  0
 12  2  1  0
 28 16  1  0
 10  5  1  0
 27 22  1  0
  1 29  1  0
  1 30  1  0
  1 31  1  0
  6 32  1  0
  7 33  1  0
  8 34  1  0
  9 35  1  0
 10 36  1  0
 15 37  1  0
 17 38  1  0
 18 39  1  0
 19 40  1  0
 21 41  1  0
 21 42  1  0
 23 43  1  0
 24 44  1  0
 25 45  1  0
 26 46  1  0
 27 47  1  0
 28 48  1  0
M  END
>  <UniqueID>  (74) 
62

>  <SMILES>  (74) 
Cc1nn(-c2ccccc2)nc1C(=O)Nc1cccc(Cc2ccccc2)c1

>  <Energy>  (74) 
89.86305280337437

>  <Genealogy>  (74) 
Cc1nn(-c2ccccc2)nc1C(=O)Nc1cccc(Cc2ccccc2)c1 (3D coordinates assigned)
Cc1nn(-c2ccccc2)nc1C(=O)Nc1cccc(Cc2ccccc2)c1 (optimized conformer: 89.86305280337437 kcal/mol)

>  <smiles>  (74) 
Cc1nn(-c2ccccc2)nc1C(=O)Nc1cccc(Cc2ccccc2)c1

>  <score_type>  (74) 
oracle

>  <origin>  (74) 
adg

>  <m_score__min__energy>  (74) 
-9.6999999999999993

>  <m_primary>  (74) 
energy

$$$$
74:0
     RDKit          3D

 43 44  0  0  0  0  0  0  0  0999 V2000
   57.3380   22.4050   47.9740 O   0  0  0  0  0  0  0  0  0  0  0  0
   56.9030   23.3620   47.2810 C   0  0  0  0  0  0  0  0  0  0  0  0
   56.5280   24.5370   47.9240 O   0  0  0  0  0  0  0  0  0  0  0  0
   56.7580   23.2390   45.8060 C   0  0  0  0  0  0  0  0  0  0  0  0
   57.5660   22.3050   45.1300 C   0  0  0  0  0  0  0  0  0  0  0  0
   57.5210   22.1920   43.7400 C   0  0  0  0  0  0  0  0  0  0  0  0
   56.6720   23.0130   42.9990 C   0  0  0  0  0  0  0  0  0  0  0  0
   55.8520   23.9370   43.6480 C   0  0  0  0  0  0  0  0  0  0  0  0
   55.8660   24.0470   45.0470 C   0  0  0  0  0  0  0  0  0  0  0  0
   54.9260   25.0000   45.6700 C   0  0  0  0  0  0  0  0  0  0  0  0
   53.7780   24.6010   45.9950 O   0  0  0  0  0  0  0  0  0  0  0  0
   55.2920   26.3590   45.9370 N   0  0  0  0  0  0  0  0  0  0  0  0
   56.6480   26.8350   46.2030 C   0  0  0  0  0  0  0  0  0  0  0  0
   57.3900   27.1750   44.9020 C   0  0  0  0  0  0  0  0  0  0  0  0
   57.2260   28.6410   44.4900 C   0  0  0  0  0  0  0  0  0  0  0  0
   56.9700   29.4310   45.6320 O   0  0  0  0  0  0  0  0  0  0  0  0
   58.1440   29.5810   46.4080 C   0  0  0  0  0  0  0  0  0  0  0  0
   59.2030   30.3500   45.6160 C   0  0  0  0  0  0  0  0  0  0  0  0
   58.8720   31.8180   45.5700 C   0  0  0  0  0  0  0  0  0  0  0  0
   57.8920   32.2960   44.6830 C   0  0  0  0  0  0  0  0  0  0  0  0
   57.6090   33.6640   44.6180 C   0  0  0  0  0  0  0  0  0  0  0  0
   58.3070   34.5630   45.4290 C   0  0  0  0  0  0  0  0  0  0  0  0
   59.2920   34.0980   46.3040 C   0  0  0  0  0  0  0  0  0  0  0  0
   59.5790   32.7310   46.3720 C   0  0  0  0  0  0  0  0  0  0  0  0
   58.2420   21.6555   45.7055 H   0  0  0  0  0  0  0  0  0  0  0  0
   58.1562   21.4541   43.2281 H   0  0  0  0  0  0  0  0  0  0  0  0
   56.6485   22.9323   41.9022 H   0  0  0  0  0  0  0  0  0  0  0  0
   55.1882   24.5854   43.0573 H   0  0  0  0  0  0  0  0  0  0  0  0
   56.5937   27.7373   46.8299 H   0  0  0  0  0  0  0  0  0  0  0  0
   57.2005   26.0344   46.7165 H   0  0  0  0  0  0  0  0  0  0  0  0
   58.4609   26.9677   45.0439 H   0  0  0  0  0  0  0  0  0  0  0  0
   56.9565   26.5562   44.1025 H   0  0  0  0  0  0  0  0  0  0  0  0
   58.1491   28.9895   44.0038 H   0  0  0  0  0  0  0  0  0  0  0  0
   56.3828   28.7301   43.7892 H   0  0  0  0  0  0  0  0  0  0  0  0
   57.9040   30.1349   47.3276 H   0  0  0  0  0  0  0  0  0  0  0  0
   58.5370   28.5856   46.6624 H   0  0  0  0  0  0  0  0  0  0  0  0
   60.1825   30.2157   46.0981 H   0  0  0  0  0  0  0  0  0  0  0  0
   59.2270   29.9607   44.5875 H   0  0  0  0  0  0  0  0  0  0  0  0
   57.3460   31.5919   44.0380 H   0  0  0  0  0  0  0  0  0  0  0  0
   56.8361   34.0329   43.9277 H   0  0  0  0  0  0  0  0  0  0  0  0
   58.0806   35.6383   45.3784 H   0  0  0  0  0  0  0  0  0  0  0  0
   59.8420   34.8075   46.9397 H   0  0  0  0  0  0  0  0  0  0  0  0
   60.3609   32.3687   47.0556 H   0  0  0  0  0  0  0  0  0  0  0  0
  1  2  2  0
  2  3  1  0
  2  4  1  0
  4  5  2  0
  5  6  1  0
  6  7  2  0
  7  8  1  0
  8  9  2  0
  9 10  1  0
 10 11  2  0
 10 12  1  0
 12 13  1  0
 13 14  1  0
 14 15  1  0
 15 16  1  0
 16 17  1  0
 17 18  1  0
 18 19  1  0
 19 20  2  0
 20 21  1  0
 21 22  2  0
 22 23  1  0
 23 24  2  0
  9  4  1  0
 24 19  1  0
  5 25  1  0
  6 26  1  0
  7 27  1  0
  8 28  1  0
 13 29  1  0
 13 30  1  0
 14 31  1  0
 14 32  1  0
 15 33  1  0
 15 34  1  0
 17 35  1  0
 17 36  1  0
 18 37  1  0
 18 38  1  0
 20 39  1  0
 21 40  1  0
 22 41  1  0
 23 42  1  0
 24 43  1  0
M  CHG  2   3  -1  12  -1
M  END
>  <UniqueID>  (75) 
63

>  <SMILES>  (75) 
O=C([O-])c1ccccc1C(=O)[N-]CCCOCCc1ccccc1

>  <Energy>  (75) 
48.04219497003422

>  <Genealogy>  (75) 
O=C([O-])c1ccccc1C(=O)[N-]CCCOCCc1ccccc1 (protonated)
O=C([O-])c1ccccc1C(=O)[N-]CCCOCCc1ccccc1 (3D coordinates assigned)
O=C([O-])c1ccccc1C(=O)[N-]CCCOCCc1ccccc1 (optimized conformer: 48.04219497003422 kcal/mol)

>  <smiles>  (75) 
O=C(O)c1ccccc1C(=O)NCCCOCCc1ccccc1

>  <score_type>  (75) 
oracle

>  <origin>  (75) 
adg

>  <m_score__min__energy>  (75) 
-11.880000000000001

>  <m_primary>  (75) 
energy

$$$$
75:0
     RDKit          3D

 43 45  0  0  0  0  0  0  0  0999 V2000
   61.5270   33.0750   49.9350 C   0  0  0  0  0  0  0  0  0  0  0  0
   60.7130   33.2560   48.6790 C   0  0  0  0  0  0  0  0  0  0  0  0
   59.3130   33.2020   48.7700 C   0  0  0  0  0  0  0  0  0  0  0  0
   58.5210   33.3410   47.6320 C   0  0  0  0  0  0  0  0  0  0  0  0
   59.1100   33.5230   46.3730 C   0  0  0  0  0  0  0  0  0  0  0  0
   58.2690   33.6320   45.1560 C   0  0  0  0  0  0  0  0  0  0  0  0
   57.7320   34.7350   44.8700 O   0  0  0  0  0  0  0  0  0  0  0  0
   58.0220   32.5020   44.3080 N   0  0  0  0  0  0  0  0  0  0  0  0
   58.0060   31.1390   44.7520 C   0  0  0  0  0  0  0  0  0  0  0  0
   56.8770   30.3250   44.5630 C   0  0  0  0  0  0  0  0  0  0  0  0
   56.9160   28.9750   44.9150 C   0  0  0  0  0  0  0  0  0  0  0  0
   58.0810   28.4250   45.4660 C   0  0  0  0  0  0  0  0  0  0  0  0
   58.1940   26.6920   45.7500 S   0  0  0  0  0  0  0  0  0  0  0  0
   59.4710   26.3530   46.4670 O   0  0  0  0  0  0  0  0  0  0  0  0
   58.1790   25.9730   44.4300 O   0  0  0  0  0  0  0  0  0  0  0  0
   56.8380   26.1730   46.7000 N   0  0  0  0  0  0  0  0  0  0  0  0
   55.8970   25.4100   46.2380 C   0  0  0  0  0  0  0  0  0  0  0  0
   54.6400   25.8330   45.9750 N   0  0  0  0  0  0  0  0  0  0  0  0
   53.8690   24.8270   45.4850 C   0  0  0  0  0  0  0  0  0  0  0  0
   54.5110   23.6000   45.3580 C   0  0  0  0  0  0  0  0  0  0  0  0
   56.1030   23.7830   45.8810 S   0  0  0  0  0  0  0  0  0  0  0  0
   59.1900   29.2480   45.7040 C   0  0  0  0  0  0  0  0  0  0  0  0
   59.1460   30.6040   45.3630 C   0  0  0  0  0  0  0  0  0  0  0  0
   60.5070   33.5950   46.2760 C   0  0  0  0  0  0  0  0  0  0  0  0
   61.3210   33.4490   47.4130 C   0  0  0  0  0  0  0  0  0  0  0  0
   63.0870   33.5170   47.2370 S   0  0  0  0  0  0  0  0  0  0  0  0
   63.7910   31.9370   47.1470 N   0  0  0  0  0  0  0  0  0  0  0  0
   63.6840   34.2240   48.4210 O   0  0  0  0  0  0  0  0  0  0  0  0
   63.4320   34.2650   45.9810 O   0  0  0  0  0  0  0  0  0  0  0  0
   60.8816   33.2185   50.8141 H   0  0  0  0  0  0  0  0  0  0  0  0
   61.9517   32.0605   49.9537 H   0  0  0  0  0  0  0  0  0  0  0  0
   62.3416   33.8139   49.9537 H   0  0  0  0  0  0  0  0  0  0  0  0
   58.8366   33.0484   49.7495 H   0  0  0  0  0  0  0  0  0  0  0  0
   57.4252   33.3077   47.7222 H   0  0  0  0  0  0  0  0  0  0  0  0
   55.9583   30.7533   44.1358 H   0  0  0  0  0  0  0  0  0  0  0  0
   56.0303   28.3415   44.7595 H   0  0  0  0  0  0  0  0  0  0  0  0
   52.8142   24.9726   45.2090 H   0  0  0  0  0  0  0  0  0  0  0  0
   54.0583   22.6709   44.9814 H   0  0  0  0  0  0  0  0  0  0  0  0
   60.0978   28.8265   46.1603 H   0  0  0  0  0  0  0  0  0  0  0  0
   60.0095   31.2514   45.5756 H   0  0  0  0  0  0  0  0  0  0  0  0
   60.9733   33.7684   45.2950 H   0  0  0  0  0  0  0  0  0  0  0  0
   64.3140   31.7710   48.0360 H   0  0  0  0  0  0  0  0  0  0  0  0
   64.4820   31.9420   46.3630 H   0  0  0  0  0  0  0  0  0  0  0  0
  1  2  1  0
  2  3  2  0
  3  4  1  0
  4  5  2  0
  5  6  1  0
  6  7  2  0
  6  8  1  0
  8  9  1  0
  9 10  2  0
 10 11  1  0
 11 12  2  0
 12 13  1  0
 13 14  2  0
 13 15  2  0
 13 16  1  0
 16 17  2  3
 17 18  1  0
 18 19  1  0
 19 20  2  0
 20 21  1  0
 12 22  1  0
 22 23  2  0
  5 24  1  0
 24 25  2  0
 25 26  1  0
 26 27  1  0
 26 28  2  0
 26 29  2  0
 25  2  1  0
 23  9  1  0
 21 17  1  0
  1 30  1  0
  1 31  1  0
  1 32  1  0
  3 33  1  0
  4 34  1  0
 10 35  1  0
 11 36  1  0
 19 37  1  0
 20 38  1  0
 22 39  1  0
 23 40  1  0
 24 41  1  0
 27 42  1  0
 27 43  1  0
M  CHG  2   8  -1  18  -1
M  END
>  <UniqueID>  (76) 
64

>  <SMILES>  (76) 
Cc1ccc(C(=O)[N-]c2ccc(S(=O)(=O)N=c3[n-]ccs3)cc2)cc1S(N)(=O)=O

>  <Energy>  (76) 
84.53928598234698

>  <Genealogy>  (76) 
Cc1ccc(C(=O)[N-]c2ccc(S(=O)(=O)N=c3[n-]ccs3)cc2)cc1S(N)(=O)=O (protonated)
Cc1ccc(C(=O)[N-]c2ccc(S(=O)(=O)N=c3[n-]ccs3)cc2)cc1S(N)(=O)=O (3D coordinates assigned)
Cc1ccc(C(=O)[N-]c2ccc(S(=O)(=O)N=c3[n-]ccs3)cc2)cc1S(N)(=O)=O (optimized conformer: 84.53928598234698 kcal/mol)

>  <smiles>  (76) 
Cc1ccc(C(=O)Nc2ccc(S(=O)(=O)N=c3[nH]ccs3)cc2)cc1S(N)(=O)=O

>  <score_type>  (76) 
oracle

>  <origin>  (76) 
adg

>  <m_score__min__energy>  (76) 
-12.43

>  <m_primary>  (76) 
energy

$$$$
76:0
     RDKit          3D

 56 59  0  0  0  0  0  0  0  0999 V2000
   59.0524   26.6199   43.1201 H   0  0  0  0  0  0  0  0  0  0  0  0
   58.5170   27.0850   43.9610 C   0  0  0  0  0  0  0  0  0  0  0  0
   57.4320   26.4700   44.4970 N   0  0  0  0  0  0  0  0  0  0  0  0
   56.7530   27.0250   45.5350 C   0  0  0  0  0  0  0  0  0  0  0  0
   55.7010   26.4190   46.0030 N   0  0  0  0  0  0  0  0  0  0  0  0
   55.4910   24.9990   46.1140 C   0  0  0  0  0  0  0  0  0  0  0  0
   54.2860   24.4660   45.6410 C   0  0  0  0  0  0  0  0  0  0  0  0
   53.5291   25.1344   45.2047 H   0  0  0  0  0  0  0  0  0  0  0  0
   54.0330   23.0830   45.7180 C   0  0  0  0  0  0  0  0  0  0  0  0
   52.8350   22.5110   45.2670 O   0  0  0  0  0  0  0  0  0  0  0  0
   51.5410   23.0580   45.5060 C   0  0  0  0  0  0  0  0  0  0  0  0
   51.3683   23.1310   46.5899 H   0  0  0  0  0  0  0  0  0  0  0  0
   51.4777   24.0599   45.0563 H   0  0  0  0  0  0  0  0  0  0  0  0
   50.7782   22.4053   45.0563 H   0  0  0  0  0  0  0  0  0  0  0  0
   55.0060   22.2400   46.2660 C   0  0  0  0  0  0  0  0  0  0  0  0
   54.8071   21.1609   46.3430 H   0  0  0  0  0  0  0  0  0  0  0  0
   56.2270   22.7490   46.7170 C   0  0  0  0  0  0  0  0  0  0  0  0
   57.1640   21.8520   47.2540 O   0  0  0  0  0  0  0  0  0  0  0  0
   57.1290   20.4410   47.0610 C   0  0  0  0  0  0  0  0  0  0  0  0
   57.1165   19.9374   48.0389 H   0  0  0  0  0  0  0  0  0  0  0  0
   56.2239   20.1703   46.4976 H   0  0  0  0  0  0  0  0  0  0  0  0
   58.0196   20.1258   46.4976 H   0  0  0  0  0  0  0  0  0  0  0  0
   56.4770   24.1300   46.6180 C   0  0  0  0  0  0  0  0  0  0  0  0
   57.4495   24.5333   46.9366 H   0  0  0  0  0  0  0  0  0  0  0  0
   57.1630   28.2210   46.0370 N   0  0  0  0  0  0  0  0  0  0  0  0
   58.2540   28.8740   45.5530 C   0  0  0  0  0  0  0  0  0  0  0  0
   58.6590   30.1620   46.1760 C   0  0  0  0  0  0  0  0  0  0  0  0
   59.1530   30.1730   47.4950 C   0  0  0  0  0  0  0  0  0  0  0  0
   59.2166   29.2314   48.0602 H   0  0  0  0  0  0  0  0  0  0  0  0
   59.5630   31.3670   48.0930 C   0  0  0  0  0  0  0  0  0  0  0  0
   59.9484   31.3588   49.1232 H   0  0  0  0  0  0  0  0  0  0  0  0
   59.4860   32.5740   47.3880 C   0  0  0  0  0  0  0  0  0  0  0  0
   59.9930   34.0820   48.1490 S   0  0  0  0  0  0  0  0  0  0  0  0
   59.2670   35.2210   47.4910 O   0  0  0  0  0  0  0  0  0  0  0  0
   59.5920   34.0620   49.5990 O   0  0  0  0  0  0  0  0  0  0  0  0
   61.7200   34.3560   48.0310 N   0  0  0  0  0  0  0  0  0  0  0  0
   62.4340   34.0710   49.2900 C   0  0  0  0  0  0  0  0  0  0  0  0
   63.3971   34.6022   49.2720 H   0  0  0  0  0  0  0  0  0  0  0  0
   61.7866   34.4087   50.1127 H   0  0  0  0  0  0  0  0  0  0  0  0
   62.7090   32.5670   49.5160 C   0  0  0  0  0  0  0  0  0  0  0  0
   63.7410   32.4487   49.8779 H   0  0  0  0  0  0  0  0  0  0  0  0
   61.9754   32.2024   50.2501 H   0  0  0  0  0  0  0  0  0  0  0  0
   62.5460   31.7700   48.2940 N   0  0  0  0  0  0  0  0  0  0  0  0
   63.0530   30.8630   48.4240 H   0  0  0  0  0  0  0  0  0  0  0  0
   63.1320   32.4620   47.1480 C   0  0  0  0  0  0  0  0  0  0  0  0
   64.1710   32.7378   47.3814 H   0  0  0  0  0  0  0  0  0  0  0  0
   63.1104   31.7948   46.2737 H   0  0  0  0  0  0  0  0  0  0  0  0
   62.3270   33.7320   46.8330 C   0  0  0  0  0  0  0  0  0  0  0  0
   63.0000   34.4635   46.3620 H   0  0  0  0  0  0  0  0  0  0  0  0
   61.5023   33.4369   46.1675 H   0  0  0  0  0  0  0  0  0  0  0  0
   59.0170   32.5710   46.0680 C   0  0  0  0  0  0  0  0  0  0  0  0
   58.9704   33.5131   45.5021 H   0  0  0  0  0  0  0  0  0  0  0  0
   58.6080   31.3780   45.4660 C   0  0  0  0  0  0  0  0  0  0  0  0
   58.2429   31.3884   44.4284 H   0  0  0  0  0  0  0  0  0  0  0  0
   58.9540   28.3060   44.4750 C   0  0  0  0  0  0  0  0  0  0  0  0
   59.8295   28.8143   44.0448 H   0  0  0  0  0  0  0  0  0  0  0  0
  1  2  1  0
  2  3  1  0
  3  4  1  0
  4  5  2  0
  5  6  1  0
  6  7  2  0
  7  8  1  0
  7  9  1  0
  9 10  1  0
 10 11  1  0
 11 12  1  0
 11 13  1  0
 11 14  1  0
  9 15  2  0
 15 16  1  0
 15 17  1  0
 17 18  1  0
 18 19  1  0
 19 20  1  0
 19 21  1  0
 19 22  1  0
 17 23  2  0
 23 24  1  0
  4 25  1  0
 25 26  2  0
 26 27  1  0
 27 28  2  0
 28 29  1  0
 28 30  1  0
 30 31  1  0
 30 32  2  0
 32 33  1  0
 33 34  2  0
 33 35  2  0
 33 36  1  0
 36 37  1  0
 37 38  1  0
 37 39  1  0
 37 40  1  0
 40 41  1  0
 40 42  1  0
 40 43  1  0
 43 44  1  0
 43 45  1  0
 45 46  1  0
 45 47  1  0
 45 48  1  0
 48 49  1  0
 48 50  1  0
 32 51  1  0
 51 52  1  0
 51 53  2  0
 53 54  1  0
 26 55  1  0
 55 56  1  0
 55  2  2  0
 23  6  1  0
 53 27  1  0
 48 36  1  0
M  CHG  1   3  -1
M  END
>  <UniqueID>  (77) 
65

>  <SMILES>  (77) 
COc1cc(/N=c2\nc(-c3ccc(S(=O)(=O)N4CCNCC4)cc3)cc[n-]2)cc(OC)c1

>  <Energy>  (77) 
76.2863361873327

>  <Genealogy>  (77) 
COc1cc(N=c2nc(-c3ccc(S(=O)(=O)N4CCNCC4)cc3)cc[n-]2)cc(OC)c1 (protonated)
COc1cc(/N=c2\nc(-c3ccc(S(=O)(=O)N4CCNCC4)cc3)cc[n-]2)cc(OC)c1 (cis-trans isomerization)
COc1cc(/N=c2\nc(-c3ccc(S(=O)(=O)N4CCNCC4)cc3)cc[n-]2)cc(OC)c1 (3D coordinates assigned)
COc1cc(/N=c2\nc(-c3ccc(S(=O)(=O)N4CCNCC4)cc3)cc[n-]2)cc(OC)c1 (nonaromatic ring conformer: 76.2863361873327 kcal/mol)

>  <smiles>  (77) 
COc1cc(N=c2nc(-c3ccc(S(=O)(=O)N4CCNCC4)cc3)cc[nH]2)cc(OC)c1

>  <score_type>  (77) 
oracle

>  <origin>  (77) 
adg

>  <m_score__min__energy>  (77) 
-10.1

>  <m_primary>  (77) 
energy

$$$$
77:0
     RDKit          3D

 44 47  0  0  0  0  0  0  0  0999 V2000
   67.9640   30.9990   52.0890 F   0  0  0  0  0  0  0  0  0  0  0  0
   66.6980   30.5170   51.8120 C   0  0  0  0  0  0  0  0  0  0  0  0
   66.8050   29.2470   51.2750 F   0  0  0  0  0  0  0  0  0  0  0  0
   65.9650   30.4570   52.9810 F   0  0  0  0  0  0  0  0  0  0  0  0
   66.0160   31.4270   50.8420 C   0  0  0  0  0  0  0  0  0  0  0  0
   64.7280   31.3160   50.4740 N   0  0  0  0  0  0  0  0  0  0  0  0
   64.5870   32.3310   49.5980 C   0  0  0  0  0  0  0  0  0  0  0  0
   63.3610   32.6470   48.9100 N   0  0  0  0  0  0  0  0  0  0  0  0
   63.3820   33.6290   47.8160 C   0  0  0  0  0  0  0  0  0  0  0  0
   61.9850   33.8420   47.2370 C   0  0  0  0  0  0  0  0  0  0  0  0
   61.0330   33.9650   48.3520 N   0  0  0  0  0  0  0  0  0  0  0  0
   59.7460   34.5760   47.9570 C   0  0  0  0  0  0  0  0  0  0  0  0
   59.2340   34.0930   46.6240 C   0  0  0  0  0  0  0  0  0  0  0  0
   59.2730   34.7900   45.4380 C   0  0  0  0  0  0  0  0  0  0  0  0
   58.7430   34.0240   44.5180 O   0  0  0  0  0  0  0  0  0  0  0  0
   58.3900   32.8980   45.0990 C   0  0  0  0  0  0  0  0  0  0  0  0
   57.7530   31.7730   44.3860 C   0  0  0  0  0  0  0  0  0  0  0  0
   57.4280   30.5850   45.0660 C   0  0  0  0  0  0  0  0  0  0  0  0
   56.8230   29.5240   44.3830 C   0  0  0  0  0  0  0  0  0  0  0  0
   56.5380   29.6400   43.0210 C   0  0  0  0  0  0  0  0  0  0  0  0
   56.8580   30.8150   42.3370 C   0  0  0  0  0  0  0  0  0  0  0  0
   57.4630   31.8780   43.0140 C   0  0  0  0  0  0  0  0  0  0  0  0
   58.6730   32.8860   46.4200 N   0  0  0  0  0  0  0  0  0  0  0  0
   60.8650   32.6990   49.1000 C   0  0  0  0  0  0  0  0  0  0  0  0
   62.1510   31.8450   49.1520 C   0  0  0  0  0  0  0  0  0  0  0  0
   65.7370   33.0200   49.4420 N   0  0  0  0  0  0  0  0  0  0  0  0
   66.5930   32.4300   50.2250 O   0  0  0  0  0  0  0  0  0  0  0  0
   64.0230   30.6160   50.7960 H   0  0  0  0  0  0  0  0  0  0  0  0
   63.7604   34.5873   48.2014 H   0  0  0  0  0  0  0  0  0  0  0  0
   64.0349   33.2465   47.0176 H   0  0  0  0  0  0  0  0  0  0  0  0
   61.9697   34.7609   46.6326 H   0  0  0  0  0  0  0  0  0  0  0  0
   61.7082   32.9918   46.5962 H   0  0  0  0  0  0  0  0  0  0  0  0
   58.9964   34.3359   48.7254 H   0  0  0  0  0  0  0  0  0  0  0  0
   59.9172   35.6586   47.8644 H   0  0  0  0  0  0  0  0  0  0  0  0
   59.6751   35.8032   45.2903 H   0  0  0  0  0  0  0  0  0  0  0  0
   57.6504   30.4898   46.1391 H   0  0  0  0  0  0  0  0  0  0  0  0
   56.5716   28.5974   44.9198 H   0  0  0  0  0  0  0  0  0  0  0  0
   56.0611   28.8053   42.4863 H   0  0  0  0  0  0  0  0  0  0  0  0
   56.6336   30.9041   41.2638 H   0  0  0  0  0  0  0  0  0  0  0  0
   57.7134   32.8011   42.4708 H   0  0  0  0  0  0  0  0  0  0  0  0
   60.5637   32.9395   50.1302 H   0  0  0  0  0  0  0  0  0  0  0  0
   60.1022   32.1076   48.5724 H   0  0  0  0  0  0  0  0  0  0  0  0
   62.2273   31.3797   50.1458 H   0  0  0  0  0  0  0  0  0  0  0  0
   62.0847   31.0860   48.3586 H   0  0  0  0  0  0  0  0  0  0  0  0
  1  2  1  0
  2  3  1  0
  2  4  1  0
  2  5  1  0
  5  6  2  0
  6  7  1  0
  7  8  1  0
  8  9  1  0
  9 10  1  0
 10 11  1  0
 11 12  1  0
 12 13  1  0
 13 14  2  0
 14 15  1  0
 15 16  1  0
 16 17  1  0
 17 18  2  0
 18 19  1  0
 19 20  2  0
 20 21  1  0
 21 22  2  0
 16 23  2  0
 11 24  1  0
 24 25  1  0
  7 26  2  0
 26 27  1  0
 27  5  1  0
 25  8  1  0
 23 13  1  0
 22 17  1  0
  6 28  1  0
  9 29  1  0
  9 30  1  0
 10 31  1  0
 10 32  1  0
 12 33  1  0
 12 34  1  0
 14 35  1  0
 18 36  1  0
 19 37  1  0
 20 38  1  0
 21 39  1  0
 22 40  1  0
 24 41  1  0
 24 42  1  0
 25 43  1  0
 25 44  1  0
M  CHG  1   6   1
M  END
>  <UniqueID>  (78) 
66

>  <SMILES>  (78) 
FC(F)(F)c1[nH+]c(N2CCN(Cc3coc(-c4ccccc4)n3)CC2)no1

>  <Energy>  (78) 
117.57215488601679

>  <Genealogy>  (78) 
FC(F)(F)c1[nH+]c(N2CCN(Cc3coc(-c4ccccc4)n3)CC2)no1 (protonated)
FC(F)(F)c1[nH+]c(N2CCN(Cc3coc(-c4ccccc4)n3)CC2)no1 (3D coordinates assigned)
FC(F)(F)c1[nH+]c(N2CCN(Cc3coc(-c4ccccc4)n3)CC2)no1 (nonaromatic ring conformer: 117.57215488601679 kcal/mol)

>  <smiles>  (78) 
FC(F)(F)c1nc(N2CCN(Cc3coc(-c4ccccc4)n3)CC2)no1

>  <score_type>  (78) 
oracle

>  <origin>  (78) 
adg

>  <m_score__min__energy>  (78) 
-6.3700000000000001

>  <m_primary>  (78) 
energy

$$$$
78:0
     RDKit          3D

 49 51  0  0  0  0  0  0  0  0999 V2000
   58.5200   32.5800   48.9320 C   0  0  0  0  0  0  0  0  0  0  0  0
   58.6890   33.0910   47.5310 C   0  0  0  0  0  0  0  0  0  0  0  0
   59.5970   34.1240   47.2620 C   0  0  0  0  0  0  0  0  0  0  0  0
   59.7710   34.5820   45.9540 C   0  0  0  0  0  0  0  0  0  0  0  0
   59.0580   33.9990   44.9060 C   0  0  0  0  0  0  0  0  0  0  0  0
   58.1760   32.9330   45.1510 C   0  0  0  0  0  0  0  0  0  0  0  0
   57.4190   32.2900   44.0060 C   0  0  0  0  0  0  0  0  0  0  0  0
   57.6430   30.8320   43.8840 N   0  0  0  0  0  0  0  0  0  0  0  0
   56.4070   30.0100   43.9460 C   0  0  0  0  0  0  0  0  0  0  0  0
   56.3250   29.1790   45.2340 C   0  0  0  0  0  0  0  0  0  0  0  0
   57.5310   28.2160   45.3530 C   0  0  0  0  0  0  0  0  0  0  0  0
   57.2220   26.9180   44.7410 N   0  0  0  0  0  0  0  0  0  0  0  0
   56.6360   25.8400   45.4870 C   0  0  0  0  0  0  0  0  0  0  0  0
   56.2010   26.0440   46.6530 O   0  0  0  0  0  0  0  0  0  0  0  0
   56.4840   24.4990   44.8830 C   0  0  0  0  0  0  0  0  0  0  0  0
   57.6170   23.8670   44.3490 C   0  0  0  0  0  0  0  0  0  0  0  0
   57.5170   22.5910   43.7940 C   0  0  0  0  0  0  0  0  0  0  0  0
   56.2780   21.9530   43.7680 C   0  0  0  0  0  0  0  0  0  0  0  0
   56.1710   20.7980   43.2800 O   0  0  0  0  0  0  0  0  0  0  0  0
   55.1810   22.5820   44.2640 N   0  0  0  0  0  0  0  0  0  0  0  0
   55.2370   23.8310   44.8060 C   0  0  0  0  0  0  0  0  0  0  0  0
   53.9570   24.4510   45.2850 C   0  0  0  0  0  0  0  0  0  0  0  0
   58.8130   28.8040   44.7150 C   0  0  0  0  0  0  0  0  0  0  0  0
   58.7750   30.3350   44.7010 C   0  0  0  0  0  0  0  0  0  0  0  0
   57.9850   32.4940   46.4730 C   0  0  0  0  0  0  0  0  0  0  0  0
   58.7827   33.3743   49.6462 H   0  0  0  0  0  0  0  0  0  0  0  0
   57.4740   32.2776   49.0883 H   0  0  0  0  0  0  0  0  0  0  0  0
   59.1794   31.7136   49.0883 H   0  0  0  0  0  0  0  0  0  0  0  0
   60.1739   34.5751   48.0828 H   0  0  0  0  0  0  0  0  0  0  0  0
   60.4721   35.4046   45.7496 H   0  0  0  0  0  0  0  0  0  0  0  0
   59.1872   34.3765   43.8809 H   0  0  0  0  0  0  0  0  0  0  0  0
   56.3438   32.4637   44.1605 H   0  0  0  0  0  0  0  0  0  0  0  0
   57.7914   32.7494   43.0785 H   0  0  0  0  0  0  0  0  0  0  0  0
   55.5347   30.6786   43.9001 H   0  0  0  0  0  0  0  0  0  0  0  0
   56.4233   29.3125   43.0956 H   0  0  0  0  0  0  0  0  0  0  0  0
   56.3202   29.8576   46.0998 H   0  0  0  0  0  0  0  0  0  0  0  0
   55.4019   28.5814   45.2063 H   0  0  0  0  0  0  0  0  0  0  0  0
   57.7224   28.0764   46.4272 H   0  0  0  0  0  0  0  0  0  0  0  0
   57.3820   26.7810   43.7170 H   0  0  0  0  0  0  0  0  0  0  0  0
   58.5896   24.3805   44.3680 H   0  0  0  0  0  0  0  0  0  0  0  0
   58.4069   22.0934   43.3811 H   0  0  0  0  0  0  0  0  0  0  0  0
   53.9422   24.4582   46.3849 H   0  0  0  0  0  0  0  0  0  0  0  0
   53.8868   25.4829   44.9106 H   0  0  0  0  0  0  0  0  0  0  0  0
   53.1038   23.8663   44.9106 H   0  0  0  0  0  0  0  0  0  0  0  0
   59.6867   28.4724   45.2953 H   0  0  0  0  0  0  0  0  0  0  0  0
   58.8786   28.4485   43.6761 H   0  0  0  0  0  0  0  0  0  0  0  0
   58.6622   30.7012   45.7321 H   0  0  0  0  0  0  0  0  0  0  0  0
   59.7129   30.7042   44.2606 H   0  0  0  0  0  0  0  0  0  0  0  0
   57.2786   31.6766   46.6800 H   0  0  0  0  0  0  0  0  0  0  0  0
  1  2  1  0
  2  3  2  0
  3  4  1  0
  4  5  2  0
  5  6  1  0
  6  7  1  0
  7  8  1  0
  8  9  1  0
  9 10  1  0
 10 11  1  0
 11 12  1  0
 12 13  1  0
 13 14  2  0
 13 15  1  0
 15 16  1  0
 16 17  2  0
 17 18  1  0
 18 19  2  0
 18 20  1  0
 20 21  1  0
 21 22  1  0
 11 23  1  0
 23 24  1  0
  6 25  2  0
 25  2  1  0
 24  8  1  0
 21 15  2  0
  1 26  1  0
  1 27  1  0
  1 28  1  0
  3 29  1  0
  4 30  1  0
  5 31  1  0
  7 32  1  0
  7 33  1  0
  9 34  1  0
  9 35  1  0
 10 36  1  0
 10 37  1  0
 11 38  1  0
 12 39  1  0
 16 40  1  0
 17 41  1  0
 22 42  1  0
 22 43  1  0
 22 44  1  0
 23 45  1  0
 23 46  1  0
 24 47  1  0
 24 48  1  0
 25 49  1  0
M  CHG  1  20  -1
M  END
>  <UniqueID>  (79) 
67

>  <SMILES>  (79) 
Cc1cccc(CN2CCC(NC(=O)c3ccc(=O)[n-]c3C)CC2)c1

>  <Energy>  (79) 
63.42561066667297

>  <Genealogy>  (79) 
Cc1cccc(CN2CCC(NC(=O)c3ccc(=O)[n-]c3C)CC2)c1 (protonated)
Cc1cccc(CN2CCC(NC(=O)c3ccc(=O)[n-]c3C)CC2)c1 (3D coordinates assigned)
Cc1cccc(CN2CCC(NC(=O)c3ccc(=O)[n-]c3C)CC2)c1 (nonaromatic ring conformer: 63.42561066667297 kcal/mol)

>  <smiles>  (79) 
Cc1cccc(CN2CCC(NC(=O)c3ccc(=O)[nH]c3C)CC2)c1

>  <score_type>  (79) 
oracle

>  <origin>  (79) 
adg

>  <m_score__min__energy>  (79) 
-10.51

>  <m_primary>  (79) 
energy

$$$$
79:0
     RDKit          3D

 26 27  0  0  0  0  0  0  0  0999 V2000
   58.2915   25.8157   45.1210 H   0  0  0  0  0  0  0  0  0  0  0  0
   57.7710   26.7830   45.0630 C   0  0  0  0  0  0  0  0  0  0  0  0
   58.4230   28.2240   44.4890 S   0  0  0  0  0  0  0  0  0  0  0  0
   56.9980   29.0920   44.7470 C   0  0  0  0  0  0  0  0  0  0  0  0
   56.8230   30.3640   44.5400 N   0  0  0  0  0  0  0  0  0  0  0  0
   57.6110   31.4350   45.0820 C   0  0  0  0  0  0  0  0  0  0  0  0
   58.1640   31.2880   46.3600 C   0  0  0  0  0  0  0  0  0  0  0  0
   58.0141   30.3508   46.9160 H   0  0  0  0  0  0  0  0  0  0  0  0
   58.9060   32.3260   46.9340 C   0  0  0  0  0  0  0  0  0  0  0  0
   59.3565   32.1928   47.9287 H   0  0  0  0  0  0  0  0  0  0  0  0
   59.0770   33.5330   46.2470 C   0  0  0  0  0  0  0  0  0  0  0  0
   60.0240   34.8340   46.9630 S   0  0  0  0  0  0  0  0  0  0  0  0
   59.6740   36.1400   46.3070 O   0  0  0  0  0  0  0  0  0  0  0  0
   61.4890   34.5690   46.7550 O   0  0  0  0  0  0  0  0  0  0  0  0
   59.6900   34.9320   48.6550 N   0  0  0  0  0  0  0  0  0  0  0  0
   59.0690   35.7600   48.7970 H   0  0  0  0  0  0  0  0  0  0  0  0
   59.1260   34.0880   48.9050 H   0  0  0  0  0  0  0  0  0  0  0  0
   58.5040   33.6940   44.9790 C   0  0  0  0  0  0  0  0  0  0  0  0
   58.6375   34.6398   44.4335 H   0  0  0  0  0  0  0  0  0  0  0  0
   57.7630   32.6570   44.4040 C   0  0  0  0  0  0  0  0  0  0  0  0
   57.2973   32.7979   43.4175 H   0  0  0  0  0  0  0  0  0  0  0  0
   56.0350   28.3140   45.2800 N   0  0  0  0  0  0  0  0  0  0  0  0
   56.4560   27.0300   45.4520 C   0  0  0  0  0  0  0  0  0  0  0  0
   55.5760   25.9970   46.0130 C   0  0  0  0  0  0  0  0  0  0  0  0
   56.0370   25.1400   46.8120 O   0  0  0  0  0  0  0  0  0  0  0  0
   54.2310   25.9550   45.6680 O   0  0  0  0  0  0  0  0  0  0  0  0
  1  2  1  0
  2  3  1  0
  3  4  1  0
  4  5  2  0
  5  6  1  0
  6  7  2  0
  7  8  1  0
  7  9  1  0
  9 10  1  0
  9 11  2  0
 11 12  1  0
 12 13  2  0
 12 14  2  0
 12 15  1  0
 15 16  1  0
 15 17  1  0
 11 18  1  0
 18 19  1  0
 18 20  2  0
 20 21  1  0
  4 22  1  0
 22 23  1  0
 23 24  1  0
 24 25  2  0
 24 26  1  0
 23  2  2  0
 20  6  1  0
M  CHG  2  22  -1  26  -1
M  END
>  <UniqueID>  (80) 
68

>  <SMILES>  (80) 
NS(=O)(=O)c1ccc(/N=c2/[n-]c(C(=O)[O-])cs2)cc1

>  <Energy>  (80) 
61.4670075017259

>  <Genealogy>  (80) 
NS(=O)(=O)c1ccc(N=c2[n-]c(C(=O)[O-])cs2)cc1 (protonated)
NS(=O)(=O)c1ccc(/N=c2/[n-]c(C(=O)[O-])cs2)cc1 (cis-trans isomerization)
NS(=O)(=O)c1ccc(/N=c2/[n-]c(C(=O)[O-])cs2)cc1 (3D coordinates assigned)
NS(=O)(=O)c1ccc(/N=c2/[n-]c(C(=O)[O-])cs2)cc1 (optimized conformer: 61.4670075017259 kcal/mol)

>  <smiles>  (80) 
NS(=O)(=O)c1ccc(N=c2[nH]c(C(=O)O)cs2)cc1

>  <score_type>  (80) 
oracle

>  <origin>  (80) 
adg

>  <m_score__min__energy>  (80) 
-11.119999999999999

>  <m_primary>  (80) 
energy

$$$$
80:0
     RDKit          3D

 33 34  0  0  0  0  0  0  0  0999 V2000
   56.3550   22.1270   45.5030 C   0  0  0  0  0  0  0  0  0  0  0  0
   56.7090   23.1660   46.9040 S   0  0  0  0  0  0  0  0  0  0  0  0
   55.5150   24.0140   47.2390 O   0  0  0  0  0  0  0  0  0  0  0  0
   57.0270   22.2920   48.0840 O   0  0  0  0  0  0  0  0  0  0  0  0
   58.0800   24.1770   46.5800 N   0  0  0  0  0  0  0  0  0  0  0  0
   58.0730   25.6090   46.5130 C   0  0  0  0  0  0  0  0  0  0  0  0
   59.1430   26.3080   47.0850 C   0  0  0  0  0  0  0  0  0  0  0  0
   59.1640   27.7040   47.0720 C   0  0  0  0  0  0  0  0  0  0  0  0
   58.1210   28.4160   46.4750 C   0  0  0  0  0  0  0  0  0  0  0  0
   57.0630   27.7340   45.8660 C   0  0  0  0  0  0  0  0  0  0  0  0
   56.0180   28.4910   45.2420 N   0  0  0  0  0  0  0  0  0  0  0  0
   56.1440   29.8290   44.7410 C   0  0  0  0  0  0  0  0  0  0  0  0
   55.1050   30.4600   44.4190 O   0  0  0  0  0  0  0  0  0  0  0  0
   57.4200   30.4690   44.5970 N   0  0  0  0  0  0  0  0  0  0  0  0
   57.8200   31.7120   45.1950 C   0  0  0  0  0  0  0  0  0  0  0  0
   58.2240   31.7920   46.5400 C   0  0  0  0  0  0  0  0  0  0  0  0
   58.6140   33.0190   47.0860 C   0  0  0  0  0  0  0  0  0  0  0  0
   58.5800   34.1770   46.3030 C   0  0  0  0  0  0  0  0  0  0  0  0
   58.9580   35.3650   46.8340 F   0  0  0  0  0  0  0  0  0  0  0  0
   58.1430   34.1090   44.9770 C   0  0  0  0  0  0  0  0  0  0  0  0
   57.7530   32.8830   44.4290 C   0  0  0  0  0  0  0  0  0  0  0  0
   57.0290   26.3290   45.9030 C   0  0  0  0  0  0  0  0  0  0  0  0
   56.0188   21.1402   45.8540 H   0  0  0  0  0  0  0  0  0  0  0  0
   55.5636   22.5890   44.8946 H   0  0  0  0  0  0  0  0  0  0  0  0
   57.2639   22.0097   44.8946 H   0  0  0  0  0  0  0  0  0  0  0  0
   59.9727   25.7535   47.5478 H   0  0  0  0  0  0  0  0  0  0  0  0
   60.0039   28.2444   47.5330 H   0  0  0  0  0  0  0  0  0  0  0  0
   58.1319   29.5159   46.4840 H   0  0  0  0  0  0  0  0  0  0  0  0
   58.2332   30.8864   47.1644 H   0  0  0  0  0  0  0  0  0  0  0  0
   58.9479   33.0732   48.1327 H   0  0  0  0  0  0  0  0  0  0  0  0
   58.1058   35.0213   44.3636 H   0  0  0  0  0  0  0  0  0  0  0  0
   57.3917   32.8379   43.3910 H   0  0  0  0  0  0  0  0  0  0  0  0
   56.1823   25.7899   45.4530 H   0  0  0  0  0  0  0  0  0  0  0  0
  1  2  1  0
  2  3  2  0
  2  4  2  0
  2  5  1  0
  5  6  1  0
  6  7  2  0
  7  8  1  0
  8  9  2  0
  9 10  1  0
 10 11  1  0
 11 12  1  0
 12 13  2  0
 12 14  1  0
 14 15  1  0
 15 16  2  0
 16 17  1  0
 17 18  2  0
 18 19  1  0
 18 20  1  0
 20 21  2  0
 10 22  2  0
 22  6  1  0
 21 15  1  0
  1 23  1  0
  1 24  1  0
  1 25  1  0
  7 26  1  0
  8 27  1  0
  9 28  1  0
 16 29  1  0
 17 30  1  0
 20 31  1  0
 21 32  1  0
 22 33  1  0
M  CHG  3   5  -1  11  -1  14  -1
M  END
>  <UniqueID>  (81) 
69

>  <SMILES>  (81) 
CS(=O)(=O)[N-]c1cccc([N-]C(=O)[N-]c2ccc(F)cc2)c1

>  <Energy>  (81) 
38.7659411782724

>  <Genealogy>  (81) 
CS(=O)(=O)[N-]c1cccc([N-]C(=O)[N-]c2ccc(F)cc2)c1 (protonated)
CS(=O)(=O)[N-]c1cccc([N-]C(=O)[N-]c2ccc(F)cc2)c1 (3D coordinates assigned)
CS(=O)(=O)[N-]c1cccc([N-]C(=O)[N-]c2ccc(F)cc2)c1 (optimized conformer: 38.7659411782724 kcal/mol)

>  <smiles>  (81) 
CS(=O)(=O)Nc1cccc(NC(=O)Nc2ccc(F)cc2)c1

>  <score_type>  (81) 
oracle

>  <origin>  (81) 
adg

>  <m_score__min__energy>  (81) 
-11.970000000000001

>  <m_primary>  (81) 
energy

$$$$
81:0
     RDKit          3D

 55 56  0  0  1  0  0  0  0  0999 V2000
   57.3330   26.9600   45.8120 C   0  0  0  0  0  0  0  0  0  0  0  0
   57.9520   27.2870   44.6660 C   0  0  0  0  0  0  0  0  0  0  0  0
   58.7420   28.5450   44.5270 C   0  0  0  0  0  0  0  0  0  0  0  0
   57.9830   29.6410   45.0760 N   0  0  0  0  0  0  0  0  0  0  0  0
   58.3770   30.3640   46.2340 C   0  0  0  0  0  0  0  0  0  0  0  0
   58.9650   29.7170   47.2780 C   0  0  0  0  0  0  0  0  0  0  0  0
   59.3590   30.4070   48.4240 C   0  0  0  0  0  0  0  0  0  0  0  0
   59.9140   29.7890   49.4050 N   0  0  0  0  0  0  0  0  0  0  0  0
   60.8490   30.4170   50.2840 C   0  0  0  0  0  0  0  0  0  0  0  0
   60.1850   31.2310   51.3690 C   0  0  0  0  0  0  0  0  0  0  0  0
   59.8740   32.5040   50.9400 O   0  0  0  0  0  0  0  0  0  0  0  0
   58.8800   33.1280   51.6380 C   0  0  0  0  0  0  0  0  0  0  0  0
   59.1390   31.7230   48.4620 N   0  0  0  0  0  0  0  0  0  0  0  0
   58.5600   32.3910   47.4450 C   0  0  0  0  0  0  0  0  0  0  0  0
   58.3610   33.6550   47.5050 N   0  0  0  0  0  0  0  0  0  0  0  0
   59.2340   34.5750   46.8030 C   0  0  0  0  0  0  0  0  0  0  0  0
   60.6180   34.2320   47.2860 C   0  0  0  0  0  0  0  0  0  0  0  0
   61.5850   33.8180   46.3730 C   0  0  0  0  0  0  0  0  0  0  0  0
   62.8690   33.4900   46.7500 C   0  0  0  0  0  0  0  0  0  0  0  0
   63.2040   33.5760   48.0850 C   0  0  0  0  0  0  0  0  0  0  0  0
   62.2630   33.9820   49.0090 C   0  0  0  0  0  0  0  0  0  0  0  0
   62.6610   34.0640   50.4510 C   0  0  0  0  0  0  0  0  0  0  0  0
   60.9870   34.3030   48.5960 C   0  0  0  0  0  0  0  0  0  0  0  0
   58.1880   31.6900   46.3420 N   0  0  0  0  0  0  0  0  0  0  0  0
   56.5020   30.1180   44.2940 S   0  0  0  0  0  0  0  0  0  0  0  0
   56.5790   29.7570   42.5740 C   0  0  0  0  0  0  0  0  0  0  0  0
   55.3440   29.3460   44.8880 O   0  0  0  0  0  0  0  0  0  0  0  0
   56.2750   31.6000   44.4930 O   0  0  0  0  0  0  0  0  0  0  0  0
   56.7588   26.0242   45.8793 H   0  0  0  0  0  0  0  0  0  0  0  0
   57.4002   27.6280   46.6834 H   0  0  0  0  0  0  0  0  0  0  0  0
   57.8743   26.6074   43.8045 H   0  0  0  0  0  0  0  0  0  0  0  0
   59.6923   28.4454   45.0719 H   0  0  0  0  0  0  0  0  0  0  0  0
   58.9525   28.7352   43.4642 H   0  0  0  0  0  0  0  0  0  0  0  0
   59.1321   28.6315   47.2163 H   0  0  0  0  0  0  0  0  0  0  0  0
   61.4633   29.6369   50.7574 H   0  0  0  0  0  0  0  0  0  0  0  0
   61.4556   31.1075   49.6797 H   0  0  0  0  0  0  0  0  0  0  0  0
   59.2591   30.7237   51.6777 H   0  0  0  0  0  0  0  0  0  0  0  0
   60.8894   31.3173   52.2095 H   0  0  0  0  0  0  0  0  0  0  0  0
   59.0621   33.0137   52.7168 H   0  0  0  0  0  0  0  0  0  0  0  0
   58.8661   34.1972   51.3797 H   0  0  0  0  0  0  0  0  0  0  0  0
   57.9111   32.6758   51.3797 H   0  0  0  0  0  0  0  0  0  0  0  0
   59.4150   32.2610   49.2850 H   0  0  0  0  0  0  0  0  0  0  0  0
   59.1558   34.4306   45.7153 H   0  0  0  0  0  0  0  0  0  0  0  0
   58.9739   35.6260   46.9973 H   0  0  0  0  0  0  0  0  0  0  0  0
   61.3129   33.7503   45.3093 H   0  0  0  0  0  0  0  0  0  0  0  0
   63.6096   33.1671   46.0035 H   0  0  0  0  0  0  0  0  0  0  0  0
   64.2223   33.3207   48.4136 H   0  0  0  0  0  0  0  0  0  0  0  0
   61.7807   33.8826   51.0852 H   0  0  0  0  0  0  0  0  0  0  0  0
   63.4285   33.3051   50.6633 H   0  0  0  0  0  0  0  0  0  0  0  0
   63.0660   35.0645   50.6633 H   0  0  0  0  0  0  0  0  0  0  0  0
   60.2473   34.6249   49.3438 H   0  0  0  0  0  0  0  0  0  0  0  0
   57.7470   32.2410   45.5870 H   0  0  0  0  0  0  0  0  0  0  0  0
   56.8066   28.6901   42.4331 H   0  0  0  0  0  0  0  0  0  0  0  0
   55.6109   29.9902   42.1067 H   0  0  0  0  0  0  0  0  0  0  0  0
   57.3677   30.3650   42.1067 H   0  0  0  0  0  0  0  0  0  0  0  0
  1  2  2  0
  2  3  1  0
  3  4  1  0
  4  5  1  0
  5  6  2  0
  6  7  1  0
  7  8  2  0
  8  9  1  0
  9 10  1  0
 10 11  1  0
 11 12  1  0
  7 13  1  0
 13 14  1  0
 14 15  2  0
 15 16  1  0
 16 17  1  0
 17 18  2  0
 18 19  1  0
 19 20  2  0
 20 21  1  0
 21 22  1  0
 21 23  2  0
 14 24  1  0
  4 25  1  0
 25 26  1  0
 25 27  2  0
 25 28  2  0
 24  5  1  0
 23 17  1  0
  1 29  1  0
  1 30  1  0
  2 31  1  0
  3 32  1  0
  3 33  1  0
  6 34  1  0
  9 35  1  0
  9 36  1  0
 10 37  1  0
 10 38  1  0
 12 39  1  0
 12 40  1  0
 12 41  1  0
 13 42  1  0
 16 43  1  0
 16 44  1  0
 18 45  1  0
 19 46  1  0
 20 47  1  0
 22 48  1  0
 22 49  1  0
 22 50  1  0
 23 51  1  0
 24 52  1  0
 26 53  1  0
 26 54  1  0
 26 55  1  0
M  END
>  <smiles>  (82) 
C=CCN(c1cc(=NCCOC)[nH]c(=NCc2cccc(C)c2)[nH]1)S(C)(=O)=O

>  <score_type>  (82) 
oracle

>  <origin>  (82) 
adg

>  <m_score__min__energy>  (82) 
-7.6100000000000003

>  <m_primary>  (82) 
energy

$$$$
82:0
     RDKit          3D

 37 40  0  0  0  0  0  0  0  0999 V2000
   55.9600   29.6140   44.0410 O   0  0  0  0  0  0  0  0  0  0  0  0
   56.7210   29.0790   44.8890 C   0  0  0  0  0  0  0  0  0  0  0  0
   56.5820   27.7830   45.1490 O   0  0  0  0  0  0  0  0  0  0  0  0
   57.3210   27.1370   46.0490 C   0  0  0  0  0  0  0  0  0  0  0  0
   57.1270   25.7560   46.2720 C   0  0  0  0  0  0  0  0  0  0  0  0
   56.0840   25.0210   45.5150 C   0  0  0  0  0  0  0  0  0  0  0  0
   56.4160   24.2310   44.4020 C   0  0  0  0  0  0  0  0  0  0  0  0
   55.4050   23.5650   43.7080 C   0  0  0  0  0  0  0  0  0  0  0  0
   55.7100   22.7990   42.6310 F   0  0  0  0  0  0  0  0  0  0  0  0
   54.0770   23.6920   44.1210 C   0  0  0  0  0  0  0  0  0  0  0  0
   53.7800   24.4930   45.2250 C   0  0  0  0  0  0  0  0  0  0  0  0
   52.4970   24.6340   45.6360 F   0  0  0  0  0  0  0  0  0  0  0  0
   54.7780   25.1340   45.8890 N   0  0  0  0  0  0  0  0  0  0  0  0
   57.9220   25.0970   47.2350 C   0  0  0  0  0  0  0  0  0  0  0  0
   57.7290   23.7490   47.5160 O   0  0  0  0  0  0  0  0  0  0  0  0
   58.9020   25.8010   47.9420 C   0  0  0  0  0  0  0  0  0  0  0  0
   59.0980   27.1630   47.7150 C   0  0  0  0  0  0  0  0  0  0  0  0
   58.3090   27.8360   46.7750 C   0  0  0  0  0  0  0  0  0  0  0  0
   58.4840   29.2000   46.5280 C   0  0  0  0  0  0  0  0  0  0  0  0
   57.6900   29.8440   45.5690 C   0  0  0  0  0  0  0  0  0  0  0  0
   57.8820   31.2920   45.2980 C   0  0  0  0  0  0  0  0  0  0  0  0
   58.0090   32.2010   46.3620 C   0  0  0  0  0  0  0  0  0  0  0  0
   58.1980   33.5630   46.1100 C   0  0  0  0  0  0  0  0  0  0  0  0
   58.2690   34.0320   44.7920 C   0  0  0  0  0  0  0  0  0  0  0  0
   58.4570   35.3870   44.5280 O   0  0  0  0  0  0  0  0  0  0  0  0
   58.1510   33.1320   43.7280 C   0  0  0  0  0  0  0  0  0  0  0  0
   57.9610   31.7690   43.9770 C   0  0  0  0  0  0  0  0  0  0  0  0
   57.4638   24.1381   44.0803 H   0  0  0  0  0  0  0  0  0  0  0  0
   53.2743   23.1669   43.5826 H   0  0  0  0  0  0  0  0  0  0  0  0
   59.5231   25.2764   48.6829 H   0  0  0  0  0  0  0  0  0  0  0  0
   59.8724   27.7082   48.2745 H   0  0  0  0  0  0  0  0  0  0  0  0
   59.2437   29.7677   47.0853 H   0  0  0  0  0  0  0  0  0  0  0  0
   57.9594   31.8387   47.3994 H   0  0  0  0  0  0  0  0  0  0  0  0
   58.2912   34.2683   46.9490 H   0  0  0  0  0  0  0  0  0  0  0  0
   59.3540   35.8360   44.6740 H   0  0  0  0  0  0  0  0  0  0  0  0
   58.2078   33.4974   42.6920 H   0  0  0  0  0  0  0  0  0  0  0  0
   57.8729   31.0662   43.1354 H   0  0  0  0  0  0  0  0  0  0  0  0
  1  2  2  0
  2  3  1  0
  3  4  1  0
  4  5  2  0
  5  6  1  0
  6  7  2  0
  7  8  1  0
  8  9  1  0
  8 10  2  0
 10 11  1  0
 11 12  1  0
 11 13  2  0
  5 14  1  0
 14 15  1  0
 14 16  2  0
 16 17  1  0
 17 18  2  0
 18 19  1  0
 19 20  2  0
 20 21  1  0
 21 22  2  0
 22 23  1  0
 23 24  2  0
 24 25  1  0
 24 26  1  0
 26 27  2  0
 20  2  1  0
 27 21  1  0
 18  4  1  0
 13  6  1  0
  7 28  1  0
 10 29  1  0
 16 30  1  0
 17 31  1  0
 19 32  1  0
 22 33  1  0
 23 34  1  0
 25 35  1  0
 26 36  1  0
 27 37  1  0
M  CHG  1  15  -1
M  END
>  <UniqueID>  (83) 
70

>  <SMILES>  (83) 
O=c1oc2c(-c3cc(F)cc(F)n3)c([O-])ccc2cc1-c1ccc(O)cc1

>  <Energy>  (83) 
60.20669168812853

>  <Genealogy>  (83) 
O=c1oc2c(-c3cc(F)cc(F)n3)c([O-])ccc2cc1-c1ccc(O)cc1 (protonated)
O=c1oc2c(-c3cc(F)cc(F)n3)c([O-])ccc2cc1-c1ccc(O)cc1 (3D coordinates assigned)
O=c1oc2c(-c3cc(F)cc(F)n3)c([O-])ccc2cc1-c1ccc(O)cc1 (optimized conformer: 60.20669168812853 kcal/mol)

>  <smiles>  (83) 
O=c1oc2c(-c3cc(F)cc(F)n3)c(O)ccc2cc1-c1ccc(O)cc1

>  <score_type>  (83) 
oracle

>  <origin>  (83) 
adg

>  <m_score__min__energy>  (83) 
-9.4600000000000009

>  <m_primary>  (83) 
energy

$$$$
83:0
     RDKit          3D

 59 62  0  0  0  0  0  0  0  0999 V2000
   56.7050   20.2740   42.3050 H   0  0  0  0  0  0  0  0  0  0  0  0
   56.4430   21.0220   42.9820 N   0  0  0  0  0  0  0  0  0  0  0  0
   56.9310   21.0920   44.1820 C   0  0  0  0  0  0  0  0  0  0  0  0
   57.3890   22.3870   44.7450 C   0  0  0  0  0  0  0  0  0  0  0  0
   56.4690   23.4250   44.9720 C   0  0  0  0  0  0  0  0  0  0  0  0
   55.4066   23.2752   44.7295 H   0  0  0  0  0  0  0  0  0  0  0  0
   56.8930   24.6450   45.5030 C   0  0  0  0  0  0  0  0  0  0  0  0
   56.1598   25.4443   45.6862 H   0  0  0  0  0  0  0  0  0  0  0  0
   58.2470   24.8600   45.8050 C   0  0  0  0  0  0  0  0  0  0  0  0
   58.7000   26.1790   46.4000 C   0  0  0  0  0  0  0  0  0  0  0  0
   58.1052   26.3679   47.3058 H   0  0  0  0  0  0  0  0  0  0  0  0
   59.7764   26.0742   46.6012 H   0  0  0  0  0  0  0  0  0  0  0  0
   58.5560   27.3470   45.5030 N   0  0  0  0  0  0  0  0  0  0  0  0
   58.6120   27.0590   44.0660 C   0  0  0  0  0  0  0  0  0  0  0  0
   59.6509   27.1177   43.7094 H   0  0  0  0  0  0  0  0  0  0  0  0
   58.2386   26.0462   43.8543 H   0  0  0  0  0  0  0  0  0  0  0  0
   57.7560   28.1130   43.3640 C   0  0  0  0  0  0  0  0  0  0  0  0
   58.3610   28.6805   42.6416 H   0  0  0  0  0  0  0  0  0  0  0  0
   56.9282   27.6571   42.8010 H   0  0  0  0  0  0  0  0  0  0  0  0
   57.2480   29.0320   44.4730 C   0  0  2  0  0  0  0  0  0  0  0  0
   56.2248   29.3917   44.2895 H   0  0  0  0  0  0  0  0  0  0  0  0
   58.0960   30.2230   44.5910 N   0  0  0  0  0  0  0  0  0  0  0  0
   59.1330   30.0900   44.6350 H   0  0  0  0  0  0  0  0  0  0  0  0
   57.5520   31.5220   44.8780 C   0  0  0  0  0  0  0  0  0  0  0  0
   56.3120   31.7220   44.7620 O   0  0  0  0  0  0  0  0  0  0  0  0
   58.4370   32.6170   45.3260 C   0  0  0  0  0  0  0  0  0  0  0  0
   59.5600   32.3200   46.0330 N   0  0  0  0  0  0  0  0  0  0  0  0
   60.4040   33.2700   46.5200 C   0  0  0  0  0  0  0  0  0  0  0  0
   61.6030   32.8520   47.2970 C   0  0  0  0  0  0  0  0  0  0  0  0
   62.8340   33.5090   47.1040 C   0  0  0  0  0  0  0  0  0  0  0  0
   62.8998   34.3432   46.3900 H   0  0  0  0  0  0  0  0  0  0  0  0
   63.9720   33.1120   47.8100 C   0  0  0  0  0  0  0  0  0  0  0  0
   64.9257   33.6376   47.6547 H   0  0  0  0  0  0  0  0  0  0  0  0
   63.9010   32.0520   48.7100 C   0  0  0  0  0  0  0  0  0  0  0  0
   64.7992   31.7412   49.2638 H   0  0  0  0  0  0  0  0  0  0  0  0
   62.6930   31.3830   48.9110 C   0  0  0  0  0  0  0  0  0  0  0  0
   62.6457   30.5442   49.6210 H   0  0  0  0  0  0  0  0  0  0  0  0
   61.5330   31.7730   48.2120 C   0  0  0  0  0  0  0  0  0  0  0  0
   60.3040   31.1210   48.4130 O   0  0  0  0  0  0  0  0  0  0  0  0
   60.0100   29.7900   48.0020 C   0  0  0  0  0  0  0  0  0  0  0  0
   59.8697   29.1549   48.8891 H   0  0  0  0  0  0  0  0  0  0  0  0
   59.0896   29.7871   47.3997 H   0  0  0  0  0  0  0  0  0  0  0  0
   60.8436   29.3997   47.3997 H   0  0  0  0  0  0  0  0  0  0  0  0
   60.1100   34.6240   46.2850 C   0  0  0  0  0  0  0  0  0  0  0  0
   60.7733   35.4108   46.6737 H   0  0  0  0  0  0  0  0  0  0  0  0
   58.9690   34.9630   45.5540 C   0  0  0  0  0  0  0  0  0  0  0  0
   58.7348   36.0199   45.3590 H   0  0  0  0  0  0  0  0  0  0  0  0
   58.1260   33.9610   45.0710 C   0  0  0  0  0  0  0  0  0  0  0  0
   57.2258   34.2228   44.4955 H   0  0  0  0  0  0  0  0  0  0  0  0
   57.3760   28.1820   45.7240 C   0  0  0  0  0  0  0  0  0  0  0  0
   57.5149   28.8188   46.6101 H   0  0  0  0  0  0  0  0  0  0  0  0
   56.4741   27.5786   45.9043 H   0  0  0  0  0  0  0  0  0  0  0  0
   59.1630   23.8150   45.6060 C   0  0  0  0  0  0  0  0  0  0  0  0
   60.2212   23.9588   45.8698 H   0  0  0  0  0  0  0  0  0  0  0  0
   58.7400   22.5930   45.0750 C   0  0  0  0  0  0  0  0  0  0  0  0
   59.4701   21.7861   44.9141 H   0  0  0  0  0  0  0  0  0  0  0  0
   57.0150   19.8970   44.9630 N   0  0  0  0  0  0  0  0  0  0  0  0
   56.6540   18.9930   44.5840 H   0  0  0  0  0  0  0  0  0  0  0  0
   57.4780   19.8920   45.8980 H   0  0  0  0  0  0  0  0  0  0  0  0
  1  2  1  0
  2  3  2  0
  3  4  1  0
  4  5  2  0
  5  6  1  0
  5  7  1  0
  7  8  1  0
  7  9  2  0
  9 10  1  0
 10 11  1  0
 10 12  1  0
 10 13  1  0
 13 14  1  0
 14 15  1  0
 14 16  1  0
 14 17  1  0
 17 18  1  0
 17 19  1  0
 17 20  1  0
 20 21  1  6
 20 22  1  0
 22 23  1  0
 22 24  1  0
 24 25  2  0
 24 26  1  0
 26 27  2  0
 27 28  1  0
 28 29  1  0
 29 30  2  0
 30 31  1  0
 30 32  1  0
 32 33  1  0
 32 34  2  0
 34 35  1  0
 34 36  1  0
 36 37  1  0
 36 38  2  0
 38 39  1  0
 39 40  1  0
 40 41  1  0
 40 42  1  0
 40 43  1  0
 28 44  2  0
 44 45  1  0
 44 46  1  0
 46 47  1  0
 46 48  2  0
 48 49  1  0
 20 50  1  0
 50 51  1  0
 50 52  1  0
  9 53  1  0
 53 54  1  0
 53 55  2  0
 55 56  1  0
  3 57  1  0
 57 58  1  0
 57 59  1  0
 55  4  1  0
 50 13  1  0
 48 26  1  0
 38 29  1  0
M  END
>  <UniqueID>  (84) 
71

>  <SMILES>  (84) 
[H]/N=C(/N)c1ccc(CN2CC[C@H](NC(=O)c3cccc(-c4ccccc4OC)n3)C2)cc1

>  <Energy>  (84) 
75.91059746485548

>  <Genealogy>  (84) 
COc1ccccc1-c1cccc(C(=O)N[C@H]2CCN(Cc3ccc(C(=N)N)cc3)C2)n1 (chirality)
[H]/N=C(/N)c1ccc(CN2CC[C@H](NC(=O)c3cccc(-c4ccccc4OC)n3)C2)cc1 (cis-trans isomerization)
[H]/N=C(/N)c1ccc(CN2CC[C@H](NC(=O)c3cccc(-c4ccccc4OC)n3)C2)cc1 (3D coordinates assigned)
[H]/N=C(/N)c1ccc(CN2CC[C@H](NC(=O)c3cccc(-c4ccccc4OC)n3)C2)cc1 (nonaromatic ring conformer: 75.91059746485548 kcal/mol)

>  <smiles>  (84) 
COc1ccccc1-c1cccc(C(=O)NC2CCN(Cc3ccc(C(=N)N)cc3)C2)n1

>  <score_type>  (84) 
oracle

>  <origin>  (84) 
adg

>  <m_score__min__energy>  (84) 
-9.3100000000000005

>  <m_primary>  (84) 
energy

$$$$
84:0
     RDKit          3D

 68 72  0  0  1  0  0  0  0  0999 V2000
   63.6850   34.3530   55.6770 C   0  0  0  0  0  0  0  0  0  0  0  0
   62.3920   34.0770   55.1970 O   0  0  0  0  0  0  0  0  0  0  0  0
   62.1060   33.7590   53.8930 C   0  0  0  0  0  0  0  0  0  0  0  0
   60.8680   33.3350   53.5600 C   0  0  0  0  0  0  0  0  0  0  0  0
   60.5620   33.0070   52.2300 C   0  0  0  0  0  0  0  0  0  0  0  0
   61.4840   33.0970   51.2160 C   0  0  0  0  0  0  0  0  0  0  0  0
   61.3430   32.8270   49.9230 O   0  0  0  0  0  0  0  0  0  0  0  0
   60.6130   33.1440   48.8620 C   0  0  0  0  0  0  0  0  0  0  0  0
   60.1200   34.3700   48.4780 C   0  0  0  0  0  0  0  0  0  0  0  0
   59.3630   34.5700   47.3370 C   0  0  0  0  0  0  0  0  0  0  0  0
   59.0600   33.5170   46.5120 C   0  0  0  0  0  0  0  0  0  0  0  0
   58.1210   33.8480   45.0790 S   0  0  0  0  0  0  0  0  0  0  0  0
   58.3100   35.2490   44.5610 O   0  0  0  0  0  0  0  0  0  0  0  0
   56.6450   33.8470   45.5030 O   0  0  0  0  0  0  0  0  0  0  0  0
   58.2140   32.6370   43.8880 N   0  0  0  0  0  0  0  0  0  0  0  0
   57.5870   31.5270   43.9350 C   0  0  0  0  0  0  0  0  0  0  0  0
   57.0290   30.9890   42.8180 C   0  0  0  0  0  0  0  0  0  0  0  0
   56.3580   29.7890   42.9090 C   0  0  0  0  0  0  0  0  0  0  0  0
   56.2640   29.1680   44.1010 N   0  0  0  0  0  0  0  0  0  0  0  0
   56.8260   29.7240   45.1970 C   0  0  0  0  0  0  0  0  0  0  0  0
   57.4840   30.8910   45.1240 N   0  0  0  0  0  0  0  0  0  0  0  0
   59.5300   32.2800   46.8570 C   0  0  0  0  0  0  0  0  0  0  0  0
   60.2800   32.0830   47.9860 C   0  0  0  0  0  0  0  0  0  0  0  0
   60.7180   30.7400   48.2510 C   0  0  0  0  0  0  0  0  0  0  0  0
   61.0600   29.6460   48.4590 N   0  0  0  0  0  0  0  0  0  0  0  0
   62.7620   33.5460   51.6230 C   0  0  0  0  0  0  0  0  0  0  0  0
   63.8700   33.7030   50.6250 C   0  0  0  0  0  0  0  0  0  0  0  0
   64.0750   32.5200   49.7630 C   0  0  0  0  0  0  0  0  0  0  0  0
   65.1250   31.5540   50.1280 C   0  0  0  0  0  0  0  0  0  0  0  0
   66.0080   31.9330   51.1780 N   0  0  0  0  0  0  0  0  0  0  0  0
   66.7730   30.9470   51.8900 C   0  0  0  0  0  0  0  0  0  0  0  0
   67.5640   31.2740   52.8330 O   0  0  0  0  0  0  0  0  0  0  0  0
   66.7020   29.5250   51.5930 C   0  0  0  0  0  0  0  0  0  0  0  0
   65.6660   28.8110   52.1940 C   0  0  0  0  0  0  0  0  0  0  0  0
   65.5030   27.4520   51.9900 C   0  0  0  0  0  0  0  0  0  0  0  0
   66.4100   26.7920   51.1580 C   0  0  0  0  0  0  0  0  0  0  0  0
   67.4460   27.5070   50.5560 C   0  0  0  0  0  0  0  0  0  0  0  0
   67.5910   28.8670   50.7740 C   0  0  0  0  0  0  0  0  0  0  0  0
   66.1880   33.2990   51.5760 C   0  0  0  0  0  0  0  0  0  0  0  0
   65.0980   34.2460   51.2710 C   0  0  0  0  0  0  0  0  0  0  0  0
   63.0590   33.8640   52.9140 C   0  0  0  0  0  0  0  0  0  0  0  0
   63.6759   34.3511   56.7770 H   0  0  0  0  0  0  0  0  0  0  0  0
   64.3826   33.5835   55.3147 H   0  0  0  0  0  0  0  0  0  0  0  0
   64.0076   35.3402   55.3147 H   0  0  0  0  0  0  0  0  0  0  0  0
   60.0939   33.2460   54.3364 H   0  0  0  0  0  0  0  0  0  0  0  0
   59.5444   32.6646   51.9905 H   0  0  0  0  0  0  0  0  0  0  0  0
   60.3401   35.2402   49.1139 H   0  0  0  0  0  0  0  0  0  0  0  0
   59.0021   35.5794   47.0902 H   0  0  0  0  0  0  0  0  0  0  0  0
   57.1124   31.5067   41.8510 H   0  0  0  0  0  0  0  0  0  0  0  0
   55.9019   29.3408   42.0140 H   0  0  0  0  0  0  0  0  0  0  0  0
   55.7570   28.2670   44.1630 H   0  0  0  0  0  0  0  0  0  0  0  0
   56.7425   29.2107   46.1663 H   0  0  0  0  0  0  0  0  0  0  0  0
   59.2996   31.4203   46.2106 H   0  0  0  0  0  0  0  0  0  0  0  0
   63.5543   34.4653   49.8976 H   0  0  0  0  0  0  0  0  0  0  0  0
   63.1231   31.9694   49.7367 H   0  0  0  0  0  0  0  0  0  0  0  0
   64.4197   32.9417   48.8073 H   0  0  0  0  0  0  0  0  0  0  0  0
   64.6279   30.6209   50.4316 H   0  0  0  0  0  0  0  0  0  0  0  0
   65.7604   31.4677   49.2342 H   0  0  0  0  0  0  0  0  0  0  0  0
   64.9591   29.3424   52.8481 H   0  0  0  0  0  0  0  0  0  0  0  0
   64.6791   26.9049   52.4715 H   0  0  0  0  0  0  0  0  0  0  0  0
   66.3080   25.7117   50.9778 H   0  0  0  0  0  0  0  0  0  0  0  0
   68.1569   26.9836   49.8997 H   0  0  0  0  0  0  0  0  0  0  0  0
   68.4131   29.4188   50.2947 H   0  0  0  0  0  0  0  0  0  0  0  0
   66.3371   33.3079   52.6658 H   0  0  0  0  0  0  0  0  0  0  0  0
   67.0428   33.6541   50.9817 H   0  0  0  0  0  0  0  0  0  0  0  0
   64.7920   34.7114   52.2196 H   0  0  0  0  0  0  0  0  0  0  0  0
   65.5255   34.9312   50.5242 H   0  0  0  0  0  0  0  0  0  0  0  0
   64.0715   34.2076   53.1724 H   0  0  0  0  0  0  0  0  0  0  0  0
  1  2  1  0
  2  3  1  0
  3  4  2  0
  4  5  1  0
  5  6  2  0
  6  7  1  0
  7  8  1  0
  8  9  2  0
  9 10  1  0
 10 11  2  0
 11 12  1  0
 12 13  2  0
 12 14  2  0
 12 15  1  0
 15 16  2  0
 16 17  1  0
 17 18  2  0
 18 19  1  0
 19 20  1  0
 20 21  2  0
 11 22  1  0
 22 23  2  0
 23 24  1  0
 24 25  3  0
  6 26  1  0
 26 27  1  0
 27 28  1  0
 28 29  1  0
 29 30  1  0
 30 31  1  0
 31 32  2  0
 31 33  1  0
 33 34  2  0
 34 35  1  0
 35 36  2  0
 36 37  1  0
 37 38  2  0
 30 39  1  0
 39 40  1  0
 26 41  2  0
 41  3  1  0
 23  8  1  0
 40 27  1  0
 21 16  1  0
 38 33  1  0
  1 42  1  0
  1 43  1  0
  1 44  1  0
  4 45  1  0
  5 46  1  0
  9 47  1  0
 10 48  1  0
 17 49  1  0
 18 50  1  0
 19 51  1  0
 20 52  1  0
 22 53  1  0
 27 54  1  0
 28 55  1  0
 28 56  1  0
 29 57  1  0
 29 58  1  0
 34 59  1  0
 35 60  1  0
 36 61  1  0
 37 62  1  0
 38 63  1  0
 39 64  1  0
 39 65  1  0
 40 66  1  0
 40 67  1  0
 41 68  1  0
M  END
>  <smiles>  (85) 
COc1ccc(Oc2ccc(S(=O)(=O)N=c3cc[nH]cn3)cc2C#N)c(C2CCN(C(=O)c3ccccc3)CC2)c1

>  <score_type>  (85) 
oracle

>  <origin>  (85) 
adg

>  <m_score__min__energy>  (85) 
-10.99

>  <m_primary>  (85) 
energy

$$$$
85:0
     RDKit          3D

 39 41  0  0  0  0  0  0  0  0999 V2000
   56.7700   32.0140   44.8420 C   0  0  0  0  0  0  0  0  0  0  0  0
   57.7600   30.9920   45.2240 N   0  0  0  0  0  0  0  0  0  0  0  0
   58.8860   31.3230   45.9410 C   0  0  0  0  0  0  0  0  0  0  0  0
   59.1180   32.6710   46.3700 N   0  0  0  0  0  0  0  0  0  0  0  0
   58.6150   33.0790   47.6820 C   0  0  0  0  0  0  0  0  0  0  0  0
   59.3080   34.3750   48.1210 C   0  0  0  0  0  0  0  0  0  0  0  0
   59.2160   35.3620   47.1110 O   0  0  0  0  0  0  0  0  0  0  0  0
   59.9370   34.9440   45.9670 C   0  0  0  0  0  0  0  0  0  0  0  0
   59.2930   33.7010   45.3470 C   0  0  0  0  0  0  0  0  0  0  0  0
   59.8060   30.3680   46.2510 N   0  0  0  0  0  0  0  0  0  0  0  0
   59.6370   29.0780   45.8750 C   0  0  0  0  0  0  0  0  0  0  0  0
   58.5020   28.7030   45.1590 C   0  0  0  0  0  0  0  0  0  0  0  0
   58.3070   27.2910   44.7670 C   0  0  0  0  0  0  0  0  0  0  0  0
   58.0730   27.0160   43.5600 O   0  0  0  0  0  0  0  0  0  0  0  0
   58.3650   26.2230   45.7230 N   0  0  0  0  0  0  0  0  0  0  0  0
   57.4390   26.0300   46.8390 C   0  0  0  0  0  0  0  0  0  0  0  0
   56.0730   25.6950   46.3320 C   0  0  0  0  0  0  0  0  0  0  0  0
   55.1590   26.6210   45.9790 N   0  0  0  0  0  0  0  0  0  0  0  0
   54.0680   25.9620   45.6230 N   0  0  0  0  0  0  0  0  0  0  0  0
   54.3580   24.6580   45.7750 C   0  0  0  0  0  0  0  0  0  0  0  0
   53.5420   23.7380   45.5230 O   0  0  0  0  0  0  0  0  0  0  0  0
   55.6080   24.4330   46.2200 N   0  0  0  0  0  0  0  0  0  0  0  0
   57.5680   29.6950   44.8230 C   0  0  0  0  0  0  0  0  0  0  0  0
   56.5410   29.3800   44.1580 O   0  0  0  0  0  0  0  0  0  0  0  0
   56.3365   32.4615   45.7486 H   0  0  0  0  0  0  0  0  0  0  0  0
   57.2623   32.7967   44.2461 H   0  0  0  0  0  0  0  0  0  0  0  0
   55.9721   31.5469   44.2461 H   0  0  0  0  0  0  0  0  0  0  0  0
   57.5296   33.2471   47.6214 H   0  0  0  0  0  0  0  0  0  0  0  0
   58.8256   32.2867   48.4154 H   0  0  0  0  0  0  0  0  0  0  0  0
   58.8258   34.7495   49.0360 H   0  0  0  0  0  0  0  0  0  0  0  0
   60.3705   34.1604   48.3080 H   0  0  0  0  0  0  0  0  0  0  0  0
   59.9411   35.7567   45.2257 H   0  0  0  0  0  0  0  0  0  0  0  0
   60.9659   34.6971   46.2676 H   0  0  0  0  0  0  0  0  0  0  0  0
   58.3122   33.9689   44.9270 H   0  0  0  0  0  0  0  0  0  0  0  0
   59.9445   33.3139   44.5497 H   0  0  0  0  0  0  0  0  0  0  0  0
   60.6610   30.6290   46.7940 H   0  0  0  0  0  0  0  0  0  0  0  0
   60.3963   28.3257   46.1350 H   0  0  0  0  0  0  0  0  0  0  0  0
   57.8020   25.2075   47.4728 H   0  0  0  0  0  0  0  0  0  0  0  0
   57.3844   26.9612   47.4219 H   0  0  0  0  0  0  0  0  0  0  0  0
  1  2  1  0
  2  3  1  0
  3  4  1  0
  4  5  1  0
  5  6  1  0
  6  7  1  0
  7  8  1  0
  8  9  1  0
  3 10  2  0
 10 11  1  0
 11 12  2  0
 12 13  1  0
 13 14  2  0
 13 15  1  0
 15 16  1  0
 16 17  1  0
 17 18  2  0
 18 19  1  0
 19 20  1  0
 20 21  2  0
 20 22  1  0
 12 23  1  0
 23 24  2  0
 23  2  1  0
  9  4  1  0
 22 17  1  0
  1 25  1  0
  1 26  1  0
  1 27  1  0
  5 28  1  0
  5 29  1  0
  6 30  1  0
  6 31  1  0
  8 32  1  0
  8 33  1  0
  9 34  1  0
  9 35  1  0
 10 36  1  0
 11 37  1  0
 16 38  1  0
 16 39  1  0
M  CHG  4  10   1  15  -1  19  -1  22  -1
M  END
>  <UniqueID>  (86) 
72

>  <SMILES>  (86) 
Cn1c(N2CCOCC2)[nH+]cc(C(=O)[N-]Cc2n[n-]c(=O)[n-]2)c1=O

>  <Energy>  (86) 
84.91843985694346

>  <Genealogy>  (86) 
Cn1c(N2CCOCC2)[nH+]cc(C(=O)[N-]Cc2n[n-]c(=O)[n-]2)c1=O (protonated)
Cn1c(N2CCOCC2)[nH+]cc(C(=O)[N-]Cc2n[n-]c(=O)[n-]2)c1=O (3D coordinates assigned)
Cn1c(N2CCOCC2)[nH+]cc(C(=O)[N-]Cc2n[n-]c(=O)[n-]2)c1=O (nonaromatic ring conformer: 84.91843985694346 kcal/mol)

>  <smiles>  (86) 
Cn1c(N2CCOCC2)ncc(C(=O)NCc2n[nH]c(=O)[nH]2)c1=O

>  <score_type>  (86) 
oracle

>  <origin>  (86) 
adg

>  <m_score__min__energy>  (86) 
-11.609999999999999

>  <m_primary>  (86) 
energy

$$$$
86:0
     RDKit          3D

 50 52  0  0  0  0  0  0  0  0999 V2000
   54.0540   23.3620   45.3540 C   0  0  0  0  0  0  0  0  0  0  0  0
   54.8040   24.6290   45.6060 C   0  0  0  0  0  0  0  0  0  0  0  0
   54.2040   25.8170   45.8100 N   0  0  0  0  0  0  0  0  0  0  0  0
   55.1460   26.6980   45.9770 O   0  0  0  0  0  0  0  0  0  0  0  0
   56.3360   26.1500   45.8960 C   0  0  0  0  0  0  0  0  0  0  0  0
   57.4210   26.8600   46.0280 N   0  0  0  0  0  0  0  0  0  0  0  0
   57.8240   28.3950   45.3290 S   0  0  0  0  0  0  0  0  0  0  0  0
   56.6170   29.2880   45.2700 O   0  0  0  0  0  0  0  0  0  0  0  0
   58.3950   28.2150   43.9500 O   0  0  0  0  0  0  0  0  0  0  0  0
   59.0460   29.1500   46.3450 C   0  0  0  0  0  0  0  0  0  0  0  0
   59.1500   28.8180   47.7020 C   0  0  0  0  0  0  0  0  0  0  0  0
   60.1130   29.4340   48.5040 C   0  0  0  0  0  0  0  0  0  0  0  0
   60.9830   30.3910   47.9670 C   0  0  0  0  0  0  0  0  0  0  0  0
   61.9220   31.0210   48.8520 N   0  0  0  0  0  0  0  0  0  0  0  0
   62.3240   32.3960   48.8950 C   0  0  0  0  0  0  0  0  0  0  0  0
   63.2380   32.8370   48.1500 O   0  0  0  0  0  0  0  0  0  0  0  0
   61.5720   33.3430   49.7760 C   0  0  0  0  0  0  0  0  0  0  0  0
   61.0930   34.5720   48.9960 C   0  0  0  0  0  0  0  0  0  0  0  0
   59.8520   34.2920   48.2750 N   0  0  0  0  0  0  0  0  0  0  0  0
   59.5030   34.7560   46.9620 C   0  0  0  0  0  0  0  0  0  0  0  0
   59.7430   35.9560   46.6660 O   0  0  0  0  0  0  0  0  0  0  0  0
   58.8670   33.8850   45.9500 C   0  0  0  0  0  0  0  0  0  0  0  0
   58.0640   32.8070   46.3600 C   0  0  0  0  0  0  0  0  0  0  0  0
   57.4900   31.9530   45.4150 C   0  0  0  0  0  0  0  0  0  0  0  0
   57.7250   32.1560   44.0520 C   0  0  0  0  0  0  0  0  0  0  0  0
   57.0130   31.0760   42.8670 Cl  0  0  0  0  0  0  0  0  0  0  0  0
   58.5370   33.2160   43.6350 C   0  0  0  0  0  0  0  0  0  0  0  0
   59.1130   34.0730   44.5790 C   0  0  0  0  0  0  0  0  0  0  0  0
   60.9110   30.6850   46.5930 C   0  0  0  0  0  0  0  0  0  0  0  0
   59.9430   30.0730   45.7920 C   0  0  0  0  0  0  0  0  0  0  0  0
   56.1830   24.7830   45.6580 C   0  0  0  0  0  0  0  0  0  0  0  0
   57.1960   23.7020   45.4200 C   0  0  0  0  0  0  0  0  0  0  0  0
   53.7808   22.9004   46.3144 H   0  0  0  0  0  0  0  0  0  0  0  0
   53.1416   23.5838   44.7810 H   0  0  0  0  0  0  0  0  0  0  0  0
   54.6873   22.6688   44.7810 H   0  0  0  0  0  0  0  0  0  0  0  0
   58.4711   28.0698   48.1371 H   0  0  0  0  0  0  0  0  0  0  0  0
   60.1889   29.1649   49.5679 H   0  0  0  0  0  0  0  0  0  0  0  0
   60.6985   32.8234   50.1967 H   0  0  0  0  0  0  0  0  0  0  0  0
   62.2471   33.6820   50.5756 H   0  0  0  0  0  0  0  0  0  0  0  0
   60.9195   35.3986   49.7007 H   0  0  0  0  0  0  0  0  0  0  0  0
   61.8675   34.8421   48.2631 H   0  0  0  0  0  0  0  0  0  0  0  0
   57.8863   32.6345   47.4318 H   0  0  0  0  0  0  0  0  0  0  0  0
   56.8521   31.1195   45.7440 H   0  0  0  0  0  0  0  0  0  0  0  0
   58.7230   33.3760   42.5627 H   0  0  0  0  0  0  0  0  0  0  0  0
   59.7611   34.8974   44.2468 H   0  0  0  0  0  0  0  0  0  0  0  0
   61.6192   31.3992   46.1476 H   0  0  0  0  0  0  0  0  0  0  0  0
   59.8851   30.3175   44.7211 H   0  0  0  0  0  0  0  0  0  0  0  0
   57.5560   23.3178   46.3858 H   0  0  0  0  0  0  0  0  0  0  0  0
   56.7319   22.8837   44.8499 H   0  0  0  0  0  0  0  0  0  0  0  0
   58.0427   24.1120   44.8499 H   0  0  0  0  0  0  0  0  0  0  0  0
  1  2  1  0
  2  3  1  0
  3  4  1  0
  4  5  1  0
  5  6  2  3
  6  7  1  0
  7  8  2  0
  7  9  2  0
  7 10  1  0
 10 11  2  0
 11 12  1  0
 12 13  2  0
 13 14  1  0
 14 15  1  0
 15 16  2  0
 15 17  1  0
 17 18  1  0
 18 19  1  0
 19 20  1  0
 20 21  2  0
 20 22  1  0
 22 23  2  0
 23 24  1  0
 24 25  2  0
 25 26  1  0
 25 27  1  0
 27 28  2  0
 13 29  1  0
 29 30  2  0
  5 31  1  0
 31 32  1  0
 31  2  2  0
 30 10  1  0
 28 22  1  0
  1 33  1  0
  1 34  1  0
  1 35  1  0
 11 36  1  0
 12 37  1  0
 17 38  1  0
 17 39  1  0
 18 40  1  0
 18 41  1  0
 23 42  1  0
 24 43  1  0
 27 44  1  0
 28 45  1  0
 29 46  1  0
 30 47  1  0
 32 48  1  0
 32 49  1  0
 32 50  1  0
M  CHG  3   3  -1  14  -1  19  -1
M  END
>  <UniqueID>  (87) 
73

>  <SMILES>  (87) 
Cc1[n-]oc(=NS(=O)(=O)c2ccc([N-]C(=O)CC[N-]C(=O)c3ccc(Cl)cc3)cc2)c1C

>  <Energy>  (87) 
92.63639563940683

>  <Genealogy>  (87) 
Cc1[n-]oc(=NS(=O)(=O)c2ccc([N-]C(=O)CC[N-]C(=O)c3ccc(Cl)cc3)cc2)c1C (protonated)
Cc1[n-]oc(=NS(=O)(=O)c2ccc([N-]C(=O)CC[N-]C(=O)c3ccc(Cl)cc3)cc2)c1C (3D coordinates assigned)
Cc1[n-]oc(=NS(=O)(=O)c2ccc([N-]C(=O)CC[N-]C(=O)c3ccc(Cl)cc3)cc2)c1C (optimized conformer: 92.63639563940683 kcal/mol)

>  <smiles>  (87) 
Cc1[nH]oc(=NS(=O)(=O)c2ccc(NC(=O)CCNC(=O)c3ccc(Cl)cc3)cc2)c1C

>  <score_type>  (87) 
oracle

>  <origin>  (87) 
adg

>  <m_score__min__energy>  (87) 
-14.16

>  <m_primary>  (87) 
energy

$$$$
87:0
     RDKit          3D

 14 14  0  0  0  0  0  0  0  0999 V2000
   51.0180   29.7110   48.5390 O   0  0  0  0  0  0  0  0  0  0  0  0
   52.0040   29.9840   49.2730 C   0  0  0  0  0  0  0  0  0  0  0  0
   51.8320   30.5520   50.6270 C   0  0  0  0  0  0  0  0  0  0  0  0
   52.1540   29.7540   51.7390 C   0  0  0  0  0  0  0  0  0  0  0  0
   52.0060   30.2500   53.0370 C   0  0  0  0  0  0  0  0  0  0  0  0
   51.5340   31.5490   53.2400 C   0  0  0  0  0  0  0  0  0  0  0  0
   51.2090   32.3530   52.1470 C   0  0  0  0  0  0  0  0  0  0  0  0
   51.3530   31.8640   50.8420 C   0  0  0  0  0  0  0  0  0  0  0  0
   51.0210   32.6930   49.7760 O   0  0  0  0  0  0  0  0  0  0  0  0
   53.0202   29.7949   48.8968 H   0  0  0  0  0  0  0  0  0  0  0  0
   52.5257   28.7301   51.5858 H   0  0  0  0  0  0  0  0  0  0  0  0
   52.2614   29.6170   53.8996 H   0  0  0  0  0  0  0  0  0  0  0  0
   51.4185   31.9383   54.2623 H   0  0  0  0  0  0  0  0  0  0  0  0
   50.8380   33.3755   52.3106 H   0  0  0  0  0  0  0  0  0  0  0  0
  1  2  2  0
  2  3  1  0
  3  4  2  0
  4  5  1  0
  5  6  2  0
  6  7  1  0
  7  8  2  0
  8  9  1  0
  8  3  1  0
  2 10  1  0
  4 11  1  0
  5 12  1  0
  6 13  1  0
  7 14  1  0
M  CHG  1   9  -1
M  END
>  <UniqueID>  (88) 
74

>  <SMILES>  (88) 
O=Cc1ccccc1[O-]

>  <Energy>  (88) 
14.092849957149383

>  <Genealogy>  (88) 
O=Cc1ccccc1[O-] (protonated)
O=Cc1ccccc1[O-] (3D coordinates assigned)
O=Cc1ccccc1[O-] (optimized conformer: 14.092849957149383 kcal/mol)

>  <smiles>  (88) 
O=Cc1ccccc1O

>  <score_type>  (88) 
oracle

>  <origin>  (88) 
adg

>  <m_score__min__energy>  (88) 
-9.0700000000000003

>  <m_primary>  (88) 
energy

$$$$
88:0
     RDKit          3D

 31 32  0  0  0  0  0  0  0  0999 V2000
   57.3850   31.8950   42.5550 O   0  0  0  0  0  0  0  0  0  0  0  0
   57.2160   31.3490   43.6780 C   0  0  0  0  0  0  0  0  0  0  0  0
   57.3400   29.8540   43.7980 C   0  0  0  0  0  0  0  0  0  0  0  0
   56.4640   29.3280   44.9030 C   0  0  0  0  0  0  0  0  0  0  0  0
   55.2260   29.5580   44.8670 O   0  0  0  0  0  0  0  0  0  0  0  0
   56.9880   28.5240   45.9680 N   0  0  0  0  0  0  0  0  0  0  0  0
   57.1770   27.1040   45.9360 C   0  0  0  0  0  0  0  0  0  0  0  0
   58.4750   26.5970   45.7950 C   0  0  0  0  0  0  0  0  0  0  0  0
   58.6970   25.2180   45.7460 C   0  0  0  0  0  0  0  0  0  0  0  0
   57.6170   24.3340   45.8200 C   0  0  0  0  0  0  0  0  0  0  0  0
   56.3150   24.8290   45.9280 C   0  0  0  0  0  0  0  0  0  0  0  0
   56.0870   26.2090   45.9710 C   0  0  0  0  0  0  0  0  0  0  0  0
   54.7790   26.6800   46.0210 O   0  0  0  0  0  0  0  0  0  0  0  0
   56.8770   32.1730   44.8010 N   0  0  0  0  0  0  0  0  0  0  0  0
   57.7420   33.1050   45.4650 C   0  0  0  0  0  0  0  0  0  0  0  0
   58.4170   34.0670   44.7010 C   0  0  0  0  0  0  0  0  0  0  0  0
   59.2910   34.9710   45.3150 C   0  0  0  0  0  0  0  0  0  0  0  0
   59.5080   34.9080   46.6940 C   0  0  0  0  0  0  0  0  0  0  0  0
   58.8600   33.9340   47.4590 C   0  0  0  0  0  0  0  0  0  0  0  0
   57.9870   33.0290   46.8480 C   0  0  0  0  0  0  0  0  0  0  0  0
   57.0376   29.3903   42.8474 H   0  0  0  0  0  0  0  0  0  0  0  0
   58.3860   29.6063   44.0315 H   0  0  0  0  0  0  0  0  0  0  0  0
   59.3264   27.2897   45.7222 H   0  0  0  0  0  0  0  0  0  0  0  0
   59.7212   24.8286   45.6492 H   0  0  0  0  0  0  0  0  0  0  0  0
   57.7921   23.2484   45.7932 H   0  0  0  0  0  0  0  0  0  0  0  0
   55.4660   24.1314   45.9794 H   0  0  0  0  0  0  0  0  0  0  0  0
   58.2589   34.1115   43.6133 H   0  0  0  0  0  0  0  0  0  0  0  0
   59.8077   35.7319   44.7116 H   0  0  0  0  0  0  0  0  0  0  0  0
   60.1884   35.6246   47.1773 H   0  0  0  0  0  0  0  0  0  0  0  0
   59.0372   33.8795   48.5433 H   0  0  0  0  0  0  0  0  0  0  0  0
   57.4900   32.2548   47.4509 H   0  0  0  0  0  0  0  0  0  0  0  0
  1  2  2  0
  2  3  1  0
  3  4  1  0
  4  5  2  0
  4  6  1  0
  6  7  1  0
  7  8  2  0
  8  9  1  0
  9 10  2  0
 10 11  1  0
 11 12  2  0
 12 13  1  0
  2 14  1  0
 14 15  1  0
 15 16  2  0
 16 17  1  0
 17 18  2  0
 18 19  1  0
 19 20  2  0
 12  7  1  0
 20 15  1  0
  3 21  1  0
  3 22  1  0
  8 23  1  0
  9 24  1  0
 10 25  1  0
 11 26  1  0
 16 27  1  0
 17 28  1  0
 18 29  1  0
 19 30  1  0
 20 31  1  0
M  CHG  3   6  -1  13  -1  14  -1
M  END
>  <UniqueID>  (89) 
75

>  <SMILES>  (89) 
O=C(CC(=O)[N-]c1ccccc1[O-])[N-]c1ccccc1

>  <Energy>  (89) 
42.04760640154094

>  <Genealogy>  (89) 
O=C(CC(=O)[N-]c1ccccc1[O-])[N-]c1ccccc1 (protonated)
O=C(CC(=O)[N-]c1ccccc1[O-])[N-]c1ccccc1 (3D coordinates assigned)
O=C(CC(=O)[N-]c1ccccc1[O-])[N-]c1ccccc1 (optimized conformer: 42.04760640154094 kcal/mol)

>  <smiles>  (89) 
O=C(CC(=O)Nc1ccccc1O)Nc1ccccc1

>  <score_type>  (89) 
oracle

>  <origin>  (89) 
adg

>  <m_score__min__energy>  (89) 
-14.74

>  <m_primary>  (89) 
energy

$$$$
89:0
     RDKit          3D

 58 62  0  0  0  0  0  0  0  0999 V2000
   58.3465   35.8310   44.2909 H   0  0  0  0  0  0  0  0  0  0  0  0
   58.6760   34.9700   44.8910 C   0  0  0  0  0  0  0  0  0  0  0  0
   59.9680   34.8770   45.2870 N   0  0  0  0  0  0  0  0  0  0  0  0
   60.3930   33.8890   46.1180 C   0  0  0  0  0  0  0  0  0  0  0  0
   61.7340   33.8600   46.5110 C   0  0  0  0  0  0  0  0  0  0  0  0
   62.4503   34.5684   46.0693 H   0  0  0  0  0  0  0  0  0  0  0  0
   62.1650   32.9390   47.4580 C   0  0  0  0  0  0  0  0  0  0  0  0
   63.2354   32.8557   47.6975 H   0  0  0  0  0  0  0  0  0  0  0  0
   61.2400   32.1210   48.1040 C   0  0  0  0  0  0  0  0  0  0  0  0
   61.5827   31.4272   48.8858 H   0  0  0  0  0  0  0  0  0  0  0  0
   59.8720   32.1700   47.7700 C   0  0  0  0  0  0  0  0  0  0  0  0
   58.9090   31.6130   48.8090 C   0  0  0  0  0  0  0  0  0  0  0  0
   59.4840   31.5080   50.0630 F   0  0  0  0  0  0  0  0  0  0  0  0
   58.5200   30.3390   48.4370 F   0  0  0  0  0  0  0  0  0  0  0  0
   57.7770   32.4020   48.8790 F   0  0  0  0  0  0  0  0  0  0  0  0
   59.4730   32.9270   46.6200 C   0  0  0  0  0  0  0  0  0  0  0  0
   58.1870   32.8760   45.9950 C   0  0  0  0  0  0  0  0  0  0  0  0
   57.4320   31.8120   45.9380 N   0  0  0  0  0  0  0  0  0  0  0  0
   57.0970   31.0160   44.7970 C   0  0  0  0  0  0  0  0  0  0  0  0
   56.7660   31.5660   43.7110 O   0  0  0  0  0  0  0  0  0  0  0  0
   57.1020   29.5910   44.9160 N   0  0  0  0  0  0  0  0  0  0  0  0
   58.1520   28.8390   45.5330 C   0  0  0  0  0  0  0  0  0  0  0  0
   59.3290   29.4910   45.9460 C   0  0  0  0  0  0  0  0  0  0  0  0
   59.4263   30.5781   45.8089 H   0  0  0  0  0  0  0  0  0  0  0  0
   60.3850   28.7640   46.5340 C   0  0  0  0  0  0  0  0  0  0  0  0
   61.3050   29.2859   46.8361 H   0  0  0  0  0  0  0  0  0  0  0  0
   60.2710   27.3780   46.7370 C   0  0  0  0  0  0  0  0  0  0  0  0
   61.0922   26.7997   47.1856 H   0  0  0  0  0  0  0  0  0  0  0  0
   59.0830   26.7610   46.3510 C   0  0  0  0  0  0  0  0  0  0  0  0
   58.6830   25.4500   46.4760 C   0  0  0  0  0  0  0  0  0  0  0  0
   59.2647   24.6084   46.8802 H   0  0  0  0  0  0  0  0  0  0  0  0
   57.3800   25.4200   45.9790 C   0  0  0  0  0  0  0  0  0  0  0  0
   56.5070   24.2310   45.8950 C   0  0  0  0  0  0  0  0  0  0  0  0
   55.6230   24.0750   46.7810 O   0  0  0  0  0  0  0  0  0  0  0  0
   56.6540   23.2440   44.8540 N   0  0  0  0  0  0  0  0  0  0  0  0
   57.9820   22.8900   44.3350 C   0  0  0  0  0  0  0  0  0  0  0  0
   58.7372   23.0950   45.1081 H   0  0  0  0  0  0  0  0  0  0  0  0
   58.1799   23.4917   43.4357 H   0  0  0  0  0  0  0  0  0  0  0  0
   58.0430   21.3990   43.9530 C   0  0  0  0  0  0  0  0  0  0  0  0
   59.0919   21.0686   43.9782 H   0  0  0  0  0  0  0  0  0  0  0  0
   57.6150   21.2886   42.9457 H   0  0  0  0  0  0  0  0  0  0  0  0
   57.2530   20.5550   44.8810 N   0  0  0  0  0  0  0  0  0  0  0  0
   57.3190   19.5710   44.5260 H   0  0  0  0  0  0  0  0  0  0  0  0
   57.8430   20.5450   46.2340 C   0  0  0  0  0  0  0  0  0  0  0  0
   57.0391   20.5586   46.9847 H   0  0  0  0  0  0  0  0  0  0  0  0
   58.4496   19.6364   46.3628 H   0  0  0  0  0  0  0  0  0  0  0  0
   58.4800   21.4325   46.3628 H   0  0  0  0  0  0  0  0  0  0  0  0
   55.8090   20.9250   44.9150 C   0  0  0  0  0  0  0  0  0  0  0  0
   55.4400   20.7871   45.9420 H   0  0  0  0  0  0  0  0  0  0  0  0
   55.2951   20.2750   44.1915 H   0  0  0  0  0  0  0  0  0  0  0  0
   55.5280   22.3800   44.4890 C   0  0  0  0  0  0  0  0  0  0  0  0
   54.6184   22.7367   44.9943 H   0  0  0  0  0  0  0  0  0  0  0  0
   55.3910   22.4130   43.3981 H   0  0  0  0  0  0  0  0  0  0  0  0
   57.0040   26.6480   45.5430 N   0  0  0  0  0  0  0  0  0  0  0  0
   56.0740   26.9090   45.1470 H   0  0  0  0  0  0  0  0  0  0  0  0
   58.0530   27.4590   45.7710 C   0  0  0  0  0  0  0  0  0  0  0  0
   57.7640   33.9780   45.2420 C   0  0  0  0  0  0  0  0  0  0  0  0
   56.7129   34.0600   44.9282 H   0  0  0  0  0  0  0  0  0  0  0  0
  1  2  1  0
  2  3  1  0
  3  4  1  0
  4  5  2  0
  5  6  1  0
  5  7  1  0
  7  8  1  0
  7  9  2  0
  9 10  1  0
  9 11  1  0
 11 12  1  0
 12 13  1  0
 12 14  1  0
 12 15  1  0
 11 16  2  0
 16 17  1  0
 17 18  2  0
 18 19  1  0
 19 20  2  0
 19 21  1  0
 21 22  1  0
 22 23  2  0
 23 24  1  0
 23 25  1  0
 25 26  1  0
 25 27  2  0
 27 28  1  0
 27 29  1  0
 29 30  1  0
 30 31  1  0
 30 32  2  0
 32 33  1  0
 33 34  2  0
 33 35  1  0
 35 36  1  0
 36 37  1  0
 36 38  1  0
 36 39  1  0
 39 40  1  0
 39 41  1  0
 39 42  1  0
 42 43  1  0
 42 44  1  0
 44 45  1  0
 44 46  1  0
 44 47  1  0
 42 48  1  0
 48 49  1  0
 48 50  1  0
 48 51  1  0
 51 52  1  0
 51 53  1  0
 32 54  1  0
 54 55  1  0
 54 56  1  0
 17 57  1  0
 57 58  1  0
 57  2  2  0
 16  4  1  0
 56 22  1  0
 56 29  2  0
 51 35  1  0
M  CHG  3   3  -1  21  -1  42   1
M  END
>  <UniqueID>  (90) 
76

>  <SMILES>  (90) 
C[NH+]1CCN(C(=O)c2cc3cccc([N-]C(=O)/N=c4/cc[n-]c5cccc(C(F)(F)F)c45)c3[nH]2)CC1

>  <Energy>  (90) 
149.29060490949257

>  <Genealogy>  (90) 
C[NH+]1CCN(C(=O)c2cc3cccc([N-]C(=O)N=c4cc[n-]c5cccc(C(F)(F)F)c45)c3[nH]2)CC1 (protonated)
C[NH+]1CCN(C(=O)c2cc3cccc([N-]C(=O)/N=c4/cc[n-]c5cccc(C(F)(F)F)c45)c3[nH]2)CC1 (cis-trans isomerization)
C[NH+]1CCN(C(=O)c2cc3cccc([N-]C(=O)/N=c4/cc[n-]c5cccc(C(F)(F)F)c45)c3[nH]2)CC1 (3D coordinates assigned)
C[NH+]1CCN(C(=O)c2cc3cccc([N-]C(=O)/N=c4/cc[n-]c5cccc(C(F)(F)F)c45)c3[nH]2)CC1 (nonaromatic ring conformer: 149.29060490949257 kcal/mol)

>  <smiles>  (90) 
CN1CCN(C(=O)c2cc3cccc(NC(=O)N=c4cc[nH]c5cccc(C(F)(F)F)c45)c3[nH]2)CC1

>  <score_type>  (90) 
oracle

>  <origin>  (90) 
adg

>  <m_score__min__energy>  (90) 
-10.58

>  <m_primary>  (90) 
energy

$$$$
90:0
     RDKit          3D

 24 25  0  0  0  0  0  0  0  0999 V2000
   54.7900   29.5860   43.5760 N   0  0  0  0  0  0  0  0  0  0  0  0
   56.0650   30.1950   43.7710 C   0  0  0  0  0  0  0  0  0  0  0  0
   56.5360   30.9540   42.8830 O   0  0  0  0  0  0  0  0  0  0  0  0
   56.7940   29.9350   44.9740 N   0  0  0  0  0  0  0  0  0  0  0  0
   56.8190   28.6720   45.6480 C   0  0  0  0  0  0  0  0  0  0  0  0
   55.9020   27.7420   45.5020 O   0  0  0  0  0  0  0  0  0  0  0  0
   56.2610   26.7130   46.2310 C   0  0  0  0  0  0  0  0  0  0  0  0
   55.5260   25.5380   46.3230 O   0  0  0  0  0  0  0  0  0  0  0  0
   57.4520   26.9560   46.8820 C   0  0  0  0  0  0  0  0  0  0  0  0
   57.8160   28.2390   46.5110 C   0  0  0  0  0  0  0  0  0  0  0  0
   59.0330   28.9650   46.9460 C   0  0  0  0  0  0  0  0  0  0  0  0
   59.7670   29.7580   46.0440 C   0  0  0  0  0  0  0  0  0  0  0  0
   60.9100   30.4420   46.4700 C   0  0  0  0  0  0  0  0  0  0  0  0
   61.3310   30.3450   47.7980 C   0  0  0  0  0  0  0  0  0  0  0  0
   60.6060   29.5690   48.7060 C   0  0  0  0  0  0  0  0  0  0  0  0
   59.4620   28.8850   48.2850 C   0  0  0  0  0  0  0  0  0  0  0  0
   54.2460   29.7660   42.7030 H   0  0  0  0  0  0  0  0  0  0  0  0
   54.3920   28.9550   44.3060 H   0  0  0  0  0  0  0  0  0  0  0  0
   57.9967   26.2755   47.5530 H   0  0  0  0  0  0  0  0  0  0  0  0
   59.4394   29.8403   44.9971 H   0  0  0  0  0  0  0  0  0  0  0  0
   61.4786   31.0577   45.7575 H   0  0  0  0  0  0  0  0  0  0  0  0
   62.2335   30.8796   48.1292 H   0  0  0  0  0  0  0  0  0  0  0  0
   60.9357   29.4963   49.7529 H   0  0  0  0  0  0  0  0  0  0  0  0
   58.8923   28.2794   49.0052 H   0  0  0  0  0  0  0  0  0  0  0  0
  1  2  1  0
  2  3  2  0
  2  4  1  0
  4  5  1  0
  5  6  1  0
  6  7  1  0
  7  8  1  0
  7  9  2  0
  9 10  1  0
 10 11  1  0
 11 12  2  0
 12 13  1  0
 13 14  2  0
 14 15  1  0
 15 16  2  0
 10  5  2  0
 16 11  1  0
  1 17  1  0
  1 18  1  0
  9 19  1  0
 12 20  1  0
 13 21  1  0
 14 22  1  0
 15 23  1  0
 16 24  1  0
M  CHG  2   4  -1   8  -1
M  END
>  <UniqueID>  (91) 
77

>  <SMILES>  (91) 
NC(=O)[N-]c1oc([O-])cc1-c1ccccc1

>  <Energy>  (91) 
54.276364240512024

>  <Genealogy>  (91) 
NC(=O)[N-]c1oc([O-])cc1-c1ccccc1 (protonated)
NC(=O)[N-]c1oc([O-])cc1-c1ccccc1 (3D coordinates assigned)
NC(=O)[N-]c1oc([O-])cc1-c1ccccc1 (optimized conformer: 54.276364240512024 kcal/mol)

>  <smiles>  (91) 
NC(=O)Nc1oc(O)cc1-c1ccccc1

>  <score_type>  (91) 
oracle

>  <origin>  (91) 
adg

>  <m_score__min__energy>  (91) 
-11.24

>  <m_primary>  (91) 
energy

$$$$
91:0
     RDKit          3D

 28 29  0  0  0  0  0  0  0  0999 V2000
   56.2710   21.1970   42.8210 O   0  0  0  0  0  0  0  0  0  0  0  0
   56.4440   22.2550   43.4810 C   0  0  0  0  0  0  0  0  0  0  0  0
   56.2300   22.2590   44.8570 C   0  0  0  0  0  0  0  0  0  0  0  0
   56.4290   23.4450   45.5590 C   0  0  0  0  0  0  0  0  0  0  0  0
   56.8390   24.5740   44.9080 N   0  0  0  0  0  0  0  0  0  0  0  0
   57.0240   25.7950   45.6560 C   0  0  0  0  0  0  0  0  0  0  0  0
   58.1690   26.0310   46.3310 C   0  0  0  0  0  0  0  0  0  0  0  0
   58.9840   27.2580   46.1870 C   0  0  0  0  0  0  0  0  0  0  0  0
   59.1680   27.8700   44.9330 C   0  0  0  0  0  0  0  0  0  0  0  0
   59.9270   29.0390   44.8230 C   0  0  0  0  0  0  0  0  0  0  0  0
   60.4950   29.6150   45.9600 C   0  0  0  0  0  0  0  0  0  0  0  0
   60.2960   29.0300   47.2130 C   0  0  0  0  0  0  0  0  0  0  0  0
   59.5370   27.8610   47.3310 C   0  0  0  0  0  0  0  0  0  0  0  0
   59.3590   27.3060   48.5570 F   0  0  0  0  0  0  0  0  0  0  0  0
   55.9400   26.7370   45.7290 N   0  0  0  0  0  0  0  0  0  0  0  0
   54.7870   26.3420   46.0000 O   0  0  0  0  0  0  0  0  0  0  0  0
   56.1480   28.0800   45.5110 O   0  0  0  0  0  0  0  0  0  0  0  0
   57.0340   24.5490   43.5520 C   0  0  0  0  0  0  0  0  0  0  0  0
   57.4080   25.5860   42.9390 O   0  0  0  0  0  0  0  0  0  0  0  0
   56.8380   23.3950   42.8540 N   0  0  0  0  0  0  0  0  0  0  0  0
   55.9105   21.3446   45.3784 H   0  0  0  0  0  0  0  0  0  0  0  0
   56.2550   23.4731   46.6448 H   0  0  0  0  0  0  0  0  0  0  0  0
   58.5192   25.2609   47.0341 H   0  0  0  0  0  0  0  0  0  0  0  0
   58.7125   27.4265   44.0353 H   0  0  0  0  0  0  0  0  0  0  0  0
   60.0767   29.5056   43.8382 H   0  0  0  0  0  0  0  0  0  0  0  0
   61.0994   30.5296   45.8697 H   0  0  0  0  0  0  0  0  0  0  0  0
   60.7375   29.4900   48.1094 H   0  0  0  0  0  0  0  0  0  0  0  0
   56.9950   23.3860   41.8200 H   0  0  0  0  0  0  0  0  0  0  0  0
  1  2  2  0
  2  3  1  0
  3  4  2  0
  4  5  1  0
  5  6  1  0
  6  7  2  3
  7  8  1  0
  8  9  2  0
  9 10  1  0
 10 11  2  0
 11 12  1  0
 12 13  2  0
 13 14  1  0
  6 15  1  0
 15 16  2  0
 15 17  1  0
  5 18  1  0
 18 19  2  0
 18 20  1  0
 20  2  1  0
 13  8  1  0
  3 21  1  0
  4 22  1  0
  7 23  1  0
  9 24  1  0
 10 25  1  0
 11 26  1  0
 12 27  1  0
 20 28  1  0
M  CHG  2  15   1  17  -1
M  END
>  <UniqueID>  (92) 
78

>  <SMILES>  (92) 
O=c1ccn(C(=Cc2ccccc2F)[N+](=O)[O-])c(=O)[nH]1

>  <Energy>  (92) 
42.84686737110625

>  <Genealogy>  (92) 
O=c1ccn(C(=Cc2ccccc2F)[N+](=O)[O-])c(=O)[nH]1 (3D coordinates assigned)
O=c1ccn(C(=Cc2ccccc2F)[N+](=O)[O-])c(=O)[nH]1 (optimized conformer: 42.84686737110625 kcal/mol)

>  <smiles>  (92) 
O=c1ccn(C(=Cc2ccccc2F)[N+](=O)[O-])c(=O)[nH]1

>  <score_type>  (92) 
oracle

>  <origin>  (92) 
adg

>  <m_score__min__energy>  (92) 
-7.4000000000000004

>  <m_primary>  (92) 
energy

$$$$
92:0
     RDKit          3D

 49 52  0  0  0  0  0  0  0  0999 V2000
   62.7490   31.2420   49.6200 C   0  0  0  0  0  0  0  0  0  0  0  0
   63.5190   32.3720   49.0730 N   0  0  0  0  0  0  0  0  0  0  0  0
   63.0750   33.6640   49.6450 C   0  0  0  0  0  0  0  0  0  0  0  0
   61.7270   34.1170   49.0630 C   0  0  0  0  0  0  0  0  0  0  0  0
   61.7110   33.9530   47.6080 N   0  0  0  0  0  0  0  0  0  0  0  0
   60.4540   33.9190   46.9120 C   0  0  0  0  0  0  0  0  0  0  0  0
   60.1470   34.9610   46.0250 C   0  0  0  0  0  0  0  0  0  0  0  0
   58.9370   34.9670   45.3330 C   0  0  0  0  0  0  0  0  0  0  0  0
   58.0220   33.9320   45.5200 C   0  0  0  0  0  0  0  0  0  0  0  0
   58.3070   32.8890   46.4030 C   0  0  0  0  0  0  0  0  0  0  0  0
   57.3910   31.8980   46.5580 F   0  0  0  0  0  0  0  0  0  0  0  0
   59.5220   32.8710   47.1210 C   0  0  0  0  0  0  0  0  0  0  0  0
   59.8100   31.7330   48.0800 C   0  0  0  0  0  0  0  0  0  0  0  0
   59.6100   30.4340   47.4410 N   0  0  0  0  0  0  0  0  0  0  0  0
   60.5670   29.8560   46.5460 C   0  0  0  0  0  0  0  0  0  0  0  0
   61.6930   30.4010   46.3830 O   0  0  0  0  0  0  0  0  0  0  0  0
   60.2410   28.6410   45.8640 N   0  0  0  0  0  0  0  0  0  0  0  0
   59.0100   27.9140   45.9800 C   0  0  0  0  0  0  0  0  0  0  0  0
   58.9490   26.5760   46.4380 C   0  0  0  0  0  0  0  0  0  0  0  0
   57.7110   25.8950   46.4990 C   0  0  0  0  0  0  0  0  0  0  0  0
   56.5230   26.5320   46.0920 C   0  0  0  0  0  0  0  0  0  0  0  0
   56.6200   27.8390   45.6250 C   0  0  0  0  0  0  0  0  0  0  0  0
   55.6290   28.6280   45.1740 N   0  0  0  0  0  0  0  0  0  0  0  0
   56.1790   29.7890   44.8270 N   0  0  0  0  0  0  0  0  0  0  0  0
   57.5130   29.7390   45.0560 C   0  0  0  0  0  0  0  0  0  0  0  0
   57.8130   28.4980   45.5670 C   0  0  0  0  0  0  0  0  0  0  0  0
   62.9410   33.5730   46.9110 C   0  0  0  0  0  0  0  0  0  0  0  0
   63.5640   32.3400   47.5840 C   0  0  0  0  0  0  0  0  0  0  0  0
   62.7742   31.2790   50.7191 H   0  0  0  0  0  0  0  0  0  0  0  0
   61.7066   31.3073   49.2747 H   0  0  0  0  0  0  0  0  0  0  0  0
   63.1911   30.2958   49.2747 H   0  0  0  0  0  0  0  0  0  0  0  0
   62.9725   33.5537   50.7347 H   0  0  0  0  0  0  0  0  0  0  0  0
   63.8279   34.4249   49.3917 H   0  0  0  0  0  0  0  0  0  0  0  0
   60.9214   33.5113   49.5037 H   0  0  0  0  0  0  0  0  0  0  0  0
   61.5781   35.1806   49.3010 H   0  0  0  0  0  0  0  0  0  0  0  0
   60.8663   35.7795   45.8743 H   0  0  0  0  0  0  0  0  0  0  0  0
   58.7041   35.7884   44.6394 H   0  0  0  0  0  0  0  0  0  0  0  0
   57.0701   33.9372   44.9687 H   0  0  0  0  0  0  0  0  0  0  0  0
   60.8532   31.8074   48.4208 H   0  0  0  0  0  0  0  0  0  0  0  0
   59.1155   31.8117   48.9294 H   0  0  0  0  0  0  0  0  0  0  0  0
   58.7190   29.9180   47.6230 H   0  0  0  0  0  0  0  0  0  0  0  0
   59.8708   26.0624   46.7486 H   0  0  0  0  0  0  0  0  0  0  0  0
   57.6759   24.8591   46.8674 H   0  0  0  0  0  0  0  0  0  0  0  0
   55.5533   26.0150   46.1415 H   0  0  0  0  0  0  0  0  0  0  0  0
   58.2315   30.5500   44.8662 H   0  0  0  0  0  0  0  0  0  0  0  0
   62.7079   33.3373   45.8621 H   0  0  0  0  0  0  0  0  0  0  0  0
   63.6549   34.4088   46.9545 H   0  0  0  0  0  0  0  0  0  0  0  0
   63.0202   31.4475   47.2410 H   0  0  0  0  0  0  0  0  0  0  0  0
   64.6263   32.3258   47.2989 H   0  0  0  0  0  0  0  0  0  0  0  0
  1  2  1  0
  2  3  1  0
  3  4  1  0
  4  5  1  0
  5  6  1  0
  6  7  2  0
  7  8  1  0
  8  9  2  0
  9 10  1  0
 10 11  1  0
 10 12  2  0
 12 13  1  0
 13 14  1  0
 14 15  1  0
 15 16  2  0
 15 17  1  0
 17 18  1  0
 18 19  2  0
 19 20  1  0
 20 21  2  0
 21 22  1  0
 22 23  1  0
 23 24  1  0
 24 25  2  0
 25 26  1  0
  5 27  1  0
 27 28  1  0
 28  2  1  0
 12  6  1  0
 26 18  1  0
 26 22  2  0
  1 29  1  0
  1 30  1  0
  1 31  1  0
  3 32  1  0
  3 33  1  0
  4 34  1  0
  4 35  1  0
  7 36  1  0
  8 37  1  0
  9 38  1  0
 13 39  1  0
 13 40  1  0
 14 41  1  0
 19 42  1  0
 20 43  1  0
 21 44  1  0
 25 45  1  0
 27 46  1  0
 27 47  1  0
 28 48  1  0
 28 49  1  0
M  CHG  2  17  -1  23  -1
M  END
>  <UniqueID>  (93) 
79

>  <SMILES>  (93) 
CN1CCN(c2cccc(F)c2CNC(=O)[N-]c2cccc3[n-]ncc23)CC1

>  <Energy>  (93) 
103.75617092377476

>  <Genealogy>  (93) 
CN1CCN(c2cccc(F)c2CNC(=O)[N-]c2cccc3[n-]ncc23)CC1 (protonated)
CN1CCN(c2cccc(F)c2CNC(=O)[N-]c2cccc3[n-]ncc23)CC1 (3D coordinates assigned)
CN1CCN(c2cccc(F)c2CNC(=O)[N-]c2cccc3[n-]ncc23)CC1 (nonaromatic ring conformer: 103.75617092377476 kcal/mol)

>  <smiles>  (93) 
CN1CCN(c2cccc(F)c2CNC(=O)Nc2cccc3[nH]ncc23)CC1

>  <score_type>  (93) 
oracle

>  <origin>  (93) 
adg

>  <m_score__min__energy>  (93) 
-12.029999999999999

>  <m_primary>  (93) 
energy

$$$$
93:0
     RDKit          3D

 32 34  0  0  0  0  0  0  0  0999 V2000
   57.5580   28.5030   43.7680 N   0  0  0  0  0  0  0  0  0  0  0  0
   56.5270   29.8550   44.0790 S   0  0  0  0  0  0  0  0  0  0  0  0
   55.3270   29.4010   44.8610 O   0  0  0  0  0  0  0  0  0  0  0  0
   56.0620   30.4460   42.7780 O   0  0  0  0  0  0  0  0  0  0  0  0
   57.4150   31.0670   44.9980 C   0  0  0  0  0  0  0  0  0  0  0  0
   58.3780   30.6740   45.9350 C   0  0  0  0  0  0  0  0  0  0  0  0
   59.0760   31.6330   46.6740 C   0  0  0  0  0  0  0  0  0  0  0  0
   58.8220   33.0000   46.4850 C   0  0  0  0  0  0  0  0  0  0  0  0
   59.5520   33.9670   47.2630 N   0  0  0  0  0  0  0  0  0  0  0  0
   60.7190   33.6520   48.0380 C   0  0  0  0  0  0  0  0  0  0  0  0
   60.6610   33.3170   49.4220 C   0  0  0  0  0  0  0  0  0  0  0  0
   59.4260   33.3930   50.1560 N   0  0  0  0  0  0  0  0  0  0  0  0
   59.2840   34.2390   51.0630 O   0  0  0  0  0  0  0  0  0  0  0  0
   58.3370   32.6450   49.7720 O   0  0  0  0  0  0  0  0  0  0  0  0
   61.8560   32.9390   50.0990 C   0  0  0  0  0  0  0  0  0  0  0  0
   63.0940   32.9270   49.4300 C   0  0  0  0  0  0  0  0  0  0  0  0
   63.1020   33.2980   48.0930 C   0  0  0  0  0  0  0  0  0  0  0  0
   64.1350   33.3610   47.2420 N   0  0  0  0  0  0  0  0  0  0  0  0
   63.5970   33.7400   46.1080 O   0  0  0  0  0  0  0  0  0  0  0  0
   62.3010   33.9240   46.1600 N   0  0  0  0  0  0  0  0  0  0  0  0
   61.9750   33.6470   47.4310 C   0  0  0  0  0  0  0  0  0  0  0  0
   57.8370   33.3910   45.5570 C   0  0  0  0  0  0  0  0  0  0  0  0
   57.1410   32.4290   44.8200 C   0  0  0  0  0  0  0  0  0  0  0  0
   58.2000   28.7810   42.9910 H   0  0  0  0  0  0  0  0  0  0  0  0
   56.9520   27.7360   43.3980 H   0  0  0  0  0  0  0  0  0  0  0  0
   58.5863   29.6051   46.0903 H   0  0  0  0  0  0  0  0  0  0  0  0
   59.8297   31.3140   47.4089 H   0  0  0  0  0  0  0  0  0  0  0  0
   59.2970   34.9750   47.1650 H   0  0  0  0  0  0  0  0  0  0  0  0
   61.8104   32.6524   51.1600 H   0  0  0  0  0  0  0  0  0  0  0  0
   64.0198   32.6347   49.9471 H   0  0  0  0  0  0  0  0  0  0  0  0
   57.6146   34.4585   45.4118 H   0  0  0  0  0  0  0  0  0  0  0  0
   56.3742   32.7430   44.0965 H   0  0  0  0  0  0  0  0  0  0  0  0
  1  2  1  0
  2  3  2  0
  2  4  2  0
  2  5  1  0
  5  6  2  0
  6  7  1  0
  7  8  2  0
  8  9  1  0
  9 10  1  0
 10 11  2  0
 11 12  1  0
 12 13  2  0
 12 14  1  0
 11 15  1  0
 15 16  2  0
 16 17  1  0
 17 18  2  0
 18 19  1  0
 19 20  1  0
 20 21  2  0
  8 22  1  0
 22 23  2  0
 23  5  1  0
 21 10  1  0
 21 17  1  0
  1 24  1  0
  1 25  1  0
  6 26  1  0
  7 27  1  0
  9 28  1  0
 15 29  1  0
 16 30  1  0
 22 31  1  0
 23 32  1  0
M  CHG  2  12   1  14  -1
M  END
>  <UniqueID>  (94) 
80

>  <SMILES>  (94) 
NS(=O)(=O)c1ccc(Nc2c([N+](=O)[O-])ccc3nonc23)cc1

>  <Energy>  (94) 
86.56577292199799

>  <Genealogy>  (94) 
NS(=O)(=O)c1ccc(Nc2c([N+](=O)[O-])ccc3nonc23)cc1 (3D coordinates assigned)
NS(=O)(=O)c1ccc(Nc2c([N+](=O)[O-])ccc3nonc23)cc1 (optimized conformer: 86.56577292199799 kcal/mol)

>  <smiles>  (94) 
NS(=O)(=O)c1ccc(Nc2c([N+](=O)[O-])ccc3nonc23)cc1

>  <score_type>  (94) 
oracle

>  <origin>  (94) 
adg

>  <m_score__min__energy>  (94) 
-8.8100000000000005

>  <m_primary>  (94) 
energy

$$$$
94:0
     RDKit          3D

 45 46  0  0  0  0  0  0  0  0999 V2000
   58.1510   27.3130   43.3270 C   0  0  0  0  0  0  0  0  0  0  0  0
   58.0180   27.7840   44.7750 C   0  0  1  0  0  0  0  0  0  0  0  0
   58.9730   28.8150   45.0240 O   0  0  0  0  0  0  0  0  0  0  0  0
   60.2660   28.5730   45.5010 C   0  0  0  0  0  0  0  0  0  0  0  0
   61.2640   28.6440   44.7310 O   0  0  0  0  0  0  0  0  0  0  0  0
   60.4640   28.2270   46.9420 C   0  0  0  0  0  0  0  0  0  0  0  0
   60.4730   26.8120   47.1200 O   0  0  0  0  0  0  0  0  0  0  0  0
   59.3830   25.9570   46.8830 C   0  0  0  0  0  0  0  0  0  0  0  0
   58.1420   26.1100   47.5290 C   0  0  0  0  0  0  0  0  0  0  0  0
   57.0980   25.2180   47.2660 C   0  0  0  0  0  0  0  0  0  0  0  0
   57.2680   24.1700   46.3540 C   0  0  0  0  0  0  0  0  0  0  0  0
   56.1680   23.2790   46.1220 N   0  0  0  0  0  0  0  0  0  0  0  0
   54.7170   23.6600   45.2520 S   0  0  0  0  0  0  0  0  0  0  0  0
   55.0370   23.6520   43.5010 C   0  0  0  0  0  0  0  0  0  0  0  0
   53.6360   22.6730   45.5930 O   0  0  0  0  0  0  0  0  0  0  0  0
   54.2600   25.0340   45.6530 O   0  0  0  0  0  0  0  0  0  0  0  0
   58.5040   24.0240   45.7000 C   0  0  0  0  0  0  0  0  0  0  0  0
   59.5500   24.9130   45.9660 C   0  0  0  0  0  0  0  0  0  0  0  0
   56.5990   28.2250   45.0770 C   0  0  0  0  0  0  0  0  0  0  0  0
   55.8280   27.4070   45.6410 O   0  0  0  0  0  0  0  0  0  0  0  0
   56.1300   29.5680   44.8670 N   0  0  0  0  0  0  0  0  0  0  0  0
   56.7930   30.6200   44.1570 C   0  0  0  0  0  0  0  0  0  0  0  0
   56.7980   30.6700   42.7530 C   0  0  0  0  0  0  0  0  0  0  0  0
   57.4560   31.7110   42.0880 C   0  0  0  0  0  0  0  0  0  0  0  0
   58.0960   32.7150   42.8210 C   0  0  0  0  0  0  0  0  0  0  0  0
   58.0690   32.6860   44.2180 C   0  0  0  0  0  0  0  0  0  0  0  0
   58.6860   33.6620   44.9290 F   0  0  0  0  0  0  0  0  0  0  0  0
   57.4130   31.6440   44.8850 C   0  0  0  0  0  0  0  0  0  0  0  0
   58.4499   26.2545   43.3117 H   0  0  0  0  0  0  0  0  0  0  0  0
   57.1851   27.4287   42.8136 H   0  0  0  0  0  0  0  0  0  0  0  0
   58.9138   27.9168   42.8136 H   0  0  0  0  0  0  0  0  0  0  0  0
   58.2313   26.9470   45.4561 H   0  0  0  0  0  0  0  0  0  0  0  0
   61.4237   28.6410   47.2850 H   0  0  0  0  0  0  0  0  0  0  0  0
   59.6359   28.6536   47.5270 H   0  0  0  0  0  0  0  0  0  0  0  0
   57.9930   26.9336   48.2428 H   0  0  0  0  0  0  0  0  0  0  0  0
   56.1337   25.3410   47.7808 H   0  0  0  0  0  0  0  0  0  0  0  0
   56.1228   23.6249   43.3268 H   0  0  0  0  0  0  0  0  0  0  0  0
   54.5705   22.7652   43.0471 H   0  0  0  0  0  0  0  0  0  0  0  0
   54.6154   24.5610   43.0471 H   0  0  0  0  0  0  0  0  0  0  0  0
   58.6486   23.2079   44.9768 H   0  0  0  0  0  0  0  0  0  0  0  0
   60.5135   24.7906   45.4495 H   0  0  0  0  0  0  0  0  0  0  0  0
   56.2832   29.8887   42.1746 H   0  0  0  0  0  0  0  0  0  0  0  0
   57.4696   31.7393   40.9884 H   0  0  0  0  0  0  0  0  0  0  0  0
   58.6209   33.5280   42.2980 H   0  0  0  0  0  0  0  0  0  0  0  0
   57.3844   31.6294   45.9845 H   0  0  0  0  0  0  0  0  0  0  0  0
  1  2  1  0
  2  3  1  0
  3  4  1  0
  4  5  2  0
  4  6  1  0
  6  7  1  0
  7  8  1  0
  8  9  2  0
  9 10  1  0
 10 11  2  0
 11 12  1  0
 12 13  1  0
 13 14  1  0
 13 15  2  0
 13 16  2  0
 11 17  1  0
 17 18  2  0
  2 19  1  0
 19 20  2  0
 19 21  1  0
 21 22  1  0
 22 23  2  0
 23 24  1  0
 24 25  2  0
 25 26  1  0
 26 27  1  0
 26 28  2  0
 18  8  1  0
 28 22  1  0
  1 29  1  0
  1 30  1  0
  1 31  1  0
  2 32  1  1
  6 33  1  0
  6 34  1  0
  9 35  1  0
 10 36  1  0
 14 37  1  0
 14 38  1  0
 14 39  1  0
 17 40  1  0
 18 41  1  0
 23 42  1  0
 24 43  1  0
 25 44  1  0
 28 45  1  0
M  CHG  2  12  -1  21  -1
M  END
>  <UniqueID>  (95) 
81

>  <SMILES>  (95) 
C[C@@H](OC(=O)COc1ccc([N-]S(C)(=O)=O)cc1)C(=O)[N-]c1cccc(F)c1

>  <Energy>  (95) 
45.16949721370334

>  <Genealogy>  (95) 
CC(OC(=O)COc1ccc([N-]S(C)(=O)=O)cc1)C(=O)[N-]c1cccc(F)c1 (protonated)
C[C@@H](OC(=O)COc1ccc([N-]S(C)(=O)=O)cc1)C(=O)[N-]c1cccc(F)c1 (chirality)
C[C@@H](OC(=O)COc1ccc([N-]S(C)(=O)=O)cc1)C(=O)[N-]c1cccc(F)c1 (3D coordinates assigned)
C[C@@H](OC(=O)COc1ccc([N-]S(C)(=O)=O)cc1)C(=O)[N-]c1cccc(F)c1 (optimized conformer: 45.16949721370334 kcal/mol)

>  <smiles>  (95) 
CC(OC(=O)COc1ccc(NS(C)(=O)=O)cc1)C(=O)Nc1cccc(F)c1

>  <score_type>  (95) 
oracle

>  <origin>  (95) 
adg

>  <m_score__min__energy>  (95) 
-10.81

>  <m_primary>  (95) 
energy

$$$$
95:0
     RDKit          3D

 35 37  0  0  0  0  0  0  0  0999 V2000
   59.8031   35.4404   46.1906 H   0  0  0  0  0  0  0  0  0  0  0  0
   59.1400   34.6340   45.8440 C   0  0  0  0  0  0  0  0  0  0  0  0
   58.2500   34.0290   46.7350 C   0  0  0  0  0  0  0  0  0  0  0  0
   58.2198   34.3527   47.7858 H   0  0  0  0  0  0  0  0  0  0  0  0
   57.3980   33.0130   46.2930 C   0  0  0  0  0  0  0  0  0  0  0  0
   56.7094   32.5305   47.0022 H   0  0  0  0  0  0  0  0  0  0  0  0
   57.4150   32.6050   44.9530 C   0  0  0  0  0  0  0  0  0  0  0  0
   56.5430   31.5360   44.5470 N   0  0  0  0  0  0  0  0  0  0  0  0
   56.7470   30.2630   44.7110 C   0  0  0  0  0  0  0  0  0  0  0  0
   55.8010   29.3820   45.1100 N   0  0  0  0  0  0  0  0  0  0  0  0
   56.2720   28.1450   45.2490 N   0  0  0  0  0  0  0  0  0  0  0  0
   57.5900   28.0460   44.9750 C   0  0  0  0  0  0  0  0  0  0  0  0
   58.5120   26.5150   45.0870 S   0  0  0  0  0  0  0  0  0  0  0  0
   57.0680   25.4860   45.5310 C   0  0  0  0  0  0  0  0  0  0  0  0
   56.1510   26.0769   45.3901 H   0  0  0  0  0  0  0  0  0  0  0  0
   57.1753   25.1746   46.5805 H   0  0  0  0  0  0  0  0  0  0  0  0
   56.9890   24.2440   44.6730 C   0  0  0  0  0  0  0  0  0  0  0  0
   55.8900   24.0850   43.8100 C   0  0  0  0  0  0  0  0  0  0  0  0
   55.1003   24.8504   43.7886 H   0  0  0  0  0  0  0  0  0  0  0  0
   55.7900   22.9680   42.9810 C   0  0  0  0  0  0  0  0  0  0  0  0
   54.9262   22.8586   42.3088 H   0  0  0  0  0  0  0  0  0  0  0  0
   56.7830   21.9900   43.0030 C   0  0  0  0  0  0  0  0  0  0  0  0
   56.7010   21.1091   42.3493 H   0  0  0  0  0  0  0  0  0  0  0  0
   57.8820   22.1270   43.8540 C   0  0  0  0  0  0  0  0  0  0  0  0
   58.6597   21.3492   43.8698 H   0  0  0  0  0  0  0  0  0  0  0  0
   58.0030   23.2510   44.6910 C   0  0  0  0  0  0  0  0  0  0  0  0
   59.1940   23.3530   45.6100 C   0  0  0  0  0  0  0  0  0  0  0  0
   58.8538   23.3239   46.6557 H   0  0  0  0  0  0  0  0  0  0  0  0
   59.8752   22.5099   45.4224 H   0  0  0  0  0  0  0  0  0  0  0  0
   59.7219   24.2996   45.4224 H   0  0  0  0  0  0  0  0  0  0  0  0
   58.2500   29.5300   44.5280 S   0  0  0  0  0  0  0  0  0  0  0  0
   58.3360   33.1980   44.0660 C   0  0  0  0  0  0  0  0  0  0  0  0
   58.3856   32.8611   43.0201 H   0  0  0  0  0  0  0  0  0  0  0  0
   59.1870   34.2140   44.5130 C   0  0  0  0  0  0  0  0  0  0  0  0
   59.8951   34.6834   43.8143 H   0  0  0  0  0  0  0  0  0  0  0  0
  1  2  1  0
  2  3  2  0
  3  4  1  0
  3  5  1  0
  5  6  1  0
  5  7  2  0
  7  8  1  0
  8  9  2  0
  9 10  1  0
 10 11  1  0
 11 12  2  0
 12 13  1  0
 13 14  1  0
 14 15  1  0
 14 16  1  0
 14 17  1  0
 17 18  2  0
 18 19  1  0
 18 20  1  0
 20 21  1  0
 20 22  2  0
 22 23  1  0
 22 24  1  0
 24 25  1  0
 24 26  2  0
 26 27  1  0
 27 28  1  0
 27 29  1  0
 27 30  1  0
 12 31  1  0
  7 32  1  0
 32 33  1  0
 32 34  2  0
 34 35  1  0
 34  2  1  0
 31  9  1  0
 26 17  1  0
M  CHG  1  10  -1
M  END
>  <UniqueID>  (96) 
82

>  <SMILES>  (96) 
Cc1ccccc1CSc1n[n-]/c(=N\c2ccccc2)s1

>  <Energy>  (96) 
74.25868335549505

>  <Genealogy>  (96) 
Cc1ccccc1CSc1n[n-]c(=Nc2ccccc2)s1 (protonated)
Cc1ccccc1CSc1n[n-]/c(=N\c2ccccc2)s1 (cis-trans isomerization)
Cc1ccccc1CSc1n[n-]/c(=N\c2ccccc2)s1 (3D coordinates assigned)
Cc1ccccc1CSc1n[n-]/c(=N\c2ccccc2)s1 (optimized conformer: 74.25868335549505 kcal/mol)

>  <smiles>  (96) 
Cc1ccccc1CSc1n[nH]c(=Nc2ccccc2)s1

>  <score_type>  (96) 
oracle

>  <origin>  (96) 
adg

>  <m_score__min__energy>  (96) 
-10.029999999999999

>  <m_primary>  (96) 
energy

$$$$
96:0
     RDKit          3D

 55 57  0  0  0  0  0  0  0  0999 V2000
   57.1000   31.6010   44.4810 C   0  0  0  0  0  0  0  0  0  0  0  0
   58.1760   31.8650   45.4320 N   0  0  0  0  0  0  0  0  0  0  0  0
   58.9320   33.0840   45.4030 C   0  0  0  0  0  0  0  0  0  0  0  0
   58.9150   33.8140   44.3720 O   0  0  0  0  0  0  0  0  0  0  0  0
   59.7800   33.4770   46.5530 C   0  0  0  0  0  0  0  0  0  0  0  0
   59.2390   34.2560   47.5910 C   0  0  0  0  0  0  0  0  0  0  0  0
   60.0350   34.6440   48.6720 C   0  0  0  0  0  0  0  0  0  0  0  0
   61.3710   34.2480   48.7380 C   0  0  0  0  0  0  0  0  0  0  0  0
   61.9350   33.4640   47.7090 C   0  0  0  0  0  0  0  0  0  0  0  0
   63.3510   33.0360   47.7940 C   0  0  0  0  0  0  0  0  0  0  0  0
   64.0520   32.9590   46.7500 O   0  0  0  0  0  0  0  0  0  0  0  0
   63.9480   32.6810   49.0930 C   0  0  0  0  0  0  0  0  0  0  0  0
   64.9840   33.4610   49.6200 C   0  0  0  0  0  0  0  0  0  0  0  0
   65.6540   33.0620   50.7870 C   0  0  0  0  0  0  0  0  0  0  0  0
   66.7580   33.8990   51.3680 C   0  0  0  0  0  0  0  0  0  0  0  0
   65.3090   31.8460   51.3970 C   0  0  0  0  0  0  0  0  0  0  0  0
   64.2670   31.0700   50.8830 C   0  0  0  0  0  0  0  0  0  0  0  0
   63.5490   31.5060   49.7540 C   0  0  0  0  0  0  0  0  0  0  0  0
   62.4190   30.8230   49.2850 O   0  0  0  0  0  0  0  0  0  0  0  0
   61.0640   31.2100   49.5170 C   0  0  0  0  0  0  0  0  0  0  0  0
   60.1140   30.5970   48.5210 C   0  0  0  0  0  0  0  0  0  0  0  0
   59.0740   31.2320   48.1930 O   0  0  0  0  0  0  0  0  0  0  0  0
   60.3400   29.3080   47.9250 N   0  0  0  0  0  0  0  0  0  0  0  0
   59.3990   28.3730   47.3720 C   0  0  0  0  0  0  0  0  0  0  0  0
   59.4470   27.0520   47.8330 C   0  0  0  0  0  0  0  0  0  0  0  0
   58.4830   26.1220   47.4310 C   0  0  0  0  0  0  0  0  0  0  0  0
   57.4870   26.4950   46.5190 C   0  0  0  0  0  0  0  0  0  0  0  0
   56.2060   25.3550   46.1200 S   0  0  0  0  0  0  0  0  0  0  0  0
   54.7480   26.2480   45.8470 N   0  0  0  0  0  0  0  0  0  0  0  0
   56.0020   24.3970   47.2590 O   0  0  0  0  0  0  0  0  0  0  0  0
   56.5640   24.5750   44.8870 O   0  0  0  0  0  0  0  0  0  0  0  0
   57.4810   27.7900   45.9840 C   0  0  0  0  0  0  0  0  0  0  0  0
   58.4430   28.7220   46.3950 C   0  0  0  0  0  0  0  0  0  0  0  0
   61.1320   33.0820   46.6200 C   0  0  0  0  0  0  0  0  0  0  0  0
   56.1738   31.3737   45.0291 H   0  0  0  0  0  0  0  0  0  0  0  0
   56.9438   32.4875   43.8487 H   0  0  0  0  0  0  0  0  0  0  0  0
   57.3718   30.7429   43.8487 H   0  0  0  0  0  0  0  0  0  0  0  0
   58.4650   31.1020   46.0830 H   0  0  0  0  0  0  0  0  0  0  0  0
   58.1831   34.5618   47.5519 H   0  0  0  0  0  0  0  0  0  0  0  0
   59.6067   35.2637   49.4736 H   0  0  0  0  0  0  0  0  0  0  0  0
   61.9885   34.5486   49.5972 H   0  0  0  0  0  0  0  0  0  0  0  0
   65.2753   34.3941   49.1155 H   0  0  0  0  0  0  0  0  0  0  0  0
   66.7078   33.8610   52.4662 H   0  0  0  0  0  0  0  0  0  0  0  0
   67.7299   33.5087   51.0316 H   0  0  0  0  0  0  0  0  0  0  0  0
   66.6447   34.9401   51.0316 H   0  0  0  0  0  0  0  0  0  0  0  0
   65.8615   31.5023   52.2839 H   0  0  0  0  0  0  0  0  0  0  0  0
   64.0070   30.1148   51.3626 H   0  0  0  0  0  0  0  0  0  0  0  0
   60.7726   30.8882   50.5277 H   0  0  0  0  0  0  0  0  0  0  0  0
   61.0039   32.3031   49.4096 H   0  0  0  0  0  0  0  0  0  0  0  0
   60.2504   26.7427   48.5178 H   0  0  0  0  0  0  0  0  0  0  0  0
   58.5068   25.0975   47.8309 H   0  0  0  0  0  0  0  0  0  0  0  0
   54.7880   27.0900   46.4640 H   0  0  0  0  0  0  0  0  0  0  0  0
   56.7211   28.0749   45.2414 H   0  0  0  0  0  0  0  0  0  0  0  0
   58.4529   29.7298   45.9542 H   0  0  0  0  0  0  0  0  0  0  0  0
   61.5620   32.4699   45.8135 H   0  0  0  0  0  0  0  0  0  0  0  0
  1  2  1  0
  2  3  1  0
  3  4  2  0
  3  5  1  0
  5  6  2  0
  6  7  1  0
  7  8  2  0
  8  9  1  0
  9 10  1  0
 10 11  2  0
 10 12  1  0
 12 13  2  0
 13 14  1  0
 14 15  1  0
 14 16  2  0
 16 17  1  0
 17 18  2  0
 18 19  1  0
 19 20  1  0
 20 21  1  0
 21 22  2  0
 21 23  1  0
 23 24  1  0
 24 25  2  0
 25 26  1  0
 26 27  2  0
 27 28  1  0
 28 29  1  0
 28 30  2  0
 28 31  2  0
 27 32  1  0
 32 33  2  0
  9 34  2  0
 34  5  1  0
 18 12  1  0
 33 24  1  0
  1 35  1  0
  1 36  1  0
  1 37  1  0
  2 38  1  0
  6 39  1  0
  7 40  1  0
  8 41  1  0
 13 42  1  0
 15 43  1  0
 15 44  1  0
 15 45  1  0
 16 46  1  0
 17 47  1  0
 20 48  1  0
 20 49  1  0
 25 50  1  0
 26 51  1  0
 29 52  1  0
 32 53  1  0
 33 54  1  0
 34 55  1  0
M  CHG  2  23  -1  29  -1
M  END
>  <UniqueID>  (97) 
83

>  <SMILES>  (97) 
CNC(=O)c1cccc(C(=O)c2cc(C)ccc2OCC(=O)[N-]c2ccc(S([NH-])(=O)=O)cc2)c1

>  <Energy>  (97) 
77.68067344211482

>  <Genealogy>  (97) 
CNC(=O)c1cccc(C(=O)c2cc(C)ccc2OCC(=O)[N-]c2ccc(S([NH-])(=O)=O)cc2)c1 (protonated)
CNC(=O)c1cccc(C(=O)c2cc(C)ccc2OCC(=O)[N-]c2ccc(S([NH-])(=O)=O)cc2)c1 (3D coordinates assigned)
CNC(=O)c1cccc(C(=O)c2cc(C)ccc2OCC(=O)[N-]c2ccc(S([NH-])(=O)=O)cc2)c1 (optimized conformer: 77.68067344211482 kcal/mol)

>  <smiles>  (97) 
CNC(=O)c1cccc(C(=O)c2cc(C)ccc2OCC(=O)Nc2ccc(S(N)(=O)=O)cc2)c1

>  <score_type>  (97) 
oracle

>  <origin>  (97) 
adg

>  <m_score__min__energy>  (97) 
-13.56

>  <m_primary>  (97) 
energy

$$$$
97:0
     RDKit          3D

 39 41  0  0  0  0  0  0  0  0999 V2000
   55.3620   29.7310   44.8600 O   0  0  0  0  0  0  0  0  0  0  0  0
   56.6200   29.6980   44.8510 C   0  0  0  0  0  0  0  0  0  0  0  0
   57.2720   28.4810   44.4620 N   0  0  0  0  0  0  0  0  0  0  0  0
   58.3780   27.8580   45.1340 C   0  0  0  0  0  0  0  0  0  0  0  0
   59.6930   28.3350   44.9700 C   0  0  0  0  0  0  0  0  0  0  0  0
   60.7530   27.7230   45.6450 C   0  0  0  0  0  0  0  0  0  0  0  0
   60.5110   26.6440   46.4990 C   0  0  0  0  0  0  0  0  0  0  0  0
   59.2060   26.1800   46.6850 C   0  0  0  0  0  0  0  0  0  0  0  0
   58.1390   26.7870   46.0120 C   0  0  0  0  0  0  0  0  0  0  0  0
   56.5100   26.1780   46.2660 Cl  0  0  0  0  0  0  0  0  0  0  0  0
   57.3820   30.9240   45.1890 C   0  0  0  0  0  0  0  0  0  0  0  0
   57.3680   32.0280   44.3250 C   0  0  0  0  0  0  0  0  0  0  0  0
   58.0960   33.1750   44.6410 C   0  0  0  0  0  0  0  0  0  0  0  0
   58.8490   33.2070   45.8170 C   0  0  0  0  0  0  0  0  0  0  0  0
   59.8150   34.6640   46.2260 S   0  0  0  0  0  0  0  0  0  0  0  0
   61.4340   33.8300   46.0700 C   0  0  0  0  0  0  0  0  0  0  0  0
   62.1090   33.7060   47.4100 C   0  0  0  0  0  0  0  0  0  0  0  0
   61.4040   34.0440   48.5780 C   0  0  0  0  0  0  0  0  0  0  0  0
   62.0050   33.8990   49.8320 C   0  0  0  0  0  0  0  0  0  0  0  0
   63.3110   33.4120   49.9310 C   0  0  0  0  0  0  0  0  0  0  0  0
   64.0200   33.0720   48.7760 C   0  0  0  0  0  0  0  0  0  0  0  0
   63.4270   33.2170   47.5180 C   0  0  0  0  0  0  0  0  0  0  0  0
   64.1310   32.8660   46.4120 F   0  0  0  0  0  0  0  0  0  0  0  0
   58.8590   32.1280   46.6480 N   0  0  0  0  0  0  0  0  0  0  0  0
   58.1590   30.9980   46.3580 C   0  0  0  0  0  0  0  0  0  0  0  0
   59.8865   29.1922   44.3084 H   0  0  0  0  0  0  0  0  0  0  0  0
   61.7797   28.0916   45.5036 H   0  0  0  0  0  0  0  0  0  0  0  0
   61.3473   26.1600   47.0247 H   0  0  0  0  0  0  0  0  0  0  0  0
   59.0165   25.3346   47.3628 H   0  0  0  0  0  0  0  0  0  0  0  0
   56.7813   31.9895   43.3953 H   0  0  0  0  0  0  0  0  0  0  0  0
   58.0773   34.0465   43.9701 H   0  0  0  0  0  0  0  0  0  0  0  0
   61.2818   32.8250   45.6496 H   0  0  0  0  0  0  0  0  0  0  0  0
   62.0755   34.4314   45.4090 H   0  0  0  0  0  0  0  0  0  0  0  0
   60.3745   34.4244   48.5051 H   0  0  0  0  0  0  0  0  0  0  0  0
   61.4490   34.1687   50.7420 H   0  0  0  0  0  0  0  0  0  0  0  0
   63.7811   33.2962   50.9187 H   0  0  0  0  0  0  0  0  0  0  0  0
   65.0480   32.6890   48.8566 H   0  0  0  0  0  0  0  0  0  0  0  0
   59.4300   32.1560   47.5230 H   0  0  0  0  0  0  0  0  0  0  0  0
   58.2013   30.1376   47.0421 H   0  0  0  0  0  0  0  0  0  0  0  0
  1  2  2  0
  2  3  1  0
  3  4  1  0
  4  5  2  0
  5  6  1  0
  6  7  2  0
  7  8  1  0
  8  9  2  0
  9 10  1  0
  2 11  1  0
 11 12  2  0
 12 13  1  0
 13 14  2  0
 14 15  1  0
 15 16  1  0
 16 17  1  0
 17 18  2  0
 18 19  1  0
 19 20  2  0
 20 21  1  0
 21 22  2  0
 22 23  1  0
 14 24  1  0
 24 25  2  0
  9  4  1  0
 25 11  1  0
 22 17  1  0
  5 26  1  0
  6 27  1  0
  7 28  1  0
  8 29  1  0
 12 30  1  0
 13 31  1  0
 16 32  1  0
 16 33  1  0
 18 34  1  0
 19 35  1  0
 20 36  1  0
 21 37  1  0
 24 38  1  0
 25 39  1  0
M  CHG  2   3  -1  24   1
M  END
>  <UniqueID>  (98) 
84

>  <SMILES>  (98) 
O=C([N-]c1ccccc1Cl)c1ccc(SCc2ccccc2F)[nH+]c1

>  <Energy>  (98) 
44.12986145225816

>  <Genealogy>  (98) 
O=C([N-]c1ccccc1Cl)c1ccc(SCc2ccccc2F)[nH+]c1 (protonated)
O=C([N-]c1ccccc1Cl)c1ccc(SCc2ccccc2F)[nH+]c1 (3D coordinates assigned)
O=C([N-]c1ccccc1Cl)c1ccc(SCc2ccccc2F)[nH+]c1 (optimized conformer: 44.12986145225816 kcal/mol)

>  <smiles>  (98) 
O=C(Nc1ccccc1Cl)c1ccc(SCc2ccccc2F)nc1

>  <score_type>  (98) 
oracle

>  <origin>  (98) 
adg

>  <m_score__min__energy>  (98) 
-8.3800000000000008

>  <m_primary>  (98) 
energy

$$$$
