EM8
     RDKit          3D

  0  0  0  0  0  0  0  0  0  0999 V3000
M  V30 BEGIN CTAB
M  V30 COUNTS 45 47 0 0 1
M  V30 BEGIN ATOM
M  V30 1 C -1.567000 20.928000 -27.410000 0
M  V30 2 C -1.192000 22.129000 -28.295000 0 CFG=2
M  V30 3 C -1.540000 23.437000 -27.556000 0
M  V30 4 O 0.295000 24.690000 -28.434000 0
M  V30 5 C -1.825000 22.012000 -29.679000 0
M  V30 6 C -1.044000 21.662000 -30.780000 0
M  V30 7 C -1.612000 21.532000 -32.048000 0
M  V30 8 C -2.977000 21.743000 -32.247000 0
M  V30 9 C -3.777000 22.089000 -31.154000 0
M  V30 10 C -3.190000 22.202000 -29.882000 0
M  V30 11 C -6.111000 21.390000 -31.630000 0
M  V30 12 C -6.030000 20.090000 -32.137000 0
M  V30 13 C -7.204000 19.410000 -32.458000 0
M  V30 14 C -7.378000 21.996000 -31.459000 0
M  V30 15 C -7.170000 23.290000 -30.929000 0
M  V30 16 C -5.833000 23.443000 -30.766000 0
M  V30 17 C -5.207000 24.658000 -30.248000 0
M  V30 18 C -0.905000 24.618000 -28.254000 0
M  V30 19 O -1.669000 25.609000 -28.712000 0 CHG=-1
M  V30 20 N -5.167000 22.306000 -31.219000 0
M  V30 21 C -8.445000 20.027000 -32.270000 0
M  V30 22 C -8.552000 21.307000 -31.791000 0
M  V30 23 O -4.228000 25.120000 -30.820000 0
M  V30 24 N -5.711000 25.248000 -29.145000 0
M  V30 25 O -7.244000 18.134000 -32.943000 0
M  V30 26 C -6.132000 17.514000 -33.553000 0
M  V30 27 F -6.477000 16.286000 -34.107000 0
M  V30 28 F -5.202000 17.196000 -32.578000 0
M  V30 29 F -5.657000 18.394000 -34.531000 0
M  V30 30 H -1.190733 19.996169 -27.833957 0
M  V30 31 H -1.154038 21.015971 -26.404424 0
M  V30 32 H -2.648128 20.825028 -27.320034 0
M  V30 33 H -0.106212 22.069698 -28.406490 0
M  V30 34 H -1.142538 23.415349 -26.539818 0
M  V30 35 H -2.618656 23.572507 -27.457581 0
M  V30 36 H 0.007491 21.481161 -30.662911 0
M  V30 37 H -0.987023 21.260470 -32.885679 0
M  V30 38 H -3.407197 21.640355 -33.233102 0
M  V30 39 H -3.811463 22.435545 -29.028917 0
M  V30 40 H -5.066284 19.621661 -32.264763 0
M  V30 41 H -7.908591 24.037432 -30.698125 0
M  V30 42 H -9.345177 19.483607 -32.519841 0
M  V30 43 H -9.521665 21.764741 -31.660942 0
M  V30 44 H -5.240024 26.062043 -28.754112 0
M  V30 45 H -6.449373 24.806574 -28.611638 0
M  V30 END ATOM
M  V30 BEGIN BOND
M  V30 1 1 2 1
M  V30 2 1 3 2
M  V30 3 1 5 2
M  V30 4 2 6 5
M  V30 5 1 7 6
M  V30 6 2 8 7
M  V30 7 1 9 8
M  V30 8 1 10 5
M  V30 9 2 10 9
M  V30 10 2 12 11
M  V30 11 1 13 12
M  V30 12 1 14 11
M  V30 13 1 15 14
M  V30 14 2 16 15
M  V30 15 1 17 16
M  V30 16 1 18 3
M  V30 17 2 18 4
M  V30 18 1 19 18
M  V30 19 1 20 9
M  V30 20 1 20 11
M  V30 21 1 20 16
M  V30 22 2 21 13
M  V30 23 2 22 14
M  V30 24 1 22 21
M  V30 25 2 23 17
M  V30 26 1 24 17
M  V30 27 1 25 13
M  V30 28 1 26 25
M  V30 29 1 27 26
M  V30 30 1 28 26
M  V30 31 1 29 26
M  V30 32 1 30 1
M  V30 33 1 31 1
M  V30 34 1 32 1
M  V30 35 1 2 33 CFG=3
M  V30 36 1 34 3
M  V30 37 1 35 3
M  V30 38 1 36 6
M  V30 39 1 37 7
M  V30 40 1 38 8
M  V30 41 1 39 10
M  V30 42 1 40 12
M  V30 43 1 41 15
M  V30 44 1 42 21
M  V30 45 1 43 22
M  V30 46 1 44 24
M  V30 47 1 45 24
M  V30 END BOND
M  V30 END CTAB
M  END
>  <i_m_Source_File_Index>  (1) 
1

>  <i_pdb_PDB_CRYST1_z>  (1) 
8

>  <i_pdb_PDB_Model>  (1) 
1

>  <b_m_subgroup_collapsed>  (1) 
0

>  <b_ppw_created_disulfur>  (1) 
1

>  <b_ppw_prepared>  (1) 
1

>  <r_i_Bend_Energy-S-OPLS>  (1) 
76.163607912964196

>  <r_i_Dihedral_Energy-S-OPLS>  (1) 
66.850987151713895

>  <r_i_El-14_Energy-S-OPLS>  (1) 
-112.31753491190899

>  <r_i_Electrostatic_Energy-S-OPLS>  (1) 
-5153.5727382131199

>  <r_i_LJ-14_Energy-S-OPLS>  (1) 
175.78332403374199

>  <r_i_Max_Derivative-S-OPLS>  (1) 
1.0656635463337401

>  <r_i_Potential_Energy-S-OPLS>  (1) 
-5192.95741582972

>  <r_i_RMS_Derivative-S-OPLS>  (1) 
0.075204587528271499

>  <r_i_Stretch_Energy-S-OPLS>  (1) 
4.2096699049316202

>  <r_i_Van_der_Waals_Energy-S-OPLS>  (1) 
-250.07473170804101

>  <r_i_target_temperature>  (1) 
298

>  <r_pdb_PDB_CRYST1_a>  (1) 
27.961999893188501

>  <r_pdb_PDB_CRYST1_alpha>  (1) 
90

>  <r_pdb_PDB_CRYST1_b>  (1) 
85.500999450683594

>  <r_pdb_PDB_CRYST1_beta>  (1) 
90

>  <r_pdb_PDB_CRYST1_c>  (1) 
103.07900238037099

>  <r_pdb_PDB_CRYST1_gamma>  (1) 
90

>  <r_pdb_PDB_EXPDTA_PH>  (1) 
5.5999999046325701

>  <r_pdb_PDB_EXPDTA_TEMPERATURE>  (1) 
100

>  <r_pdb_PDB_R>  (1) 
0.19392000138759599

>  <r_pdb_PDB_RESOLUTION>  (1) 
1.8500000238418599

>  <r_pdb_PDB_Rfree>  (1) 
0.22778999805450401

>  <r_ppw_preprocess_pH>  (1) 
7.4000000000000004

>  <s_m_Chain_Name>  (1) 
B

>  <s_m_Source_File>  (1) 
proteinprep_1-out.maegz

>  <s_m_Source_Path>  (1) 
/home/kmll395/projects/PLA2G2A/proteinprep_1

>  <s_m_backendhidden_zob_param>  (1) 
ewogICAiYW5nbGUiIDogWwogICAgICB7CiAgICAgICAgICJmb3JjZV9jb25zdGFudCIgOiA2MCwKICAgICAgICAgImkiIDogMTgxNSwKICAgICAgICAgImoiIDogMzYzLAogICAgICAgICAiayIgOiAzNjIsCiAgICAgICAgICJyZWZlcmVuY2VfdmFsdWUiIDogMi45MjA5MDM2NTE2MTI5NTYxCiAgICAgIH0sCiAgICAgIHsKICAgICAgICAgImZvcmNlX2NvbnN0YW50IiA6IDYwLAogICAgICAgICAiaSIgOiAxODE1LAogICAgICAgICAiaiIgOiAzOTMsCiAgICAgICAgICJrIiA6IDM5MiwKICAgICAgICAgInJlZmVyZW5jZV92YWx1ZSIgOiAyLjkyMzA5OTAzOTc0MDcxMTMKICAgICAgfSwKICAgICAgewogICAgICAgICAiZm9yY2VfY29uc3RhbnQiIDogNjAsCiAgICAgICAgICJpIiA6IDE4MTUsCiAgICAgICAgICJqIiA6IDQxOSwKICAgICAgICAgImsiIDogNDE4LAogICAgICAgICAicmVmZXJlbmNlX3ZhbHVlIiA6IDIuNjYzODM0MzY5MTUzNTY2OQogICAgICB9LAogICAgICB7CiAgICAgICAgICJmb3JjZV9jb25zdGFudCIgOiA2MCwKICAgICAgICAgImkiIDogMTgxNSwKICAgICAgICAgImoiIDogNjUzLAogICAgICAgICAiayIgOiA2NTIsCiAgICAgICAgICJyZWZlcmVuY2VfdmFsdWUiIDogMS41NzM4NDQ5NjQ1MjgxNTA3CiAgICAgIH0sCiAgICAgIHsKICAgICAgICAgImZvcmNlX2NvbnN0YW50IiA6IDYwLAogICAgICAgICAiaSIgOiAxODE1LAogICAgICAgICAiaiIgOiA2NTQsCiAgICAgICAgICJrIiA6IDY1MiwKICAgICAgICAgInJlZmVyZW5jZV92YWx1ZSIgOiAxLjY4NTM1NjgwNDQ4NjQ1NjYKICAgICAgfSwKICAgICAgewogICAgICAgICAiZm9yY2VfY29uc3RhbnQiIDogNjAsCiAgICAgICAgICJpIiA6IDM2MywKICAgICAgICAgImoiIDogMTgxNSwKICAgICAgICAgImsiIDogMzkzLAogICAgICAgICAicmVmZXJlbmNlX3ZhbHVlIiA6IDEuNTk3MDk5MjI4NDkwODcyOQogICAgICB9LAogICAgICB7CiAgICAgICAgICJmb3JjZV9jb25zdGFudCIgOiA2MCwKICAgICAgICAgImkiIDogMzYzLAogICAgICAgICAiaiIgOiAxODE1LAogICAgICAgICAiayIgOiA0MTksCiAgICAgICAgICJyZWZlcmVuY2VfdmFsdWUiIDogMS41OTMzNjI1NDU4NDUzNzUxCiAgICAgIH0sCiAgICAgIHsKICAgICAgICAgImZvcmNlX2NvbnN0YW50IiA6IDYwLAogICAgICAgICAiaSIgOiAzNjMsCiAgICAgICAgICJqIiA6IDE4MTUsCiAgICAgICAgICJrIiA6IDY1MywKICAgICAgICAgInJlZmVyZW5jZV92YWx1ZSIgOiAxLjc5MzA2MzkwOTE2OTA5ODUKICAgICAgfSwKICAgICAgewogICAgICAgICAiZm9yY2VfY29uc3RhbnQiIDogNjAsCiAgICAgICAgICJpIiA6IDM2MywKICAgICAgICAgImoiIDogMTgxNSwKICAgICAgICAgImsiIDogNjU0LAogICAgICAgICAicmVmZXJlbmNlX3ZhbHVlIiA6IDEuNjE5Mzg2NDU1MDAxNTU2OQogICAgICB9LAogICAgICB7CiAgICAgICAgICJmb3JjZV9jb25zdGFudCIgOiA2MCwKICAgICAgICAgImkiIDogMzYzLAogICAgICAgICAiaiIgOiAxODE1LAogICAgICAgICAiayIgOiAxODM4LAogICAgICAgICAicmVmZXJlbmNlX3ZhbHVlIiA6IDEuMzI1NzEzMzg2MTk5ODQxNAogICAgICB9LAogICAgICB7CiAgICAgICAgICJmb3JjZV9jb25zdGFudCIgOiA2MCwKICAgICAgICAgImkiIDogMzkzLAogICAgICAgICAiaiIgOiAxODE1LAogICAgICAgICAiayIgOiA0MTksCiAgICAgICAgICJyZWZlcmVuY2VfdmFsdWUiIDogMS4zNTg4MDQ0NjgzNzQxODY5CiAgICAgIH0sCiAgICAgIHsKICAgICAgICAgImZvcmNlX2NvbnN0YW50IiA6IDYwLAogICAgICAgICAiaSIgOiAzOTMsCiAgICAgICAgICJqIiA6IDE4MTUsCiAgICAgICAgICJrIiA6IDY1MywKICAgICAgICAgInJlZmVyZW5jZV92YWx1ZSIgOiAyLjYyOTM5OTUzMjcwMjEwODUKICAgICAgfSwKICAgICAgewogICAgICAgICAiZm9yY2VfY29uc3RhbnQiIDogNjAsCiAgICAgICAgICJpIiA6IDM5MywKICAgICAgICAgImoiIDogMTgxNSwKICAgICAgICAgImsiIDogNjU0LAogICAgICAgICAicmVmZXJlbmNlX3ZhbHVlIiA6IDIuNjg1MzI4MjY4NTUwNjQwMQogICAgICB9LAogICAgICB7CiAgICAgICAgICJmb3JjZV9jb25zdGFudCIgOiA2MCwKICAgICAgICAgImkiIDogMzkzLAogICAgICAgICAiaiIgOiAxODE1LAogICAgICAgICAiayIgOiAxODM0LAogICAgICAgICAicmVmZXJlbmNlX3ZhbHVlIiA6IDEuNDg3MTA0MzEwOTI4MjIxNAogICAgICB9LAogICAgICB7CiAgICAgICAgICJmb3JjZV9jb25zdGFudCIgOiA2MCwKICAgICAgICAgImkiIDogMzkzLAogICAgICAgICAiaiIgOiAxODE1LAogICAgICAgICAiayIgOiAxODM4LAogICAgICAgICAicmVmZXJlbmNlX3ZhbHVlIiA6IDEuMzQwNzMzMDE2MDE3MzMxOQogICAgICB9LAogICAgICB7CiAgICAgICAgICJmb3JjZV9jb25zdGFudCIgOiA2MCwKICAgICAgICAgImkiIDogNDE5LAogICAgICAgICAiaiIgOiAxODE1LAogICAgICAgICAiayIgOiA2NTMsCiAgICAgICAgICJyZWZlcmVuY2VfdmFsdWUiIDogMi4yMDgwODc1MTk2MDM1Mzc0CiAgICAgIH0sCiAgICAgIHsKICAgICAgICAgImZvcmNlX2NvbnN0YW50IiA6IDYwLAogICAgICAgICAiaSIgOiA0MTksCiAgICAgICAgICJqIiA6IDE4MTUsCiAgICAgICAgICJrIiA6IDY1NCwKICAgICAgICAgInJlZmVyZW5jZV92YWx1ZSIgOiAxLjMzMTMyMTMxNTg1OTE3OTcKICAgICAgfSwKICAgICAgewogICAgICAgICAiZm9yY2VfY29uc3RhbnQiIDogNjAsCiAgICAgICAgICJpIiA6IDQxOSwKICAgICAgICAgImoiIDogMTgxNSwKICAgICAgICAgImsiIDogMTgzNCwKICAgICAgICAgInJlZmVyZW5jZV92YWx1ZSIgOiAxLjc2Njk4Mjk1MDU0NjAwNgogICAgICB9LAogICAgICB7CiAgICAgICAgICJmb3JjZV9jb25zdGFudCIgOiA2MCwKICAgICAgICAgImkiIDogNDE5LAogICAgICAgICAiaiIgOiAxODE1LAogICAgICAgICAiayIgOiAxODM4LAogICAgICAgICAicmVmZXJlbmNlX3ZhbHVlIiA6IDIuNjM5MTEzNTY1MzcyNTk1OQogICAgICB9LAogICAgICB7CiAgICAgICAgICJmb3JjZV9jb25zdGFudCIgOiA2MCwKICAgICAgICAgImkiIDogNjUzLAogICAgICAgICAiaiIgOiAxODE1LAogICAgICAgICAiayIgOiA2NTQsCiAgICAgICAgICJyZWZlcmVuY2VfdmFsdWUiIDogMC45MDgxNDUwMTQ2MTQxMzE4OAogICAgICB9LAogICAgICB7CiAgICAgICAgICJmb3JjZV9jb25zdGFudCIgOiA2MCwKICAgICAgICAgImkiIDogNjUzLAogICAgICAgICAiaiIgOiAxODE1LAogICAgICAgICAiayIgOiAxODM0LAogICAgICAgICAicmVmZXJlbmNlX3ZhbHVlIiA6IDEuMzA1MDkxMDY5NTc0MDE1NwogICAgICB9LAogICAgICB7CiAgICAgICAgICJmb3JjZV9jb25zdGFudCIgOiA2MCwKICAgICAgICAgImkiIDogNjUzLAogICAgICAgICAiaiIgOiAxODE1LAogICAgICAgICAiayIgOiAxODM4LAogICAgICAgICAicmVmZXJlbmNlX3ZhbHVlIiA6IDEuNDI5MjUxMjMwODY2NjExMgogICAgICB9LAogICAgICB7CiAgICAgICAgICJmb3JjZV9jb25zdGFudCIgOiA2MCwKICAgICAgICAgImkiIDogNjU0LAogICAgICAgICAiaiIgOiAxODE1LAogICAgICAgICAiayIgOiAxODM0LAogICAgICAgICAicmVmZXJlbmNlX3ZhbHVlIiA6IDEuNjc3OTQ1MTIxNjU2MDc0OAogICAgICB9LAogICAgICB7CiAgICAgICAgICJmb3JjZV9jb25zdGFudCIgOiA2MCwKICAgICAgICAgImkiIDogNjU0LAogICAgICAgICAiaiIgOiAxODE1LAogICAgICAgICAiayIgOiAxODM4LAogICAgICAgICAicmVmZXJlbmNlX3ZhbHVlIiA6IDIuMjU0Njk0MzEwNTU5MTg0OAogICAgICB9LAogICAgICB7CiAgICAgICAgICJmb3JjZV9jb25zdGFudCIgOiA2MCwKICAgICAgICAgImkiIDogMTgzNCwKICAgICAgICAgImoiIDogMTgxNSwKICAgICAgICAgImsiIDogMTgzOCwKICAgICAgICAgInJlZmVyZW5jZV92YWx1ZSIgOiAxLjU3MjA3Njc3OTUzMDAyMTUKICAgICAgfSwKICAgICAgewogICAgICAgICAiZm9yY2VfY29uc3RhbnQiIDogNjAsCiAgICAgICAgICJpIiA6IDE4MTUsCiAgICAgICAgICJqIiA6IDE4MzQsCiAgICAgICAgICJrIiA6IDE4MzMsCiAgICAgICAgICJyZWZlcmVuY2VfdmFsdWUiIDogMi43MDkyNzA0Nzg0NDA2NjMyCiAgICAgIH0sCiAgICAgIHsKICAgICAgICAgImZvcmNlX2NvbnN0YW50IiA6IDYwLAogICAgICAgICAiaSIgOiAxODE1LAogICAgICAgICAiaiIgOiAxODM4LAogICAgICAgICAiayIgOiAxODMyLAogICAgICAgICAicmVmZXJlbmNlX3ZhbHVlIiA6IDIuMzQ2OTk5MjgzOTEwMTU0MwogICAgICB9CiAgIF0sCiAgICJib25kIiA6IFsKICAgICAgewogICAgICAgICAiZm9yY2VfY29uc3RhbnQiIDogMzAwLAogICAgICAgICAiaSIgOiAzNjMsCiAgICAgICAgICJqIiA6IDE4MTUsCiAgICAgICAgICJyZWZlcmVuY2VfdmFsdWUiIDogMi4zMTQxMTE5MjQ2OTE2Mjg2CiAgICAgIH0sCiAgICAgIHsKICAgICAgICAgImZvcmNlX2NvbnN0YW50IiA6IDMwMCwKICAgICAgICAgImkiIDogMzkzLAogICAgICAgICAiaiIgOiAxODE1LAogICAgICAgICAicmVmZXJlbmNlX3ZhbHVlIiA6IDIuMzQ5MDYzODU2MDkyNDY0MgogICAgICB9LAogICAgICB7CiAgICAgICAgICJmb3JjZV9jb25zdGFudCIgOiAzMDAsCiAgICAgICAgICJpIiA6IDQxOSwKICAgICAgICAgImoiIDogMTgxNSwKICAgICAgICAgInJlZmVyZW5jZV92YWx1ZSIgOiAyLjM1MDU4NjczNTI2NDE5NzgKICAgICAgfSwKICAgICAgewogICAgICAgICAiZm9yY2VfY29uc3RhbnQiIDogMzAwLAogICAgICAgICAiaSIgOiA2NTMsCiAgICAgICAgICJqIiA6IDE4MTUsCiAgICAgICAgICJyZWZlcmVuY2VfdmFsdWUiIDogMi41NDA2Mzk2ODMyMjk0MDM0CiAgICAgIH0sCiAgICAgIHsKICAgICAgICAgImZvcmNlX2NvbnN0YW50IiA6IDMwMCwKICAgICAgICAgImkiIDogNjU0LAogICAgICAgICAiaiIgOiAxODE1LAogICAgICAgICAicmVmZXJlbmNlX3ZhbHVlIiA6IDIuNDAxMDE0MTYwNzI0NTg3CiAgICAgIH0sCiAgICAgIHsKICAgICAgICAgImZvcmNlX2NvbnN0YW50IiA6IDMwMCwKICAgICAgICAgImkiIDogMTgxNSwKICAgICAgICAgImoiIDogMTgzNCwKICAgICAgICAgInJlZmVyZW5jZV92YWx1ZSIgOiAyLjIzNzY1MDU1MzU5NDEwNDMKICAgICAgfSwKICAgICAgewogICAgICAgICAiZm9yY2VfY29uc3RhbnQiIDogMzAwLAogICAgICAgICAiaSIgOiAxODE1LAogICAgICAgICAiaiIgOiAxODM4LAogICAgICAgICAicmVmZXJlbmNlX3ZhbHVlIiA6IDIuNDkxOTY4Mjk4MzUzNzMzMgogICAgICB9CiAgIF0KfQo=

>  <s_m_entry_id>  (1) 
10

>  <s_m_entry_name>  (1) 
6G5J.1_B_mol2

>  <s_m_job_name>  (1) 
proteinprep_1

>  <s_m_subgroup_title>  (1) 
proteinprep_1-out1->6G5J_chainB - prepared_split_by_molecule

>  <s_m_subgroupid>  (1) 
proteinprep_1-out1->6G5J_chainB - prepared_split_by_molecule

>  <s_pdb_PDB_CLASSIFICATION>  (1) 
HYDROLASE

>  <s_pdb_PDB_CRYST1_Space_Group>  (1) 
P 21 21 21

>  <s_pdb_PDB_DEPOSITION_DATE>  (1) 
2018-03-29

>  <s_pdb_PDB_EXPDTA>  (1) 
X-RAY DIFFRACTION

>  <s_pdb_PDB_ID>  (1) 
6G5J

>  <s_pdb_PDB_REMARK_350_Biomolecule_1_Transform_1_Chains>  (1) 
A

>  <s_pdb_PDB_REMARK_350_Biomolecule_1_Transform_1_Matrix_1>  (1) 
1.000000 0.000000 0.000000   0.000000;0.000000 1.000000 0.000000   0.000000;0.000000 0.000000 1.000000   0.000000

>  <s_pdb_PDB_REMARK_350_Biomolecule_2_Transform_1_Chains>  (1) 
B

>  <s_pdb_PDB_REMARK_350_Biomolecule_2_Transform_1_Matrix_1>  (1) 
1.000000 0.000000 0.000000   0.000000;0.000000 1.000000 0.000000   0.000000;0.000000 0.000000 1.000000   0.000000

>  <s_pdb_PDB_TITLE>  (1) 
Secreted phospholipase A2 type X in complex with ligand

>  <s_pdb_PDB_format_version>  (1) 
5.397

>  <s_pdb_PDB_source_format>  (1) 
mmcif_pdbx.dic

>  <s_ppw_het_states>  (1) 
eJztlc1qwzAQhF/F+JwGSZZWcl8lFGNSJTW4drCTQjF59662ZKK0PeZUkoPZ0Y8/aSaLl7L5iNPcjUNTPhdU60qtCh5r+1NMI0tp+LlZyu1bO+3jnMSmtrQq1Muq4MqjCqjqS+UUKo3KoKpQWVQOFRgODAeGA4PAIDAIDAKDwCAwCAwCg8AgMDwYHgwPhgfDC4PLcpxe2darW2KUhmXiViaTURo2yqk1vBRpYKh4mUt3WZwmxF8Np8VkA7vFaQ3PZa+5Srq+Kp05GW8yWd/MZovlCriRkysQ9ibpcUEnN/ohAUoTEqRBpJKmziS4aULyMpnEIZNrkrpG1gLSiFTS1MhVIs1ldSvlVSncQxza/vjJ6VbrEIyt+WdD0MEmXPkej23ffC/qpGWWMw/P23GKLIZT37Psht3YzMcpG5mbcer2He/jwV3bz5H3/ZPWe9KP3nv03j17T62VUsFaxlaBH96oyty5/RJR//UBlOxu/2y/Tnfvs5zPX4bUyb8=

>  <s_ppw_prepared_with_version>  (1) 
2025-1

$$$$
